data_functionalizedCrystal
_audit_creation_method	'MofGen! by Chris Wilmer'
_symmetry_space_group_name_H-M	'P1'
_symmetry_Int_Tables_number	1
_symmetry_cell_setting	triclinic
loop_
_symmetry_equiv_pos_as_xyz
  x,y,z
_cell_length_a	12.837943
_cell_length_b	12.784893
_cell_length_c	11.295483
_cell_angle_alpha	93.661294
_cell_angle_beta	94.538773
_cell_angle_gamma	96.032403
loop_
_atom_site_label
_atom_site_type_symbol
_atom_site_fract_x
_atom_site_fract_y
_atom_site_fract_z
O1	O	1.358327	-0.267425	0.099005
O2	O	1.057742	-0.253898	0.099012
O3	O	1.230031	-0.108162	0.099000
O4	O	1.186037	-0.413161	0.099017
O5	O	1.214901	-0.120941	-0.099050
O6	O	1.042611	-0.266677	-0.099038
O7	O	1.343197	-0.280203	-0.099045
Cu8	Cu	1.191522	-0.274607	-0.117125
Cu9	Cu	1.209416	-0.259495	0.117092
O10	O	1.170907	-0.425939	-0.099033
C11	C	1.011968	-0.255718	-0.000012
C12	C	0.898119	-0.242090	-0.000010
C13	C	1.225328	-0.075242	-0.000025
C14	C	1.233842	0.041890	-0.000023
N15	N	1.178944	-0.285236	-0.281860
C16	C	0.642391	-0.405922	-0.000017
C17	C	0.535419	-0.393123	-0.000016
C18	C	0.577201	-0.203692	-0.000014
C19	C	0.684173	-0.216492	-0.000015
C20	C	0.716763	-0.317610	-0.000015
C21	C	0.823738	-0.330408	-0.000008
C22	C	0.865517	-0.140980	-0.000015
C23	C	0.758545	-0.128180	-0.000013
C24	C	1.388971	-0.278383	-0.000018
C25	C	1.502820	-0.292011	-0.000013
C26	C	1.340543	0.210059	-0.000026
C27	C	1.332549	0.100004	-0.000027
C28	C	1.143120	0.093839	-0.000023
C29	C	1.151113	0.203895	-0.000022
C30	C	1.249828	0.262001	-0.000022
C31	C	1.257821	0.372059	-0.000013
C32	C	1.068391	0.365892	-0.000017
C33	C	1.060398	0.255837	-0.000018
C34	C	1.175611	0.541140	-0.000009
C35	C	1.167099	0.424008	-0.000012
C36	C	1.312551	-0.172285	-0.531159
C37	C	1.303052	-0.180326	-0.655822
C38	C	1.150445	-0.309352	-0.655851
C39	C	1.159943	-0.301311	-0.531188
C40	C	1.241000	-0.232777	-0.468847
C41	C	1.250502	-0.224742	-0.344181
C42	C	1.097891	-0.353762	-0.344213
C43	C	1.088392	-0.361802	-0.468876
N44	N	1.222003	-0.248858	0.281827
H45	H	0.850271	-0.412744	-0.000010
N46	N	1.020704	-0.418998	-0.277002
H47	H	0.967915	-0.463630	-0.335416
H48	H	1.059767	-0.466234	-0.225267
N49	N	0.723389	-0.019123	-0.000029
H50	H	0.644337	-0.024413	-0.000033
H51	H	0.756813	0.024736	0.073391
N52	N	1.337904	-0.150813	-0.276923
H53	H	1.383702	-0.192346	-0.225182
H54	H	1.381713	-0.113716	-0.335384
H55	H	1.084444	-0.365143	-0.706626
N56	N	0.677549	-0.514979	-0.000018
H57	H	0.756601	-0.509687	-0.000018
H58	H	0.655338	-0.549363	0.073406
N59	N	0.945734	-0.045719	-0.000000
H60	H	1.018448	-0.069167	0.000004
H61	H	0.930556	-0.006850	-0.073417
H62	H	0.474867	-0.465036	-0.000021
H63	H	1.338200	0.419369	-0.000006
N64	N	1.000967	-0.435712	-0.536119
H65	H	1.005803	-0.431627	-0.624548
H66	H	1.007759	-0.510237	-0.514326
N67	N	0.542021	-0.094645	-0.000020
H68	H	0.575366	-0.050723	0.073397
H69	H	0.564159	-0.060285	-0.073486
N70	N	1.447006	0.272741	-0.000009
H71	H	1.503264	0.223135	-0.000005
H72	H	1.448846	0.313806	-0.073426
N73	N	1.430390	0.043978	-0.000038
H74	H	1.494134	0.097492	-0.000040
H75	H	1.436811	0.003182	0.073380
N76	N	1.036665	0.031133	-0.000071
H77	H	1.034723	-0.009953	0.073331
H78	H	0.980451	0.080783	-0.000125
N79	N	0.953939	0.193145	-0.000039
H80	H	0.952006	0.152071	0.073371
H81	H	0.897736	0.242808	-0.000085
H82	H	0.994525	0.408195	-0.000010
H83	H	1.378557	-0.116490	-0.480399
N84	N	1.380231	-0.115092	-0.723033
H85	H	1.433021	-0.070462	-0.664619
H86	H	1.418060	-0.163386	-0.774737
