data_functionalizedCrystal
_audit_creation_method	'MofGen! by Chris Wilmer'
_symmetry_space_group_name_H-M	'P1'
_symmetry_Int_Tables_number	1
_symmetry_cell_setting	triclinic
loop_
_symmetry_equiv_pos_as_xyz
  x,y,z
_cell_length_a	10.489741
_cell_length_b	11.792241
_cell_length_c	8.965430
_cell_angle_alpha	89.991215
_cell_angle_beta	89.991522
_cell_angle_gamma	95.633705
loop_
_atom_site_label
_atom_site_type_symbol
_atom_site_fract_x
_atom_site_fract_y
_atom_site_fract_z
O1	O	1.693488	-0.160145	0.123948
O2	O	1.322241	-0.175176	0.123971
O3	O	1.516874	-0.002514	0.123948
O4	O	1.498856	-0.332807	0.123970
O5	O	1.516897	-0.002492	-0.124130
O6	O	1.322264	-0.175154	-0.124108
O7	O	1.693511	-0.160123	-0.124131
Cu8	Cu	1.507890	-0.167637	-0.146771
Cu9	Cu	1.507863	-0.167662	0.146611
O10	O	1.498878	-0.332785	-0.124108
C11	C	1.274725	-0.174030	-0.000065
C12	C	1.133107	-0.170633	-0.000057
C13	C	1.065341	-0.060774	-0.000078
C14	C	0.973026	-0.112681	0.122238
C15	C	0.973083	-0.112686	-0.122348
C16	C	1.042657	-0.222586	0.122360
C17	C	1.042723	-0.222575	-0.122336
C18	C	0.950436	-0.274563	0.000010
C19	C	1.515753	0.039791	-0.000090
C20	C	1.512366	0.165813	-0.000089
C21	C	1.741027	-0.161269	-0.000091
C22	C	1.882645	-0.164666	-0.000090
C23	C	1.499999	-0.375090	-0.000066
C24	C	1.503387	-0.501113	-0.000058
N25	N	1.507844	-0.167672	0.352960
C26	C	1.506136	0.396542	-0.000063
C27	C	1.509598	0.268148	-0.000077
C28	C	1.417673	-0.247349	0.549684
C29	C	1.532991	-0.270540	0.450213
C30	C	1.392536	-0.144532	0.450224
C31	C	1.623271	-0.190880	0.549598
C32	C	1.482741	-0.064827	0.549617
C33	C	1.598142	-0.087975	0.450191
N34	N	1.507894	-0.167637	0.646880
H35	H	1.073621	-0.269012	-0.225746
H36	H	1.720828	-0.210540	0.593067
H37	H	1.674501	-0.020577	0.406782
H38	H	1.115339	0.029538	0.000069
C39	C	1.454080	0.051037	0.607818
C40	C	1.333153	0.074803	0.557589
C41	C	1.306685	0.181518	0.611194
H42	H	1.517197	0.107917	0.572307
H43	H	1.455016	0.050416	0.713778
H44	H	1.332227	0.075433	0.451652
H45	H	1.270010	0.017951	0.593096
H46	H	1.307621	0.180897	0.717154
H47	H	1.369809	0.238389	0.575679
H48	H	1.224630	0.197652	0.577133
C49	C	1.316268	-0.337340	0.608160
C50	C	1.374710	-0.415542	0.696212
C51	C	1.281343	-0.498449	0.750124
H52	H	1.273674	-0.376033	0.526630
H53	H	1.255890	-0.301835	0.666561
H54	H	1.435065	-0.451044	0.637814
H55	H	1.417297	-0.376883	0.777765
H56	H	1.220965	-0.462944	0.808525
H57	H	1.238754	-0.537134	0.668585
H58	H	1.320981	-0.551513	0.809884
H59	H	0.942161	-0.066206	0.225643
H60	H	1.554254	-0.357500	0.406549
C61	C	0.884178	-0.395130	0.000407
C62	C	0.919457	-0.452115	0.128708
C63	C	0.858430	-0.563175	0.129141
H64	H	0.909048	-0.434579	-0.085554
H65	H	0.793969	-0.392359	-0.000342
H66	H	1.009646	-0.454891	0.129443
H67	H	0.894585	-0.412700	0.214690
H68	H	0.768221	-0.560405	0.128392
H69	H	0.883305	-0.602614	0.043175
H70	H	0.882349	-0.601850	0.216198
C71	C	1.083789	-0.284440	0.260355
C72	C	1.216967	-0.286837	0.258812
C73	C	1.254908	-0.343789	0.385917
H74	H	1.043543	-0.360199	0.260842
H75	H	1.059448	-0.245671	0.347145
H76	H	1.241295	-0.325608	0.172046
H77	H	1.257244	-0.211094	0.258347
H78	H	1.230567	-0.305020	0.472706
H79	H	1.214654	-0.419544	0.386393
H80	H	1.345273	-0.345414	0.384894
C81	C	0.932198	-0.050495	-0.260185
C82	C	0.990941	0.061372	-0.259610
C83	C	0.953325	0.118700	-0.386560
H84	H	0.841791	-0.049261	-0.259801
H85	H	0.957264	-0.088720	-0.347083
H86	H	0.965867	0.099588	-0.172734
H87	H	1.081347	0.060172	-0.260016
H88	H	0.978392	0.080475	-0.473459
H89	H	0.862918	0.119926	-0.386165
H90	H	0.993186	0.194604	-0.386194
H91	H	1.295001	-0.124976	0.406567
