data_functionalizedCrystal
_audit_creation_method	'MofGen! by Chris Wilmer'
_symmetry_space_group_name_H-M	'P1'
_symmetry_Int_Tables_number	1
_symmetry_cell_setting	triclinic
loop_
_symmetry_equiv_pos_as_xyz
  x,y,z
_cell_length_a	10.685980
_cell_length_b	14.908178
_cell_length_c	14.908858
_cell_angle_alpha	83.193056
_cell_angle_beta	89.152381
_cell_angle_gamma	97.409567
loop_
_atom_site_label
_atom_site_type_symbol
_atom_site_fract_x
_atom_site_fract_y
_atom_site_fract_z
Zn1	Zn	1.862870	-0.222506	-0.599482
Zn2	Zn	1.862734	-0.382644	-0.439367
Zn3	Zn	1.663354	-0.242880	-0.436512
Zn4	Zn	1.640310	-0.386784	-0.577734
O5	O	1.757317	-0.308703	-0.513274
O6	O	2.039434	-0.233489	-0.588539
O7	O	1.845873	-0.370898	-0.312878
O8	O	1.699521	-0.112934	-0.466036
O9	O	2.039334	-0.351142	-0.470903
O10	O	1.846104	-0.097966	-0.585770
O11	O	1.699390	-0.268214	-0.310780
O12	O	1.483715	-0.272228	-0.444948
O13	O	1.660246	-0.358198	-0.706729
O14	O	1.466784	-0.377954	-0.548704
O15	O	1.823759	-0.237504	-0.722707
O16	O	1.823528	-0.510436	-0.449815
O17	O	1.660114	-0.513478	-0.551473
C18	C	1.429464	-0.327752	-0.494157
C19	C	1.289203	-0.335922	-0.485998
C20	C	1.739339	-0.544946	-0.498615
C21	C	1.731761	-0.646004	-0.492382
C22	C	1.870025	-0.820165	-0.605462
C23	C	1.862909	-0.915117	-0.599608
C24	C	1.710406	-0.930861	-0.474824
C25	C	1.717522	-0.835909	-0.480678
C26	C	1.797336	-0.780564	-0.545999
C27	C	1.804458	-0.685610	-0.551848
C28	C	1.651949	-0.701357	-0.427069
C29	C	1.644833	-0.796309	-0.421215
C30	C	2.086450	-0.289581	-0.532466
C31	C	2.226708	-0.281432	-0.540644
C32	C	1.739447	-0.296040	-0.748331
C33	C	1.731832	-0.290644	-0.848499
C34	C	1.775399	-0.071535	-0.528011
C35	C	1.783104	0.029532	-0.534291
C36	C	1.644842	-0.229578	-0.988588
C37	C	1.651993	-0.234647	-0.894472
C38	C	1.804530	-0.341574	-0.896650
C39	C	1.797380	-0.336505	-0.990767
C40	C	1.717532	-0.280507	-1.036732
C41	C	1.710376	-0.275443	-1.130850
C42	C	1.862919	-0.382365	-1.133028
C43	C	1.870069	-0.387434	-1.038911
C44	C	1.775195	-0.321247	-0.279138
C45	C	1.783074	-0.326373	-0.179001
H46	H	1.280506	-0.228526	-0.593669
H47	H	1.922115	-0.423830	-1.172237
H48	H	1.922094	-0.947356	-0.648034
H49	H	1.592804	-0.193174	-0.855276
H50	H	1.869547	-0.387159	-0.859210
H51	H	1.645359	-0.229847	-1.168274
H52	H	1.935022	-0.775102	-0.658643
H53	H	1.935083	-0.433024	-1.001473
H54	H	1.579822	-0.183985	-1.026014
H55	H	1.235399	-0.388826	-0.432964
H56	H	1.645420	-0.975939	-0.421648
H57	H	1.869450	-0.640549	-0.605033
H58	H	1.579848	-0.841383	-0.368035
H59	H	1.592764	-0.669103	-0.378647
