data_functionalizedCrystal
_audit_creation_method	'MofGen! by Chris Wilmer'
_symmetry_space_group_name_H-M	'P1'
_symmetry_Int_Tables_number	1
_symmetry_cell_setting	triclinic
loop_
_symmetry_equiv_pos_as_xyz
  x,y,z
_cell_length_a	29.839131
_cell_length_b	10.686220
_cell_length_c	10.686551
_cell_angle_alpha	90.308082
_cell_angle_beta	94.418204
_cell_angle_gamma	85.582123
loop_
_atom_site_label
_atom_site_type_symbol
_atom_site_fract_x
_atom_site_fract_y
_atom_site_fract_z
Zn1	Zn	-0.109531	-1.972174	0.562319
Zn2	Zn	-0.190849	-1.955860	0.352511
Zn3	Zn	-0.121024	-1.746280	0.368629
Zn4	Zn	-0.189938	-1.762291	0.578289
O5	O	-0.152836	-1.859151	0.465437
O6	O	-0.115889	-2.145556	0.521058
O7	O	-0.186777	-1.914531	0.179100
O8	O	-0.056627	-1.776372	0.394385
O9	O	-0.175633	-2.133570	0.366913
O10	O	-0.048184	-1.942335	0.536688
O11	O	-0.135477	-1.760553	0.190942
O12	O	-0.134594	-1.572857	0.409870
O13	O	-0.174081	-1.803660	0.751719
O14	O	-0.185225	-1.584620	0.563906
O15	O	-0.115007	-1.957860	0.739986
O16	O	-0.253600	-1.930055	0.382398
O17	O	-0.252931	-1.787841	0.548276
C18	C	-0.161059	-1.533222	0.490371
C19	C	-0.164586	-1.393790	0.501068
C20	C	-0.269566	-1.858952	0.465346
C21	C	-0.319500	-1.858984	0.465340
C22	C	-0.143160	-1.884366	0.792643
C23	C	-0.139037	-1.895111	0.932079
C24	C	-0.624701	-1.945559	0.539650
C25	C	-0.812369	-1.945701	0.539715
O26	O	-0.832864	-2.019117	0.602831
N27	N	-0.840268	-1.859375	0.465560
C28	C	-0.821248	-1.773001	0.391390
O29	O	-0.849284	-1.699570	0.328328
C30	C	-0.633581	-1.772855	0.391332
C31	C	-0.605684	-1.859195	0.465482
C32	C	-0.596805	-2.031892	0.613795
C33	C	-0.549891	-2.031860	0.613773
C34	C	-0.530873	-1.945495	0.539605
C35	C	-0.558770	-1.859163	0.465460
C36	C	-0.614562	-1.686476	0.317170
C37	C	-0.567642	-1.686445	0.317165
C38	C	-0.539745	-1.772786	0.391315
C39	C	-0.492839	-1.772767	0.391271
N40	N	-0.464940	-1.859093	0.465426
C41	C	-0.483957	-1.945458	0.539593
C42	C	-0.919775	-1.773086	0.391423
C43	C	-0.966692	-1.773124	0.391436
C44	C	-0.957809	-1.945823	0.539763
C45	C	-0.910892	-1.945790	0.539742
C46	C	-0.891876	-1.859413	0.465578
C47	C	-0.385435	-1.945385	0.539540
C48	C	-0.338517	-1.945349	0.539507
C49	C	-0.347403	-1.772646	0.391186
C50	C	-0.394317	-1.772686	0.391213
C51	C	-0.413331	-1.859060	0.465400
O52	O	-0.472313	-1.699380	0.328198
O53	O	-0.455913	-2.018860	0.602667
C54	C	-0.671615	-1.945591	0.539672
C55	C	-0.699512	-1.859259	0.465527
C56	C	-0.680495	-1.772894	0.391360
C57	C	-0.746429	-1.859297	0.465539
C58	C	-0.765446	-1.945661	0.539706
C59	C	-0.737547	-2.031987	0.613861
C60	C	-0.690633	-2.031955	0.613839
C61	C	-0.708394	-1.686568	0.317205
C62	C	-0.755308	-1.686608	0.317232
C63	C	-0.774325	-1.772972	0.391399
C64	C	-0.035647	-1.859388	0.465553
C65	C	0.014291	-1.859488	0.465603
C66	C	-0.144581	-2.186353	0.440406
C67	C	-0.141063	-2.325787	0.429739
C68	C	-0.162439	-1.834107	0.139498
C69	C	-0.166429	-1.823605	0.000045
H70	H	-0.315804	-2.015662	0.599889
H71	H	-0.118225	-1.374236	0.360488
C72	C	-0.758469	-2.126989	0.695444
H73	H	-0.735138	-2.178413	0.739602
H74	H	-0.776374	-2.083174	0.753738
H75	H	-0.776800	-2.178005	0.643310
C76	C	-0.195442	-1.328342	0.594624
H77	H	-0.193845	-1.240071	0.589789
H78	H	-0.225630	-1.348289	0.574485
H79	H	-0.185880	-1.356278	0.677326
H80	H	-0.527179	-2.102162	0.674156
C81	C	-0.202378	-1.729810	0.934559
H82	H	-0.219014	-1.686402	0.995893
H83	H	-0.188071	-1.671288	0.887629
H84	H	-0.222236	-1.773892	0.879763
C85	C	-0.406344	-2.040404	0.621131
H86	H	-0.383005	-2.091818	0.665270
H87	H	-0.424248	-1.996613	0.679443
H88	H	-0.424673	-2.091426	0.568999
C89	C	-0.617716	-2.126908	0.695378
H90	H	-0.594376	-2.178316	0.739519
H91	H	-0.635622	-2.083121	0.753687
H92	H	-0.636043	-2.177935	0.643244
H93	H	-0.112432	-1.964561	0.980569
H94	H	-0.888181	-2.016095	0.600122
H95	H	-0.973301	-2.016145	0.600151
H96	H	-0.667922	-2.102262	0.674219
C97	C	-0.997376	-1.678159	0.309865
H98	H	-1.028042	-1.690546	0.320482
H99	H	-0.991295	-1.595265	0.334607
H100	H	-0.991722	-1.690092	0.224176
C101	C	-0.898864	-1.678076	0.309824
H102	H	-0.922202	-1.626686	0.265657
H103	H	-0.880533	-1.627047	0.361931
H104	H	-0.880961	-1.721894	0.251515
H105	H	-0.637268	-1.616169	0.256788
H106	H	-0.417032	-1.702390	0.330823
C107	C	-0.546727	-1.591430	0.235579
H108	H	-0.570064	-1.540027	0.191419
H109	H	-0.528395	-1.540415	0.287697
H110	H	-0.528825	-1.635242	0.177265
H111	H	-0.778019	-1.616300	0.256838
C112	C	-0.326478	-1.677648	0.309614
H113	H	-0.294541	-1.689992	0.320239
H114	H	-0.336202	-1.689571	0.223930
H115	H	-0.335776	-1.594759	0.334375
H116	H	-0.692915	-1.616238	0.256810
