data_functionalizedCrystal
_audit_creation_method	'MofGen! by Chris Wilmer'
_symmetry_space_group_name_H-M	'P1'
_symmetry_Int_Tables_number	1
_symmetry_cell_setting	triclinic
loop_
_symmetry_equiv_pos_as_xyz
  x,y,z
_cell_length_a	19.077105
_cell_length_b	18.050589
_cell_length_c	19.076919
_cell_angle_alpha	87.724745
_cell_angle_beta	89.923776
_cell_angle_gamma	87.724731
loop_
_atom_site_label
_atom_site_type_symbol
_atom_site_fract_x
_atom_site_fract_y
_atom_site_fract_z
Zn1	Zn	1.058247	-0.359281	0.440438
Zn2	Zn	1.308247	-0.109281	0.690438
Zn3	Zn	1.558247	0.140719	0.940438
Zn4	Zn	1.808247	0.390719	1.190438
Zn5	Zn	1.062879	-0.478689	0.322938
Zn6	Zn	1.312879	-0.228689	0.572938
Zn7	Zn	1.562879	0.021311	0.822938
Zn8	Zn	1.812879	0.271311	1.072938
Zn9	Zn	0.945466	-0.349333	0.318231
Zn10	Zn	1.195466	-0.099333	0.568231
Zn11	Zn	1.445466	0.150667	0.818231
Zn12	Zn	1.695466	0.400667	1.068231
Zn13	Zn	0.940701	-0.478241	0.435691
Zn14	Zn	1.190701	-0.228241	0.685691
Zn15	Zn	1.440701	0.021759	0.935691
Zn16	Zn	1.690701	0.271759	1.185691
O17	O	1.001823	-0.416386	0.379325
O18	O	1.251823	-0.166386	0.629325
O19	O	1.501823	0.083614	0.879325
O20	O	1.751823	0.333614	1.129325
O21	O	1.157193	-0.379472	0.428809
O22	O	1.407193	-0.129472	0.678809
O23	O	1.657193	0.120528	0.928809
O24	O	1.907193	0.370528	1.178809
O25	O	1.051237	-0.457554	0.223983
O26	O	1.301237	-0.207554	0.473983
O27	O	1.551237	0.042446	0.723983
O28	O	1.801237	0.292446	0.973983
O29	O	0.960482	-0.246731	0.334459
O30	O	1.210482	0.003269	0.584459
O31	O	1.460482	0.253269	0.834459
O32	O	1.710482	0.503269	1.084459
O33	O	1.160596	-0.467201	0.342482
O34	O	1.410596	-0.217201	0.592482
O35	O	1.660596	0.032799	0.842482
O36	O	1.910596	0.282799	1.092482
O37	O	1.043342	-0.254040	0.424244
O38	O	1.293342	-0.004040	0.674244
O39	O	1.543342	0.245960	0.924244
O40	O	1.793342	0.495960	1.174244
O41	O	0.964973	-0.362516	0.220524
O42	O	1.214973	-0.112516	0.470524
O43	O	1.464973	0.137484	0.720524
O44	O	1.714973	0.387484	0.970524
O45	O	0.846502	-0.362082	0.329856
O46	O	1.096502	-0.112082	0.579856
O47	O	1.346502	0.137918	0.829856
O48	O	1.596502	0.387918	1.079856
O49	O	0.952361	-0.466437	0.534652
O50	O	1.202361	-0.216437	0.784652
O51	O	1.452361	0.033563	1.034652
O52	O	1.702361	0.283563	1.284652
O53	O	0.843002	-0.456790	0.416153
O54	O	1.093002	-0.206790	0.666153
O55	O	1.343002	0.043210	0.916153
O56	O	1.593002	0.293210	1.166153
O57	O	1.038722	-0.379038	0.538140
O58	O	1.288722	-0.129038	0.788140
O59	O	1.538722	0.120962	1.038140
O60	O	1.788722	0.370962	1.288140
O61	O	1.046617	-0.582551	0.337879
O62	O	1.296617	-0.332551	0.587879
O63	O	1.546617	-0.082551	0.837879
O64	O	1.796617	0.167449	1.087879
O65	O	0.956853	-0.582222	0.420717
O66	O	1.206853	-0.332222	0.670717
O67	O	1.456853	-0.082222	0.920717
O68	O	1.706853	0.167778	1.170717
C69	C	0.819256	-0.408308	0.371979
C70	C	1.069256	-0.158308	0.621979
C71	C	1.319256	0.091692	0.871979
C72	C	1.569256	0.341692	1.121979
C73	C	0.741152	-0.404871	0.368853
C74	C	0.991152	-0.154871	0.618853
C75	C	1.241152	0.095129	0.868853
C76	C	1.491152	0.345129	1.118853
C77	C	0.702657	-0.452635	0.412244
C78	C	0.952657	-0.202635	0.662244
C79	C	1.202657	0.047365	0.912244
C80	C	1.452657	0.297365	1.162244
C81	C	0.629270	-0.449396	0.409310
C82	C	0.879270	-0.199396	0.659310
C83	C	1.129270	0.050604	0.909310
C84	C	1.379270	0.300604	1.159310
C85	C	0.594379	-0.398396	0.362981
C86	C	0.844379	-0.148396	0.612981
C87	C	1.094379	0.101604	0.862981
C88	C	1.344379	0.351604	1.112981
C89	C	0.632879	-0.350627	0.319588
C90	C	0.882879	-0.100627	0.569588
C91	C	1.132879	0.149373	0.819588
C92	C	1.382879	0.399373	1.069588
C93	C	0.706264	-0.353863	0.322526
C94	C	0.956264	-0.103863	0.572526
C95	C	1.206264	0.146137	0.822526
C96	C	1.456264	0.396137	1.072526
C97	C	0.375093	-0.383419	0.349388
C98	C	0.625093	-0.133419	0.599388
C99	C	0.875093	0.116581	0.849388
C100	C	1.125093	0.366581	1.099388
C101	C	0.301702	-0.380188	0.346452
C102	C	0.551702	-0.130188	0.596452
C103	C	0.801702	0.119812	0.846452
C104	C	1.051702	0.369812	1.096452
C105	C	0.298098	-0.478956	0.436175
C106	C	0.548098	-0.228956	0.686175
C107	C	0.798098	0.021044	0.936175
C108	C	1.048098	0.271044	1.186175
C109	C	0.371485	-0.482191	0.439105
C110	C	0.621485	-0.232191	0.689105
C111	C	0.871485	0.017809	0.939105
C112	C	1.121485	0.267809	1.189105
C113	C	0.409979	-0.434419	0.395715
C114	C	0.659979	-0.184419	0.645715
C115	C	0.909979	0.065581	0.895715
C116	C	1.159979	0.315581	1.145715
N117	N	0.519366	-0.395085	0.359980
N118	N	0.769366	-0.145085	0.609980
N119	N	1.019366	0.104915	0.859980
N120	N	1.269366	0.354915	1.109980
N121	N	0.484990	-0.437727	0.398721
N122	N	0.734990	-0.187727	0.648721
N123	N	0.984990	0.062273	0.898721
N124	N	1.234990	0.312273	1.148721
C125	C	1.001739	-0.609334	0.379310
C126	C	1.251739	-0.359334	0.629310
C127	C	1.501739	-0.109334	0.879310
C128	C	1.751739	0.140666	1.129310
C129	C	1.001766	-0.691882	0.379329
C130	C	1.251766	-0.441882	0.629329
C131	C	1.501766	-0.191882	0.879329
C132	C	1.751766	0.058118	1.129329
C133	C	0.952999	-0.891182	0.424363
C134	C	1.202999	-0.641182	0.674363
C135	C	1.452999	-0.391182	0.924363
C136	C	1.702999	-0.141182	1.174363
C137	C	0.938449	-0.937256	0.359556
C138	C	1.188449	-0.687256	0.609556
C139	C	1.438449	-0.437256	0.859556
C140	C	1.688449	-0.187256	1.109556
C141	C	1.001835	-0.843016	0.379341
C142	C	1.251835	-0.593016	0.629341
C143	C	1.501835	-0.343016	0.879341
C144	C	1.751835	-0.093016	1.129341
C145	C	1.016419	-0.944025	0.444157
C146	C	1.266419	-0.694025	0.694157
C147	C	1.516419	-0.444025	0.944157
C148	C	1.766419	-0.194025	1.194157
C149	C	1.001900	-0.989004	0.379358
C150	C	1.251900	-0.739004	0.629358
C151	C	1.501900	-0.489004	0.879358
C152	C	1.751900	-0.239004	1.129358
C153	C	0.987253	-0.887999	0.314499
C154	C	1.237253	-0.637999	0.564499
C155	C	1.487253	-0.387999	0.814499
C156	C	1.737253	-0.137999	1.064499
C157	C	1.065250	-0.894768	0.399145
C158	C	1.315250	-0.644768	0.649145
C159	C	1.565250	-0.394768	0.899145
C160	C	1.815250	-0.144768	1.149145
C161	C	1.050726	-0.940818	0.334295
C162	C	1.300726	-0.690818	0.584295
C163	C	1.550726	-0.440818	0.834295
C164	C	1.800726	-0.190818	1.084295
C165	C	1.001796	-0.758915	0.379332
C166	C	1.251796	-0.508915	0.629332
C167	C	1.501796	-0.258915	0.879332
C168	C	1.751796	-0.008915	1.129332
C169	C	1.001939	-1.073102	0.379360
C170	C	1.251939	-0.823102	0.629360
C171	C	1.501939	-0.573102	0.879360
C172	C	1.751939	-0.323102	1.129360
C173	C	1.185104	-0.424496	0.386700
C174	C	1.435104	-0.174496	0.636700
C175	C	1.685104	0.075504	0.886700
C176	C	1.935104	0.325504	1.136700
C177	C	1.263207	-0.427952	0.389843
C178	C	1.513207	-0.177952	0.639843
C179	C	1.763207	0.072048	0.889843
C180	C	2.013207	0.322048	1.139843
C181	C	0.994493	-0.423797	0.562605
C182	C	1.244493	-0.173797	0.812605
C183	C	1.494493	0.076203	1.062605
C184	C	1.744493	0.326203	1.312605
C185	C	0.991370	-0.426955	0.640709
C186	C	1.241370	-0.176955	0.890709
C187	C	1.491370	0.073045	1.140709
C188	C	1.741370	0.323045	1.390709
C189	C	1.001926	-0.222686	0.379356
C190	C	1.251926	0.027314	0.629356
C191	C	1.501926	0.277314	0.879356
C192	C	1.751926	0.527314	1.129356
C193	C	1.001970	-0.140143	0.379369
C194	C	1.251970	0.109857	0.629369
C195	C	1.501970	0.359857	0.879369
C196	C	1.751970	0.609857	1.129369
C197	C	1.009165	-0.408952	0.196759
C198	C	1.259165	-0.158952	0.446759
C199	C	1.509165	0.091048	0.696759
C200	C	1.759165	0.341048	0.946759
C201	C	1.012425	-0.405591	0.118661
C202	C	1.262425	-0.155591	0.368661
C203	C	1.512425	0.094409	0.618661
C204	C	1.762425	0.344409	0.868661
C205	C	1.034863	-0.382937	0.679219
C206	C	1.284863	-0.132937	0.929219
C207	C	1.534863	0.117063	1.179219
C208	C	1.784863	0.367063	1.429219
C209	C	1.031920	-0.385901	0.752605
C210	C	1.281920	-0.135901	1.002605
C211	C	1.531920	0.114099	1.252605
C212	C	1.781920	0.364099	1.502605
C213	C	0.985486	-0.432888	0.787479
C214	C	1.235486	-0.182888	1.037479
C215	C	1.485486	0.067112	1.287479
C216	C	1.735486	0.317112	1.537479
C217	C	0.941988	-0.476908	0.748964
C218	C	1.191988	-0.226908	0.998964
C219	C	1.441988	0.023092	1.248964
C220	C	1.691988	0.273092	1.498964
C221	C	0.944928	-0.473940	0.675579
C222	C	1.194928	-0.223940	0.925579
C223	C	1.444928	0.026060	1.175579
C224	C	1.694928	0.276060	1.425579
C225	C	0.971867	-0.446642	1.006761
C226	C	1.221867	-0.196642	1.256761
C227	C	1.471867	0.053358	1.506761
C228	C	1.721867	0.303358	1.756761
C229	C	0.968931	-0.449609	1.080151
C230	C	1.218931	-0.199609	1.330151
C231	C	1.468931	0.050391	1.580151
C232	C	1.718931	0.300391	1.830151
C233	C	1.058863	-0.358601	1.083787
C234	C	1.308863	-0.108601	1.333787
C235	C	1.558863	0.141399	1.583787
C236	C	1.808863	0.391399	1.833787
C237	C	1.061802	-0.355639	1.010401
C238	C	1.311802	-0.105639	1.260401
C239	C	1.561802	0.144361	1.510401
C240	C	1.811802	0.394361	1.760401
C241	C	1.018301	-0.399657	0.971892
C242	C	1.268301	-0.149657	1.221892
C243	C	1.518301	0.100343	1.471892
C244	C	1.768301	0.350343	1.721892
N245	N	0.982478	-0.435921	0.862492
N246	N	1.232478	-0.185921	1.112492
N247	N	1.482478	0.064079	1.362492
N248	N	1.732478	0.314079	1.612492
N249	N	1.021307	-0.396619	0.896881
N250	N	1.271307	-0.146619	1.146881
N251	N	1.521307	0.103381	1.396881
N252	N	1.771307	0.353381	1.646881
H253	H	0.399888	-0.523722	0.476830
H254	H	0.649888	-0.273722	0.726830
H255	H	0.899888	-0.023722	0.976830
H256	H	1.149888	0.226278	1.226830
H257	H	0.974881	-0.863588	0.259675
H258	H	1.224881	-0.613588	0.509675
H259	H	1.474881	-0.363588	0.759675
H260	H	1.724881	-0.113588	1.009675
H261	H	0.909504	-0.509777	0.644225
H262	H	1.159504	-0.259777	0.894225
H263	H	1.409504	-0.009777	1.144225
H264	H	1.659504	0.240223	1.394225
H265	H	0.911645	-0.869387	0.462377
H266	H	1.161645	-0.619387	0.712377
H267	H	1.411645	-0.369387	0.962377
H268	H	1.661645	-0.119387	1.212377
H269	H	0.731060	-0.494167	0.449968
H270	H	0.981060	-0.244167	0.699968
H271	H	1.231060	0.005833	0.949968
H272	H	1.481060	0.255833	1.199968
H273	H	1.092055	-0.962470	0.296183
H274	H	1.342055	-0.712470	0.546183
H275	H	1.592055	-0.462470	0.796183
H276	H	1.842055	-0.212470	1.046183
F277	F	1.078236	-0.339077	0.793588
F278	F	1.328236	-0.089077	1.043588
F279	F	1.578236	0.160923	1.293588
F280	F	1.828236	0.410923	1.543588
F281	F	0.257126	-0.529796	0.482349
F282	F	0.507126	-0.279796	0.732349
F283	F	0.757126	-0.029796	0.982349
F284	F	1.007126	0.220204	1.232349
H285	H	1.094278	-0.322763	1.115149
H286	H	1.344278	-0.072763	1.365149
H287	H	1.594278	0.177237	1.615149
H288	H	1.844278	0.427237	1.865149
F289	F	0.595743	-0.296344	0.270286
F290	F	0.845743	-0.046344	0.520286
F291	F	1.095743	0.203656	0.770286
F292	F	1.345743	0.453656	1.020286
F293	F	0.868390	-0.961800	0.337665
F294	F	1.118390	-0.711800	0.587665
F295	F	1.368390	-0.461800	0.837665
F296	F	1.618390	-0.211800	1.087665
H297	H	0.273296	-0.338649	0.308729
H298	H	0.523296	-0.088649	0.558729
H299	H	0.773296	0.161351	0.808729
H300	H	1.023296	0.411351	1.058729
H301	H	0.936456	-0.482496	0.975416
H302	H	1.186456	-0.232496	1.225416
H303	H	1.436456	0.017504	1.475416
H304	H	1.686456	0.267504	1.725416
F305	F	0.892566	-0.526913	0.786082
F306	F	1.142566	-0.276913	1.036082
F307	F	1.392566	-0.026913	1.286082
F308	F	1.642566	0.223087	1.536082
F309	F	1.111224	-0.305630	0.973290
F310	F	1.361224	-0.055630	1.223290
F311	F	1.611224	0.194370	1.473290
F312	F	1.861224	0.444370	1.723290
F313	F	0.416051	-0.332574	0.303209
F314	F	0.666051	-0.082574	0.553209
F315	F	0.916051	0.167426	0.803209
F316	F	1.166051	0.417426	1.053209
F317	F	0.747233	-0.303025	0.276345
F318	F	0.997233	-0.053025	0.526345
F319	F	1.247233	0.196975	0.776345
F320	F	1.497233	0.446975	1.026345
H321	H	1.118835	-0.875974	0.415910
H322	H	1.368835	-0.625974	0.665910
H323	H	1.618835	-0.375974	0.915910
H324	H	1.868835	-0.125974	1.165910
H325	H	0.931117	-0.487874	1.108544
H326	H	1.181117	-0.237874	1.358544
H327	H	1.431117	0.012126	1.608544
H328	H	1.681117	0.262126	1.858544
H329	H	1.028729	-0.968523	0.498964
H330	H	1.278729	-0.718523	0.748964
H331	H	1.528729	-0.468523	0.998964
H332	H	1.778729	-0.218523	1.248964
H333	H	0.597931	-0.488291	0.444643
H334	H	0.847931	-0.238291	0.694643
H335	H	1.097931	0.011709	0.944643
H336	H	1.347931	0.261709	1.194643
F337	F	1.084289	-0.332930	0.642109
F338	F	1.334289	-0.082930	0.892109
F339	F	1.584289	0.167070	1.142109
F340	F	1.834289	0.417070	1.392109
