data_functionalizedCrystal
_audit_creation_method	'MofGen! by Chris Wilmer'
_symmetry_space_group_name_H-M	'P1'
_symmetry_Int_Tables_number	1
_symmetry_cell_setting	triclinic
loop_
_symmetry_equiv_pos_as_xyz
  x,y,z
_cell_length_a	11.026607
_cell_length_b	10.540539
_cell_length_c	9.482900
_cell_angle_alpha	99.430988
_cell_angle_beta	78.636152
_cell_angle_gamma	96.555754
loop_
_atom_site_label
_atom_site_type_symbol
_atom_site_fract_x
_atom_site_fract_y
_atom_site_fract_z
O1	O	1.633556	0.517017	-0.120883
O2	O	1.279725	0.456370	-0.120886
O3	O	1.464712	0.303756	-0.120883
O4	O	1.448568	0.669632	-0.120886
O5	O	1.427139	0.334914	0.120909
O6	O	1.242151	0.487529	0.120905
O7	O	1.595982	0.548176	0.120909
Cu8	Cu	1.415636	0.520697	0.142985
Cu9	Cu	1.460071	0.483849	-0.142962
O10	O	1.410994	0.700790	0.120905
C11	C	1.215630	0.460761	0.000009
C12	C	1.080627	0.427408	0.000008
C13	C	1.007620	0.519500	0.000006
C14	C	0.868087	0.485031	0.000004
C15	C	1.444715	0.271766	0.000011
C16	C	1.441094	0.130024	0.000003
C17	C	1.302374	-0.083877	-0.000541
C18	C	1.305961	0.063616	0.000003
C19	C	1.484669	0.100404	0.138078
C20	C	1.480039	-0.047136	0.138195
C21	C	1.525516	-0.082485	-0.136768
C22	C	1.527044	0.064534	-0.138593
C23	C	1.660077	0.543785	0.000010
C24	C	1.795082	0.577136	0.000002
C25	C	1.430992	0.732779	0.000009
C26	C	1.434615	0.874520	0.000007
N27	N	1.384391	0.546616	0.344104
N28	N	1.491325	0.457922	-0.344082
C29	C	1.450847	0.491485	0.416305
C30	C	1.424860	0.513061	0.583722
H31	H	1.039837	0.323041	-0.000029
O32	O	0.814073	0.346778	0.000015
H33	H	0.772231	0.314482	-0.098539
H34	H	1.495334	0.081807	-0.240738
H35	H	1.583109	0.145156	0.143213
O36	O	1.211674	-0.122497	0.129878
H37	H	1.172811	-0.035094	0.197517
H38	H	1.270172	0.082256	-0.098975
O39	O	1.061639	0.657747	0.000006
H40	H	1.162758	0.663125	-0.000002
O41	O	1.324023	0.596778	0.665989
H42	H	1.233515	0.555407	0.636896
H43	H	1.239026	0.106861	0.099145
O44	O	1.592176	0.374229	0.573638
H45	H	1.636895	0.337119	0.651996
H46	H	0.835869	0.681507	0.000011
O47	O	1.659270	0.123768	-0.149649
H48	H	1.695520	0.111184	-0.052056
H49	H	1.423527	0.146349	0.240829
O50	O	1.252016	-0.154169	-0.131674
H51	H	1.320696	-0.219514	-0.197861
H52	H	1.623266	-0.108451	-0.137695
O53	O	1.283543	0.630306	0.426381
H54	H	1.278965	0.634130	0.544965
H55	H	1.415939	-0.072562	0.241408
O56	O	1.607468	-0.081422	0.146529
H57	H	1.672121	0.007355	0.150470
O58	O	1.551694	0.407788	0.334040
H59	H	1.530552	0.308845	0.363189
H60	H	1.498043	-0.137104	-0.241420
