data_functionalizedCrystal
_audit_creation_method	'MofGen! by Chris Wilmer'
_symmetry_space_group_name_H-M	'P1'
_symmetry_Int_Tables_number	1
_symmetry_cell_setting	triclinic
loop_
_symmetry_equiv_pos_as_xyz
  x,y,z
_cell_length_a	13.635800
_cell_length_b	23.752963
_cell_length_c	11.102315
_cell_angle_alpha	84.884508
_cell_angle_beta	108.606275
_cell_angle_gamma	79.933268
loop_
_atom_site_label
_atom_site_type_symbol
_atom_site_fract_x
_atom_site_fract_y
_atom_site_fract_z
V1	V	2.034388	-0.079165	0.397004
O2	O	2.036313	0.003801	0.388679
O3	O	2.001763	-0.156968	0.395027
O4	O	2.023109	-0.077949	0.569814
O5	O	2.014818	-0.075765	0.212682
V6	V	2.275619	-0.069241	0.374868
O7	O	2.166180	-0.100934	0.445561
O8	O	2.368926	-0.047472	0.326310
O9	O	2.196641	0.008562	0.376845
O10	O	2.332393	-0.152208	0.383192
O11	O	2.353887	-0.072641	0.559190
O12	O	2.175295	-0.070458	0.202057
V13	V	2.534388	-0.079165	0.397004
O14	O	2.536313	0.003801	0.388679
O15	O	2.501763	-0.156968	0.395027
O16	O	2.523109	-0.077949	0.569814
O17	O	2.514818	-0.075765	0.212682
V18	V	2.775619	-0.069241	0.374868
O19	O	2.666180	-0.100934	0.445561
O20	O	2.868926	-0.047472	0.326310
O21	O	2.696641	0.008562	0.376845
O22	O	2.832393	-0.152208	0.383192
O23	O	2.853887	-0.072641	0.559190
O24	O	2.675295	-0.070458	0.202057
C25	C	1.921795	-0.175935	0.388954
C26	C	1.935850	-0.239540	0.388489
C27	C	1.995192	-0.625781	0.269008
C28	C	2.008409	-0.685544	0.268554
O29	O	1.991569	-0.709505	0.169277
N30	N	2.042893	-0.723605	0.384791
C31	C	2.064172	-0.701901	0.501492
O32	O	2.094718	-0.739762	0.600319
C33	C	2.050963	-0.642139	0.501945
C34	C	2.016468	-0.604080	0.385699
C35	C	1.960700	-0.587723	0.152771
C36	C	1.947483	-0.527964	0.153226
C37	C	1.968759	-0.506263	0.269917
C38	C	2.003251	-0.544321	0.386154
C39	C	2.072250	-0.620436	0.618645
C40	C	2.059038	-0.560669	0.619088
C41	C	2.024543	-0.522611	0.502842
C42	C	2.011309	-0.462862	0.503299
N43	N	1.976825	-0.424801	0.387061
C44	C	1.955550	-0.446502	0.270370
C45	C	2.091912	-0.827403	0.500531
C46	C	2.105113	-0.887164	0.500078
C47	C	2.049351	-0.870803	0.267140
C48	C	2.036142	-0.811041	0.267593
C49	C	2.057427	-0.789343	0.384293
C50	C	1.927794	-0.321004	0.271334
C51	C	1.914575	-0.261241	0.271798
C52	C	1.970344	-0.277607	0.504736
C53	C	1.983557	-0.337365	0.504272
C54	C	1.962283	-0.359062	0.387561
O55	O	2.028133	-0.438859	0.602525
O56	O	1.925019	-0.408634	0.171560
C57	C	1.949024	-0.075137	0.611911
C58	C	1.980388	-0.074657	0.753189
C59	C	2.108279	0.027526	0.382914
C60	C	2.083844	0.091130	0.383387
C61	C	2.081050	-0.073271	0.159953
C62	C	2.039306	-0.073748	0.018674
C63	C	2.421795	-0.175935	0.388954
C64	C	2.435850	-0.239540	0.388489
C65	C	2.449024	-0.075137	0.611911
C66	C	2.480388	-0.074657	0.753189
C67	C	2.162871	-0.080375	0.766213
C68	C	2.268844	-0.083011	0.839096
C69	C	2.298307	-0.082559	0.971839
C70	C	2.221787	-0.079470	1.031699
C71	C	2.115815	-0.076835	0.958815
C72	C	2.086362	-0.077289	0.826072
C73	C	1.933333	-0.071113	0.945791
C74	C	1.903869	-0.071568	0.813050
C75	C	1.856814	-0.068024	1.005651
C76	C	1.750840	-0.065393	0.932769
C77	C	1.721380	-0.065845	0.800019
C78	C	1.797897	-0.068933	0.740166
C79	C	2.608279	0.027526	0.382914
C80	C	2.583844	0.091130	0.383387
C81	C	2.581050	-0.073271	0.159953
C82	C	2.539306	-0.073748	0.018674
C83	C	2.533679	-0.272327	0.394649
C84	C	2.546904	-0.332093	0.394232
C85	C	2.462295	-0.359069	0.387646
C86	C	2.364458	-0.326278	0.381490
C87	C	2.351238	-0.266514	0.381917
C88	C	2.658509	0.123917	0.377231
C89	C	2.635557	0.183682	0.377654
C90	C	2.537943	0.210658	0.384243
C91	C	2.463272	0.177868	0.390395
C92	C	2.486222	0.118104	0.389962
C93	C	2.512250	-0.179453	0.790504
C94	C	2.542911	-0.231624	0.875531
C95	C	2.572381	-0.231170	1.008273
C96	C	2.571191	-0.178540	1.055988
C97	C	2.540530	-0.126369	0.970961
C98	C	2.511058	-0.126829	0.838218
C99	C	2.508676	-0.021575	0.933647
C100	C	2.479198	-0.022028	0.800905
C101	C	2.507486	0.031055	0.981363
C102	C	2.476817	0.083227	0.896334
C103	C	2.447345	0.082770	0.763585
C104	C	2.448537	0.030143	0.715877
H105	H	1.886481	-0.230255	0.177132
C106	C	2.254199	-0.078960	1.177715
N107	N	2.278610	-0.078574	1.287695
H108	H	2.271571	-0.239823	0.376894
C109	C	2.606109	-0.288559	1.101806
N110	N	2.631511	-0.331785	1.172255
C111	C	2.765891	0.094255	0.369973
N112	N	2.846772	0.071918	0.364497
C113	C	2.271391	-0.355960	0.374224
N114	N	2.201291	-0.378318	0.368737
C115	C	1.765499	-0.069429	0.594147
N116	N	1.741100	-0.069800	0.484162
C117	C	2.130471	-0.080878	0.620196
N118	N	2.106070	-0.081257	0.510214
H119	H	2.519269	0.259322	0.384593
H120	H	2.425419	0.091413	0.394986
H121	H	2.602582	-0.250371	0.400003
C122	C	2.717727	0.219737	0.370939
N123	N	2.779624	0.246891	0.365900
H124	H	2.383793	0.199841	0.395758
H125	H	2.008052	-0.780057	0.172935
C126	C	2.479827	-0.179957	0.644485
N127	N	2.455408	-0.180338	0.534503
H128	H	2.331140	-0.085523	0.790343
C129	C	1.889224	-0.067519	1.151668
N130	N	1.913634	-0.067138	1.261650
C131	C	1.604803	-0.062947	0.719857
N132	N	1.516997	-0.060765	0.659484
H133	H	2.595202	-0.178175	1.164076
C134	C	2.544225	-0.289514	0.823034
N135	N	2.545219	-0.333117	0.783497
C136	C	2.654529	-0.368151	0.400990
N137	N	2.735592	-0.395308	0.406076
H138	H	2.133185	-0.918147	0.594737
H139	H	1.910469	-0.338662	0.176296
C140	C	2.476853	-0.424812	0.387169
N141	N	2.487824	-0.474329	0.386805
H142	H	2.076385	-0.543007	0.714122
C143	C	2.539897	0.031553	1.127382
N144	N	2.564301	0.031929	1.237365
H145	H	2.384597	-0.084704	1.031180
C146	C	2.475508	0.141113	0.948831
N147	N	2.474519	0.184714	0.988376
H148	H	2.109243	-0.809741	0.595567
H149	H	1.987658	-0.259927	0.599743
C150	C	2.413616	0.140163	0.670063
N151	N	2.388211	0.183393	0.599627
H152	H	2.424535	0.029766	0.607794
C153	C	2.021497	-0.379231	0.632147
N154	N	2.050083	-0.410761	0.728467
C155	C	1.909544	-0.486107	0.025345
N156	N	1.880970	-0.454583	-0.070982
H157	H	1.943375	-0.605384	0.057742
H158	H	2.032028	-0.888482	0.172123
H159	H	2.100339	-0.651414	0.713305
H160	H	1.688547	-0.062874	0.981516
