data_functionalizedCrystal
_audit_creation_method	'MofGen! by Chris Wilmer'
_symmetry_space_group_name_H-M	'P1'
_symmetry_Int_Tables_number	1
_symmetry_cell_setting	triclinic
loop_
_symmetry_equiv_pos_as_xyz
  x,y,z
_cell_length_a	18.101395
_cell_length_b	17.640112
_cell_length_c	17.637815
_cell_angle_alpha	109.604340
_cell_angle_beta	101.175386
_cell_angle_gamma	101.255692
loop_
_atom_site_label
_atom_site_type_symbol
_atom_site_fract_x
_atom_site_fract_y
_atom_site_fract_z
Zn1	Zn	-0.113925	1.165492	-0.211664
Zn2	Zn	-0.206415	1.193257	-0.073894
Zn3	Zn	-0.113966	1.055566	-0.101697
Zn4	Zn	-0.269130	1.027641	-0.239447
O5	O	-0.175859	1.110489	-0.156676
O6	O	-0.099931	1.284489	-0.170126
O7	O	-0.167923	1.198298	0.037723
O8	O	-0.010317	1.070215	-0.116292
O9	O	-0.167883	1.304888	-0.068908
O10	O	-0.010287	1.150977	-0.197085
O11	O	-0.100001	1.097137	0.017297
O12	O	-0.160812	0.936547	-0.143232
O13	O	-0.274771	1.022621	-0.351067
O14	O	-0.274810	0.916031	-0.244436
O15	O	-0.160742	1.123899	-0.330656
O16	O	-0.318379	1.171220	-0.095847
O17	O	-0.364455	1.049544	-0.217478
C18	C	-0.224622	0.896389	-0.199866
C19	C	-0.245505	0.804792	-0.218363
C20	C	-0.017201	0.556753	-0.016165
C21	C	-0.036841	0.470682	-0.033557
C22	C	-0.155636	0.449410	-0.138759
C23	C	-0.136004	0.535480	-0.121379
C24	C	-0.066786	0.589146	-0.060081
C25	C	-0.185589	0.567873	-0.165294
C26	C	-0.165960	0.653937	-0.147913
C27	C	-0.096746	0.707608	-0.086615
C28	C	-0.047156	0.675210	-0.042699
C29	C	-0.254810	0.514207	-0.226589
C30	C	-0.304394	0.546599	-0.270504
C31	C	-0.284763	0.632664	-0.253127
C32	C	-0.215549	0.686335	-0.191829
C33	C	-0.334352	0.665062	-0.297043
C34	C	-0.314723	0.751126	-0.279661
C35	C	-0.195920	0.772399	-0.174447
C36	C	-0.368289	1.110383	-0.156674
C37	C	-0.450601	1.110408	-0.156685
C38	C	-0.749661	1.110580	-0.156693
C39	C	-0.747358	1.034140	-0.233348
C40	C	-0.661764	1.033879	-0.233209
C41	C	-0.601294	1.110495	-0.156690
C42	C	-0.618022	1.104555	-0.074590
C43	C	-0.703847	1.104068	-0.075055
C44	C	-0.703209	1.193253	-0.161345
C45	C	-0.618109	1.192355	-0.163353
C46	C	-0.517442	1.110449	-0.156682
C47	C	-0.833512	1.110625	-0.156695
C48	C	0.017324	1.110613	-0.156691
C49	C	0.099646	1.110666	-0.156698
C50	C	-0.224748	1.067048	-0.371595
C51	C	-0.245581	1.048536	-0.463181
C52	C	-0.126907	1.325425	-0.113317
C53	C	-0.106046	1.417018	-0.094840
C54	C	-0.017277	1.251300	-0.711260
C55	C	-0.036872	1.233897	-0.797320
C56	C	-0.155599	1.128445	-0.818563
C57	C	-0.136016	1.145843	-0.732502
C58	C	-0.066854	1.207271	-0.678856
C59	C	-0.185593	1.101813	-0.700098
C60	C	-0.166009	1.119207	-0.614045
C61	C	-0.096849	1.180630	-0.560395
C62	C	-0.047270	1.224664	-0.592803
C63	C	-0.254753	1.040381	-0.753746
C64	C	-0.304329	0.996351	-0.721343
C65	C	-0.284749	1.013749	-0.635287
C66	C	-0.215588	1.075172	-0.581637
C67	C	-0.334327	0.969714	-0.602879
C68	C	-0.314743	0.987108	-0.516826
C69	C	-0.196004	1.092566	-0.495584
C70	C	-0.127097	1.153808	0.057417
C71	C	-0.106018	1.172479	0.149035
H72	H	0.039172	0.600449	0.033738
Br73	Br	-0.070108	0.824413	-0.063016
Br74	Br	-0.102147	1.175946	-0.422769
H75	H	0.003546	0.444312	0.002204
Br76	Br	-0.249581	0.376574	-0.221934
Br77	Br	-0.599045	1.005937	-0.063824
H78	H	-0.390636	0.919694	-0.646570
H79	H	-0.703278	1.158281	-0.016939
H80	H	0.039040	1.301325	-0.667577
H81	H	-0.780263	0.972861	-0.231760
H82	H	0.009047	1.274689	-0.549121
Br83	Br	-0.398339	0.473764	-0.353679
Br84	Br	-0.428300	0.592225	-0.380211
H85	H	-0.270789	0.444129	-0.240738
H86	H	0.003508	1.269751	-0.823699
H87	H	0.009216	0.718906	0.007204
H88	H	-0.270690	1.026213	-0.823817
Br89	Br	-0.382020	0.795094	-0.339256
Br90	Br	-0.701355	1.287817	-0.067947
Br91	Br	-0.645511	1.036677	-0.335590
Br92	Br	-0.249458	1.045078	-0.891374
Br93	Br	-0.800603	1.036620	-0.336131
H94	H	-0.080905	1.194791	-0.490326
Br95	Br	-0.398188	0.912985	-0.794153
Br96	Br	-0.646663	0.931147	-0.230392
H97	H	-0.734117	1.044157	-0.069072
Br98	Br	-0.382024	0.927350	-0.472846
Br99	Br	-0.548509	1.195722	0.021922
H100	H	-0.139547	0.816095	-0.124544
H101	H	-0.734051	1.202094	-0.219266
H102	H	-0.608263	1.197153	-0.223687
Br103	Br	-0.547127	1.289955	-0.074752
