data_functionalizedCrystal
_audit_creation_method	'MofGen! by Chris Wilmer'
_symmetry_space_group_name_H-M	'P1'
_symmetry_Int_Tables_number	1
_symmetry_cell_setting	triclinic
loop_
_symmetry_equiv_pos_as_xyz
  x,y,z
_cell_length_a	14.044191
_cell_length_b	16.109301
_cell_length_c	15.186229
_cell_angle_alpha	89.994833
_cell_angle_beta	89.999039
_cell_angle_gamma	88.326629
loop_
_atom_site_label
_atom_site_type_symbol
_atom_site_fract_x
_atom_site_fract_y
_atom_site_fract_z
O1	O	1.257645	0.200463	-0.073191
O2	O	1.757645	0.700463	0.426809
O3	O	0.981678	0.193224	-0.073202
O4	O	1.481678	0.693224	0.426798
O5	O	1.127242	0.076377	-0.073187
O6	O	1.627242	0.576377	0.426813
O7	O	1.112080	0.317311	-0.073206
O8	O	1.612080	0.817311	0.426794
O9	O	1.127233	0.076375	0.073270
O10	O	1.627233	0.576375	0.573270
O11	O	0.981668	0.193222	0.073255
O12	O	1.481668	0.693222	0.573255
O13	O	1.257635	0.200461	0.073266
O14	O	1.757635	0.700461	0.573266
Zn15	Zn	1.119650	0.196841	0.096514
Zn16	Zn	1.619650	0.696841	0.596514
Zn17	Zn	1.119663	0.196844	-0.096450
Zn18	Zn	1.619663	0.696844	0.403550
O19	O	1.112071	0.317308	0.073251
O20	O	1.612071	0.817308	0.573251
C21	C	1.126623	0.045355	0.000042
C22	C	1.626623	0.545355	0.500042
C23	C	1.124782	-0.047077	0.000043
C24	C	1.624782	0.452923	0.500043
C25	C	0.946359	0.190056	0.000025
C26	C	1.446359	0.690056	0.500025
C27	C	0.841136	0.180610	0.000021
C28	C	1.341136	0.680610	0.500021
C29	C	1.206876	-0.263240	0.000032
C30	C	1.706876	0.236760	0.500032
C31	C	1.205138	-0.350089	0.000025
C32	C	1.705138	0.149911	0.500025
C33	C	1.032431	-0.343068	0.000021
C34	C	1.532431	0.156932	0.500021
C35	C	1.034169	-0.256220	0.000022
C36	C	1.534169	0.243780	0.500022
C37	C	1.121395	-0.216308	0.000032
C38	C	1.621395	0.283692	0.500032
C39	C	1.117918	-0.390006	0.000024
C40	C	1.617918	0.109994	0.500024
C41	C	1.116034	-0.484173	0.000016
C42	C	1.616034	0.015827	0.500016
C43	C	1.123280	-0.122136	0.000039
C44	C	1.623280	0.377864	0.500039
C45	C	0.590834	0.230335	0.000026
C46	C	1.090834	0.730335	0.500026
C47	C	0.648484	0.163354	0.000030
C48	C	1.148484	0.663354	0.500030
C49	C	0.755686	0.172958	0.000025
C50	C	1.255686	0.672958	0.500025
C51	C	0.483623	0.220733	0.000031
C52	C	0.983623	0.720733	0.500031
C53	C	1.292954	0.203629	0.000037
C54	C	1.792954	0.703629	0.500037
C55	C	1.398177	0.213075	0.000035
C56	C	1.898177	0.713075	0.500035
C57	C	1.112690	0.348330	0.000020
C58	C	1.612690	0.848330	0.500020
C59	C	1.114531	0.440762	0.000013
C60	C	1.614531	0.940762	0.500013
N61	N	1.119648	0.196839	0.228207
N62	N	1.619648	0.696839	0.728207
N63	N	1.119672	0.196841	-0.228143
N64	N	1.619672	0.696841	0.271857
C65	C	1.184126	0.145119	0.453936
C66	C	1.684126	0.645119	0.953936
C67	C	1.184129	0.145118	0.546126
C68	C	1.684129	0.645118	1.046126
C69	C	1.055187	0.248562	0.546122
C70	C	1.555187	0.748562	1.046122
C71	C	1.055181	0.248559	0.453934
C72	C	1.555181	0.748559	0.953934
C73	C	1.119655	0.196839	0.407843
C74	C	1.619655	0.696839	0.907843
C75	C	1.119665	0.196840	0.592221
C76	C	1.619665	0.696840	1.092221
C77	C	1.119668	0.196839	0.692177
C78	C	1.619668	0.696839	1.192177
C79	C	1.119652	0.196839	0.307881
C80	C	1.619652	0.696839	0.807881
H81	H	1.277900	-0.230746	0.000038
H82	H	1.777900	0.269254	0.500038
Cl83	Cl	0.926698	-0.197216	0.000015
Cl84	Cl	1.426698	0.302784	0.500015
H85	H	0.617329	0.098797	-0.000027
H86	H	1.117329	0.598797	0.499973
Cl87	Cl	0.638934	0.330000	0.000008
Cl88	Cl	1.138934	0.830000	0.500008
H89	H	1.236624	0.103005	0.416411
H90	H	1.736624	0.603005	0.916411
H91	H	1.236626	0.103002	0.583652
H92	H	1.736626	0.603002	1.083652
Cl93	Cl	0.974141	0.313582	0.604068
Cl94	Cl	1.474141	0.813582	1.104068
Cl95	Cl	0.974121	0.313579	0.395983
Cl96	Cl	1.474121	0.813579	0.895983
H97	H	1.274746	-0.388298	0.000023
H98	H	1.774746	0.111702	0.500023
Cl99	Cl	0.922782	-0.393250	0.000009
Cl100	Cl	1.422782	0.106750	0.500009
