data_functionalizedCrystal
_audit_creation_method	'MofGen! by Chris Wilmer'
_symmetry_space_group_name_H-M	'P1'
_symmetry_Int_Tables_number	1
_symmetry_cell_setting	triclinic
loop_
_symmetry_equiv_pos_as_xyz
  x,y,z
_cell_length_a	21.395362
_cell_length_b	21.295417
_cell_length_c	21.395355
_cell_angle_alpha	90.020404
_cell_angle_beta	90.043940
_cell_angle_gamma	90.045579
loop_
_atom_site_label
_atom_site_type_symbol
_atom_site_fract_x
_atom_site_fract_y
_atom_site_fract_z
Zn1	Zn	0.957864	-0.250415	0.354577
Zn2	Zn	1.457864	0.249585	0.854577
Zn3	Zn	0.957768	-0.355667	0.249796
Zn4	Zn	1.457768	0.144333	0.749796
Zn5	Zn	0.853079	-0.250445	0.249779
Zn6	Zn	1.353079	0.249555	0.749779
Zn7	Zn	0.853050	-0.355680	0.354501
Zn8	Zn	1.353050	0.144320	0.854501
O9	O	0.905440	-0.303052	0.302163
O10	O	1.405440	0.196948	0.802163
O11	O	1.045529	-0.264359	0.340717
O12	O	1.545529	0.235641	0.840717
O13	O	0.943853	-0.341716	0.162116
O14	O	1.443853	0.158284	0.662116
O15	O	0.867031	-0.162351	0.263705
O16	O	1.367031	0.337649	0.763705
O17	O	1.045459	-0.341687	0.263735
O18	O	1.545459	0.158313	0.763735
O19	O	0.944016	-0.162330	0.340700
O20	O	1.444016	0.337670	0.840700
O21	O	0.866938	-0.264409	0.162103
O22	O	1.366938	0.235591	0.662103
O23	O	0.765397	-0.264422	0.263631
O24	O	1.265397	0.235578	0.763631
O25	O	0.866982	-0.341709	0.442189
O26	O	1.366982	0.158291	0.942189
O27	O	0.765376	-0.341738	0.340570
O28	O	1.265376	0.158262	0.840570
O29	O	0.943988	-0.264372	0.442245
O30	O	1.443988	0.235628	0.942245
O31	O	0.943825	-0.443758	0.263661
O32	O	1.443825	0.056242	0.763661
O33	O	0.866889	-0.443767	0.340587
O34	O	1.366889	0.056233	0.840587
C35	C	0.742652	-0.303085	0.302091
C36	C	1.242652	0.196915	0.802091
C37	C	0.673011	-0.303114	0.302074
C38	C	1.173011	0.196886	0.802074
C39	C	0.640303	-0.343426	0.342077
C40	C	1.140303	0.156574	0.842077
C41	C	0.574868	-0.343411	0.342105
C42	C	1.074868	0.156589	0.842105
C43	C	0.542143	-0.303090	0.302119
C44	C	1.042143	0.196910	0.802119
C45	C	0.574859	-0.262771	0.262114
C46	C	1.074859	0.237229	0.762114
C47	C	0.640293	-0.262783	0.262092
C48	C	1.140293	0.237217	0.762092
C49	C	0.438418	-0.298019	0.245714
C50	C	0.938418	0.201981	0.745714
C51	C	0.372985	-0.298011	0.245735
C52	C	0.872985	0.201989	0.745735
C53	C	0.340322	-0.303049	0.302188
C54	C	0.840322	0.196951	0.802188
C55	C	0.373100	-0.308108	0.358622
C56	C	0.873100	0.191892	0.858622
C57	C	0.438534	-0.308120	0.358599
C58	C	0.938534	0.191880	0.858599
C59	C	0.471191	-0.303072	0.302139
C60	C	0.971191	0.196928	0.802139
C61	C	0.236662	-0.343346	0.342224
C62	C	0.736662	0.156654	0.842224
C63	C	0.171225	-0.343326	0.342253
C64	C	0.671225	0.156674	0.842253
C65	C	0.171217	-0.262690	0.262257
C66	C	0.671217	0.237310	0.762257
C67	C	0.236653	-0.262706	0.262234
C68	C	0.736653	0.237294	0.762234
C69	C	0.269371	-0.303038	0.302216
C70	C	0.769371	0.196962	0.802216
C71	C	0.905360	-0.466603	0.302132
C72	C	1.405360	0.033397	0.802132
C73	C	0.905383	-0.536571	0.302139
C74	C	1.405383	-0.036571	0.802139
C75	C	0.945447	-0.569370	0.342259
C76	C	1.445447	-0.069370	0.842259
C77	C	0.945469	-0.635112	0.342275
C78	C	1.445469	-0.135112	0.842275
C79	C	0.905434	-0.668054	0.302159
C80	C	1.405434	-0.168054	0.802159
C81	C	0.865363	-0.635248	0.262036
C82	C	1.365363	-0.135248	0.762036
C83	C	0.865338	-0.569506	0.262026
C84	C	1.365338	-0.069506	0.762026
N85	N	0.900697	-0.771307	0.247324
N86	N	1.400697	-0.271307	0.747324
N87	N	0.900725	-0.833759	0.247335
N88	N	1.400725	-0.333759	0.747335
C89	C	0.905507	-0.866129	0.302187
C90	C	1.405507	-0.366129	0.802187
N91	N	0.910273	-0.833688	0.357029
N92	N	1.410273	-0.333688	0.857029
N93	N	0.910249	-0.771230	0.357017
N94	N	1.410249	-0.271230	0.857017
C95	C	0.905457	-0.739339	0.302165
C96	C	1.405457	-0.239339	0.802165
C97	C	0.945597	-0.970212	0.342327
C98	C	1.445597	-0.470212	0.842327
C99	C	0.945615	-1.035956	0.342344
C100	C	1.445615	-0.535956	0.842344
C101	C	0.865512	-1.036090	0.262100
C102	C	1.365512	-0.536090	0.762100
C103	C	0.865491	-0.970348	0.262089
C104	C	1.365491	-0.470348	0.762089
C105	C	0.905537	-0.937413	0.302202
C106	C	1.405537	-0.437413	0.802202
C107	C	1.068864	-0.303019	0.302237
C108	C	1.568864	0.196981	0.802237
C109	C	1.138505	-0.303005	0.302268
C110	C	1.638505	0.196995	0.802268
C111	C	0.905492	-0.303039	0.465587
C112	C	1.405492	0.196961	0.965587
C113	C	0.905514	-0.303033	0.535228
C114	C	1.405514	0.196967	1.035228
C115	C	0.905537	-0.138861	0.302209
C116	C	1.405537	0.361139	0.802209
C117	C	0.905579	-0.068893	0.302228
C118	C	1.405579	0.431107	0.802228
C119	C	0.905424	-0.303019	0.139376
C120	C	1.405424	0.196981	0.639376
C121	C	0.905524	-0.302847	0.069735
C122	C	1.405524	0.197153	0.569735
C123	C	0.945610	-0.262762	0.567971
C124	C	1.445610	0.237238	1.067971
C125	C	0.945609	-0.262735	0.633407
C126	C	1.445609	0.237265	1.133407
C127	C	0.905519	-0.302991	0.666096
C128	C	1.405519	0.197009	1.166096
C129	C	0.865416	-0.343265	0.633345
C130	C	1.365416	0.156735	1.133345
C131	C	0.865413	-0.343286	0.567911
C132	C	1.365413	0.156714	1.067911
C133	C	0.900544	-0.359672	0.769758
C134	C	1.400544	0.140328	1.269758
C135	C	0.900551	-0.359652	0.835191
C136	C	1.400551	0.140348	1.335191
C137	C	0.905523	-0.302924	0.867917
C138	C	1.405523	0.197076	1.367917
C139	C	0.910501	-0.246215	0.835202
C140	C	1.410501	0.253785	1.335202
C141	C	0.910499	-0.246237	0.769768
C142	C	1.410499	0.253763	1.269768
C143	C	0.905517	-0.302971	0.737049
C144	C	1.405517	0.197029	1.237049
C145	C	0.945620	-0.262620	0.971613
C146	C	1.445620	0.237380	1.471613
C147	C	0.945615	-0.262592	1.037050
C148	C	1.445615	0.237408	1.537050
C149	C	0.865425	-0.343127	1.036987
C150	C	1.365425	0.156873	1.536987
C151	C	0.865427	-0.343150	0.971552
C152	C	1.365427	0.156850	1.471552
C153	C	0.905528	-0.302897	0.938869
C154	C	1.405528	0.197103	1.438869
H155	H	0.465220	-0.312237	0.404549
H156	H	0.965220	0.187763	0.904549
H157	H	0.978088	-0.661822	0.374952
H158	H	1.478088	-0.161822	0.874952
Br159	Br	0.811115	-0.925833	0.207639
Br160	Br	1.311115	-0.425833	0.707639
H161	H	0.914551	-0.200062	0.743134
H162	H	1.414551	0.299938	1.243134
Br163	Br	0.126835	-0.398035	0.396552
Br164	Br	0.626835	0.101965	0.896552
Br165	Br	0.893804	-0.436613	0.879584
Br166	Br	1.393804	0.063387	1.379584
H167	H	0.978258	-0.229938	0.660072
H168	H	1.478258	0.270062	1.160072
Br169	Br	0.917255	-0.169222	0.879607
Br170	Br	1.417255	0.330778	1.379607
H171	H	0.832780	-0.375947	0.944892
H172	H	1.332780	0.124053	1.444892
H173	H	0.346302	-0.293896	0.199784
H174	H	0.846302	0.206104	0.699784
H175	H	0.978269	-0.229840	0.945001
H176	H	1.478269	0.270160	1.445001
H177	H	0.896328	-0.405855	0.743119
H178	H	1.396328	0.094145	1.243119
H179	H	0.832766	-0.662073	0.229375
H180	H	1.332766	-0.162073	0.729375
Br181	Br	0.810960	-0.524991	0.207575
Br182	Br	1.310960	-0.024991	0.707575
Br183	Br	1.000030	-0.208132	0.523619
Br184	Br	1.500030	0.291868	1.023619
H185	H	0.978202	-0.943396	0.374992
H186	H	1.478202	-0.443396	0.874992
Br187	Br	0.811175	-1.080790	0.207659
Br188	Br	1.311175	-0.580790	0.707659
H189	H	0.832773	-0.376039	0.659965
H190	H	1.332773	0.123961	1.159965
H191	H	0.465007	-0.293914	0.199740
H192	H	0.965007	0.206086	0.699740
Br193	Br	0.328781	-0.314943	0.435243
Br194	Br	0.828781	0.185057	0.935243
Br195	Br	0.999981	-1.080470	0.396807
Br196	Br	1.499981	-0.580470	0.896807
Br197	Br	0.126812	-0.207962	0.207996
Br198	Br	0.626812	0.292038	0.707996
Br199	Br	0.811008	-0.397753	1.081344
Br200	Br	1.311008	0.102247	1.581344
Br201	Br	1.000044	-0.207943	1.081489
Br202	Br	1.500044	0.292057	1.581489
H203	H	0.666939	-0.376266	0.374635
H204	H	1.166939	0.123734	0.874635
Br205	Br	0.530469	-0.398122	0.396398
Br206	Br	1.030469	0.101878	0.896398
H207	H	0.832760	-0.376079	0.541252
H208	H	1.332760	0.123921	1.041252
H209	H	0.978053	-0.542556	0.374923
H210	H	1.478053	-0.042556	0.874923
Br211	Br	0.281069	-0.398078	0.396487
Br212	Br	0.781069	0.101922	0.896487
H213	H	0.263284	-0.229883	0.229656
H214	H	0.763284	0.270117	0.729656
Br215	Br	0.530448	-0.208044	0.207853
Br216	Br	1.030448	0.291956	0.707853
H217	H	0.666923	-0.229954	0.229517
H218	H	1.166923	0.270046	0.729517
