data_functionalizedCrystal
_audit_creation_method	'MofGen! by Chris Wilmer'
_symmetry_space_group_name_H-M	'P1'
_symmetry_Int_Tables_number	1
_symmetry_cell_setting	triclinic
loop_
_symmetry_equiv_pos_as_xyz
  x,y,z
_cell_length_a	18.215407
_cell_length_b	16.120444
_cell_length_c	18.215399
_cell_angle_alpha	92.867973
_cell_angle_beta	89.985195
_cell_angle_gamma	92.921021
loop_
_atom_site_label
_atom_site_type_symbol
_atom_site_fract_x
_atom_site_fract_y
_atom_site_fract_z
Zn1	Zn	1.110180	-0.332018	-0.430929
Zn2	Zn	1.610180	0.167982	0.069071
Zn3	Zn	1.103850	-0.471445	-0.314101
Zn4	Zn	1.603850	0.028555	0.185899
Zn5	Zn	0.987118	-0.332036	-0.307882
Zn6	Zn	1.487118	0.167964	0.192118
Zn7	Zn	0.980836	-0.471378	-0.437127
Zn8	Zn	1.480836	0.028622	0.062873
O9	O	1.045496	-0.401719	-0.372510
O10	O	1.545496	0.098281	0.127490
O11	O	1.212323	-0.350533	-0.415441
O12	O	1.712323	0.149467	0.084559
O13	O	1.088345	-0.452987	-0.210293
O14	O	1.588345	0.047013	0.289707
O15	O	1.008720	-0.215368	-0.319008
O16	O	1.508720	0.284632	0.180992
O17	O	1.207673	-0.452969	-0.329607
O18	O	1.707673	0.047031	0.170393
O19	O	1.099133	-0.215355	-0.409411
O20	O	1.599133	0.284645	0.090589
O21	O	1.002582	-0.350565	-0.205724
O22	O	1.502582	0.149435	0.294276
O23	O	0.883301	-0.350500	-0.325018
O24	O	1.383301	0.149500	0.174982
O25	O	0.998014	-0.452856	-0.539287
O26	O	1.498014	0.047144	-0.039287
O27	O	0.878686	-0.452874	-0.419973
O28	O	1.378686	0.047126	0.080027
O29	O	1.093042	-0.350468	-0.534734
O30	O	1.593042	0.149532	-0.034734
O31	O	1.082254	-0.588101	-0.335616
O32	O	1.582254	-0.088101	0.164384
O33	O	0.991877	-0.588052	-0.426003
O34	O	1.491877	-0.088052	0.073997
C35	C	0.854291	-0.401682	-0.372494
C36	C	1.354291	0.098318	0.127506
C37	C	0.772492	-0.401687	-0.372505
C38	C	1.272492	0.098313	0.127495
C39	C	0.509844	-0.348483	-0.417283
C40	C	1.009844	0.151517	0.082717
C41	C	0.586704	-0.348470	-0.417280
C42	C	1.086704	0.151530	0.082720
C43	C	0.581887	-0.454982	-0.327754
C44	C	1.081887	0.045018	0.172246
C45	C	0.505029	-0.454999	-0.327761
C46	C	1.005029	0.045001	0.172239
C47	C	0.469010	-0.401745	-0.372524
C48	C	0.969010	0.098255	0.127476
C49	C	0.622727	-0.401714	-0.372514
C50	C	1.122727	0.098286	0.127486
C51	C	0.706062	-0.401700	-0.372511
C52	C	1.206062	0.098300	0.127489
C53	C	0.385670	-0.401760	-0.372529
C54	C	0.885670	0.098240	0.127471
C55	C	1.035717	-0.618327	-0.382173
C56	C	1.535717	-0.118327	0.117827
C57	C	1.031601	-0.710993	-0.386332
C58	C	1.531601	-0.210993	0.113668
C59	C	1.067029	-0.921938	-0.351095
C60	C	1.567029	-0.421938	0.148905
C61	C	1.024099	-0.880649	-0.393932
C62	C	1.524099	-0.380649	0.106068
C63	C	1.028274	-0.786243	-0.389702
C64	C	1.528274	-0.286243	0.110298
C65	C	1.062855	-1.016352	-0.355324
C66	C	1.562855	-0.516352	0.144676
C67	C	1.237447	-0.401757	-0.372526
C68	C	1.737447	0.098243	0.127474
C69	C	1.319245	-0.401772	-0.372533
C70	C	1.819245	0.098228	0.127467
C71	C	1.045534	-0.401652	-0.564460
C72	C	1.545534	0.098348	-0.064460
C73	C	1.045550	-0.401624	-0.646257
C74	C	1.545550	0.098376	-0.146257
C75	C	1.055333	-0.184265	-0.362825
C76	C	1.555333	0.315735	0.137175
C77	C	1.059525	-0.091600	-0.358697
C78	C	1.559525	0.408400	0.141303
C79	C	1.000935	-0.348257	-0.832072
C80	C	1.500935	0.151743	-0.332072
C81	C	1.000948	-0.348240	-0.908930
C82	C	1.500948	0.151760	-0.408930
C83	C	1.090257	-0.454892	-0.913677
C84	C	1.590257	0.045108	-0.413677
C85	C	1.090239	-0.454913	-0.836820
C86	C	1.590239	0.045087	-0.336820
C87	C	1.045579	-0.401590	-0.796019
C88	C	1.545579	0.098410	-0.296019
C89	C	1.045611	-0.401553	-0.949734
C90	C	1.545611	0.098447	-0.449734
C91	C	1.045626	-0.401535	-1.033067
C92	C	1.545626	0.098465	-0.533067
C93	C	1.045563	-0.401609	-0.712681
C94	C	1.545563	0.098391	-0.212681
C95	C	1.045503	-0.401725	-0.181304
C96	C	1.545503	0.098275	0.318696
C97	C	1.045640	-0.401519	-0.099496
C98	C	1.545640	0.098481	0.400504
H99	H	0.619948	-0.305099	-0.453728
H100	H	1.119948	0.194901	0.046272
H101	H	1.126619	-0.498305	-0.946906
H102	H	1.626619	0.001695	-0.446906
C103	C	1.139369	-0.513571	-0.797160
C104	C	1.639369	-0.013571	-0.297160
N105	N	1.176376	-0.557747	-0.767287
N106	N	1.676376	-0.057747	-0.267287
C107	C	0.470226	-0.289909	-0.466530
C108	C	0.970226	0.210091	0.033470
N109	N	0.440387	-0.245792	-0.503627
N110	N	0.940387	0.254208	-0.003627
C111	C	0.460109	-0.513591	-0.278517
C112	C	0.960109	-0.013591	0.221483
N113	N	0.426275	-0.557720	-0.241429
N114	N	0.926275	-0.057720	0.258571
C115	C	0.970204	-0.928675	-0.447766
C116	C	1.470204	-0.428675	0.052234
N117	N	0.929610	-0.964852	-0.488309
N118	N	1.429610	-0.464852	0.011691
H119	H	0.611224	-0.498338	-0.291308
H120	H	1.111224	0.001662	0.208692
C121	C	0.951840	-0.289564	-0.948583
C122	C	1.451840	0.210436	-0.448583
N123	N	0.914850	-0.245366	-0.978450
N124	N	1.414850	0.254634	-0.478450
C125	C	1.120909	-0.873912	-0.297254
C126	C	1.620909	-0.373912	0.202746
N127	N	1.161487	-0.837729	-0.256699
N128	N	1.661487	-0.337729	0.243301
C129	C	0.951801	-0.289607	-0.787194
C130	C	1.451801	0.210393	-0.287194
N131	N	0.914790	-0.245433	-0.753394
N132	N	1.414790	0.254567	-0.253394
