data_functionalizedCrystal
_audit_creation_method	'MofGen! by Chris Wilmer'
_symmetry_space_group_name_H-M	'P1'
_symmetry_Int_Tables_number	1
_symmetry_cell_setting	triclinic
loop_
_symmetry_equiv_pos_as_xyz
  x,y,z
_cell_length_a	21.295418
_cell_length_b	12.827892
_cell_length_c	12.827885
_cell_angle_alpha	90.029976
_cell_angle_beta	89.959362
_cell_angle_gamma	89.968793
loop_
_atom_site_label
_atom_site_type_symbol
_atom_site_fract_x
_atom_site_fract_y
_atom_site_fract_z
Zn1	Zn	0.962403	0.415539	-0.591439
Zn2	Zn	0.962339	0.590317	-0.416700
Zn3	Zn	0.857132	0.415639	-0.416648
Zn4	Zn	0.857123	0.590287	-0.591335
O5	O	0.909749	0.502946	-0.504031
O6	O	1.050484	0.438695	-0.568325
O7	O	0.948359	0.567200	-0.270457
O8	O	0.871126	0.269390	-0.439857
O9	O	1.050436	0.567103	-0.439944
O10	O	0.948469	0.269316	-0.568275
O11	O	0.871064	0.438865	-0.270419
O12	O	0.769041	0.438836	-0.439756
O13	O	0.871112	0.567052	-0.737585
O14	O	0.769035	0.567149	-0.568097
O15	O	0.948460	0.438666	-0.737662
O16	O	0.948351	0.736549	-0.439843
O17	O	0.871050	0.736527	-0.568147
C18	C	0.746197	0.503001	-0.503910
C19	C	0.676229	0.503049	-0.503884
C20	C	0.909710	0.774456	-0.504012
C21	C	0.909750	0.890609	-0.504039
C22	C	0.909792	0.502844	-0.776601
C23	C	0.909811	0.502801	-0.892754
C24	C	0.643376	0.569951	-0.570611
C25	C	0.577633	0.569925	-0.570658
C26	C	0.544747	0.503009	-0.503959
C27	C	0.577608	0.436095	-0.437227
C28	C	0.643349	0.436115	-0.437189
N29	N	0.441472	0.494856	-0.412557
N30	N	0.379021	0.494843	-0.412596
C31	C	0.346672	0.502942	-0.504070
N32	N	0.379134	0.511075	-0.595505
N33	N	0.441591	0.511094	-0.595465
C34	C	0.473461	0.502979	-0.503993
C35	C	0.242533	0.569819	-0.570854
C36	C	0.176789	0.569786	-0.570902
C37	C	0.176765	0.435961	-0.437462
C38	C	0.242508	0.435989	-0.437422
C39	C	0.275388	0.502923	-0.504117
C40	C	1.073939	0.502891	-0.504152
C41	C	1.143907	0.502868	-0.504204
C42	C	0.909806	0.230375	-0.504072
C43	C	0.909830	0.114222	-0.504090
C44	C	0.948047	0.942370	-0.440621
C45	C	0.948090	1.062420	-0.440647
C46	C	0.948108	0.439216	-1.064621
C47	C	0.948089	0.439259	-0.944571
C48	C	0.909742	0.502971	-0.232521
C49	C	0.909845	0.502720	-0.116368
H50	H	0.670142	0.624452	-0.624921
H51	H	0.877077	0.557123	-1.071794
H52	H	0.980844	0.384886	-0.900070
H53	H	0.550828	0.381609	-0.382922
H54	H	0.877038	1.069717	-0.558384
H55	H	0.876998	0.935171	-0.558358
H56	H	0.670098	0.381633	-0.382851
H57	H	0.980875	1.106933	-0.386350
H58	H	0.269305	0.624316	-0.625166
H59	H	0.980881	0.384820	-1.109196
H60	H	0.550879	0.624403	-0.625000
H61	H	0.877047	0.557165	-0.937249
H62	H	0.150041	0.624263	-0.625247
H63	H	0.980805	0.897810	-0.386310
H64	H	0.269257	0.381516	-0.383080
H65	H	0.149990	0.381472	-0.383159
