data_functionalizedCrystal
_audit_creation_method	'MofGen! by Chris Wilmer'
_symmetry_space_group_name_H-M	'P1'
_symmetry_Int_Tables_number	1
_symmetry_cell_setting	triclinic
loop_
_symmetry_equiv_pos_as_xyz
  x,y,z
_cell_length_a	12.759401
_cell_length_b	11.169416
_cell_length_c	12.759393
_cell_angle_alpha	90.028695
_cell_angle_beta	90.019837
_cell_angle_gamma	90.011865
loop_
_atom_site_label
_atom_site_type_symbol
_atom_site_fract_x
_atom_site_fract_y
_atom_site_fract_z
Zn1	Zn	1.606287	-0.477687	0.594041
Zn2	Zn	1.606195	-0.678420	0.418371
Zn3	Zn	1.430589	-0.477755	0.418377
Zn4	Zn	1.430591	-0.678332	0.594008
O5	O	1.518415	-0.578048	0.506199
O6	O	1.753296	-0.504323	0.570750
O7	O	1.582861	-0.651866	0.271350
O8	O	1.453933	-0.309796	0.441696
O9	O	1.753228	-0.651801	0.441685
O10	O	1.583018	-0.309746	0.570756
O11	O	1.453844	-0.504438	0.271355
O12	O	1.283568	-0.504353	0.441663
O13	O	1.453937	-0.651651	0.741033
O14	O	1.283570	-0.651717	0.570698
O15	O	1.583020	-0.504238	0.741058
O16	O	1.582863	-0.846358	0.441653
O17	O	1.453847	-0.846293	0.570692
C18	C	1.245448	-0.578034	0.506178
C19	C	1.128671	-0.578056	0.506194
C20	C	1.073838	-0.654905	0.573277
C21	C	0.964114	-0.654910	0.573298
C22	C	0.964067	-0.501213	0.439144
C23	C	1.073789	-0.501204	0.439129
C24	C	1.518374	-0.889873	0.506191
C25	C	1.518452	-1.023273	0.506223
C26	C	1.792449	-0.578064	0.506221
C27	C	1.909225	-0.578071	0.506230
C28	C	1.518489	-0.577927	0.780233
C29	C	1.518520	-0.577875	0.897009
C30	C	1.518486	-0.265006	0.506230
C31	C	1.518516	-0.131606	0.506243
C32	C	1.518403	-0.578083	0.233232
C33	C	1.518575	-0.577796	0.116456
C34	C	1.451365	-0.501096	0.951873
C35	C	1.451389	-0.501059	1.061597
C36	C	1.585733	-0.654584	1.061584
C37	C	1.585702	-0.654626	0.951862
H38	H	1.118435	-0.438617	0.384502
H39	H	1.396661	-0.438600	0.907215
H40	H	0.919368	-0.438644	0.384540
C41	C	1.659587	-0.739079	0.891503
C42	C	1.659555	-0.739120	0.770813
C43	C	1.733437	-0.823567	0.710454
C44	C	1.807351	-0.907972	0.770784
C45	C	1.807386	-0.907934	0.891481
C46	C	1.733504	-0.823487	0.951841
H47	H	1.604837	-0.676635	0.726147
H48	H	1.733411	-0.823594	0.621106
H49	H	1.862043	-0.970485	0.726103
H50	H	1.862104	-0.970419	0.936148
H51	H	1.733530	-0.823460	1.041189
H52	H	1.640431	-0.717072	1.106258
C53	C	1.134210	-0.739431	0.647055
C54	C	1.119101	-0.875859	0.638289
C55	C	1.179471	-0.960384	0.712071
C56	C	1.254949	-0.908481	0.794619
C57	C	1.270062	-0.772046	0.803389
C58	C	1.209692	-0.687521	0.729606
H59	H	1.063224	-0.914286	0.577179
H60	H	1.168283	-1.061382	0.705579
H61	H	1.299638	-0.971051	0.849237
H62	H	1.325939	-0.733618	0.864499
H63	H	1.220880	-0.586523	0.736099
C64	C	1.377521	-0.416594	1.121946
C65	C	1.258079	-0.426373	1.106843
C66	C	1.184207	-0.341905	1.167191
C67	C	1.229776	-0.247658	1.242642
C68	C	1.349225	-0.237875	1.257750
C69	C	1.423097	-0.322343	1.197402
H70	H	1.224340	-0.496143	1.050986
H71	H	1.095783	-0.349147	1.156007
H72	H	1.175092	-0.185129	1.287316
H73	H	1.382964	-0.168105	1.313607
H74	H	1.511521	-0.315101	1.208585
H75	H	0.919473	-0.717486	0.627925
