data_functionalizedCrystal
_audit_creation_method	'MofGen! by Chris Wilmer'
_symmetry_space_group_name_H-M	'P1'
_symmetry_Int_Tables_number	1
_symmetry_cell_setting	triclinic
loop_
_symmetry_equiv_pos_as_xyz
  x,y,z
_cell_length_a	23.532407
_cell_length_b	16.109301
_cell_length_c	14.586319
_cell_angle_alpha	89.998390
_cell_angle_beta	90.000590
_cell_angle_gamma	83.155075
loop_
_atom_site_label
_atom_site_type_symbol
_atom_site_fract_x
_atom_site_fract_y
_atom_site_fract_z
O1	O	-0.755633	-0.100920	0.076106
O2	O	-0.505633	0.149080	0.326106
O3	O	-0.255633	0.399080	0.576106
O4	O	-0.005633	0.649080	0.826106
O5	O	-0.589824	-0.115523	0.076138
O6	O	-0.339824	0.134477	0.326138
O7	O	-0.089824	0.384477	0.576138
O8	O	0.160176	0.634477	0.826138
O9	O	-0.677284	0.012846	0.076112
O10	O	-0.427284	0.262846	0.326112
O11	O	-0.177284	0.512846	0.576112
O12	O	0.072716	0.762846	0.826112
O13	O	-0.668174	-0.229288	0.076132
O14	O	-0.418174	0.020712	0.326132
O15	O	-0.168174	0.270712	0.576132
O16	O	0.081826	0.520712	0.826132
O17	O	-0.677273	0.012838	-0.076369
O18	O	-0.427273	0.262838	0.173631
O19	O	-0.177273	0.512838	0.423631
O20	O	0.072727	0.762838	0.673631
O21	O	-0.589813	-0.115530	-0.076343
O22	O	-0.339813	0.134470	0.173657
O23	O	-0.089813	0.384470	0.423657
O24	O	0.160187	0.634470	0.673657
O25	O	-0.755623	-0.100927	-0.076375
O26	O	-0.505623	0.149073	0.173625
O27	O	-0.255623	0.399073	0.423625
O28	O	-0.005623	0.649073	0.673625
Cu29	Cu	-0.672717	-0.108230	-0.090281
Cu30	Cu	-0.422717	0.141770	0.159719
Cu31	Cu	-0.172717	0.391770	0.409719
Cu32	Cu	0.077283	0.641770	0.659719
Cu33	Cu	-0.672730	-0.108221	0.090045
Cu34	Cu	-0.422730	0.141779	0.340045
Cu35	Cu	-0.172730	0.391779	0.590045
Cu36	Cu	0.077270	0.641779	0.840045
O37	O	-0.668163	-0.229296	-0.076348
O38	O	-0.418163	0.020704	0.173652
O39	O	-0.168163	0.270704	0.423652
O40	O	0.081837	0.520704	0.673652
C41	C	-0.568601	-0.115155	-0.000098
C42	C	-0.318601	0.134845	0.249902
C43	C	-0.068601	0.384845	0.499902
C44	C	0.181399	0.634845	0.749902
C45	C	-0.505380	-0.114037	-0.000086
C46	C	-0.255380	0.135963	0.249914
C47	C	-0.005380	0.385963	0.499914
C48	C	0.244620	0.635963	0.749914
C49	C	-0.106531	-0.182990	-0.000110
C50	C	0.143469	0.067010	0.249890
C51	C	0.393469	0.317010	0.499890
C52	C	0.643469	0.567010	0.749890
C53	C	-0.047127	-0.181951	-0.000114
C54	C	0.202873	0.068049	0.249886
C55	C	0.452873	0.318049	0.499886
C56	C	0.702873	0.568049	0.749886
O57	O	-0.010619	-0.245872	-0.000140
O58	O	0.239381	0.004128	0.249860
O59	O	0.489381	0.254128	0.499860
O60	O	0.739381	0.504128	0.749860
N61	N	-0.024220	-0.105636	-0.000118
N62	N	0.225780	0.144364	0.249882
N63	N	0.475780	0.394364	0.499882
N64	N	0.725780	0.644364	0.749882
C65	C	-0.060719	-0.030355	-0.000127
C66	C	0.189281	0.219645	0.249873
C67	C	0.439281	0.469645	0.499873
C68	C	0.689281	0.719645	0.749873
O69	O	-0.035780	0.034652	-0.000132
O70	O	0.214220	0.284652	0.249868
O71	O	0.464220	0.534652	0.499868
O72	O	0.714220	0.784652	0.749868
C73	C	-0.120122	-0.031395	-0.000130
C74	C	0.129878	0.218605	0.249870
C75	C	0.379878	0.468605	0.499870
C76	C	0.629878	0.718605	0.749870
C77	C	-0.143027	-0.107715	-0.000117
C78	C	0.106973	0.142285	0.249883
C79	C	0.356973	0.392285	0.499883
C80	C	0.606973	0.642285	0.749883
C81	C	-0.129436	-0.259304	-0.000097
C82	C	0.120564	-0.009304	0.249903
C83	C	0.370564	0.240696	0.499903
C84	C	0.620564	0.490696	0.749903
C85	C	-0.188836	-0.260342	-0.000092
C86	C	0.061164	-0.010342	0.249908
C87	C	0.311164	0.239658	0.499908
C88	C	0.561164	0.489658	0.749908
C89	C	-0.225331	-0.185066	-0.000099
C90	C	0.024669	0.064934	0.249901
C91	C	0.274669	0.314934	0.499901
C92	C	0.524669	0.564934	0.749901
C93	C	-0.202427	-0.108753	-0.000111
C94	C	0.047573	0.141247	0.249889
C95	C	0.297573	0.391247	0.499889
C96	C	0.547573	0.641247	0.749889
C97	C	-0.156621	0.043886	-0.000146
C98	C	0.093379	0.293886	0.249854
C99	C	0.343379	0.543886	0.499854
C100	C	0.593379	0.793886	0.749854
C101	C	-0.216027	0.042840	-0.000150
C102	C	0.033973	0.292840	0.249850
C103	C	0.283973	0.542840	0.499850
C104	C	0.533973	0.792840	0.749850
C105	C	-0.238932	-0.033480	-0.000136
C106	C	0.011068	0.216520	0.249864
C107	C	0.261068	0.466520	0.499864
C108	C	0.511068	0.716520	0.749864
C109	C	-0.298322	-0.034516	-0.000112
C110	C	-0.048322	0.215484	0.249888
C111	C	0.201678	0.465484	0.499888
C112	C	0.451678	0.715484	0.749888
N113	N	-0.321229	-0.110831	-0.000108
N114	N	-0.071229	0.139169	0.249892
N115	N	0.178771	0.389169	0.499892
N116	N	0.428771	0.639169	0.749892
C117	C	-0.284734	-0.186106	-0.000101
C118	C	-0.034734	0.063894	0.249899
C119	C	0.215266	0.313894	0.499899
C120	C	0.465266	0.563894	0.749899
C121	C	0.064031	-0.028178	-0.000123
C122	C	0.314031	0.221822	0.249877
C123	C	0.564031	0.471822	0.499877
C124	C	0.814031	0.721822	0.749877
C125	C	0.123433	-0.027138	-0.000114
C126	C	0.373433	0.222862	0.249886
C127	C	0.623433	0.472862	0.499886
C128	C	0.873433	0.722862	0.749886
C129	C	0.137021	-0.178734	-0.000102
C130	C	0.387021	0.071266	0.249898
C131	C	0.637021	0.321266	0.499898
C132	C	0.887021	0.571266	0.749898
C133	C	0.077618	-0.179774	-0.000105
C134	C	0.327618	0.070226	0.249895
C135	C	0.577618	0.320226	0.499895
C136	C	0.827618	0.570226	0.749895
C137	C	0.041123	-0.104493	-0.000119
C138	C	0.291123	0.145507	0.249881
C139	C	0.541123	0.395507	0.499881
C140	C	0.791123	0.645507	0.749881
C141	C	-0.409479	-0.188281	-0.000089
C142	C	-0.159479	0.061719	0.249911
C143	C	0.090521	0.311719	0.499911
C144	C	0.340521	0.561719	0.749911
C145	C	-0.468885	-0.189312	-0.000079
C146	C	-0.218885	0.060688	0.249921
C147	C	0.031115	0.310688	0.499921
C148	C	0.281115	0.560688	0.749921
C149	C	-0.482468	-0.037716	-0.000096
C150	C	-0.232468	0.212284	0.249904
C151	C	0.017532	0.462284	0.499904
C152	C	0.267532	0.712284	0.749904
C153	C	-0.423067	-0.036684	-0.000101
C154	C	-0.173067	0.213316	0.249899
C155	C	0.076933	0.463316	0.499899
C156	C	0.326933	0.713316	0.749899
C157	C	-0.386574	-0.111973	-0.000100
C158	C	-0.136574	0.138027	0.249900
C159	C	0.113426	0.388027	0.499900
C160	C	0.363426	0.638027	0.749900
O161	O	-0.334865	0.029371	-0.000089
O162	O	-0.084865	0.279371	0.249911
O163	O	0.165135	0.529371	0.499911
O164	O	0.415135	0.779371	0.749911
O165	O	-0.309682	-0.251102	-0.000109
O166	O	-0.059682	-0.001102	0.249891
O167	O	0.190318	0.248898	0.499891
O168	O	0.440318	0.498898	0.749891
C169	C	0.223154	-0.101295	-0.000129
C170	C	0.473154	0.148705	0.249871
C171	C	0.723154	0.398705	0.499871
C172	C	0.973154	0.648705	0.749871
C173	C	0.159933	-0.102414	-0.000112
C174	C	0.409933	0.147586	0.249888
C175	C	0.659933	0.397586	0.499888
C176	C	0.909933	0.647586	0.749888
C177	C	-0.676909	0.043814	-0.000129
C178	C	-0.426909	0.293814	0.249871
C179	C	-0.176909	0.543814	0.499871
C180	C	0.073091	0.793814	0.749871
C181	C	-0.675803	0.136100	-0.000130
C182	C	-0.425803	0.386100	0.249870
C183	C	-0.175803	0.636100	0.499870
C184	C	0.074197	0.886100	0.749870
C185	C	-0.668537	-0.260264	-0.000106
C186	C	-0.418537	-0.010264	0.249894
C187	C	-0.168537	0.239736	0.499894
C188	C	0.081463	0.489736	0.749894
C189	C	-0.669644	-0.352550	-0.000099
C190	C	-0.419644	-0.102550	0.249901
C191	C	-0.169644	0.147450	0.499901
C192	C	0.080356	0.397450	0.749901
N193	N	-0.672712	-0.108235	-0.217113
N194	N	-0.422712	0.141765	0.032887
N195	N	-0.172712	0.391765	0.282887
N196	N	0.077288	0.641765	0.532887
C197	C	-0.725127	0.358761	-0.000125
C198	C	-0.475127	0.608761	0.249875
C199	C	-0.225127	0.858761	0.499875
C200	C	0.024873	1.108761	0.749875
C201	C	-0.724083	0.445473	-0.000117
C202	C	-0.474083	0.695473	0.249883
C203	C	-0.224083	0.945473	0.499883
C204	C	0.025917	1.195473	0.749883
C205	C	-0.620315	0.424782	-0.000101
C206	C	-0.370315	0.674782	0.249899
C207	C	-0.120315	0.924782	0.499899
C208	C	0.129685	1.174782	0.749899
C209	C	-0.621360	0.338072	-0.000102
C210	C	-0.371360	0.588072	0.249898
C211	C	-0.121360	0.838072	0.499898
C212	C	0.128640	1.088072	0.749898
C213	C	-0.673768	0.305064	-0.000119
C214	C	-0.423768	0.555064	0.249881
C215	C	-0.173768	0.805064	0.499881
C216	C	0.076232	1.055064	0.749881
C217	C	-0.671679	0.478486	-0.000110
C218	C	-0.421679	0.728486	0.249890
C219	C	-0.171679	0.978486	0.499890
C220	C	0.078321	1.228486	0.749890
C221	C	-0.670547	0.572503	-0.000101
C222	C	-0.420547	0.822503	0.249899
C223	C	-0.170547	1.072503	0.499899
C224	C	0.079453	1.322503	0.749899
C225	C	-0.674900	0.211040	-0.000125
C226	C	-0.424900	0.461040	0.249875
C227	C	-0.174900	0.711040	0.499875
C228	C	0.075100	0.961040	0.749875
C229	C	-0.707251	-0.158392	-0.452122
C230	C	-0.457251	0.091608	-0.202122
C231	C	-0.207251	0.341608	0.047878
C232	C	0.042749	0.591608	0.297878
C233	C	-0.707257	-0.158387	-0.548103
C234	C	-0.457257	0.091613	-0.298103
C235	C	-0.207257	0.341613	-0.048103
C236	C	0.042743	0.591613	0.201897
C237	C	-0.638198	-0.058045	-0.548108
C238	C	-0.388198	0.191955	-0.298108
C239	C	-0.138198	0.441955	-0.048108
C240	C	0.111802	0.691955	0.201892
C241	C	-0.638196	-0.058047	-0.452128
C242	C	-0.388196	0.191953	-0.202128
C243	C	-0.138196	0.441953	0.047872
C244	C	0.111804	0.691953	0.297872
C245	C	-0.672721	-0.108226	-0.404138
C246	C	-0.422721	0.141774	-0.154138
C247	C	-0.172721	0.391774	0.095862
C248	C	0.077279	0.641774	0.345862
C249	C	-0.672730	-0.108218	-0.596099
C250	C	-0.422730	0.141782	-0.346099
C251	C	-0.172730	0.391782	-0.096099
C252	C	0.077270	0.641782	0.153901
C253	C	-0.672736	-0.108211	-0.700166
C254	C	-0.422736	0.141789	-0.450166
C255	C	-0.172736	0.391789	-0.200166
C256	C	0.077264	0.641789	0.049834
C257	C	-0.672716	-0.108231	-0.300064
C258	C	-0.422716	0.141769	-0.050064
C259	C	-0.172716	0.391769	0.199936
C260	C	0.077284	0.641769	0.449936
N261	N	-0.672739	-0.108208	0.216877
N262	N	-0.422739	0.141792	0.466877
N263	N	-0.172739	0.391792	0.716877
N264	N	0.077261	0.641792	0.966877
H265	H	-0.379772	-0.249588	-0.000091
H266	H	-0.129772	0.000412	0.249909
H267	H	0.120228	0.250412	0.499909
H268	H	0.370228	0.500412	0.749909
F269	F	-0.778748	0.502618	-0.000122
F270	F	-0.528748	0.752618	0.249878
F271	F	-0.278748	1.002618	0.499878
F272	F	-0.028748	1.252618	0.749878
H273	H	-0.207479	-0.322489	-0.000080
H274	H	0.042521	-0.072489	0.249920
H275	H	0.292521	0.177511	0.499920
H276	H	0.542521	0.427511	0.749920
F277	F	-0.601442	-0.004651	-0.401057
F278	F	-0.351442	0.245349	-0.151057
F279	F	-0.101442	0.495349	0.098943
F280	F	0.148558	0.745349	0.348943
H281	H	0.166747	-0.240028	-0.000101
H282	H	0.416747	0.009972	0.249899
H283	H	0.666747	0.259972	0.499899
H284	H	0.916747	0.509972	0.749899
H285	H	-0.245739	0.104144	-0.000162
H286	H	0.004261	0.354144	0.249838
H287	H	0.254261	0.604144	0.499838
H288	H	0.504261	0.854144	0.749838
H289	H	-0.099727	-0.320606	-0.000095
H290	H	0.150273	-0.070606	0.249905
H291	H	0.400273	0.179394	0.499905
H292	H	0.650273	0.429394	0.749905
F293	F	-0.493257	-0.270546	-0.000062
F294	F	-0.243257	-0.020546	0.249938
F295	F	0.006743	0.229454	0.499938
F296	F	0.256743	0.479454	0.749938
F297	F	-0.564543	0.459920	-0.000082
F298	F	-0.314543	0.709920	0.249918
F299	F	-0.064543	0.959920	0.499918
F300	F	0.185457	1.209920	0.749918
H301	H	-0.735376	-0.199236	-0.587168
H302	H	-0.485376	0.050764	-0.337168
H303	H	-0.235376	0.300764	-0.087168
H304	H	0.014624	0.550764	0.162832
F305	F	-0.744000	-0.211792	-0.401050
F306	F	-0.494000	0.038208	-0.151050
F307	F	-0.244000	0.288208	0.098950
F308	F	0.006000	0.538208	0.348950
H309	H	-0.610088	-0.017193	-0.587193
H310	H	-0.360088	0.232807	-0.337193
H311	H	-0.110088	0.482807	-0.087193
H312	H	0.139912	0.732807	0.162807
H313	H	-0.579534	0.294349	-0.000094
H314	H	-0.329534	0.544349	0.249906
H315	H	-0.079534	0.794349	0.499906
H316	H	0.170466	1.044349	0.749906
F317	F	0.053247	-0.261003	-0.000092
F318	F	0.303247	-0.011003	0.249908
F319	F	0.553247	0.238997	0.499908
F320	F	0.803247	0.488997	0.749908
H321	H	-0.767801	0.331888	-0.000137
H322	H	-0.517801	0.581888	0.249863
H323	H	-0.267801	0.831888	0.499863
H324	H	-0.017801	1.081888	0.749863
H325	H	-0.404418	0.025462	-0.000098
H326	H	-0.154418	0.275462	0.249902
H327	H	0.095582	0.525462	0.499902
H328	H	0.345582	0.775462	0.749902
F329	F	-0.132258	0.125117	-0.000148
F330	F	0.117742	0.375117	0.249852
F331	F	0.367742	0.625117	0.499852
F332	F	0.617742	0.875117	0.749852
H333	H	0.142076	0.035010	-0.000111
H334	H	0.392076	0.285010	0.249889
H335	H	0.642076	0.535010	0.499889
H336	H	0.892076	0.785010	0.749889
F337	F	-0.521319	0.042393	-0.000105
F338	F	-0.271319	0.292393	0.249895
F339	F	-0.021319	0.542393	0.499895
F340	F	0.228681	0.792393	0.749895
F341	F	0.025195	0.051952	-0.000130
F342	F	0.275195	0.301952	0.249870
F343	F	0.525195	0.551952	0.499870
F344	F	0.775195	0.801952	0.749870
