data_functionalizedCrystal
_audit_creation_method	'MofGen! by Chris Wilmer'
_symmetry_space_group_name_H-M	'P1'
_symmetry_Int_Tables_number	1
_symmetry_cell_setting	triclinic
loop_
_symmetry_equiv_pos_as_xyz
  x,y,z
_cell_length_a	12.759395
_cell_length_b	19.121063
_cell_length_c	12.759387
_cell_angle_alpha	92.403602
_cell_angle_beta	89.979491
_cell_angle_gamma	92.470426
loop_
_atom_site_label
_atom_site_type_symbol
_atom_site_fract_x
_atom_site_fract_y
_atom_site_fract_z
Zn1	Zn	1.588336	-0.279547	-0.611793
Zn2	Zn	1.580692	-0.397015	-0.443587
Zn3	Zn	1.412632	-0.279586	-0.436132
Zn4	Zn	1.405095	-0.396965	-0.619223
O5	O	1.496689	-0.338278	-0.527684
O6	O	1.734343	-0.295134	-0.589490
O7	O	1.558353	-0.381475	-0.295580
O8	O	1.442293	-0.181296	-0.453204
O9	O	1.728726	-0.381437	-0.465911
O10	O	1.571382	-0.181268	-0.582261
O11	O	1.434881	-0.295200	-0.290102
O12	O	1.264611	-0.295151	-0.460409
O13	O	1.429447	-0.381352	-0.765256
O14	O	1.259074	-0.381389	-0.594925
O15	O	1.564074	-0.295086	-0.759797
O16	O	1.551045	-0.495293	-0.473116
O17	O	1.422034	-0.495256	-0.602155
C18	C	1.223722	-0.338270	-0.527665
C19	C	1.106944	-0.338283	-0.527683
C20	C	1.101207	-0.428228	-0.667547
C21	C	1.043477	-0.473206	-0.737482
C22	C	0.933755	-0.473214	-0.737496
C23	C	0.881761	-0.428239	-0.667569
C24	C	0.939490	-0.383261	-0.597633
C25	C	1.049215	-0.383258	-0.597625
C26	C	0.945228	-0.293313	-0.457776
C27	C	1.054950	-0.293307	-0.457756
C28	C	0.893233	-0.248337	-0.387849
C29	C	0.950963	-0.203362	-0.317907
C30	C	1.060691	-0.203356	-0.317895
C31	C	1.112679	-0.248329	-0.387821
C32	C	1.484921	-0.520758	-0.539274
C33	C	1.479982	-0.598824	-0.544267
C34	C	1.544883	-0.635495	-0.479485
C35	C	1.540245	-0.708846	-0.484187
C36	C	1.470700	-0.745525	-0.553667
C37	C	1.405796	-0.708848	-0.618456
C38	C	1.410440	-0.635499	-0.613759
C39	C	1.453319	-0.966994	-0.571215
C40	C	1.448677	-1.040349	-0.575905
C41	C	1.583128	-1.040341	-0.441637
C42	C	1.587762	-0.966990	-0.436941
C43	C	1.522862	-0.930320	-0.501734
C44	C	1.465955	-0.820501	-0.558473
C45	C	1.527613	-0.855345	-0.496933
C46	C	1.770721	-0.338287	-0.527703
C47	C	1.887498	-0.338291	-0.527711
C48	C	1.496772	-0.338209	-0.801713
C49	C	1.496808	-0.338180	-0.918488
C50	C	1.508531	-0.155086	-0.516072
C51	C	1.513578	-0.077020	-0.511123
C52	C	1.637004	-0.248357	-0.912823
C53	C	1.707117	-0.203435	-0.964851
C54	C	1.707144	-0.203409	-1.074571
C55	C	1.637048	-0.248309	-1.132266
C56	C	1.566935	-0.293231	-1.080238
C57	C	1.566918	-0.293253	-0.970516
C58	C	1.426736	-0.383050	-1.085903
C59	C	1.426712	-0.383080	-0.976183
C60	C	1.356641	-0.427949	-1.143598
C61	C	1.286531	-0.472876	-1.091570
C62	C	1.286507	-0.472900	-0.981843
C63	C	1.356599	-0.428002	-0.924155
C64	C	1.496669	-0.338296	-0.254717
C65	C	1.496849	-0.338128	-0.137931
H66	H	1.190548	-0.428231	-0.667536
H67	H	1.409329	-0.850373	-0.615042
H68	H	1.637068	-0.248278	-1.221605
O69	O	1.662775	-0.927441	-0.361994
H70	H	1.617885	-0.894087	-0.306356
H71	H	1.085824	-0.509823	-0.794417
O72	O	1.231022	-0.248325	-0.387812
H73	H	1.259007	-0.262455	-0.309428
H74	H	1.636998	-0.248380	-0.823484
O75	O	1.210932	-0.521294	-1.153801
H76	H	1.162170	-0.552535	-1.099193
H77	H	1.764186	-0.166877	-0.917864
O78	O	1.340429	-0.595949	-0.683629
H79	H	1.389542	-0.562481	-0.734989
H80	H	1.635967	-1.070206	-0.388888
O81	O	1.356581	-0.428040	-0.805815
H82	H	1.278252	-0.413851	-0.775965
H83	H	0.886752	-0.509836	-0.794448
H84	H	1.107689	-0.166724	-0.260952
O85	O	1.210880	-0.521349	-0.925725
H86	H	1.159457	-0.489911	-0.873745
O87	O	0.763416	-0.428266	-0.667547
H88	H	0.732008	-0.467108	-0.727910
O89	O	1.373673	-1.079914	-0.650855
H90	H	1.329331	-1.042092	-0.695130
H91	H	1.356664	-0.427923	-1.232937
H92	H	0.803891	-0.248344	-0.387869
O93	O	0.894887	-0.154871	-0.242469
H94	H	0.808892	-0.162438	-0.254221
H95	H	1.601510	-0.605636	-0.422902
O96	O	1.782766	-0.154962	-1.130698
H97	H	1.831508	-0.123747	-1.072152
H98	H	1.400473	-0.937143	-0.623970
H99	H	1.593093	-0.738701	-0.431434
H100	H	1.349175	-0.738718	-0.675033
H101	H	1.584241	-0.825479	-0.440366
