data_functionalizedCrystal
_audit_creation_method	'MofGen! by Chris Wilmer'
_symmetry_space_group_name_H-M	'P1'
_symmetry_Int_Tables_number	1
_symmetry_cell_setting	triclinic
loop_
_symmetry_equiv_pos_as_xyz
  x,y,z
_cell_length_a	19.188905
_cell_length_b	27.731996
_cell_length_c	17.666332
_cell_angle_alpha	89.987533
_cell_angle_beta	89.983521
_cell_angle_gamma	82.877971
loop_
_atom_site_label
_atom_site_type_symbol
_atom_site_fract_x
_atom_site_fract_y
_atom_site_fract_z
O1	O	0.925760	0.060292	-0.063083
O2	O	1.425760	0.560292	0.436917
O3	O	0.722392	0.068429	-0.063058
O4	O	1.222392	0.568429	0.436942
O5	O	0.830411	-0.006019	-0.063055
O6	O	1.330411	0.493981	0.436945
O7	O	0.817741	0.134740	-0.063086
O8	O	1.317741	0.634740	0.436914
O9	O	0.830392	-0.006023	0.062842
O10	O	1.330392	0.493977	0.562842
O11	O	0.722373	0.068425	0.062838
O12	O	1.222373	0.568425	0.562838
O13	O	0.925741	0.060288	0.062814
O14	O	1.425741	0.560288	0.562814
Cu15	Cu	0.824055	0.064356	0.074322
Cu16	Cu	1.324055	0.564356	0.574322
Cu17	Cu	0.824078	0.064361	-0.074566
Cu18	Cu	1.324078	0.564361	0.425434
O19	O	0.817722	0.134736	0.062811
O20	O	1.317722	0.634736	0.562811
C21	C	0.696373	0.068165	-0.000106
C22	C	1.196373	0.568165	0.499894
C23	C	0.618873	0.067380	-0.000096
C24	C	1.118873	0.567380	0.499904
C25	C	0.582494	0.067005	-0.068725
C26	C	1.082494	0.567005	0.431275
C27	C	0.509675	0.066262	-0.068734
C28	C	1.009675	0.566262	0.431266
C29	C	0.473240	0.065885	-0.000111
C30	C	0.973240	0.565885	0.499889
C31	C	0.509627	0.066262	0.068526
C32	C	1.009627	0.566262	0.568526
C33	C	0.582444	0.067010	0.068534
C34	C	1.082444	0.567010	0.568534
N35	N	0.364403	0.037201	0.050965
N36	N	0.864403	0.537201	0.550965
N37	N	0.295231	0.036490	0.050953
N38	N	0.795231	0.536490	0.550953
C39	C	0.253848	0.063633	-0.000129
C40	C	0.753848	0.563633	0.499871
N41	N	0.284253	0.091508	-0.051210
N42	N	0.784253	0.591508	0.448790
N43	N	0.353432	0.092218	-0.051201
N44	N	0.853432	0.592218	0.448799
C45	C	0.394283	0.065074	-0.000111
C46	C	0.894283	0.565074	0.499889
C47	C	0.138511	0.062453	-0.068772
C48	C	0.638511	0.562453	0.431228
C49	C	0.065690	0.061713	-0.068778
C50	C	0.565690	0.561713	0.431222
C51	C	0.065645	0.061708	0.068484
C52	C	0.565645	0.561708	0.568484
C53	C	0.138463	0.062453	0.068488
C54	C	0.638463	0.562453	0.568488
C55	C	0.174892	0.062823	-0.000142
C56	C	0.674892	0.562823	0.499858
C57	C	0.830141	-0.024029	-0.000104
C58	C	1.330141	0.475971	0.499896
C59	C	0.829357	-0.077688	-0.000096
C60	C	1.329357	0.422312	0.499904
C61	C	0.824435	-0.410417	-0.068759
C62	C	1.324435	0.089583	0.431241
C63	C	0.821458	-0.612084	-0.068772
C64	C	1.321458	-0.112084	0.431228
O65	O	0.821052	-0.638154	-0.127136
O66	O	1.321052	-0.138154	0.372864
N67	N	0.821078	-0.637305	-0.000146
N68	N	1.321078	-0.137305	0.499854
C69	C	0.821438	-0.612105	0.068488
C70	C	1.321438	-0.112105	0.568488
O71	O	0.821039	-0.638183	0.126858
O72	O	1.321039	-0.138183	0.626858
C73	C	0.824410	-0.410438	0.068500
C74	C	1.324410	0.089562	0.568500
C75	C	0.824797	-0.385221	-0.000130
C76	C	1.324797	0.114779	0.499870
C77	C	0.824822	-0.385200	-0.137383
C78	C	1.324822	0.114800	0.362617
C79	C	0.825570	-0.334786	-0.137380
C80	C	1.325570	0.165214	0.362620
C81	C	0.825931	-0.309590	-0.068751
C82	C	1.325931	0.190410	0.431249
C83	C	0.825545	-0.334807	-0.000126
C84	C	1.325545	0.165193	0.499874
C85	C	0.824765	-0.385238	0.137133
C86	C	1.324765	0.114762	0.637133
C87	C	0.825506	-0.334818	0.137130
C88	C	1.325506	0.165182	0.637130
C89	C	0.825893	-0.309601	0.068500
C90	C	1.325893	0.190399	0.568500
C91	C	0.826655	-0.259198	0.068506
C92	C	1.326655	0.240802	0.568506
N93	N	0.827035	-0.233977	-0.000120
N94	N	1.327035	0.266023	0.499880
C95	C	0.826673	-0.259174	-0.068748
C96	C	1.326673	0.240826	0.431252
C97	C	0.819879	-0.717983	0.068477
C98	C	1.319879	-0.217983	0.568477
C99	C	0.819137	-0.768399	0.068474
C100	C	1.319137	-0.268399	0.568474
C101	C	0.819156	-0.768375	-0.068786
C102	C	1.319156	-0.268375	0.431214
C103	C	0.819903	-0.717958	-0.068783
C104	C	1.319903	-0.217958	0.431217
C105	C	0.820259	-0.692762	-0.000149
C106	C	1.320259	-0.192762	0.499851
C107	C	0.828245	-0.153302	-0.068735
C108	C	1.328245	0.346698	0.431265
C109	C	0.828996	-0.102884	-0.068725
C110	C	1.328996	0.397116	0.431275
C111	C	0.828973	-0.102912	0.068535
C112	C	1.328973	0.397088	0.568535
C113	C	0.828226	-0.153326	0.068525
C114	C	1.328226	0.346674	0.568525
C115	C	0.827859	-0.178519	-0.000116
C116	C	1.327859	0.321481	0.499884
O117	O	0.827054	-0.233096	0.126840
O118	O	1.327054	0.266904	0.626840
O119	O	0.827056	-0.233085	-0.127109
O120	O	1.327056	0.266915	0.372891
C121	C	0.823687	-0.460830	-0.068763
C122	C	1.323687	0.039170	0.431237
C123	C	0.823301	-0.486048	-0.000138
C124	C	1.323301	0.013952	0.499862
C125	C	0.823663	-0.460851	0.068490
C126	C	1.323663	0.039149	0.568490
C127	C	0.822559	-0.536464	-0.000141
C128	C	1.322559	-0.036464	0.499859
C129	C	0.822198	-0.561660	-0.068770
C130	C	1.322198	-0.061660	0.431230
C131	C	0.822578	-0.536440	-0.137395
C132	C	1.322578	-0.036440	0.362605
C133	C	0.823326	-0.486027	-0.137391
C134	C	1.323326	0.013973	0.362609
C135	C	0.823283	-0.486072	0.137116
C136	C	1.323283	0.013928	0.637116
C137	C	0.822536	-0.536485	0.137107
C138	C	1.322536	-0.036485	0.637107
C139	C	0.822174	-0.561682	0.068478
C140	C	1.322174	-0.061682	0.568478
C141	C	0.951760	0.060551	-0.000139
C142	C	1.451760	0.560551	0.499861
C143	C	1.029260	0.061336	-0.000155
C144	C	1.529260	0.561336	0.499845
C145	C	0.817992	0.152746	-0.000142
C146	C	1.317992	0.652746	0.499858
C147	C	0.818776	0.206405	-0.000155
C148	C	1.318776	0.706405	0.499845
N149	N	0.824045	0.064352	0.179041
N150	N	1.324045	0.564352	0.679041
N151	N	0.824094	0.064360	-0.179285
N152	N	1.324094	0.564360	0.320715
C153	C	0.871891	0.031403	0.218652
C154	C	1.371891	0.531403	0.718652
C155	C	0.871895	0.031401	0.297900
C156	C	1.371895	0.531401	0.797900
C157	C	0.824060	0.064356	0.337533
C158	C	1.324060	0.564356	0.837533
C159	C	0.776205	0.097308	0.297912
C160	C	1.276205	0.597308	0.797912
C161	C	0.776197	0.097306	0.218666
C162	C	1.276197	0.597306	0.718666
N163	N	0.814699	0.107148	0.461943
N164	N	1.314699	0.607148	0.961943
N165	N	0.814710	0.107148	0.537223
N166	N	1.314710	0.607148	1.037223
C167	C	0.824078	0.064363	0.576297
C168	C	1.324078	0.564363	1.076297
N169	N	0.833448	0.021576	0.537247
N170	N	1.333448	0.521576	1.037247
N171	N	0.833440	0.021576	0.461959
N172	N	1.333440	0.521576	0.961959
C173	C	0.824062	0.064361	0.423462
C174	C	1.324062	0.564361	0.923462
C175	C	0.871931	0.031408	0.701838
C176	C	1.371931	0.531408	1.201838
C177	C	0.871930	0.031405	0.781087
C178	C	1.371930	0.531405	1.281087
C179	C	0.776243	0.097317	0.781098
C180	C	1.276243	0.597317	1.281098
C181	C	0.776241	0.097315	0.701850
C182	C	1.276241	0.597315	1.201850
C183	C	0.824088	0.064362	0.662225
C184	C	1.324088	0.564362	1.162225
H185	H	0.829312	-0.082355	-0.124614
H186	H	1.329312	0.417645	0.375386
C187	C	0.818718	-0.796133	0.143967
C188	C	1.318718	-0.296133	0.643967
H189	H	0.819032	-0.773901	0.184836
H190	H	1.319032	-0.273901	0.684836
H191	H	0.859158	-0.819579	0.146821
H192	H	1.359158	-0.319579	0.646821
H193	H	0.777689	-0.812022	0.146823
H194	H	1.277689	-0.312022	0.646823
C195	C	0.924560	-0.004842	0.824663
C196	C	1.424560	0.495158	1.324663
H197	H	0.917706	-0.000127	0.877535
H198	H	1.417706	0.499873	1.377535
H199	H	0.971096	0.000326	0.811658
H200	H	1.471096	0.500326	1.311658
H201	H	0.917333	-0.037092	0.811688
H202	H	1.417333	0.462908	1.311688
H203	H	0.910858	0.004568	0.330157
H204	H	1.410858	0.504568	0.830157
H205	H	0.824451	-0.405762	0.193019
H206	H	1.324451	0.094238	0.693019
H207	H	0.827943	-0.173808	-0.124629
H208	H	1.327943	0.326192	0.375371
H209	H	0.036071	0.061411	-0.124666
H210	H	0.536071	0.561411	0.375334
C211	C	0.178487	0.062859	0.143978
C212	C	0.678487	0.562859	0.643978
H213	H	0.227071	0.063362	0.134155
H214	H	0.727071	0.563362	0.634155
H215	H	0.172187	0.034554	0.172182
H216	H	0.672187	0.534554	0.672182
H217	H	0.160900	0.090922	0.172168
H218	H	0.660900	0.590922	0.672168
C219	C	0.469556	0.065847	0.144011
C220	C	0.969556	0.565847	0.644011
H221	H	0.501653	0.066181	0.184887
H222	H	1.001653	0.566181	0.684887
H223	H	0.446793	0.037373	0.146870
H224	H	0.946793	0.537373	0.646870
H225	H	0.435505	0.093741	0.146853
H226	H	0.935505	0.593741	0.646853
H227	H	0.825785	-0.314306	0.193021
H228	H	1.325785	0.185694	0.693021
C229	C	0.469647	0.065847	-0.144226
C230	C	0.969647	0.565847	0.355774
H231	H	0.421062	0.065351	-0.134399
H232	H	0.921062	0.565351	0.365601
H233	H	0.487234	0.037787	-0.172414
H234	H	0.987234	0.537787	0.327586
H235	H	0.475943	0.094155	-0.172433
H236	H	0.975943	0.594155	0.327567
H237	H	0.737292	0.124148	0.813367
H238	H	1.237292	0.624148	1.313367
C239	C	0.622464	0.067415	0.144028
C240	C	1.122464	0.567415	0.644028
H241	H	0.590339	0.067080	0.184898
H242	H	1.090339	0.567080	0.684898
H243	H	0.645231	0.095886	0.146882
H244	H	1.145231	0.595886	0.646882
H245	H	0.656508	0.039517	0.146884
H246	H	1.156508	0.539517	0.646884
H247	H	0.824524	-0.405709	-0.193272
H248	H	1.324524	0.094291	0.306728
H249	H	0.737283	0.124148	0.669597
H250	H	1.237283	0.624148	1.169597
H251	H	0.612150	0.067307	-0.124609
H252	H	1.112150	0.567307	0.375391
H253	H	0.168172	0.062760	-0.124654
H254	H	0.668172	0.562760	0.375346
H255	H	0.737255	0.124140	0.330186
H256	H	1.237255	0.624140	0.830186
C257	C	0.822189	-0.564161	-0.212887
C258	C	1.322189	-0.064161	0.287113
H259	H	0.822532	-0.541926	-0.253763
H260	H	1.322532	-0.041926	0.246237
H261	H	0.781171	-0.580053	-0.215738
H262	H	1.281171	-0.080053	0.284262
H263	H	0.862639	-0.587604	-0.215734
H264	H	1.362639	-0.087604	0.284266
C265	C	0.823744	-0.458293	-0.212885
C266	C	1.323744	0.041707	0.287115
H267	H	0.823415	-0.480525	-0.253752
H268	H	1.323415	0.019475	0.246248
H269	H	0.864765	-0.442402	-0.215750
H270	H	1.364765	0.057598	0.284250
H271	H	0.783296	-0.434850	-0.215735
H272	H	1.283296	0.065150	0.284265
C273	C	0.025544	0.061453	0.143968
C274	C	0.525544	0.561453	0.643968
H275	H	-0.023043	0.061000	0.134135
H276	H	0.476957	0.561000	0.634135
H277	H	0.031901	0.089805	0.172002
H278	H	0.531901	0.589805	0.672002
H279	H	0.043016	0.033436	0.172331
H280	H	0.543016	0.533436	0.672331
C281	C	0.822108	-0.564219	0.212605
C282	C	1.322108	-0.064219	0.712605
H283	H	0.822423	-0.541987	0.253474
H284	H	1.322423	-0.041987	0.753474
H285	H	0.862544	-0.587667	0.215463
H286	H	1.362544	-0.087667	0.715463
H287	H	0.781076	-0.580103	0.215458
H288	H	1.281076	-0.080103	0.715458
H289	H	0.825882	-0.314259	-0.193265
H290	H	1.325882	0.185741	0.306735
C291	C	0.820322	-0.690223	-0.144275
C292	C	1.320322	-0.190223	0.355725
H293	H	0.819997	-0.712454	-0.185144
H294	H	1.319997	-0.212454	0.314856
H295	H	0.861342	-0.674330	-0.147136
H296	H	1.361342	-0.174330	0.352864
H297	H	0.779873	-0.666781	-0.147125
H298	H	1.279873	-0.166781	0.352875
C299	C	0.818752	-0.796096	-0.144276
C300	C	1.318752	-0.296096	0.355724
H301	H	0.818249	-0.829733	-0.134442
H302	H	1.318249	-0.329733	0.365558
H303	H	0.859605	-0.791610	-0.172489
H304	H	1.359605	-0.291610	0.327511
H305	H	0.778136	-0.784053	-0.172461
H306	H	1.278136	-0.284053	0.327539
C307	C	0.924537	-0.004832	0.175065
C308	C	1.424537	0.495168	0.675065
H309	H	0.917691	-0.000108	0.122195
H310	H	1.417691	0.499892	0.622195
H311	H	0.917341	-0.037086	0.188057
H312	H	1.417341	0.462914	0.688057
H313	H	0.971068	0.000356	0.188044
H314	H	1.471068	0.500356	0.688044
C315	C	0.820280	-0.690274	0.143978
C316	C	1.320280	-0.190274	0.643978
H317	H	0.819955	-0.712520	0.184843
H318	H	1.319955	-0.212520	0.684843
H319	H	0.779840	-0.666829	0.146848
H320	H	1.279840	-0.166829	0.646848
H321	H	0.861308	-0.674387	0.146828
H322	H	1.361308	-0.174387	0.646828
C323	C	0.823688	-0.458363	0.212612
C324	C	1.323688	0.041637	0.712612
H325	H	0.823360	-0.480609	0.253477
H326	H	1.323360	0.019391	0.753477
H327	H	0.783251	-0.434916	0.215482
H328	H	1.283251	0.065084	0.715482
H329	H	0.864719	-0.442479	0.215460
H330	H	1.364719	0.057521	0.715460
C331	C	0.827802	-0.181066	0.144016
C332	C	1.327802	0.318934	0.644016
H333	H	0.828121	-0.158837	0.184888
H334	H	1.328121	0.341163	0.684888
H335	H	0.868237	-0.204516	0.146868
H336	H	1.368237	0.295484	0.646868
H337	H	0.786769	-0.196949	0.146868
H338	H	1.286769	0.303051	0.646868
C339	C	0.723569	0.133556	0.175092
C340	C	1.223569	0.633556	0.675092
H341	H	0.695082	0.153185	0.210043
H342	H	1.195082	0.653185	0.710043
H343	H	0.694699	0.116219	0.144193
H344	H	1.194699	0.616219	0.644193
H345	H	0.748465	0.153635	0.144164
H346	H	1.248465	0.653635	0.644164
H347	H	0.910890	0.004574	0.669574
H348	H	1.410890	0.504574	1.169574
C349	C	0.829367	-0.075190	0.144020
C350	C	1.329367	0.424810	0.644020
H351	H	0.829859	-0.041552	0.134187
H352	H	1.329859	0.458448	0.634187
H353	H	0.869968	-0.087230	0.172222
H354	H	1.369968	0.412770	0.672222
H355	H	0.788500	-0.079677	0.172216
H356	H	1.288500	0.420323	0.672216
