data_functionalizedCrystal
_audit_creation_method	'MofGen! by Chris Wilmer'
_symmetry_space_group_name_H-M	'P1'
_symmetry_Int_Tables_number	1
_symmetry_cell_setting	triclinic
loop_
_symmetry_equiv_pos_as_xyz
  x,y,z
_cell_length_a	6.817900
_cell_length_b	15.185442
_cell_length_c	10.992410
_cell_angle_alpha	93.520405
_cell_angle_beta	108.764651
_cell_angle_gamma	104.264065
loop_
_atom_site_label
_atom_site_type_symbol
_atom_site_fract_x
_atom_site_fract_y
_atom_site_fract_z
V1	V	-4.091276	-0.125757	-0.400980
O2	O	-4.073480	0.006043	-0.392949
O3	O	-4.046278	-0.249355	-0.398620
O4	O	-4.069222	-0.123822	-0.575686
O5	O	-4.050377	-0.120358	-0.214657
V6	V	-4.571050	-0.109992	-0.378647
O7	O	-4.360760	-0.160338	-0.449967
O8	O	-4.751764	-0.075411	-0.329660
O9	O	-4.392842	0.013606	-0.381007
O10	O	-4.706243	-0.241792	-0.386678
O11	O	-4.729346	-0.115391	-0.564970
O12	O	-4.369898	-0.111926	-0.203941
C13	C	-3.891254	-0.279485	-0.392393
C14	C	-3.935924	-0.380528	-0.391628
C15	C	-3.920520	-0.119355	-0.618257
C16	C	-3.983794	-0.118591	-0.761083
C17	C	-3.941556	-0.803129	-0.381939
C18	C	-4.308022	-0.812381	-0.394792
C19	C	-4.266058	-0.717446	-0.395519
C20	C	-4.061838	-0.665349	-0.389454
C21	C	-3.899581	-0.708186	-0.382663
C22	C	-4.428302	-0.674601	-0.402297
C23	C	-4.386343	-0.579661	-0.403024
C24	C	-4.182124	-0.527563	-0.396968
C25	C	-4.019863	-0.570406	-0.390178
C26	C	-3.815642	-0.518308	-0.384113
C27	C	-3.653383	-0.561150	-0.377332
C28	C	-3.695362	-0.656087	-0.376607
C29	C	-4.140145	-0.432626	-0.397692
C30	C	-3.773667	-0.423365	-0.384836
C31	C	-3.852188	-0.111632	-0.956185
C32	C	-3.786424	-0.112803	-0.807705
C33	C	-4.165439	-0.208211	-0.838463
C34	C	-4.229897	-0.207419	-0.987027
C35	C	-4.139363	-0.033882	-0.948461
C36	C	-4.068731	-0.033457	-0.799447
C37	C	-4.211208	0.043732	-0.387231
C38	C	-4.145776	0.144773	-0.388004
C39	C	-4.181941	-0.116397	-0.161363
C40	C	-4.097905	-0.117156	-0.018536
H41	H	-3.607374	-0.380954	-0.379906
Br42	Br	-4.360332	-0.374486	-0.406893
Br43	Br	-4.585151	-0.883080	-0.402991
H44	H	-3.718162	-0.173467	-0.783077
H45	H	-4.108131	-0.271420	-0.813051
Br46	Br	-4.705424	-0.745303	-0.410486
Br47	Br	-3.558549	-0.005415	-0.718465
H48	H	-4.211037	-0.032405	-0.766932
Br49	Br	-3.376219	-0.490433	-0.369078
H50	H	-4.518470	-0.544788	-0.408548
H51	H	-3.746837	-0.046749	-0.974815
H52	H	-4.048880	0.034173	-0.968611
Br53	Br	-3.850148	0.077046	-0.711855
H54	H	-4.410476	-0.215212	-1.029682
H55	H	-3.563263	-0.690978	-0.371084
Br56	Br	-4.436684	-0.039307	-1.016549
H57	H	-4.314450	-0.215683	-0.809682
Br58	Br	-3.721361	-0.861268	-0.372748
Br59	Br	-4.184771	-0.312512	-1.064478
H60	H	-3.816321	-0.171465	-1.004361
