data_functionalizedCrystal
_audit_creation_method	'MofGen! by Chris Wilmer'
_symmetry_space_group_name_H-M	'P1'
_symmetry_Int_Tables_number	1
_symmetry_cell_setting	triclinic
loop_
_symmetry_equiv_pos_as_xyz
  x,y,z
_cell_length_a	16.625548
_cell_length_b	29.839131
_cell_length_c	29.839125
_cell_angle_alpha	89.982291
_cell_angle_beta	89.987766
_cell_angle_gamma	90.042488
loop_
_atom_site_label
_atom_site_type_symbol
_atom_site_fract_x
_atom_site_fract_y
_atom_site_fract_z
Zn1	Zn	1.232508	-0.178904	-0.254008
Zn2	Zn	1.732508	0.321096	0.245992
Zn3	Zn	1.232386	-0.254016	-0.178878
Zn4	Zn	1.732386	0.245984	0.321122
Zn5	Zn	1.097689	-0.178902	-0.178891
Zn6	Zn	1.597689	0.321098	0.321109
Zn7	Zn	1.097596	-0.254009	-0.253979
Zn8	Zn	1.597596	0.245991	0.246021
O9	O	1.165045	-0.216457	-0.216439
O10	O	1.665045	0.283543	0.283561
O11	O	1.345324	-0.188871	-0.244049
O12	O	1.845324	0.311129	0.255951
O13	O	1.214507	-0.244054	-0.116013
O14	O	1.714507	0.255946	0.383987
O15	O	1.115663	-0.116035	-0.188872
O16	O	1.615663	0.383965	0.311128
O17	O	1.345235	-0.244055	-0.188851
O18	O	1.845235	0.255945	0.311149
O19	O	1.214714	-0.116036	-0.244061
O20	O	1.714714	0.383964	0.255939
O21	O	1.115545	-0.188868	-0.116022
O22	O	1.615545	0.311132	0.383978
O23	O	0.984845	-0.188861	-0.188844
O24	O	1.484845	0.311139	0.311156
O25	O	1.115504	-0.244044	-0.316850
O26	O	1.615504	0.255956	0.183150
O27	O	0.984776	-0.244042	-0.244012
O28	O	1.484776	0.255958	0.255988
O29	O	1.214623	-0.188864	-0.316872
O30	O	1.714623	0.311136	0.183128
O31	O	1.214416	-0.316882	-0.188823
O32	O	1.714416	0.183118	0.311177
O33	O	1.115386	-0.316877	-0.244000
O34	O	1.615386	0.183123	0.256000
C35	C	0.955554	-0.216451	-0.216427
C36	C	1.455554	0.283549	0.283573
C37	C	0.865933	-0.216459	-0.216432
C38	C	1.365933	0.283541	0.283568
C39	C	0.537757	-0.216462	-0.216451
C40	C	1.037757	0.283538	0.283549
C41	C	0.629066	-0.216460	-0.216444
C42	C	1.129066	0.283540	0.283556
C43	C	0.701842	-0.216461	-0.216441
C44	C	1.201842	0.283539	0.283559
C45	C	0.793156	-0.216458	-0.216435
C46	C	1.293156	0.283542	0.283565
C47	C	1.164899	-0.333180	-0.216417
C48	C	1.664899	0.166820	0.283583
C49	C	1.164911	-0.383114	-0.216422
C50	C	1.664911	0.116886	0.283578
C51	C	1.216703	-0.692748	-0.187751
C52	C	1.716703	-0.192748	0.312249
C53	C	1.216803	-0.880421	-0.187768
C54	C	1.716803	-0.380421	0.312232
O55	O	1.260724	-0.904677	-0.163373
O56	O	1.760724	-0.404677	0.336627
N57	N	1.165212	-0.903899	-0.216473
N58	N	1.665212	-0.403899	0.283527
C59	C	1.113596	-0.880457	-0.245178
C60	C	1.613596	-0.380457	0.254822
O61	O	1.069723	-0.904733	-0.269597
O62	O	1.569723	-0.404733	0.230403
C63	C	1.113501	-0.692785	-0.245162
C64	C	1.613501	-0.192785	0.254838
C65	C	1.165090	-0.669309	-0.216452
C66	C	1.665090	-0.169309	0.283548
C67	C	1.268288	-0.669272	-0.159043
C68	C	1.768288	-0.169272	0.340957
C69	C	1.268260	-0.622356	-0.159038
C70	C	1.768260	-0.122356	0.340962
C71	C	1.216646	-0.598917	-0.187739
C72	C	1.716646	-0.098917	0.312261
C73	C	1.165061	-0.622393	-0.216446
C74	C	1.665061	-0.122393	0.283554
C75	C	1.061890	-0.669343	-0.273869
C76	C	1.561890	-0.169343	0.226131
C77	C	1.061872	-0.622422	-0.273863
C78	C	1.561872	-0.122422	0.226137
C79	C	1.113461	-0.598946	-0.245153
C80	C	1.613461	-0.098946	0.254847
C81	C	1.113419	-0.552038	-0.245142
C82	C	1.613419	-0.052038	0.254858
N83	N	1.165010	-0.528560	-0.216437
N84	N	1.665010	-0.028560	0.283563
C85	C	1.216624	-0.551999	-0.187736
C86	C	1.716624	-0.051999	0.312264
C87	C	1.113648	-0.978987	-0.245183
C88	C	1.613648	-0.478987	0.254817
C89	C	1.113671	-1.025905	-0.245186
C90	C	1.613671	-0.525905	0.254814
C91	C	1.216879	-1.025866	-0.187777
C92	C	1.716879	-0.525866	0.312223
C93	C	1.216852	-0.978947	-0.187772
C94	C	1.716852	-0.478947	0.312228
C95	C	1.165239	-0.955509	-0.216478
C96	C	1.665239	-0.455509	0.283522
C97	C	1.216560	-0.453473	-0.187725
C98	C	1.716560	0.046527	0.312275
C99	C	1.216524	-0.406554	-0.187721
C100	C	1.716524	0.093446	0.312279
C101	C	1.113319	-0.406597	-0.245131
C102	C	1.613319	0.093403	0.254869
C103	C	1.113351	-0.453513	-0.245134
C104	C	1.613351	0.046487	0.254866
C105	C	1.164978	-0.476949	-0.216430
C106	C	1.664978	0.023051	0.283570
O107	O	1.069528	-0.527753	-0.269528
O108	O	1.569528	-0.027753	0.230472
O109	O	1.260503	-0.527715	-0.163327
O110	O	1.760503	-0.027715	0.336673
C111	C	1.216732	-0.739663	-0.187756
C112	C	1.716732	-0.239663	0.312244
C113	C	1.165147	-0.763139	-0.216464
C114	C	1.665147	-0.263139	0.283536
C115	C	1.113533	-0.739700	-0.245165
C116	C	1.613533	-0.239700	0.254835
C117	C	1.165169	-0.810057	-0.216467
C118	C	1.665169	-0.310057	0.283533
C119	C	1.216783	-0.833496	-0.187766
C120	C	1.716783	-0.333496	0.312234
C121	C	1.268374	-0.810018	-0.159061
C122	C	1.768374	-0.310018	0.340939
C123	C	1.268345	-0.763102	-0.159055
C124	C	1.768345	-0.263102	0.340945
C125	C	1.061942	-0.763179	-0.273870
C126	C	1.561942	-0.263179	0.226130
C127	C	1.061974	-0.810094	-0.273873
C128	C	1.561974	-0.310094	0.226127
C129	C	1.113588	-0.833534	-0.245172
C130	C	1.613588	-0.333534	0.254828
C131	C	1.375354	-0.216464	-0.216452
C132	C	1.875354	0.283536	0.283548
C133	C	1.464975	-0.216467	-0.216457
C134	C	1.964975	0.283533	0.283543
C135	C	1.165067	-0.216453	-0.333617
C136	C	1.665067	0.283547	0.166383
C137	C	1.165076	-0.216452	-0.383552
C138	C	1.665076	0.283548	0.116448
C139	C	1.165213	-0.099279	-0.216471
C140	C	1.665213	0.400721	0.283529
C141	C	1.165284	-0.049345	-0.216485
C142	C	1.665284	0.450655	0.283515
C143	C	1.216742	-0.187644	-0.693209
C144	C	1.716742	0.312356	-0.193209
C145	C	1.216782	-0.187606	-0.880883
C146	C	1.716782	0.312394	-0.380883
O147	O	1.260650	-0.163156	-0.905159
O148	O	1.760650	0.336844	-0.405159
N149	N	1.165183	-0.216331	-0.904337
N150	N	1.665183	0.283669	-0.404337
C151	C	1.113566	-0.245066	-0.880871
C152	C	1.613566	0.254934	-0.380871
O153	O	1.069674	-0.269494	-0.905126
O154	O	1.569674	0.230506	-0.405126
C155	C	1.113523	-0.245102	-0.693198
C156	C	1.613523	0.254898	-0.193198
C157	C	1.165131	-0.216378	-0.669746
C158	C	1.665131	0.283622	-0.169746
C159	C	1.268345	-0.158923	-0.669757
C160	C	1.768345	0.341077	-0.169757
C161	C	1.268337	-0.158934	-0.622842
C162	C	1.768337	0.341066	-0.122842
C163	C	1.216727	-0.187668	-0.599379
C164	C	1.716727	0.312332	-0.099379
C165	C	1.165124	-0.216389	-0.622831
C166	C	1.665124	0.283611	-0.122831
C167	C	1.061903	-0.273834	-0.669733
C168	C	1.561903	0.226166	-0.169733
C169	C	1.061896	-0.273839	-0.622812
C170	C	1.561896	0.226161	-0.122812
C171	C	1.113504	-0.245116	-0.599359
C172	C	1.613504	0.254884	-0.099359
C173	C	1.113506	-0.245134	-0.552452
C174	C	1.613506	0.254866	-0.052452
N175	N	1.165104	-0.216409	-0.528997
N176	N	1.665104	0.283591	-0.028997
C177	C	1.216715	-0.187676	-0.552461
C178	C	1.716715	0.312324	-0.052461
C179	C	1.113594	-0.245046	-0.979401
C180	C	1.613594	0.254954	-0.479401
C181	C	1.113606	-0.245038	-1.026319
C182	C	1.613606	0.254962	-0.526319
C183	C	1.216820	-0.187577	-1.026328
C184	C	1.716820	0.312423	-0.526328
C185	C	1.216812	-0.187588	-0.979409
C186	C	1.716812	0.312412	-0.479409
C187	C	1.165193	-0.216321	-0.955947
C188	C	1.665193	0.283679	-0.455947
C189	C	1.216696	-0.187703	-0.453935
C190	C	1.716696	0.312297	0.046065
C191	C	1.216686	-0.187718	-0.407015
C192	C	1.716686	0.312282	0.092985
C193	C	1.113469	-0.245177	-0.407011
C194	C	1.613469	0.254823	0.092989
C195	C	1.113482	-0.245163	-0.453926
C196	C	1.613482	0.254837	0.046074
C197	C	1.165098	-0.216423	-0.477387
C198	C	1.665098	0.283577	0.022613
O199	O	1.069654	-0.269568	-0.528146
O200	O	1.569654	0.230432	-0.028146
O201	O	1.260589	-0.163244	-0.528197
O202	O	1.760589	0.336756	-0.028197
C203	C	1.216749	-0.187633	-0.740125
C204	C	1.716749	0.312367	-0.240125
C205	C	1.165146	-0.216355	-0.763577
C206	C	1.665146	0.283645	-0.263577
C207	C	1.113535	-0.245088	-0.740114
C208	C	1.613535	0.254912	-0.240114
C209	C	1.165158	-0.216346	-0.810495
C210	C	1.665158	0.283654	-0.310495
C211	C	1.216768	-0.187613	-0.833958
C212	C	1.716768	0.312387	-0.333958
C213	C	1.268367	-0.158888	-0.810504
C214	C	1.768367	0.341112	-0.310504
C215	C	1.268360	-0.158899	-0.763588
C216	C	1.768360	0.341101	-0.263588
C217	C	1.061936	-0.273813	-0.763568
C218	C	1.561936	0.226187	-0.263568
C219	C	1.061949	-0.273800	-0.810484
C220	C	1.561949	0.226200	-0.310484
C221	C	1.113559	-0.245066	-0.833947
C222	C	1.613559	0.254934	-0.333947
C223	C	1.165069	-0.216429	-0.099717
C224	C	1.665069	0.283571	0.400283
C225	C	1.165216	-0.216304	-0.049782
C226	C	1.665216	0.283696	0.450218
H227	H	1.258534	-0.387441	-0.164340
H228	H	1.758534	0.112559	0.335660
C229	C	1.273593	-0.155972	-1.052143
C230	C	1.773593	0.344028	-0.552143
H231	H	1.266201	-0.160082	-1.083444
H232	H	1.766201	0.339918	-0.583444
H233	H	1.327758	-0.162547	-1.044457
H234	H	1.827758	0.337453	-0.544457
H235	H	1.261827	-0.125786	-1.044461
H236	H	1.761827	0.374214	-0.544461
H237	H	1.019877	-0.688449	-0.297245
H238	H	1.519877	-0.188449	0.202755
H239	H	1.258601	-0.472550	-0.164352
H240	H	1.758601	0.027450	0.335648
H241	H	1.310397	-0.829110	-0.135690
H242	H	1.810397	-0.329110	0.364310
H243	H	1.258860	-0.959836	-0.164394
H244	H	1.758860	-0.459836	0.335606
C245	C	1.325064	-0.695048	-0.127466
C246	C	1.825064	-0.195048	0.372534
H247	H	1.355773	-0.674340	-0.110369
H248	H	1.855773	-0.174340	0.389631
H249	H	1.360190	-0.713326	-0.144664
H250	H	1.860190	-0.213326	0.355336
H251	H	1.294247	-0.713372	-0.107874
H252	H	1.794247	-0.213372	0.392126
H253	H	1.258724	-0.164298	-0.473031
H254	H	1.758724	0.335702	0.026969
H255	H	1.071560	-0.268446	-0.960302
H256	H	1.571560	0.231554	-0.460302
C257	C	1.005157	-0.737402	-0.305440
C258	C	1.505157	-0.237402	0.194560
H259	H	0.974435	-0.758108	-0.322531
H260	H	1.474435	-0.258108	0.177469
H261	H	1.035954	-0.719070	-0.325031
H262	H	1.535954	-0.219070	0.174969
H263	H	0.970032	-0.719131	-0.288229
H264	H	1.470032	-0.219131	0.211771
H265	H	1.019878	-0.297224	-0.688819
H266	H	1.519878	0.202776	-0.188819
C267	C	1.273650	-1.051655	-0.156205
C268	C	1.773650	-0.551655	0.343795
H269	H	1.266273	-1.082959	-0.160323
H270	H	1.766273	-0.582959	0.339677
H271	H	1.261890	-1.043986	-0.126013
H272	H	1.761890	-0.543986	0.373987
H273	H	1.327818	-1.043936	-0.162811
H274	H	1.827818	-0.543936	0.337189
C275	C	1.005133	-0.305457	-0.597006
C276	C	1.505133	0.194543	-0.097006
H277	H	0.974412	-0.322566	-0.617695
H278	H	1.474412	0.177434	-0.117695
H279	H	0.970017	-0.288285	-0.578696
H280	H	1.470017	0.211715	-0.078696
H281	H	1.035965	-0.325038	-0.578710
H282	H	1.535965	0.174962	-0.078710
C283	C	1.005224	-0.835913	-0.305457
C284	C	1.505224	-0.335913	0.194543
H285	H	0.974490	-0.815230	-0.322552
H286	H	1.474490	-0.315230	0.177448
H287	H	0.970121	-0.854247	-0.288262
H288	H	1.470121	-0.354247	0.211738
H289	H	1.036064	-0.854185	-0.325052
H290	H	1.536064	-0.354185	0.174948
C291	C	1.056843	-0.276637	-1.052112
C292	C	1.556843	0.223363	-0.552112
H293	H	1.026101	-0.293746	-1.031414
H294	H	1.526101	0.206254	-0.531414
H295	H	1.087656	-0.296211	-1.070414
H296	H	1.587656	0.203789	-0.570414
H297	H	1.021735	-0.259444	-1.070413
H298	H	1.521735	0.240556	-0.570413
H299	H	1.258834	-0.164198	-0.960317
H300	H	1.758834	0.335802	-0.460317
H301	H	1.258715	-0.164327	-0.387923
H302	H	1.758715	0.335673	0.112077
H303	H	1.071466	-0.268557	-0.473022
H304	H	1.571466	0.231443	0.026978
H305	H	1.310373	-0.135522	-0.688856
H306	H	1.810373	0.364478	-0.188856
H307	H	1.071452	-0.268572	-0.387898
H308	H	1.571452	0.231428	0.112102
H309	H	1.310270	-0.603244	-0.135661
H310	H	1.810270	-0.103244	0.364339
C311	C	1.325122	-0.127299	-0.737797
C312	C	1.825122	0.372701	-0.237797
H313	H	1.355851	-0.110185	-0.758496
H314	H	1.855851	0.389815	-0.258496
H315	H	1.360231	-0.144485	-0.719493
H316	H	1.860231	0.355515	-0.219493
H317	H	1.294298	-0.107724	-0.719497
H318	H	1.794298	0.392276	-0.219497
C319	C	1.325099	-0.127333	-0.597050
C320	C	1.825099	0.372667	-0.097050
H321	H	1.355827	-0.110219	-0.617749
H322	H	1.855827	0.389781	-0.117749
H323	H	1.360208	-0.144518	-0.578746
H324	H	1.860208	0.355482	-0.078746
H325	H	1.294274	-0.107758	-0.578750
H326	H	1.794274	0.392242	-0.078750
H327	H	1.019924	-0.297194	-0.829575
H328	H	1.519924	0.202806	-0.329575
H329	H	1.310393	-0.135494	-0.829616
H330	H	1.810393	0.364506	-0.329616
C331	C	1.056920	-1.051726	-0.276764
C332	C	1.556920	-0.551726	0.223236
H333	H	1.064317	-1.083027	-0.272656
H334	H	1.564317	-0.583027	0.227344
H335	H	1.068680	-1.044016	-0.306953
H336	H	1.568680	-0.544016	0.193047
H337	H	1.002747	-1.044069	-0.270158
H338	H	1.502747	-0.544069	0.229842
C339	C	1.056862	-0.953211	-0.276757
C340	C	1.556862	-0.453211	0.223243
H341	H	1.026138	-0.973917	-0.293847
H342	H	1.526138	-0.473917	0.206153
H343	H	1.087661	-0.934882	-0.296350
H344	H	1.587661	-0.434882	0.203650
H345	H	1.021739	-0.934937	-0.259548
H346	H	1.521739	-0.434937	0.240452
C347	C	1.005098	-0.596642	-0.305441
C348	C	1.505098	-0.096642	0.194559
H349	H	0.974377	-0.617346	-0.322536
H350	H	1.474377	-0.117346	0.177464
H351	H	1.035907	-0.578313	-0.325028
H352	H	1.535907	-0.078313	0.174972
H353	H	0.969969	-0.578368	-0.288236
H354	H	1.469969	-0.078368	0.211764
H355	H	1.019909	-0.297213	-0.744469
H356	H	1.519909	0.202787	-0.244469
H357	H	1.071346	-0.472628	-0.268514
H358	H	1.571346	0.027372	0.231486
C359	C	1.056553	-0.380808	-0.276703
C360	C	1.556553	0.119192	0.223297
H361	H	1.063936	-0.349504	-0.272589
H362	H	1.563936	0.150496	0.227411
H363	H	1.002386	-0.388528	-0.270106
H364	H	1.502386	0.111472	0.229894
H365	H	1.068331	-0.388477	-0.306896
H366	H	1.568331	0.111523	0.193104
H367	H	1.310354	-0.743991	-0.135677
H368	H	1.810354	-0.243991	0.364323
