data_functionalizedCrystal
_audit_creation_method	'MofGen! by Chris Wilmer'
_symmetry_space_group_name_H-M	'P1'
_symmetry_Int_Tables_number	1
_symmetry_cell_setting	triclinic
loop_
_symmetry_equiv_pos_as_xyz
  x,y,z
_cell_length_a	11.026607
_cell_length_b	11.026607
_cell_length_c	9.482900
_cell_angle_alpha	78.613859
_cell_angle_beta	78.618164
_cell_angle_gamma	71.413983
loop_
_atom_site_label
_atom_site_type_symbol
_atom_site_fract_x
_atom_site_fract_y
_atom_site_fract_z
O1	O	1.711168	-0.549184	0.120893
O2	O	1.344588	-0.488420	0.120896
O3	O	1.497497	-0.335511	0.120889
O4	O	1.558259	-0.702093	0.120899
O5	O	1.528610	-0.304381	-0.120904
O6	O	1.375701	-0.457290	-0.120898
O7	O	1.742281	-0.518053	-0.120901
Cu8	Cu	1.561832	-0.484829	-0.142977
Cu9	Cu	1.525037	-0.521644	0.142972
O10	O	1.589372	-0.670962	-0.120894
C11	C	1.312485	-0.461645	-0.000001
C12	C	1.170471	-0.428228	-0.000000
C13	C	1.501843	-0.272287	-0.000006
C14	C	1.468426	-0.130273	-0.000000
N15	N	1.587720	-0.458936	-0.344098
C16	C	1.116821	-0.520498	0.000003
C17	C	0.970042	-0.485963	0.000004
C18	C	1.774384	-0.544828	-0.000001
C19	C	1.916397	-0.578246	0.000008
C20	C	1.585025	-0.734187	0.000004
C21	C	1.618442	-0.876202	0.000008
C22	C	1.560695	-0.076624	0.000001
C23	C	1.526159	0.070154	0.000007
N24	N	1.499157	-0.547529	0.344093
C25	C	1.554207	-0.492474	0.416290
C26	C	1.532662	-0.513999	0.583709
H27	H	1.179555	-0.625061	-0.000002
H28	H	1.363862	-0.067541	0.000010
C29	C	1.639427	-0.407265	0.332357
N30	N	1.703614	-0.343082	0.269140
H31	H	1.469583	-0.577080	0.645836
H32	H	1.650810	-0.395867	0.593775
H33	H	0.907309	-0.381398	0.000039
H34	H	1.436082	-0.610606	0.406226
H35	H	1.107733	-0.323670	0.000034
C36	C	1.001133	-0.719518	0.000013
N37	N	1.064958	-0.825923	0.000020
H38	H	1.665259	-0.139356	-0.000009
H39	H	1.722998	0.061057	0.000117
H40	H	1.421588	0.132881	0.000017
