data_functionalizedCrystal
_audit_creation_method	'MofGen! by Chris Wilmer'
_symmetry_space_group_name_H-M	'P1'
_symmetry_Int_Tables_number	1
_symmetry_cell_setting	triclinic
loop_
_symmetry_equiv_pos_as_xyz
  x,y,z
_cell_length_a	14.560438
_cell_length_b	14.560438
_cell_length_c	14.560438
_cell_angle_alpha	89.999999
_cell_angle_beta	59.999378
_cell_angle_gamma	60.000905
loop_
_atom_site_label
_atom_site_type_symbol
_atom_site_fract_x
_atom_site_fract_y
_atom_site_fract_z
Zr1	Zr	1.005281	-0.120524	0.884757
O2	O	1.196883	-0.267167	0.738107
O3	O	0.813680	-0.075573	0.929713
O4	O	1.005284	-0.267174	0.929708
O5	O	1.005277	0.075575	0.738115
O6	O	1.005284	-0.267177	1.080848
O7	O	1.005280	-0.075566	0.738111
O8	O	0.662540	0.075562	1.080856
O9	O	1.348021	-0.267164	0.738107
O10	O	0.892488	-0.056401	1.061680
O11	O	0.892486	0.056396	0.948889
O12	O	1.118075	-0.169189	0.948884
O13	O	1.118072	-0.056393	0.836093
Zr14	Zr	1.005278	0.120523	1.125813
Zr15	Zr	1.005282	-0.120529	1.125807
Zr16	Zr	1.005277	0.120528	0.884763
Zr17	Zr	1.246329	-0.120520	0.884757
Zr18	Zr	0.764230	0.120519	1.125812
O19	O	1.196879	0.075572	1.080857
O20	O	1.196885	-0.267173	1.080848
O21	O	1.196878	0.075579	0.738115
O22	O	0.813676	0.267165	1.272463
O23	O	0.813681	-0.075580	1.272454
O24	O	0.813674	0.267172	0.929722
O25	O	1.005282	-0.075576	1.272455
O26	O	1.005275	0.267173	1.080861
O27	O	1.005275	0.267176	0.929722
O28	O	1.005279	0.075565	1.272459
O29	O	1.348022	-0.267167	0.929709
O30	O	0.662537	0.267166	1.080861
O31	O	0.662538	0.267163	1.272463
O32	O	0.662541	0.075558	1.272458
O33	O	1.348018	-0.075559	0.738112
O34	O	1.348019	-0.075563	0.929714
O35	O	0.892484	0.169188	1.061686
O36	O	0.892487	0.056391	1.174476
O37	O	1.118073	-0.056397	1.061680
O38	O	1.118071	0.056400	0.948890
C39	C	0.703766	-0.000006	1.005284
C40	C	0.601435	-0.000008	1.005284
C41	C	0.553360	-0.058887	1.064157
C42	C	0.457201	-0.058877	1.064162
C43	C	0.457203	0.058893	0.946411
C44	C	0.553354	0.058889	0.946413
C45	C	1.005285	-0.301520	1.005277
C46	C	1.005286	-0.403853	1.005275
C47	C	1.005278	0.000005	0.703769
C48	C	1.005278	0.000007	0.601437
C49	C	1.306793	0.000005	1.005285
C50	C	1.409124	0.000007	1.005286
C51	C	1.123038	-0.510804	0.946397
C52	C	1.123032	-0.606952	0.946411
C53	C	0.887512	-0.489186	1.064179
C54	C	0.887519	-0.393040	1.064172
C55	C	1.005274	0.301519	1.005292
C56	C	1.005273	0.403852	1.005295
C57	C	1.005280	0.083262	0.457200
C58	C	1.005273	0.083272	0.553355
C59	C	1.005275	-0.083267	0.553365
C60	C	1.005273	-0.083272	0.457216
C61	C	1.005281	-0.000006	1.306801
C62	C	1.005281	-0.000008	1.409133
C63	C	0.703767	-0.000012	1.306800
C64	C	0.601437	-0.000016	1.409132
C65	C	0.703761	0.301513	1.005292
C66	C	0.601428	0.403844	1.005294
C67	C	0.703762	0.301507	1.306808
C68	C	0.601430	0.403836	1.409142
C69	C	1.306797	-0.301509	0.703762
C70	C	1.409129	-0.403838	0.601427
C71	C	1.306792	0.000011	0.703769
C72	C	1.409122	0.000015	0.601438
C73	C	1.306798	-0.301514	1.005278
C74	C	1.409131	-0.403845	1.005275
C75	C	0.553360	-0.058892	1.398332
C76	C	0.457217	-0.058899	1.494487
C77	C	0.457233	0.058854	1.612239
C78	C	0.553380	0.058854	1.516085
C79	C	0.553349	0.510796	1.064173
C80	C	0.457206	0.606943	1.064162
C81	C	0.457224	0.489173	0.946393
C82	C	0.553373	0.393028	0.946398
C83	C	0.553353	0.393035	1.516095
C84	C	0.457209	0.489188	1.612245
C85	C	0.457224	0.606940	1.494476
C86	C	0.553373	0.510789	1.398329
H87	H	0.418046	0.106844	0.898479
H88	H	0.791630	-0.480396	1.112130
H89	H	0.418092	0.106785	1.699330
H90	H	0.592503	-0.106843	1.112095
H91	H	1.005270	0.151079	0.592490
H92	H	1.005270	-0.151082	0.418080
H93	H	0.592477	0.519609	1.112126
H94	H	0.791626	-0.305950	1.112123
H95	H	0.592496	-0.106839	1.311250
H96	H	0.592481	0.305953	1.524905
H97	H	1.005284	0.151061	0.418054
H98	H	0.418059	-0.106819	1.112103
H99	H	1.218917	-0.694033	0.898468
H100	H	0.418069	0.480385	1.699328
H101	H	1.005271	-0.151060	0.592523
H102	H	0.418079	-0.106844	1.485684
H103	H	1.218931	-0.519614	0.898439
H104	H	0.592529	0.106798	1.524887
H105	H	0.418066	0.694025	1.112105
H106	H	0.418084	0.480380	0.898443
H107	H	0.592522	0.305937	0.898446
H108	H	0.592496	0.106840	0.898471
H109	H	0.418082	0.694030	1.485686
H110	H	0.592521	0.519592	1.311237
