data_functionalizedCrystal
_audit_creation_method	'MofGen! by Chris Wilmer'
_symmetry_space_group_name_H-M	'P1'
_symmetry_Int_Tables_number	1
_symmetry_cell_setting	triclinic
loop_
_symmetry_equiv_pos_as_xyz
  x,y,z
_cell_length_a	12.759400
_cell_length_b	12.827893
_cell_length_c	12.827885
_cell_angle_alpha	89.980728
_cell_angle_beta	89.969506
_cell_angle_gamma	90.014845
loop_
_atom_site_label
_atom_site_type_symbol
_atom_site_fract_x
_atom_site_fract_y
_atom_site_fract_z
Zn1	Zn	-0.418211	1.597675	-0.590844
Zn2	Zn	-0.593926	1.597571	-0.416102
Zn3	Zn	-0.418263	1.422916	-0.416117
Zn4	Zn	-0.593849	1.422904	-0.590802
O5	O	-0.506062	1.510266	-0.503466
O6	O	-0.441531	1.743897	-0.567675
O7	O	-0.570678	1.574365	-0.269868
O8	O	-0.271235	1.446147	-0.439319
O9	O	-0.570628	1.743821	-0.439293
O10	O	-0.271197	1.574541	-0.567690
O11	O	-0.441619	1.446046	-0.269879
O12	O	-0.441544	1.276678	-0.439278
O13	O	-0.570496	1.446125	-0.737043
O14	O	-0.570546	1.276669	-0.567618
O15	O	-0.441456	1.574529	-0.737074
O16	O	-0.740937	1.574352	-0.439252
O17	O	-0.740880	1.446025	-0.567603
C18	C	-0.506043	1.238756	-0.503446
C19	C	-0.506060	1.122603	-0.503462
C20	C	-0.442292	1.070856	-0.567089
C21	C	-0.442308	0.950806	-0.567107
C22	C	-0.779030	1.510204	-0.503444
C23	C	-0.895806	1.510273	-0.503470
C24	C	-0.950663	1.577168	-0.436711
C25	C	-1.060387	1.577232	-0.436743
C26	C	-1.060388	1.443499	-0.570296
C27	C	-0.950666	1.443440	-0.570268
C28	C	-0.895803	1.644001	-0.369913
C29	C	-0.950660	1.710899	-0.303148
C30	C	-1.060384	1.710964	-0.303180
C31	C	-1.115252	1.644129	-0.369977
C32	C	-0.232029	1.510357	-0.503511
C33	C	-0.115252	1.510396	-0.503530
C34	C	-0.505961	1.510337	-0.776036
C35	C	-0.505918	1.510368	-0.892190
C36	C	-0.506082	1.782836	-0.503487
C37	C	-0.506091	1.898990	-0.503495
C38	C	-0.442053	1.573913	-0.943990
C39	C	-0.442007	1.573946	-1.064040
C40	C	-0.506087	1.510256	-0.231956
C41	C	-0.505834	1.510428	-0.115803
H42	H	-0.806461	1.643953	-0.369876
C43	C	-0.368508	1.131061	-0.640657
C44	C	-0.368591	1.251107	-0.640527
C45	C	-0.294801	1.311308	-0.714093
C46	C	-0.220928	1.251465	-0.787789
C47	C	-0.220842	1.131413	-0.787921
C48	C	-0.294632	1.071211	-0.714355
H49	H	-0.423279	1.295412	-0.585970
H50	H	-0.294865	1.400179	-0.713994
H51	H	-0.166304	1.296030	-0.842247
H52	H	-0.166154	1.087107	-0.842478
H53	H	-0.294569	0.982340	-0.714454
C54	C	-0.368549	0.890697	-0.640702
C55	C	-0.414250	0.815669	-0.722612
C56	C	-0.340488	0.755558	-0.796209
C57	C	-0.221027	0.770474	-0.787897
C58	C	-0.175320	0.845505	-0.705984
C59	C	-0.249081	0.905617	-0.632386
H60	H	-0.502688	0.804624	-0.728768
H61	H	-0.374324	0.700015	-0.856846
H62	H	-0.166424	0.725977	-0.842378
H63	H	-0.086882	0.856550	-0.699827
H64	H	-0.215245	0.961159	-0.571749
H65	H	-0.387405	1.628288	-0.899461
H66	H	-0.387332	1.628352	-1.108587
C67	C	-0.579708	1.436924	-1.055640
C68	C	-0.534137	1.354942	-0.980581
C69	C	-0.608011	1.281438	-0.920409
C70	C	-0.727456	1.289916	-0.935297
C71	C	-0.773033	1.371901	-1.010360
C72	C	-0.699159	1.445405	-1.070532
H73	H	-0.445712	1.348664	-0.969557
H74	H	-0.574272	1.220748	-0.864842
H75	H	-0.782142	1.235504	-0.890754
H76	H	-0.861459	1.378180	-1.021384
H77	H	-0.732899	1.506096	-1.126099
H78	H	-0.560694	0.943484	-0.449025
H79	H	-0.560664	1.078029	-0.449001
H80	H	-0.560555	1.455982	-0.936718
C81	C	-0.890312	1.784419	-0.229679
C82	C	-0.769622	1.784353	-0.229638
C83	C	-0.709277	1.857877	-0.156169
C84	C	-0.769621	1.931466	-0.082741
C85	C	-0.890318	1.931534	-0.082779
C86	C	-0.950664	1.858011	-0.156248
H87	H	-0.724946	1.729876	-0.283996
H88	H	-0.619929	1.857825	-0.156141
H89	H	-0.724950	1.985892	-0.028354
H90	H	-0.934995	1.986012	-0.028421
H91	H	-1.040011	1.858062	-0.156276
H92	H	-1.105046	1.765443	-0.248825
H93	H	-0.906001	1.388970	-0.624630
H94	H	-1.105069	1.389084	-0.624678
H95	H	-1.204596	1.644195	-0.370006
