data_functionalizedCrystal
_audit_creation_method	'MofGen! by Chris Wilmer'
_symmetry_space_group_name_H-M	'P1'
_symmetry_Int_Tables_number	1
_symmetry_cell_setting	triclinic
loop_
_symmetry_equiv_pos_as_xyz
  x,y,z
_cell_length_a	19.077236
_cell_length_b	19.121063
_cell_length_c	19.077271
_cell_angle_alpha	85.379098
_cell_angle_beta	90.102669
_cell_angle_gamma	94.855924
loop_
_atom_site_label
_atom_site_type_symbol
_atom_site_fract_x
_atom_site_fract_y
_atom_site_fract_z
Zn1	Zn	1.046830	-0.255950	0.451003
Zn2	Zn	1.380164	0.077383	0.784337
Zn3	Zn	1.713497	0.410716	1.117670
Zn4	Zn	1.046472	-0.368862	0.338114
Zn5	Zn	1.379806	-0.035529	0.671448
Zn6	Zn	1.713139	0.297805	1.004781
Zn7	Zn	0.934087	-0.255548	0.328768
Zn8	Zn	1.267420	0.077786	0.662101
Zn9	Zn	1.600753	0.411119	0.995435
Zn10	Zn	0.923851	-0.378295	0.451237
Zn11	Zn	1.257185	-0.044961	0.784571
Zn12	Zn	1.590518	0.288372	1.117904
O13	O	0.987810	-0.314664	0.392281
O14	O	1.321144	0.018670	0.725614
O15	O	1.654477	0.352003	1.058947
O16	O	1.145284	-0.267149	0.439842
O17	O	1.478617	0.066184	0.773175
O18	O	1.811951	0.399517	1.106509
O19	O	1.035698	-0.349714	0.238376
O20	O	1.369031	-0.016381	0.571709
O21	O	1.702364	0.316952	0.905043
O22	O	0.953476	-0.156977	0.340973
O23	O	1.286809	0.176356	0.674307
O24	O	1.620142	0.509689	1.007640
O25	O	1.145021	-0.350105	0.356903
O26	O	1.478354	-0.016771	0.690236
O27	O	1.811688	0.316562	1.023569
O28	O	1.036308	-0.157273	0.430779
O29	O	1.369641	0.176060	0.764113
O30	O	1.702975	0.509394	1.097446
O31	O	0.953128	-0.266463	0.231509
O32	O	1.286462	0.066870	0.564843
O33	O	1.619795	0.400204	0.898176
O34	O	0.834228	-0.275610	0.341200
O35	O	1.167561	0.057724	0.674533
O36	O	1.500895	0.391057	1.007867
O37	O	0.936031	-0.366182	0.549704
O38	O	1.269365	-0.032848	0.883038
O39	O	1.602698	0.300485	1.216371
O40	O	0.826708	-0.365791	0.431178
O41	O	1.160041	-0.032458	0.764511
O42	O	1.493375	0.300875	1.097844
O43	O	1.026383	-0.276296	0.549533
O44	O	1.359717	0.057037	0.882866
O45	O	1.693050	0.390371	1.216199
O46	O	1.025773	-0.468737	0.357130
O47	O	1.359106	-0.135404	0.690463
O48	O	1.692440	0.197930	1.023796
O49	O	0.935684	-0.475667	0.440241
O50	O	1.269017	-0.142334	0.773574
O51	O	1.602351	0.190999	1.106907
C52	C	0.804928	-0.321681	0.385201
C53	C	1.138261	0.011652	0.718534
C54	C	1.471594	0.344986	1.051867
C55	C	0.726688	-0.324701	0.382189
C56	C	1.060022	0.008633	0.715522
C57	C	1.393355	0.341966	1.048856
C58	C	0.690063	-0.283003	0.424028
C59	C	1.023396	0.050330	0.757361
C60	C	1.356730	0.383664	1.090694
C61	C	0.616549	-0.285837	0.421192
C62	C	0.949882	0.047497	0.754525
C63	C	1.283216	0.380830	1.087859
C64	C	0.579662	-0.330372	0.376521
C65	C	0.912995	0.002961	0.709854
C66	C	1.246328	0.336295	1.043187
C67	C	0.616293	-0.372071	0.334677
C68	C	0.949626	-0.038738	0.668010
C69	C	1.282959	0.294596	1.001344
C70	C	0.689805	-0.369233	0.337510
C71	C	1.023139	-0.035900	0.670843
C72	C	1.356472	0.297433	1.004176
C73	C	0.359788	-0.343479	0.363407
C74	C	0.693122	-0.010146	0.696740
C75	C	1.026455	0.323187	1.030074
C76	C	0.286270	-0.346315	0.360579
C77	C	0.619604	-0.012982	0.693913
C78	C	0.952937	0.320351	1.027246
C79	C	0.286532	-0.260080	0.447093
C80	C	0.619865	0.073254	0.780427
C81	C	0.953199	0.406587	1.113760
C82	C	0.360046	-0.257249	0.449925
C83	C	0.693379	0.076084	0.783259
C84	C	1.026712	0.409418	1.116592
C85	C	0.396670	-0.298945	0.408079
C86	C	0.730004	0.034388	0.741412
C87	C	1.063337	0.367721	1.074746
N88	N	0.504519	-0.333271	0.373622
N89	N	0.837852	0.000062	0.706956
N90	N	1.171185	0.333396	1.040289
N91	N	0.471812	-0.296042	0.410974
N92	N	0.805146	0.037291	0.744307
N93	N	1.138479	0.370625	1.077641
C94	C	0.979598	-0.497774	0.399741
C95	C	1.312931	-0.164441	0.733074
C96	C	1.646264	0.168892	1.066407
C97	C	0.976148	-0.576108	0.402958
C98	C	1.309481	-0.242775	0.736292
C99	C	1.642814	0.090559	1.069625
C100	C	1.021465	-0.609278	0.361237
C101	C	1.354798	-0.275945	0.694570
C102	C	1.688131	0.057388	1.027904
C103	C	1.018224	-0.682882	0.364267
C104	C	1.351557	-0.349548	0.697601
C105	C	1.684891	-0.016215	1.030934
C106	C	0.969662	-0.723313	0.409016
C107	C	1.302995	-0.389980	0.742349
C108	C	1.636329	-0.056647	1.075682
C109	C	0.924343	-0.690138	0.450741
C110	C	1.257676	-0.356805	0.784075
C111	C	1.591010	-0.023472	1.117408
C112	C	0.927588	-0.616536	0.447714
C113	C	1.260921	-0.283203	0.781048
C114	C	1.594254	0.050130	1.114381
C115	C	0.957520	-0.945726	0.420322
C116	C	1.290854	-0.612392	0.753655
C117	C	1.624187	-0.279059	1.086988
C118	C	0.954278	-1.019332	0.423344
C119	C	1.287611	-0.685999	0.756678
C120	C	1.620944	-0.352666	1.090011
C121	C	1.048160	-1.012071	0.336871
C122	C	1.381493	-0.678737	0.670204
C123	C	1.714827	-0.345404	1.003537
C124	C	1.051397	-0.938467	0.333844
C125	C	1.384731	-0.605134	0.667178
C126	C	1.718064	-0.271801	1.000511
C127	C	1.006081	-0.905299	0.375573
C128	C	1.339414	-0.571966	0.708906
C129	C	1.672747	-0.238632	1.042240
C130	C	0.966347	-0.798548	0.412113
C131	C	1.299680	-0.465215	0.745446
C132	C	1.633014	-0.131881	1.078779
C133	C	1.009400	-0.830066	0.372479
C134	C	1.342733	-0.496732	0.705813
C135	C	1.676067	-0.163399	1.039146
C136	C	1.171407	-0.307620	0.399389
C137	C	1.504740	0.025714	0.732722
C138	C	1.838073	0.359047	1.066056
C139	C	1.249645	-0.304618	0.402418
C140	C	1.582978	0.028715	0.735751
C141	C	1.916311	0.362049	1.069085
C142	C	0.980106	-0.322336	0.575872
C143	C	1.313439	0.010997	0.909205
C144	C	1.646772	0.344331	1.242539
C145	C	0.976822	-0.325605	0.654108
C146	C	1.310156	0.007728	0.987441
C147	C	1.643489	0.341061	1.320775
C148	C	0.996073	-0.130838	0.384808
C149	C	1.329407	0.202495	0.718141
C150	C	1.662740	0.535829	1.051474
C151	C	0.999595	-0.052503	0.381623
C152	C	1.332928	0.280831	0.714956
C153	C	1.666261	0.614164	1.048290
C154	C	1.022319	-0.280345	0.690775
C155	C	1.355652	0.052989	1.024108
C156	C	1.688986	0.386322	1.357442
C157	C	1.019225	-0.283414	0.764285
C158	C	1.352559	0.049919	1.097619
C159	C	1.685892	0.383252	1.430952
C160	C	0.970638	-0.331749	0.801128
C161	C	1.303972	0.001585	1.134461
C162	C	1.637305	0.334918	1.467794
C163	C	0.925137	-0.377011	0.764455
C164	C	1.258470	-0.043678	1.097789
C165	C	1.591803	0.289656	1.431122
C166	C	0.928227	-0.373938	0.690946
C167	C	1.261561	-0.040604	1.024279
C168	C	1.594894	0.292729	1.357613
C169	C	0.956348	-0.345956	1.020986
C170	C	1.289681	-0.012622	1.354319
C171	C	1.623014	0.320711	1.687653
C172	C	0.953262	-0.349027	1.094501
C173	C	1.286595	-0.015694	1.427834
C174	C	1.619929	0.317639	1.761167
C175	C	1.047350	-0.255429	1.094326
C176	C	1.380683	0.077904	1.427659
C177	C	1.714017	0.411237	1.760992
C178	C	1.050439	-0.252363	1.020815
C179	C	1.383773	0.080970	1.354148
C180	C	1.717106	0.414304	1.687482
C181	C	1.004935	-0.297623	0.984149
C182	C	1.338269	0.035710	1.317482
C183	C	1.671602	0.369044	1.650816
N184	N	0.967477	-0.334889	0.876267
N185	N	1.300810	-0.001556	1.209600
N186	N	1.634143	0.331778	1.542934
N187	N	1.008094	-0.294479	0.909011
N188	N	1.341427	0.038855	1.242344
N189	N	1.674761	0.372188	1.575677
C190	C	0.995478	-0.307037	1.209404
C191	C	1.328811	0.026296	1.542737
C192	C	1.662145	0.359630	1.876070
C193	C	0.998759	-0.303767	1.131168
C194	C	1.332092	0.029567	1.464501
C195	C	1.665425	0.362900	1.797834
H196	H	0.256238	-0.382585	0.324202
H197	H	0.589572	-0.049251	0.657535
H198	H	0.922905	0.284082	0.990869
Cl199	Cl	0.863297	-0.740967	0.507001
Cl200	Cl	1.196631	-0.407634	0.840334
Cl201	Cl	1.529964	-0.074301	1.173668
H202	H	0.389599	-0.377432	0.329334
H203	H	0.722932	-0.044099	0.662667
H204	H	1.056266	0.289235	0.996000
Cl205	Cl	0.905299	-0.849383	0.468365
Cl206	Cl	1.238632	-0.516049	0.801699
Cl207	Cl	1.571966	-0.182716	1.135032
H208	H	0.390074	-0.220986	0.486304
H209	H	0.723408	0.112347	0.819637
H210	H	1.056741	0.445680	1.152971
Cl211	Cl	0.892172	-0.409791	1.140816
Cl212	Cl	1.225506	-0.076458	1.474149
Cl213	Cl	1.558839	0.256875	1.807482
Cl214	Cl	0.569920	-0.428055	0.278514
Cl215	Cl	0.903253	-0.094721	0.611848
Cl216	Cl	1.236587	0.238612	0.945181
Cl217	Cl	1.111523	-0.191598	0.974504
Cl218	Cl	1.444857	0.141736	1.307838
Cl219	Cl	1.778190	0.475069	1.641171
Cl220	Cl	1.070449	-0.779236	0.316229
Cl221	Cl	1.403783	-0.445903	0.649562
Cl222	Cl	1.737116	-0.112570	0.982896
Cl223	Cl	0.870617	-0.574837	0.500169
Cl224	Cl	1.203950	-0.241503	0.833502
Cl225	Cl	1.537284	0.091830	1.166835
H226	H	0.914741	-1.052251	0.459796
H227	H	1.248074	-0.718917	0.793130
H228	H	1.581407	-0.385584	1.126463
H229	H	1.055126	-0.709885	0.330293
H230	H	1.388459	-0.376552	0.663626
H231	H	1.721792	-0.043218	0.996960
H232	H	0.920620	-0.918726	0.454298
H233	H	1.253954	-0.585392	0.787631
H234	H	1.587287	-0.252059	1.120964
Cl235	Cl	0.735849	-0.421656	0.284911
Cl236	Cl	1.069182	-0.088323	0.618244
Cl237	Cl	1.402516	0.245011	0.951577
H238	H	1.061006	-0.576363	0.324795
H239	H	1.394339	-0.243030	0.658128
H240	H	1.727673	0.090304	0.991462
Cl241	Cl	0.864053	-0.437772	0.810771
Cl242	Cl	1.197386	-0.104439	1.144105
Cl243	Cl	1.530719	0.228895	1.477438
Cl244	Cl	0.736428	-0.227016	0.480192
Cl245	Cl	1.069761	0.106317	0.813526
Cl246	Cl	1.403095	0.439651	1.146859
H247	H	0.891172	-0.410787	0.661092
H248	H	1.224506	-0.077453	0.994425
H249	H	1.557839	0.255880	1.327759
Cl250	Cl	0.570508	-0.233417	0.473794
Cl251	Cl	0.903842	0.099917	0.807127
Cl252	Cl	1.237175	0.433250	1.140461
H253	H	1.084396	-0.218580	1.124187
H254	H	1.417729	0.114753	1.457520
H255	H	1.751063	0.448086	1.790854
Cl256	Cl	0.240486	-0.207663	0.499695
Cl257	Cl	0.573819	0.125670	0.833028
Cl258	Cl	0.907152	0.459003	1.166361
H259	H	1.061886	-0.240988	0.660783
H260	H	1.395219	0.092345	0.994117
H261	H	1.728553	0.425679	1.327450
Cl262	Cl	1.076454	-0.226542	0.810380
Cl263	Cl	1.409787	0.106791	1.143714
Cl264	Cl	1.743121	0.440124	1.477047
H265	H	1.090940	-0.905549	0.297407
H266	H	1.424274	-0.572216	0.630740
H267	H	1.757607	-0.238882	0.964073
H268	H	0.919305	-0.382820	0.991142
H269	H	1.252638	-0.049486	1.324476
H270	H	1.585972	0.283847	1.657809
Cl271	Cl	1.105130	-1.053773	0.284420
Cl272	Cl	1.438463	-0.720439	0.617754
Cl273	Cl	1.771797	-0.387106	0.951087
