data_functionalizedCrystal
_audit_creation_method	'MofGen! by Chris Wilmer'
_symmetry_space_group_name_H-M	'P1'
_symmetry_Int_Tables_number	1
_symmetry_cell_setting	triclinic
loop_
_symmetry_equiv_pos_as_xyz
  x,y,z
_cell_length_a	10.654559
_cell_length_b	15.625429
_cell_length_c	9.730223
_cell_angle_alpha	71.921515
_cell_angle_beta	89.999563
_cell_angle_gamma	84.354069
loop_
_atom_site_label
_atom_site_type_symbol
_atom_site_fract_x
_atom_site_fract_y
_atom_site_fract_z
O1	O	1.666506	0.126658	-0.177411
O2	O	1.300903	0.138713	-0.183419
O3	O	1.493476	0.001512	-0.115042
O4	O	1.473933	0.263859	-0.245787
O5	O	1.493474	0.001516	0.113536
O6	O	1.300901	0.138717	0.045159
O7	O	1.666503	0.126662	0.051168
Zn8	Zn	1.483702	0.132690	0.084455
Zn9	Zn	1.483705	0.132685	-0.216706
O10	O	1.473930	0.263863	-0.017209
C11	C	1.254113	0.137828	-0.068688
C12	C	1.114698	0.135175	-0.067366
C13	C	1.064027	0.051899	-0.025861
C14	C	0.933031	0.049411	-0.024631
C15	C	0.903387	0.213482	-0.106410
C16	C	1.034381	0.215969	-0.107649
C17	C	1.081141	-0.042827	0.021360
C18	C	0.950145	-0.045314	0.022590
C19	C	1.492591	-0.032079	0.015985
C20	C	1.489944	-0.132174	0.065860
C21	C	1.481207	-0.461385	-0.393046
C22	C	1.478713	-0.555439	-0.346138
C23	C	1.478711	-0.555421	-0.096958
C24	C	1.481211	-0.461366	-0.143845
C25	C	1.482457	-0.414355	-0.291890
C26	C	1.482461	-0.414336	-0.042689
C27	C	1.484954	-0.320288	-0.089573
C28	C	1.486197	-0.273270	-0.237612
C29	C	1.484950	-0.320307	-0.338774
C30	C	1.481206	-0.461348	0.105355
C31	C	1.482456	-0.414318	0.206511
C32	C	1.484958	-0.320269	0.159628
C33	C	1.486201	-0.273251	0.011589
C34	C	1.486205	-0.273233	0.260790
C35	C	1.488698	-0.179185	0.213906
C36	C	1.488694	-0.179204	-0.035295
C37	C	1.713293	0.127547	-0.063566
C38	C	1.852708	0.130200	-0.064897
C39	C	1.474815	0.297453	-0.148239
C40	C	1.477463	0.397548	-0.198124
N41	N	1.483709	0.132692	0.289990
N42	N	1.483707	0.132675	-0.422238
C43	C	1.569002	0.071960	0.392183
C44	C	1.568999	0.071949	0.536071
C45	C	1.398405	0.193410	0.475558
C46	C	1.398403	0.193416	0.331674
C47	C	1.667497	0.001839	0.427120
C48	C	1.667493	0.001828	0.571008
H49	H	1.127080	-0.071443	0.134318
H50	H	1.763843	0.017276	0.602360
H51	H	0.921161	-0.082353	0.136710
C52	C	1.490080	-0.127450	0.325182
N53	N	1.491119	-0.088482	0.408999
C54	C	1.490070	-0.127487	-0.198154
N55	N	1.491104	-0.088533	-0.320813
H56	H	1.488213	-0.196689	-0.275783
H57	H	1.485976	-0.282029	-0.459327
H58	H	1.477692	-0.593710	0.023581
C59	C	1.482584	-0.409668	-0.555904
N60	N	1.483617	-0.370714	-0.678564
C61	C	1.477303	-0.607166	-0.457431
N62	N	1.476226	-0.646124	-0.541257
H63	H	1.328951	0.242849	0.509514
H64	H	0.914831	-0.075486	-0.061070
C65	C	1.639496	-0.091770	0.421004
N66	N	1.618403	-0.162273	0.416397
C67	C	1.478479	-0.564806	0.156926
N68	N	1.476432	-0.642731	0.195767
H69	H	1.075631	0.283780	-0.141470
H70	H	1.637664	-0.063655	0.648258
H71	H	1.481437	-0.452607	0.327050
H72	H	1.485178	-0.311522	0.381328
H73	H	1.758451	0.023798	0.371550
C74	C	0.815027	0.302351	-0.150709
N75	N	0.748475	0.369290	-0.184071
C76	C	1.138050	-0.091050	-0.083832
N77	N	1.180914	-0.127370	-0.163063
C78	C	1.304671	0.260295	0.219231
N79	N	1.234106	0.310699	0.134523
