data_functionalizedCrystal
_audit_creation_method	'MofGen! by Chris Wilmer'
_symmetry_space_group_name_H-M	'P1'
_symmetry_Int_Tables_number	1
_symmetry_cell_setting	triclinic
loop_
_symmetry_equiv_pos_as_xyz
  x,y,z
_cell_length_a	23.532361
_cell_length_b	22.610064
_cell_length_c	23.532407
_cell_angle_alpha	89.999397
_cell_angle_beta	97.160827
_cell_angle_gamma	90.003897
loop_
_atom_site_label
_atom_site_type_symbol
_atom_site_fract_x
_atom_site_fract_y
_atom_site_fract_z
O1	O	0.755281	0.049131	-0.069001
O2	O	1.255281	0.549131	0.430999
O3	O	0.589414	0.049146	-0.079032
O4	O	1.089414	0.549146	0.420968
O5	O	0.677349	0.049127	0.008916
O6	O	1.177349	0.549127	0.508916
O7	O	0.667345	0.049150	-0.156949
O8	O	1.167345	0.549150	0.343051
O9	O	0.677333	-0.049242	0.008903
O10	O	1.177333	0.450758	0.508903
O11	O	0.589398	-0.049223	-0.079045
O12	O	1.089398	0.450777	0.420955
O13	O	0.755265	-0.049238	-0.069014
O14	O	1.255265	0.450762	0.430986
Zn15	Zn	0.672329	-0.064849	-0.074031
Zn16	Zn	1.172329	0.435151	0.425969
Zn17	Zn	0.672350	0.064757	-0.074014
Zn18	Zn	1.172350	0.564757	0.425986
O19	O	0.667330	-0.049219	-0.156962
O20	O	1.167330	0.450781	0.343038
C21	C	0.568189	-0.000037	-0.078787
C22	C	1.068189	0.499963	0.421213
C23	C	0.504971	-0.000031	-0.078032
C24	C	1.004971	0.499969	0.421968
N25	N	0.672319	-0.153301	-0.074042
N26	N	1.172319	0.346699	0.425958
C27	C	0.231736	0.053586	-0.074721
C28	C	0.731736	0.553586	0.425279
C29	C	0.291135	0.053587	-0.075436
C30	C	0.791135	0.553587	0.424564
O31	O	0.321868	0.099189	-0.075780
O32	O	0.821868	0.599189	0.424220
N33	N	0.320832	-0.000034	-0.075804
N34	N	0.820832	0.499966	0.424196
C35	C	0.291128	-0.053660	-0.075452
C36	C	0.791128	0.446340	0.424548
O37	O	0.321842	-0.099269	-0.075830
O38	O	0.821842	0.400731	0.424170
C39	C	0.231730	-0.053661	-0.074733
C40	C	0.731730	0.446339	0.425267
C41	C	0.202035	-0.000036	-0.074370
C42	C	0.702035	0.499964	0.425630
C43	C	0.202041	0.107206	-0.074358
C44	C	0.702041	0.607206	0.425642
C45	C	0.142645	0.107204	-0.073644
C46	C	0.642645	0.607204	0.426356
C47	C	0.112944	0.053582	-0.073294
C48	C	0.612944	0.553582	0.426706
C49	C	0.142639	-0.000038	-0.073657
C50	C	0.642639	0.499962	0.426343
C51	C	0.202026	-0.107287	-0.074376
C52	C	0.702026	0.392713	0.425624
C53	C	0.142624	-0.107283	-0.073656
C54	C	0.642624	0.392717	0.426344
C55	C	0.112929	-0.053658	-0.073294
C56	C	0.612929	0.446342	0.426706
C57	C	0.053542	-0.053662	-0.072592
C58	C	0.553542	0.446338	0.427408
N59	N	0.023845	-0.000041	-0.072224
N60	N	0.523845	0.499959	0.427776
C61	C	0.053546	0.053581	-0.072575
C62	C	0.553546	0.553581	0.427425
C63	C	0.415868	-0.053654	-0.076961
C64	C	0.915868	0.446346	0.423039
C65	C	0.475264	-0.053654	-0.077684
C66	C	0.975264	0.446346	0.422316
C67	C	0.475268	0.053594	-0.077667
C68	C	0.975268	0.553594	0.422333
C69	C	0.415870	0.053593	-0.076948
C70	C	0.915870	0.553593	0.423052
C71	C	0.386171	-0.000033	-0.076593
C72	C	0.886171	0.499967	0.423407
C73	C	-0.071190	0.053573	-0.071076
C74	C	0.428810	0.553573	0.428924
C75	C	-0.130591	0.053567	-0.070365
C76	C	0.369409	0.553567	0.429635
C77	C	-0.130589	-0.053680	-0.070378
C78	C	0.369411	0.446320	0.429622
C79	C	-0.071193	-0.053674	-0.071093
C80	C	0.428807	0.446326	0.428907
C81	C	-0.041495	-0.000043	-0.071440
C82	C	0.458505	0.499957	0.428560
O83	O	0.022772	-0.099240	-0.072245
O84	O	0.522772	0.400760	0.427755
O85	O	0.022825	0.099182	-0.072189
O86	O	0.522825	0.599182	0.427811
C87	C	0.711289	-0.561951	-0.035077
C88	C	1.211289	-0.061951	0.464923
C89	C	0.711292	-0.623871	-0.035073
C90	C	1.211292	-0.123871	0.464927
O91	O	0.744401	-0.655897	-0.001951
O92	O	1.244401	-0.155897	0.498049
N93	N	0.672349	-0.654838	-0.074002
N94	N	1.172349	-0.154838	0.425998
C95	C	0.633397	-0.623883	-0.112935
C96	C	1.133397	-0.123883	0.387065
O97	O	0.600273	-0.655909	-0.146047
O98	O	1.100273	-0.155909	0.353953
C99	C	0.633392	-0.561964	-0.112936
C100	C	1.133392	-0.061964	0.387064
C101	C	0.672341	-0.531000	-0.074007
C102	C	1.172341	-0.031000	0.425993
C103	C	0.750235	-0.530986	0.003849
C104	C	1.250235	-0.030986	0.503849
C105	C	0.750232	-0.469071	0.003844
C106	C	1.250232	0.030929	0.503844
C107	C	0.711284	-0.438120	-0.035087
C108	C	1.211284	0.061880	0.464913
C109	C	0.672339	-0.469084	-0.074013
C110	C	1.172339	0.030916	0.425987
C111	C	0.594438	-0.531009	-0.151865
C112	C	1.094438	-0.031009	0.348135
C113	C	0.594435	-0.469086	-0.151863
C114	C	1.094435	0.030914	0.348137
C115	C	0.633385	-0.438122	-0.112934
C116	C	1.133385	0.061878	0.387066
C117	C	0.633388	-0.376217	-0.112948
C118	C	1.133388	0.123783	0.387052
N119	N	0.672331	-0.345250	-0.074018
N120	N	1.172331	0.154750	0.425982
C121	C	0.711279	-0.376201	-0.035088
C122	C	1.211279	0.123799	0.464912
C123	C	0.633410	-0.753916	-0.112929
C124	C	1.133410	-0.253916	0.387071
C125	C	0.633418	-0.815834	-0.112932
C126	C	1.133418	-0.315834	0.387068
C127	C	0.711312	-0.815818	-0.035068
C128	C	1.211312	-0.315818	0.464932
C129	C	0.711307	-0.753899	-0.035069
C130	C	1.211307	-0.253899	0.464931
C131	C	0.672353	-0.722949	-0.074000
C132	C	1.172353	-0.222949	0.426000
C133	C	0.711272	-0.246173	-0.035102
C134	C	1.211272	0.253827	0.464898
C135	C	0.711267	-0.184252	-0.035112
C136	C	1.211267	0.315748	0.464888
C137	C	0.633371	-0.184274	-0.112973
C138	C	1.133371	0.315726	0.387027
C139	C	0.633377	-0.246190	-0.112965
C140	C	1.133377	0.253810	0.387035
C141	C	0.672330	-0.277138	-0.074024
C142	C	1.172330	0.222862	0.425976
O143	O	0.600295	-0.344152	-0.146051
O144	O	1.100295	0.155848	0.353949
O145	O	0.744393	-0.344167	-0.001976
O146	O	1.244393	0.155833	0.498024
C147	C	0.776489	-0.000054	-0.069258
C148	C	1.276489	0.499946	0.430742
C149	C	0.839708	-0.000055	-0.070014
C150	C	1.339708	0.499945	0.429986
C151	C	0.677086	-0.000059	0.030126
C152	C	1.177086	0.499941	0.530126
C153	C	0.676320	-0.000063	0.093343
C154	C	1.176320	0.499937	0.593343
N155	N	0.672364	0.153209	-0.073998
N156	N	1.172364	0.653209	0.426002
C157	C	0.667592	-0.000032	-0.178171
C158	C	1.167592	0.499968	0.321829
C159	C	0.668358	-0.000023	-0.241388
C160	C	1.168358	0.499977	0.258612
C161	C	0.723555	-0.000035	0.492454
C162	C	1.223555	0.499965	0.992454
C163	C	0.722844	-0.000030	0.551854
C164	C	1.222844	0.499970	1.051854
O165	O	0.766630	-0.000013	0.588606
O166	O	1.266630	0.499987	1.088606
N167	N	0.670566	-0.000026	0.574471
N168	N	1.170566	0.499974	1.074471
C169	C	0.618997	-0.000020	0.537685
C170	C	1.118997	0.499980	1.037685
O171	O	0.574465	-0.000016	0.562377
O172	O	1.074465	0.499984	1.062377
C173	C	0.619709	-0.000021	0.478286
C174	C	1.119709	0.499979	0.978286
C175	C	0.671990	-0.000031	0.455672
C176	C	1.171990	0.499969	0.955672
C177	C	0.775832	-0.000045	0.469839
C178	C	1.275832	0.499955	0.969839
C179	C	0.776543	-0.000050	0.410443
C180	C	1.276543	0.499950	0.910443
C181	C	0.724977	-0.000046	0.373662
C182	C	1.224977	0.499954	0.873662
C183	C	0.672701	-0.000037	0.396276
C184	C	1.172701	0.499963	0.896276
C185	C	0.568140	-0.000011	0.441501
C186	C	1.068140	0.499989	0.941501
C187	C	0.568857	-0.000011	0.382099
C188	C	1.068857	0.499989	0.882099
C189	C	0.621137	-0.000021	0.359485
C190	C	1.121137	0.499979	0.859485
C191	C	0.621847	-0.000038	0.300099
C192	C	1.121847	0.499962	0.800099
N193	N	0.674124	-0.000043	0.277481
N194	N	1.174124	0.499957	0.777481
C195	C	0.725690	-0.000047	0.314263
C196	C	1.225690	0.499953	0.814263
C197	C	0.617505	-0.000019	0.662427
C198	C	1.117505	0.499981	1.162427
C199	C	0.616793	-0.000023	0.721825
C200	C	1.116793	0.499977	1.221825
C201	C	0.720640	-0.000032	0.735990
C202	C	1.220640	0.499968	1.235990
C203	C	0.721352	-0.000032	0.676591
C204	C	1.221352	0.499968	1.176591
C205	C	0.669783	-0.000023	0.639810
C206	C	1.169783	0.499977	1.139810
C207	C	0.727179	-0.000059	0.189526
C208	C	1.227179	0.499941	0.689526
C209	C	0.727886	-0.000067	0.130124
C210	C	1.227886	0.499933	0.630124
C211	C	0.624039	-0.000055	0.115965
C212	C	1.124039	0.499945	0.615965
C213	C	0.623332	-0.000050	0.175361
C214	C	1.123332	0.499950	0.675361
C215	C	0.674907	-0.000050	0.212141
C216	C	1.174907	0.499950	0.712141
O217	O	0.578083	-0.000054	0.263312
O218	O	1.078083	0.499946	0.763312
O219	O	0.770214	-0.000043	0.289562
O220	O	1.270214	0.499957	0.789562
H221	H	-0.047016	0.097246	-0.071359
H222	H	0.452984	0.597246	0.428641
C223	C	0.551588	-0.435042	-0.194688
C224	C	1.051588	0.064958	0.305312
H225	H	0.557159	-0.393730	-0.189116
H226	H	1.057159	0.106270	0.310884
H227	H	0.557554	-0.445193	-0.232665
H228	H	1.057554	0.054807	0.267335
H229	H	0.513615	-0.445195	-0.188695
H230	H	1.013615	0.054805	0.311305
H231	H	0.601667	-0.271401	-0.144669
H232	H	1.101667	0.228599	0.355331
H233	H	0.118445	-0.150953	-0.073372
H234	H	0.618445	0.349047	0.426628
C235	C	0.793088	-0.435015	0.046652
C236	C	1.293088	0.064985	0.546652
H237	H	0.787521	-0.393704	0.041073
H238	H	1.287521	0.106296	0.541073
H239	H	0.787135	-0.445158	0.084636
H240	H	1.287135	0.054842	0.584636
H241	H	0.831056	-0.445170	0.040646
H242	H	1.331056	0.054830	0.540646
H243	H	0.763923	-0.000040	0.658183
H244	H	1.263923	0.499960	1.158183
H245	H	0.562721	-0.556212	-0.183564
H246	H	1.062721	-0.056212	0.316436
H247	H	0.769176	-0.000057	0.219466
H248	H	1.269176	0.499943	0.719466
H249	H	0.582056	-0.000054	0.086007
H250	H	1.082056	0.499946	0.586007
H251	H	0.601662	-0.159064	-0.144671
H252	H	1.101662	0.340936	0.355329
H253	H	0.742986	-0.159043	-0.003411
H254	H	1.242986	0.340957	0.496589
C255	C	-0.163261	-0.112660	-0.069944
C256	C	0.336739	0.387340	0.430056
H257	H	-0.202886	-0.104976	-0.069446
H258	H	0.297114	0.395024	0.430554
H259	H	-0.158081	-0.134725	-0.103263
H260	H	0.341919	0.365275	0.396737
H261	H	-0.148976	-0.134663	-0.036828
H262	H	0.351024	0.365337	0.463172
H263	H	0.770461	-0.000077	0.111716
H264	H	1.270461	0.499923	0.611716
C265	C	0.109990	0.166192	-0.073231
C266	C	0.609990	0.666192	0.426769
H267	H	0.136194	0.198123	-0.073535
H268	H	0.636194	0.698123	0.426465
H269	H	0.082280	0.168438	-0.106163
H270	H	0.582280	0.668438	0.393837
H271	H	0.091360	0.168412	-0.039728
H272	H	0.591360	0.668412	0.460272
C273	C	0.834052	-0.000050	0.385575
C274	C	1.334052	0.499950	0.885575
H275	H	0.864656	-0.000045	0.415995
H276	H	1.364656	0.499955	0.915995
H277	H	0.836493	-0.034352	0.362698
H278	H	1.336493	0.465648	0.862698
H279	H	0.836492	0.034259	0.362701
H280	H	1.336492	0.534259	0.862701
H281	H	-0.047016	-0.097340	-0.071399
H282	H	0.452984	0.402660	0.428601
H283	H	0.391696	0.097259	-0.076653
H284	H	0.891696	0.597259	0.423347
H285	H	-0.154766	0.097237	-0.070071
H286	H	0.345234	0.597237	0.429929
C287	C	0.832559	-0.000054	0.510291
C288	C	1.332559	0.499946	1.010291
H289	H	0.863790	-0.000064	0.488306
H290	H	1.363790	0.499936	0.988306
H291	H	0.834455	0.034247	0.533761
H292	H	1.334455	0.534247	1.033761
H293	H	0.834435	-0.034364	0.533753
H294	H	1.334435	0.465636	1.033753
H295	H	0.226217	0.150874	-0.074642
H296	H	0.726217	0.650874	0.425358
H297	H	0.742989	-0.271365	-0.003392
H298	H	1.242989	0.228635	0.496608
H299	H	0.580761	-0.000058	0.193774
H300	H	1.080761	0.499942	0.693774
C301	C	0.754149	-0.849872	0.007761
C302	C	1.254149	-0.349872	0.507761
H303	H	0.748566	-0.891183	0.002188
H304	H	1.248566	-0.391183	0.502188
H305	H	0.792124	-0.839725	0.001781
H306	H	1.292124	-0.339725	0.501781
H307	H	0.748173	-0.839725	0.045739
H308	H	1.248173	-0.339725	0.545739
H309	H	0.781951	-0.556182	0.035554
H310	H	1.281951	-0.056182	0.535554
H311	H	0.762627	-0.000032	0.765949
H312	H	1.262627	0.499968	1.265949
H313	H	0.574220	-0.000024	0.740232
H314	H	1.074220	0.499976	1.240232
C315	C	0.512131	-0.000001	0.341640
C316	C	1.012131	0.499999	0.841640
H317	H	0.520038	-0.000000	0.303024
H318	H	1.020038	0.500000	0.803024
H319	H	0.490672	-0.034300	0.348467
H320	H	0.990672	0.465700	0.848467
H321	H	0.490690	0.034312	0.348465
H322	H	0.990690	0.534312	0.848465
C323	C	0.234678	-0.166275	-0.074776
C324	C	0.734678	0.333725	0.425224
H325	H	0.208475	-0.198205	-0.074458
H326	H	0.708475	0.301795	0.425542
H327	H	0.253314	-0.168506	-0.108271
H328	H	0.753314	0.331494	0.391729
H329	H	0.262383	-0.168512	-0.041836
H330	H	0.762383	0.331488	0.458164
H331	H	0.499461	0.097256	-0.077952
H332	H	0.999461	0.597256	0.422048
C333	C	0.560775	-0.000020	0.621973
C334	C	1.060775	0.499980	1.121973
H335	H	0.529543	-0.000023	0.643954
H336	H	1.029543	0.499977	1.143954
H337	H	0.558893	0.034282	0.598504
H338	H	1.058893	0.534282	1.098504
H339	H	0.558889	-0.034330	0.598510
H340	H	1.058889	0.465670	1.098510
H341	H	0.743022	-0.728691	-0.003370
H342	H	1.243022	-0.228691	0.496630
C343	C	0.590574	-0.849888	-0.155753
C344	C	1.090574	-0.349888	0.344247
H345	H	0.567376	-0.822581	-0.178934
H346	H	1.067376	-0.322581	0.321066
H347	H	0.610919	-0.874045	-0.179356
H348	H	1.110919	-0.374045	0.320644
H349	H	0.566983	-0.874040	-0.135382
H350	H	1.066983	-0.374040	0.364618
C351	C	0.510632	0.000008	0.466366
C352	C	1.010632	0.500008	0.966366
H353	H	0.517584	0.000006	0.507010
H354	H	1.017584	0.500006	1.007010
H355	H	0.489427	0.034316	0.453714
H356	H	0.989427	0.534316	0.953714
H357	H	0.489406	-0.034295	0.453719
H358	H	0.989406	0.465705	0.953719
C359	C	0.507922	-0.112641	-0.078085
C360	C	1.007922	0.387359	0.421915
H361	H	0.481721	-0.144573	-0.077769
H362	H	0.981721	0.355427	0.422231
H363	H	0.526562	-0.114871	-0.111578
H364	H	1.026562	0.385129	0.388422
H365	H	0.535624	-0.114874	-0.045142
H366	H	1.035624	0.385126	0.454858
H367	H	0.391689	-0.097326	-0.076678
H368	H	0.891689	0.402674	0.423322
H369	H	0.601691	-0.728720	-0.144636
H370	H	1.101691	-0.228720	0.355364
