data_functionalizedCrystal
_audit_creation_method	'MofGen! by Chris Wilmer'
_symmetry_space_group_name_H-M	'P1'
_symmetry_Int_Tables_number	1
_symmetry_cell_setting	triclinic
loop_
_symmetry_equiv_pos_as_xyz
  x,y,z
_cell_length_a	12.759401
_cell_length_b	18.215404
_cell_length_c	12.759393
_cell_angle_alpha	90.034583
_cell_angle_beta	89.981504
_cell_angle_gamma	89.975900
loop_
_atom_site_label
_atom_site_type_symbol
_atom_site_fract_x
_atom_site_fract_y
_atom_site_fract_z
Zn1	Zn	1.606188	0.292935	-0.593961
Zn2	Zn	2.106188	0.792935	-0.093961
Zn3	Zn	1.606055	0.416022	-0.418272
Zn4	Zn	2.106055	0.916022	0.081728
Zn5	Zn	1.430490	0.292974	-0.418300
Zn6	Zn	1.930490	0.792974	0.081700
Zn7	Zn	1.430451	0.415965	-0.593913
Zn8	Zn	1.930451	0.915965	-0.093913
O9	O	1.518296	0.354474	-0.506112
O10	O	2.018296	0.854474	-0.006112
O11	O	1.753192	0.309270	-0.570663
O12	O	2.253192	0.809270	-0.070663
O13	O	1.582726	0.399739	-0.271254
O14	O	2.082726	0.899739	0.228746
O15	O	1.453870	0.189985	-0.441634
O16	O	1.953870	0.689985	0.058366
O17	O	1.753094	0.399701	-0.441586
O18	O	2.253094	0.899701	0.058414
O19	O	1.582954	0.189956	-0.570691
O20	O	2.082954	0.689956	-0.070691
O21	O	1.453740	0.309336	-0.271275
O22	O	1.953740	0.809336	0.228725
O23	O	1.283464	0.309282	-0.441587
O24	O	1.783464	0.809282	0.058413
O25	O	1.453802	0.399605	-0.740941
O26	O	1.953802	0.899605	-0.240941
O27	O	1.283435	0.399643	-0.570610
O28	O	1.783435	0.899643	-0.070610
O29	O	1.582916	0.309215	-0.740976
O30	O	2.082916	0.809215	-0.240976
O31	O	1.582688	0.518998	-0.441539
O32	O	2.082688	1.018998	0.058461
O33	O	1.453673	0.518957	-0.570582
O34	O	1.953673	1.018957	-0.070582
C35	C	1.245329	0.354461	-0.506097
C36	C	1.745329	0.854461	-0.006097
C37	C	1.128552	0.354473	-0.506116
C38	C	1.628552	0.854473	-0.006116
C39	C	0.963971	0.401607	-0.573199
C40	C	1.463971	0.901607	-0.073199
C41	C	1.073696	0.401598	-0.573188
C42	C	1.573696	0.901598	-0.073188
C43	C	1.073679	0.307358	-0.439042
C44	C	1.573679	0.807358	0.060958
C45	C	0.963957	0.307370	-0.439049
C46	C	1.463957	0.807370	0.060951
C47	C	1.518190	0.545680	-0.506075
C48	C	2.018190	1.045680	-0.006075
C49	C	1.518241	0.627479	-0.506095
C50	C	2.018241	1.127479	-0.006095
C51	C	1.585582	0.815670	-0.439040
C52	C	2.085582	1.315670	0.060960
C53	C	1.585631	0.892529	-0.439072
C54	C	2.085631	1.392529	0.060928
C55	C	1.451171	0.892526	-0.573334
C56	C	1.951171	1.392526	-0.073334
C57	C	1.451128	0.815668	-0.573307
C58	C	1.951128	1.315668	-0.073307
C59	C	1.518332	0.777243	-0.506154
C60	C	2.018332	1.277243	-0.006154
C61	C	1.518424	0.930959	-0.506212
C62	C	2.018424	1.430959	-0.006212
C63	C	1.518477	1.014292	-0.506247
C64	C	2.018477	1.514292	-0.006247
C65	C	1.518281	0.693904	-0.506121
C66	C	2.018281	1.193904	-0.006121
C67	C	1.792329	0.354488	-0.506127
C68	C	2.292329	0.854488	-0.006127
C69	C	1.909106	0.354494	-0.506133
C70	C	2.409106	0.854494	-0.006133
C71	C	1.518370	0.354399	-0.780145
C72	C	2.018370	0.854399	-0.280145
C73	C	1.518401	0.354368	-0.896922
C74	C	2.018401	0.854368	-0.396922
C75	C	1.518438	1.162521	-0.506190
C76	C	2.018438	1.662521	-0.006190
C77	C	1.518515	1.080722	-0.506272
C78	C	2.018515	1.580722	-0.006272
C79	C	1.451262	0.307287	-0.951794
C80	C	1.951262	0.807287	-0.451794
C81	C	1.451286	0.307264	-1.061518
C82	C	1.951286	0.807264	-0.561518
C83	C	1.585598	0.401406	-1.061488
C84	C	2.085598	0.901406	-0.561488
C85	C	1.585567	0.401432	-0.951766
C86	C	2.085567	0.901432	-0.451766
C87	C	1.518284	0.354495	-0.233144
C88	C	2.018284	0.854495	0.266856
C89	C	1.518456	0.354319	-0.116368
C90	C	2.018456	0.854319	0.383632
H91	H	0.919284	0.269004	-0.384431
H92	H	1.419284	0.769004	0.115569
H93	H	1.118362	0.439963	-0.627799
H94	H	1.618362	0.939963	-0.127799
Br95	Br	1.359969	0.944679	-0.664464
Br96	Br	1.859969	1.444679	-0.164464
Br97	Br	1.676684	0.465338	-0.877289
Br98	Br	2.176684	0.965338	-0.377289
Br99	Br	1.676787	0.763523	-0.347906
Br100	Br	2.176787	1.263523	0.152094
H101	H	1.396365	0.784378	-0.627964
H102	H	1.896365	1.284378	-0.127964
Br103	Br	1.676909	0.944678	-0.347990
Br104	Br	2.176909	1.444678	0.152010
H105	H	1.396570	0.268964	-0.907143
H106	H	1.896570	0.768964	-0.407143
H107	H	0.919315	0.439978	-0.627823
H108	H	1.419315	0.939978	-0.127823
H109	H	1.396614	0.268926	-1.106190
H110	H	1.896614	0.768926	-0.606190
Br111	Br	1.148126	0.243405	-0.348008
Br112	Br	1.648126	0.743405	0.151992
H113	H	1.640283	0.439723	-1.106155
H114	H	2.140283	0.939723	-0.606155
