data_functionalizedCrystal
_audit_creation_method	'MofGen! by Chris Wilmer'
_symmetry_space_group_name_H-M	'P1'
_symmetry_Int_Tables_number	1
_symmetry_cell_setting	triclinic
loop_
_symmetry_equiv_pos_as_xyz
  x,y,z
_cell_length_a	19.077105
_cell_length_b	16.625545
_cell_length_c	19.076919
_cell_angle_alpha	92.272080
_cell_angle_beta	90.076224
_cell_angle_gamma	87.721938
loop_
_atom_site_label
_atom_site_type_symbol
_atom_site_fract_x
_atom_site_fract_y
_atom_site_fract_z
Zn1	Zn	1.058264	-0.390077	-0.440420
Zn2	Zn	1.062901	-0.519720	-0.322913
Zn3	Zn	0.945482	-0.379275	-0.318213
Zn4	Zn	0.940723	-0.519233	-0.435666
O5	O	1.001842	-0.452076	-0.379303
O6	O	1.157211	-0.411998	-0.428789
O7	O	1.051258	-0.496772	-0.223959
O8	O	0.960493	-0.267879	-0.334446
O9	O	1.160618	-0.507246	-0.342457
O10	O	1.043354	-0.275815	-0.424231
O11	O	0.964990	-0.393588	-0.220505
O12	O	0.846519	-0.393117	-0.329837
O13	O	0.952383	-0.506417	-0.534628
O14	O	0.843023	-0.495944	-0.416129
O15	O	1.038739	-0.411526	-0.538120
O16	O	1.046644	-0.632484	-0.337848
O17	O	0.956880	-0.632127	-0.420687
C18	C	0.819274	-0.443306	-0.371957
C19	C	0.741170	-0.439574	-0.368832
C20	C	0.702678	-0.491432	-0.412220
C21	C	0.629291	-0.487915	-0.409287
C22	C	0.594397	-0.432544	-0.362960
C23	C	0.632895	-0.380681	-0.319570
C24	C	0.706281	-0.384194	-0.322508
C25	C	0.375110	-0.416283	-0.349368
C26	C	0.301719	-0.412775	-0.346432
C27	C	0.298120	-0.520009	-0.436150
C28	C	0.371507	-0.523521	-0.439080
C29	C	0.409999	-0.471655	-0.395693
N30	N	0.519384	-0.428950	-0.359959
N31	N	0.485011	-0.475246	-0.398698
C32	C	1.001767	-0.661562	-0.379278
C33	C	1.001798	-0.751186	-0.379293
C34	C	1.001825	-0.823970	-0.379308
C35	C	1.001865	-0.915281	-0.379325
C36	C	1.001901	-0.988060	-0.379336
C37	C	1.001941	-1.079376	-0.379352
C38	C	1.185123	-0.460881	-0.386678
C39	C	1.263227	-0.464633	-0.389820
C40	C	0.994513	-0.460122	-0.562583
C41	C	0.991389	-0.463551	-0.640686
C42	C	1.001937	-0.241773	-0.379344
C43	C	1.001977	-0.152155	-0.379362
C44	C	1.034881	-0.415760	-0.679199
C45	C	1.031938	-0.418978	-0.752584
C46	C	0.985506	-0.469993	-0.787457
C47	C	0.942010	-0.517786	-0.748939
C48	C	0.944950	-0.514563	-0.675554
C49	C	0.971888	-0.484926	-1.006738
C50	C	0.968952	-0.488147	-1.080128
C51	C	1.058880	-0.389338	-1.083768
C52	C	1.061819	-0.386123	-1.010382
C53	C	1.018320	-0.433913	-0.971871
N54	N	0.982498	-0.473285	-0.862469
N55	N	1.021325	-0.430615	-0.896860
C56	C	1.009184	-0.444005	-0.196737
C57	C	1.012444	-0.440355	-0.118640
H58	H	0.406441	-0.374056	-0.314033
C59	C	0.450269	-0.542985	-0.536891
C60	C	0.409858	-0.584381	-0.490011
H61	H	0.473947	-0.580560	-0.568330
H62	H	0.420579	-0.507721	-0.562672
H63	H	0.483698	-0.512609	-0.511462
H64	H	0.376426	-0.614753	-0.515439
H65	H	0.439550	-0.619660	-0.464227
H66	H	0.904201	-0.559320	-0.777338
H67	H	0.737620	-0.341962	-0.287180
H68	H	0.909527	-0.553471	-0.644198
H69	H	0.597953	-0.530144	-0.444618
H70	H	0.604479	-0.335593	-0.281853
H71	H	1.094293	-0.350428	-1.115132
C72	C	0.784784	-0.604286	-0.425122
C73	C	0.741028	-0.552300	-0.463144
H74	H	0.808454	-0.641865	-0.456564
H75	H	0.818211	-0.573907	-0.399709
H76	H	0.757357	-0.632353	-0.393315
H77	H	0.768456	-0.524228	-0.494948
H78	H	0.707597	-0.582683	-0.488569
C79	C	1.074894	-0.274480	-0.928302
C80	C	1.112838	-0.330008	-0.972067
H81	H	1.106389	-0.239832	-0.904650
H82	H	1.043137	-0.243460	-0.955714
H83	H	1.049431	-0.302492	-0.894853
H84	H	1.138296	-0.301996	-1.005520
H85	H	1.144606	-0.361031	-0.944653
C86	C	0.184027	-0.562235	-0.471490
C87	C	0.255809	-0.577011	-0.483846
H88	H	0.157907	-0.597423	-0.500943
H89	H	0.173877	-0.571307	-0.423784
H90	H	0.171613	-0.507956	-0.481375
H91	H	0.268223	-0.631289	-0.473956
H92	H	0.265963	-0.567945	-0.531563
C93	C	0.938479	-0.618812	-0.982749
C94	C	0.924066	-0.537454	-0.964419
H95	H	0.908953	-0.651239	-0.956619
H96	H	0.930093	-0.628023	-1.031441
H97	H	0.986165	-0.632353	-0.972605
H98	H	0.876381	-0.523911	-0.974567
H99	H	0.932446	-0.528239	-0.915716
H100	H	0.273311	-0.367676	-0.308711
H101	H	1.072693	-0.374221	-0.650811
C102	C	1.121131	-0.321000	-0.748812
C103	C	1.079750	-0.366450	-0.794917
H104	H	1.150652	-0.288574	-0.774948
H105	H	1.091679	-0.287429	-0.718963
H106	H	1.149135	-0.356177	-0.721264
H107	H	1.051742	-0.331273	-0.822462
H108	H	1.109205	-0.400024	-0.824778
C109	C	0.955821	-0.599754	-1.162245
C110	C	0.917905	-0.544217	-1.118464
H111	H	0.924308	-0.634368	-1.185909
H112	H	0.981304	-0.571752	-1.195676
H113	H	0.987560	-0.630815	-1.134835
H114	H	0.886170	-0.513151	-1.145874
H115	H	0.892411	-0.572221	-1.085029
