data_functionalizedCrystal
_audit_creation_method	'MofGen! by Chris Wilmer'
_symmetry_space_group_name_H-M	'P1'
_symmetry_Int_Tables_number	1
_symmetry_cell_setting	triclinic
loop_
_symmetry_equiv_pos_as_xyz
  x,y,z
_cell_length_a	17.019311
_cell_length_b	17.038272
_cell_length_c	9.730223
_cell_angle_alpha	89.996977
_cell_angle_beta	86.115846
_cell_angle_gamma	87.245400
loop_
_atom_site_label
_atom_site_type_symbol
_atom_site_fract_x
_atom_site_fract_y
_atom_site_fract_z
O1	O	1.053365	0.099627	-0.238956
O2	O	1.553365	0.599627	0.261044
O3	O	0.824552	0.112322	-0.211879
O4	O	1.324552	0.612322	0.288121
O5	O	0.937598	-0.007840	-0.225246
O6	O	1.437598	0.492160	0.274754
O7	O	0.940318	0.219788	-0.225589
O8	O	1.440318	0.719788	0.274411
O9	O	0.937588	-0.007839	0.003335
O10	O	1.437588	0.492161	0.503335
O11	O	0.824541	0.112322	0.016702
O12	O	1.324541	0.612322	0.516702
O13	O	1.053354	0.099628	-0.010375
O14	O	1.553354	0.599628	0.489625
Zn15	Zn	0.938946	0.105975	0.039456
Zn16	Zn	1.438946	0.605975	0.539456
Zn17	Zn	0.938960	0.105974	-0.261710
Zn18	Zn	1.438960	0.605974	0.238290
O19	O	0.940307	0.219789	0.002992
O20	O	1.440307	0.719789	0.502992
C21	C	0.795125	0.111840	-0.094107
C22	C	1.295125	0.611840	0.405893
C23	C	0.707458	0.110393	-0.083732
C24	C	1.207458	0.610393	0.416268
C25	C	0.211627	0.102237	-0.018808
C26	C	0.711627	0.602237	0.481192
C27	C	0.294000	0.103596	-0.028559
C28	C	0.794000	0.603596	0.471441
C29	C	0.335192	0.104269	-0.158036
C30	C	0.835192	0.604269	0.341964
C31	C	0.294008	0.103591	-0.277770
C32	C	0.794008	0.603591	0.222230
C33	C	0.211636	0.102237	-0.268018
C34	C	0.711636	0.602237	0.231982
C35	C	0.583901	0.108361	-0.193714
C36	C	1.083901	0.608361	0.306286
C37	C	0.666279	0.109713	-0.203458
C38	C	1.166279	0.609713	0.296542
C39	C	0.666265	0.109719	0.045755
C40	C	1.166265	0.609719	0.545755
C41	C	0.583892	0.108360	0.055496
C42	C	1.083892	0.608360	0.555496
C43	C	0.542714	0.107686	-0.064238
C44	C	1.042714	0.607686	0.435762
C45	C	0.419391	0.105656	-0.168006
C46	C	0.919391	0.605656	0.331994
C47	C	0.458517	0.106305	-0.054267
C48	C	0.958517	0.606305	0.445733
C49	C	0.935119	-0.036966	-0.110663
C50	C	1.435119	0.463034	0.389337
C51	C	0.927739	-0.123753	-0.109790
C52	C	1.427739	0.376247	0.390210
C53	C	0.995499	-0.173923	-0.117807
C54	C	1.495499	0.326077	0.382193
C55	C	0.988560	-0.255468	-0.116998
C56	C	1.488560	0.244532	0.383002
C57	C	0.913860	-0.286841	-0.108163
C58	C	1.413860	0.213159	0.391837
C59	C	0.846094	-0.236664	-0.100150
C60	C	1.346094	0.263336	0.399850
C61	C	0.853034	-0.155120	-0.100968
C62	C	1.353034	0.344880	0.399032
C63	C	0.889342	-0.532578	-0.105281
C64	C	1.389342	-0.032578	0.394719
C65	C	0.882407	-0.614128	-0.104459
C66	C	1.382407	-0.114128	0.395541
C67	C	1.024873	-0.632926	-0.121311
C68	C	1.524873	-0.132926	0.378689
C69	C	1.031806	-0.551381	-0.122120
C70	C	1.531806	-0.051381	0.377880
C71	C	0.964041	-0.501211	-0.114113
C72	C	1.464041	-0.001211	0.385887
C73	C	0.906765	-0.370192	-0.107333
C74	C	1.406765	0.129808	0.392667
C75	C	0.971137	-0.417861	-0.114954
C76	C	1.471137	0.082139	0.385046
C77	C	1.082781	0.100110	-0.128150
C78	C	1.582781	0.600110	0.371850
C79	C	1.170448	0.101556	-0.138534
C80	C	1.670448	0.601556	0.361466
C81	C	0.942786	0.248915	-0.111594
C82	C	1.442786	0.748915	0.388406
C83	C	0.950167	0.335702	-0.112476
C84	C	1.450167	0.835702	0.387524
N85	N	0.938942	0.105975	0.244993
N86	N	1.438942	0.605975	0.744993
N87	N	0.938970	0.105968	-0.467247
N88	N	1.438970	0.605968	0.032753
C89	C	0.888876	0.159159	0.322874
C90	C	1.388876	0.659159	0.822874
C91	C	0.888892	0.159158	0.466755
C92	C	1.388892	0.659158	0.966755
C93	C	0.989041	0.052781	0.454861
C94	C	1.489041	0.552781	0.954861
C95	C	0.989028	0.052787	0.310982
C96	C	1.489028	0.552787	0.810982
C97	C	0.831054	0.220573	0.329742
C98	C	1.331054	0.720573	0.829742
C99	C	0.831070	0.220571	0.473623
C100	C	1.331070	0.720571	0.973623
H101	H	0.178093	0.101692	0.086626
H102	H	0.678093	0.601692	0.586626
N103	N	0.765521	-0.270492	-0.090621
N104	N	1.265521	0.229508	0.409379
H105	H	0.759470	-0.303904	-0.174638
H106	H	1.259470	0.196096	0.325362
H107	H	0.759511	-0.303867	-0.005117
H108	H	1.259511	0.196133	0.494883
N109	N	0.710708	0.110445	-0.343117
N110	N	1.210708	0.610445	0.156883
H111	H	0.769138	0.111399	-0.331120
H112	H	1.269138	0.611399	0.168880
H113	H	0.699450	0.061767	-0.396191
H114	H	1.199450	0.561767	0.103809
N115	N	1.043034	-0.004567	0.226974
N116	N	1.543034	0.495433	0.726974
H117	H	1.099619	0.004417	0.245300
H118	H	1.599619	0.504417	0.745300
H119	H	1.030173	-0.060029	0.253568
H120	H	1.530173	0.439971	0.753568
N121	N	1.043058	-0.004587	0.526035
N122	N	1.543058	0.495413	1.026035
H123	H	1.099639	0.004396	0.494272
H124	H	1.599639	0.504396	0.994272
H125	H	1.035405	0.003510	0.628983
H126	H	1.535405	0.503510	1.128983
H127	H	0.327524	0.104148	0.068934
H128	H	0.827524	0.604148	0.568934
H129	H	0.853542	0.277171	0.515579
H130	H	1.353542	0.777171	1.015579
H131	H	1.080043	-0.673783	-0.127831
H132	H	1.580043	-0.173783	0.372169
H133	H	0.797857	-0.114272	-0.094440
H134	H	1.297857	0.385728	0.405560
N135	N	0.749793	0.203612	0.535017
N136	N	1.249793	0.703612	1.035017
H137	H	0.713514	0.196039	0.458636
H138	H	1.213514	0.696039	0.958636
H139	H	0.752916	0.154289	0.592355
H140	H	1.252916	0.654289	1.092355
H141	H	0.699801	0.110269	0.143235
H142	H	1.199801	0.610269	0.643235
H143	H	0.845943	-0.395745	-0.100136
H144	H	1.345943	0.104255	0.399864
H145	H	0.550360	0.107795	0.160929
H146	H	1.050360	0.607795	0.660929
H147	H	0.848014	0.280541	0.288684
H148	H	1.348014	0.780541	0.788684
N149	N	0.539495	0.107623	-0.322850
N150	N	1.039495	0.607623	0.177150
H151	H	0.578092	0.108248	-0.406349
H152	H	1.078092	0.608248	0.093651
H153	H	0.508461	0.058618	-0.324586
H154	H	1.008461	0.558618	0.175414
H155	H	0.327553	0.104144	-0.383194
H156	H	0.827553	0.604144	0.116806
H157	H	0.772701	0.202089	0.292043
H158	H	1.272701	0.702089	0.792043
N159	N	0.167217	0.101507	-0.397149
N160	N	0.667217	0.601507	0.102851
H161	H	0.205810	0.102138	-0.480653
H162	H	0.705810	0.602138	0.019347
H163	H	0.136179	0.052505	-0.398895
H164	H	0.636179	0.552505	0.101105
N165	N	0.414087	0.105581	0.085374
N166	N	0.914087	0.605581	0.585374
H167	H	0.382201	0.057120	0.093876
H168	H	0.882201	0.557120	0.593876
H169	H	0.452776	0.105155	0.159653
H170	H	0.952776	0.605155	0.659653
N171	N	0.463824	0.106369	-0.307652
N172	N	0.963824	0.606369	0.192348
H173	H	0.425242	0.105728	-0.382027
H174	H	0.925242	0.605728	0.117973
H175	H	0.494861	0.155372	-0.316765
H176	H	0.994861	0.655372	0.183235
H177	H	1.056328	-0.148387	-0.124993
H178	H	1.556328	0.351613	0.375007
H179	H	1.043738	-0.296314	-0.123524
H180	H	1.543738	0.203686	0.376476
H181	H	1.092635	-0.525844	-0.129314
H182	H	1.592635	-0.025844	0.370686
N183	N	0.801834	-0.647968	-0.094932
N184	N	1.301834	-0.147968	0.405068
H185	H	0.759957	-0.603813	-0.089988
H186	H	1.259957	-0.103813	0.410012
H187	H	0.795863	-0.681391	-0.178962
H188	H	1.295863	-0.181391	0.321038
H189	H	0.834162	-0.491739	-0.098761
H190	H	1.334162	0.008261	0.401239
N191	N	1.051705	-0.384030	-0.124471
N192	N	1.551705	0.115970	0.375529
H193	H	1.057768	-0.350610	-0.209917
H194	H	1.557768	0.149390	0.290083
H195	H	1.057691	-0.350659	-0.040383
H196	H	1.557691	0.149341	0.459617
