data_functionalizedCrystal
_audit_creation_method	'MofGen! by Chris Wilmer'
_symmetry_space_group_name_H-M	'P1'
_symmetry_Int_Tables_number	1
_symmetry_cell_setting	triclinic
loop_
_symmetry_equiv_pos_as_xyz
  x,y,z
_cell_length_a	10.540514
_cell_length_b	10.540539
_cell_length_c	13.101018
_cell_angle_alpha	86.605148
_cell_angle_beta	93.396424
_cell_angle_gamma	84.520326
loop_
_atom_site_label
_atom_site_type_symbol
_atom_site_fract_x
_atom_site_fract_y
_atom_site_fract_z
O1	O	1.692835	0.171809	0.085223
O2	O	1.323418	0.188698	0.085221
O3	O	1.516554	-0.004454	0.085221
O4	O	1.499698	0.364961	0.085223
O5	O	1.502681	0.009417	-0.085209
O6	O	1.309544	0.202569	-0.085209
O7	O	1.678961	0.185679	-0.085208
Zn8	Zn	1.492050	0.196326	-0.112268
Zn9	Zn	1.510329	0.178051	0.112282
O10	O	1.485825	0.378831	-0.085207
C11	C	1.269177	0.194374	0.000006
C12	C	1.128228	0.190605	0.000006
C13	C	1.057522	0.328744	0.000009
C14	C	0.910941	0.324838	0.000401
C15	C	0.943797	0.107572	0.097146
C16	C	1.090343	0.112419	0.097222
C17	C	1.074969	0.126149	-0.096596
C18	C	0.927886	0.124920	-0.097867
C19	C	1.508353	-0.044821	0.000008
C20	C	1.504572	-0.185770	0.000013
C21	C	1.359684	-0.369214	0.000395
C22	C	1.363487	-0.222565	0.000011
C23	C	1.564546	-0.239513	-0.097311
C24	C	1.559724	-0.386050	-0.097393
C25	C	1.578370	-0.402342	0.096418
C26	C	1.579774	-0.255465	0.097705
C27	C	1.733202	0.180004	0.000010
C28	C	1.874152	0.183772	0.000017
C29	C	1.494026	0.419199	0.000009
C30	C	1.497808	0.560146	0.000010
N31	N	1.479585	0.208798	-0.265517
C32	C	1.539757	0.148597	-0.525426
C33	C	1.462636	0.225767	-0.474553
C34	C	1.472069	0.216323	-0.358234
C35	C	1.530326	0.158039	-0.641756
N36	N	1.522804	0.165570	0.265531
H37	H	1.122148	0.024332	-0.097534
H38	H	1.612864	0.075443	-0.481627
F39	F	1.714847	-0.224438	0.105394
F40	F	1.486392	-0.415167	-0.192482
F41	F	1.134993	0.169862	0.192487
F42	F	1.104426	0.393523	0.090917
H43	H	1.389526	0.298927	-0.518358
F44	F	1.153535	-0.020652	0.102636
H45	H	1.080393	0.390451	-0.069633
F46	F	0.847765	0.402463	-0.090580
H47	H	1.309634	-0.403489	0.070188
F48	F	0.863841	0.387297	0.091945
H49	H	0.921755	0.003668	0.100483
H50	H	1.680329	-0.449630	0.097073
F51	F	0.895613	-0.008851	-0.105919
F52	F	1.108298	0.194086	-0.192854
F53	F	0.895929	0.161127	0.191989
H54	H	1.535956	-0.220462	0.169703
H55	H	1.315742	-0.185635	0.069777
F56	F	0.866657	0.197797	-0.191792
H57	H	1.303999	-0.175117	-0.069871
F58	F	1.691874	-0.448294	-0.103174
F59	F	1.279580	-0.401757	-0.090069
F60	F	1.699586	-0.209924	-0.102044
F61	F	1.495194	-0.176126	-0.191978
F62	F	1.526527	-0.451411	0.192836
