data_functionalizedCrystal
_audit_creation_method	'MofGen! by Chris Wilmer'
_symmetry_space_group_name_H-M	'P1'
_symmetry_Int_Tables_number	1
_symmetry_cell_setting	triclinic
loop_
_symmetry_equiv_pos_as_xyz
  x,y,z
_cell_length_a	27.732048
_cell_length_b	27.732048
_cell_length_c	7.540329
_cell_angle_alpha	89.991480
_cell_angle_beta	90.002547
_cell_angle_gamma	82.642655
loop_
_atom_site_label
_atom_site_type_symbol
_atom_site_fract_x
_atom_site_fract_y
_atom_site_fract_z
O1	O	0.640926	0.057516	-0.147273
O2	O	0.500133	0.066262	-0.147329
O3	O	0.574902	-0.008508	-0.147265
O4	O	0.566157	0.132286	-0.147336
O5	O	0.574898	-0.008509	0.147700
O6	O	0.500128	0.066261	0.147636
O7	O	0.640922	0.057515	0.147692
Cu8	Cu	0.570525	0.061888	0.174597
Cu9	Cu	0.570530	0.061889	-0.174234
O10	O	0.566152	0.132285	0.147629
C11	C	0.482124	0.066078	0.000147
C12	C	0.428469	0.065525	0.000127
C13	C	0.089654	0.106229	0.000183
C14	C	-0.112006	0.104178	0.000200
O15	O	-0.143262	0.141398	0.000258
N16	N	-0.131130	0.059843	0.000219
C17	C	-0.099835	0.016017	0.000246
O18	O	-0.120728	-0.021740	0.000281
C19	C	0.101824	0.018068	0.000241
C20	C	0.120944	0.062407	0.000204
C21	C	0.108775	0.150563	0.000148
C22	C	0.159187	0.151075	0.000134
C23	C	0.190477	0.107253	0.000155
C24	C	0.171356	0.062919	0.000190
C25	C	0.133117	-0.025757	0.000281
C26	C	0.183535	-0.025240	0.000284
C27	C	0.202655	0.019098	0.000247
C28	C	0.253059	0.019609	0.000198
N29	N	0.272183	0.063944	0.000179
C30	C	0.240892	0.107766	0.000157
C31	C	-0.205709	0.014943	0.000244
C32	C	-0.256124	0.014430	0.000242
C33	C	-0.268291	0.102591	0.000200
C34	C	-0.217876	0.103104	0.000189
C35	C	-0.186585	0.059278	0.000225
C36	C	0.346761	0.108839	0.000127
C37	C	0.397178	0.109347	0.000105
C38	C	0.409341	0.021186	0.000157
C39	C	0.358929	0.020678	0.000169
C40	C	0.327639	0.064508	0.000160
O41	O	0.284343	-0.017592	0.000160
O42	O	0.261794	0.145518	0.000162
C43	C	0.039242	0.105716	0.000197
C44	C	0.020120	0.061382	0.000232
C45	C	0.051411	0.017560	0.000253
C46	C	-0.030294	0.060869	0.000230
C47	C	-0.061585	0.104691	0.000209
C48	C	-0.042461	0.149026	0.000189
C49	C	0.007951	0.149539	0.000176
C50	C	0.032287	-0.026775	0.000273
C51	C	-0.018125	-0.027284	0.000284
C52	C	-0.049416	0.016538	0.000263
C53	C	0.574716	-0.026515	0.000222
C54	C	0.574164	-0.080170	0.000236
C55	C	0.614867	-0.418985	0.000162
C56	C	0.612816	-0.620645	0.000136
O57	O	0.650037	-0.651900	0.000073
N58	N	0.568481	-0.639768	0.000120
C59	C	0.524656	-0.608474	0.000099
O60	O	0.486899	-0.629367	0.000066
C61	C	0.526707	-0.406815	0.000111
C62	C	0.571045	-0.387694	0.000145
C63	C	0.659202	-0.399864	0.000194
C64	C	0.659714	-0.349452	0.000210
C65	C	0.615892	-0.318161	0.000194
C66	C	0.571557	-0.337282	0.000162
C67	C	0.482882	-0.375521	0.000077
C68	C	0.483399	-0.325104	0.000076
C69	C	0.527737	-0.305983	0.000110
C70	C	0.528248	-0.255580	0.000162
N71	N	0.572583	-0.236456	0.000178
C72	C	0.616405	-0.267747	0.000194
C73	C	0.523582	-0.714348	0.000095
C74	C	0.523069	-0.764762	0.000095
C75	C	0.611230	-0.776930	0.000129
C76	C	0.611742	-0.726514	0.000142
C77	C	0.567917	-0.695224	0.000111
C78	C	0.617477	-0.161878	0.000229
C79	C	0.617986	-0.111461	0.000252
C80	C	0.529825	-0.099298	0.000209
C81	C	0.529316	-0.149710	0.000195
C82	C	0.573147	-0.180999	0.000199
O83	O	0.491047	-0.224296	0.000204
O84	O	0.654156	-0.246844	0.000187
C85	C	0.614355	-0.469397	0.000145
C86	C	0.570021	-0.488518	0.000113
C87	C	0.526198	-0.457228	0.000097
C88	C	0.569508	-0.538933	0.000113
C89	C	0.613330	-0.570223	0.000129
C90	C	0.657665	-0.551100	0.000145
C91	C	0.658177	-0.500688	0.000161
C92	C	0.481863	-0.476351	0.000081
C93	C	0.481355	-0.526764	0.000067
C94	C	0.525177	-0.558054	0.000083
C95	C	0.658931	0.057699	0.000213
C96	C	0.712586	0.058252	0.000221
C97	C	0.566338	0.150292	0.000137
C98	C	0.566891	0.203947	0.000111
N99	N	0.570524	0.061887	0.419945
N100	N	0.570534	0.061886	-0.419582
H101	H	0.057760	-0.062462	0.000294
C102	C	0.666759	-0.090431	0.000279
H103	H	0.692784	-0.116290	0.000267
H104	H	0.668793	-0.071023	0.103144
H105	H	0.668793	-0.071012	-0.102590
H106	H	-0.202311	0.139207	0.000169
C107	C	0.312350	0.157051	0.000093
H108	H	0.330965	0.183525	0.000051
H109	H	0.292430	0.158691	0.102950
H110	H	0.292431	0.158682	-0.102785
H111	H	0.653168	-0.187348	0.000225
C112	C	0.708486	-0.328425	0.000213
H113	H	0.734508	-0.354287	0.000200
H114	H	0.710526	-0.309015	0.103069
H115	H	0.710519	-0.309010	-0.102665
H116	H	0.647846	-0.710950	0.000168
C117	C	0.659433	-0.811355	0.000119
H118	H	0.652773	-0.844117	0.000096
H119	H	0.677636	-0.805604	0.102973
H120	H	0.677623	-0.805589	-0.102762
H121	H	0.486964	-0.780325	0.000098
C122	C	0.481623	-0.064874	0.000180
H123	H	0.455142	-0.083479	0.000169
H124	H	0.479999	-0.044950	-0.102681
H125	H	0.479988	-0.044959	0.103053
C126	C	0.418208	0.158121	0.000074
H127	H	0.392349	0.184145	0.000083
H128	H	0.437619	0.160156	-0.102790
H129	H	0.437623	0.160153	0.102945
C130	C	0.180213	0.199848	0.000128
H131	H	0.154352	0.225869	0.000138
H132	H	0.199627	0.201889	-0.102727
H133	H	0.199625	0.201879	0.103007
H134	H	0.434827	-0.014492	0.000168
C135	C	0.475371	-0.679934	0.000086
H136	H	0.448897	-0.698549	0.000096
H137	H	0.473732	-0.660008	-0.102770
H138	H	0.473737	-0.660021	0.102964
H139	H	0.445246	-0.542327	0.000055
H140	H	0.694282	-0.485125	0.000189
H141	H	0.446777	-0.391080	0.000039
H142	H	0.023514	0.185643	0.000148
C143	C	-0.076887	0.197229	0.000172
H144	H	-0.109649	0.190569	0.000198
H145	H	-0.071132	0.215429	-0.102694
H146	H	-0.071124	0.215423	0.103041
C147	C	0.337894	-0.028092	0.000191
H148	H	0.363752	-0.054117	0.000206
H149	H	0.318475	-0.030126	-0.102657
H150	H	0.318487	-0.030125	0.103078
H151	H	0.447710	-0.299629	0.000048
C152	C	0.074362	0.198772	0.000109
H153	H	0.092978	0.225245	0.000074
H154	H	0.054440	0.200413	0.102960
H155	H	0.054445	0.200405	-0.102774
C156	C	0.480546	-0.170744	0.000153
H157	H	0.454521	-0.144886	0.000134
H158	H	0.478507	-0.190168	0.102993
H159	H	0.478519	-0.190147	-0.102741
C160	C	-0.039152	-0.076059	0.000330
H161	H	-0.013292	-0.102082	0.000359
H162	H	-0.058571	-0.078098	-0.102517
H163	H	-0.058559	-0.078090	0.103218
C164	C	0.112095	-0.074529	0.000346
H165	H	0.137958	-0.100550	0.000385
H166	H	0.092679	-0.076572	-0.102503
H167	H	0.092687	-0.076560	0.103232
C168	C	0.705868	-0.585526	0.000149
H169	H	0.699208	-0.618288	0.000121
H170	H	0.724067	-0.579775	0.103012
H171	H	0.724062	-0.579759	-0.102722
H172	H	-0.293777	0.138273	0.000183
C173	C	0.707411	-0.434276	0.000226
H174	H	0.733884	-0.415661	0.000258
H175	H	0.709053	-0.454195	-0.102627
H176	H	0.709042	-0.454197	0.103108
C177	C	-0.277151	-0.034342	0.000266
H178	H	-0.251291	-0.060365	0.000296
H179	H	-0.296567	-0.036378	-0.102590
H180	H	-0.296562	-0.036375	0.103144
H181	H	-0.180236	-0.020747	0.000274
C182	C	0.433656	-0.441938	0.000082
H183	H	0.407182	-0.460552	0.000085
H184	H	0.432018	-0.422009	-0.102766
H185	H	0.432023	-0.422028	0.102968
C186	C	0.217951	-0.073449	0.000304
H187	H	0.199340	-0.099925	0.000310
H188	H	0.237876	-0.075085	0.103156
H189	H	0.237865	-0.075081	-0.102579
