data_functionalizedCrystal
_audit_creation_method	'MofGen! by Chris Wilmer'
_symmetry_space_group_name_H-M	'P1'
_symmetry_Int_Tables_number	1
_symmetry_cell_setting	triclinic
loop_
_symmetry_equiv_pos_as_xyz
  x,y,z
_cell_length_a	14.044220
_cell_length_b	14.044220
_cell_length_c	13.101039
_cell_angle_alpha	86.326400
_cell_angle_beta	93.671687
_cell_angle_gamma	93.188878
loop_
_atom_site_label
_atom_site_type_symbol
_atom_site_fract_x
_atom_site_fract_y
_atom_site_fract_z
O1	O	-1.272352	-0.234979	0.085111
O2	O	-0.772352	0.265021	0.585111
O3	O	-0.995679	-0.226675	0.085137
O4	O	-0.495679	0.273325	0.585137
O5	O	-1.129863	-0.092490	0.085114
O6	O	-0.629863	0.407510	0.585114
O7	O	-1.138168	-0.369163	0.085133
O8	O	-0.638168	0.130837	0.585133
O9	O	-1.139494	-0.082850	-0.085318
O10	O	-0.639494	0.417150	0.414682
O11	O	-1.005310	-0.217035	-0.085295
O12	O	-0.505310	0.282965	0.414705
O13	O	-1.281983	-0.225339	-0.085321
O14	O	-0.781983	0.274661	0.414679
Zn15	Zn	-1.145176	-0.219656	-0.112367
Zn16	Zn	-0.645176	0.280344	0.387633
Zn17	Zn	-1.132486	-0.232357	0.112183
Zn18	Zn	-0.632486	0.267643	0.612183
O19	O	-1.147799	-0.359523	-0.085298
O20	O	-0.647799	0.140477	0.414702
C21	C	-0.964872	-0.218219	-0.000076
C22	C	-0.464872	0.281781	0.499924
C23	C	-0.858729	-0.207375	-0.000066
C24	C	-0.358729	0.292625	0.499934
C25	C	-1.131043	-0.052049	-0.000102
C26	C	-0.631043	0.447951	0.499898
C27	C	-1.120198	0.054094	-0.000102
C28	C	-0.620198	0.554094	0.499898
N29	N	-1.123826	-0.241019	0.265433
N30	N	-0.623826	0.258981	0.765433
C31	C	-1.312789	-0.233794	-0.000106
C32	C	-0.812789	0.266206	0.499894
C33	C	-1.418932	-0.244639	-0.000109
C34	C	-0.918932	0.255361	0.499891
C35	C	-0.664393	-0.187548	-0.000088
C36	C	-0.164393	0.312452	0.499912
C37	C	-0.613263	-0.264462	-0.000087
C38	C	-0.113263	0.235538	0.499913
C39	C	-0.505127	-0.253430	-0.000099
C40	C	-0.005127	0.246570	0.499901
C41	C	-0.772538	-0.198578	-0.000076
C42	C	-0.272538	0.301422	0.499924
C43	C	-1.146619	-0.399965	-0.000080
C44	C	-0.646619	0.100035	0.499920
C45	C	-1.157463	-0.506108	-0.000073
C46	C	-0.657463	-0.006108	0.499927
C47	C	-1.100371	0.248431	-0.000086
C48	C	-0.600371	0.748431	0.499914
C49	C	-1.177286	0.299561	-0.000090
C50	C	-0.677286	0.799561	0.499910
C51	C	-1.166254	0.407697	-0.000080
C52	C	-0.666254	0.907697	0.499920
C53	C	-1.111402	0.140285	-0.000095
C54	C	-0.611402	0.640285	0.499905
N55	N	-1.153843	-0.210988	-0.265617
N56	N	-0.653843	0.289012	0.234383
C57	C	-1.112035	-0.252802	0.474478
C58	C	-0.612035	0.247198	0.974478
C59	C	-1.165631	-0.199207	0.525345
C60	C	-0.665631	0.300793	1.025345
C61	C	-1.159070	-0.205764	0.641664
C62	C	-0.659070	0.294236	1.141664
C63	C	-1.118595	-0.246247	0.358148
C64	C	-0.618595	0.253753	0.858148
H65	H	-0.650701	-0.338596	-0.000077
H66	H	-0.150701	0.161404	0.499923
H67	H	-1.061226	-0.303606	0.518284
H68	H	-0.561226	0.196394	1.018284
C69	C	-1.234269	-0.130560	0.466161
C70	C	-0.734269	0.369440	0.966161
N71	N	-1.285961	-0.078854	0.421579
N72	N	-0.785961	0.421146	0.921579
C73	C	-1.277439	0.248986	-0.000113
C74	C	-0.777439	0.748986	0.499887
N75	N	-1.352872	0.210888	-0.000137
N76	N	-0.852872	0.710888	0.499863
H77	H	-0.626956	-0.113419	-0.000099
H78	H	-0.126956	0.386581	0.499901
C79	C	-1.000227	0.299008	-0.000090
C80	C	-0.500227	0.799008	0.499910
N81	N	-0.924799	0.337114	-0.000101
N82	N	-0.424799	0.837114	0.499899
