data_functionalizedCrystal
_audit_creation_method	'MofGen! by Chris Wilmer'
_symmetry_space_group_name_H-M	'P1'
_symmetry_Int_Tables_number	1
_symmetry_cell_setting	triclinic
loop_
_symmetry_equiv_pos_as_xyz
  x,y,z
_cell_length_a	15.944551
_cell_length_b	27.732048
_cell_length_c	15.021413
_cell_angle_alpha	89.999048
_cell_angle_beta	89.997174
_cell_angle_gamma	83.070697
loop_
_atom_site_label
_atom_site_type_symbol
_atom_site_fract_x
_atom_site_fract_y
_atom_site_fract_z
O1	O	1.113714	0.062334	-0.073949
O2	O	0.869064	0.070020	-0.073973
O3	O	0.998987	-0.004187	-0.073943
O4	O	0.983790	0.136541	-0.073979
O5	O	0.998966	-0.004176	0.074121
O6	O	0.869043	0.070030	0.074092
O7	O	1.113693	0.062345	0.074115
Zn8	Zn	0.991365	0.066189	0.097612
Zn9	Zn	0.991392	0.066175	-0.097469
O10	O	0.983770	0.136551	0.074086
C11	C	0.837763	0.069706	0.000057
C12	C	0.744530	0.068749	0.000049
C13	C	0.530305	0.020466	0.000078
C14	C	0.469001	0.042882	-0.072931
C15	C	0.573827	0.067019	0.000060
C16	C	0.469003	0.042904	0.073049
C17	C	0.408936	0.065344	0.000074
C18	C	0.513752	0.089448	-0.073010
C19	C	0.513760	0.089463	0.073036
C20	C	0.452474	0.111912	0.000009
C21	C	0.668816	0.067983	0.000051
C22	C	0.313947	0.064384	0.000077
C23	C	0.998658	-0.022190	0.000091
C24	C	0.997697	-0.075849	0.000099
C25	C	1.068426	-0.414358	0.000060
C26	C	1.064862	-0.616033	0.000047
O27	O	1.129539	-0.647008	0.000014
N28	N	0.987823	-0.635490	0.000040
C29	C	0.911669	-0.604525	0.000031
O30	O	0.846061	-0.625703	0.000016
C31	C	0.915234	-0.402851	0.000038
C32	C	0.992278	-0.383397	0.000053
C33	C	1.145464	-0.394903	0.000074
C34	C	1.146354	-0.344487	0.000082
C35	C	1.070206	-0.313526	0.000076
C36	C	0.993168	-0.332981	0.000061
C37	C	0.839081	-0.371887	0.000022
C38	C	0.839979	-0.321466	0.000021
C39	C	0.917024	-0.302012	0.000037
C40	C	0.917911	-0.251604	0.000063
N41	N	0.994950	-0.232147	0.000069
C42	C	1.071098	-0.263108	0.000076
C43	C	0.909803	-0.710408	0.000030
C44	C	0.908912	-0.760826	0.000030
C45	C	1.062105	-0.772330	0.000044
C46	C	1.062995	-0.721911	0.000050
C47	C	0.986842	-0.690950	0.000036
C48	C	1.072961	-0.157231	0.000093
C49	C	1.073845	-0.106810	0.000105
C50	C	0.920652	-0.095310	0.000086
C51	C	0.919768	-0.145727	0.000079
C52	C	0.995930	-0.176686	0.000080
O53	O	0.853269	-0.220600	0.000085
O54	O	1.136697	-0.241921	0.000071
C55	C	1.067536	-0.464774	0.000052
C56	C	0.990498	-0.484228	0.000037
C57	C	0.914350	-0.453268	0.000031
C58	C	0.989607	-0.534647	0.000037
C59	C	1.065754	-0.565608	0.000044
C60	C	1.142794	-0.546150	0.000050
C61	C	1.143684	-0.495734	0.000058
C62	C	0.837311	-0.472725	0.000024
C63	C	0.836427	-0.523141	0.000017
C64	C	0.912575	-0.554102	0.000023
C65	C	1.144993	0.062658	0.000084
C66	C	1.238227	0.063615	0.000086
C67	C	0.984099	0.154554	0.000049
C68	C	0.985059	0.208213	0.000036
N69	N	0.991352	0.066198	0.230749
N70	N	0.991411	0.066162	-0.230607
C71	C	0.931267	0.100495	0.470419
C72	C	1.007044	0.109879	0.529758
C73	C	0.991374	0.066186	0.412356
C74	C	0.915617	0.056813	0.529759
C75	C	0.991388	0.066176	0.587780
C76	C	1.067190	0.075592	0.470389
C77	C	0.975712	0.022507	0.470385
C78	C	1.051545	0.031872	0.529697
C79	C	0.991365	0.066194	0.311299
C80	C	0.991406	0.066168	0.688836
H81	H	0.449166	0.023209	0.134770
C82	C	0.837918	-0.061746	-0.000066
C83	C	0.791500	-0.070544	-0.076242
C84	C	0.715276	-0.039637	-0.076416
H85	H	0.849371	-0.028917	-0.000110
H86	H	0.806237	-0.067648	0.051532
H87	H	0.823174	-0.064639	-0.127827
H88	H	0.780024	-0.103366	-0.076215
H89	H	0.683595	-0.045539	-0.024817
H90	H	0.726738	-0.006810	-0.076457
H91	H	0.683769	-0.045605	-0.128096
C92	C	1.144871	-0.805870	0.000089
C93	C	1.212539	-0.778046	0.000111
C94	C	1.288791	-0.808928	0.000157
H95	H	1.147822	-0.825786	-0.051532
H96	H	1.147749	-0.825772	0.051741
H97	H	1.209663	-0.758153	-0.051536
H98	H	1.209616	-0.758131	0.051728
H99	H	1.291668	-0.828830	0.051809
H100	H	1.291733	-0.828843	-0.051465
H101	H	1.334712	-0.790055	0.000180
C102	C	1.227420	-0.474711	0.000022
C103	C	1.293907	-0.512624	0.000002
C104	C	1.371061	-0.493279	-0.000045
H105	H	1.231073	-0.455290	0.051642
H106	H	1.231009	-0.455296	-0.051631
H107	H	1.290320	-0.532031	0.051650
H108	H	1.290282	-0.532048	-0.051614
H109	H	1.374650	-0.473864	-0.051698
H110	H	1.374705	-0.473859	0.051576
H111	H	1.416181	-0.519000	-0.000066
H112	H	0.564143	-0.018169	-0.000003
C113	C	0.836145	-0.166877	0.000253
C114	C	0.831132	-0.195482	0.076431
C115	C	0.754105	-0.214964	0.076618
H116	H	0.832536	-0.186335	-0.051326
H117	H	0.790900	-0.141227	0.000302
H118	H	0.876365	-0.221129	0.076374
H119	H	0.834727	-0.176036	0.128022
H120	H	0.708859	-0.189314	0.076667
H121	H	0.750502	-0.234419	0.025035
H122	H	0.750690	-0.234371	0.128307
H123	H	0.851544	0.048890	0.555840
H124	H	0.418809	0.150587	-0.000042
H125	H	1.020304	0.146814	0.555837
H126	H	0.846175	-0.776661	0.000032
C127	C	0.958122	-0.026771	0.435696
C128	C	1.020346	-0.062698	0.467051
C129	C	1.004153	-0.108098	0.435121
H130	H	0.958787	-0.026562	0.372465
H131	H	0.904264	-0.033411	0.456013
H132	H	1.074190	-0.056060	0.446730
H133	H	1.019692	-0.062922	0.530278
H134	H	0.950295	-0.114738	0.455438
H135	H	1.004818	-0.107884	0.371891
H136	H	1.046364	-0.132480	0.456397
H137	H	0.449157	0.023188	-0.134645
H138	H	1.204796	-0.571368	0.000059
H139	H	0.533491	0.109118	-0.134801
H140	H	0.533625	0.109141	0.134753
C141	C	1.157584	-0.085783	0.000072
C142	C	1.224077	-0.123692	0.000049
C143	C	1.301227	-0.104342	0.000005
H144	H	1.161233	-0.066363	0.051694
H145	H	1.161169	-0.066366	-0.051579
H146	H	1.220494	-0.143101	0.051695
H147	H	1.220457	-0.143115	-0.051569
H148	H	1.304812	-0.084925	-0.051647
H149	H	1.304867	-0.084923	0.051628
H150	H	1.346351	-0.130061	-0.000019
C151	C	1.155624	-0.190862	-0.000084
C152	C	1.159623	-0.220134	-0.076273
C153	C	1.235763	-0.251116	-0.076466
H154	H	1.158538	-0.210817	0.051488
H155	H	1.201651	-0.172066	-0.000121
H156	H	1.113609	-0.238929	-0.076228
H157	H	1.156724	-0.200192	-0.127857
H158	H	1.281790	-0.232319	-0.076503
H159	H	1.238670	-0.271067	-0.024891
H160	H	1.238490	-0.270977	-0.128163
H161	H	1.209091	-0.328652	0.000091
H162	H	0.773684	-0.538976	0.000012
C163	C	1.146582	-0.700724	-0.000081
C164	C	1.151574	-0.672108	-0.076247
C165	C	1.228560	-0.652581	-0.076395
H166	H	1.191873	-0.726338	-0.000121
H167	H	1.150118	-0.681267	0.051524
H168	H	1.148046	-0.691564	-0.127839
H169	H	1.106301	-0.646487	-0.076223
H170	H	1.232096	-0.633124	-0.024790
H171	H	1.273845	-0.678198	-0.076433
H172	H	1.231954	-0.633159	-0.128068
H173	H	1.207476	-0.420107	0.000076
C174	C	0.827026	-0.676877	0.000070
C175	C	0.759377	-0.704715	0.000090
C176	C	0.683111	-0.673847	0.000145
H177	H	0.824065	-0.656958	-0.051548
H178	H	0.824135	-0.656978	0.051725
H179	H	0.762267	-0.724606	-0.051560
H180	H	0.762310	-0.724634	0.051704
H181	H	0.680219	-0.653947	0.051800
H182	H	0.680159	-0.653928	-0.051474
H183	H	0.637202	-0.692730	0.000167
H184	H	1.131275	0.083560	0.444419
H185	H	0.776344	-0.387718	0.000004
H186	H	0.777965	-0.296260	0.000009
C187	C	0.863678	0.139242	0.435577
C188	C	0.901483	0.172303	0.383028
C189	C	0.839252	0.208000	0.350905
H190	H	0.835298	0.155888	0.484263
H191	H	0.824204	0.124382	0.400729
H192	H	0.940942	0.187163	0.417874
H193	H	0.929859	0.155672	0.334329
H194	H	0.799778	0.193139	0.316058
H195	H	0.810875	0.224642	0.399596
H196	H	0.864893	0.230433	0.315241
H197	H	0.775301	-0.447521	0.000017
C198	C	1.119526	-0.006764	0.564145
C199	C	1.198658	0.003275	0.533917
C200	C	1.261304	-0.032299	0.565644
H201	H	1.108967	-0.037732	0.542936
H202	H	1.118909	-0.006730	0.627388
H203	H	1.199273	0.003236	0.470686
H204	H	1.209244	0.034236	0.555123
H205	H	1.260688	-0.032266	0.628888
H206	H	1.250737	-0.063265	0.544433
H207	H	1.315003	-0.025491	0.545146
