data_functionalizedCrystal
_audit_creation_method	'MofGen! by Chris Wilmer'
_symmetry_space_group_name_H-M	'P1'
_symmetry_Int_Tables_number	1
_symmetry_cell_setting	triclinic
loop_
_symmetry_equiv_pos_as_xyz
  x,y,z
_cell_length_a	14.908571
_cell_length_b	14.909229
_cell_length_c	21.395356
_cell_angle_alpha	86.720557
_cell_angle_beta	86.691234
_cell_angle_gamma	96.363944
loop_
_atom_site_label
_atom_site_type_symbol
_atom_site_fract_x
_atom_site_fract_y
_atom_site_fract_z
Zn1	Zn	1.404488	0.440337	-0.428138
Zn2	Zn	1.904488	0.940337	0.071862
Zn3	Zn	1.413093	0.591679	-0.329786
Zn4	Zn	1.913093	1.091679	0.170214
Zn5	Zn	1.253131	0.431608	-0.316969
Zn6	Zn	1.753131	0.931608	0.183031
Zn7	Zn	1.261786	0.582893	-0.428121
Zn8	Zn	1.761786	1.082893	0.071879
O9	O	1.333125	0.511629	-0.375754
O10	O	1.833125	1.011629	0.124246
O11	O	1.532296	0.467742	-0.420462
O12	O	2.032296	0.967742	0.079538
O13	O	1.391853	0.570470	-0.240408
O14	O	1.891853	1.070470	0.259592
O15	O	1.265986	0.306115	-0.326359
O16	O	1.765986	0.806115	0.173641
O17	O	1.538618	0.578933	-0.348204
O18	O	2.038618	1.078933	0.151796
O19	O	1.377187	0.312528	-0.408034
O20	O	1.877187	0.812528	0.091966
O21	O	1.274330	0.452866	-0.230992
O22	O	1.774330	0.952866	0.269008
O23	O	1.127613	0.444346	-0.326343
O24	O	1.627613	0.944346	0.173657
O25	O	1.280737	0.563958	-0.515801
O26	O	1.780737	1.063958	-0.015801
O27	O	1.133972	0.555494	-0.408005
O28	O	1.633972	1.055494	0.091995
O29	O	1.385579	0.459223	-0.515813
O30	O	1.885579	0.959223	-0.015813
O31	O	1.400245	0.717164	-0.348188
O32	O	1.900245	1.217164	0.151812
O33	O	1.289080	0.710709	-0.420434
O34	O	1.789080	1.210709	0.079566
C35	C	1.097950	0.498020	-0.365782
C36	C	1.597950	0.998020	0.134218
C37	C	0.997342	0.492220	-0.361532
C38	C	1.497342	0.992220	0.138468
C39	C	1.346560	0.746777	-0.385714
C40	C	1.846560	1.246777	0.114286
C41	C	1.352391	0.847379	-0.390000
C42	C	1.852391	1.347379	0.110000
C43	C	1.333164	0.511584	-0.539177
C44	C	1.833164	1.011584	-0.039177
C45	C	1.333180	0.511565	-0.608818
C46	C	1.833180	1.011565	-0.108818
C47	C	0.814969	0.597239	-0.438480
C48	C	1.314969	1.097239	0.061520
C49	C	0.720440	0.591793	-0.434489
C50	C	1.220440	1.091793	0.065511
C51	C	0.713751	0.475876	-0.349562
C52	C	1.213751	0.975876	0.150438
C53	C	0.808281	0.481323	-0.353553
C54	C	1.308281	0.981323	0.146447
C55	C	0.858887	0.542007	-0.398013
C56	C	1.358887	1.042007	0.101987
C57	C	0.953418	0.547458	-0.402001
C58	C	1.453418	1.047458	0.097999
C59	C	0.946728	0.431537	-0.317077
C60	C	1.446728	0.931537	0.182923
C61	C	0.852198	0.426091	-0.313086
C62	C	1.352198	0.926091	0.186914
C63	C	1.569218	0.525292	-0.385765
C64	C	2.069218	1.025292	0.114235
C65	C	1.669827	0.531114	-0.390031
C66	C	2.169827	1.031114	0.109969
C67	C	1.247659	1.029903	-0.312936
C68	C	1.747659	1.529903	0.187064
C69	C	1.253134	1.124427	-0.316961
C70	C	1.753134	1.624427	0.183039
C71	C	1.368821	1.130954	-0.402071
C72	C	1.868821	1.630954	0.097929
C73	C	1.363346	1.036430	-0.398046
C74	C	1.863346	1.536430	0.101954
C75	C	1.302762	0.985907	-0.353478
C76	C	1.802762	1.485907	0.146522
C77	C	1.297282	0.891381	-0.349456
C78	C	1.797282	1.391381	0.150544
C79	C	1.412973	0.897910	-0.434563
C80	C	1.912973	1.397910	0.065437
C81	C	1.418448	0.992434	-0.438588
C82	C	1.918448	1.492434	0.061412
C83	C	1.319608	1.275561	-0.365772
C84	C	1.819608	1.775561	0.134228
C85	C	1.313712	1.174956	-0.361527
C86	C	1.813712	1.674956	0.138473
C87	C	1.394465	0.572617	-1.115514
C88	C	1.894465	1.072617	-0.615514
C89	C	1.394451	0.572645	-1.050079
C90	C	1.894451	1.072645	-0.550079
C91	C	1.333258	0.511426	-1.012454
C92	C	1.833258	1.011426	-0.512454
C93	C	1.272060	0.450191	-1.040269
C94	C	1.772060	0.950191	-0.540269
C95	C	1.272071	0.450171	-1.105702
C96	C	1.772071	0.950171	-0.605702
C97	C	1.321444	0.429503	-0.905034
C98	C	1.821444	0.929503	-0.405034
C99	C	1.321440	0.429522	-0.839602
C100	C	1.821440	0.929522	-0.339602
C101	C	1.333221	0.511488	-0.810634
C102	C	1.833221	1.011488	-0.310634
C103	C	1.345026	0.593439	-0.847108
C104	C	1.845026	1.093439	-0.347108
C105	C	1.345036	0.593419	-0.912542
C106	C	1.845036	1.093419	-0.412542
C107	C	1.333240	0.511441	-0.941501
C108	C	1.833240	1.011441	-0.441501
C109	C	1.394395	0.572754	-0.711875
C110	C	1.894395	1.072754	-0.211875
C111	C	1.394374	0.572783	-0.646439
C112	C	1.894374	1.072783	-0.146439
C113	C	1.271988	0.450321	-0.636629
C114	C	1.771988	0.950321	-0.136629
C115	C	1.272005	0.450300	-0.702064
C116	C	1.772005	0.950300	-0.202064
C117	C	1.333213	0.511515	-0.739684
C118	C	1.833213	1.011515	-0.239684
C119	C	1.333135	0.511612	-0.212966
C120	C	1.833135	1.011612	0.287034
C121	C	1.333279	0.511386	-0.143322
C122	C	1.833279	1.011386	0.356678
H123	H	0.994621	0.596873	-0.438202
H124	H	1.494621	1.096873	0.061798
H125	H	1.198323	0.988766	-0.276651
H126	H	1.698323	1.488766	0.223349
C127	C	1.473590	0.849507	-0.479162
C128	C	1.973590	1.349507	0.020838
N129	N	1.519243	0.813049	-0.512754
N130	N	2.019243	1.313049	-0.012754
C131	C	1.357983	0.683609	-0.815249
C132	C	1.857983	1.183609	-0.315249
N133	N	1.367743	0.751523	-0.791250
N134	N	1.867743	1.251523	-0.291250
H135	H	0.856174	0.646656	-0.474678
H136	H	1.356174	1.146656	0.025322
H137	H	1.467776	1.033582	-0.474872
H138	H	1.967776	1.533582	0.025128
C139	C	0.995044	0.370781	-0.272558
C140	C	1.495044	0.870781	0.227442
N141	N	1.031438	0.325023	-0.239025
N142	N	1.531438	0.825023	0.260975
H143	H	1.222162	0.400478	-0.605995
H144	H	1.722162	0.900478	-0.105995
H145	H	1.208265	1.160244	-0.283947
H146	H	1.708265	1.660244	0.216053
H147	H	0.672531	0.426463	-0.313368
H148	H	1.172531	0.926463	0.186632
H149	H	0.684686	0.636767	-0.467443
H150	H	1.184686	1.136767	0.032557
H151	H	0.810982	0.376680	-0.276889
H152	H	1.310982	0.876680	0.223111
H153	H	1.444303	0.622466	-1.146140
H154	H	1.944303	1.122466	-0.646140
H155	H	1.247949	0.850246	-0.313168
H156	H	1.747949	1.350246	0.186832
H157	H	1.418152	1.172106	-0.438351
H158	H	1.918152	1.672106	0.061649
H159	H	1.444289	0.622496	-1.027434
H160	H	1.944289	1.122496	-0.527434
H161	H	1.311909	0.362750	-0.928616
H162	H	1.811909	0.862750	-0.428616
H163	H	1.444232	0.622601	-0.742506
H164	H	1.944232	1.122601	-0.242506
H165	H	1.354645	0.660146	-0.942236
H166	H	1.854645	1.160146	-0.442236
H167	H	1.444195	0.622652	-0.623800
H168	H	1.944195	1.122652	-0.123800
C169	C	1.204705	0.382929	-0.732653
C170	C	1.704705	0.882929	-0.232653
N171	N	1.154013	0.332181	-0.755692
N172	N	1.654013	0.832181	-0.255692
H173	H	1.311833	0.362793	-0.809910
H174	H	1.811833	0.862793	-0.309910
H175	H	1.222236	0.400347	-1.009630
H176	H	1.722236	0.900347	-0.509630
C177	C	1.204764	0.382802	-1.136291
C178	C	1.704764	0.882802	-0.636291
N179	N	1.154071	0.332056	-1.159331
N180	N	1.654071	0.832056	-0.659331
