data_functionalizedCrystal
_audit_creation_method	'MofGen! by Chris Wilmer'
_symmetry_space_group_name_H-M	'P1'
_symmetry_Int_Tables_number	1
_symmetry_cell_setting	triclinic
loop_
_symmetry_equiv_pos_as_xyz
  x,y,z
_cell_length_a	19.805407
_cell_length_b	19.805405
_cell_length_c	19.805399
_cell_angle_alpha	89.969291
_cell_angle_beta	89.978486
_cell_angle_gamma	90.025657
loop_
_atom_site_label
_atom_site_type_symbol
_atom_site_fract_x
_atom_site_fract_y
_atom_site_fract_z
Zn1	Zn	1.034718	-0.269483	-0.382795
Zn2	Zn	1.534718	0.230517	0.117205
Zn3	Zn	1.034638	-0.382674	-0.269603
Zn4	Zn	1.534638	0.117326	0.230397
Zn5	Zn	0.921538	-0.269503	-0.269611
Zn6	Zn	1.421538	0.230497	0.230389
Zn7	Zn	0.921496	-0.382634	-0.382741
Zn8	Zn	1.421496	0.117366	0.117259
O9	O	0.978097	-0.326074	-0.326188
O10	O	1.478097	0.173926	0.173812
O11	O	1.129424	-0.284507	-0.367800
O12	O	1.629424	0.215493	0.132200
O13	O	1.019619	-0.367687	-0.174888
O14	O	1.519619	0.132313	0.325112
O15	O	0.936602	-0.174784	-0.284650
O16	O	1.436602	0.325216	0.215350
O17	O	1.129365	-0.367668	-0.284638
O18	O	1.629365	0.132332	0.215362
O19	O	1.019755	-0.174769	-0.367807
O20	O	1.519755	0.325231	0.132193
O21	O	0.936525	-0.284541	-0.174893
O22	O	1.436525	0.215459	0.325107
O23	O	0.826816	-0.284502	-0.284598
O24	O	1.326816	0.215498	0.215402
O25	O	0.936531	-0.367599	-0.477465
O26	O	1.436531	0.132401	0.022535
O27	O	0.826785	-0.367618	-0.367714
O28	O	1.326785	0.132382	0.132286
O29	O	1.019715	-0.284468	-0.477505
O30	O	1.519715	0.215532	0.022495
O31	O	1.019578	-0.477385	-0.284586
O32	O	1.519578	0.022615	0.215414
O33	O	0.936454	-0.477356	-0.367708
O34	O	1.436454	0.022644	0.132292
C35	C	0.802241	-0.326058	-0.326151
C36	C	1.302241	0.173942	0.173849
C37	C	0.727009	-0.326068	-0.326152
C38	C	1.227009	0.173932	0.173848
C39	C	0.978021	-0.501930	-0.326155
C40	C	1.478021	-0.001930	0.173845
C41	C	0.978051	-0.577162	-0.326163
C42	C	1.478051	-0.077162	0.173837
C43	C	0.265220	-0.369434	-0.369442
C44	C	0.765220	0.130566	0.130558
C45	C	0.335908	-0.369433	-0.369427
C46	C	0.835908	0.130567	0.130573
C47	C	0.371248	-0.326090	-0.326214
C48	C	0.871248	0.173910	0.173786
C49	C	0.335895	-0.282750	-0.283007
C50	C	0.835895	0.217250	0.216993
C51	C	0.265207	-0.282755	-0.283019
C52	C	0.765207	0.217245	0.216981
C53	C	0.620968	-0.282730	-0.282960
C54	C	1.120968	0.217270	0.217040
C55	C	0.691660	-0.282726	-0.282953
C56	C	1.191660	0.217274	0.217047
C57	C	0.691669	-0.369407	-0.369368
C58	C	1.191669	0.130593	0.130632
C59	C	0.620982	-0.369412	-0.369380
C60	C	1.120982	0.130588	0.130620
C61	C	0.585635	-0.326075	-0.326171
C62	C	1.085635	0.173925	0.173829
C63	C	0.508987	-0.326078	-0.326186
C64	C	1.008987	0.173922	0.173814
C65	C	0.447895	-0.326083	-0.326202
C66	C	0.947895	0.173917	0.173798
C67	C	1.021376	-0.612499	-0.282927
C68	C	1.521376	-0.112499	0.217073
C69	C	1.021404	-0.683187	-0.282942
C70	C	1.521404	-0.183187	0.217058
C71	C	0.978104	-0.718537	-0.326190
C72	C	1.478104	-0.218537	0.173810
C73	C	0.934777	-0.683195	-0.369431
C74	C	1.434777	-0.183195	0.130569
C75	C	0.934752	-0.612508	-0.369419
C76	C	1.434752	-0.112508	0.130581
C77	C	0.934877	-0.968268	-0.369482
C78	C	1.434877	-0.468268	0.130518
C79	C	0.934904	-1.038960	-0.369489
C80	C	1.434904	-0.538960	0.130511
C81	C	1.021529	-1.038947	-0.283004
C82	C	1.521529	-0.538947	0.216996
C83	C	1.021504	-0.968260	-0.282992
C84	C	1.521504	-0.468260	0.217008
C85	C	0.978180	-0.932924	-0.326236
C86	C	1.478180	-0.432924	0.173764
C87	C	0.978150	-0.856276	-0.326220
C88	C	1.478150	-0.356276	0.173780
C89	C	0.978130	-0.795184	-0.326203
C90	C	1.478130	-0.295184	0.173797
C91	C	1.154640	-0.326089	-0.326224
C92	C	1.654640	0.173911	0.173776
C93	C	1.229872	-0.326096	-0.326240
C94	C	1.729872	0.173904	0.173760
C95	C	0.978127	-0.326027	-0.502730
C96	C	1.478127	0.173973	-0.002730
C97	C	0.978140	-0.326007	-0.577962
C98	C	1.478140	0.173993	-0.077962
C99	C	0.978192	-0.149531	-0.326235
C100	C	1.478192	0.350469	0.173765
C101	C	0.978233	-0.074299	-0.326256
C102	C	1.478233	0.425701	0.173744
C103	C	0.934885	-0.282708	-0.613309
C104	C	1.434885	0.217292	-0.113309
C105	C	0.934894	-0.282695	-0.683997
C106	C	1.434894	0.217305	-0.183997
C107	C	0.978162	-0.325977	-0.719338
C108	C	1.478162	0.174023	-0.219338
C109	C	1.021419	-0.369280	-0.683987
C110	C	1.521419	0.130720	-0.183987
C111	C	1.021406	-0.369297	-0.613300
C112	C	1.521406	0.130703	-0.113300
C113	C	1.021473	-0.369217	-0.969060
C114	C	1.521473	0.130783	-0.469060
C115	C	1.021484	-0.369196	-1.039752
C116	C	1.521484	0.130804	-0.539752
C117	C	0.934961	-0.282616	-1.039758
C118	C	1.434961	0.217384	-0.539758
C119	C	0.934948	-0.282632	-0.969071
C120	C	1.434948	0.217368	-0.469071
C121	C	0.978202	-0.325937	-0.933726
C122	C	1.478202	0.174063	-0.433726
C123	C	0.978190	-0.325952	-0.857077
C124	C	1.478190	0.174048	-0.357077
C125	C	0.978178	-0.325960	-0.795985
C126	C	1.478178	0.174040	-0.295985
C127	C	0.978107	-0.326071	-0.150332
C128	C	1.478107	0.173929	0.349668
C129	C	0.978225	-0.325901	-0.075100
C130	C	1.478225	0.174099	0.424900
H131	H	0.364686	-0.404724	-0.404605
H132	H	0.864686	0.095276	0.095395
O133	O	0.892883	-0.933922	-0.411554
O134	O	1.392883	-0.433922	0.088446
C135	C	0.931368	-0.892961	-0.455299
C136	C	1.431368	-0.392961	0.044701
H137	H	0.984684	-0.914211	-0.459539
H138	H	1.484684	-0.414211	0.040461
H139	H	0.906851	-0.892151	-0.507362
H140	H	1.406851	-0.392151	-0.007362
H141	H	0.933689	-0.839398	-0.434372
H142	H	1.433689	-0.339398	0.065628
O143	O	1.063397	-0.411351	-0.934705
O144	O	1.563397	0.088649	-0.434705
C145	C	1.024837	-0.455068	-0.893784
C146	C	1.524837	0.044932	-0.393784
H147	H	0.971528	-0.459239	-0.915070
H148	H	1.471528	0.040761	-0.415070
H149	H	1.049292	-0.507159	-0.892980
H150	H	1.549292	-0.007159	-0.392980
H151	H	1.022512	-0.434160	-0.840215
H152	H	1.522512	0.065840	-0.340215
H153	H	0.236428	-0.247463	-0.247841
H154	H	0.736428	0.252537	0.252159
O155	O	0.892882	-0.240682	-0.934667
O156	O	1.392882	0.259318	-0.434667
C157	C	0.849128	-0.279227	-0.893773
C158	C	1.349128	0.220773	-0.393773
H159	H	0.872973	-0.330525	-0.883174
H160	H	1.372973	0.169475	-0.383174
H161	H	0.840061	-0.251670	-0.844072
H162	H	1.340061	0.248330	-0.344072
H163	H	0.798971	-0.286655	-0.921005
H164	H	1.298971	0.213345	-0.421005
O165	O	0.892937	-1.073375	-0.411541
O166	O	1.392937	-0.573375	0.088459
C167	C	0.931467	-1.114190	-0.455306
C168	C	1.431467	-0.614190	0.044694
H169	H	0.982777	-1.124752	-0.431481
H170	H	1.482777	-0.624752	0.068519
H171	H	0.903912	-1.163915	-0.464357
H172	H	1.403912	-0.663915	0.035643
H173	H	0.938867	-1.086910	-0.505470
H174	H	1.438867	-0.586910	-0.005470
O175	O	1.063626	-0.717388	-0.240977
O176	O	1.563626	-0.217388	0.259023
C177	C	1.131040	-0.699988	-0.255897
C178	C	1.631040	-0.199988	0.244103
H179	H	1.132328	-0.648660	-0.281944
H180	H	1.632328	-0.148660	0.218056
H181	H	1.161446	-0.697508	-0.207098
H182	H	1.661446	-0.197508	0.292902
H183	H	1.153859	-0.739723	-0.290712
H184	H	1.653859	-0.239723	0.209288
H185	H	1.056633	-0.583721	-0.247707
H186	H	1.556633	-0.083721	0.252293
H187	H	1.056645	-0.404525	-0.712767
H188	H	1.556645	0.095475	-0.212767
H189	H	0.720431	-0.247429	-0.247762
H190	H	1.220431	0.252571	0.252238
H191	H	0.899740	-0.247356	-1.068544
H192	H	1.399740	0.252644	-0.568544
H193	H	0.899524	-0.711983	-0.404648
H194	H	1.399524	-0.211983	0.095352
H195	H	0.899655	-0.247459	-0.584539
H196	H	1.399655	0.252541	-0.084539
H197	H	0.364673	-0.247463	-0.247819
H198	H	0.864673	0.252537	0.252181
H199	H	0.899473	-0.583737	-0.404627
H200	H	1.399473	-0.083737	0.095373
O201	O	0.586743	-0.240565	-0.240972
O202	O	1.086743	0.259435	0.259028
C203	C	0.633094	-0.202320	-0.202821
C204	C	1.133094	0.297680	0.297179
H205	H	0.683497	-0.200012	-0.230544
H206	H	1.183497	0.299988	0.269456
H207	H	0.612690	-0.148983	-0.195702
H208	H	1.112690	0.351017	0.304298
H209	H	0.640578	-0.227038	-0.151369
H210	H	1.140578	0.272962	0.348631
O211	O	1.063631	-0.934027	-0.240960
O212	O	1.563631	-0.434027	0.259040
C213	C	1.101867	-0.980375	-0.202790
C214	C	1.601867	-0.480375	0.297210
H215	H	1.104210	-1.030743	-0.230522
H216	H	1.604210	-0.530743	0.269478
H217	H	1.155193	-0.959913	-0.195623
H218	H	1.655193	-0.459913	0.304377
H219	H	1.077118	-0.987947	-0.151359
H220	H	1.577118	-0.487947	0.348641
H221	H	0.899669	-0.247440	-0.712773
H222	H	1.399669	0.252560	-0.212773
H223	H	1.056720	-0.404445	-1.068525
H224	H	1.556720	0.095555	-0.568525
H225	H	1.056808	-1.067726	-0.247796
H226	H	1.556808	-0.567726	0.252204
H227	H	1.056633	-0.404550	-0.584521
H228	H	1.556633	0.095450	-0.084521
H229	H	0.236452	-0.404725	-0.404635
H230	H	0.736452	0.095275	0.095365
H231	H	0.720457	-0.404696	-0.404549
H232	H	1.220457	0.095304	0.095451
O233	O	0.586759	-0.411580	-0.411378
O234	O	1.086759	0.088420	0.088622
C235	C	0.633117	-0.449821	-0.449519
C236	C	1.133117	0.050179	0.050481
H237	H	0.683490	-0.452124	-0.421784
H238	H	1.183490	0.047876	0.078216
H239	H	0.612676	-0.503160	-0.456643
H240	H	1.112676	-0.003160	0.043357
H241	H	0.640670	-0.425102	-0.500969
H242	H	1.140670	0.074898	-0.000969
