data_functionalizedCrystal
_audit_creation_method	'MofGen! by Chris Wilmer'
_symmetry_space_group_name_H-M	'P1'
_symmetry_Int_Tables_number	1
_symmetry_cell_setting	triclinic
loop_
_symmetry_equiv_pos_as_xyz
  x,y,z
_cell_length_a	12.811438
_cell_length_b	14.185569
_cell_length_c	12.837942
_cell_angle_alpha	75.424284
_cell_angle_beta	90.586849
_cell_angle_gamma	71.540373
loop_
_atom_site_label
_atom_site_type_symbol
_atom_site_fract_x
_atom_site_fract_y
_atom_site_fract_z
O1	O	1.418375	-0.045632	-0.126897
O2	O	1.107022	-0.017302	-0.150032
O3	O	1.255796	-0.030845	0.012293
O4	O	1.269600	-0.032089	-0.289222
O5	O	1.299746	-0.201681	0.060240
O6	O	1.150971	-0.188138	-0.102085
O7	O	1.462324	-0.216468	-0.078950
Cu8	Cu	1.310661	-0.217901	-0.086140
Cu9	Cu	1.258685	-0.015869	-0.142843
O10	O	1.313550	-0.202925	-0.241275
C11	C	1.088868	-0.099069	-0.126232
C12	C	0.969297	-0.088189	-0.126735
N13	N	1.347225	-0.360001	-0.046257
C14	C	0.776809	0.020257	-0.153576
C15	C	0.889155	0.010043	-0.153105
C16	C	0.937087	-0.176213	-0.100830
C17	C	0.824741	-0.165999	-0.101301
C18	C	0.744605	-0.067761	-0.127677
C19	C	0.632257	-0.057548	-0.128155
C20	C	0.680191	-0.243803	-0.075872
C21	C	0.792537	-0.254017	-0.075401
C22	C	1.114697	-0.706483	-0.299847
C23	C	1.142402	-0.814027	-0.269644
C24	C	1.274176	-0.825984	-0.125956
C25	C	1.246478	-0.718438	-0.156145
C26	C	1.166739	-0.658697	-0.243092
C27	C	1.298520	-0.670652	-0.099389
C28	C	1.270828	-0.563116	-0.129579
C29	C	1.191094	-0.503368	-0.216525
C30	C	1.139047	-0.551161	-0.273282
C31	C	1.378265	-0.730396	-0.012448
C32	C	1.430307	-0.682609	0.044308
C33	C	1.402610	-0.575072	0.014123
C34	C	1.322876	-0.515323	-0.072823
C35	C	1.454657	-0.527278	0.070880
C36	C	1.426965	-0.419743	0.040690
C37	C	1.295183	-0.407788	-0.103013
C38	C	1.480477	-0.134699	-0.102751
C39	C	1.600047	-0.145572	-0.102250
C40	C	1.273106	-0.115838	0.074787
C41	C	1.259194	-0.114571	0.189567
N42	N	1.222128	0.126230	-0.182717
C43	C	1.296239	-0.117930	-0.303770
C44	C	1.310150	-0.119190	-0.418552
C45	C	1.426433	-0.129767	0.434084
C46	C	1.413366	-0.128576	0.541931
C47	C	1.219993	-0.110991	0.513108
C48	C	1.233060	-0.112182	0.405261
C49	C	1.336283	-0.121572	0.365754
C50	C	1.349351	-0.122770	0.257907
C51	C	1.155977	-0.105177	0.229084
C52	C	1.142910	-0.103987	0.336931
H53	H	0.567011	0.022442	-0.149636
Br54	Br	1.153518	-0.357425	-0.257506
Br55	Br	1.002824	-0.091232	0.390555
H56	H	0.915369	0.081716	-0.174196
H57	H	1.400813	-0.817958	0.012126
Br58	Br	1.382397	-0.907068	-0.007965
H59	H	1.433402	-0.130419	0.225743
H60	H	1.510484	-0.137422	0.401919
H61	H	0.857797	-0.333999	-0.053923
Br62	Br	1.033628	-0.094073	0.136350
Br63	Br	0.636481	-0.363263	-0.040733
H64	H	1.049756	-0.657838	-0.370641
H65	H	1.230243	-0.359142	-0.173806
Br66	Br	1.535715	-0.139692	0.634661
Br67	Br	1.538528	-0.763694	0.162300
H68	H	1.002351	-0.256193	-0.079344
Br69	Br	0.668049	0.153574	-0.189392
H70	H	1.100017	-0.852928	-0.315870
Br71	Br	1.497602	-0.354887	0.117712
Br72	Br	1.030810	-0.470076	-0.391271
H73	H	1.519590	-0.575935	0.141666
H74	H	1.135950	-0.103336	0.545292
