data_functionalizedCrystal
_audit_creation_method	'MofGen! by Chris Wilmer'
_symmetry_space_group_name_H-M	'P1'
_symmetry_Int_Tables_number	1
_symmetry_cell_setting	triclinic
loop_
_symmetry_equiv_pos_as_xyz
  x,y,z
_cell_length_a	19.121102
_cell_length_b	21.295416
_cell_length_c	19.120904
_cell_angle_alpha	87.589183
_cell_angle_beta	90.088173
_cell_angle_gamma	92.415449
loop_
_atom_site_label
_atom_site_type_symbol
_atom_site_fract_x
_atom_site_fract_y
_atom_site_fract_z
Zn1	Zn	1.054815	0.307921	-0.442046
Zn2	Zn	1.554815	0.807921	0.057954
Zn3	Zn	1.059724	0.408896	-0.324805
Zn4	Zn	1.559724	0.908896	0.175195
Zn5	Zn	0.942585	0.298968	-0.319831
Zn6	Zn	1.442585	0.798968	0.180169
Zn7	Zn	0.937536	0.408472	-0.437007
Zn8	Zn	1.437536	0.908472	0.062993
O9	O	0.998665	0.356064	-0.380922
O10	O	1.498665	0.856064	0.119078
O11	O	1.153571	0.325240	-0.430685
O12	O	1.653571	0.825240	0.069315
O13	O	1.048353	0.390744	-0.226040
O14	O	1.548353	0.890744	0.273960
O15	O	0.957531	0.212069	-0.336070
O16	O	1.457531	0.712069	0.163930
O17	O	1.157178	0.399425	-0.344548
O18	O	1.657178	0.899425	0.155452
O19	O	1.039986	0.218648	-0.425862
O20	O	1.539986	0.718648	0.074138
O21	O	0.962291	0.309980	-0.222386
O22	O	1.462291	0.809980	0.277614
O23	O	0.843810	0.309570	-0.331184
O24	O	1.343810	0.809570	0.168816
O25	O	0.948925	0.398704	-0.535780
O26	O	1.448925	0.898704	-0.035780
O27	O	0.840100	0.390022	-0.417273
O28	O	1.340100	0.890022	0.082727
O29	O	1.035090	0.324830	-0.539483
O30	O	1.535090	0.824830	-0.039483
O31	O	1.043457	0.496926	-0.339661
O32	O	1.543457	0.996926	0.160339
O33	O	0.953686	0.496615	-0.422096
O34	O	1.453686	0.996615	0.077904
C35	C	0.816518	0.348779	-0.373142
C36	C	1.316518	0.848779	0.126858
C37	C	0.738593	0.345678	-0.369830
C38	C	1.238593	0.845678	0.130170
C39	C	0.700075	0.386167	-0.413026
C40	C	1.200075	0.886167	0.086974
C41	C	0.626856	0.383245	-0.409918
C42	C	1.126856	0.883245	0.090082
C43	C	0.592159	0.339837	-0.363610
C44	C	1.092159	0.839837	0.136390
C45	C	0.630683	0.299344	-0.320412
C46	C	1.130683	0.799344	0.179588
C47	C	0.703899	0.302263	-0.323525
C48	C	1.203899	0.802263	0.176475
C49	C	0.371187	0.328922	-0.351977
C50	C	0.871187	0.828922	0.148023
C51	C	0.297965	0.326007	-0.348866
C52	C	0.797965	0.826007	0.151134
C53	C	0.294144	0.409907	-0.438373
C54	C	0.794144	0.909907	0.061627
C55	C	0.367362	0.412825	-0.441478
C56	C	0.867362	0.912825	0.058522
C57	C	0.405880	0.372330	-0.398283
C58	C	0.905880	0.872330	0.101717
C59	C	0.517318	0.336851	-0.360430
C60	C	1.017318	0.836851	0.139570
C61	C	0.480719	0.375314	-0.401467
C62	C	0.980719	0.875314	0.098533
C63	C	0.998575	0.519611	-0.380887
C64	C	1.498575	1.019611	0.119113
C65	C	0.998599	0.589581	-0.380899
C66	C	1.498599	1.089581	0.119101
C67	C	1.045381	0.622592	-0.338024
C68	C	1.545381	1.122592	0.161976
C69	C	1.045413	0.688336	-0.338044
C70	C	1.545413	1.188336	0.161956
C71	C	0.998652	0.721066	-0.380931
C72	C	1.498652	1.221066	0.119069
C73	C	0.951866	0.688048	-0.423814
C74	C	1.451866	1.188048	0.076186
C75	C	0.951840	0.622305	-0.423798
C76	C	1.451840	1.122305	0.076202
N77	N	0.937095	0.822079	-0.383661
N78	N	1.437095	1.322079	0.116339
N79	N	0.937122	0.884532	-0.383673
N80	N	1.437122	1.384532	0.116327
C81	C	0.998729	0.919146	-0.380984
C82	C	1.498729	1.419146	0.119016
N83	N	1.060309	0.888947	-0.378270
N84	N	1.560309	1.388947	0.121730
N85	N	1.060282	0.826489	-0.378255
N86	N	1.560282	1.326489	0.121745
C87	C	0.998675	0.792354	-0.380954
C88	C	1.498675	1.292354	0.119046
C89	C	1.045550	1.023445	-0.338130
C90	C	1.545550	1.523445	0.161870
C91	C	1.045583	1.089191	-0.338155
C92	C	1.545583	1.589191	0.161845
C93	C	0.952030	1.088901	-0.423921
C94	C	1.452030	1.588901	0.076079
C95	C	0.952002	1.023156	-0.423900
C96	C	1.452002	1.523156	0.076100
C97	C	0.998762	0.990432	-0.381000
C98	C	1.498762	1.490432	0.119000
C99	C	1.181523	0.363379	-0.388733
C100	C	1.681523	0.863379	0.111267
C101	C	1.259447	0.366495	-0.392062
C102	C	1.759447	0.866495	0.107938
C103	C	0.990897	0.362718	-0.563780
C104	C	1.490897	0.862718	-0.063780
C105	C	0.987586	0.365554	-0.641703
C106	C	1.487586	0.865554	-0.141703
C107	C	0.998774	1.191881	-0.380985
C108	C	1.498774	1.691881	0.119015
C109	C	0.998821	1.121917	-0.381043
C110	C	1.498821	1.621917	0.118957
C111	C	1.030890	0.328425	-0.680240
C112	C	1.530890	0.828425	-0.180240
C113	C	1.027771	0.331087	-0.753457
C114	C	1.527771	0.831087	-0.253457
C115	C	0.981352	0.370881	-0.788136
C116	C	1.481352	0.870881	-0.288136
C117	C	0.938043	0.408011	-0.749593
C118	C	1.438043	0.908011	-0.249593
C119	C	0.941159	0.405346	-0.676377
C120	C	1.441159	0.905346	-0.176377
C121	C	0.969696	0.380850	-1.009102
C122	C	1.469696	0.880850	-0.509102
C123	C	0.966585	0.383513	-1.082323
C124	C	1.466585	0.883513	-0.582323
C125	C	1.056313	0.306588	-1.086182
C126	C	1.556313	0.806588	-0.586182
C127	C	1.059427	0.303929	-1.012965
C128	C	1.559427	0.803929	-0.512965
C129	C	1.016116	0.341057	-0.974429
C130	C	1.516116	0.841057	-0.474429
C131	C	0.978164	0.373604	-0.862975
C132	C	1.478164	0.873604	-0.362975
C133	C	1.019301	0.338330	-0.899591
C134	C	1.519301	0.838330	-0.399591
C135	C	1.006443	0.349392	-0.198777
C136	C	1.506443	0.849392	0.301223
C137	C	1.009889	0.346385	-0.120860
C138	C	1.509889	0.846385	0.379140
H139	H	0.395608	0.448174	-0.479185
H140	H	0.895608	0.948174	0.020815
H141	H	0.934440	0.411091	-0.977735
H142	H	1.434440	0.911091	-0.477735
N143	N	0.593258	0.252537	-0.270455
N144	N	1.093258	0.752537	0.229545
H145	H	0.561679	0.223233	-0.297703
H146	H	1.061679	0.723233	0.202297
H147	H	0.564291	0.275740	-0.236641
H148	H	1.064291	0.775740	0.263359
N149	N	0.745448	0.258590	-0.276941
N150	N	1.245448	0.758590	0.223059
H151	H	0.712359	0.230648	-0.247132
H152	H	1.212359	0.730648	0.252868
H153	H	0.777190	0.284192	-0.245735
H154	H	1.277190	0.784192	0.254265
H155	H	0.262775	0.442875	-0.473540
H156	H	0.762775	0.942875	0.026460
N157	N	1.095982	0.988139	-0.291870
N158	N	1.595982	1.488139	0.208130
H159	H	1.087270	0.997356	-0.241310
H160	H	1.587270	1.497356	0.258690
H161	H	1.145583	1.001944	-0.305002
H162	H	1.645583	1.501944	0.194998
N163	N	1.074485	0.291038	-0.795010
N164	N	1.574485	0.791038	-0.295010
H165	H	1.105664	0.319020	-0.826772
H166	H	1.605664	0.819020	-0.326772
H167	H	1.044678	0.261831	-0.824132
H168	H	1.544678	0.761831	-0.324132
H169	H	1.097229	0.271527	-0.984735
H170	H	1.597229	0.771527	-0.484735
H171	H	0.508973	0.410653	-0.439174
H172	H	1.008973	0.910653	0.060826
N173	N	0.737493	0.432986	-0.462975
N174	N	1.237493	0.932986	0.037025
H175	H	0.789721	0.428694	-0.458392
H176	H	1.289721	0.928694	0.041608
H177	H	0.725135	0.477015	-0.451426
H178	H	1.225135	0.977015	0.048574
N179	N	1.095822	0.587297	-0.291767
N180	N	1.595822	1.087297	0.208233
H181	H	1.125466	0.618190	-0.264612
H182	H	1.625466	1.118190	0.235388
H183	H	1.127016	0.562322	-0.321716
H184	H	1.627016	1.062322	0.178284
H185	H	1.083511	0.715219	-0.303131
H186	H	1.583511	1.215219	0.196869
N187	N	0.901427	0.723341	-0.470072
N188	N	1.401427	1.223341	0.029928
H189	H	0.928520	0.752904	-0.503805
H190	H	1.428520	1.252904	-0.003805
H191	H	0.870193	0.748282	-0.440126
H192	H	1.370193	1.248282	0.059874
H193	H	0.489059	0.301509	-0.322724
H194	H	0.989059	0.801509	0.177276
H195	H	0.928783	0.415920	-1.110556
H196	H	1.428783	0.915920	-0.610556
H197	H	0.913744	0.595427	-0.458712
H198	H	1.413744	1.095427	0.041288
N199	N	1.103023	0.266544	-1.127745
N200	N	1.603023	0.766544	-0.627745
H201	H	1.094007	0.274269	-1.179389
H202	H	1.594007	0.774269	-0.679389
H203	H	1.092685	0.220687	-1.114494
H204	H	1.592685	0.720687	-0.614494
H205	H	0.402540	0.295952	-0.316799
H206	H	0.902540	0.795952	0.183201
N207	N	1.096047	1.124799	-0.291914
N208	N	1.596047	1.624799	0.208086
H209	H	1.125661	1.094090	-0.264736
H210	H	1.625661	1.594090	0.235264
H211	H	1.068924	1.149795	-0.258240
H212	H	1.568924	1.649795	0.241760
N213	N	0.901535	0.987545	-0.470131
N214	N	1.401535	1.487545	0.029869
H215	H	0.928604	0.962550	-0.503853
H216	H	1.428604	1.462550	-0.003853
H217	H	0.871925	1.018291	-0.497257
H218	H	1.371925	1.518291	0.002743
H219	H	0.595497	0.416216	-0.445091
H220	H	1.095497	0.916216	0.054909
H221	H	0.900245	0.440410	-0.777834
H222	H	1.400245	0.940410	-0.277834
H223	H	1.057093	0.305927	-0.871353
H224	H	1.557093	0.805927	-0.371353
H225	H	0.269717	0.290652	-0.311161
H226	H	0.769717	0.790652	0.188839
H227	H	0.913958	1.115549	-0.458844
H228	H	1.413958	1.615549	0.041156
N229	N	1.080962	0.285509	-0.642840
N230	N	1.580962	0.785509	-0.142840
H231	H	1.107920	0.262392	-0.678366
H232	H	1.607920	0.762392	-0.178366
H233	H	1.053738	0.254131	-0.611250
H234	H	1.553738	0.754131	-0.111250
N235	N	0.894447	0.445385	-0.634808
N236	N	1.394447	0.945385	-0.134808
H237	H	0.864566	0.470998	-0.667885
H238	H	1.364566	0.970998	-0.167885
H239	H	0.924251	0.474552	-0.605638
H240	H	1.424251	0.974552	-0.105638
H241	H	0.940372	0.406007	-0.891218
H242	H	1.440372	0.906007	-0.391218
