data_functionalizedCrystal
_audit_creation_method	'MofGen! by Chris Wilmer'
_symmetry_space_group_name_H-M	'P1'
_symmetry_Int_Tables_number	1
_symmetry_cell_setting	triclinic
loop_
_symmetry_equiv_pos_as_xyz
  x,y,z
_cell_length_a	12.837943
_cell_length_b	7.540329
_cell_length_c	9.065218
_cell_angle_alpha	89.998243
_cell_angle_beta	89.922413
_cell_angle_gamma	89.998130
loop_
_atom_site_label
_atom_site_type_symbol
_atom_site_fract_x
_atom_site_fract_y
_atom_site_fract_z
O1	O	1.379057	-0.147437	0.384029
O2	O	1.077074	-0.147448	0.365058
O3	O	1.234307	-0.147439	0.160660
O4	O	1.221824	-0.147446	0.588427
O5	O	1.234298	0.147526	0.160656
O6	O	1.077064	0.147517	0.365054
O7	O	1.379048	0.147528	0.384024
Cu8	Cu	1.228055	0.174455	0.374539
Cu9	Cu	1.228066	-0.174375	0.374544
O10	O	1.221814	0.147519	0.588423
C11	C	1.038388	0.000033	0.358647
C12	C	0.923132	0.000029	0.339534
C13	C	1.233103	0.000041	0.105525
C14	C	1.229515	0.000032	-0.058754
N15	N	1.228055	0.419804	0.374536
C16	C	0.684331	0.000050	0.569311
C17	C	0.576036	0.000047	0.551359
C18	C	0.598246	0.000033	0.285680
C19	C	0.706541	0.000036	0.303632
C20	C	0.749579	0.000042	0.445452
C21	C	0.857875	0.000032	0.463402
C22	C	0.880083	0.000030	0.197725
C23	C	0.771789	0.000027	0.179773
C24	C	1.417733	0.000043	0.390435
C25	C	1.532990	0.000036	0.409548
N26	N	1.228075	-0.419724	0.374536
C27	C	1.223019	0.000035	0.643557
C28	C	1.226606	0.000032	0.807836
H29	H	0.719372	0.000052	0.684786
H30	H	0.522914	0.000059	0.652219
H31	H	0.563185	0.000175	0.170217
O32	O	0.904291	0.000054	0.616363
H33	H	0.953094	-0.120173	0.630924
H34	H	0.736732	0.000043	0.064307
O35	O	0.950456	0.000031	0.064118
H36	H	1.032992	0.000044	0.100421
