data_functionalizedCrystal
_audit_creation_method	'MofGen! by Chris Wilmer'
_symmetry_space_group_name_H-M	'P1'
_symmetry_Int_Tables_number	1
_symmetry_cell_setting	triclinic
loop_
_symmetry_equiv_pos_as_xyz
  x,y,z
_cell_length_a	6.394989
_cell_length_b	17.699083
_cell_length_c	16.776229
_cell_angle_alpha	90.001114
_cell_angle_beta	90.003593
_cell_angle_gamma	84.890363
loop_
_atom_site_label
_atom_site_type_symbol
_atom_site_fract_x
_atom_site_fract_y
_atom_site_fract_z
O1	O	-0.264131	-1.006774	-0.066171
O2	O	-0.298495	-0.786746	-0.066197
O3	O	0.022767	-0.899883	-0.066184
O4	O	-0.585393	-0.893637	-0.066184
O5	O	0.022786	-0.899868	0.066392
O6	O	-0.298476	-0.786731	0.066380
O7	O	-0.264112	-1.006758	0.066405
Zn8	Zn	-0.281290	-0.896742	0.087442
Zn9	Zn	-0.281316	-0.896763	-0.087233
O10	O	-0.585374	-0.893621	0.066393
C11	C	-0.297254	-0.758529	0.000088
C12	C	-0.293560	-0.674473	0.000078
N13	N	-0.281271	-0.896733	0.206653
N14	N	-0.281319	-0.896777	-0.206444
C15	C	0.100592	-0.898640	0.000101
C16	C	0.336808	-0.894866	0.000100
C17	C	-0.265353	-1.034976	0.000119
C18	C	-0.269047	-1.119031	0.000123
C19	C	-0.482134	-0.627777	0.000079
C20	C	-0.478651	-0.548798	0.000089
C21	C	-0.286591	-0.516517	0.000093
C22	C	-0.098003	-0.563220	0.000095
C23	C	-0.101488	-0.642197	0.000091
C24	C	-0.083942	-0.244713	0.000115
C25	C	-0.080470	-0.165730	0.000117
C26	C	-0.461104	-0.151314	0.000113
C27	C	-0.464590	-0.230291	0.000109
C28	C	-0.276002	-0.276987	0.000115
C29	C	-0.279782	-0.362625	0.000105
C30	C	-0.282810	-0.430881	0.000097
C31	C	-0.139075	-0.946847	0.248376
C32	C	-0.139073	-0.946851	0.331828
C33	C	-0.281280	-0.896745	0.373556
C34	C	-0.423483	-0.846626	0.331828
C35	C	-0.423473	-0.846619	0.248377
C36	C	-0.423524	-0.846654	0.668375
C37	C	-0.423527	-0.846667	0.751831
C38	C	-0.139124	-0.946886	0.751826
C39	C	-0.139114	-0.946879	0.668375
C40	C	-0.281309	-0.896758	0.626654
C41	C	-0.281307	-0.896753	0.536166
C42	C	-0.281294	-0.896753	0.464043
H43	H	-0.638531	-0.654053	0.000075
H44	H	-0.023323	-0.987682	0.634403
C45	C	-0.668559	-0.099946	0.000116
C46	C	-0.718514	-0.043662	-0.068722
C47	C	-0.925962	0.007703	-0.068722
C48	C	-1.083455	0.002784	0.000116
C49	C	-1.033504	-0.053502	0.068959
C50	C	-0.826056	-0.104867	0.068960
H51	H	-0.601925	-0.040019	-0.119685
H52	H	-0.962938	0.049369	-0.119685
H53	H	-1.237020	0.040808	0.000116
H54	H	-1.150093	-0.057145	0.119922
H55	H	-0.789080	-0.146534	0.119922
C56	C	0.105946	-0.693567	0.000089
C57	C	0.263444	-0.688657	0.068934
C58	C	0.470884	-0.740027	0.068936
C59	C	0.520825	-0.796307	0.000093
C60	C	0.363322	-0.801219	-0.068757
C61	C	0.155882	-0.749849	-0.068760
H62	H	0.226479	-0.646994	0.119900
H63	H	0.587477	-0.736391	0.119904
H64	H	0.674384	-0.834334	0.000095
H65	H	0.400288	-0.842882	-0.119724
H66	H	0.039289	-0.753485	-0.119728
H67	H	-0.632207	-0.510780	0.000089
C68	C	-0.579946	-0.791530	0.622484
C69	C	-0.736439	-0.736438	0.668380
C70	C	-0.892869	-0.681313	0.622483
C71	C	-0.892807	-0.681280	0.530690
C72	C	-0.736308	-0.736374	0.484790
C73	C	-0.579877	-0.791499	0.530687
H74	H	-0.736490	-0.736461	0.736335
H75	H	-1.008720	-0.640530	0.656462
H76	H	-1.008606	-0.640473	0.496715
H77	H	-0.736256	-0.736351	0.416835
H78	H	-0.464027	-0.832283	0.496707
H79	H	-0.620984	-0.256569	0.000102
H80	H	0.075937	-0.139450	0.000122
C81	C	0.017334	-1.001978	0.377727
C82	C	0.173708	-1.057117	0.331835
C83	C	0.330122	-1.112245	0.377736
C84	C	0.330160	-1.112234	0.469528
C85	C	0.173780	-1.057093	0.515425
C86	C	0.017367	-1.001965	0.469525
H87	H	0.173685	-1.057126	0.263880
H88	H	0.445885	-1.153064	0.343759
H89	H	0.445947	-1.153044	0.503507
H90	H	0.173803	-1.057084	0.583380
H91	H	-0.098396	-0.961146	0.503501
H92	H	0.069618	-0.282724	0.000121
H93	H	0.058376	-0.536930	0.000110
H94	H	-0.023283	-0.987652	0.214406
H95	H	-0.023334	-0.987695	0.785804
H96	H	-0.539333	-0.805862	0.785805
H97	H	-0.539263	-0.805825	0.365808
H98	H	-0.539261	-0.805811	0.214407
