data_functionalizedCrystal
_audit_creation_method	'MofGen! by Chris Wilmer'
_symmetry_space_group_name_H-M	'P1'
_symmetry_Int_Tables_number	1
_symmetry_cell_setting	triclinic
loop_
_symmetry_equiv_pos_as_xyz
  x,y,z
_cell_length_a	19.188905
_cell_length_b	11.792241
_cell_length_c	10.868271
_cell_angle_alpha	90.005281
_cell_angle_beta	89.988558
_cell_angle_gamma	96.336014
loop_
_atom_site_label
_atom_site_type_symbol
_atom_site_fract_x
_atom_site_fract_y
_atom_site_fract_z
O1	O	0.926958	-0.141559	-0.102526
O2	O	1.426958	0.358441	0.397474
O3	O	0.723752	-0.160663	-0.102484
O4	O	1.223752	0.339337	0.397516
O5	O	0.830286	0.014134	-0.102497
O6	O	1.330286	0.514134	0.397503
O7	O	0.820424	-0.316356	-0.102512
O8	O	1.320424	0.183644	0.397488
O9	O	0.830277	0.014141	0.102148
O10	O	1.330277	0.514141	0.602148
O11	O	0.723743	-0.160656	0.102161
O12	O	1.223743	0.339344	0.602161
O13	O	0.926949	-0.141552	0.102119
O14	O	1.426949	0.358448	0.602119
Zn15	Zn	0.825345	-0.151103	0.134632
Zn16	Zn	1.325345	0.348897	0.634632
Zn17	Zn	0.825356	-0.151112	-0.134996
Zn18	Zn	1.325356	0.348888	0.365004
O19	O	0.820415	-0.316349	0.102132
O20	O	1.320415	0.183651	0.602132
C21	C	0.697733	-0.160046	-0.000156
C22	C	1.197733	0.339954	0.499844
C23	C	0.620217	-0.158203	-0.000140
C24	C	1.120217	0.341797	0.499860
C25	C	0.583825	-0.157321	-0.111695
C26	C	1.083825	0.342679	0.388305
C27	C	0.510991	-0.155577	-0.111710
C28	C	1.010991	0.344423	0.388290
C29	C	0.474554	-0.154691	-0.000164
C30	C	0.974554	0.345309	0.499836
C31	C	0.510955	-0.155580	0.111406
C32	C	1.010955	0.344420	0.611406
C33	C	0.583786	-0.157335	0.111418
C34	C	1.083786	0.342665	0.611418
N35	N	0.365149	-0.087345	0.082852
N36	N	0.865149	0.412655	0.582852
N37	N	0.295963	-0.085675	0.082833
N38	N	0.795963	0.414325	0.582833
C39	C	0.255118	-0.149404	-0.000193
C40	C	0.755118	0.350596	0.499807
N41	N	0.286074	-0.214852	-0.083219
N42	N	0.786074	0.285148	0.416781
N43	N	0.355267	-0.216518	-0.083203
N44	N	0.855267	0.283482	0.416797
C45	C	0.395581	-0.152788	-0.000164
C46	C	0.895581	0.347212	0.499836
C47	C	0.139751	-0.146633	-0.111772
C48	C	0.639751	0.353367	0.388228
C49	C	0.066916	-0.144896	-0.111783
C50	C	0.566916	0.355104	0.388217
C51	C	0.066881	-0.144887	0.111336
C52	C	0.566881	0.355113	0.611336
C53	C	0.139715	-0.146636	0.111343
C54	C	0.639715	0.353364	0.611343
C55	C	0.176146	-0.147503	-0.000214
C56	C	0.676146	0.352497	0.499786
C57	C	0.829662	0.056419	-0.000175
C58	C	1.329662	0.556419	0.499825
C59	C	0.827808	0.182405	-0.000176
C60	C	1.327808	0.682405	0.499824
C61	C	0.952968	-0.142169	-0.000211
C62	C	1.452968	0.357831	0.499789
C63	C	1.030484	-0.144012	-0.000236
C64	C	1.530484	0.355988	0.499764
C65	C	0.821039	-0.358634	-0.000192
C66	C	1.321039	0.141366	0.499808
C67	C	0.822893	-0.484620	-0.000200
C68	C	1.322893	0.015380	0.499800
N69	N	0.825342	-0.151096	0.318646
N70	N	1.325342	0.348904	0.818646
C71	C	0.824398	0.413065	-0.000196
C72	C	1.324398	0.913065	0.499804
C73	C	0.826293	0.284709	-0.000185
C74	C	1.326293	0.784709	0.499815
N75	N	0.825364	-0.151110	-0.319010
N76	N	1.325364	0.348890	0.180990
C77	C	0.825352	-0.151110	0.569652
C78	C	1.325352	0.348890	1.069652
C79	C	0.825344	-0.151106	0.429974
C80	C	1.325344	0.348894	0.929974
H81	H	0.481283	-0.154861	0.202228
H82	H	0.981283	0.345139	0.702228
H83	H	0.613416	-0.158054	0.202262
H84	H	1.113416	0.341946	0.702262
H85	H	0.169414	-0.147351	-0.202609
H86	H	0.669414	0.352649	0.297391
C87	C	0.074273	-0.145047	-0.332322
C88	C	0.574273	0.354953	0.167678
C89	C	0.026911	-0.143922	-0.234415
C90	C	0.526911	0.356078	0.265585
H91	H	0.049574	-0.144438	-0.408029
H92	H	0.549574	0.355562	0.091971
H93	H	0.097597	-0.211896	-0.327690
H94	H	0.597597	0.288104	0.172310
H95	H	0.107761	-0.079557	-0.327655
H96	H	0.607761	0.420443	0.172345
H97	H	-0.006574	-0.209418	-0.239077
H98	H	0.493426	0.290582	0.260923
H99	H	0.003575	-0.077066	-0.239049
H100	H	0.503575	0.422934	0.260951
C101	C	-0.044773	-0.142169	0.210387
C102	C	0.455227	0.357831	0.710387
C103	C	0.026839	-0.143901	0.233952
C104	C	0.526839	0.356099	0.733952
H105	H	-0.069493	-0.141553	0.286089
H106	H	0.430507	0.358447	0.786089
H107	H	-0.061781	-0.208053	0.164564
H108	H	0.438219	0.291947	0.664564
H109	H	-0.051611	-0.075714	0.164541
H110	H	0.448389	0.424286	0.664541
H111	H	0.033678	-0.210361	0.279790
H112	H	0.533678	0.289639	0.779790
H113	H	0.043852	-0.078010	0.279794
H114	H	0.543852	0.421990	0.779794
C115	C	0.399358	-0.152876	-0.210787
C116	C	0.899358	0.347124	0.289213
C117	C	0.470977	-0.154601	-0.234339
C118	C	0.970977	0.345399	0.265661
H119	H	0.374658	-0.152279	-0.286494
H120	H	0.874658	0.347721	0.213506
H121	H	0.392503	-0.086426	-0.164948
H122	H	0.892503	0.413574	0.335052
H123	H	0.382340	-0.218766	-0.164962
H124	H	0.882340	0.281234	0.335038
H125	H	0.487997	-0.088707	-0.280156
H126	H	0.987997	0.411293	0.219844
H127	H	0.477836	-0.221058	-0.280197
H128	H	0.977836	0.278942	0.219803
C129	C	0.214108	-0.246138	0.240791
C130	C	0.714108	0.253862	0.740791
C131	C	0.179723	-0.147588	0.233970
C132	C	0.679723	0.352412	0.733970
H133	H	0.238804	-0.246728	0.316502
H134	H	0.738804	0.253272	0.816502
H135	H	0.246227	-0.246907	0.174366
H136	H	0.746227	0.253093	0.674366
H137	H	0.180609	-0.311617	0.236150
H138	H	0.680609	0.188383	0.736150
H139	H	0.213223	-0.082109	0.238601
H140	H	0.713223	0.417891	0.738601
H141	H	0.147602	-0.146808	0.300413
H142	H	0.647602	0.353192	0.800413
C143	C	0.576538	-0.157147	-0.332237
C144	C	1.076538	0.342853	0.167763
C145	C	0.623868	-0.158286	-0.234318
C146	C	1.123868	0.341714	0.265682
H147	H	0.601261	-0.157751	-0.407938
H148	H	1.101261	0.342249	0.092062
H149	H	0.553215	-0.090296	-0.327595
H150	H	1.053215	0.409704	0.172405
H151	H	0.543046	-0.222636	-0.327596
H152	H	1.043046	0.277364	0.172404
H153	H	0.657357	-0.092793	-0.238954
H154	H	1.157357	0.407207	0.261046
H155	H	0.647203	-0.225144	-0.238962
H156	H	1.147203	0.274856	0.261038
