data_functionalizedCrystal
_audit_creation_method	'MofGen! by Chris Wilmer'
_symmetry_space_group_name_H-M	'P1'
_symmetry_Int_Tables_number	1
_symmetry_cell_setting	triclinic
loop_
_symmetry_equiv_pos_as_xyz
  x,y,z
_cell_length_a	10.908925
_cell_length_b	16.109301
_cell_length_c	14.586319
_cell_angle_alpha	90.005214
_cell_angle_beta	90.007284
_cell_angle_gamma	71.774069
loop_
_atom_site_label
_atom_site_type_symbol
_atom_site_fract_x
_atom_site_fract_y
_atom_site_fract_z
O1	O	-1.703890	0.128401	-0.076307
O2	O	-1.203890	0.628401	0.423693
O3	O	-1.330002	0.063476	-0.076295
O4	O	-0.830002	0.563476	0.423705
O5	O	-1.527217	0.218388	-0.076292
O6	O	-1.027217	0.718388	0.423708
O7	O	-1.506675	-0.026511	-0.076310
O8	O	-1.006675	0.473489	0.423690
O9	O	-1.527203	0.218388	0.076189
O10	O	-1.027203	0.718388	0.576189
O11	O	-1.329989	0.063476	0.076186
O12	O	-0.829989	0.563476	0.576186
O13	O	-1.703876	0.128401	0.076174
O14	O	-1.203876	0.628401	0.576174
Cu15	Cu	-1.516931	0.095938	0.090102
Cu16	Cu	-1.016931	0.595938	0.590102
Cu17	Cu	-1.516947	0.095939	-0.090224
Cu18	Cu	-1.016947	0.595939	0.409776
O19	O	-1.506661	-0.026511	0.076171
O20	O	-1.006661	0.473489	0.576171
C21	C	-1.282152	0.057409	-0.000053
C22	C	-0.782152	0.557409	0.499947
C23	C	-1.139593	0.039340	-0.000048
C24	C	-0.639593	0.539340	0.499952
C25	C	-0.943271	0.086607	-0.000056
C26	C	-0.443271	0.586607	0.499944
C27	C	-1.090613	0.105284	-0.000047
C28	C	-0.590613	0.605284	0.499953
C29	C	-0.751727	0.134469	-0.000064
C30	C	-0.251727	0.634469	0.499936
C31	C	-0.894286	0.152541	-0.000055
C32	C	-0.394286	0.652541	0.499945
C33	C	-1.526378	0.249248	-0.000051
C34	C	-1.026378	0.749248	0.499949
C35	C	-1.523883	0.341199	-0.000050
C36	C	-1.023883	0.841199	0.499950
C37	C	-1.507500	-0.057371	-0.000072
C38	C	-1.007500	0.442629	0.499928
C39	C	-1.509995	-0.149322	-0.000080
C40	C	-1.009995	0.350678	0.499920
N41	N	-1.516929	0.095940	0.216934
N42	N	-1.016929	0.595940	0.716934
C43	C	-1.635106	0.578828	-0.000068
C44	C	-1.135106	1.078828	0.499932
C45	C	-1.632752	0.665223	-0.000075
C46	C	-1.132752	1.165223	0.499925
C47	C	-1.398763	0.613041	-0.000064
C48	C	-0.898763	1.113041	0.499936
C49	C	-1.401119	0.526647	-0.000063
C50	C	-0.901119	1.026647	0.499937
C51	C	-1.519294	0.509544	-0.000060
C52	C	-1.019294	1.009544	0.499940
C53	C	-1.514585	0.682333	-0.000069
C54	C	-1.014585	1.182333	0.499931
C55	C	-1.512031	0.776006	-0.000077
C56	C	-1.012031	1.276006	0.499923
C57	C	-1.521848	0.415865	-0.000054
C58	C	-1.021848	0.915865	0.499946
N59	N	-1.516960	0.095945	-0.217056
N60	N	-1.016960	0.595945	0.282944
C61	C	-1.604285	0.164520	0.451942
C62	C	-1.104285	0.664520	0.951942
C63	C	-1.604288	0.164523	0.547923
C64	C	-1.104288	0.664523	1.047923
C65	C	-1.429595	0.027361	0.547930
C66	C	-0.929595	0.527361	1.047930
C67	C	-1.429586	0.027362	0.451950
C68	C	-0.929586	0.527362	0.951950
C69	C	-1.516938	0.095942	0.403959
C70	C	-1.016938	0.595942	0.903959
C71	C	-1.516951	0.095943	0.595920
C72	C	-1.016951	0.595943	1.095920
C73	C	-1.516954	0.095945	0.699987
C74	C	-1.016954	0.595945	1.199987
C75	C	-1.516933	0.095941	0.299885
C76	C	-1.016933	0.595941	0.799885
H77	H	-0.961431	0.222817	-0.000053
H78	H	-0.461431	0.722817	0.499947
H79	H	-1.358451	-0.028483	0.412880
H80	H	-0.858451	0.471517	0.912880
H81	H	-0.876127	0.016331	-0.000069
H82	H	-0.376127	0.516331	0.499931
Br83	Br	-1.238391	0.636259	-0.000071
Br84	Br	-0.738391	1.136259	0.499929
Br85	Br	-1.027701	-0.077802	-0.000069
Br86	Br	-0.527701	0.422198	0.499931
H87	H	-1.675410	0.220363	0.412870
H88	H	-1.175410	0.720363	0.912870
H89	H	-1.306805	0.470231	-0.000060
H90	H	-0.806805	0.970231	0.499940
Br91	Br	-1.795485	0.555619	-0.000063
Br92	Br	-1.295485	1.055619	0.499937
H93	H	-1.727058	0.721633	-0.000083
H94	H	-1.227058	1.221633	0.499917
H95	H	-1.157754	0.175564	-0.000045
H96	H	-0.657754	0.675564	0.499955
H97	H	-1.358476	-0.028476	0.587014
H98	H	-0.858476	0.471524	1.087014
Br99	Br	-1.722829	0.257600	0.613042
Br100	Br	-1.222829	0.757600	1.113042
