data_functionalizedCrystal
_audit_creation_method	'MofGen! by Chris Wilmer'
_symmetry_space_group_name_H-M	'P1'
_symmetry_Int_Tables_number	1
_symmetry_cell_setting	triclinic
loop_
_symmetry_equiv_pos_as_xyz
  x,y,z
_cell_length_a	12.996460
_cell_length_b	14.519709
_cell_length_c	14.519709
_cell_angle_alpha	83.680145
_cell_angle_beta	89.998766
_cell_angle_gamma	89.999398
loop_
_atom_site_label
_atom_site_type_symbol
_atom_site_fract_x
_atom_site_fract_y
_atom_site_fract_z
O1	O	0.085435	-1.223870	-0.120885
O2	O	0.085467	-0.955394	-0.135121
O3	O	0.085441	-1.096750	0.006235
O4	O	0.085461	-1.082514	-0.262242
O5	O	-0.085693	-1.096732	0.006227
O6	O	-0.085667	-0.955375	-0.135130
O7	O	-0.085699	-1.223852	-0.120893
Cu8	Cu	-0.101309	-1.089612	-0.128012
Cu9	Cu	0.101077	-1.089634	-0.128002
O10	O	-0.085673	-1.082496	-0.262250
C11	C	-0.000096	-0.921025	-0.134462
C12	C	-0.000084	-0.818643	-0.132474
N13	N	-0.243656	-1.089604	-0.128018
C14	C	-0.336762	-1.089608	-0.128021
C15	C	-0.453567	-1.089616	-0.128015
C16	C	-0.546665	-1.089628	-0.128004
C17	C	-0.663478	-1.089638	-0.127999
C18	C	-0.000126	-1.096078	0.040591
C19	C	-0.000126	-1.094090	0.142972
N20	N	0.243424	-1.089649	-0.127989
C21	C	-0.000134	-1.258221	-0.121553
C22	C	-0.000139	-1.360602	-0.123541
C23	C	-0.000132	-0.443748	-0.125154
C24	C	-0.000118	-0.548056	-0.127187
C25	C	-0.000107	-0.631192	-0.128814
C26	C	-0.000095	-0.735507	-0.130847
C27	C	-0.000103	-1.083168	-0.296606
C28	C	-0.000096	-1.085156	-0.398987
C29	C	-0.000099	-1.086770	0.517868
C30	C	-0.000107	-1.088803	0.413560
C31	C	-0.000114	-1.090430	0.330423
C32	C	-0.000120	-1.092463	0.226109
