data_functionalizedCrystal
_audit_creation_method	'MofGen! by Chris Wilmer'
_symmetry_space_group_name_H-M	'P1'
_symmetry_Int_Tables_number	1
_symmetry_cell_setting	triclinic
loop_
_symmetry_equiv_pos_as_xyz
  x,y,z
_cell_length_a	10.685904
_cell_length_b	14.908178
_cell_length_c	10.686551
_cell_angle_alpha	97.435690
_cell_angle_beta	98.408451
_cell_angle_gamma	97.409762
loop_
_atom_site_label
_atom_site_type_symbol
_atom_site_fract_x
_atom_site_fract_y
_atom_site_fract_z
Zn1	Zn	1.977936	-0.204179	0.848835
Zn2	Zn	1.947072	-0.369210	0.622123
Zn3	Zn	1.747143	-0.229534	0.618079
Zn4	Zn	1.751201	-0.369122	0.818041
O5	O	1.855838	-0.293011	0.726770
O6	O	2.152402	-0.215496	0.833342
O7	O	1.905935	-0.361330	0.443023
O8	O	1.788976	-0.098686	0.659885
O9	O	2.129726	-0.336744	0.666777
O10	O	1.958539	-0.080058	0.829420
O11	O	1.759048	-0.258710	0.440051
O12	O	1.569121	-0.258625	0.630024
O13	O	1.795894	-0.336594	1.000690
O14	O	1.572103	-0.361180	0.776935
O15	O	1.962475	-0.215411	1.023315
O16	O	1.909871	-0.496683	0.636917
O17	O	1.765966	-0.496618	0.780857
C18	C	1.524313	-0.312645	0.699700
C19	C	1.382486	-0.321065	0.688148
C20	C	1.835046	-0.529702	0.706015
C21	C	1.826272	-0.630950	0.697188
C22	C	1.986240	-0.801655	0.857304
C23	C	1.978000	-0.896786	0.849015
C24	C	1.801548	-0.916344	0.672328
C25	C	1.809787	-0.821214	0.680617
C26	C	1.902138	-0.763872	0.773107
C27	C	1.910383	-0.668739	0.781389
C28	C	1.733925	-0.688299	0.604709
C29	C	1.725685	-0.783430	0.596420
C30	C	2.188657	-0.273302	0.753946
C31	C	2.330485	-0.264902	0.765527
C32	C	1.883080	-0.273164	1.059597
C33	C	1.894689	-0.264707	1.201428
C34	C	1.876748	-0.055392	0.747636
C35	C	1.885658	0.045867	0.756529
C36	C	1.828781	-0.312711	0.395249
C37	C	1.817442	-0.320897	0.253462
H38	H	1.985582	-0.622052	0.856695
N39	N	1.415231	-0.192681	0.865001
H40	H	1.469986	-0.150248	0.821407
H41	H	1.472026	-0.223082	0.925215
H42	H	1.318504	-0.375584	0.613062
H43	H	2.061444	-0.754966	0.932604
H44	H	1.969715	-0.210129	1.265392
H45	H	1.726355	-0.963048	0.597033
N46	N	1.626096	-0.845282	0.496659
H47	H	1.574070	-0.806908	0.444575
H48	H	1.567820	-0.885184	0.540276
H49	H	1.665446	-0.657526	0.536146
H50	H	2.046479	-0.927544	0.917583
H51	H	1.742429	-0.375477	1.189505
