data_functionalizedCrystal
_audit_creation_method	'MofGen! by Chris Wilmer'
_symmetry_space_group_name_H-M	'P1'
_symmetry_Int_Tables_number	1
_symmetry_cell_setting	triclinic
loop_
_symmetry_equiv_pos_as_xyz
  x,y,z
_cell_length_a	14.971486
_cell_length_b	16.109301
_cell_length_c	14.048226
_cell_angle_alpha	89.992144
_cell_angle_beta	89.998499
_cell_angle_gamma	83.537805
loop_
_atom_site_label
_atom_site_type_symbol
_atom_site_fract_x
_atom_site_fract_y
_atom_site_fract_z
O1	O	1.186791	0.108348	-0.079054
O2	O	1.520124	0.441681	0.254279
O3	O	1.853457	0.775014	0.587612
O4	O	0.926372	0.121323	-0.079081
O5	O	1.259705	0.454656	0.254253
O6	O	1.593039	0.787989	0.587586
O7	O	1.063735	-0.006187	-0.079057
O8	O	1.397069	0.327146	0.254276
O9	O	1.730402	0.660480	0.587610
O10	O	1.049427	0.235857	-0.079078
O11	O	1.382761	0.569191	0.254256
O12	O	1.716094	0.902524	0.587589
O13	O	1.063719	-0.006194	0.079264
O14	O	1.397052	0.327139	0.412598
O15	O	1.730385	0.660472	0.745931
O16	O	0.926355	0.121315	0.079241
O17	O	1.259689	0.454648	0.412574
O18	O	1.593022	0.787982	0.745907
O19	O	1.186774	0.108340	0.079267
O20	O	1.520108	0.441674	0.412600
O21	O	1.853441	0.775007	0.745934
Zn22	Zn	1.056562	0.114826	0.104391
Zn23	Zn	1.389896	0.448160	0.437724
Zn24	Zn	1.723229	0.781493	0.771058
Zn25	Zn	1.056584	0.114836	-0.104204
Zn26	Zn	1.389917	0.448170	0.229129
Zn27	Zn	1.723251	0.781503	0.562462
O28	O	1.049411	0.235850	0.079244
O29	O	1.382744	0.569183	0.412577
O30	O	1.716078	0.902516	0.745910
C31	C	0.893040	0.120739	0.000077
C32	C	1.226373	0.454072	0.333410
C33	C	1.559706	0.787405	0.666744
C34	C	0.793745	0.119000	0.000067
C35	C	1.127079	0.452333	0.333400
C36	C	1.460412	0.785666	0.666734
C37	C	0.736412	0.193908	0.000062
C38	C	1.069745	0.527241	0.333395
C39	C	1.403078	0.860575	0.666729
C40	C	0.643115	0.192269	0.000076
C41	C	0.976448	0.525603	0.333410
C42	C	1.309781	0.858936	0.666743
C43	C	0.607153	0.115721	0.000089
C44	C	0.940486	0.449055	0.333422
C45	C	1.273819	0.782388	0.666756
C46	C	0.664494	0.040807	0.000097
C47	C	0.997827	0.374140	0.333430
C48	C	1.331160	0.707474	0.666764
C49	C	0.757789	0.042447	0.000089
C50	C	1.091122	0.375780	0.333423
C51	C	1.424455	0.709113	0.666756
C52	C	0.470036	0.037395	0.000110
C53	C	0.803369	0.370728	0.333444
C54	C	1.136703	0.704062	0.666777
C55	C	0.376734	0.035755	0.000116
C56	C	0.710068	0.369088	0.333449
C57	C	1.043401	0.702421	0.666783
C58	C	0.355362	0.187217	0.000097
C59	C	0.688695	0.520551	0.333431
C60	C	1.022029	0.853884	0.666764
C61	C	0.448657	0.188857	0.000090
C62	C	0.781990	0.522190	0.333423
C63	C	1.115324	0.855524	0.666756
C64	C	0.505991	0.113942	0.000096
C65	C	0.839325	0.447276	0.333429
C66	C	1.172658	0.780609	0.666763
C67	C	1.063147	-0.037166	0.000104
C68	C	1.396481	0.296167	0.333437
C69	C	1.729814	0.629500	0.666771
C70	C	1.061410	-0.129464	0.000105
C71	C	1.394743	0.203870	0.333439
C72	C	1.728076	0.537203	0.666772
C73	C	1.138878	-0.351640	0.000098
C74	C	1.472212	-0.018306	0.333431
C75	C	1.805545	0.315027	0.666765
C76	C	1.137239	-0.438362	0.000090
C77	C	1.470572	-0.105029	0.333423
C78	C	1.803905	0.228305	0.666757
C79	C	0.974262	-0.418691	0.000077
C80	C	1.307595	-0.085357	0.333411
C81	C	1.640928	0.247976	0.666744
C82	C	0.975902	-0.331970	0.000078
C83	C	1.309236	0.001363	0.333412
C84	C	1.642569	0.334697	0.666745
C85	C	1.058213	-0.298447	0.000094
C86	C	1.391546	0.034886	0.333427
C87	C	1.724880	0.368220	0.666760
C88	C	1.054933	-0.471890	0.000085
C89	C	1.388266	-0.138557	0.333418
C90	C	1.721600	0.194776	0.666751
C91	C	1.053155	-0.565918	0.000076
C92	C	1.386488	-0.232585	0.333409
C93	C	1.719821	0.100748	0.666743
C94	C	1.059992	-0.204413	0.000101
C95	C	1.393325	0.128921	0.333434
C96	C	1.726659	0.462254	0.666767
C97	C	1.220106	0.108924	0.000108
C98	C	1.553440	0.442258	0.333441
C99	C	1.886773	0.775591	0.666774
C100	C	1.319401	0.110663	0.000111
C101	C	1.652734	0.443996	0.333444
C102	C	1.986068	0.777330	0.666778
C103	C	1.049999	0.266829	0.000080
C104	C	1.383332	0.600162	0.333414
C105	C	1.716665	0.933496	0.666747
C106	C	1.051736	0.359127	0.000073
C107	C	1.385070	0.692460	0.333406
C108	C	1.718403	1.025793	0.666740
N109	N	1.056554	0.114819	0.246752
N110	N	1.389887	0.448153	0.580085
N111	N	1.723221	0.781486	0.913418
N112	N	1.056599	0.114837	-0.246565
N113	N	1.389933	0.448170	0.086768
N114	N	1.723266	0.781504	0.420102
C115	C	1.117397	0.058381	0.296580
C116	C	1.450731	0.391715	0.629913
C117	C	1.784064	0.725048	0.963247
C118	C	1.117403	0.058381	0.396238
C119	C	1.450737	0.391714	0.729571
C120	C	1.784070	0.725048	1.062904
C121	C	1.056570	0.114823	0.446065
C122	C	1.389903	0.448156	0.779398
C123	C	1.723236	0.781490	1.112732
C124	C	0.995719	0.171263	0.396230
C125	C	1.329053	0.504597	0.729563
C126	C	1.662386	0.837930	1.062896
C127	C	0.995710	0.171259	0.296574
C128	C	1.329043	0.504593	0.629907
C129	C	1.662377	0.837926	0.963240
C130	C	0.995745	0.171269	0.603944
C131	C	1.329079	0.504603	0.937277
C132	C	1.662412	0.837936	1.270610
C133	C	0.995756	0.171275	0.703607
C134	C	1.329089	0.504608	1.036940
C135	C	1.662422	0.837942	1.370273
C136	C	1.117439	0.058391	0.703608
C137	C	1.450772	0.391724	1.036941
C138	C	1.784106	0.725058	1.370274
C139	C	1.117429	0.058387	0.603952
C140	C	1.450763	0.391720	0.937285
C141	C	1.784096	0.725054	1.270619
C142	C	1.056580	0.114829	0.554123
C143	C	1.389913	0.448162	0.887457
C144	C	1.723247	0.781495	1.220790
H145	H	0.635206	-0.021520	0.000121
H146	H	0.968539	0.311814	0.333454
H147	H	1.301873	0.645147	0.666788
H148	H	0.308675	0.248215	0.000097
H149	H	0.642009	0.581549	0.333430
H150	H	0.975342	0.914882	0.666763
H151	H	1.202924	-0.481669	0.000092
H152	H	1.536258	-0.148335	0.333425
H153	H	1.869591	0.184998	0.666758
H154	H	1.166939	0.012423	0.256017
H155	H	1.500272	0.345757	0.589350
H156	H	1.833606	0.679090	0.922684
H157	H	1.205901	-0.324348	0.000108
H158	H	1.539234	0.008985	0.333442
H159	H	1.872568	0.342318	0.666775
H160	H	0.477934	0.251189	0.000070
H161	H	0.811267	0.584522	0.333404
H162	H	1.144601	0.917856	0.666737
H163	H	0.946192	0.217228	0.563377
H164	H	1.279526	0.550561	0.896710
H165	H	1.612859	0.883894	1.230043
O166	O	0.341901	-0.038652	0.000007
O167	O	0.675234	0.294681	0.333340
O168	O	1.008568	0.628015	0.666674
C169	C	0.371176	-0.084321	-0.081992
C170	C	0.704509	0.249013	0.251341
C171	C	1.037842	0.582346	0.584675
H172	H	0.435880	-0.061608	-0.109336
H173	H	0.769213	0.271725	0.223997
H174	H	1.102547	0.605058	0.557331
H175	H	0.384135	-0.153544	-0.063536
H176	H	0.717468	0.179790	0.269798
H177	H	1.050801	0.513123	0.603131
H178	H	0.317187	-0.074740	-0.139409
H179	H	0.650520	0.258593	0.193924
H180	H	0.983854	0.591927	0.527258
O181	O	0.894365	-0.451357	-0.000056
O182	O	1.227699	-0.118024	0.333278
O183	O	1.561032	0.215310	0.666611
C184	C	0.888535	-0.500907	-0.082062
C185	C	1.221869	-0.167573	0.251271
C186	C	1.555202	0.165760	0.584604
H187	H	0.959041	-0.522434	-0.109396
H188	H	1.292375	-0.189100	0.223937
H189	H	1.625708	0.144233	0.557271
H190	H	0.852895	-0.557729	-0.063621
H191	H	1.186228	-0.224396	0.269712
H192	H	1.519561	0.108938	0.603046
H193	H	0.848957	-0.462627	-0.139482
H194	H	1.182290	-0.129293	0.193852
H195	H	1.515624	0.204040	0.527185
O196	O	1.176424	0.003476	0.752046
O197	O	1.509757	0.336809	1.085379
O198	O	1.843091	0.670143	1.418712
C199	C	1.128555	-0.047883	0.809723
C200	C	1.461889	0.285450	1.143057
C201	C	1.795222	0.618784	1.476390
H202	H	1.058017	-0.049400	0.779703
H203	H	1.391350	0.283934	1.113037
H204	H	1.724683	0.617267	1.446370
H205	H	1.165075	-0.113909	0.810857
H206	H	1.498409	0.219424	1.144190
H207	H	1.831742	0.552758	1.477523
H208	H	1.123866	-0.021872	0.885248
H209	H	1.457200	0.311461	1.218581
H210	H	1.790533	0.644795	1.551915
H211	H	0.516716	-0.023609	0.000117
H212	H	0.850049	0.309725	0.333450
H213	H	1.183382	0.643058	0.666784
H214	H	0.910211	-0.288658	0.000072
H215	H	1.243544	0.044675	0.333405
H216	H	1.576878	0.378009	0.666739
H217	H	0.946218	0.217235	0.744171
H218	H	1.279551	0.550568	1.077504
H219	H	1.612884	0.883902	1.410838
O220	O	0.813358	-0.030396	0.000047
O221	O	1.146691	0.302937	0.333380
O222	O	1.480025	0.636270	0.666714
C223	C	0.761614	-0.098312	0.000081
C224	C	1.094947	0.235021	0.333414
C225	C	1.428281	0.568354	0.666748
H226	H	0.691975	-0.077279	-0.029889
H227	H	1.025308	0.256054	0.303444
H228	H	1.358641	0.589388	0.636777
H229	H	0.796044	-0.150801	-0.045881
H230	H	1.129377	0.182532	0.287452
H231	H	1.462711	0.515865	0.620786
H232	H	0.754982	-0.121775	0.076039
H233	H	1.088315	0.211558	0.409372
H234	H	1.421649	0.544891	0.742706
H235	H	1.166946	0.012424	0.436808
H236	H	1.500280	0.345758	0.770141
H237	H	1.833613	0.679091	1.103474
O238	O	0.587549	0.265113	0.000028
O239	O	0.920882	0.598446	0.333361
O240	O	1.254216	0.931779	0.666695
C241	C	0.639296	0.333027	0.000033
C242	C	0.972629	0.666360	0.333367
C243	C	1.305962	0.999693	0.666700
H244	H	0.708930	0.311993	-0.029947
H245	H	1.042263	0.645326	0.303387
H246	H	1.375597	0.978660	0.636720
H247	H	0.604860	0.385519	-0.045935
H248	H	0.938194	0.718852	0.287399
H249	H	1.271527	1.052186	0.620732
H250	H	0.645939	0.356485	0.075984
H251	H	0.979273	0.689818	0.409317
H252	H	1.312606	1.023152	0.742650
H253	H	1.166969	0.012432	0.563383
H254	H	1.500302	0.345765	0.896716
H255	H	1.833636	0.679098	1.230049
H256	H	0.946164	0.217216	0.256004
H257	H	1.279497	0.550549	0.589338
H258	H	1.612830	0.883882	0.922671
O259	O	0.771383	0.268248	-0.000122
O260	O	1.104716	0.601581	0.333212
O261	O	1.438049	0.934915	0.666545
C262	C	0.824721	0.273725	-0.082112
C263	C	1.158054	0.607058	0.251222
C264	C	1.491387	0.940392	0.584555
H265	H	0.802670	0.230257	-0.139415
H266	H	1.136003	0.563590	0.193919
H267	H	1.469336	0.896924	0.527252
H268	H	0.816320	0.340723	-0.109642
H269	H	1.149653	0.674057	0.223691
H270	H	1.482986	1.007390	0.557024
H271	H	0.898301	0.254625	-0.063579
H272	H	1.231634	0.587958	0.269755
H273	H	1.564968	0.921291	0.603088
O274	O	0.936588	0.225976	0.444736
O275	O	1.269921	0.559310	0.778069
O276	O	1.603254	0.892643	1.111403
C277	C	0.881419	0.181366	0.502384
C278	C	1.214752	0.514699	0.835717
C279	C	1.548086	0.848032	1.169050
H280	H	0.917067	0.116362	0.517320
H281	H	1.250401	0.449696	0.850654
H282	H	1.583734	0.783029	1.183987
H283	H	0.867267	0.216049	0.572457
H284	H	1.200600	0.549382	0.905790
H285	H	1.533934	0.882716	1.239124
H286	H	0.815313	0.175613	0.463991
H287	H	1.148646	0.508947	0.797324
H288	H	1.481979	0.842280	1.130658
