data_functionalizedCrystal
_audit_creation_method	'MofGen! by Chris Wilmer'
_symmetry_space_group_name_H-M	'P1'
_symmetry_Int_Tables_number	1
_symmetry_cell_setting	triclinic
loop_
_symmetry_equiv_pos_as_xyz
  x,y,z
_cell_length_a	10.654541
_cell_length_b	17.699082
_cell_length_c	9.130307
_cell_angle_alpha	90.001351
_cell_angle_beta	90.000178
_cell_angle_gamma	83.883205
loop_
_atom_site_label
_atom_site_type_symbol
_atom_site_fract_x
_atom_site_fract_y
_atom_site_fract_z
O1	O	1.665977	0.106293	0.121748
O2	O	1.300321	0.116422	0.121760
O3	O	1.493481	0.001234	0.121751
O4	O	1.472818	0.221481	0.121756
O5	O	1.493474	0.001233	-0.121848
O6	O	1.300315	0.116421	-0.121839
O7	O	1.665971	0.106292	-0.121851
Cu8	Cu	1.483142	0.111356	-0.144088
Cu9	Cu	1.483150	0.111358	0.143996
O10	O	1.472811	0.221480	-0.121843
C11	C	1.253533	0.115678	-0.000038
C12	C	1.114128	0.113454	-0.000033
C13	C	1.492737	-0.026968	-0.000046
C14	C	1.490517	-0.111001	-0.000039
N15	N	1.483146	0.111355	-0.346711
C16	C	1.083745	0.251193	-0.000012
C17	C	1.003063	0.319015	0.000005
C18	C	0.872082	0.316921	0.000007
C19	C	0.821781	0.246997	-0.000013
C20	C	0.902463	0.179176	-0.000030
C21	C	1.033446	0.181278	-0.000027
C22	C	0.932846	0.041438	-0.000062
C23	C	1.063827	0.043531	-0.000053
C24	C	0.882545	-0.028485	-0.000082
C25	C	0.963227	-0.096308	-0.000088
C26	C	1.094216	-0.094211	-0.000088
C27	C	1.144509	-0.024291	-0.000070
C28	C	1.712759	0.107036	-0.000050
C29	C	1.852164	0.109260	-0.000045
C30	C	1.473555	0.249682	-0.000042
C31	C	1.475775	0.333715	-0.000040
C32	C	1.476823	0.373191	0.132747
C33	C	1.478925	0.452147	0.132749
C34	C	1.479971	0.491626	-0.000038
C35	C	1.478927	0.452144	-0.132836
C36	C	1.476833	0.373188	-0.132836
C37	C	1.487371	0.770561	-0.132838
C38	C	1.489460	0.849522	-0.132828
C39	C	1.489462	0.849520	0.132747
C40	C	1.487369	0.770564	0.132747
C41	C	1.486332	0.731089	-0.000050
C42	C	1.484054	0.645475	-0.000050
C43	C	1.482239	0.577238	-0.000039
C44	C	1.654258	0.009386	-0.346708
C45	C	1.739823	-0.041597	-0.423374
C46	C	1.739835	-0.041597	-0.576707
C47	C	1.654272	0.009389	-0.653379
C48	C	1.568707	0.060371	-0.576713
C49	C	1.568707	0.060368	-0.423376
C50	C	1.397591	0.162336	-0.576715
C51	C	1.397583	0.162341	-0.423382
C52	C	1.312028	0.213322	-0.653387
C53	C	1.226467	0.264309	-0.576721
C54	C	1.226459	0.264308	-0.423378
C55	C	1.312018	0.213324	-0.346716
N56	N	1.483156	0.111353	0.346619
H57	H	1.190396	0.252906	0.000020
H58	H	0.922261	-0.153235	-0.000103
H59	H	1.654267	0.009387	-0.221856
H60	H	1.044033	0.375945	0.000017
H61	H	1.486511	0.738425	0.240876
H62	H	0.806389	0.372147	0.000010
H63	H	1.479781	0.484285	0.240878
H64	H	0.775892	-0.030186	-0.000089
H65	H	1.251159	-0.022576	-0.000052
H66	H	0.715128	0.245298	-0.000030
H67	H	1.486528	0.738429	-0.240969
H68	H	1.475959	0.341054	0.240878
H69	H	1.490305	0.881664	-0.240965
H70	H	1.312036	0.213316	-0.778239
H71	H	1.159901	-0.149440	-0.000107
H72	H	1.809486	-0.083111	-0.360935
H73	H	1.312024	0.213321	-0.221864
H74	H	1.490311	0.881670	0.240877
H75	H	1.479786	0.484293	-0.240954
H76	H	1.475979	0.341048	-0.240966
H77	H	1.156778	0.305821	-0.360965
H78	H	1.809505	-0.083115	-0.639129
H79	H	1.654277	0.009379	-0.778231
H80	H	1.156802	0.305815	-0.639156
