data_functionalizedCrystal
_audit_creation_method	'MofGen! by Chris Wilmer'
_symmetry_space_group_name_H-M	'P1'
_symmetry_Int_Tables_number	1
_symmetry_cell_setting	triclinic
loop_
_symmetry_equiv_pos_as_xyz
  x,y,z
_cell_length_a	10.540539
_cell_length_b	8.559649
_cell_length_c	7.681481
_cell_angle_alpha	94.913240
_cell_angle_beta	84.202085
_cell_angle_gamma	77.152078
loop_
_atom_site_label
_atom_site_type_symbol
_atom_site_fract_x
_atom_site_fract_y
_atom_site_fract_z
O1	O	-0.029542	2.104686	-0.146402
O2	O	0.035941	1.640228	-0.146408
O3	O	-0.182616	1.883054	-0.146403
O4	O	0.189016	1.861861	-0.146407
O5	O	-0.209571	1.912941	0.146456
O6	O	0.008986	1.670116	0.146450
O7	O	-0.056497	2.134573	0.146457
Zn8	Zn	-0.028035	1.907089	0.192951
Zn9	Zn	0.007479	1.867712	-0.192902
O10	O	0.162061	1.891748	0.146451
C11	C	0.027426	1.595699	0.000020
C12	C	0.042198	1.418487	0.000017
C13	C	-0.243230	1.896408	0.000023
C14	C	-0.383679	1.891652	0.000014
C15	C	-0.547970	1.709382	-0.000646
C16	C	-0.401917	1.714270	0.000013
C17	C	-0.469667	1.994083	0.167252
C18	C	-0.615591	1.988043	0.167393
C19	C	-0.585834	1.957664	-0.165642
C20	C	-0.438819	1.959072	-0.167853
C21	C	0.222675	1.878393	0.000021
C22	C	0.363125	1.883148	0.000019
C23	C	-0.047981	2.179102	0.000025
C24	C	-0.062752	2.356313	0.000016
N25	N	-0.052274	1.933975	0.456286
N26	N	0.031708	1.840839	-0.456237
H27	H	-0.163903	1.438655	0.000009
N28	N	0.145258	1.714887	0.444179
H29	H	0.202381	1.768863	0.367673
H30	H	0.110635	1.635860	0.367804
H31	H	-0.380035	1.883986	-0.291571
N32	N	0.176191	1.309423	0.000085
H33	H	0.244123	1.376091	0.000107
H34	H	0.197018	1.228468	-0.108465
H35	H	-0.427208	2.087366	-0.177950
N36	N	-0.165819	2.059941	0.555892
H37	H	-0.222947	2.005974	0.632401
H38	H	-0.219191	2.119204	0.469530
N39	N	-0.321541	1.609092	-0.158776
H40	H	-0.380887	1.559127	-0.229832
H41	H	-0.253555	1.521085	-0.118697
N42	N	-0.561510	1.600337	-0.159495
H43	H	-0.625408	1.662509	-0.232572
H44	H	-0.594909	1.505854	-0.119441
H45	H	-0.581848	1.651768	0.118609
N46	N	-0.665999	2.127231	-0.167135
H47	H	-0.709885	2.134508	-0.278082
H48	H	-0.606685	2.204972	-0.163161
H49	H	-0.364132	1.658885	0.120094
H50	H	-0.648691	1.937713	0.292404
N51	N	-0.697760	2.158041	0.177457
H52	H	-0.639117	2.236568	0.181791
H53	H	-0.763435	2.181378	0.287072
H54	H	-0.461523	2.124982	0.173472
H55	H	-0.432314	1.947485	0.291703
N56	N	-0.604213	1.864498	-0.333551
H57	H	-0.645821	1.773034	-0.303926
H58	H	-0.516169	1.819533	-0.406123
