data_functionalizedCrystal
_audit_creation_method	'MofGen! by Chris Wilmer'
_symmetry_space_group_name_H-M	'P1'
_symmetry_Int_Tables_number	1
_symmetry_cell_setting	triclinic
loop_
_symmetry_equiv_pos_as_xyz
  x,y,z
_cell_length_a	25.639239
_cell_length_b	10.686220
_cell_length_c	25.639234
_cell_angle_alpha	94.349825
_cell_angle_beta	90.024905
_cell_angle_gamma	85.579324
loop_
_atom_site_label
_atom_site_type_symbol
_atom_site_fract_x
_atom_site_fract_y
_atom_site_fract_z
Zn1	Zn	-0.146779	-1.928960	0.234381
Zn2	Zn	-0.234214	-1.928749	0.146952
Zn3	Zn	-0.153505	-1.717943	0.153658
Zn4	Zn	-0.240906	-1.717837	0.241052
O5	O	-0.193851	-1.823373	0.194011
O6	O	-0.152763	-2.105511	0.217186
O7	O	-0.223522	-1.900741	0.074678
O8	O	-0.079444	-1.746068	0.164381
O9	O	-0.217001	-2.105356	0.152952
O10	O	-0.074502	-1.901101	0.223688
O11	O	-0.164226	-1.745863	0.079605
O12	O	-0.170714	-1.541350	0.170849
O13	O	-0.228406	-1.745887	0.313331
O14	O	-0.234928	-1.541272	0.235056
O15	O	-0.159251	-1.900998	0.308430
O16	O	-0.308272	-1.900639	0.159420
O17	O	-0.313188	-1.745682	0.228554
C18	C	-0.204277	-1.495527	0.204404
C19	C	-0.208750	-1.355273	0.208863
C20	C	-0.329701	-1.823160	0.193994
C21	C	-0.387814	-1.823185	0.194000
C22	C	-0.193825	-1.823455	0.330381
C23	C	-0.193814	-1.823489	0.388494
C24	C	-0.745592	-1.904269	0.158063
C25	C	-0.800194	-1.904318	0.158068
O26	O	-0.826240	-1.973038	0.127494
N27	N	-0.830083	-1.823594	0.194038
C28	C	-0.805366	-1.742826	0.230009
O29	O	-0.835803	-1.674170	0.260605
C30	C	-0.750764	-1.742784	0.230005
C31	C	-0.720879	-1.823504	0.194030
C32	C	-0.715706	-1.984983	0.122090
C33	C	-0.661107	-1.984932	0.122084
C34	C	-0.636394	-1.904167	0.158051
C35	C	-0.666280	-1.823453	0.194024
C36	C	-0.726048	-1.662023	0.265978
C37	C	-0.671442	-1.661989	0.265972
C38	C	-0.641557	-1.742709	0.229996
C39	C	-0.586968	-1.742637	0.229984
N40	N	-0.557079	-1.823360	0.194014
C41	C	-0.581792	-1.904125	0.158048
C42	C	-0.920034	-1.742921	0.230014
C43	C	-0.974635	-1.742955	0.230015
C44	C	-0.969459	-1.904449	0.158075
C45	C	-0.914857	-1.904407	0.158072
C46	C	-0.890145	-1.823644	0.194044
C47	C	-0.467130	-1.904012	0.158038
C48	C	-0.412527	-1.903950	0.158033
C49	C	-0.417708	-1.742461	0.229975
C50	C	-0.472306	-1.742518	0.229978
C51	C	-0.497016	-1.823303	0.194007
O52	O	-0.560886	-1.673956	0.260544
O53	O	-0.551349	-1.972782	0.127461
C54	C	-0.057470	-1.823620	0.194038
C55	C	0.000647	-1.823725	0.194050
C56	C	-0.183385	-2.152499	0.183577
C57	C	-0.178925	-2.292753	0.179131
C58	C	-0.193838	-1.823363	0.058169
C59	C	-0.193694	-1.823573	0.000048
C60	C	-0.162874	-1.742880	0.751427
C61	C	-0.162865	-1.742887	0.806031
O62	O	-0.136619	-1.674286	0.836455
N63	N	-0.193730	-1.823531	0.830776
C64	C	-0.224612	-1.904166	0.800913
O65	O	-0.250865	-1.972760	0.826974
C66	C	-0.224624	-1.904151	0.746310
C67	C	-0.193752	-1.823510	0.721569
C68	C	-0.132006	-1.662244	0.726685
C69	C	-0.132015	-1.662240	0.672085
C70	C	-0.162893	-1.742870	0.642226
C71	C	-0.193761	-1.823506	0.666968
C72	C	-0.255507	-1.984778	0.716449
C73	C	-0.255517	-1.984757	0.661843
C74	C	-0.224646	-1.904116	0.637101
C75	C	-0.224648	-1.904131	0.582509
N76	N	-0.193782	-1.823487	0.557765
C77	C	-0.162905	-1.742856	0.587623
C78	C	-0.224584	-1.904188	0.915583
C79	C	-0.224570	-1.904209	0.970185
C80	C	-0.162823	-1.742928	0.975299
C81	C	-0.162836	-1.742914	0.920696
C82	C	-0.193719	-1.823543	0.890839
C83	C	-0.162926	-1.742853	0.472958
C84	C	-0.162936	-1.742859	0.418353
C85	C	-0.224684	-1.904135	0.413243
C86	C	-0.224672	-1.904134	0.467844
C87	C	-0.193791	-1.823483	0.497700
O88	O	-0.250882	-1.972694	0.552052
O89	O	-0.136661	-1.674261	0.561556
H90	H	-0.487242	-1.969797	0.128748
N91	N	-0.098719	-1.575242	0.645412
H92	H	-0.121830	-1.516715	0.624605
H93	H	-0.072860	-1.626633	0.621168
H94	H	-0.636777	-2.050664	0.092791
H95	H	-0.735821	-2.050758	0.092802
H96	H	-0.237712	-1.301494	0.237728
N97	N	-0.391050	-1.655360	0.268771
H98	H	-0.403462	-1.565216	0.263484
H99	H	-0.351932	-1.667691	0.263289
N100	N	-0.140567	-1.363968	0.140891
H101	H	-0.142701	-1.457426	0.143019
H102	H	-0.103960	-1.341052	0.149816
H103	H	-0.137794	-1.677191	0.398211
N104	N	-0.288807	-2.071753	0.743126
H105	H	-0.308369	-2.122814	0.715918
H106	H	-0.314634	-2.020344	0.767399
N107	N	-0.129621	-1.655866	0.505156
H108	H	-0.110069	-1.604791	0.481190
H109	H	-0.103784	-1.707273	0.526192
H110	H	-0.249730	-1.969861	0.891276
H111	H	-0.137697	-1.677250	0.900555
H112	H	-0.998964	-1.677213	0.259306
H113	H	-0.890527	-1.970137	0.128778
N114	N	-0.758271	-1.574976	0.304789
H115	H	-0.796614	-1.587247	0.299342
H116	H	-0.751636	-1.484858	0.299482
H117	H	-0.989590	-1.970217	0.128791
H118	H	-0.249822	-1.969786	0.388923
H119	H	-0.899917	-1.677143	0.259305
H120	H	-0.137681	-1.677273	0.999620
H121	H	-0.106861	-1.596579	0.750991
H122	H	-0.249702	-1.969889	0.990324
H123	H	-0.280663	-2.050424	0.637535
N124	N	-0.257960	-1.991124	0.494533
H125	H	-0.277520	-2.042207	0.467330
H126	H	-0.283790	-1.939719	0.518805
N127	N	-0.644785	-1.574879	0.304768
H128	H	-0.653637	-1.594437	0.341512
H129	H	-0.657212	-1.484774	0.299432
N130	N	-0.380291	-1.991020	0.119233
H131	H	-0.390446	-1.971489	0.082490
H132	H	-0.386895	-2.081138	0.124576
N133	N	-0.504545	-1.655446	0.268773
H134	H	-0.480602	-1.604271	0.291555
H135	H	-0.525526	-1.706800	0.291363
