data_functionalizedCrystal
_audit_creation_method	'MofGen! by Chris Wilmer'
_symmetry_space_group_name_H-M	'P1'
_symmetry_Int_Tables_number	1
_symmetry_cell_setting	triclinic
loop_
_symmetry_equiv_pos_as_xyz
  x,y,z
_cell_length_a	10.654550
_cell_length_b	16.992694
_cell_length_c	15.455313
_cell_angle_alpha	92.857794
_cell_angle_beta	92.692163
_cell_angle_gamma	92.423437
loop_
_atom_site_label
_atom_site_type_symbol
_atom_site_fract_x
_atom_site_fract_y
_atom_site_fract_z
O1	O	0.261289	-1.045244	-0.072018
O2	O	0.258364	-0.816944	-0.072044
O3	O	0.077541	-0.936343	-0.072027
O4	O	0.442112	-0.925845	-0.072035
O5	O	0.087836	-0.929515	0.072234
O6	O	0.268659	-0.810116	0.072217
O7	O	0.271584	-1.038416	0.072243
Cu8	Cu	0.271061	-0.923642	0.085402
Cu9	Cu	0.258886	-0.931717	-0.085203
O10	O	0.452406	-0.919017	0.072226
C11	C	0.259751	-0.784297	0.000083
C12	C	0.248531	-0.697192	0.000074
C13	C	0.035824	-0.932158	0.000102
C14	C	-0.103819	-0.929852	0.000099
N15	N	0.279624	-0.917968	0.205397
C16	C	-0.177229	-1.000152	0.000109
C17	C	-0.308438	-0.997980	0.000103
C18	C	-0.292815	-0.855203	0.000079
C19	C	-0.161609	-0.857375	0.000080
C20	C	-0.119439	-1.072629	0.000129
C21	C	-0.192850	-1.142934	0.000140
C22	C	-0.324059	-1.140763	0.000134
C23	C	-0.381857	-1.068286	0.000116
C24	C	0.494124	-0.923202	0.000095
C25	C	0.633766	-0.925508	0.000093
C26	C	0.270196	-1.071063	0.000114
C27	C	0.281416	-1.158168	0.000118
C28	C	0.356782	-0.647540	0.000072
C29	C	0.346233	-0.565696	0.000084
C30	C	0.227433	-0.533505	0.000092
C31	C	0.119174	-0.583163	0.000096
C32	C	0.129724	-0.665006	0.000090
C33	C	0.183707	-0.289668	0.000116
C34	C	0.173165	-0.207819	0.000119
C35	C	0.400226	-0.190358	0.000109
C36	C	0.410765	-0.272203	0.000098
C37	C	0.302507	-0.321854	0.000107
N38	N	0.216648	-0.449847	0.000102
N39	N	0.313293	-0.405510	0.000103
N40	N	0.250314	-0.937397	-0.205198
C41	C	0.202836	-0.968711	0.250798
C42	C	0.209324	-0.964428	0.341605
C43	C	0.292607	-0.909405	0.387010
C44	C	0.369399	-0.858656	0.341602
C45	C	0.362903	-0.862937	0.250797
C46	C	0.320610	-0.890929	0.658589
C47	C	0.327102	-0.886654	0.749401
C48	C	0.167025	-0.992425	0.749398
C49	C	0.160543	-0.996704	0.658590
C50	C	0.237329	-0.945953	0.613191
N51	N	0.299244	-0.905027	0.479830
N52	N	0.230685	-0.950328	0.520373
H53	H	-0.012603	-1.074405	0.000137
H54	H	-0.145783	-1.201944	0.000133
Cl55	Cl	-0.365477	-0.764095	0.000060
Cl56	Cl	0.459437	-0.799140	0.193722
Cl57	Cl	0.417144	-0.827133	0.601521
H58	H	-0.383827	-1.198010	0.000134
H59	H	0.437205	-0.813851	0.378576
H60	H	0.076419	-0.181613	0.000125
Cl61	Cl	-0.069316	-0.768996	0.000066
Cl62	Cl	-0.546805	-1.065557	0.000147
H63	H	0.453522	-0.673743	0.000065
H64	H	0.507504	-0.298407	0.000082
Cl65	Cl	0.482327	-0.503280	0.000077
H66	H	0.488363	-0.149924	0.000104
Cl67	Cl	0.047609	-0.352076	0.000126
H68	H	0.022445	-0.556946	0.000115
H69	H	0.041574	-0.705432	0.000091
H70	H	0.104508	-1.033743	0.786370
H71	H	0.146796	-1.005746	0.378571
Cl72	Cl	0.098137	-1.037891	0.193728
H73	H	0.092727	-1.041508	0.621624
Cl74	Cl	0.431814	-0.817477	0.806475
