data_functionalizedCrystal
_audit_creation_method	'MofGen! by Chris Wilmer'
_symmetry_space_group_name_H-M	'P1'
_symmetry_Int_Tables_number	1
_symmetry_cell_setting	triclinic
loop_
_symmetry_equiv_pos_as_xyz
  x,y,z
_cell_length_a	16.120530
_cell_length_b	12.594516
_cell_length_c	16.120297
_cell_angle_alpha	87.122232
_cell_angle_beta	89.871860
_cell_angle_gamma	87.111852
loop_
_atom_site_label
_atom_site_type_symbol
_atom_site_fract_x
_atom_site_fract_y
_atom_site_fract_z
Zn1	Zn	1.247493	-0.539249	0.534603
Zn2	Zn	1.254461	-0.708692	0.395557
Zn3	Zn	1.115482	-0.521263	0.388519
Zn4	Zn	1.108417	-0.707712	0.527526
O5	O	1.181463	-0.619229	0.461551
O6	O	1.364785	-0.569664	0.522065
O7	O	1.241897	-0.676712	0.278258
O8	O	1.133034	-0.374707	0.407914
O9	O	1.369904	-0.694153	0.419909
O10	O	1.230022	-0.387921	0.515241
O11	O	1.139790	-0.539009	0.273087
O12	O	0.998178	-0.538058	0.401052
O13	O	1.120993	-0.692482	0.644831
O14	O	0.992987	-0.675042	0.503180
O15	O	1.223172	-0.568713	0.650030
O16	O	1.235047	-0.857504	0.413047
O17	O	1.127749	-0.856784	0.510004
C18	C	0.965410	-0.604493	0.450585
C19	C	0.872980	-0.598215	0.445913
C20	C	1.181409	-0.895766	0.461540
C21	C	1.181461	-1.014076	0.461567
C22	C	0.703749	-0.586730	0.437391
C23	C	0.660015	-0.651810	0.485772
C24	C	0.565849	-0.645420	0.481031
C25	C	0.797924	-0.593119	0.442132
C26	C	1.123098	-1.082974	0.514263
C27	C	1.106686	-1.147787	0.437359
C28	C	1.197948	-1.160068	0.538488
C29	C	1.165010	-1.077326	0.384621
C30	C	1.256305	-1.089606	0.485803
C31	C	1.239924	-1.154387	0.408848
C32	C	1.398360	-0.634024	0.472561
C33	C	1.490789	-0.640328	0.477253
C34	C	1.170517	-0.632495	0.678446
C35	C	1.165853	-0.638148	0.770874
C36	C	1.181539	-0.341615	0.461582
C37	C	1.181572	-0.223313	0.461595
C38	C	1.192414	-0.605942	0.245502
C39	C	1.197240	-0.600000	0.153083
C40	C	1.157306	-0.648443	0.940100
C41	C	1.205784	-0.589708	0.983863
C42	C	1.201029	-0.595436	1.078026
C43	C	1.162061	-0.642716	0.845928
H44	H	0.693293	-0.712326	0.530755
Br45	Br	0.648286	-0.485869	0.362422
H46	H	1.073662	-1.051620	0.558754
Br47	Br	1.280932	-0.498750	0.928448
Br48	Br	1.001272	-1.190729	0.403200
H49	H	1.151036	-1.041305	0.319560
H50	H	1.289330	-1.185534	0.364243
H51	H	1.319532	-1.063819	0.506317
H52	H	1.211849	-1.196211	0.603528
Br53	Br	1.082185	-0.739423	0.995518
