data_functionalizedCrystal
_audit_creation_method	'MofGen! by Chris Wilmer'
_symmetry_space_group_name_H-M	'P1'
_symmetry_Int_Tables_number	1
_symmetry_cell_setting	triclinic
loop_
_symmetry_equiv_pos_as_xyz
  x,y,z
_cell_length_a	14.971486
_cell_length_b	27.731993
_cell_length_c	26.809956
_cell_angle_alpha	89.997216
_cell_angle_beta	89.995860
_cell_angle_gamma	83.117261
loop_
_atom_site_label
_atom_site_type_symbol
_atom_site_fract_x
_atom_site_fract_y
_atom_site_fract_z
O1	O	0.106182	0.641438	0.041346
O2	O	0.122416	0.500716	0.041376
O3	O	-0.015962	0.574849	0.041357
O4	O	0.244560	0.567305	0.041365
O5	O	-0.015941	0.574835	-0.041603
O6	O	0.122437	0.500702	-0.041583
O7	O	0.106203	0.641424	-0.041614
Zn8	Zn	0.114323	0.571061	-0.054770
Zn9	Zn	0.114296	0.571079	0.054533
O10	O	0.244581	0.567291	-0.041594
C11	C	0.122093	0.482700	-0.000100
C12	C	0.121090	0.429039	-0.000088
C13	C	0.113805	0.045853	0.045109
C14	C	0.117630	0.247528	0.045122
O15	O	0.118079	0.273610	0.083582
N16	N	0.118120	0.272743	-0.000098
C17	C	0.117648	0.247536	-0.045324
O18	O	0.118143	0.273611	-0.083787
C19	C	0.113817	0.045863	-0.045338
C20	C	0.113336	0.020650	-0.000115
C21	C	0.113323	0.020640	0.090328
C22	C	0.112372	-0.029776	0.090324
C23	C	0.111903	-0.054979	0.045101
C24	C	0.112384	-0.029766	-0.000118
C25	C	0.113338	0.020657	-0.090564
C26	C	0.112378	-0.029764	-0.090563
C27	C	0.111897	-0.054977	-0.045340
C28	C	0.110964	-0.105386	-0.045346
N29	N	0.110474	-0.130600	-0.000125
C30	C	0.110943	-0.105397	0.045098
C31	C	0.119661	0.353418	-0.045314
C32	C	0.120620	0.403836	-0.045311
C33	C	0.120601	0.403824	0.045136
C34	C	0.119648	0.353405	0.045132
C35	C	0.119171	0.328203	-0.000094
C36	C	0.108946	-0.211275	0.045086
C37	C	0.107999	-0.261696	0.045078
C38	C	0.108014	-0.261679	-0.045368
C39	C	0.108966	-0.211263	-0.045361
C40	C	0.109429	-0.186062	-0.000129
O41	O	0.110504	-0.131498	-0.083785
O42	O	0.110428	-0.131480	0.083554
C43	C	0.114756	0.096269	0.045112
C44	C	0.115238	0.121482	-0.000107
C45	C	0.114769	0.096279	-0.045330
C46	C	0.116198	0.171900	-0.000104
C47	C	0.116667	0.197103	0.045119
C48	C	0.116177	0.171888	0.090340
C49	C	0.115226	0.121472	0.090336
C50	C	0.115259	0.121494	-0.090550
C51	C	0.116211	0.171910	-0.090543
C52	C	0.116680	0.197113	-0.045319
C53	C	-0.049271	0.574505	-0.000123
C54	C	-0.148551	0.573494	-0.000122
C55	C	-0.206481	0.617045	-0.000132
C56	C	-0.299765	0.616092	-0.000127
C57	C	-0.335118	0.571587	-0.000115
C58	C	-0.277181	0.528033	-0.000104
C59	C	-0.183899	0.528986	-0.000106
C60	C	-0.471612	0.526049	-0.000102
C61	C	-0.564900	0.525096	-0.000101
C62	C	-0.587477	0.613155	-0.000123
C63	C	-0.494195	0.614108	-0.000124
C64	C	-0.436265	0.570553	-0.000114
C65	C	0.277890	0.567636	-0.000113
C66	C	0.377171	0.568647	-0.000111
C67	C	0.106526	0.659440	-0.000137
C68	C	0.107529	0.713101	-0.000145
N69	N	0.114342	0.571052	-0.129366
C70	C	0.053037	0.603901	-0.474001
C71	C	0.053023	0.603913	-0.682878
O72	O	0.000905	0.631823	-0.709889
N73	N	0.114276	0.571082	-0.708993
C74	C	0.175532	0.538244	-0.682885
O75	O	0.227625	0.510316	-0.709890
C76	C	0.175541	0.538231	-0.474008
C77	C	0.114291	0.571067	-0.447896
C78	C	-0.008209	0.636734	-0.447889
C79	C	-0.008202	0.636733	-0.395672
C80	C	0.053052	0.603898	-0.369568
C81	C	0.114298	0.571065	-0.395680
C82	C	0.236793	0.505391	-0.447901
C83	C	0.236788	0.505389	-0.395679
C84	C	0.175537	0.538226	-0.369567
C85	C	0.175559	0.538229	-0.317359
N86	N	0.114306	0.571060	-0.291245
C87	C	0.053053	0.603895	-0.317349
C88	C	0.175525	0.538254	-0.792548
C89	C	0.175524	0.538258	-0.844767
C90	C	0.053013	0.603926	-0.844757
C91	C	0.053019	0.603924	-0.792537
C92	C	0.114272	0.571085	-0.766434
C93	C	0.053073	0.603889	-0.207691
C94	C	0.053088	0.603886	-0.155470
C95	C	0.175595	0.538217	-0.155485
C96	C	0.175584	0.538221	-0.207701
C97	C	0.114315	0.571059	-0.233803
O98	O	0.227643	0.510330	-0.290316
O99	O	0.000955	0.631811	-0.290335
C100	C	0.053030	0.603903	-0.526217
C101	C	0.114276	0.571070	-0.552329
C102	C	0.175530	0.538235	-0.526225
C103	C	0.114275	0.571073	-0.604548
C104	C	0.053022	0.603908	-0.630652
C105	C	-0.008231	0.636739	-0.604537
C106	C	-0.008224	0.636737	-0.552321
C107	C	0.236782	0.505404	-0.552339
C108	C	0.236771	0.505409	-0.604556
C109	C	0.175517	0.538243	-0.630660
N110	N	0.114270	0.571092	0.129129
H111	H	0.114834	0.100948	0.127161
H112	H	0.113702	0.041155	0.127156
Cl113	Cl	-0.372587	0.670844	-0.000140
H114	H	-0.424446	0.490582	-0.000092
Cl115	Cl	0.313782	0.464127	-0.637376
Cl116	Cl	0.111773	-0.061443	-0.147423
H117	H	0.003139	0.630662	-0.866020
Cl118	Cl	0.113942	0.052341	-0.147419
H119	H	-0.465414	0.650347	-0.000137
Cl120	Cl	-0.321625	0.472084	-0.000083
Cl121	Cl	-0.162047	0.672996	-0.000151
Cl122	Cl	0.107396	-0.293389	0.101934
H123	H	0.109375	-0.190735	-0.082185
Cl124	Cl	-0.660303	0.667909	-0.000133
H125	H	-0.593681	0.488856	-0.000100
Cl126	Cl	-0.111073	0.474234	-0.000091
Cl127	Cl	0.121192	0.435517	0.101987
Cl128	Cl	0.121243	0.435525	-0.102165
Cl129	Cl	-0.023917	0.645170	-0.122646
Cl130	Cl	0.111758	-0.061464	0.147179
Cl131	Cl	-0.023950	0.645173	-0.240496
H132	H	0.225468	0.511488	-0.228962
Cl133	Cl	0.119040	0.321714	0.101986
Cl134	Cl	0.107426	-0.293373	-0.102217
Cl135	Cl	-0.085230	0.678018	-0.519502
Cl136	Cl	-0.085211	0.678011	-0.362851
H137	H	-0.058093	0.663472	-0.469138
H138	H	0.116564	0.192417	0.127162
Cl139	Cl	0.119075	0.321742	-0.102176
Cl140	Cl	0.114679	0.089817	-0.147408
Cl141	Cl	0.313796	0.464102	-0.362867
H142	H	0.116610	0.192433	-0.127371
H143	H	0.003143	0.630662	-0.771280
H144	H	-0.058103	0.663476	-0.625800
H145	H	0.225409	0.511525	-0.866024
Cl146	Cl	0.252538	0.496968	-0.759738
Cl147	Cl	0.109531	-0.179601	0.101949
H148	H	0.286661	0.478666	-0.531089
Cl149	Cl	0.313795	0.464108	-0.480717
H150	H	0.225470	0.511485	-0.134223
