data_functionalizedCrystal
_audit_creation_method	'MofGen! by Chris Wilmer'
_symmetry_space_group_name_H-M	'P1'
_symmetry_Int_Tables_number	1
_symmetry_cell_setting	triclinic
loop_
_symmetry_equiv_pos_as_xyz
  x,y,z
_cell_length_a	12.594517
_cell_length_b	21.295417
_cell_length_c	12.594510
_cell_angle_alpha	89.957633
_cell_angle_beta	89.978880
_cell_angle_gamma	90.030306
loop_
_atom_site_label
_atom_site_type_symbol
_atom_site_fract_x
_atom_site_fract_y
_atom_site_fract_z
Zn1	Zn	1.627158	-0.250556	-0.601801
Zn2	Zn	1.960491	0.082778	-0.268467
Zn3	Zn	2.293825	0.416111	0.064866
Zn4	Zn	1.627004	-0.355845	-0.423797
Zn5	Zn	1.960338	-0.022512	-0.090464
Zn6	Zn	2.293671	0.310821	0.242869
Zn7	Zn	1.449162	-0.250594	-0.423830
Zn8	Zn	1.782496	0.082740	-0.090496
Zn9	Zn	2.115829	0.416073	0.242837
Zn10	Zn	1.449099	-0.355790	-0.601727
Zn11	Zn	1.782432	-0.022457	-0.268394
Zn12	Zn	2.115766	0.310876	0.064939
O13	O	1.538106	-0.303196	-0.512789
O14	O	1.871439	0.030137	-0.179455
O15	O	2.204773	0.363470	0.153878
O16	O	1.776083	-0.264530	-0.578205
O17	O	2.109417	0.068804	-0.244872
O18	O	2.442750	0.402137	0.088461
O19	O	1.603376	-0.341923	-0.274856
O20	O	1.936709	-0.008589	0.058478
O21	O	2.270042	0.324744	0.391811
O22	O	1.472865	-0.162499	-0.447482
O23	O	1.806198	0.170834	-0.114149
O24	O	2.139531	0.504167	0.219185
O25	O	1.775971	-0.341886	-0.447427
O26	O	2.109304	-0.008552	-0.114094
O27	O	2.442637	0.324781	0.219240
O28	O	1.603637	-0.162471	-0.578237
O29	O	1.936970	0.170862	-0.244903
O30	O	2.270304	0.504195	0.088430
O31	O	1.472716	-0.264595	-0.274879
O32	O	1.806049	0.068739	0.058454
O33	O	2.139382	0.402072	0.391787
O34	O	1.300208	-0.264541	-0.447411
O35	O	1.633542	0.068792	-0.114078
O36	O	1.966875	0.402125	0.219256
O37	O	1.472757	-0.341792	-0.750683
O38	O	1.806090	-0.008459	-0.417350
O39	O	2.139423	0.324875	-0.084016
O40	O	1.300162	-0.341829	-0.578112
O41	O	1.633495	-0.008496	-0.244778
O42	O	1.966828	0.324838	0.088555
O43	O	1.603576	-0.264476	-0.750737
O44	O	1.936909	0.068857	-0.417404
O45	O	2.270242	0.402190	-0.084070
O46	O	1.603314	-0.443928	-0.447356
O47	O	1.936648	-0.110594	-0.114023
O48	O	2.269981	0.222739	0.219311
O49	O	1.472608	-0.443887	-0.578080
O50	O	1.805941	-0.110554	-0.244747
O51	O	2.139275	0.222779	0.088586
C52	C	1.261565	-0.303184	-0.512757
C53	C	1.594898	0.030150	-0.179424
C54	C	1.928232	0.363483	0.153909
C55	C	1.143260	-0.303193	-0.512769
C56	C	1.476593	0.030140	-0.179436
C57	C	1.809926	0.363473	0.153897
C58	C	1.537966	-0.466748	-0.512730
C59	C	1.871300	-0.133415	-0.179396
C60	C	2.204633	0.199919	0.153937
C61	C	1.538004	-0.536716	-0.512740
C62	C	1.871337	-0.203383	-0.179407
C63	C	2.204671	0.129951	0.153926
C64	C	1.074001	-0.261099	-0.441817
C65	C	1.407334	0.072234	-0.108483
C66	C	1.740668	0.405567	0.224850
C67	C	1.003165	-0.318521	-0.415623
C68	C	1.336499	0.014812	-0.082290
C69	C	1.669832	0.348146	0.251043
C70	C	1.003296	-0.245800	-0.538981
C71	C	1.336629	0.087534	-0.205648
C72	C	1.669963	0.420867	0.127686
C73	C	1.073982	-0.360645	-0.486525
C74	C	1.407316	-0.027312	-0.153192
C75	C	1.740649	0.306021	0.180142
C76	C	1.074119	-0.287885	-0.609928
C77	C	1.407452	0.045448	-0.276595
C78	C	1.740786	0.378781	0.056739
C79	C	1.003316	-0.345347	-0.583771
C80	C	1.336649	-0.012014	-0.250438
C81	C	1.669982	0.321320	0.082895
C82	C	1.606123	-0.569583	-0.444742
C83	C	1.939457	-0.236249	-0.111408
C84	C	2.272790	0.097084	0.221925
C85	C	1.606173	-0.635325	-0.444766
C86	C	1.939507	-0.301992	-0.111432
C87	C	2.272840	0.031341	0.221901
C88	C	1.538085	-0.668199	-0.512777
C89	C	1.871418	-0.334865	-0.179444
C90	C	2.204752	-0.001532	0.153890
C91	C	1.469961	-0.635324	-0.580789
C92	C	1.803294	-0.301991	-0.247455
C93	C	2.136628	0.031343	0.085878
C94	C	1.469920	-0.569583	-0.580770
C95	C	1.803254	-0.236249	-0.247437
C96	C	2.136587	0.097084	0.085896
N97	N	1.444974	-0.771463	-0.520881
N98	N	1.778308	-0.438130	-0.187547
N99	N	2.111641	-0.104797	0.145786
N100	N	1.445016	-0.833915	-0.520892
N101	N	1.778349	-0.500581	-0.187558
N102	N	2.111682	-0.167248	0.145775
C103	C	1.538204	-0.866273	-0.512838
C104	C	1.871537	-0.532940	-0.179505
C105	C	2.204871	-0.199607	0.153829
N106	N	1.631352	-0.833821	-0.504752
N107	N	1.964685	-0.500488	-0.171418
N108	N	2.298018	-0.167154	0.161915
N109	N	1.631309	-0.771364	-0.504735
N110	N	1.964642	-0.438031	-0.171402
N111	N	2.297976	-0.104697	0.161932
C112	C	1.538122	-0.739484	-0.512805
C113	C	1.871455	-0.406151	-0.179472
C114	C	2.204788	-0.072817	0.153862
C115	C	1.606383	-0.970426	-0.444862
C116	C	1.939717	-0.637092	-0.111528
C117	C	2.273050	-0.303759	0.221805
C118	C	1.606435	-1.036169	-0.444893
C119	C	1.939768	-0.702836	-0.111560
C120	C	2.273102	-0.369503	0.221773
C121	C	1.470213	-1.036166	-0.580911
C122	C	1.803546	-0.702833	-0.247577
C123	C	2.136880	-0.369500	0.085756
C124	C	1.470171	-0.970424	-0.580885
C125	C	1.803504	-0.637091	-0.247551
C126	C	2.136837	-0.303757	0.085782
C127	C	1.538254	-0.937557	-0.512855
C128	C	1.871588	-0.604224	-0.179521
C129	C	2.204921	-0.270891	0.153812
C130	C	1.815727	-0.303209	-0.512821
C131	C	2.149060	0.030124	-0.179488
C132	C	2.482393	0.363457	0.153846
C133	C	1.934032	-0.303215	-0.512835
C134	C	2.267366	0.030118	-0.179501
C135	C	2.600699	0.363452	0.153832
C136	C	1.538176	-0.303124	-0.790410
C137	C	1.871510	0.030210	-0.457076
C138	C	2.204843	0.363543	-0.123743
C139	C	1.538206	-0.303093	-0.908715
C140	C	1.871540	0.030241	-0.575382
C141	C	2.204873	0.363574	-0.242049
C142	C	1.538275	-0.139006	-0.512871
C143	C	1.871608	0.194327	-0.179538
C144	C	2.204942	0.527661	0.153795
C145	C	1.538347	-0.069038	-0.512906
C146	C	1.871680	0.264295	-0.179573
C147	C	2.205014	0.597629	0.153760
C148	C	1.609380	-0.261038	-0.977998
C149	C	1.942713	0.072296	-0.644665
C150	C	2.276047	0.405629	-0.311331
C151	C	1.512310	-0.245629	-1.048792
C152	C	1.845644	0.087704	-0.715459
C153	C	2.178977	0.421037	-0.382126
C154	C	1.635333	-0.318457	-1.048720
C155	C	1.968666	0.014876	-0.715387
C156	C	2.301999	0.348210	-0.382053
C157	C	1.441085	-0.287655	-0.977952
C158	C	1.774418	0.045679	-0.644618
C159	C	2.107752	0.379012	-0.311285
C160	C	1.564173	-0.360509	-0.977873
C161	C	1.897506	-0.027176	-0.644540
C162	C	2.230839	0.306158	-0.311206
C163	C	1.467036	-0.345123	-1.048636
C164	C	1.800369	-0.011789	-0.715302
C165	C	2.133703	0.321544	-0.381969
C166	C	1.538097	-0.303223	-0.236248
C167	C	1.871431	0.030110	0.097086
C168	C	2.204764	0.363443	0.430419
C169	C	1.538274	-0.303077	-0.117943
C170	C	1.871607	0.030256	0.215390
C171	C	2.204940	0.363590	0.548724
H172	H	1.105037	-0.225537	-0.381741
H173	H	1.438370	0.107797	-0.048407
H174	H	1.771704	0.441130	0.284926
F175	F	1.678842	-0.935444	-0.372459
F176	F	2.012175	-0.602111	-0.039125
F177	F	2.345509	-0.268778	0.294208
H178	H	1.414779	-1.062931	-0.636291
H179	H	1.748112	-0.729598	-0.302958
H180	H	2.081445	-0.396264	0.030375
H181	H	0.972001	-0.331482	-0.333486
H182	H	1.305335	0.001851	-0.000153
H183	H	1.638668	0.335184	0.333181
F184	F	1.687917	-0.214527	-0.937453
F185	F	2.021250	0.118806	-0.604120
F186	F	2.354583	0.452139	-0.270786
H187	H	1.661648	-0.662091	-0.389393
H188	H	1.994981	-0.328757	-0.056060
H189	H	2.328315	0.004576	0.277273
H190	H	1.717442	-0.331457	-1.079810
H191	H	2.050776	0.001876	-0.746476
H192	H	2.384109	0.335209	-0.413143
F193	F	1.592888	-0.423966	-0.937124
F194	F	1.926221	-0.090633	-0.603791
F195	F	2.259555	0.242701	-0.270457
H196	H	1.490371	-0.197067	-1.079944
H197	H	1.823704	0.136266	-0.746611
H198	H	2.157037	0.469600	-0.413277
F199	F	1.114884	-0.270923	-0.717258
F200	F	1.448218	0.062410	-0.383925
F201	F	1.781551	0.395744	-0.050591
H202	H	1.661912	-1.062928	-0.389523
H203	H	1.995246	-0.729595	-0.056189
H204	H	2.328579	-0.396262	0.277144
H205	H	1.358951	-0.274597	-0.946996
H206	H	1.692285	0.058737	-0.613663
H207	H	2.025618	0.392070	-0.280330
F208	F	1.397664	-0.935443	-0.653255
F209	F	1.730997	-0.602110	-0.319921
F210	F	2.064330	-0.268777	0.013412
F211	F	1.388312	-0.391594	-1.088939
F212	F	1.721645	-0.058261	-0.755605
F213	F	2.054979	0.275072	-0.422272
H214	H	0.972475	-0.380995	-0.643801
H215	H	1.305808	-0.047661	-0.310468
H216	H	1.639141	0.285672	0.022865
F217	F	1.114394	-0.424117	-0.457458
F218	F	1.447727	-0.090784	-0.124125
F219	F	1.781060	0.242549	0.209208
F220	F	0.962703	-0.182348	-0.567922
F221	F	1.296037	0.150985	-0.234588
F222	F	1.629370	0.484319	0.098745
H223	H	1.661564	-0.542825	-0.389350
H224	H	1.994897	-0.209491	-0.056017
H225	H	2.328230	0.123842	0.277316
F226	F	1.397500	-0.670311	-0.653175
F227	F	1.730834	-0.336977	-0.319842
F228	F	2.064167	-0.003644	0.013492
H229	H	1.414449	-0.542822	-0.636144
H230	H	1.747782	-0.209489	-0.302811
H231	H	2.081115	0.123845	0.030523
