data_functionalizedCrystal
_audit_creation_method	'MofGen! by Chris Wilmer'
_symmetry_space_group_name_H-M	'P1'
_symmetry_Int_Tables_number	1
_symmetry_cell_setting	triclinic
loop_
_symmetry_equiv_pos_as_xyz
  x,y,z
_cell_length_a	13.897447
_cell_length_b	13.897449
_cell_length_c	16.959447
_cell_angle_alpha	89.983048
_cell_angle_beta	89.971904
_cell_angle_gamma	90.020357
loop_
_atom_site_label
_atom_site_type_symbol
_atom_site_fract_x
_atom_site_fract_y
_atom_site_fract_z
Zn1	Zn	-0.383975	1.474629	-0.446976
Zn2	Zn	-0.545293	1.474536	-0.314803
Zn3	Zn	-0.384016	1.313336	-0.314808
Zn4	Zn	-0.545232	1.313295	-0.446936
O5	O	-0.464629	1.393949	-0.380881
O6	O	-0.405382	1.609598	-0.429458
O7	O	-0.523942	1.453131	-0.204193
O8	O	-0.249029	1.334788	-0.332359
O9	O	-0.523902	1.609530	-0.332351
O10	O	-0.248998	1.453290	-0.429463
O11	O	-0.405452	1.334698	-0.204196
O12	O	-0.405393	1.178349	-0.332320
O13	O	-0.523798	1.334718	-0.557552
O14	O	-0.523838	1.178319	-0.429393
O15	O	-0.405323	1.453249	-0.557582
O16	O	-0.680266	1.453091	-0.332312
O17	O	-0.680221	1.334627	-0.429389
C18	C	-0.464614	1.143335	-0.380853
C19	C	-0.464631	1.036121	-0.380860
C20	C	-0.464634	0.949051	-0.380873
C21	C	-0.464641	0.839818	-0.380897
C22	C	-0.715243	1.393871	-0.380862
C23	C	-0.822457	1.393925	-0.380881
C24	C	-0.909527	1.393972	-0.380899
C25	C	-1.018759	1.394040	-0.380919
C26	C	-0.213036	1.394054	-0.380916
C27	C	-0.105822	1.394099	-0.380932
C28	C	-0.464549	1.393989	-0.587049
C29	C	-0.464515	1.394006	-0.674906
C30	C	-0.464644	1.645542	-0.380909
C31	C	-0.464651	1.752756	-0.380921
C32	C	-0.526097	1.332407	-1.046368
C33	C	-0.402729	1.455836	-1.046395
C34	C	-0.402749	1.455810	-0.963849
C35	C	-0.464446	1.394083	-0.922559
C36	C	-0.526122	1.332382	-0.963815
C37	C	-0.341081	1.517517	-0.922587
C38	C	-0.341100	1.517494	-0.840036
C39	C	-0.402792	1.455762	-0.798744
C40	C	-0.464470	1.394057	-0.840005
C41	C	-0.526167	1.332331	-0.798715
C42	C	-0.587840	1.270621	-0.839975
C43	C	-0.587814	1.270649	-0.922523
C44	C	-0.402818	1.455733	-0.716196
C45	C	-0.526191	1.332305	-0.716162
C46	C	-0.464639	1.393964	-0.175514
C47	C	-0.464401	1.394134	-0.087658
H48	H	-0.638078	1.220367	-0.806346
H49	H	-0.576308	1.282162	-1.079965
H50	H	-0.576424	1.282030	-0.682549
H51	H	-0.352504	1.506096	-1.080018
N52	N	-0.274575	1.584035	-0.795533
H53	H	-0.313783	1.628708	-0.761273
H54	H	-0.235498	1.623078	-0.834264
H55	H	-0.638029	1.220412	-0.956124
N56	N	-0.274546	1.584095	-0.967118
H57	H	-0.283887	1.574743	-1.025672
H58	H	-0.205659	1.569110	-0.952701
N59	N	-0.336315	1.522289	-0.671693
H60	H	-0.297232	1.561401	-0.710377
H61	H	-0.291679	1.483037	-0.637452
