data_functionalizedCrystal
_audit_creation_method	'MofGen! by Chris Wilmer'
_symmetry_space_group_name_H-M	'P1'
_symmetry_Int_Tables_number	1
_symmetry_cell_setting	triclinic
loop_
_symmetry_equiv_pos_as_xyz
  x,y,z
_cell_length_a	17.699083
_cell_length_b	15.944551
_cell_length_c	16.776229
_cell_angle_alpha	89.992397
_cell_angle_beta	89.998886
_cell_angle_gamma	83.390877
loop_
_atom_site_label
_atom_site_type_symbol
_atom_site_fract_x
_atom_site_fract_y
_atom_site_fract_z
O1	O	1.004260	0.106222	-0.066178
O2	O	0.783905	0.120042	-0.066204
O3	O	0.900100	-0.009156	-0.066183
O4	O	0.888065	0.235419	-0.066199
O5	O	0.900084	-0.009164	0.066393
O6	O	0.783890	0.120034	0.066372
O7	O	1.004244	0.106214	0.066398
Zn8	Zn	0.894065	0.113123	0.087435
Zn9	Zn	0.894085	0.113133	-0.087241
O10	O	0.888050	0.235411	0.066377
C11	C	0.755700	0.119542	0.000080
C12	C	0.671679	0.118057	0.000071
C13	C	0.623187	0.193893	0.000066
C14	C	0.544242	0.192492	0.000076
C15	C	0.513789	0.115254	0.000086
C16	C	0.562287	0.039412	0.000093
C17	C	0.641231	0.040814	0.000088
C18	C	0.243914	0.033758	0.000113
C19	C	0.164964	0.032362	0.000115
C20	C	0.146925	0.185436	0.000101
C21	C	0.225869	0.186837	0.000096
C22	C	0.274360	0.110996	0.000108
C23	C	0.359962	0.112516	0.000098
C24	C	0.428189	0.113733	0.000090
C25	C	0.899593	-0.040453	0.000105
C26	C	0.898095	-0.133696	0.000105
C27	C	0.822492	-0.348393	0.000085
C28	C	0.857592	-0.409488	0.065458
C29	C	0.895385	-0.304416	0.000099
C30	C	0.857624	-0.409464	-0.065252
C31	C	0.892762	-0.469323	0.000089
C32	C	0.930505	-0.364283	0.065525
C33	C	0.930527	-0.364252	-0.065244
C34	C	0.965680	-0.425329	0.000145
C35	C	0.896894	-0.209417	0.000105
C36	C	0.891259	-0.564321	0.000089
C37	C	1.032450	0.106713	0.000112
C38	C	1.116471	0.108199	0.000116
C39	C	0.888557	0.266708	0.000087
C40	C	0.890055	0.359951	0.000082
N41	N	0.894056	0.113115	0.206646
N42	N	0.894099	0.113134	-0.206452
C43	C	0.945523	0.055930	0.248372
C44	C	0.945527	0.055929	0.331824
C45	C	0.894068	0.113118	0.373549
C46	C	0.842595	0.170306	0.331816
C47	C	0.842588	0.170302	0.248366
C48	C	0.842623	0.170323	0.668364
C49	C	0.842636	0.170324	0.751820
C50	C	0.945562	0.055949	0.751822
C51	C	0.945555	0.055945	0.668372
C52	C	0.894080	0.113130	0.626647
C53	C	0.894075	0.113129	0.536158
C54	C	0.894076	0.113124	0.464036
H55	H	0.283386	-0.027997	0.000123
H56	H	1.026238	-0.458615	0.000189
C57	C	0.132046	-0.051588	0.000171
C58	C	0.191408	-0.117708	0.000203
C59	C	0.161113	-0.195048	0.000264
H60	H	0.101636	-0.055436	-0.046047
H61	H	0.101646	-0.055356	0.046424
H62	H	0.221796	-0.113941	-0.046044
H63	H	0.221823	-0.113887	0.046418
H64	H	0.130712	-0.198816	0.046517
H65	H	0.130703	-0.198887	-0.045955
H66	H	0.201385	-0.239919	0.000293
H67	H	0.250659	0.249732	0.000085
C68	C	0.816632	-0.436291	-0.138973
C69	C	0.866489	-0.491908	-0.184184
C70	C	0.828746	-0.516643	-0.252091
H71	H	0.799741	-0.387942	-0.170048
H72	H	0.774105	-0.463709	-0.123290
H73	H	0.909003	-0.464489	-0.199869
H74	H	0.883382	-0.540269	-0.153134
H75	H	0.786218	-0.544061	-0.236408
H76	H	0.811856	-0.468289	-0.283159
H77	H	0.862565	-0.554387	-0.282771
C78	C	0.741833	-0.303765	-0.000010
C79	C	0.730489	-0.253811	-0.068564
C80	C	0.656194	-0.212698	-0.068682
H81	H	0.734276	-0.269002	0.045936
H82	H	0.706685	-0.344530	0.000453
H83	H	0.765626	-0.213051	-0.069020
H84	H	0.738030	-0.288554	-0.114521
H85	H	0.621046	-0.253463	-0.068219
H86	H	0.648644	-0.177940	-0.022733
H87	H	0.648485	-0.178806	-0.115198
H88	H	0.800712	0.216886	0.634398
H89	H	0.800692	0.216868	0.365793
C90	C	0.693918	-0.041498	0.000254
C91	C	0.739755	-0.045179	0.068471
C92	C	0.788291	-0.120999	0.068659
H93	H	0.725160	-0.044213	-0.045925
H94	H	0.664502	-0.087723	0.000302
H95	H	0.769168	0.001034	0.068416
H96	H	0.708533	-0.042478	0.114661
H97	H	0.758875	-0.167224	0.068707
H98	H	0.819527	-0.123707	0.022477
H99	H	0.819392	-0.123510	0.114947
H100	H	0.987430	0.009363	0.214406
C101	C	0.816335	-0.436158	0.139072
C102	C	0.741404	-0.396850	0.138755
C103	C	0.703368	-0.421402	0.206547
H104	H	0.841644	-0.419937	0.185551
H105	H	0.816042	-0.495704	0.138785
H106	H	0.741700	-0.337317	0.139049
H107	H	0.716075	-0.413066	0.092291
H108	H	0.703076	-0.480948	0.206260
H109	H	0.728683	-0.405180	0.253021
H110	H	0.652522	-0.394741	0.206337
C111	C	0.786678	0.232486	0.203204
C112	C	0.741626	0.282587	0.257603
C113	C	0.690117	0.339887	0.216030
H114	H	0.755098	0.202409	0.170656
H115	H	0.813880	0.267460	0.170656
H116	H	0.714426	0.247618	0.290136
H117	H	0.773185	0.312682	0.290152
H118	H	0.717319	0.374860	0.183483
H119	H	0.658543	0.309803	0.183484
H120	H	0.659548	0.373892	0.252933
H121	H	0.647975	0.256789	0.000058
H122	H	0.987460	0.009380	0.634402
C123	C	0.491720	0.274920	0.000030
C124	C	0.535286	0.342861	-0.000005
C125	C	0.486929	0.418810	-0.000057
H126	H	0.460535	0.277676	0.046253
H127	H	0.460555	0.277603	-0.046218
H128	H	0.566437	0.340180	0.046238
H129	H	0.566468	0.340133	-0.046225
H130	H	0.455764	0.421492	-0.046305
H131	H	0.455747	0.421557	0.046167
H132	H	0.516481	0.464917	-0.000088
C133	C	0.094186	0.267717	-0.000026
C134	C	0.048319	0.271377	-0.068220
C135	C	-0.000277	0.347154	-0.068362
H136	H	0.123535	0.313986	-0.000077
H137	H	0.062973	0.270361	0.046185
H138	H	0.079529	0.268742	-0.114419
H139	H	0.018955	0.225126	-0.068184
H140	H	-0.031489	0.349797	-0.022151
H141	H	0.029078	0.393417	-0.068411
H142	H	-0.031408	0.349644	-0.114627
H143	H	0.537486	-0.023476	0.000112
H144	H	0.961304	-0.344360	0.120853
H145	H	0.961338	-0.344183	-0.120506
C146	C	1.001380	-0.006286	0.377020
C147	C	0.989131	-0.088815	0.356719
C148	C	1.040579	-0.146151	0.398327
H149	H	0.994074	0.001782	0.432709
H150	H	1.051900	0.002727	0.363314
H151	H	0.938623	-0.097825	0.370431
H152	H	0.996443	-0.096910	0.301037
H153	H	1.091099	-0.137137	0.384620
H154	H	1.033269	-0.138075	0.454013
H155	H	1.032280	-0.202153	0.384552
C156	C	1.001321	-0.006243	0.797170
C157	C	0.961011	-0.057622	0.845074
C158	C	1.012349	-0.114926	0.886849
H159	H	1.032847	0.023832	0.829782
H160	H	1.031959	-0.040350	0.760394
H161	H	0.930386	-0.023519	0.881845
H162	H	0.929488	-0.087715	0.812481
H163	H	1.042987	-0.149033	0.850074
H164	H	1.043873	-0.084845	0.919457
H165	H	0.985006	-0.149799	0.919351
H166	H	0.800728	0.216896	0.785791
