data_functionalizedCrystal
_audit_creation_method	'MofGen! by Chris Wilmer'
_symmetry_space_group_name_H-M	'P1'
_symmetry_Int_Tables_number	1
_symmetry_cell_setting	triclinic
loop_
_symmetry_equiv_pos_as_xyz
  x,y,z
_cell_length_a	16.992694
_cell_length_b	11.792241
_cell_length_c	16.053802
_cell_angle_alpha	92.583059
_cell_angle_beta	87.249047
_cell_angle_gamma	87.430819
loop_
_atom_site_label
_atom_site_type_symbol
_atom_site_fract_x
_atom_site_fract_y
_atom_site_fract_z
O1	O	1.044699	0.236280	-0.069325
O2	O	0.816403	0.233637	-0.069350
O3	O	0.936091	0.070242	-0.069331
O4	O	0.925011	0.399675	-0.069344
O5	O	0.929503	0.079196	0.069527
O6	O	0.809815	0.242591	0.069508
O7	O	1.038111	0.245234	0.069533
Zn8	Zn	0.922917	0.245334	0.091567
Zn9	Zn	0.931597	0.233537	-0.091384
O10	O	0.918423	0.408630	0.069514
C11	C	0.783882	0.234716	0.000076
C12	C	0.696796	0.224578	0.000067
C13	C	0.932101	0.032371	0.000098
C14	C	0.930018	-0.093813	0.000097
C15	C	0.646971	0.322395	0.000064
C16	C	0.565143	0.312864	0.000076
C17	C	0.533142	0.205513	0.000085
C18	C	0.582973	0.107688	0.000091
C19	C	0.664799	0.117221	0.000085
C20	C	0.289375	0.166002	0.000109
C21	C	0.207543	0.156476	0.000112
C22	C	0.189719	0.361652	0.000099
C23	C	0.271548	0.371176	0.000088
C24	C	0.321371	0.273351	0.000098
N25	N	0.449501	0.195767	0.000094
N26	N	0.405010	0.283098	0.000095
C27	C	0.926188	-0.324840	0.000082
C28	C	0.928316	-0.196280	0.000090
C29	C	1.070632	0.244155	0.000105
C30	C	1.157719	0.254293	0.000109
C31	C	0.922413	0.446500	0.000084
C32	C	0.924497	0.572684	0.000079
N33	N	0.916999	0.253386	0.216427
N34	N	0.937521	0.225477	-0.216243
C35	C	0.967945	0.183889	0.260129
C36	C	0.963812	0.189532	0.347535
C37	C	0.908737	0.264679	0.391237
C38	C	0.857785	0.334179	0.347529
C39	C	0.861915	0.328529	0.260125
C40	C	0.890699	0.289327	0.652644
C41	C	0.886575	0.294974	0.740055
C42	C	0.992602	0.150325	0.740054
C43	C	0.996729	0.144687	0.652648
C44	C	0.945775	0.214182	0.608948
N45	N	0.904513	0.270452	0.480580
N46	N	0.949996	0.208403	0.519606
H47	H	0.673020	0.409812	0.000056
F48	F	0.836473	0.363291	0.606142
H49	H	0.524579	0.392517	0.000072
H50	H	0.556910	0.020281	0.000110
F51	F	1.018034	0.115565	0.394046
F52	F	0.717826	0.013110	0.000091
F53	F	1.046825	0.076365	0.786568
F54	F	0.173487	0.042214	0.000136
F55	F	0.305600	0.485433	0.000074
F56	F	1.055347	0.064709	0.606138
F57	F	0.827954	0.374963	0.786561
F58	F	0.799165	0.414152	0.394042
H59	H	0.820428	0.385119	0.224543
F60	F	0.136688	0.465756	0.000090
H61	H	1.012796	0.122701	0.224552
F62	F	0.342391	0.061887	0.000119
