data_functionalizedCrystal
_audit_creation_method	'MofGen! by Chris Wilmer'
_symmetry_space_group_name_H-M	'P1'
_symmetry_Int_Tables_number	1
_symmetry_cell_setting	triclinic
loop_
_symmetry_equiv_pos_as_xyz
  x,y,z
_cell_length_a	21.395362
_cell_length_b	25.639239
_cell_length_c	21.395355
_cell_angle_alpha	90.019334
_cell_angle_beta	90.043940
_cell_angle_gamma	90.054564
loop_
_atom_site_label
_atom_site_type_symbol
_atom_site_fract_x
_atom_site_fract_y
_atom_site_fract_z
Zn1	Zn	0.957825	-0.207990	0.354582
Zn2	Zn	1.291158	0.125344	0.687915
Zn3	Zn	1.624491	0.458677	1.021249
Zn4	Zn	0.957713	-0.295409	0.249803
Zn5	Zn	1.291046	0.037924	0.583136
Zn6	Zn	1.624379	0.371257	0.916470
Zn7	Zn	0.853040	-0.208014	0.249783
Zn8	Zn	1.186373	0.125319	0.583117
Zn9	Zn	1.519706	0.458653	0.916450
Zn10	Zn	0.852994	-0.295420	0.354508
Zn11	Zn	1.186328	0.037913	0.687841
Zn12	Zn	1.519661	0.371246	1.021174
O13	O	0.905393	-0.251708	0.302169
O14	O	1.238726	0.081625	0.635502
O15	O	1.572060	0.414958	0.968836
O16	O	1.045488	-0.219571	0.340722
O17	O	1.378821	0.113762	0.674056
O18	O	1.712154	0.447095	1.007389
O19	O	0.943800	-0.283822	0.162122
O20	O	1.277133	0.049511	0.495456
O21	O	1.610466	0.382845	0.828789
O22	O	0.867006	-0.134846	0.263708
O23	O	1.200339	0.198488	0.597041
O24	O	1.533672	0.531821	0.930375
O25	O	1.045405	-0.283798	0.263742
O26	O	1.378739	0.049535	0.597075
O27	O	1.712072	0.382868	0.930408
O28	O	0.943991	-0.134828	0.340703
O29	O	1.277324	0.198506	0.674036
O30	O	1.610657	0.531839	1.007370
O31	O	0.866897	-0.219613	0.162108
O32	O	1.200230	0.113720	0.495441
O33	O	1.533564	0.447054	0.828775
O34	O	0.765356	-0.219623	0.263636
O35	O	1.098689	0.113710	0.596969
O36	O	1.432022	0.447043	0.930303
O37	O	0.866928	-0.283817	0.442196
O38	O	1.200262	0.049517	0.775529
O39	O	1.533595	0.382850	1.108862
O40	O	0.765322	-0.283840	0.340576
O41	O	1.098656	0.049493	0.673910
O42	O	1.431989	0.382826	1.007243
O43	O	0.943947	-0.219582	0.442250
O44	O	1.277280	0.113751	0.775583
O45	O	1.610613	0.447085	1.108917
O46	O	0.943756	-0.368576	0.263669
O47	O	1.277089	-0.035243	0.597003
O48	O	1.610422	0.298091	0.930336
O49	O	0.866820	-0.368584	0.340596
O50	O	1.200153	-0.035251	0.673929
O51	O	1.533486	0.298083	1.007262
C52	C	0.742605	-0.251736	0.302096
C53	C	1.075939	0.081597	0.635430
C54	C	1.409272	0.414931	0.968763
C55	C	0.672964	-0.251760	0.302080
C56	C	1.006297	0.081573	0.635413
C57	C	1.339631	0.414906	0.968747
C58	C	0.905288	-0.387551	0.302140
C59	C	1.238621	-0.054218	0.635474
C60	C	1.571954	0.279116	0.968807
C61	C	0.905300	-0.445665	0.302149
C62	C	1.238633	-0.112332	0.635482
C63	C	1.571966	0.221002	0.968816
C64	C	0.640250	-0.285243	0.342083
C65	C	0.973583	0.048091	0.675416
C66	C	1.306916	0.381424	1.008750
C67	C	0.574814	-0.285230	0.342111
C68	C	0.908148	0.048104	0.675444
C69	C	1.241481	0.381437	1.008778
C70	C	0.542096	-0.251740	0.302125
C71	C	0.875429	0.081593	0.635458
C72	C	1.208762	0.414926	0.968791
C73	C	0.574818	-0.218252	0.262119
C74	C	0.908151	0.115082	0.595452
C75	C	1.241484	0.448415	0.928786
C76	C	0.640252	-0.218262	0.262097
C77	C	0.973585	0.115071	0.595430
C78	C	1.306918	0.448405	0.928763
C79	C	0.438372	-0.247528	0.245720
C80	C	0.771705	0.085805	0.579053
C81	C	1.105038	0.419138	0.912386
C82	C	0.372939	-0.247522	0.245741
C83	C	0.706272	0.085811	0.579074
C84	C	1.039605	0.419145	0.912407
C85	C	0.340275	-0.251706	0.302194
C86	C	0.673608	0.081627	0.635527
C87	C	1.006942	0.414960	0.968861
C88	C	0.373052	-0.255908	0.358627
C89	C	0.706386	0.077425	0.691961
C90	C	1.039719	0.410759	1.025294
C91	C	0.438486	-0.255918	0.358605
C92	C	0.771820	0.077415	0.691938
C93	C	1.105153	0.410749	1.025272
C94	C	0.471143	-0.251725	0.302145
C95	C	0.804477	0.081608	0.635478
C96	C	1.137810	0.414941	0.968811
C97	C	0.236608	-0.285176	0.342231
C98	C	0.569942	0.048157	0.675564
C99	C	0.903275	0.381490	1.008897
C100	C	0.171172	-0.285160	0.342260
C101	C	0.504505	0.048174	0.675593
C102	C	0.837838	0.381507	1.008926
C103	C	0.171176	-0.218185	0.262262
C104	C	0.504510	0.115149	0.595595
C105	C	0.837843	0.448482	0.928929
C106	C	0.236612	-0.218198	0.262239
C107	C	0.569945	0.115135	0.595572
C108	C	0.903278	0.448468	0.928905
C109	C	0.269324	-0.251697	0.302222
C110	C	0.602657	0.081636	0.635555
C111	C	0.935990	0.414970	0.968889
C112	C	0.945558	-0.806011	0.262182
C113	C	1.278891	-0.472678	0.595515
C114	C	1.612225	-0.139345	0.928849
C115	C	0.945582	-0.860616	0.262190
C116	C	1.278916	-0.527282	0.595524
C117	C	1.612249	-0.193949	0.928857
O118	O	0.979702	-0.888838	0.228177
O119	O	1.313035	-0.555505	0.561511
O120	O	1.646369	-0.222171	0.894844
N121	N	0.905503	-0.887947	0.302211
N122	N	1.238836	-0.554614	0.635544
N123	N	1.572170	-0.221281	0.968877
C124	C	0.865401	-0.860672	0.342230
C125	C	1.198735	-0.527339	0.675563
C126	C	1.532068	-0.194005	1.008896
O127	O	0.831313	-0.888934	0.376271
O128	O	1.164647	-0.555601	0.709604
O129	O	1.497980	-0.222267	1.042938
C130	C	0.865381	-0.806069	0.342224
C131	C	1.198714	-0.472735	0.675557
C132	C	1.532047	-0.139402	1.008891
C133	C	0.905458	-0.778740	0.302196
C134	C	1.238791	-0.445406	0.635530
C135	C	1.572125	-0.112073	0.968863
C136	C	0.985633	-0.778682	0.222158
C137	C	1.318966	-0.445349	0.555492
C138	C	1.652299	-0.112016	0.888825
C139	C	0.985608	-0.724082	0.222149
C140	C	1.318941	-0.390748	0.555483
C141	C	1.652274	-0.057415	0.888816
C142	C	0.945508	-0.696810	0.262164
C143	C	1.278841	-0.363477	0.595497
C144	C	1.612174	-0.030144	0.928830
C145	C	0.905433	-0.724139	0.302187
C146	C	1.238766	-0.390806	0.635521
C147	C	1.572099	-0.057473	0.968854
C148	C	0.825282	-0.778794	0.382246
C149	C	1.158616	-0.445461	0.715579
C150	C	1.491949	-0.112128	1.048912
C151	C	0.825266	-0.724187	0.382237
C152	C	1.158599	-0.390854	0.715570
C153	C	1.491932	-0.057521	1.048903
C154	C	0.865343	-0.696858	0.342209
C155	C	1.198676	-0.363525	0.675543
C156	C	1.532010	-0.030192	1.008876
C157	C	0.865308	-0.642267	0.342193
C158	C	1.198641	-0.308934	0.675526
C159	C	1.531974	0.024399	1.008860
N160	N	0.905387	-0.614935	0.302173
N161	N	1.238720	-0.281602	0.635506
N162	N	1.572054	0.051731	0.968839
C163	C	0.945487	-0.642207	0.262158
C164	C	1.278820	-0.308874	0.595491
C165	C	1.612154	0.024460	0.928825
C166	C	0.865448	-0.975343	0.342239
C167	C	1.198782	-0.642009	0.675573
C168	C	1.532115	-0.308676	1.008906
C169	C	0.865465	-1.029945	0.342242
C170	C	1.198799	-0.696612	0.675576
C171	C	1.532132	-0.363278	1.008909
C172	C	0.945648	-1.029885	0.262204
C173	C	1.278981	-0.696551	0.595537
C174	C	1.612314	-0.363218	0.928870
C175	C	0.945627	-0.975281	0.262198
C176	C	1.278960	-0.641948	0.595531
C177	C	1.612294	-0.308615	0.928865
C178	C	0.905528	-0.948011	0.302219
C179	C	1.238861	-0.614678	0.635552
C180	C	1.572194	-0.281344	0.968886
C181	C	0.945430	-0.527542	0.262142
C182	C	1.278764	-0.194209	0.595475
C183	C	1.612097	0.139125	0.928808
C184	C	0.945400	-0.472937	0.262134
C185	C	1.278733	-0.139603	0.595468
C186	C	1.612066	0.193730	0.928801
C187	C	0.865220	-0.473002	0.342175
C188	C	1.198554	-0.139668	0.675508
C189	C	1.531887	0.193665	1.008842
C190	C	0.865248	-0.527602	0.342180
C191	C	1.198582	-0.194269	0.675514
C192	C	1.531915	0.139065	1.008847
C193	C	0.905358	-0.554871	0.302162
C194	C	1.238692	-0.221538	0.635495
C195	C	1.572025	0.111796	0.968828
O196	O	0.831207	-0.614010	0.376190
O197	O	1.164540	-0.280677	0.709524
O198	O	1.497874	0.052657	1.042857
O199	O	0.979575	-0.613939	0.228128
O200	O	1.312908	-0.280605	0.561461
O201	O	1.646242	0.052728	0.894795
C202	C	1.068816	-0.251681	0.302242
C203	C	1.402150	0.081652	0.635576
C204	C	1.735483	0.414986	0.968909
C205	C	1.138458	-0.251669	0.302274
C206	C	1.471791	0.081664	0.635607
C207	C	1.805124	0.414997	0.968940
C208	C	0.905445	-0.251698	0.465592
C209	C	1.238778	0.081636	0.798926
C210	C	1.572112	0.414969	1.132259
C211	C	0.905467	-0.251693	0.535234
C212	C	1.238800	0.081640	0.868567
C213	C	1.572134	0.414973	1.201900
C214	C	0.905516	-0.115335	0.302212
C215	C	1.238849	0.217998	0.635545
C216	C	1.572182	0.551331	0.968878
C217	C	0.905568	-0.057221	0.302230
C218	C	1.238901	0.276112	0.635563
C219	C	1.572235	0.609445	0.968896
C220	C	0.905377	-0.251681	0.139381
C221	C	1.238710	0.081652	0.472715
C222	C	1.572044	0.414985	0.806048
C223	C	0.905476	-0.251538	0.069741
C224	C	1.238810	0.081795	0.403074
C225	C	1.572143	0.415128	0.736407
C226	C	0.945569	-0.218245	0.567976
C227	C	1.278902	0.115089	0.901310
C228	C	1.612236	0.448422	1.234643
C229	C	0.945568	-0.218222	0.633412
C230	C	1.278901	0.115111	0.966745
C231	C	1.612235	0.448444	1.300078
C232	C	0.905472	-0.251658	0.666102
C233	C	1.238805	0.081676	0.999435
C234	C	1.572139	0.415009	1.332769
C235	C	0.865362	-0.285108	0.633352
C236	C	1.198696	0.048225	0.966685
C237	C	1.532029	0.381558	1.300018
C238	C	0.865360	-0.285126	0.567917
C239	C	1.198693	0.048207	0.901251
C240	C	1.532027	0.381540	1.234584
C241	C	0.900488	-0.298736	0.769765
C242	C	1.233821	0.034597	1.103098
C243	C	1.567155	0.367931	1.436432
C244	C	0.900495	-0.298719	0.835198
C245	C	1.233828	0.034614	1.168531
C246	C	1.567162	0.367947	1.501865
C247	C	0.905476	-0.251602	0.867923
C248	C	1.238809	0.081731	1.201256
C249	C	1.572143	0.415064	1.534590
C250	C	0.910463	-0.204501	0.835207
C251	C	1.243796	0.128832	1.168540
C252	C	1.577130	0.462166	1.501873
C253	C	0.910461	-0.204519	0.769773
C254	C	1.243794	0.128814	1.103106
C255	C	1.577127	0.462148	1.436439
C256	C	0.905470	-0.251642	0.737054
C257	C	1.238803	0.081691	1.070388
C258	C	1.572137	0.415025	1.403721
C259	C	0.945579	-0.218127	0.971618
C260	C	1.278912	0.115207	1.304951
C261	C	1.612246	0.448540	1.638285
C262	C	0.945574	-0.218103	1.037055
C263	C	1.278907	0.115230	1.370388
C264	C	1.612240	0.448563	1.703721
C265	C	0.865371	-0.284994	1.036993
C266	C	1.198705	0.048339	1.370327
C267	C	1.532038	0.381672	1.703660
C268	C	0.865373	-0.285013	0.971558
C269	C	1.198707	0.048320	1.304891
C270	C	1.532040	0.381654	1.638225
C271	C	0.905480	-0.251580	0.938874
C272	C	1.238814	0.081753	1.272208
C273	C	1.572147	0.415087	1.605541
H274	H	0.666880	-0.312519	0.374642
H275	H	1.000213	0.020814	0.707975
H276	H	1.333547	0.354148	1.041308
O277	O	0.539517	-0.321364	0.385234
O278	O	0.872851	0.011970	0.718567
O279	O	1.206184	0.345303	1.051901
H280	H	0.573257	-0.344667	0.413022
H281	H	0.906591	-0.011334	0.746355
H282	H	1.239924	0.322000	1.079689
H283	H	0.465171	-0.259338	0.404555
H284	H	0.798504	0.073996	0.737889
H285	H	1.131838	0.407329	1.071222
H286	H	0.346459	-0.259314	0.404597
H287	H	0.679792	0.074019	0.737930
H288	H	1.013126	0.407352	1.071264
H289	H	0.263244	-0.312450	0.374791
H290	H	0.596577	0.020883	0.708124
H291	H	0.929911	0.354217	1.041457
H292	H	0.914520	-0.166167	0.743138
H293	H	1.247853	0.167166	1.076471
H294	H	1.581186	0.500499	1.409804
O295	O	0.675544	-0.182150	0.218947
O296	O	1.008878	0.151183	0.552281
O297	O	1.342211	0.484516	0.885614
H298	H	0.705290	-0.205521	0.187014
H299	H	1.038623	0.127812	0.520348
H300	H	1.371956	0.461146	0.853681
H301	H	0.464961	-0.244119	0.199746
H302	H	0.798294	0.089215	0.533079
H303	H	1.131628	0.422548	0.866412
O304	O	0.822013	-0.557085	0.385339
O305	O	1.155346	-0.223752	0.718672
O306	O	1.488680	0.109581	1.052005
H307	H	0.850049	-0.581922	0.417254
H308	H	1.183382	-0.248589	0.750588
H309	H	1.516716	0.084745	1.083921
H310	H	0.978227	-0.191020	0.541369
H311	H	1.311560	0.142313	0.874702
H312	H	1.644893	0.475646	1.208036
O313	O	0.988829	-0.182067	0.936357
O314	O	1.322163	0.151266	1.269690
O315	O	1.655496	0.484600	1.603024
H316	H	0.978116	-0.141030	0.948900
H317	H	1.311449	0.192304	1.282233
H318	H	1.644783	0.525637	1.615567
H319	H	1.018290	-0.800881	0.189573
H320	H	1.351624	-0.467548	0.522907
H321	H	1.684957	-0.134214	0.856240
H322	H	0.548174	-0.190984	0.229563
H323	H	0.881507	0.142350	0.562896
H324	H	1.214840	0.475683	0.896230
H325	H	0.832569	-0.450789	0.374753
H326	H	1.165903	-0.117455	0.708086
H327	H	1.499236	0.215878	1.041419
H328	H	0.978222	-0.190982	0.660076
H329	H	1.311556	0.142352	0.993409
H330	H	1.644889	0.475685	1.326743
H331	H	0.978228	-0.190863	1.063713
H332	H	1.311562	0.142471	1.397046
H333	H	1.644895	0.475804	1.730379
O334	O	0.782007	-0.694773	0.425395
O335	O	1.115341	-0.361440	0.758729
O336	O	1.448674	-0.028106	1.092062
H337	H	0.754141	-0.722954	0.453221
H338	H	1.087474	-0.389620	0.786554
H339	H	1.420807	-0.056287	1.119888
O340	O	0.915829	-0.153681	0.870501
O341	O	1.249163	0.179652	1.203835
O342	O	1.582496	0.512986	1.537168
H343	H	0.960427	-0.134170	0.857987
H344	H	1.293760	0.199164	1.191321
H345	H	1.627093	0.532497	1.524654
H346	H	0.832722	-0.312253	0.944899
H347	H	1.166055	0.021080	1.278232
H348	H	1.499388	0.354413	1.611565
O349	O	0.988632	-0.443459	0.218965
O350	O	1.321965	-0.110126	0.552299
O351	O	1.655299	0.223208	0.885632
H352	H	1.016525	-0.471600	0.191149
H353	H	1.349858	-0.138266	0.524483
H354	H	1.683192	0.195067	0.857816
H355	H	1.018244	-0.701834	0.189557
H356	H	1.351577	-0.368500	0.522891
H357	H	1.684910	-0.035167	0.856224
O358	O	0.988862	-0.945804	0.219037
O359	O	1.322195	-0.612471	0.552371
O360	O	1.655528	-0.279137	0.885704
H361	H	0.978152	-0.956313	0.169849
H362	H	1.311485	-0.622980	0.503182
H363	H	1.644818	-0.289646	0.836516
O364	O	0.988685	-0.556950	0.218975
O365	O	1.322019	-0.223617	0.552308
O366	O	1.655352	0.109717	0.885642
H367	H	1.016539	-0.528766	0.191141
H368	H	1.349872	-0.195433	0.524475
H369	H	1.683206	0.137901	0.857808
O370	O	0.988904	-1.059311	0.219052
O371	O	1.322238	-0.725977	0.552386
O372	O	1.655571	-0.392644	0.885719
H373	H	0.978181	-1.048871	0.169859
H374	H	1.311515	-0.715538	0.503193
H375	H	1.644848	-0.382204	0.836526
H376	H	0.832824	-1.052192	0.374831
H377	H	1.166158	-0.718858	0.708164
H378	H	1.499491	-0.385525	1.041497
O379	O	0.822122	-0.321058	1.072241
O380	O	1.155455	0.012275	1.405575
O381	O	1.488789	0.345609	1.738908
H382	H	0.828862	-0.315429	1.123244
H383	H	1.162195	0.017905	1.456577
H384	H	1.495529	0.351238	1.789910
H385	H	0.896265	-0.337094	0.743126
H386	H	1.229598	-0.003761	1.076459
H387	H	1.562931	0.329572	1.409793
O388	O	0.895110	-0.349517	0.870484
O389	O	1.228443	-0.016184	1.203817
O390	O	1.561776	0.317150	1.537151
H391	H	0.891630	-0.382282	0.836737
H392	H	1.224963	-0.048949	1.170071
H393	H	1.558297	0.284384	1.503404
O394	O	0.822181	-0.945930	0.385392
O395	O	1.155514	-0.612596	0.718725
O396	O	1.488847	-0.279263	1.052058
H397	H	0.794311	-0.974113	0.413211
H398	H	1.127644	-0.640779	0.746544
H399	H	1.460978	-0.307446	1.079877
H400	H	0.832714	-0.312330	0.659972
H401	H	1.166047	0.021003	0.993306
H402	H	1.499381	0.354337	1.326639
O403	O	0.782060	-0.808263	0.425422
O404	O	1.115393	-0.474930	0.758756
O405	O	1.448726	-0.141597	1.092089
H406	H	0.754183	-0.780118	0.453248
H407	H	1.087517	-0.446784	0.786581
H408	H	1.420850	-0.113451	1.119914
O409	O	0.135882	-0.321343	0.385324
O410	O	0.469215	0.011990	0.718658
O411	O	0.802548	0.345324	1.051991
H412	H	0.169625	-0.344665	0.413087
H413	H	0.502958	-0.011332	0.746420
H414	H	0.836291	0.322001	1.079753
O415	O	0.822092	-0.321193	0.532596
O416	O	1.155425	0.012141	0.865929
O417	O	1.488759	0.345474	1.199262
H418	H	0.794205	-0.344436	0.566318
H419	H	1.127538	-0.011103	0.899651
H420	H	1.460871	0.322231	1.232984
H421	H	0.144537	-0.190914	0.229707
H422	H	0.477871	0.142419	0.563041
H423	H	0.811204	0.475752	0.896374
H424	H	0.346256	-0.244104	0.199789
H425	H	0.679590	0.089229	0.533122
H426	H	1.012923	0.422563	0.866456
O427	O	0.271903	-0.182099	0.219076
O428	O	0.605236	0.151234	0.552409
O429	O	0.938570	0.484568	0.885743
H430	H	0.238160	-0.158815	0.191267
H431	H	0.571494	0.174518	0.524601
H432	H	0.904827	0.507852	0.857934
