data_functionalizedCrystal
_audit_creation_method	'MofGen! by Chris Wilmer'
_symmetry_space_group_name_H-M	'P1'
_symmetry_Int_Tables_number	1
_symmetry_cell_setting	triclinic
loop_
_symmetry_equiv_pos_as_xyz
  x,y,z
_cell_length_a	10.654541
_cell_length_b	15.995350
_cell_length_c	9.730217
_cell_angle_alpha	89.999129
_cell_angle_beta	89.999932
_cell_angle_gamma	96.011849
loop_
_atom_site_label
_atom_site_type_symbol
_atom_site_fract_x
_atom_site_fract_y
_atom_site_fract_z
O1	O	1.666302	-0.117591	-0.114234
O2	O	1.300677	-0.128798	-0.114245
O3	O	1.493484	-0.001365	-0.114244
O4	O	1.473495	-0.245024	-0.114234
O5	O	1.493478	-0.001364	0.114336
O6	O	1.300671	-0.128797	0.114335
O7	O	1.666296	-0.117590	0.114346
Zn8	Zn	1.483483	-0.123193	0.150633
Zn9	Zn	1.483491	-0.123195	-0.150531
O10	O	1.473489	-0.245023	0.114346
C11	C	1.253887	-0.127975	0.000044
C12	C	1.114475	-0.125514	0.000039
C13	C	1.084514	-0.277895	0.000028
C14	C	1.004039	-0.352926	0.000017
C15	C	0.873052	-0.350609	0.000016
C16	C	0.822537	-0.273253	0.000030
C17	C	0.903011	-0.198222	0.000041
C18	C	1.034000	-0.200547	0.000038
C19	C	0.932972	-0.045843	0.000061
C20	C	1.063961	-0.048158	0.000053
C21	C	0.882458	0.031513	0.000075
C22	C	0.962933	0.106546	0.000076
C23	C	1.093928	0.104226	0.000076
C24	C	1.144435	0.026873	0.000064
C25	C	1.474318	-0.276223	0.000057
C26	C	1.476796	-0.369188	0.000061
C27	C	1.485693	-0.706987	0.000040
C28	C	1.623007	-0.660350	-0.000466
C29	C	1.620529	-0.563645	0.000056
C30	C	1.481280	-0.539401	0.000049
C31	C	1.413549	-0.580090	0.130573
C32	C	1.416998	-0.676746	0.130675
C33	C	1.414168	-0.677078	-0.129264
C34	C	1.414201	-0.580133	-0.130981
C35	C	1.478778	-0.444689	0.000060
C36	C	1.488191	-0.801700	0.000039
C37	C	1.713087	-0.118413	0.000055
C38	C	1.852498	-0.120874	0.000050
C39	C	1.492655	0.029835	0.000041
C40	C	1.490177	0.122800	0.000028
N41	N	1.483487	-0.123192	0.356169
N42	N	1.483497	-0.123190	-0.356068
C43	C	1.654287	-0.010383	0.356160
C44	C	1.739695	0.046019	0.428096
C45	C	1.739708	0.046019	0.571975
C46	C	1.654301	-0.010387	0.643923
C47	C	1.568892	-0.066788	0.571988
C48	C	1.568891	-0.066785	0.428105
C49	C	1.398088	-0.179592	0.571997
C50	C	1.398079	-0.179598	0.428117
C51	C	1.312681	-0.235998	0.643945
C52	C	1.227276	-0.292405	0.572009
C53	C	1.227268	-0.292404	0.428121
C54	C	1.312671	-0.236000	0.356182
H55	H	0.715878	-0.271373	0.000045
O56	O	1.695728	-0.685311	-0.124447
H57	H	1.634788	-0.731229	-0.187031
H58	H	1.654306	-0.010376	0.761078
H59	H	1.312689	-0.235991	0.761099
H60	H	1.157713	-0.338330	0.369558
H61	H	0.921792	0.169523	0.000086
O62	O	0.786244	-0.431532	0.000019
H63	H	0.725841	-0.434111	-0.093139
O64	O	1.312650	-0.235994	0.200997
H65	H	1.386376	-0.187292	0.163059
O66	O	1.475865	-0.542872	0.259250
H67	H	1.405722	-0.512404	0.320881
O68	O	1.831836	0.106846	0.649568
H69	H	1.815864	0.172223	0.621955
O70	O	1.135174	-0.353246	0.649599
H71	H	1.074151	-0.317622	0.715161
O72	O	1.225794	-0.280391	0.000025
H73	H	1.247401	-0.346783	0.000021
O74	O	1.473583	-0.704775	-0.260247
H75	H	1.573560	-0.677285	-0.264930
H76	H	1.677693	-0.680341	0.092526
O77	O	1.479694	-0.544338	-0.258890
H78	H	1.579691	-0.558022	-0.257828
O79	O	1.482433	-0.701372	0.259913
H80	H	1.416809	-0.745351	0.320826
O81	O	1.285715	0.024373	0.000074
H82	H	1.307316	-0.042021	0.000077
O83	O	1.283468	-0.718699	0.138541
H84	H	1.216719	-0.669924	0.142267
H85	H	1.674119	-0.536095	0.093789
H86	H	1.045183	-0.415908	0.000010
O87	O	1.180726	0.185153	0.000090
H88	H	1.123588	0.239326	0.000092
O89	O	1.831810	0.106863	0.350511
H90	H	1.815803	0.172232	0.378141
O91	O	0.741179	0.034020	0.000078
H92	H	0.693704	-0.031148	0.000055
O93	O	1.691252	-0.526375	-0.123738
H94	H	1.727517	-0.577421	-0.184531
H95	H	1.311246	-0.565372	0.135422
O96	O	1.279683	-0.559018	-0.141435
H97	H	1.258439	-0.518989	-0.053003
H98	H	1.312920	-0.708239	-0.130135
H99	H	1.654295	-0.010385	0.239006
