data_functionalizedCrystal
_audit_creation_method	'MofGen! by Chris Wilmer'
_symmetry_space_group_name_H-M	'P1'
_symmetry_Int_Tables_number	1
_symmetry_cell_setting	triclinic
loop_
_symmetry_equiv_pos_as_xyz
  x,y,z
_cell_length_a	19.121102
_cell_length_b	29.839131
_cell_length_c	19.121175
_cell_angle_alpha	92.411984
_cell_angle_beta	85.212968
_cell_angle_gamma	87.595578
loop_
_atom_site_label
_atom_site_type_symbol
_atom_site_fract_x
_atom_site_fract_y
_atom_site_fract_z
Zn1	Zn	1.092523	-0.220827	-0.443651
Zn2	Zn	1.592523	0.279173	0.056349
Zn3	Zn	1.087392	-0.292604	-0.325977
Zn4	Zn	1.587392	0.207396	0.174023
Zn5	Zn	0.969851	-0.214140	-0.320989
Zn6	Zn	1.469851	0.285860	0.179011
Zn7	Zn	0.974791	-0.292574	-0.438589
Zn8	Zn	1.474791	0.207426	0.061411
O9	O	1.031139	-0.255036	-0.382302
O10	O	1.531139	0.244964	0.117698
O11	O	1.190305	-0.233159	-0.432247
O12	O	1.690305	0.266841	0.067753
O13	O	1.067584	-0.279410	-0.226853
O14	O	1.567584	0.220590	0.273147
O15	O	0.986203	-0.152163	-0.337291
O16	O	1.486203	0.347837	0.162709
O17	O	1.186534	-0.285893	-0.345793
O18	O	1.686534	0.214107	0.154207
O19	O	1.076330	-0.157076	-0.427410
O20	O	1.576330	0.342924	0.072590
O21	O	0.981228	-0.221763	-0.223188
O22	O	1.481228	0.278237	0.276812
O23	O	0.872044	-0.221734	-0.332383
O24	O	1.372044	0.278266	0.167617
O25	O	0.994624	-0.285843	-0.537724
O26	O	1.494624	0.214157	-0.037724
O27	O	0.875674	-0.279359	-0.418784
O28	O	1.375674	0.220641	0.081216
O29	O	1.081121	-0.233130	-0.541442
O30	O	1.581121	0.266870	-0.041442
O31	O	1.072375	-0.355464	-0.340885
O32	O	1.572375	0.144536	0.159115
O33	O	0.989648	-0.355443	-0.423621
O34	O	1.489648	0.144557	0.076379
C35	C	0.848329	-0.249818	-0.374493
C36	C	1.348329	0.250182	0.125507
C37	C	0.770122	-0.247597	-0.371170
C38	C	1.270122	0.252403	0.128830
C39	C	0.735286	-0.276597	-0.414522
C40	C	1.235286	0.223403	0.085478
C41	C	0.661803	-0.274505	-0.411402
C42	C	1.161803	0.225495	0.088598
C43	C	0.623157	-0.243413	-0.364926
C44	C	1.123157	0.256587	0.135074
C45	C	0.657999	-0.214410	-0.321573
C46	C	1.157999	0.285590	0.178427
C47	C	0.731481	-0.216501	-0.324696
C48	C	1.231481	0.283499	0.175304
C49	C	0.401194	-0.235595	-0.353251
C50	C	0.901194	0.264405	0.146749
C51	C	0.327707	-0.233507	-0.350129
C52	C	0.827707	0.266493	0.149871
C53	C	0.331516	-0.293602	-0.439960
C54	C	0.831516	0.206398	0.060040
C55	C	0.404999	-0.295692	-0.443077
C56	C	0.904999	0.204308	0.056923
C57	C	0.439834	-0.266687	-0.399726
C58	C	0.939834	0.233313	0.100274
C59	C	0.548046	-0.241275	-0.361735
C60	C	1.048046	0.258725	0.138265
C61	C	0.514945	-0.268824	-0.402921
C62	C	1.014945	0.231176	0.097079
C63	C	1.031011	-0.371754	-0.382261
C64	C	1.531011	0.128246	0.117739
C65	C	1.031021	-0.421689	-0.382270
C66	C	1.531021	0.078311	0.117730
C67	C	1.074300	-0.731340	-0.339290
C68	C	1.574300	-0.231340	0.160710
C69	C	1.074388	-0.919016	-0.339321
C70	C	1.574388	-0.419016	0.160679
O71	O	1.111083	-0.943283	-0.302747
O72	O	1.611083	-0.443283	0.197253
N73	N	1.031287	-0.942484	-0.382361
N74	N	1.531287	-0.442484	0.117639
C75	C	0.988165	-0.919030	-0.425399
C76	C	1.488165	-0.419030	0.074601
O77	O	0.951513	-0.943298	-0.462013
O78	O	1.451513	-0.443298	0.037987
C79	C	0.988082	-0.731355	-0.425371
C80	C	1.488082	-0.231355	0.074629
C81	C	1.031179	-0.707889	-0.382324
C82	C	1.531179	-0.207889	0.117676
C83	C	1.117395	-0.707874	-0.296247
C84	C	1.617395	-0.207874	0.203753
C85	C	1.117369	-0.660957	-0.296237
C86	C	1.617369	-0.160957	0.203763
C87	C	1.074249	-0.637507	-0.339270
C88	C	1.574249	-0.137507	0.160730
C89	C	1.031154	-0.660973	-0.382314
C90	C	1.531154	-0.160973	0.117686
C91	C	0.944964	-0.707903	-0.468413
C92	C	1.444964	-0.207903	0.031587
C93	C	0.944948	-0.660981	-0.468403
C94	C	1.444948	-0.160981	0.031597
C95	C	0.988046	-0.637515	-0.425356
C96	C	1.488046	-0.137515	0.074644
C97	C	0.988009	-0.590606	-0.425337
C98	C	1.488009	-0.090606	0.074663
N99	N	1.031109	-0.567138	-0.382297
N100	N	1.531109	-0.067138	0.117703
C101	C	1.074229	-0.590588	-0.339264
C102	C	1.574229	-0.090588	0.160736
C103	C	0.988211	-1.017563	-0.425410
C104	C	1.488211	-0.517563	0.074590
C105	C	0.988231	-1.064481	-0.425416
C106	C	1.488231	-0.564481	0.074584
C107	C	1.074455	-1.064463	-0.339339
C108	C	1.574455	-0.564463	0.160661
C109	C	1.074431	-1.017544	-0.339330
C110	C	1.574431	-0.517544	0.160670
C111	C	1.031312	-0.994094	-0.382370
C112	C	1.531312	-0.494094	0.117630
C113	C	1.074172	-0.492060	-0.339245
C114	C	1.574172	0.007940	0.160755
C115	C	1.074141	-0.445140	-0.339237
C116	C	1.574141	0.054860	0.160763
C117	C	0.987921	-0.445162	-0.425316
C118	C	1.487921	0.054838	0.074684
C119	C	0.987949	-0.492078	-0.425322
C120	C	1.487949	0.007922	0.074678
C121	C	1.031080	-0.515526	-0.382285
C122	C	1.531080	-0.015526	0.117715
O123	O	0.951339	-0.566310	-0.461898
O124	O	1.451339	-0.066310	0.038102
O125	O	1.110887	-0.566313	-0.302667
O126	O	1.610887	-0.066313	0.197333
C127	C	1.074325	-0.778256	-0.339301
C128	C	1.574325	-0.278256	0.160699
C129	C	1.031230	-0.801722	-0.382344
C130	C	1.531230	-0.301722	0.117656
C131	C	0.988110	-0.778272	-0.425377
C132	C	1.488110	-0.278272	0.074623
C133	C	1.031250	-0.848641	-0.382350
C134	C	1.531250	-0.348641	0.117650
C135	C	1.074370	-0.872091	-0.339317
C136	C	1.574370	-0.372091	0.160683
C137	C	1.117470	-0.848623	-0.296277
C138	C	1.617470	-0.348623	0.203723
C139	C	1.117445	-0.801706	-0.296267
C140	C	1.617445	-0.301706	0.203733
C141	C	0.945009	-0.801740	-0.468417
C142	C	1.445009	-0.301740	0.031583
C143	C	0.945038	-0.848656	-0.468423
C144	C	1.445038	-0.348656	0.031577
C145	C	0.988158	-0.872107	-0.425390
C146	C	1.488158	-0.372107	0.074610
C147	C	1.214664	-0.260275	-0.390141
C148	C	1.714664	0.239725	0.109859
C149	C	1.292871	-0.262508	-0.393481
C150	C	1.792871	0.237492	0.106519
C151	C	1.038996	-0.260229	-0.565827
C152	C	1.538996	0.239771	-0.065827
C153	C	1.042344	-0.262442	-0.644035
C154	C	1.542344	0.237558	-0.144035
C155	C	1.031288	-0.137864	-0.382358
C156	C	1.531288	0.362136	0.117642
C157	C	1.031351	-0.087932	-0.382382
C158	C	1.531351	0.412068	0.117618
C159	C	0.998958	-0.233468	-0.678868
C160	C	1.498958	0.266532	-0.178868
C161	C	1.002101	-0.235551	-0.752352
C162	C	1.502101	0.264449	-0.252352
C163	C	1.048634	-0.266606	-0.791002
C164	C	1.548634	0.233394	-0.291002
C165	C	1.092022	-0.295582	-0.756164
C166	C	1.592022	0.204418	-0.256164
C167	C	1.088875	-0.293501	-0.682680
C168	C	1.588875	0.206499	-0.182680
C169	C	1.060383	-0.274393	-1.012969
C170	C	1.560383	0.225607	-0.512969
C171	C	1.063528	-0.276471	-1.086457
C172	C	1.563528	0.223529	-0.586457
C173	C	0.973605	-0.216440	-1.082641
C174	C	1.473605	0.283560	-0.582641
C175	C	0.970465	-0.214360	-1.009157
C176	C	1.470465	0.285640	-0.509157
C177	C	1.013851	-0.243338	-0.974324
C178	C	1.513851	0.256662	-0.474324
C179	C	1.051850	-0.268735	-0.866115
C180	C	1.551850	0.231265	-0.366115
C181	C	1.010631	-0.241211	-0.899213
C182	C	1.510631	0.258789	-0.399213
C183	C	1.023354	-0.249833	-0.199492
C184	C	1.523354	0.250167	0.300508
C185	C	1.020142	-0.247497	-0.121290
C186	C	1.520142	0.252503	0.378710
H187	H	1.109236	-0.426035	-0.304180
H188	H	1.609236	0.073965	0.195820
O189	O	0.946460	-1.087326	-0.467266
O190	O	1.446460	-0.587326	0.032734
C191	C	0.988442	-1.116847	-0.514472
C192	C	1.488442	-0.616847	-0.014472
H193	H	1.040725	-1.124671	-0.491978
H194	H	1.540725	-0.624671	0.008022
H195	H	0.960188	-1.149304	-0.522666
H196	H	1.460188	-0.649304	-0.022666
H197	H	0.998359	-1.100440	-0.566944
H198	H	1.498359	-0.600440	-0.066944
O199	O	0.620568	-0.184168	-0.276408
O200	O	1.120568	0.315832	0.223592
C201	C	0.667075	-0.159027	-0.238802
C202	C	1.167075	0.340973	0.261198
H203	H	0.720697	-0.159805	-0.269855
H204	H	1.220697	0.340195	0.230145
H205	H	0.645561	-0.122811	-0.230495
H206	H	1.145561	0.377189	0.269505
H207	H	0.672575	-0.174135	-0.185648
H208	H	1.172575	0.325865	0.314352
H209	H	0.952857	-0.511185	-0.460377
H210	H	1.452857	-0.011185	0.039623
O211	O	0.435066	-0.207381	-0.311241
O212	O	0.935066	0.292619	0.188759
C213	C	0.479340	-0.180757	-0.353190
C214	C	0.979340	0.319243	0.146810
H215	H	0.459581	-0.178974	-0.407674
H216	H	0.959581	0.321026	0.092326
H217	H	0.479119	-0.145466	-0.327876
H218	H	0.979119	0.354534	0.172124
H219	H	0.535118	-0.196301	-0.357943
H220	H	1.035118	0.303699	0.142057
H221	H	1.089737	-0.294020	-0.897592
H222	H	1.589737	0.205980	-0.397592
H223	H	0.303146	-0.317215	-0.475255
H224	H	0.803146	0.182785	0.024745
H225	H	0.938283	-0.192848	-1.111009
H226	H	1.438283	0.307152	-0.611009
O227	O	0.772850	-0.306845	-0.459570
O228	O	1.272850	0.193155	0.040430
C229	C	0.813612	-0.335889	-0.421237
C230	C	1.313612	0.164111	0.078763
H231	H	0.789082	-0.336412	-0.364870
H232	H	1.289082	0.163588	0.135130
H233	H	0.815499	-0.371227	-0.446623
H234	H	1.315499	0.128773	0.053377
H235	H	0.869215	-0.323515	-0.421222
H236	H	1.369215	0.176485	0.078778
O237	O	0.552561	-0.298966	-0.448104
O238	O	1.052561	0.201034	0.051896
C239	C	0.597037	-0.275931	-0.495442
C240	C	1.097037	0.224069	0.004558
H241	H	0.607010	-0.241473	-0.471196
H242	H	1.107010	0.258527	0.028804
H243	H	0.649097	-0.295972	-0.507009
H244	H	1.149097	0.204028	-0.007009
H245	H	0.570970	-0.271722	-0.546399
H246	H	1.070970	0.228278	-0.046399
H247	H	1.095703	-0.297993	-0.984617
H248	H	1.595703	0.202007	-0.484617
O249	O	0.628072	-0.302727	-0.453533
O250	O	1.128072	0.197273	0.046467
C251	C	0.677939	-0.330613	-0.495228
C252	C	1.177939	0.169387	0.004772
H253	H	0.729079	-0.332809	-0.468631
H254	H	1.229079	0.167191	0.031369
H255	H	0.656992	-0.365623	-0.501715
H256	H	1.156992	0.134377	-0.001715
H257	H	0.688069	-0.315959	-0.549053
H258	H	1.188069	0.184041	-0.049053
H259	H	0.296244	-0.208184	-0.312288
H260	H	0.796244	0.291816	0.187712
H261	H	1.152578	-0.867724	-0.261236
H262	H	1.652578	-0.367724	0.238764
H263	H	1.109296	-0.511146	-0.304202
H264	H	1.609296	-0.011146	0.195798
O265	O	0.946143	-0.422360	-0.467198
O266	O	1.446143	0.077640	0.032802
C267	C	0.988113	-0.397604	-0.514359
C268	C	1.488113	0.102396	-0.014359
H269	H	1.043717	-0.413415	-0.521114
H270	H	1.543717	0.086585	-0.021114
H271	H	0.964946	-0.397873	-0.567402
H272	H	1.464946	0.102127	-0.067402
H273	H	0.989612	-0.361504	-0.492697
H274	H	1.489612	0.138496	0.007303
O275	O	0.903148	-0.871380	-0.510307
O276	O	1.403148	-0.371380	-0.010307
C277	C	0.865076	-0.840615	-0.548272
C278	C	1.365076	-0.340615	-0.048272
H279	H	0.893983	-0.808040	-0.551945
H280	H	1.393983	-0.308040	-0.051945
H281	H	0.859910	-0.855510	-0.603388
H282	H	1.359910	-0.355510	-0.103388
H283	H	0.810548	-0.833416	-0.520184
H284	H	1.310548	-0.333416	-0.020184
O285	O	0.765400	-0.188396	-0.282551
O286	O	1.265400	0.311604	0.217449
C287	C	0.805908	-0.213848	-0.238827
C288	C	1.305908	0.286152	0.261173
H289	H	0.817942	-0.248931	-0.264012
H290	H	1.317942	0.251069	0.235988
H291	H	0.857197	-0.196746	-0.231650
H292	H	1.357197	0.303254	0.268350
H293	H	0.775342	-0.216450	-0.185464
H294	H	1.275342	0.283550	0.314536
O295	O	0.965392	-0.211105	-0.861593
O296	O	1.465392	0.288895	-0.361593
C297	C	0.918083	-0.234181	-0.817146
C298	C	1.418083	0.265819	-0.317146
H299	H	0.942381	-0.268624	-0.807186
H300	H	1.442381	0.231376	-0.307186
H301	H	0.906471	-0.214154	-0.765076
H302	H	1.406471	0.285846	-0.265076
H303	H	0.867144	-0.238425	-0.843233
H304	H	1.367144	0.261575	-0.343233
O305	O	0.510464	-0.211134	-0.316518
O306	O	1.010464	0.288866	0.183482
C307	C	0.465952	-0.234166	-0.269208
C308	C	0.965952	0.265834	0.230792
H309	H	0.487872	-0.270046	-0.265687
H310	H	0.987872	0.229954	0.234313
H311	H	0.462791	-0.216304	-0.215073
H312	H	0.962791	0.283696	0.284927
H313	H	0.411203	-0.234771	-0.288608
H314	H	0.911203	0.265229	0.211392
O315	O	1.108750	-0.306680	-1.123895
O316	O	1.608750	0.193320	-0.623895
C317	C	1.146381	-0.331803	-1.077395
C318	C	1.646381	0.168197	-0.577395
H319	H	1.115317	-0.331055	-1.023782
H320	H	1.615317	0.168945	-0.523782
H321	H	1.154749	-0.368012	-1.098934
H322	H	1.654749	0.131988	-0.598934
H323	H	1.199507	-0.316659	-1.071868
H324	H	1.699507	0.183341	-0.571868
O325	O	1.137301	-0.325688	-0.793741
O326	O	1.637301	0.174312	-0.293741
C327	C	1.184589	-0.302614	-0.838213
C328	C	1.684589	0.197386	-0.338213
H329	H	1.188033	-0.266730	-0.816271
H330	H	1.688033	0.233270	-0.316271
H331	H	1.238752	-0.320432	-0.841350
H332	H	1.738752	0.179568	-0.341350
H333	H	1.165221	-0.302021	-0.892976
H334	H	1.665221	0.197979	-0.392976
O335	O	0.925161	-0.184238	-0.971645
O336	O	1.425161	0.315762	-0.471645
C337	C	0.855791	-0.192554	-0.986614
C338	C	1.355791	0.307446	-0.486614
H339	H	0.853054	-0.228913	-1.006640
H340	H	1.353054	0.271087	-0.506640
H341	H	0.818964	-0.186320	-0.936808
H342	H	1.318964	0.313680	-0.436808
H343	H	0.839259	-0.169153	-1.028499
H344	H	1.339259	0.330847	-0.528499
H345	H	0.909897	-0.782650	-0.503461
H346	H	1.409897	-0.282650	-0.003461
H347	H	1.124210	-0.317092	-0.654320
H348	H	1.624210	0.182908	-0.154320
H349	H	0.909865	-0.727001	-0.503463
H350	H	1.409865	-0.227001	-0.003463
O351	O	1.159308	-0.638237	-0.254408
O352	O	1.659308	-0.138237	0.245592
C353	C	1.197357	-0.669003	-0.216423
C354	C	1.697357	-0.169003	0.283577
H355	H	1.201006	-0.703323	-0.245357
H356	H	1.701006	-0.203323	0.254643
H357	H	1.252480	-0.656788	-0.211335
H358	H	1.752480	-0.156788	0.288665
H359	H	1.169353	-0.671776	-0.161863
H360	H	1.669353	-0.171776	0.338137
H361	H	0.436460	-0.321010	-0.480920
H362	H	0.936460	0.178990	0.019080
H363	H	0.953097	-0.998473	-0.460459
H364	H	1.453097	-0.498473	0.039541
O365	O	0.953853	-0.203256	-0.641301
O366	O	1.453853	0.296744	-0.141301
C367	C	0.992123	-0.174186	-0.600507
C368	C	1.492123	0.325814	-0.100507
H369	H	1.048493	-0.173619	-0.625018
H370	H	1.548493	0.326381	-0.125018
H371	H	0.966681	-0.138865	-0.598608
H372	H	1.466681	0.361135	-0.098608
H373	H	0.992143	-0.186567	-0.544911
H374	H	1.492143	0.313433	-0.044911
O375	O	0.902997	-0.638271	-0.510236
O376	O	1.402997	-0.138271	-0.010236
C377	C	0.864983	-0.669049	-0.548243
C378	C	1.364983	-0.169049	-0.048243
H379	H	0.861350	-0.701617	-0.519320
H380	H	1.361350	-0.201617	-0.019320
H381	H	0.809852	-0.654161	-0.553342
H382	H	1.309852	-0.154161	-0.053342
H383	H	0.893004	-0.676257	-0.602798
H384	H	1.393004	-0.176257	-0.102798
O385	O	1.159379	-0.778986	-0.254434
O386	O	1.659379	-0.278986	0.245566
C387	C	1.197426	-0.809752	-0.216447
C388	C	1.697426	-0.309752	0.283553
H389	H	1.201081	-0.844071	-0.245383
H390	H	1.701081	-0.344071	0.254617
H391	H	1.252546	-0.797535	-0.211351
H392	H	1.752546	-0.297535	0.288649
H393	H	1.169416	-0.812527	-0.161890
H394	H	1.669416	-0.312527	0.338110
H395	H	1.152512	-0.726962	-0.261204
H396	H	1.652512	-0.226962	0.238796
O397	O	1.116363	-0.994822	-0.297497
O398	O	1.616363	-0.494822	0.202503
C399	C	1.154407	-1.025586	-0.259503
C400	C	1.654407	-0.525586	0.240497
H401	H	1.158064	-1.059906	-0.288436
H402	H	1.658064	-0.559906	0.211564
H403	H	1.209527	-1.013369	-0.254405
H404	H	1.709527	-0.513369	0.245595
H405	H	1.126395	-1.028359	-0.204946
H406	H	1.626395	-0.528359	0.295054
H407	H	1.109565	-1.083565	-0.304300
H408	H	1.609565	-0.583565	0.195700
O409	O	0.959931	-0.207359	-0.786080
O410	O	1.459931	0.292641	-0.286080
C411	C	0.918176	-0.179508	-0.736209
C412	C	1.418176	0.320492	-0.236209
H413	H	0.944757	-0.177294	-0.685060
H414	H	1.444757	0.322706	-0.185060
H415	H	0.911629	-0.144501	-0.757140
H416	H	1.411629	0.355499	-0.257140
H417	H	0.864380	-0.194209	-0.726101
H418	H	1.364380	0.305791	-0.226101
