data_functionalizedCrystal
_audit_creation_method	'MofGen! by Chris Wilmer'
_symmetry_space_group_name_H-M	'P1'
_symmetry_Int_Tables_number	1
_symmetry_cell_setting	triclinic
loop_
_symmetry_equiv_pos_as_xyz
  x,y,z
_cell_length_a	6.817900
_cell_length_b	14.858565
_cell_length_c	16.305550
_cell_angle_alpha	95.065908
_cell_angle_beta	103.455250
_cell_angle_gamma	104.523916
loop_
_atom_site_label
_atom_site_type_symbol
_atom_site_fract_x
_atom_site_fract_y
_atom_site_fract_z
V1	V	-4.031556	-0.129456	-0.263268
O2	O	-4.013619	0.005413	-0.258014
O3	O	-3.988195	-0.255912	-0.261700
O4	O	-3.982895	-0.127819	-0.377982
O5	O	-4.018955	-0.123567	-0.140928
V6	V	-4.514565	-0.113282	-0.248607
O7	O	-4.293942	-0.164934	-0.295429
O8	O	-4.702376	-0.077803	-0.216446
O9	O	-4.334720	0.013174	-0.250175
O10	O	-4.649899	-0.248151	-0.253860
O11	O	-4.644563	-0.119171	-0.370947
O12	O	-4.340020	-0.114919	-0.133893
C13	C	-3.834429	-0.286728	-0.257607
C14	C	-3.880261	-0.390110	-0.257090
C15	C	-4.048011	-0.768675	-0.255208
C16	C	-4.001329	-0.663347	-0.255731
C17	C	-3.964137	-0.579396	-0.256148
C18	C	-3.917454	-0.474061	-0.256673
C19	C	-3.827668	-0.123331	-0.405935
C20	C	-3.869199	-0.122830	-0.499716
C21	C	-4.020207	-0.120886	-0.840458
C22	C	-3.783922	-0.115115	-0.799519
C23	C	-3.740766	-0.116022	-0.702026
C24	C	-3.945289	-0.121850	-0.671412
C25	C	-4.116090	-0.213696	-0.722206
C26	C	-4.157932	-0.213177	-0.819755
C27	C	-4.071461	-0.035544	-0.794459
C28	C	-4.023502	-0.034817	-0.696615
C29	C	-3.902961	-0.122398	-0.575875
C30	C	-4.062543	-0.120344	-0.935996
C31	C	-4.151827	0.043986	-0.254265
C32	C	-4.085234	0.147367	-0.254788
C33	C	-4.158588	-0.119409	-0.105935
C34	C	-4.096296	-0.119906	-0.012154
H35	H	-3.611559	-0.049985	-0.666881
O36	O	-3.875594	0.046143	-0.655366
C37	C	-3.702058	0.024240	-0.603969
H38	H	-3.754197	-0.050015	-0.588635
H39	H	-3.575452	0.028458	-0.639618
C40	C	-3.549052	0.186126	-0.539219
C41	C	-3.613094	0.094927	-0.520379
H42	H	-3.494166	0.229730	-0.487658
H43	H	-3.665961	0.200883	-0.573848
H44	H	-3.443556	0.189627	-0.568928
H45	H	-3.718605	0.091424	-0.490680
H46	H	-3.496199	0.080171	-0.485743
H47	H	-3.675062	-0.048766	-0.811761
O48	O	-3.959248	0.047563	-0.810195
C49	C	-4.008775	0.122522	-0.768064
H50	H	-4.169856	0.095904	-0.755880
H51	H	-3.885449	0.152032	-0.704616
C52	C	-3.814030	0.233188	-0.839171
C53	C	-4.011882	0.200497	-0.824214
H54	H	-3.815938	0.281290	-0.873805
H55	H	-3.780656	0.182688	-0.867554
H56	H	-3.711280	0.257773	-0.786293
H57	H	-4.114624	0.175902	-0.877090
H58	H	-4.045274	0.250995	-0.795842
O59	O	-4.276917	-0.039721	-0.826578
C60	C	-4.374024	-0.119379	-0.890279
H61	H	-4.249673	-0.141133	-0.917100
H62	H	-4.458688	-0.179777	-0.861486
C63	C	-4.686438	-0.068699	-0.929583
C64	C	-4.533710	-0.095413	-0.962530
H65	H	-4.784947	-0.053918	-0.974149
H66	H	-4.621020	-0.015033	-0.886664
H67	H	-4.756968	-0.119036	-0.905589
H68	H	-4.463165	-0.045072	-0.986513
H69	H	-4.599120	-0.149069	-1.005455
O70	O	-3.733491	-0.188342	-0.837302
C71	C	-3.910802	-0.244747	-0.900620
H72	H	-4.059532	-0.233838	-0.885994
H73	H	-3.901977	-0.224082	-0.965637
C74	C	-3.732826	-0.362410	-0.919681
C75	C	-3.915500	-0.349018	-0.901712
H76	H	-3.735721	-0.426729	-0.920358
H77	H	-3.613365	-0.324408	-0.877025
H78	H	-3.725492	-0.345183	-0.973860
H79	H	-3.922818	-0.366233	-0.847529
H80	H	-4.034963	-0.387025	-0.944360
H81	H	-3.676884	-0.178044	-0.685845
O82	O	-4.118340	-0.290317	-0.856206
C83	C	-4.302298	-0.346315	-0.916389
H84	H	-4.445531	-0.330713	-0.900214
H85	H	-4.297641	-0.329657	-0.982950
C86	C	-4.140127	-0.470223	-0.933934
C87	C	-4.316050	-0.451067	-0.914063
H88	H	-4.148608	-0.534839	-0.932503
H89	H	-4.016188	-0.432496	-0.893390
H90	H	-4.136266	-0.456334	-0.989400
H91	H	-4.319894	-0.464944	-0.858594
H92	H	-4.439991	-0.488799	-0.954598
O93	O	-4.299017	-0.222799	-0.699523
C94	C	-4.263338	-0.227287	-0.611461
H95	H	-4.117505	-0.252135	-0.588639
H96	H	-4.238698	-0.154518	-0.574997
C97	C	-4.633762	-0.266406	-0.623381
C98	C	-4.454656	-0.296932	-0.595352
H99	H	-4.751778	-0.309362	-0.613442
H100	H	-4.657801	-0.263379	-0.682709
H101	H	-4.613199	-0.205765	-0.592991
H102	H	-4.475211	-0.357567	-0.625749
H103	H	-4.430626	-0.299970	-0.536028
H104	H	-4.332098	-0.221232	-0.847761
O105	O	-4.053389	-0.290830	-0.702210
C106	C	-4.200517	-0.348157	-0.666974
H107	H	-4.291194	-0.303709	-0.639553
H108	H	-4.314643	-0.406560	-0.718865
C109	C	-3.973202	-0.446516	-0.629107
C110	C	-4.084561	-0.391923	-0.595422
H111	H	-3.901679	-0.473517	-0.584973
H112	H	-3.874082	-0.407897	-0.652849
H113	H	-4.068326	-0.495178	-0.672350
H114	H	-3.989434	-0.343255	-0.552188
H115	H	-4.183663	-0.430535	-0.571671
H116	H	-4.170743	-0.033674	-0.675265
