data_functionalizedCrystal
_audit_creation_method	'MofGen! by Chris Wilmer'
_symmetry_space_group_name_H-M	'P1'
_symmetry_Int_Tables_number	1
_symmetry_cell_setting	triclinic
loop_
_symmetry_equiv_pos_as_xyz
  x,y,z
_cell_length_a	12.759401
_cell_length_b	12.759400
_cell_length_c	12.759393
_cell_angle_alpha	89.969070
_cell_angle_beta	89.980163
_cell_angle_gamma	90.016169
loop_
_atom_site_label
_atom_site_type_symbol
_atom_site_fract_x
_atom_site_fract_y
_atom_site_fract_z
Zn1	Zn	1.606255	-0.418161	-0.594025
Zn2	Zn	1.606150	-0.593880	-0.418347
Zn3	Zn	1.430557	-0.418220	-0.418360
Zn4	Zn	1.430546	-0.593803	-0.593985
O5	O	1.518377	-0.506016	-0.506179
O6	O	1.753262	-0.441478	-0.570733
O7	O	1.582818	-0.570635	-0.271328
O8	O	1.453913	-0.271191	-0.441685
O9	O	1.753185	-0.570578	-0.441663
O10	O	1.582997	-0.271148	-0.570745
O11	O	1.453811	-0.441579	-0.271337
O12	O	1.283535	-0.441505	-0.441646
O13	O	1.453894	-0.570447	-0.741011
O14	O	1.283527	-0.570504	-0.570676
O15	O	1.582987	-0.441403	-0.741041
O16	O	1.582807	-0.740891	-0.441624
O17	O	1.453792	-0.740834	-0.570664
C18	C	1.245410	-0.506003	-0.506159
C19	C	1.128633	-0.506023	-0.506175
C20	C	1.518315	-0.778984	-0.506161
C21	C	1.518385	-0.895760	-0.506188
C22	C	1.073794	-0.573296	-0.573255
C23	C	0.964070	-0.573300	-0.573276
C24	C	0.964034	-0.438756	-0.439127
C25	C	1.073756	-0.438747	-0.439112
C26	C	1.585570	-0.950510	-0.573447
C27	C	1.585629	-1.060234	-0.573475
C28	C	1.451315	-1.060449	-0.438977
C29	C	1.451251	-0.950727	-0.438955
C30	C	1.623188	-1.210059	-0.697444
C31	C	1.690389	-1.264812	-0.764694
C32	C	1.792874	-1.229101	-0.780907
C33	C	1.828179	-1.138639	-0.729855
C34	C	1.760983	-1.083891	-0.662597
C35	C	1.658483	-1.119601	-0.646404
C36	C	1.413703	-0.800900	-0.314984
C37	C	1.346511	-0.746150	-0.247721
C38	C	1.244025	-0.781859	-0.231497
C39	C	1.208724	-0.872325	-0.282531
C40	C	1.275915	-0.927074	-0.349794
C41	C	1.378401	-0.891358	-0.366019
C42	C	1.792410	-0.506030	-0.506201
C43	C	1.909187	-0.506036	-0.506210
C44	C	1.518451	-0.505910	-0.780213
C45	C	1.518482	-0.505865	-0.896990
C46	C	1.518468	-0.231983	-0.506221
C47	C	1.518507	-0.115206	-0.506239
C48	C	1.451332	-0.438653	-0.951856
C49	C	1.451356	-0.438620	-1.061580
C50	C	1.585690	-0.573015	-1.061562
C51	C	1.585659	-0.573052	-0.951840
C52	C	1.518365	-0.506046	-0.233212
C53	C	1.518537	-0.505796	-0.116436
H54	H	1.118473	-0.628073	-0.627864
H55	H	1.640343	-0.627788	-0.907166
H56	H	1.539733	-1.239137	-0.684260
C57	C	0.904721	-0.646457	-0.646144
C58	C	0.976269	-0.705386	-0.704849
C59	C	0.921635	-0.772800	-0.771981
H60	H	0.861947	-0.606444	-0.692093
H61	H	0.861909	-0.692244	-0.605904
H62	H	1.019062	-0.659604	-0.745086
H63	H	1.019045	-0.745420	-0.658928
H64	H	0.878824	-0.818587	-0.731741
H65	H	0.878864	-0.732778	-0.817922
H66	H	0.970172	-0.812798	-0.811813
H67	H	0.919339	-0.383984	-0.384525
C68	C	1.378214	-0.365850	-0.892357
C69	C	1.274264	-0.388736	-0.919017
C70	C	1.206874	-0.321703	-0.864220
H71	H	1.393475	-0.295215	-0.910309
H72	H	1.387741	-0.375505	-0.819142
H73	H	1.264742	-0.379072	-0.992215
H74	H	1.258970	-0.459359	-0.901062
H75	H	1.216401	-0.331358	-0.791005
H76	H	1.222145	-0.251073	-0.882176
H77	H	1.136336	-0.337229	-0.882293
H78	H	1.396675	-0.383891	-1.106248
H79	H	1.640232	-0.905758	-0.628194
H80	H	1.118407	-0.383959	-0.384487
C81	C	1.799478	-0.985671	-0.607311
C82	C	1.903611	-0.966100	-0.635916
C83	C	1.939103	-0.875615	-0.585024
H84	H	1.795374	-0.995433	-0.533615
H85	H	1.757024	-0.927795	-0.627099
H86	H	1.946053	-1.023962	-0.616121
H87	H	1.907743	-0.956318	-0.709603
H88	H	1.896650	-0.817739	-0.604812
H89	H	1.934993	-0.885386	-0.511330
H90	H	2.009757	-0.862319	-0.604432
H91	H	1.396659	-1.105217	-0.384236
C92	C	1.939478	-1.100011	-0.747627
C93	C	1.990760	-1.167303	-0.817474
C94	C	2.093286	-1.131741	-0.833883
H95	H	1.976054	-1.098982	-0.682806
H96	H	1.937659	-1.031270	-0.776219
H97	H	1.992584	-1.236026	-0.788879
H98	H	1.954216	-1.168340	-0.882307
H99	H	2.091467	-1.063000	-0.862476
H100	H	2.129852	-1.130713	-0.769058
H101	H	2.128091	-1.177387	-0.881283
H102	H	1.847590	-1.273689	-0.835664
C103	C	1.097528	-0.911271	-0.264797
C104	C	1.100571	-1.012587	-0.222709
C105	C	0.998158	-1.048491	-0.206340
H106	H	1.060978	-0.912412	-0.329630
H107	H	1.062546	-0.865763	-0.217390
H108	H	1.135538	-1.058084	-0.270114
H109	H	1.137101	-1.011474	-0.157869
H110	H	0.963177	-1.002983	-0.158933
H111	H	0.961616	-1.049625	-0.271177
H112	H	1.000209	-1.117233	-0.177773
H113	H	1.661634	-1.338467	-0.806261
C114	C	1.237465	-1.025166	-0.405350
C115	C	1.151310	-0.999957	-0.468436
C116	C	1.115874	-1.090287	-0.519639
H117	H	1.217219	-1.076041	-0.354870
H118	H	1.292117	-1.052658	-0.447789
H119	H	1.096669	-0.972480	-0.426000
H120	H	1.171530	-0.949097	-0.518934
H121	H	1.170526	-1.117779	-0.562078
H122	H	1.095634	-1.141155	-0.469152
H123	H	1.057421	-1.073193	-0.562456
H124	H	1.189319	-0.737273	-0.176722
H125	H	1.375265	-0.672491	-0.206161
C126	C	1.525040	-0.762204	-0.332394
C127	C	1.578532	-0.760811	-0.236611
C128	C	1.681102	-0.725188	-0.252605
H129	H	1.523328	-0.693431	-0.360881
H130	H	1.560051	-0.807774	-0.379719
H131	H	1.543530	-0.715242	-0.189303
H132	H	1.580273	-0.829573	-0.208108
H133	H	1.716113	-0.770758	-0.299930
H134	H	1.679379	-0.656416	-0.281094
H135	H	1.717412	-0.724247	-0.187622
C136	C	1.658758	-0.645775	-1.121173
C137	C	1.726155	-0.586269	-1.184159
C138	C	1.793492	-0.653258	-1.239074
H139	H	1.618687	-0.691554	-1.164051
H140	H	1.698807	-0.685794	-1.072813
H141	H	1.686110	-0.546268	-1.232513
H142	H	1.766249	-0.540493	-1.141307
H143	H	1.833540	-0.693277	-1.190714
H144	H	1.753412	-0.699034	-1.281946
H145	H	1.839235	-0.612893	-1.281809
