data_functionalizedCrystal
_audit_creation_method	'MofGen! by Chris Wilmer'
_symmetry_space_group_name_H-M	'P1'
_symmetry_Int_Tables_number	1
_symmetry_cell_setting	triclinic
loop_
_symmetry_equiv_pos_as_xyz
  x,y,z
_cell_length_a	29.019771
_cell_length_b	29.019011
_cell_length_c	29.015668
_cell_angle_alpha	60.004890
_cell_angle_beta	60.009825
_cell_angle_gamma	59.993818
loop_
_atom_site_label
_atom_site_type_symbol
_atom_site_fract_x
_atom_site_fract_y
_atom_site_fract_z
O1	O	0.063866	-0.673289	0.563007
O2	O	0.563866	-0.173289	1.063007
O3	O	0.024059	-0.524205	0.453633
O4	O	0.524059	-0.024205	0.953633
O5	O	0.118464	-0.618532	0.453552
O6	O	0.618464	-0.118532	0.953552
O7	O	-0.030540	-0.578962	0.563088
O8	O	0.469460	-0.078962	1.063088
O9	O	0.149785	-0.587215	0.484789
O10	O	0.649785	-0.087215	0.984789
O11	O	0.055379	-0.492888	0.484869
O12	O	0.555379	0.007112	0.984869
O13	O	0.095186	-0.641972	0.594244
O14	O	0.595186	-0.141972	1.094244
Cu15	Cu	0.078143	-0.564571	0.542409
Cu16	Cu	0.578143	-0.064571	1.042409
Cu17	Cu	0.041102	-0.601606	0.505468
Cu18	Cu	0.541102	-0.101606	1.005468
O19	O	0.000781	-0.547645	0.594325
O20	O	0.500781	-0.047645	1.094325
N21	N	0.104196	-0.538525	0.568394
N22	N	0.604196	-0.038525	1.068394
N23	N	0.015054	-0.627656	0.479483
N24	N	0.515054	-0.127656	0.979483
C25	C	0.143783	-0.499167	0.850823
C26	C	0.643783	0.000833	1.350823
C27	C	0.386758	-0.499111	0.607645
C28	C	0.886758	0.000889	1.107645
C29	C	0.143618	-0.499136	0.607763
C30	C	0.643618	0.000864	1.107763
C31	C	0.143598	-0.256029	0.607770
C32	C	0.643598	0.243971	1.107770
C33	C	0.182748	-0.373362	0.646852
C34	C	0.682748	0.126638	1.146852
C35	C	0.182758	-0.460025	0.646847
C36	C	0.682758	0.039975	1.146847
C37	C	0.204440	-0.438361	0.668500
C38	C	0.704440	0.061639	1.168500
C39	C	0.298958	-0.422064	0.618723
C40	C	0.798958	0.077936	1.118723
C41	C	0.358043	-0.441753	0.599006
C42	C	0.858043	0.058247	1.099006
C43	C	0.358069	-0.537354	0.635461
C44	C	0.858069	-0.037354	1.135461
C45	C	0.298985	-0.517664	0.655180
C46	C	0.798985	-0.017664	1.155180
C47	C	0.196983	-0.343808	0.588767
C48	C	0.696983	0.156192	1.088767
C49	C	0.177262	-0.284720	0.569090
C50	C	0.677262	0.215280	1.069090
C51	C	0.129075	-0.284743	0.665586
C52	C	0.629075	0.215257	1.165586
C53	C	0.148797	-0.343831	0.685263
C54	C	0.648797	0.156169	1.185263
C55	C	0.124666	-0.445760	0.661149
C56	C	0.624666	0.054240	1.161149
C57	C	0.104961	-0.465454	0.641458
C58	C	0.604961	0.034546	1.141458
C59	C	0.201435	-0.513678	0.593176
C60	C	0.701435	-0.013678	1.093176
C61	C	0.221143	-0.493984	0.612860
C62	C	0.721143	0.006016	1.112860
C63	C	0.124738	-0.445777	0.763064
C64	C	0.624738	0.054223	1.263064
C65	C	0.105085	-0.465488	0.822151
C66	C	0.605085	0.034512	1.322151
C67	C	0.201594	-0.513722	0.822097
C68	C	0.701594	-0.013722	1.322097
C69	C	0.221247	-0.494012	0.763009
C70	C	0.721247	0.005988	1.263009
C71	C	0.182817	-0.460038	0.733494
C72	C	0.682817	0.039962	1.233494
C73	C	0.269432	-0.460018	0.646809
C74	C	0.769432	0.039982	1.146809
C75	C	0.121399	-0.520450	0.915812
C76	C	0.621399	-0.020450	1.415812
C77	C	0.451745	-0.520012	0.585655
C78	C	0.951745	-0.020012	1.085655
C79	C	0.121177	-0.520429	0.586502
C80	C	0.621177	-0.020429	1.086502
C81	C	0.121544	-0.191035	0.586883
C82	C	0.621544	0.308965	1.086883
C83	C	-0.110592	-0.666601	0.440035
C84	C	0.389408	-0.166601	0.940035
C85	C	-0.023978	-0.666709	0.440231
C86	C	0.476022	-0.166709	0.940231
C87	C	-0.045598	-0.688342	0.418486
C88	C	0.454402	-0.188342	0.918486
C89	C	-0.061967	-0.782825	0.468184
C90	C	0.438033	-0.282825	0.968184
C91	C	-0.042323	-0.841914	0.487907
C92	C	0.457677	-0.341914	0.987907
C93	C	0.053280	-0.842025	0.451623
C94	C	0.553280	-0.342025	0.951623
C95	C	0.033634	-0.782937	0.431899
C96	C	0.533634	-0.282937	0.931899
C97	C	-0.140218	-0.680832	0.498102
C98	C	0.359782	-0.180832	0.998102
C99	C	-0.199302	-0.661065	0.517690
C100	C	0.300698	-0.161065	1.017690
C101	C	-0.199129	-0.612843	0.421140
C102	C	0.300871	-0.112843	0.921140
C103	C	-0.140045	-0.632610	0.401552
C104	C	0.359955	-0.132610	0.901552
C105	C	-0.038209	-0.608622	0.425941
C106	C	0.461791	-0.108622	0.925941
C107	C	-0.018555	-0.588961	0.445716
C108	C	0.481445	-0.088961	0.945716
C109	C	0.029562	-0.685470	0.494059
C110	C	0.529562	-0.185470	0.994059
C111	C	0.009908	-0.705133	0.474291
C112	C	0.509908	-0.205133	0.974291
C113	C	-0.038037	-0.608631	0.323917
C114	C	0.461963	-0.108631	0.823917
C115	C	-0.018247	-0.588973	0.264830
C116	C	0.481753	-0.088973	0.764830
C117	C	0.029955	-0.685489	0.264893
C118	C	0.529955	-0.185489	0.764893
C119	C	0.010165	-0.705145	0.323981
C120	C	0.510165	-0.205145	0.823981
C121	C	-0.023833	-0.666715	0.353492
C122	C	0.476167	-0.166715	0.853492
C123	C	-0.023990	-0.753339	0.440182
C124	C	0.476010	-0.253339	0.940182
N125	N	0.504925	-0.538487	0.568205
N126	N	1.004925	-0.038487	1.068205
O127	O	0.685342	-0.543679	0.433426
O128	O	1.185342	-0.043679	0.933426
O129	O	0.685533	-0.653395	0.582361
O130	O	1.185533	-0.153395	1.082361
O131	O	0.685457	-0.653145	0.487904
O132	O	1.185457	-0.153145	0.987904
O133	O	0.685418	-0.543929	0.527882
O134	O	1.185418	-0.043929	1.027882
O135	O	0.591592	-0.621921	0.519268
O136	O	1.091592	-0.121921	1.019268
O137	O	0.591667	-0.622171	0.613725
O138	O	1.091667	-0.122171	1.113725
O139	O	0.591477	-0.512455	0.464790
O140	O	1.091477	-0.012455	0.964790
Cu141	Cu	0.583001	-0.564462	0.542121
Cu142	Cu	1.083001	-0.064462	1.042121
Cu143	Cu	0.694008	-0.601388	0.505029
Cu144	Cu	1.194008	-0.101388	1.005029
O145	O	0.591553	-0.512705	0.559246
O146	O	1.091553	-0.012705	1.059246
N147	N	0.772084	-0.627363	0.478939
N148	N	1.272084	-0.127363	0.978939
N149	N	0.104168	-0.137853	0.568408
N150	N	0.604168	0.362147	1.068408
O151	O	-0.030538	0.042663	0.563097
O152	O	0.469462	0.542663	1.063097
O153	O	0.118403	0.042683	0.453379
O154	O	0.618403	0.542683	0.953379
O155	O	0.023918	0.042657	0.453664
O156	O	0.523918	0.542657	0.953664
O157	O	0.063947	0.042689	0.562813
O158	O	0.563947	0.542689	1.062813
O159	O	0.055242	-0.051215	0.484950
O160	O	0.555242	0.448785	0.984950
O161	O	0.149727	-0.051189	0.484666
O162	O	0.649727	0.448811	0.984666
O163	O	0.000787	-0.051210	0.594384
O164	O	0.500787	0.448790	1.094384
Cu165	Cu	0.078117	-0.059771	0.542381
Cu166	Cu	0.578117	0.440229	1.042381
Cu167	Cu	0.041072	0.051244	0.505382
Cu168	Cu	0.541072	0.551244	1.005382
O169	O	0.095272	-0.051184	0.594099
O170	O	0.595272	0.448816	1.094099
N171	N	0.015015	0.129326	0.479356
N172	N	0.515015	0.629326	0.979356
N173	N	0.104469	-0.538576	0.968995
N174	N	0.604469	-0.038576	1.468995
O175	O	0.099171	-0.673268	1.149499
O176	O	0.599171	-0.173268	1.649499
O177	O	-0.010519	-0.524279	1.149527
O178	O	0.489481	-0.024279	1.649527
O179	O	-0.010265	-0.618748	1.149494
O180	O	0.489735	-0.118748	1.649494
O181	O	0.098916	-0.578799	1.149533
O182	O	0.598916	-0.078799	1.649533
O183	O	0.021008	-0.587443	1.055625
O184	O	0.521008	-0.087443	1.555625
O185	O	0.020753	-0.492974	1.055659
O186	O	0.520753	0.007026	1.555659
O187	O	0.130444	-0.641963	1.055630
O188	O	0.630444	-0.141963	1.555630
Cu189	Cu	0.078454	-0.564610	1.047074
Cu190	Cu	0.578454	-0.064610	1.547074
Cu191	Cu	0.041470	-0.601632	1.158084
Cu192	Cu	0.541470	-0.101632	1.658084
O193	O	0.130189	-0.547494	1.055664
O194	O	0.630189	-0.047494	1.555664
N195	N	0.015455	-0.627672	1.236163
N196	N	0.515455	-0.127672	1.736163
C197	C	0.035988	-0.489761	0.454182
C198	C	0.535988	0.010239	0.954182
C199	C	0.152897	-0.606574	0.454082
C200	C	0.652897	-0.106574	0.954082
C201	C	0.083257	-0.676417	0.593694
C202	C	0.583257	-0.176417	1.093694
C203	C	-0.033653	-0.559604	0.593794
C204	C	0.466347	-0.059604	1.093794
C205	C	0.638623	-0.652892	0.616806
C206	C	1.138623	-0.152892	1.116806
C207	C	0.638531	-0.652583	0.499833
C208	C	1.138531	-0.152583	0.999833
C209	C	0.638384	-0.512957	0.430345
C210	C	1.138384	-0.012957	0.930345
C211	C	0.638480	-0.513267	0.547317
C212	C	1.138480	-0.013267	1.047317
C213	C	0.152789	-0.004135	0.453875
C214	C	0.652789	0.495865	0.953875
C215	C	0.035820	-0.004282	0.454266
C216	C	0.535820	0.495718	0.954266
C217	C	-0.033639	-0.004275	0.593849
C218	C	0.466361	0.495725	1.093849
C219	C	0.083370	-0.004245	0.593498
C220	C	0.583370	0.495755	1.093498
C221	C	-0.009989	-0.489856	1.102597
C222	C	0.490011	0.010144	1.602597
C223	C	-0.009667	-0.606839	1.102536
C224	C	0.490333	-0.106839	1.602536
C225	C	0.129914	-0.676386	1.102561
C226	C	0.629914	-0.176386	1.602561
C227	C	0.129599	-0.559396	1.102601
C228	C	0.629599	-0.059396	1.602601
H229	H	0.057789	-0.453866	0.846219
H230	H	0.557789	0.046134	1.346219
C231	C	0.390521	-0.400000	0.568108
C232	C	0.890521	0.100000	1.068108
N233	N	0.414985	-0.368549	0.544833
N234	N	0.914985	0.131451	1.044833
C235	C	-0.056513	-0.432049	1.102606
C236	C	0.443487	0.067951	1.602606
N237	N	-0.091555	-0.388508	1.102613
N238	N	0.408445	0.111492	1.602613
C239	C	0.175939	-0.547850	1.102607
C240	C	0.675939	-0.047850	1.602607
N241	N	0.210843	-0.539152	1.102611
N242	N	0.710843	-0.039152	1.602611
C243	C	-0.091469	-0.548212	0.640264
C244	C	0.408531	-0.048212	1.140264
N245	N	-0.135017	-0.539631	0.675265
N246	N	0.364983	-0.039631	1.175265
C247	C	0.094948	-0.004236	0.639824
C248	C	0.594948	0.495764	1.139824
N249	N	0.103670	-0.004231	0.674718
N250	N	0.603670	0.495769	1.174718
C251	C	0.638694	-0.699426	0.674593
C252	C	1.138694	-0.199426	1.174593
N253	N	0.638748	-0.734475	0.718118
N254	N	1.138748	-0.234475	1.218118
H255	H	0.638547	-0.686893	0.491276
H256	H	1.138547	-0.186893	0.991276
H257	H	-0.043953	-0.615372	1.102487
H258	H	0.456047	-0.115372	1.602487
H259	H	0.093440	-0.418108	0.739036
H260	H	0.593440	0.081892	1.239036
C261	C	0.176405	-0.734226	1.102651
C262	C	0.676405	-0.234226	1.602651
N263	N	0.211409	-0.777804	1.102757
N264	N	0.711409	-0.277804	1.602757
C265	C	0.638222	-0.466393	0.372589
C266	C	1.138222	0.033607	0.872589
N267	N	0.638071	-0.431311	0.329096
N268	N	1.138071	0.068689	0.829096
H269	H	0.638471	-0.478960	0.555871
H270	H	1.138471	0.021040	1.055871
H271	H	0.057658	-0.453826	0.653091
H272	H	0.557658	0.046174	1.153091
H273	H	0.027247	-0.004286	0.419974
H274	H	0.527247	0.495714	0.919974
C275	C	0.243872	-0.551082	0.854557
C276	C	0.743872	-0.051082	1.354557
N277	N	0.275718	-0.579223	0.879005
N278	N	0.775718	-0.079223	1.379005
H279	H	0.021495	-0.752433	0.485928
H280	H	0.521495	-0.252433	0.985928
C281	C	0.210455	-0.003771	0.407222
C282	C	0.710455	0.496229	0.907222
N283	N	0.253889	-0.003495	0.372083
N284	N	0.753889	0.496505	0.872083
H285	H	0.268542	-0.505632	0.738936
H286	H	0.768542	-0.005632	1.238936
H287	H	-0.073247	-0.865920	0.510699
H288	H	0.426753	-0.365920	1.010699
H289	H	0.027485	-0.446933	0.419832
H290	H	0.527485	0.053067	0.919832
H291	H	-0.076413	-0.004282	0.628294
H292	H	0.423587	0.495718	1.128294
H293	H	0.091761	-0.719242	0.628046
H294	H	0.591761	-0.219242	1.128046
C295	C	0.082439	-0.408399	0.698527
C296	C	0.582439	0.091601	1.198527
N297	N	0.050633	-0.380256	0.726679
N298	N	0.550633	0.119744	1.226679
H299	H	0.268446	-0.505593	0.601208
H300	H	0.768446	-0.005593	1.101208
C301	C	0.243664	-0.551036	0.555795
C302	C	0.743664	-0.051036	1.055795
N303	N	0.275473	-0.579172	0.527637
N304	N	0.775473	-0.079172	1.027637
H305	H	0.274946	-0.548573	0.678050
H306	H	0.774946	-0.048573	1.178050
H307	H	0.382132	-0.584293	0.642268
H308	H	0.882132	-0.084293	1.142268
H309	H	0.224626	-0.367851	0.557490
H310	H	0.724626	0.132149	1.057490
C311	C	0.192920	-0.252209	0.505190
C312	C	0.692920	0.247791	1.005190
N313	N	0.204717	-0.227723	0.457061
N314	N	0.704717	0.272277	0.957061
C315	C	0.266455	-0.358651	0.609514
C316	C	0.766455	0.141349	1.109514
N317	N	0.241973	-0.310888	0.602578
N318	N	0.741973	0.189112	1.102578
H319	H	0.137197	-0.367895	0.732563
H320	H	0.637197	0.132105	1.232563
C321	C	0.091706	-0.252257	0.707839
C322	C	0.591706	0.247743	1.207839
N323	N	0.063548	-0.227790	0.739665
N324	N	0.563548	0.272210	1.239665
C325	C	-0.107454	-0.616957	0.337672
C326	C	0.392546	-0.116957	0.837672
N327	N	-0.082908	-0.605166	0.289557
N328	N	0.417092	-0.105166	0.789557
H329	H	-0.029822	-0.541673	0.240758
H330	H	0.470178	-0.041673	0.740758
H331	H	-0.065723	-0.577332	0.347941
H332	H	0.434277	-0.077332	0.847941
H333	H	0.021738	-0.752445	0.348058
H334	H	0.521738	-0.252445	0.848058
C335	C	-0.075485	-0.566351	0.388479
C336	C	0.424515	-0.066351	0.888479
N337	N	-0.103562	-0.534511	0.360261
N338	N	0.396438	-0.034511	0.860261
C339	C	-0.034206	-0.525062	0.429995
C340	C	0.465794	-0.025062	0.929995
N341	N	-0.045994	-0.476934	0.418153
N342	N	0.454006	0.023066	0.918153
C343	C	0.066859	-0.727743	0.531500
C344	C	0.566859	-0.227743	1.031500
N345	N	0.094956	-0.759585	0.559697
N346	N	0.594956	-0.259585	1.059697
C347	C	0.075415	-0.750504	0.401099
C348	C	0.575415	-0.250504	0.901099
N349	N	0.106885	-0.726076	0.377901
N350	N	0.606885	-0.226076	0.877901
C351	C	0.067345	-0.727767	0.232439
C352	C	0.567345	-0.227767	0.732439
N353	N	0.095510	-0.759613	0.207994
N354	N	0.595510	-0.259613	0.707994
H355	H	-0.108889	-0.758731	0.474933
H356	H	0.391111	-0.258731	0.974933
C357	C	0.116670	-0.874585	0.442514
C358	C	0.616670	-0.374585	0.942514
N359	N	0.164415	-0.899109	0.435651
N360	N	0.664415	-0.399109	0.935651
C361	C	-0.107820	-0.718221	0.540435
C362	C	0.392180	-0.218221	1.040435
N363	N	-0.083418	-0.746384	0.572322
N364	N	0.416582	-0.246384	1.072322
H365	H	-0.223425	-0.672650	0.564976
H366	H	0.276575	-0.172650	1.064976
H367	H	0.195693	-0.615009	0.419684
H368	H	0.695693	-0.115009	0.919684
C369	C	-0.231530	-0.575457	0.378807
C370	C	0.268470	-0.075457	0.878807
N371	N	-0.255933	-0.547296	0.346922
N372	N	0.244067	-0.047296	0.846922
