data_functionalizedCrystal
_audit_creation_method	'MofGen! by Chris Wilmer'
_symmetry_space_group_name_H-M	'P1'
_symmetry_Int_Tables_number	1
_symmetry_cell_setting	triclinic
loop_
_symmetry_equiv_pos_as_xyz
  x,y,z
_cell_length_a	14.044191
_cell_length_b	15.944493
_cell_length_c	13.101039
_cell_angle_alpha	93.367629
_cell_angle_beta	86.337551
_cell_angle_gamma	88.333410
loop_
_atom_site_label
_atom_site_type_symbol
_atom_site_fract_x
_atom_site_fract_y
_atom_site_fract_z
O1	O	1.262884	0.198294	-0.085140
O2	O	0.986917	0.190980	-0.085154
O3	O	1.132466	0.072925	-0.085155
O4	O	1.117335	0.316349	-0.085139
O5	O	1.122023	0.081411	0.085275
O6	O	0.976474	0.199466	0.085276
O7	O	1.252441	0.206780	0.085290
Zn8	Zn	1.112800	0.204470	0.112343
Zn9	Zn	1.126559	0.193290	-0.112206
O10	O	1.106892	0.324835	0.085291
C11	C	0.946382	0.192023	0.000059
C12	C	0.841158	0.182479	0.000053
C13	C	1.126626	0.045827	0.000056
C14	C	1.124773	-0.047561	0.000043
C15	C	0.590862	0.232718	0.000067
C16	C	0.648503	0.165045	0.000061
C17	C	0.755706	0.174748	0.000056
C18	C	0.483649	0.223017	0.000071
C19	C	1.210445	-0.276903	0.000066
C20	C	1.169394	-0.335115	-0.083966
C21	C	1.121337	-0.218539	0.000055
C22	C	1.159077	-0.326727	0.084064
C23	C	1.118025	-0.383696	0.000071
C24	C	1.080314	-0.275525	-0.084047
C25	C	1.070006	-0.267128	0.084059
C26	C	1.028890	-0.325314	0.000006
C27	C	1.123248	-0.123397	0.000045
C28	C	1.116107	-0.478836	0.000074
C29	C	1.292977	0.205737	0.000075
C30	C	1.398201	0.215280	0.000074
C31	C	1.112732	0.351933	0.000078
C32	C	1.114586	0.445321	0.000085
N33	N	1.103416	0.212100	0.265591
N34	N	1.135949	0.185654	-0.265455
C35	C	1.090650	0.222489	0.474634
C36	C	1.148713	0.175267	0.525509
C37	C	1.141609	0.181048	0.641828
C38	C	1.097752	0.216710	0.358305
H39	H	0.617343	0.099818	-0.000016
O40	O	0.937262	-0.350672	0.000132
C41	C	0.915423	-0.394256	0.088793
H42	H	0.965322	-0.374475	0.150508
H43	H	0.924928	-0.464784	0.069528
C44	C	0.750038	-0.397610	0.052502
C45	C	0.811319	-0.373310	0.128304
H46	H	0.685821	-0.384693	0.076872
H47	H	0.764751	-0.368249	-0.007233
H48	H	0.757970	-0.456382	0.036454
H49	H	0.803396	-0.314537	0.144341
H50	H	0.796603	-0.402660	0.188043
H51	H	1.028053	-0.237447	0.155102
O52	O	0.627872	0.310590	0.000105
C53	C	0.553172	0.371610	0.000078
H54	H	0.483979	0.344747	0.032354
H55	H	0.544223	0.389863	-0.081687
C56	C	0.662115	0.482889	0.027262
C57	C	0.577132	0.449897	0.066911
H58	H	0.676896	0.531182	0.068483
H59	H	0.712443	0.441779	0.027276
H60	H	0.654647	0.498093	-0.040875
H61	H	0.584606	0.434684	0.135042
H62	H	0.526806	0.491006	0.066910
O63	O	1.302031	-0.251416	-0.000228
C64	C	1.354113	-0.286270	-0.088992
H65	H	1.302839	-0.302799	-0.150591
H66	H	1.394947	-0.345536	-0.069822
C67	C	1.488081	-0.201651	-0.052981
C68	C	1.425106	-0.221946	-0.128641
H69	H	1.531877	-0.161976	-0.077436
H70	H	1.452995	-0.178172	0.006823
H71	H	1.522100	-0.251046	-0.037013
H72	H	1.391081	-0.172554	-0.144598
H73	H	1.460189	-0.245416	-0.188449
H74	H	1.211378	-0.364780	-0.155007
H75	H	1.047062	-0.253063	-0.155166
O76	O	1.024945	0.275787	0.526995
C77	C	0.962639	0.229516	0.589042
H78	H	0.999320	0.167356	0.604970
H79	H	0.895038	0.216620	0.547782
C80	C	0.891295	0.356705	0.671476
C81	C	0.936350	0.280362	0.691046
H82	H	0.875075	0.388070	0.734395
H83	H	0.933269	0.387880	0.629671
H84	H	0.834966	0.345948	0.637090
H85	H	0.992684	0.291120	0.725420
H86	H	0.894385	0.249190	0.732859
O87	O	1.198926	-0.353561	0.168788
C88	C	1.294597	-0.329060	0.168454
H89	H	1.304504	-0.272919	0.119261
H90	H	1.343733	-0.383574	0.135656
C91	C	1.307177	-0.373448	0.339265
C92	C	1.319342	-0.304490	0.278852
H93	H	1.322444	-0.358296	0.407363
H94	H	1.242723	-0.389958	0.339489
H95	H	1.348125	-0.418870	0.311921
H96	H	1.278386	-0.259073	0.306188
H97	H	1.383790	-0.287971	0.278635
O98	O	1.214168	0.121657	0.473255
C99	C	1.166877	0.063045	0.411360
H100	H	1.093801	0.090368	0.395318
H101	H	1.157637	0.002620	0.452809
C102	C	1.316169	0.010177	0.329129
C103	C	1.226418	0.043738	0.309419
H104	H	1.352897	-0.001736	0.266248
H105	H	1.348031	0.049662	0.370831
H106	H	1.308456	-0.040174	0.363673
H107	H	1.234131	0.094093	0.274887
H108	H	1.194559	0.004260	0.267708
