data_functionalizedCrystal
_audit_creation_method	'MofGen! by Chris Wilmer'
_symmetry_space_group_name_H-M	'P1'
_symmetry_Int_Tables_number	1
_symmetry_cell_setting	triclinic
loop_
_symmetry_equiv_pos_as_xyz
  x,y,z
_cell_length_a	14.853567
_cell_length_b	13.930277
_cell_length_c	14.853567
_cell_angle_alpha	89.999243
_cell_angle_beta	96.365070
_cell_angle_gamma	90.004245
loop_
_atom_site_label
_atom_site_type_symbol
_atom_site_fract_x
_atom_site_fract_y
_atom_site_fract_z
O1	O	1.196368	0.079756	-0.117704
O2	O	1.696368	0.579756	0.382296
O3	O	0.933909	0.079772	-0.131725
O4	O	1.433909	0.579772	0.368275
O5	O	1.072149	0.079767	0.006516
O6	O	1.572149	0.579767	0.506516
O7	O	1.058128	0.079762	-0.255944
O8	O	1.558128	0.579762	0.244056
O9	O	1.072130	-0.079895	0.006519
O10	O	1.572130	0.420105	0.506519
O11	O	0.933890	-0.079890	-0.131722
O12	O	1.433890	0.420110	0.368278
O13	O	1.196349	-0.079905	-0.117701
O14	O	1.696349	0.420095	0.382299
Zn15	Zn	1.065116	-0.105247	-0.124711
Zn16	Zn	1.565116	0.394753	0.375289
Zn17	Zn	1.065142	0.105114	-0.124715
Zn18	Zn	1.565142	0.605114	0.375285
O19	O	1.058109	-0.079900	-0.255941
O20	O	1.558109	0.420100	0.244059
C21	C	0.900311	-0.000057	-0.131088
C22	C	1.400311	0.499943	0.368912
C23	C	0.800227	-0.000051	-0.129184
C24	C	1.300227	0.499949	0.370816
N25	N	1.065106	-0.248814	-0.124708
N26	N	1.565106	0.251186	0.375292
C27	C	0.387693	-0.000070	-0.039019
C28	C	0.887693	0.499930	0.460981
C29	C	0.366412	-0.000073	-0.203251
C30	C	0.866412	0.499927	0.296749
C31	C	0.460446	-0.000070	-0.205042
C32	C	0.960446	0.499930	0.294958
C33	C	0.518108	-0.000066	-0.123819
C34	C	1.018108	0.499934	0.376181
C35	C	0.481736	-0.000065	-0.040806
C36	C	0.981736	0.499935	0.459194
C37	C	0.496825	-0.000061	-0.288053
C38	C	0.996825	0.499939	0.211947
C39	C	0.590864	-0.000057	-0.289846
C40	C	1.090864	0.499943	0.210154
C41	C	0.648528	-0.000060	-0.208623
C42	C	1.148528	0.499940	0.291377
C43	C	0.612150	-0.000060	-0.125607
C44	C	1.112150	0.499940	0.374393
C45	C	0.669812	-0.000056	-0.044384
C46	C	1.169812	0.499944	0.455616
C47	C	0.633437	-0.000063	0.038633
C48	C	1.133437	0.499937	0.538633
C49	C	0.539399	-0.000067	0.040417
C50	C	1.039399	0.499933	0.540417
C51	C	0.742565	-0.000055	-0.210407
C52	C	1.242565	0.499945	0.289593
C53	C	0.763855	-0.000050	-0.046172
C54	C	1.263855	0.499950	0.453828
C55	C	1.003926	-0.701081	-0.185904
C56	C	1.503926	-0.201081	0.314096
C57	C	1.126382	-0.701055	-0.063519
C58	C	1.626382	-0.201055	0.436481
C59	C	1.126371	-0.600559	-0.063516
C60	C	1.626371	-0.100559	0.436484
C61	C	1.065138	-0.550319	-0.124709
C62	C	1.565138	-0.050319	0.375291
C63	C	1.003916	-0.600576	-0.185904
C64	C	1.503916	-0.100576	0.314096
C65	C	1.187598	-0.550295	-0.002328
C66	C	1.687598	-0.050295	0.497672
C67	C	1.187591	-0.449793	-0.002323
C68	C	1.687591	0.050207	0.497677
C69	C	1.126353	-0.399552	-0.063512
C70	C	1.626353	0.100448	0.436488
C71	C	1.065127	-0.449814	-0.124710
C72	C	1.565127	0.050186	0.375290
C73	C	1.003894	-0.399575	-0.185902
C74	C	1.503894	0.100425	0.314098
C75	C	0.942664	-0.449835	-0.247096
C76	C	1.442664	0.050165	0.252904
C77	C	0.942677	-0.550334	-0.247094
C78	C	1.442677	-0.050334	0.252906
C79	C	1.126339	-0.299053	-0.063515
C80	C	1.626339	0.200947	0.436485
C81	C	1.003883	-0.299070	-0.185903
C82	C	1.503883	0.200930	0.314097
C83	C	1.229947	-0.000075	-0.118337
C84	C	1.729947	0.499925	0.381663
C85	C	1.330031	-0.000075	-0.120241
C86	C	1.830031	0.499925	0.379759
C87	C	1.071504	-0.000061	0.040106
C88	C	1.571504	0.499939	0.540106
C89	C	1.069601	-0.000053	0.140189
C90	C	1.569601	0.499947	0.640189
N91	N	1.065160	0.248680	-0.124711
N92	N	1.565160	0.748680	0.375289
C93	C	1.058754	-0.000070	-0.289531
C94	C	1.558754	0.499930	0.210469
C95	C	1.060657	-0.000072	-0.389615
C96	C	1.560657	0.499928	0.110385
C97	C	0.979435	-0.000066	0.552723
C98	C	1.479435	0.499934	1.052723
C99	C	1.143668	-0.000076	0.574004
C100	C	1.643668	0.499924	1.074004
C101	C	1.145458	-0.000070	0.479971
C102	C	1.645458	0.499930	0.979971
C103	C	1.064235	-0.000064	0.422309
C104	C	1.564235	0.499936	0.922309
C105	C	0.981223	-0.000063	0.458680
C106	C	1.481223	0.499937	0.958680
C107	C	1.228469	-0.000080	0.443591
C108	C	1.728469	0.499920	0.943591
C109	C	1.230262	-0.000076	0.349552
C110	C	1.730262	0.499924	0.849552
C111	C	1.149039	-0.000063	0.291889
C112	C	1.649039	0.499937	0.791889
C113	C	1.066023	-0.000061	0.328266
C114	C	1.566023	0.499939	0.828266
C115	C	0.984800	-0.000055	0.270604
C116	C	1.484800	0.499945	0.770604
C117	C	0.901783	-0.000047	0.306979
C118	C	1.401783	0.499953	0.806979
C119	C	0.899999	-0.000050	0.401017
C120	C	1.399999	0.499950	0.901017
C121	C	1.150823	-0.000059	0.197851
C122	C	1.650823	0.499941	0.697851
C123	C	0.986588	-0.000052	0.176561
C124	C	1.486588	0.499948	0.676561
H125	H	0.810798	-0.000050	0.019971
H126	H	1.310798	0.499950	0.519971
F127	F	1.239169	-0.000084	0.159141
F128	F	1.739169	0.499916	0.659141
H129	H	0.954016	-0.258171	-0.235731
H130	H	1.454016	0.241829	0.264269
F131	F	0.348980	-0.000082	0.049330
F132	F	0.848980	0.499918	0.549330
F133	F	1.230105	-0.000096	0.635374
F134	F	1.730105	0.499904	1.135374
F135	F	1.252754	-0.396309	0.062805
F136	F	1.752754	0.103691	0.562805
F137	F	0.781275	-0.000040	-0.298753
F138	F	1.281275	0.499960	0.201247
H139	H	0.319459	-0.000068	-0.269379
H140	H	0.819459	0.499932	0.230621
H141	H	0.620472	-0.000051	-0.357443
H142	H	1.120472	0.499949	0.142557
H143	H	0.449870	-0.000054	-0.354180
H144	H	0.949870	0.499946	0.145820
F145	F	0.500679	-0.000071	0.128762
F146	F	1.000679	0.499929	0.628762
H147	H	1.176196	-0.258136	-0.013696
H148	H	1.676196	0.241864	0.486304
F149	F	0.938760	-0.754569	-0.251025
F150	F	1.438760	-0.254569	0.248975
F151	F	0.900137	-0.000039	0.115200
F152	F	1.400137	0.499961	0.615200
H153	H	0.892827	-0.591263	-0.296916
H154	H	1.392827	-0.091263	0.203084
F155	F	0.694815	-0.000051	0.125073
F156	F	1.194815	0.499949	0.625073
H157	H	1.294596	-0.000094	0.490546
H158	H	1.794596	0.499906	0.990546
H159	H	1.297860	-0.000082	0.319944
H160	H	1.797860	0.499918	0.819944
F161	F	0.815343	-0.000048	0.245601
F162	F	1.315343	0.499952	0.745601
H163	H	0.892811	-0.408919	-0.296924
H164	H	1.392811	0.091081	0.203076
H165	H	1.176240	-0.741963	-0.013702
H166	H	1.676240	-0.241963	0.486298
H167	H	1.237457	-0.591203	0.047489
H168	H	1.737457	-0.091203	0.547489
H169	H	0.832411	-0.000044	0.430643
H170	H	1.332411	0.499956	0.930643
H171	H	0.911844	-0.000055	0.582344
H172	H	1.411844	0.499945	1.082344
