data_functionalizedCrystal
_audit_creation_method	'MofGen! by Chris Wilmer'
_symmetry_space_group_name_H-M	'P1'
_symmetry_Int_Tables_number	1
_symmetry_cell_setting	triclinic
loop_
_symmetry_equiv_pos_as_xyz
  x,y,z
_cell_length_a	6.394989
_cell_length_b	16.109317
_cell_length_c	14.586319
_cell_angle_alpha	90.004047
_cell_angle_beta	89.996926
_cell_angle_gamma	84.982963
loop_
_atom_site_label
_atom_site_type_symbol
_atom_site_fract_x
_atom_site_fract_y
_atom_site_fract_z
O1	O	-0.268652	-1.105962	0.076136
O2	O	0.231348	-0.605962	0.576136
O3	O	-0.302028	-0.864255	0.076159
O4	O	0.197972	-0.364255	0.576159
O5	O	0.018726	-0.988540	0.076148
O6	O	0.518726	-0.488540	0.576148
O7	O	-0.589406	-0.981678	0.076147
O8	O	-0.089406	-0.481678	0.576147
O9	O	0.018746	-0.988538	-0.076333
O10	O	0.518746	-0.488538	0.423667
O11	O	-0.302008	-0.864254	-0.076322
O12	O	0.197992	-0.364254	0.423678
O13	O	-0.268632	-1.105961	-0.076344
O14	O	0.231368	-0.605961	0.423656
Cu15	Cu	-0.285318	-0.985107	-0.090256
Cu16	Cu	0.214682	-0.485107	0.409744
Cu17	Cu	-0.285342	-0.985109	0.090070
Cu18	Cu	0.214658	-0.485109	0.590070
O19	O	-0.589386	-0.981677	-0.076333
O20	O	-0.089386	-0.481677	0.423667
C21	C	-0.300660	-0.833266	-0.000078
C22	C	0.199340	-0.333266	0.499922
C23	C	-0.296589	-0.740928	-0.000070
C24	C	0.203411	-0.240928	0.499930
N25	N	-0.285300	-0.985113	-0.217088
N26	N	0.214700	-0.485113	0.282912
C27	C	-0.283450	-0.441716	0.083037
C28	C	0.216550	0.058284	0.583037
C29	C	-0.287262	-0.528477	0.083041
C30	C	0.212738	-0.028477	0.583041
C31	C	-0.287211	-0.528495	-0.083202
C32	C	0.212789	-0.028495	0.416798
C33	C	-0.283385	-0.441735	-0.083205
C34	C	0.216615	0.058265	0.416795
C35	C	-0.281515	-0.398348	-0.000082
C36	C	0.218485	0.101652	0.499918
C37	C	-0.289153	-0.571869	-0.000076
C38	C	0.210847	-0.071869	0.499924
C39	C	-0.293286	-0.665939	-0.000072
C40	C	0.206714	-0.165939	0.499928
C41	C	-0.277378	-0.304271	-0.000086
C42	C	0.222622	0.195729	0.499914
C43	C	0.096557	-0.987182	-0.000089
C44	C	0.596557	-0.487182	0.499911
C45	C	0.332789	-0.983036	-0.000088
C46	C	0.832789	-0.483036	0.499912
C47	C	-0.270002	-0.136951	-0.000100
C48	C	0.229998	0.363049	0.499900
C49	C	-0.274079	-0.229288	-0.000088
C50	C	0.225921	0.270712	0.499912
N51	N	-0.285343	-0.985110	0.216902
N52	N	0.214657	-0.485110	0.716902
C53	C	-0.143589	-1.040255	0.451904
C54	C	0.356411	-0.540255	0.951904
C55	C	-0.143584	-1.040258	0.547885
C56	C	0.356416	-0.540258	1.047885
C57	C	-0.427070	-0.929965	0.547904
C58	C	0.072930	-0.429965	1.047904
C59	C	-0.427083	-0.929967	0.451925
C60	C	0.072917	-0.429967	0.951925
C61	C	-0.285331	-0.985111	0.403927
C62	C	0.214669	-0.485111	0.903927
C63	C	-0.285313	-0.985111	0.595888
C64	C	0.214687	-0.485111	1.095888
C65	C	-0.285308	-0.985114	0.699955
C66	C	0.214692	-0.485114	1.199955
C67	C	-0.285337	-0.985111	0.299853
C68	C	0.214663	-0.485111	0.799853
H69	H	-0.281925	-0.406392	0.150721
H70	H	0.218075	0.093608	0.650721
Br71	Br	0.048784	-1.115095	0.386767
Br72	Br	0.548784	-0.615095	0.886767
Br73	Br	0.048779	-1.115104	0.612993
Br74	Br	0.548779	-0.615104	1.112993
H75	H	-0.542478	-0.885066	0.586993
H76	H	-0.042478	-0.385066	1.086993
Br77	Br	-0.619476	-0.855130	0.386805
Br78	Br	-0.119476	-0.355130	0.886805
H79	H	-0.288835	-0.563784	0.150726
H80	H	0.211165	-0.063784	0.650726
H81	H	-0.281807	-0.406424	-0.150895
H82	H	0.218193	0.093576	0.349105
Br83	Br	-0.289767	-0.587382	-0.196005
Br84	Br	0.210233	-0.087382	0.303995
