data_functionalizedCrystal
_audit_creation_method	'MofGen! by Chris Wilmer'
_symmetry_space_group_name_H-M	'P1'
_symmetry_Int_Tables_number	1
_symmetry_cell_setting	triclinic
loop_
_symmetry_equiv_pos_as_xyz
  x,y,z
_cell_length_a	35.288113
_cell_length_b	35.282844
_cell_length_c	35.277682
_cell_angle_alpha	120.000030
_cell_angle_beta	90.000425
_cell_angle_gamma	59.985448
loop_
_atom_site_label
_atom_site_type_symbol
_atom_site_fract_x
_atom_site_fract_y
_atom_site_fract_z
O1	O	-0.259855	-0.334376	-0.011290
O2	O	-0.204773	-0.256750	0.011214
O3	O	-0.204747	-0.334374	-0.066414
O4	O	-0.259881	-0.256752	0.066338
O5	O	-0.267796	-0.271323	-0.066407
O6	O	-0.267822	-0.193699	0.011221
O7	O	-0.322904	-0.271325	-0.011283
Zn8	Zn	-0.305373	-0.222501	-0.000030
Zn9	Zn	-0.222304	-0.305574	-0.000039
O10	O	-0.322930	-0.193701	0.066345
C11	C	-0.095943	0.006465	0.034094
C12	C	-0.118849	-0.016235	0.034417
C13	C	-0.027301	-0.062175	0.034097
C14	C	-0.050311	-0.084771	0.034420
C15	C	-0.095925	-0.062174	0.034099
C16	C	-0.050330	-0.016236	0.034415
C17	C	-0.137887	0.159560	0.021655
C18	C	-0.159497	0.202921	0.018138
C19	C	-0.204697	0.224672	0.016374
C20	C	-0.228128	0.271681	0.012552
C21	C	-0.228287	0.203062	0.018130
C22	C	-0.206678	0.159710	0.021653
C23	C	-0.161476	0.137959	0.023415
C24	C	-0.207065	-0.116515	0.021677
C25	C	-0.228810	-0.141634	0.018165
C26	C	-0.205351	-0.188603	0.016402
C27	C	-0.228920	-0.215846	0.012587
C28	C	-0.160145	-0.210451	0.018156
C29	C	-0.138404	-0.185328	0.021676
C30	C	-0.161869	-0.138359	0.023433
C31	C	0.138198	-0.116522	0.021668
C32	C	0.185071	-0.141646	0.018149
C33	C	0.208593	-0.188615	0.016388
C34	C	0.259415	-0.215860	0.012569
C35	C	0.185242	-0.210462	0.018142
C36	C	0.138371	-0.185338	0.021659
C37	C	0.114851	-0.138364	0.023426
C38	C	-0.138047	0.090946	0.027231
C39	C	-0.119372	0.053474	0.030274
C40	C	0.023519	-0.089416	0.030281
C41	C	0.064029	-0.111128	0.027240
C42	C	-0.119498	-0.089413	0.030284
C43	C	-0.138290	-0.111124	0.027245
C44	C	-0.364258	-0.456770	-0.023612
C45	C	-0.340857	-0.503556	-0.020399
C46	C	-0.409872	-0.434067	-0.023931
C47	C	-0.364282	-0.388121	-0.023604
C48	C	-0.340907	-0.361507	-0.020382
C49	C	-0.409896	-0.365522	-0.023922
C50	C	-0.432903	-0.388122	-0.023605
C51	C	-0.482899	-0.361511	-0.020383
C52	C	-0.341354	-0.434065	-0.023930
C53	C	-0.523291	-0.340011	-0.017779
C54	C	-0.321952	-0.541354	-0.017801
C55	C	-0.322022	-0.340006	-0.017777
C56	C	-0.573964	-0.313038	-0.014513
C57	C	-0.298234	-0.588774	-0.014544
C58	C	-0.298331	-0.313032	-0.014510
C59	C	-0.095801	-0.466212	-0.438584
C60	C	-0.050179	-0.512156	-0.461507
C61	C	-0.095801	-0.466212	-0.369941
C62	C	-0.050179	-0.512156	-0.392968
C63	C	-0.027156	-0.534859	-0.438590
C64	C	-0.118720	-0.443613	-0.392961
C65	C	-0.206997	-0.342589	-0.480488
C66	C	-0.228756	-0.317316	-0.502091
C67	C	-0.205301	-0.339009	-0.547300
C68	C	-0.228889	-0.311603	-0.570723
C69	C	-0.160085	-0.385979	-0.570907
C70	C	-0.138332	-0.411252	-0.549306
C71	C	-0.161789	-0.389555	-0.504094
C72	C	0.138377	-0.687972	-0.549793
C73	C	0.185255	-0.731338	-0.571555
C74	C	0.208773	-0.753091	-0.548104
C75	C	0.259601	-0.800105	-0.571692
C76	C	0.185407	-0.731478	-0.502888
C77	C	0.138530	-0.688121	-0.481130
C78	C	0.115018	-0.666368	-0.504588
C79	C	-0.206997	-0.342589	-0.204397
C80	C	-0.228755	-0.317311	-0.157516
C81	C	-0.205299	-0.339004	-0.134002
C82	C	-0.228887	-0.311598	-0.083170
C83	C	-0.160086	-0.385970	-0.157370
C84	C	-0.138330	-0.411243	-0.204250
C85	C	-0.161792	-0.389551	-0.227761
C86	C	-0.138195	-0.416961	-0.480674
C87	C	-0.119391	-0.438806	-0.462005
C88	C	-0.119391	-0.438806	-0.319111
C89	C	-0.138196	-0.416961	-0.278594
C90	C	0.023672	-0.581873	-0.462183
C91	C	0.064188	-0.619349	-0.480990
O92	O	0.408892	-0.271336	-0.011291
O93	O	0.276164	-0.193713	0.011202
O94	O	0.353787	-0.271346	-0.066421
O95	O	0.331268	-0.193702	0.066332
O96	O	0.353804	-0.334390	-0.066416
O97	O	0.276180	-0.256756	0.011207
O98	O	0.408908	-0.334379	-0.011287
Zn99	Zn	0.342547	-0.305577	-0.000039
Zn100	Zn	0.342525	-0.222515	-0.000045
O101	O	0.331285	-0.256745	0.066337
O102	O	-0.322789	0.397311	-0.011322
O103	O	-0.267651	0.287070	0.011181
O104	O	-0.267645	0.287053	-0.066446
O105	O	-0.322795	0.397328	0.066305
O106	O	-0.204616	0.287052	-0.066448
O107	O	-0.204623	0.287069	0.011179
O108	O	-0.259760	0.397310	-0.011323
Zn109	Zn	-0.222185	0.342189	-0.000072
Zn110	Zn	-0.305227	0.342191	-0.000070
O111	O	-0.259767	0.397327	0.066304
O112	O	0.409101	-0.925752	-0.602685
O113	O	0.276361	-0.815495	-0.547552
O114	O	0.353955	-0.815494	-0.547549
O115	O	0.331506	-0.925753	-0.602687
O116	O	0.353957	-0.815495	-0.610597
O117	O	0.276362	-0.815497	-0.610599
O118	O	0.409103	-0.925753	-0.665732
Zn119	Zn	0.342733	-0.870625	-0.648176
Zn120	Zn	0.342731	-0.870623	-0.565108
O121	O	0.331508	-0.925755	-0.665734
O122	O	-0.259884	-0.256748	-0.665371
O123	O	-0.204748	-0.334374	-0.610256
O124	O	-0.204775	-0.256748	-0.610246
O125	O	-0.259857	-0.334373	-0.665381
O126	O	-0.267823	-0.193698	-0.547193
O127	O	-0.267795	-0.271324	-0.547203
O128	O	-0.322932	-0.193698	-0.602318
Zn129	Zn	-0.305374	-0.222501	-0.564749
Zn130	Zn	-0.222306	-0.305571	-0.647825
O131	O	-0.322905	-0.271324	-0.602328
C132	C	-0.433013	-0.071311	0.293214
C133	C	-0.483015	-0.024525	0.316610
C134	C	-0.409990	-0.094014	0.316131
C135	C	-0.364367	-0.139958	0.224565
C136	C	-0.340974	-0.166571	0.174561
C137	C	-0.341449	-0.162557	0.247586
C138	C	-0.364368	-0.139958	0.293208
C139	C	-0.340975	-0.166569	0.316598
C140	C	-0.409989	-0.094015	0.247592
C141	C	-0.322076	-0.188069	0.335493
C142	C	-0.523412	0.013272	0.335510
C143	C	-0.322074	-0.188072	0.134162
C144	C	-0.298367	-0.215042	0.359199
C145	C	-0.574092	0.060691	0.359223
C146	C	-0.298364	-0.215045	0.083480
C147	C	0.318955	-0.139933	0.293205
C148	C	0.322181	-0.166539	0.316599
C149	C	0.318623	-0.093991	0.316121
C150	C	0.318954	-0.139943	0.224557
C151	C	0.322178	-0.166559	0.174553
C152	C	0.318622	-0.094001	0.247578
C153	C	0.318938	-0.071294	0.293200
C154	C	0.322144	-0.024511	0.316589
C155	C	0.318639	-0.162536	0.247583
C156	C	0.324736	0.013285	0.335484
C157	C	0.324788	-0.188034	0.335499
C158	C	0.324784	-0.188064	0.134154
C159	C	0.327987	0.060702	0.359190
C160	C	0.328058	-0.215001	0.359211
C161	C	0.328052	-0.215041	0.083473
C162	C	-0.364296	0.611920	0.293175
C163	C	-0.340922	0.638535	0.316568
C164	C	-0.409912	0.634522	0.316095
C165	C	-0.364270	0.543265	0.224529
C166	C	-0.340868	0.496473	0.174524
C167	C	-0.409885	0.565971	0.247553
C168	C	-0.432919	0.611920	0.293175
C169	C	-0.482915	0.638534	0.316567
C170	C	-0.341367	0.565971	0.247553
C171	C	-0.523308	0.660036	0.335466
C172	C	-0.322038	0.660038	0.335466
C173	C	-0.321961	0.458671	0.134125
C174	C	-0.573982	0.687011	0.359175
C175	C	-0.298347	0.687014	0.359175
C176	C	-0.298242	0.411245	0.083443
C177	C	0.376736	-0.534611	-0.438590
C178	C	0.377050	-0.511914	-0.461511
C179	C	0.376720	-0.465962	-0.369947
C180	C	0.377034	-0.443369	-0.392973
C181	C	0.376718	-0.465972	-0.438594
C182	C	0.377052	-0.511904	-0.392968
C183	C	0.364351	-0.687713	-0.480496
C184	C	0.360850	-0.731076	-0.502099
C185	C	0.359091	-0.752833	-0.547308
C186	C	0.355285	-0.799845	-0.570731
C187	C	0.360838	-0.731227	-0.570913
C188	C	0.364346	-0.687871	-0.549312
C189	C	0.366103	-0.666114	-0.504101
C190	C	0.364277	-0.411646	-0.549793
C191	C	0.360757	-0.386531	-0.571554
C192	C	0.358979	-0.339558	-0.548101
C193	C	0.355156	-0.312319	-0.571688
C194	C	0.360728	-0.317705	-0.502887
C195	C	0.364256	-0.342824	-0.481130
C196	C	0.366027	-0.389797	-0.504588
C197	C	0.364285	-0.411596	-0.204405
C198	C	0.360761	-0.386467	-0.157524
C199	C	0.358986	-0.339495	-0.134010
C200	C	0.355162	-0.312245	-0.083178
C201	C	0.360731	-0.317651	-0.157377
C202	C	0.364253	-0.342780	-0.204256
C203	C	0.366034	-0.389757	-0.227768
C204	C	0.369902	-0.619098	-0.480680
C205	C	0.372933	-0.581623	-0.462011
C206	C	0.372898	-0.438716	-0.319117
C207	C	0.369854	-0.416999	-0.278600
C208	C	0.372895	-0.438736	-0.462185
C209	C	0.369849	-0.417028	-0.480991
O210	O	0.353784	-0.271260	0.452826
O211	O	0.331275	-0.193654	0.397692
O212	O	0.408895	-0.271275	0.397688
O213	O	0.276165	-0.193638	0.452830
O214	O	0.408910	-0.334328	0.334642
O215	O	0.331290	-0.256707	0.334646
O216	O	0.353799	-0.334313	0.389780
Zn217	Zn	0.342547	-0.305521	0.352203
Zn218	Zn	0.342527	-0.222446	0.435268
O219	O	0.276180	-0.256692	0.389784
C220	C	-0.027256	-0.062279	-0.438625
C221	C	-0.050263	-0.084881	-0.461544
C222	C	-0.095904	0.006376	-0.369978
C223	C	-0.118807	-0.016330	-0.393002
C224	C	-0.095878	-0.062279	-0.438624
C225	C	-0.050289	-0.016330	-0.393002
C226	C	0.138246	-0.116629	-0.480543
C227	C	0.185118	-0.141752	-0.502150
C228	C	0.208644	-0.188731	-0.547359
C229	C	0.259468	-0.215979	-0.570786
C230	C	0.185294	-0.210584	-0.570962
C231	C	0.138424	-0.185457	-0.549358
C232	C	0.114900	-0.138478	-0.504146
C233	C	-0.137737	-0.185914	-0.549816
C234	C	-0.159327	-0.211189	-0.571575
C235	C	-0.204527	-0.189497	-0.548119
C236	C	-0.227938	-0.216902	-0.571704
C237	C	-0.228139	-0.142522	-0.502904
C238	C	-0.206553	-0.117243	-0.481150
C239	C	-0.161347	-0.138947	-0.504611
C240	C	-0.137866	0.159511	-0.204438
C241	C	-0.159479	0.202879	-0.157556
C242	C	-0.204681	0.224635	-0.134039
C243	C	-0.228118	0.271656	-0.083207
C244	C	-0.228266	0.203019	-0.157403
C245	C	-0.206650	0.159651	-0.204283
C246	C	-0.161450	0.137903	-0.227798
C247	C	0.064077	-0.111238	-0.480721
C248	C	0.023567	-0.089523	-0.462049
C249	C	-0.119338	0.053397	-0.319148
C250	C	-0.138018	0.090879	-0.278631
C251	C	-0.119285	-0.089687	-0.462213
C252	C	-0.137943	-0.111534	-0.481016
H253	H	-0.031859	0.002767	0.034933
H254	H	0.318144	-0.199512	0.229098
H255	H	-0.303877	-0.453065	-0.024445
O256	O	0.317937	-0.071249	0.225594
C257	C	0.277726	-0.018192	0.250431
H258	H	0.264756	-0.002758	0.288109
H259	H	0.286282	0.008374	0.249087
H260	H	0.249622	-0.017287	0.234183
O261	O	-0.093926	0.138337	-0.227238
C262	C	-0.063625	0.119583	-0.205254
H263	H	-0.079446	0.111059	-0.184934
H264	H	-0.028890	0.081188	-0.232572
H265	H	-0.058037	0.151335	-0.180481
H266	H	0.318100	-0.074986	0.353607
O267	O	-0.136599	0.223902	0.016371
C268	C	-0.132352	0.219641	-0.025557
H269	H	-0.160564	0.216433	-0.039391
H270	H	-0.136277	0.256690	-0.019055
H271	H	-0.096783	0.182355	-0.052128
O272	O	-0.432032	-0.321404	-0.024513
C273	C	-0.477304	-0.306252	-0.024741
H274	H	-0.488635	-0.322495	-0.009764
H275	H	-0.502199	-0.260658	-0.002744
H276	H	-0.477685	-0.323349	-0.061898
O277	O	-0.431844	-0.456797	-0.024543
C278	C	-0.401715	-0.502310	-0.024775
H279	H	-0.374153	-0.498665	-0.009777
H280	H	-0.422419	-0.505214	-0.002799
H281	H	-0.384211	-0.539854	-0.061936
O282	O	-0.431843	0.543212	0.225446
C283	C	-0.401722	0.497711	0.180153
H284	H	-0.364223	0.482050	0.178728
H285	H	-0.407188	0.465201	0.170499
H286	H	-0.409396	0.509088	0.154606
H287	H	-0.265566	-0.279065	-0.138490
H288	H	-0.428475	-0.075011	0.229112
H289	H	-0.031694	-0.531150	-0.374482
O290	O	-0.163585	0.006466	0.035115
C291	C	-0.191799	0.021823	0.075314
H292	H	-0.174254	0.027451	0.102900
H293	H	-0.226905	0.061108	0.089159
H294	H	-0.197054	-0.010671	0.066391
H295	H	0.204275	-0.748930	-0.608368
O296	O	-0.431924	0.678666	0.360797
C297	C	-0.401825	0.693847	0.376178
H298	H	-0.374230	0.677573	0.344952
H299	H	-0.422546	0.739443	0.399744
H300	H	-0.384361	0.676801	0.396274
H301	H	0.119096	-0.078377	-0.443731
O302	O	-0.272160	0.224149	0.016333
C303	C	-0.272053	0.219916	-0.025588
H304	H	-0.235772	0.186311	-0.052404
H305	H	-0.297794	0.210627	-0.039021
H306	H	-0.282506	0.259385	-0.019238
H307	H	-0.140271	0.220474	-0.138535
O308	O	0.359064	-0.272117	-0.480174
C309	C	0.396914	-0.280764	-0.505364
H310	H	0.409693	-0.315290	-0.543321
H311	H	0.385460	-0.242862	-0.502835
H312	H	0.426193	-0.291131	-0.490306
H313	H	-0.303964	-0.199527	0.229097
H314	H	-0.031696	-0.531156	-0.498992
H315	H	-0.156200	-0.406634	-0.374471
H316	H	-0.225782	-0.078995	-0.444337
H317	H	0.204125	-0.123956	-0.482930
H318	H	0.365681	-0.325029	-0.444317
O319	O	-0.272069	-0.121455	-0.480188
C320	C	-0.301279	-0.108787	-0.505374
H321	H	-0.279528	-0.133976	-0.543332
H322	H	-0.327726	-0.117701	-0.502842
H323	H	-0.320202	-0.064443	-0.490316
O324	O	-0.296647	0.543351	0.225575
C325	C	-0.281286	0.573272	0.255689
H326	H	-0.303126	0.596540	0.293197
H327	H	-0.243298	0.544943	0.250205
H328	H	-0.285010	0.602526	0.248014
O329	O	0.377663	-0.399283	-0.370866
C330	C	0.377856	-0.384096	-0.325571
H331	H	0.392107	-0.420177	-0.324146
H332	H	0.400690	-0.368951	-0.315913
H333	H	0.340928	-0.350880	-0.300027
O334	O	0.377655	-0.534641	-0.506225
C335	C	0.377888	-0.580147	-0.521608
H336	H	0.362902	-0.576500	-0.490386
H337	H	0.355906	-0.583040	-0.545210
H338	H	0.415042	-0.617696	-0.541667
H339	H	-0.140098	-0.249438	-0.608387
O340	O	-0.094443	-0.456924	-0.572242
C341	C	-0.094444	-0.498825	-0.576456
H342	H	-0.130718	-0.489369	-0.573696
H343	H	-0.068741	-0.537943	-0.611561
H344	H	-0.083873	-0.503045	-0.547521
O345	O	-0.229649	0.138769	0.023332
C346	C	-0.274180	0.167270	0.021032
H347	H	-0.274143	0.187437	0.003944
H348	H	-0.283768	0.138352	-0.000316
H349	H	-0.300640	0.199067	0.057606
H350	H	-0.140992	-0.403639	-0.607717
H351	H	-0.101516	-0.449484	-0.223273
H352	H	0.365770	-0.670284	-0.568535
H353	H	0.377571	-0.530900	-0.374482
O354	O	0.366019	-0.457285	-0.572654
C355	C	0.363711	-0.471181	-0.617220
H356	H	0.375774	-0.452411	-0.628024
H357	H	0.387096	-0.516650	-0.643165
H358	H	0.326397	-0.455719	-0.616508
H359	H	0.204081	-0.123855	0.016720
H360	H	0.359337	-0.404254	-0.138501
O361	O	-0.137425	-0.256036	0.016506
C362	C	-0.162607	-0.247388	0.054367
H363	H	-0.200561	-0.212864	0.067142
H364	H	-0.160067	-0.285291	0.042922
H365	H	-0.147557	-0.237015	0.083653
O366	O	0.365988	-0.457211	-0.227170
C367	C	0.363700	-0.471108	-0.196498
H368	H	0.346603	-0.433885	-0.159195
H369	H	0.342373	-0.488291	-0.204171
H370	H	0.400274	-0.502384	-0.201324
H371	H	-0.101599	-0.203118	0.023107
H372	H	0.204452	-0.248833	-0.607772
O373	O	0.115688	-0.206586	0.023286
C374	C	0.099145	-0.219333	-0.014561
H375	H	0.120614	-0.225020	-0.043501
H376	H	0.102234	-0.257947	-0.027912
H377	H	0.061211	-0.185342	-0.002877
H378	H	0.365783	-0.670003	-0.443684
O379	O	0.359135	-0.751982	-0.479097
C380	C	0.361450	-0.723491	-0.434567
H381	H	0.349369	-0.681886	-0.423894
H382	H	0.338083	-0.719527	-0.408527
H383	H	0.398769	-0.746020	-0.435273
H384	H	-0.265074	0.220738	-0.138254
H385	H	0.359409	-0.748947	-0.607723
O386	O	0.359134	-0.407785	-0.615499
C387	C	0.396970	-0.420535	-0.644804
H388	H	0.425904	-0.426217	-0.629020
H389	H	0.410324	-0.459152	-0.680339
H390	H	0.385278	-0.386547	-0.648751
H391	H	0.365672	-0.324990	-0.223278
H392	H	-0.428474	-0.075005	0.353619
H393	H	0.204555	-0.749195	-0.483795
H394	H	0.204395	-0.248707	0.016709
O395	O	-0.028322	0.006430	-0.370924
C396	C	-0.053165	0.059483	-0.358081
H397	H	-0.090832	0.074911	-0.355623
H398	H	-0.051835	0.086058	-0.322945
H399	H	-0.036916	0.060382	-0.385290
H400	H	-0.156289	0.002680	-0.374517
O401	O	0.359090	-0.272075	-0.134541
C402	C	0.396929	-0.280709	-0.117984
H403	H	0.425872	-0.325442	-0.139540
H404	H	0.410266	-0.258466	-0.120939
H405	H	0.385247	-0.265201	-0.080084
O406	O	0.115909	-0.667177	-0.437203
C407	C	0.146711	-0.695681	-0.421171
H408	H	0.183963	-0.715853	-0.441385
H409	H	0.139136	-0.666763	-0.382653
H410	H	0.141942	-0.727473	-0.426510
H411	H	-0.031767	-0.121859	-0.499027
H412	H	-0.226102	-0.324920	-0.223538
H413	H	0.119415	-0.203250	-0.568578
H414	H	-0.031822	-0.121736	0.034940
O415	O	-0.229859	-0.321455	-0.436578
C416	C	-0.274425	-0.274577	-0.420372
H417	H	-0.285223	-0.275849	-0.451218
H418	H	-0.300362	-0.272012	-0.398286
H419	H	-0.273729	-0.237963	-0.398509
H420	H	-0.225857	0.142055	-0.223303
O421	O	0.115429	-0.070916	0.023348
C422	C	0.146087	-0.057018	0.021049
H423	H	0.183387	-0.094237	0.003964
H424	H	0.138415	-0.039851	-0.000302
H425	H	0.141249	-0.025729	0.057623
O426	O	-0.093986	0.138516	0.023387
C427	C	-0.077797	0.166877	0.021073
H428	H	-0.108646	0.208524	0.033144
H429	H	-0.055722	0.170740	0.044455
H430	H	-0.055934	0.144301	-0.016249
H431	H	-0.226175	-0.078271	0.023109
H432	H	-0.265616	-0.123843	0.016736
H433	H	-0.100931	-0.203587	-0.568923
H434	H	0.119236	-0.670266	-0.568897
O435	O	-0.272647	-0.271646	-0.479181
C436	C	-0.272627	-0.229748	-0.474948
H437	H	-0.241194	-0.247364	-0.503174
H438	H	-0.305751	-0.203113	-0.478869
H439	H	-0.270920	-0.204888	-0.439379
H440	H	-0.140985	-0.403631	-0.138221
