data_functionalizedCrystal
_audit_creation_method	'MofGen! by Chris Wilmer'
_symmetry_space_group_name_H-M	'P1'
_symmetry_Int_Tables_number	1
_symmetry_cell_setting	triclinic
loop_
_symmetry_equiv_pos_as_xyz
  x,y,z
_cell_length_a	15.995343
_cell_length_b	19.188925
_cell_length_c	15.072220
_cell_angle_alpha	89.999199
_cell_angle_beta	89.991823
_cell_angle_gamma	83.315866
loop_
_atom_site_label
_atom_site_type_symbol
_atom_site_fract_x
_atom_site_fract_y
_atom_site_fract_z
O1	O	1.110668	0.089966	-0.073693
O2	O	1.610668	0.589966	0.426307
O3	O	0.866851	0.101085	-0.073714
O4	O	1.366851	0.601085	0.426286
O5	O	0.995798	-0.006113	-0.073698
O6	O	1.495798	0.493887	0.426302
O7	O	0.981721	0.197163	-0.073709
O8	O	1.481721	0.697163	0.426291
O9	O	0.995766	-0.006107	0.073867
O10	O	1.495766	0.493893	0.573867
O11	O	0.866819	0.101091	0.073851
O12	O	1.366819	0.601091	0.573851
O13	O	1.110637	0.089972	0.073872
O14	O	1.610637	0.589972	0.573872
Zn15	Zn	0.988723	0.095532	0.097291
Zn16	Zn	1.488723	0.595532	0.597291
Zn17	Zn	0.988765	0.095524	-0.097133
Zn18	Zn	1.488765	0.595524	0.402867
O19	O	0.981690	0.197169	0.073856
O20	O	1.481690	0.697169	0.573856
C21	C	0.835642	0.100629	0.000066
C22	C	1.335642	0.600629	0.500066
C23	C	0.742696	0.099254	0.000058
C24	C	1.242696	0.599254	0.500058
C25	C	0.572519	0.096758	0.000070
C26	C	1.072519	0.596758	0.500070
C27	C	0.549459	0.019377	0.000074
C28	C	1.049459	0.519377	0.500074
C29	C	0.452786	0.017921	0.000414
C30	C	0.952786	0.517921	0.500414
C31	C	0.404968	0.094299	0.000081
C32	C	0.904968	0.594299	0.500081
C33	C	0.433898	0.133210	0.084178
C34	C	0.933898	0.633210	0.584178
C35	C	0.530688	0.134128	0.084243
C36	C	1.030688	0.634128	0.584243
C37	C	0.530630	0.135254	-0.083572
C38	C	1.030630	0.635254	0.416428
C39	C	0.434146	0.132398	-0.084672
C40	C	0.934146	0.632398	0.415328
C41	C	0.310275	0.092914	0.000090
C42	C	0.810275	0.592914	0.500090
C43	C	0.667212	0.098145	0.000067
C44	C	1.167212	0.598145	0.500067
C45	C	0.995327	-0.032122	0.000084
C46	C	1.495327	0.467878	0.500084
C47	C	0.993961	-0.109630	0.000082
C48	C	1.493961	0.390370	0.500082
C49	C	1.060475	-0.671233	0.000066
C50	C	1.560475	-0.171233	0.500066
C51	C	1.061766	-0.598406	0.000074
C52	C	1.561766	-0.098406	0.500074
C53	C	0.986104	-0.553663	0.000067
C54	C	1.486104	-0.053663	0.500067
C55	C	0.909145	-0.581751	0.000075
C56	C	1.409145	-0.081751	0.500075
C57	C	0.907857	-0.654576	0.000075
C58	C	1.407857	-0.154576	0.500075
N59	N	0.931339	-0.433122	-0.050165
N60	N	1.431339	0.066878	0.449835
N61	N	0.932568	-0.363942	-0.050168
N62	N	1.432568	0.136058	0.449832
C63	C	0.989982	-0.334244	0.000067
C64	C	1.489982	0.165756	0.500067
N65	N	1.046134	-0.376341	0.050293
N66	N	1.546134	0.123659	0.550293
N67	N	1.044907	-0.445528	0.050291
N68	N	1.544907	0.054472	0.550291
C69	C	0.987493	-0.474695	0.000067
C70	C	1.487493	0.025305	0.500067
C71	C	1.068336	-0.227197	0.000074
C72	C	1.568336	0.272803	0.500074
C73	C	1.069624	-0.154369	0.000088
C74	C	1.569624	0.345631	0.500088
C75	C	0.917001	-0.137715	0.000080
C76	C	1.417001	0.362285	0.500080
C77	C	0.915715	-0.210542	0.000075
C78	C	1.415715	0.289458	0.500075
C79	C	0.991385	-0.255279	0.000068
C80	C	1.491385	0.244721	0.500068
C81	C	1.141846	0.090427	0.000091
C82	C	1.641846	0.590427	0.500091
C83	C	1.234791	0.091803	0.000093
C84	C	1.734791	0.591803	0.500093
C85	C	0.982161	0.223179	0.000072
C86	C	1.482161	0.723179	0.500072
C87	C	0.983527	0.300687	0.000068
C88	C	1.483527	0.800687	0.500068
N89	N	0.988700	0.095537	0.229980
N90	N	1.488700	0.595537	0.729980
N91	N	0.988794	0.095514	-0.229821
N92	N	1.488794	0.595514	0.270179
C93	C	0.988763	0.095522	0.589181
C94	C	1.488763	0.595522	1.089181
C95	C	0.919536	0.152689	0.551566
C96	C	1.419536	0.652689	1.051566
C97	C	0.919693	0.152897	0.448740
C98	C	1.419693	0.652897	0.948740
C99	C	0.988731	0.095529	0.410977
C100	C	1.488731	0.595529	0.910977
C101	C	1.076038	0.111439	0.448275
C102	C	1.576038	0.611439	0.948275
C103	C	1.075650	0.111845	0.551133
C104	C	1.575650	0.611845	1.051133
C105	C	0.971464	0.022276	0.551284
C106	C	1.471464	0.522276	1.051284
C107	C	0.969457	0.022764	0.448420
C108	C	1.469457	0.522764	0.948420
C109	C	0.988719	0.095532	0.310264
C110	C	1.488719	0.595532	0.810264
C111	C	0.988781	0.095520	0.689895
C112	C	1.488781	0.595520	1.189895
H113	H	0.545051	0.190873	0.087836
H114	H	1.045051	0.690873	0.587836
F115	F	0.828621	-0.534131	0.000071
F116	F	1.328621	-0.034131	0.500071
H117	H	0.544434	0.192211	-0.084386
H118	H	1.044434	0.692211	0.415614
H119	H	1.124429	-0.575538	0.000072
H120	H	1.624429	-0.075538	0.500072
H121	H	1.129951	-0.263624	0.000069
H122	H	1.629951	0.236376	0.500069
F123	F	0.833815	-0.240428	0.000071
F124	F	1.333815	0.259572	0.500071
H125	H	1.132287	-0.131508	0.000091
H126	H	1.632287	0.368492	0.500091
F127	F	0.836475	-0.090100	0.000082
F128	F	1.336475	0.409900	0.500082
H129	H	1.122092	-0.707654	0.000065
H130	H	1.622092	-0.207654	0.500065
F131	F	0.834845	0.140544	0.415778
F132	F	1.334845	0.640544	0.915778
H133	H	0.434448	-0.012390	0.061054
H134	H	0.934448	0.487610	0.561054
H135	H	1.091695	0.164248	0.422505
H136	H	1.591695	0.664248	0.922505
F137	F	0.834420	0.140496	0.583906
F138	F	1.334420	0.640496	1.083906
F139	F	0.410067	0.095348	-0.165995
F140	F	0.910067	0.595348	0.334005
H141	H	0.433892	-0.012538	-0.059858
H142	H	0.933892	0.487462	0.440142
F143	F	0.407751	0.098321	0.166298
F144	F	0.907751	0.598321	0.666298
F145	F	0.825954	-0.684462	0.000077
F146	F	1.325954	-0.184462	0.500077
F147	F	0.586227	-0.019832	-0.078740
F148	F	1.086227	0.480168	0.421260
F149	F	0.567715	0.103340	-0.166916
F150	F	1.067715	0.603340	0.333084
F151	F	0.933744	0.223337	0.585321
F152	F	1.433744	0.723337	1.085321
H153	H	0.400985	0.188127	-0.090014
H154	H	0.900985	0.688127	0.409986
H155	H	0.401844	0.189422	0.087066
H156	H	0.901844	0.689422	0.587066
H157	H	0.930712	0.207252	0.424124
H158	H	1.430712	0.707252	0.924124
H159	H	1.016624	-0.021770	0.422718
H160	H	1.516624	0.478230	0.922718
F161	F	1.095628	0.181666	0.582479
F162	F	1.595628	0.681666	1.082479
F163	F	1.144926	0.059437	0.583658
F164	F	1.644926	0.559437	1.083658
F165	F	1.144967	0.058463	0.416305
F166	F	1.644967	0.558463	0.916305
F167	F	0.890062	0.002290	0.585223
F168	F	1.390062	0.502290	1.085223
F169	F	1.037453	-0.033330	0.583078
F170	F	1.537453	0.466670	1.083078
F171	F	0.587466	-0.019186	0.078786
F172	F	1.087466	0.480814	0.578786
F173	F	0.565811	0.099324	0.166727
F174	F	1.065811	0.599324	0.666727
F175	F	0.885513	0.006981	0.416560
F176	F	1.385513	0.506981	0.916560
