data_functionalizedCrystal
_audit_creation_method	'MofGen! by Chris Wilmer'
_symmetry_space_group_name_H-M	'P1'
_symmetry_Int_Tables_number	1
_symmetry_cell_setting	triclinic
loop_
_symmetry_equiv_pos_as_xyz
  x,y,z
_cell_length_a	17.699083
_cell_length_b	17.699077
_cell_length_c	16.176319
_cell_angle_alpha	90.005422
_cell_angle_beta	90.004339
_cell_angle_gamma	83.281795
loop_
_atom_site_label
_atom_site_type_symbol
_atom_site_fract_x
_atom_site_fract_y
_atom_site_fract_z
O1	O	0.095688	1.004080	0.068737
O2	O	0.429021	1.337414	0.402071
O3	O	0.762355	1.670747	0.735404
O4	O	0.108145	0.783701	0.068741
O5	O	0.441479	1.117035	0.402075
O6	O	0.774812	1.450368	0.735408
O7	O	-0.008273	0.900117	0.068732
O8	O	0.325061	1.233451	0.402065
O9	O	0.658394	1.566784	0.735399
O10	O	0.212106	0.887665	0.068747
O11	O	0.545439	1.220998	0.402080
O12	O	0.878773	1.554331	0.735413
O13	O	-0.008273	0.900104	-0.068761
O14	O	0.325060	1.233437	0.264572
O15	O	0.658394	1.566770	0.597905
O16	O	0.108145	0.783688	-0.068752
O17	O	0.441478	1.117021	0.264582
O18	O	0.774812	1.450354	0.597915
O19	O	0.095688	1.004067	-0.068756
O20	O	0.429021	1.337400	0.264577
O21	O	0.762354	1.670733	0.597911
Cu22	Cu	0.101916	0.893876	-0.081308
Cu23	Cu	0.435250	1.227209	0.252025
Cu24	Cu	0.768583	1.560543	0.585359
Cu25	Cu	0.101917	0.893892	0.081294
Cu26	Cu	0.435250	1.227226	0.414627
Cu27	Cu	0.768583	1.560559	0.747960
O28	O	0.212106	0.887651	-0.068746
O29	O	0.545439	1.220984	0.264587
O30	O	0.878772	1.554318	0.597920
C31	C	0.107700	0.755498	-0.000005
C32	C	0.441033	1.088831	0.333329
C33	C	0.774366	1.422164	0.666662
C34	C	0.106363	0.671479	-0.000003
C35	C	0.439696	1.004813	0.333330
C36	C	0.773029	1.338146	0.666663
C37	C	0.105733	0.632004	-0.074952
C38	C	0.439066	0.965338	0.258382
C39	C	0.772399	1.298671	0.591715
C40	C	0.104464	0.553062	-0.074953
C41	C	0.437798	0.886395	0.258381
C42	C	0.771131	1.219729	0.591714
C43	C	0.103832	0.513595	-0.000004
C44	C	0.437165	0.846928	0.333329
C45	C	0.770498	1.180262	0.666662
C46	C	0.104460	0.553076	0.074950
C47	C	0.437793	0.886409	0.408283
C48	C	0.771126	1.219742	0.741617
C49	C	0.105722	0.632017	0.074950
C50	C	0.439056	0.965351	0.408283
C51	C	0.772389	1.298684	0.741617
C52	C	0.099366	0.234712	0.074951
C53	C	0.432700	0.568046	0.408285
C54	C	0.766033	0.901379	0.741618
C55	C	0.098106	0.155765	0.074945
C56	C	0.431439	0.489098	0.408279
C57	C	0.764772	0.822431	0.741612
C58	C	0.098108	0.155757	-0.074952
C59	C	0.431442	0.489090	0.258382
C60	C	0.764775	0.822423	0.591715
C61	C	0.099371	0.234699	-0.074951
C62	C	0.432704	0.568032	0.258382
C63	C	0.766038	0.901365	0.591715
C64	C	0.099995	0.274173	0.000002
C65	C	0.433328	0.607506	0.333336
C66	C	0.766662	0.940840	0.666669
C67	C	0.101369	0.359772	0.000002
C68	C	0.434702	0.693105	0.333336
C69	C	0.768035	1.026438	0.666669
C70	C	0.102464	0.427997	-0.000004
C71	C	0.435797	0.761330	0.333330
C72	C	0.769130	1.094664	0.666663
C73	C	-0.036470	0.899664	-0.000015
C74	C	0.296864	1.232998	0.333319
C75	C	0.630197	1.566331	0.666652
C76	C	-0.120488	0.898326	-0.000015
C77	C	0.212845	1.231659	0.333318
C78	C	0.546179	1.564992	0.666652
C79	C	-0.169110	0.966659	-0.000018
C80	C	0.164223	1.299993	0.333316
C81	C	0.497556	1.633326	0.666649
C82	C	-0.248054	0.965397	-0.000010
C83	C	0.085280	1.298730	0.333323
C84	C	0.418613	1.632064	0.666656
C85	C	-0.278373	0.895800	-0.000006
C86	C	0.054960	1.229134	0.333327
C87	C	0.388294	1.562467	0.666660
C88	C	-0.229744	0.827461	-0.000001
C89	C	0.103589	1.160795	0.333332
C90	C	0.436922	1.494128	0.666665
C91	C	-0.150803	0.828724	-0.000003
C92	C	0.182531	1.162058	0.333331
C93	C	0.515864	1.495391	0.666664
C94	C	-0.548107	0.822366	0.000005
C95	C	-0.214774	1.155699	0.333339
C96	C	0.118559	1.489033	0.666672
C97	C	-0.627055	0.821108	0.000004
C98	C	-0.293722	1.154442	0.333338
C99	C	0.039612	1.487775	0.666671
C100	C	-0.645358	0.959039	-0.000002
C101	C	-0.312025	1.292372	0.333331
C102	C	0.021308	1.625705	0.666665
C103	C	-0.566417	0.960302	-0.000003
C104	C	-0.233083	1.293635	0.333330
C105	C	0.100250	1.626968	0.666663
C106	C	-0.517795	0.891963	0.000006
C107	C	-0.184461	1.225297	0.333339
C108	C	0.148872	1.558630	0.666673
C109	C	-0.432196	0.893333	-0.000000
C110	C	-0.098862	1.226666	0.333333
C111	C	0.234471	1.559999	0.666666
C112	C	-0.363971	0.894430	-0.000006
C113	C	-0.030637	1.227763	0.333327
C114	C	0.302696	1.561097	0.666661
C115	C	0.240303	0.888104	0.000002
C116	C	0.573636	1.221437	0.333335
C117	C	0.906969	1.554771	0.666669
C118	C	0.324321	0.889443	0.000008
C119	C	0.657654	1.222776	0.333341
C120	C	0.990988	1.556109	0.666674
C121	C	0.096133	1.032271	-0.000008
C122	C	0.429467	1.365604	0.333325
C123	C	0.762800	1.698937	0.666659
C124	C	0.097470	1.116289	-0.000004
C125	C	0.430804	1.449622	0.333329
C126	C	0.764137	1.782956	0.666663
N127	N	0.101916	0.893870	-0.195673
N128	N	0.435249	1.227204	0.137660
N129	N	0.768582	1.560537	0.470993
C130	C	0.147763	0.939685	-0.238932
C131	C	0.481097	1.273019	0.094402
C132	C	0.814430	1.606352	0.427735
C133	C	0.147760	0.939693	-0.325479
C134	C	0.481094	1.273027	0.007855
C135	C	0.814427	1.606360	0.341188
C136	C	0.101913	0.893882	-0.368766
C137	C	0.435247	1.227215	-0.035433
C138	C	0.768580	1.560549	0.297901
C139	C	0.056060	0.848065	-0.325502
C140	C	0.389394	1.181398	0.007832
C141	C	0.722727	1.514732	0.341165
C142	C	0.056060	0.848062	-0.238956
C143	C	0.389393	1.181395	0.094377
C144	C	0.722726	1.514728	0.427711
C145	C	0.056061	0.848079	-0.674530
C146	C	0.389395	1.181412	-0.341196
C147	C	0.722728	1.514746	-0.007863
C148	C	0.056067	0.848084	-0.761081
C149	C	0.389401	1.181418	-0.427748
C150	C	0.722734	1.514751	-0.094415
C151	C	0.147762	0.939711	-0.761052
C152	C	0.481095	1.273044	-0.427719
C153	C	0.814429	1.606378	-0.094386
C154	C	0.147761	0.939707	-0.674507
C155	C	0.481095	1.273041	-0.341174
C156	C	0.814428	1.606374	-0.007840
C157	C	0.101906	0.893894	-0.631250
C158	C	0.435239	1.227227	-0.297917
C159	C	0.768572	1.560561	0.035417
C160	C	0.101908	0.893887	-0.537406
C161	C	0.435242	1.227220	-0.204073
C162	C	0.768575	1.560553	0.129261
C163	C	0.101914	0.893884	-0.462608
C164	C	0.435248	1.227218	-0.129275
C165	C	0.768581	1.560551	0.204058
N166	N	0.101911	0.893904	0.195659
N167	N	0.435245	1.227237	0.528992
N168	N	0.768578	1.560571	0.862325
H169	H	0.099890	0.266828	-0.135982
H170	H	0.433223	0.600162	0.197351
H171	H	0.766557	0.933495	0.530685
F172	F	0.097432	0.113763	0.154720
F173	F	0.430765	0.447096	0.488053
F174	F	0.764098	0.780429	0.821386
H175	H	-0.254436	0.770794	0.000007
H176	H	0.078897	1.104128	0.333340
H177	H	0.412230	1.437461	0.666674
H178	H	0.018723	0.810775	-0.639321
H179	H	0.352056	1.144109	-0.305987
H180	H	0.685389	1.477442	0.027346
F181	F	0.103763	0.511073	0.154716
F182	F	0.437097	0.844406	0.488049
F183	F	0.770430	1.177739	0.821383
H184	H	-0.111214	0.773080	-0.000001
H185	H	0.222119	1.106413	0.333333
H186	H	0.555452	1.439747	0.666666
F187	F	-0.299798	1.038127	-0.000014
F188	F	0.033535	1.371460	0.333319
F189	F	0.366868	1.704794	0.666652
H190	H	0.103939	0.520927	-0.135983
H191	H	0.437272	0.854260	0.197350
H192	H	0.770605	1.187593	0.530683
H193	H	0.185098	0.977016	-0.796282
H194	H	0.518431	1.310350	-0.462949
H195	H	0.851765	1.643683	-0.129616
H196	H	-0.651737	0.764431	0.000006
H197	H	-0.318404	1.097764	0.333339
H198	H	0.014929	1.431098	0.666673
F199	F	0.196559	0.988455	-0.371514
F200	F	0.529892	1.321788	-0.038180
F201	F	0.863226	1.655122	0.295153
H202	H	0.106254	0.664132	-0.135984
H203	H	0.439587	0.997465	0.197350
H204	H	0.772921	1.330799	0.530683
H205	H	0.106237	0.664157	0.135981
H206	H	0.439570	0.997490	0.469314
H207	H	0.772904	1.330823	0.802648
F208	F	0.196563	0.988443	-0.192870
F209	F	0.529896	1.321777	0.140464
F210	F	0.863229	1.655110	0.473797
H211	H	0.018727	0.810768	-0.360753
H212	H	0.352061	1.144102	-0.027420
H213	H	0.685394	1.477435	0.305914
F214	F	-0.496370	0.749634	0.000017
F215	F	-0.163037	1.082967	0.333351
F216	F	0.170296	1.416301	0.666684
H217	H	0.099872	0.266843	0.135983
H218	H	0.433205	0.600176	0.469316
H219	H	0.766538	0.933510	0.802650
H220	H	0.185098	0.977009	-0.639267
H221	H	0.518431	1.310342	-0.305933
H222	H	0.851764	1.643676	0.027400
H223	H	-0.541735	1.016974	-0.000011
H224	H	-0.208402	1.350308	0.333323
H225	H	0.124931	1.683641	0.666656
F226	F	0.007267	0.799324	-0.807149
F227	F	0.340601	1.132657	-0.473816
F228	F	0.673934	1.465990	-0.140483
F229	F	0.007256	0.799305	-0.192918
F230	F	0.340589	1.132639	0.140416
F231	F	0.673923	1.465972	0.473749
H232	H	-0.144431	1.023333	-0.000026
H233	H	0.188902	1.356666	0.333307
H234	H	0.522236	1.690000	0.666641
H235	H	0.097597	0.123608	-0.135983
H236	H	0.430930	0.456941	0.197351
H237	H	0.764264	0.790274	0.530684
H238	H	-0.684956	1.014683	-0.000005
H239	H	-0.351623	1.348016	0.333328
H240	H	-0.018289	1.681350	0.666661
