data_functionalizedCrystal
_audit_creation_method	'MofGen! by Chris Wilmer'
_symmetry_space_group_name_H-M	'P1'
_symmetry_Int_Tables_number	1
_symmetry_cell_setting	triclinic
loop_
_symmetry_equiv_pos_as_xyz
  x,y,z
_cell_length_a	12.759395
_cell_length_b	16.625546
_cell_length_c	12.759387
_cell_angle_alpha	89.964440
_cell_angle_beta	89.979491
_cell_angle_gamma	90.024005
loop_
_atom_site_label
_atom_site_type_symbol
_atom_site_fract_x
_atom_site_fract_y
_atom_site_fract_z
Zn1	Zn	1.606212	-0.320926	-0.593970
Zn2	Zn	2.106212	0.179074	-0.093970
Zn3	Zn	1.606079	-0.455781	-0.418276
Zn4	Zn	2.106079	0.044219	0.081724
Zn5	Zn	1.430510	-0.320970	-0.418307
Zn6	Zn	1.930510	0.179030	0.081693
Zn7	Zn	1.430479	-0.455724	-0.593915
Zn8	Zn	1.930479	0.044276	-0.093915
O9	O	1.518320	-0.388350	-0.506117
O10	O	2.018320	0.111650	-0.006117
O11	O	1.753215	-0.338820	-0.570674
O12	O	2.253215	0.161180	-0.070674
O13	O	1.582747	-0.437941	-0.271259
O14	O	2.082747	0.062059	0.228741
O15	O	1.453886	-0.208132	-0.441645
O16	O	1.953886	0.291868	0.058355
O17	O	1.753118	-0.437898	-0.441592
O18	O	2.253118	0.062102	0.058408
O19	O	1.582974	-0.208099	-0.570704
O20	O	2.082974	0.291901	-0.070704
O21	O	1.453757	-0.338895	-0.271282
O22	O	1.953757	0.161105	0.228718
O23	O	1.283485	-0.338840	-0.441592
O24	O	1.783485	0.161160	0.058408
O25	O	1.453833	-0.437800	-0.740944
O26	O	1.953833	0.062200	-0.240944
O27	O	1.283462	-0.437843	-0.570610
O28	O	1.783462	0.062157	-0.070610
O29	O	1.582943	-0.338765	-0.740984
O30	O	2.082943	0.161235	-0.240984
O31	O	1.582716	-0.568606	-0.441539
O32	O	2.082716	-0.068606	0.058461
O33	O	1.453704	-0.568564	-0.570580
O34	O	1.953704	-0.068564	-0.070580
C35	C	1.245352	-0.388341	-0.506099
C36	C	1.745352	0.111659	-0.006099
C37	C	1.128576	-0.388356	-0.506116
C38	C	1.628576	0.111644	-0.006116
C39	C	1.128590	-0.491615	-0.640246
C40	C	1.628590	0.008385	-0.140246
C41	C	1.073737	-0.543250	-0.707314
C42	C	1.573737	-0.043250	-0.207314
C43	C	0.964015	-0.543260	-0.707327
C44	C	1.464015	-0.043260	-0.207327
C45	C	0.909144	-0.491627	-0.640267
C46	C	1.409144	0.008373	-0.140267
C47	C	0.963998	-0.439991	-0.573199
C48	C	1.463998	0.060009	-0.073199
C49	C	1.073722	-0.439989	-0.573191
C50	C	1.573722	0.060011	-0.073191
C51	C	0.963984	-0.336730	-0.439076
C52	C	1.463984	0.163270	0.060924
C53	C	1.073705	-0.336723	-0.439056
C54	C	1.573705	0.163277	0.060944
C55	C	0.909113	-0.285096	-0.372016
C56	C	1.409113	0.214904	0.127984
C57	C	0.963967	-0.233463	-0.304942
C58	C	1.463967	0.266537	0.195058
C59	C	1.073695	-0.233456	-0.304931
C60	C	1.573695	0.266544	0.195069
C61	C	1.128559	-0.285087	-0.371989
C62	C	1.628559	0.214913	0.128011
C63	C	1.518220	-0.597841	-0.506073
C64	C	2.018220	-0.097841	-0.006073
C65	C	1.518274	-0.687462	-0.506090
C66	C	2.018274	-0.187462	-0.006090
C67	C	1.518457	-1.015638	-0.506199
C68	C	2.018457	-0.515638	-0.006199
C69	C	1.518403	-0.924329	-0.506171
C70	C	2.018403	-0.424329	-0.006171
C71	C	1.518365	-0.851553	-0.506144
C72	C	2.018365	-0.351553	-0.006144
C73	C	1.518312	-0.760239	-0.506117
C74	C	2.018312	-0.260239	-0.006117
C75	C	1.792353	-0.388361	-0.506136
C76	C	2.292353	0.111639	-0.006136
C77	C	1.909130	-0.388365	-0.506144
C78	C	2.409130	0.111635	-0.006144
C79	C	1.518399	-0.388271	-0.780151
C80	C	2.018399	0.111729	-0.280151
C81	C	1.518433	-0.388238	-0.896928
C82	C	2.018433	0.111762	-0.396928
C83	C	1.518448	-0.178041	-0.506184
C84	C	2.018448	0.321959	-0.006184
C85	C	1.518503	-0.088420	-0.506213
C86	C	2.018503	0.411580	-0.006213
C87	C	1.652885	-0.285119	-0.896990
C88	C	2.152885	0.214881	-0.396990
C89	C	1.720126	-0.233547	-0.951881
C90	C	2.220126	0.266453	-0.451881
C91	C	1.720151	-0.233518	-1.061603
C92	C	2.220151	0.266482	-0.561603
C93	C	1.652927	-0.285064	-1.116435
C94	C	2.152927	0.214936	-0.616435
C95	C	1.585686	-0.336635	-1.061544
C96	C	2.085686	0.163365	-0.561544
C97	C	1.585670	-0.336661	-0.951819
C98	C	2.085670	0.163339	-0.451819
C99	C	1.451230	-0.439749	-1.061482
C100	C	1.951230	0.060251	-0.561482
C101	C	1.451209	-0.439784	-0.951760
C102	C	1.951209	0.060216	-0.451760
C103	C	1.384006	-0.491295	-1.116314
C104	C	1.884006	0.008705	-0.616314
C105	C	1.316769	-0.542872	-1.061422
C106	C	1.816769	-0.042872	-0.561422
C107	C	1.316747	-0.542900	-0.951694
C108	C	1.816747	-0.042900	-0.451694
C109	C	1.383968	-0.491355	-0.896868
C110	C	1.883968	0.008645	-0.396868
C111	C	1.518301	-0.388371	-0.233150
C112	C	2.018301	0.111629	0.266850
C113	C	1.518471	-0.388177	-0.116374
C114	C	2.018471	0.111823	0.383626
H115	H	1.217900	-0.285088	-0.371983
H116	H	1.717900	0.214912	0.128017
N117	N	1.129725	-0.180697	-0.236440
N118	N	1.629725	0.319303	0.263560
N119	N	1.117506	-0.106304	-0.243605
N120	N	1.617506	0.393696	0.256395
H121	H	1.157075	-0.069040	-0.195235
H122	H	1.657075	0.430960	0.304765
H123	H	1.261980	-0.584887	-0.907008
H124	H	1.761980	-0.084887	-0.407008
N125	N	1.652884	-0.285146	-0.784912
N126	N	2.152884	0.214854	-0.284912
N127	N	1.712910	-0.239126	-0.735968
N128	N	2.212910	0.260874	-0.235968
H129	H	1.712911	-0.239143	-0.656812
H130	H	2.212911	0.260857	-0.156812
N131	N	0.797036	-0.285108	-0.372048
N132	N	1.297036	0.214892	0.127952
N133	N	0.748070	-0.331214	-0.431933
N134	N	1.248070	0.168786	0.068067
H135	H	0.668913	-0.331223	-0.431954
H136	H	1.168913	0.168777	0.068046
N137	N	1.788778	-0.180897	-0.895855
N138	N	2.288778	0.319103	-0.395855
N139	N	1.788750	-0.180927	-0.797890
N140	N	2.288750	0.319073	-0.297890
H141	H	1.837234	-0.143741	-0.758322
H142	H	2.337234	0.356259	-0.258322
H143	H	1.774898	-0.191519	-1.106296
H144	H	2.274898	0.308481	-0.606296
N145	N	1.383949	-0.491365	-0.784791
N146	N	1.883949	0.008635	-0.284791
N147	N	1.362032	-0.428473	-0.735848
N148	N	1.862032	0.071527	-0.235848
H149	H	1.362018	-0.428475	-0.656692
H150	H	1.862018	0.071525	-0.156692
H151	H	1.384028	-0.491264	-1.205655
H152	H	1.884028	0.008736	-0.705655
H153	H	1.118424	-0.585288	-0.761914
H154	H	1.618424	-0.085288	-0.261914
N155	N	1.240667	-0.491627	-0.640232
N156	N	1.740667	0.008373	-0.140232
N157	N	1.289646	-0.537733	-0.700101
N158	N	1.789646	-0.037733	-0.200101
H159	H	1.368802	-0.537745	-0.700092
H160	H	1.868802	-0.037745	-0.200092
N161	N	1.652924	-0.285037	-1.228513
N162	N	2.152924	0.214963	-0.728513
N163	N	1.570986	-0.268166	-1.277472
N164	N	2.070986	0.231834	-0.777472
H165	H	1.570981	-0.268149	-1.356629
H166	H	2.070981	0.231851	-0.856629
H167	H	0.919353	-0.585302	-0.761944
H168	H	1.419353	-0.085302	-0.261944
H169	H	1.262035	-0.584832	-1.106076
H170	H	1.762035	-0.084832	-0.606076
N171	N	0.797067	-0.491620	-0.640307
N172	N	1.297067	0.008380	-0.140307
N173	N	0.748154	-0.474843	-0.722315
N174	N	1.248154	0.025157	-0.222315
H175	H	0.668998	-0.474836	-0.722347
H176	H	1.168998	0.025164	-0.222347
N177	N	0.907903	-0.180725	-0.236465
N178	N	1.407903	0.319275	0.263535
N179	N	0.809938	-0.180734	-0.236496
N180	N	1.309938	0.319266	0.263504
H181	H	0.770338	-0.143487	-0.188134
H182	H	1.270338	0.356513	0.311866
