data_functionalizedCrystal
_audit_creation_method	'MofGen! by Chris Wilmer'
_symmetry_space_group_name_H-M	'P1'
_symmetry_Int_Tables_number	1
_symmetry_cell_setting	triclinic
loop_
_symmetry_equiv_pos_as_xyz
  x,y,z
_cell_length_a	18.215407
_cell_length_b	29.839131
_cell_length_c	18.215407
_cell_angle_alpha	90.015142
_cell_angle_beta	90.010236
_cell_angle_gamma	90.041868
loop_
_atom_site_label
_atom_site_type_symbol
_atom_site_fract_x
_atom_site_fract_y
_atom_site_fract_z
Zn1	Zn	1.124918	-0.178922	0.416101
Zn2	Zn	1.374918	0.071078	0.666101
Zn3	Zn	1.624918	0.321078	0.916101
Zn4	Zn	1.874918	0.571078	1.166101
Zn5	Zn	1.124811	-0.254031	0.293028
Zn6	Zn	1.374811	-0.004031	0.543028
Zn7	Zn	1.624811	0.245969	0.793028
Zn8	Zn	1.874811	0.495969	1.043028
Zn9	Zn	1.001871	-0.178916	0.293048
Zn10	Zn	1.251871	0.071084	0.543048
Zn11	Zn	1.501871	0.321084	0.793048
Zn12	Zn	1.751871	0.571084	1.043048
Zn13	Zn	1.001781	-0.254027	0.416053
Zn14	Zn	1.251781	-0.004027	0.666053
Zn15	Zn	1.501781	0.245973	0.916053
Zn16	Zn	1.751781	0.495973	1.166053
O17	O	1.063345	-0.216474	0.354557
O18	O	1.313345	0.033526	0.604557
O19	O	1.563345	0.283526	0.854557
O20	O	1.813345	0.533526	1.104557
O21	O	1.227888	-0.188890	0.399786
O22	O	1.477888	0.061110	0.649786
O23	O	1.727888	0.311110	0.899786
O24	O	1.977888	0.561110	1.149786
O25	O	1.108496	-0.244066	0.190047
O26	O	1.358496	0.005934	0.440047
O27	O	1.608496	0.255934	0.690047
O28	O	1.858496	0.505934	0.940047
O29	O	1.018276	-0.116050	0.309400
O30	O	1.268276	0.133950	0.559400
O31	O	1.518276	0.383950	0.809400
O32	O	1.768276	0.633950	1.059400
O33	O	1.227810	-0.244072	0.309366
O34	O	1.477810	0.005928	0.559366
O35	O	1.727810	0.255928	0.809366
O36	O	1.977810	0.505928	1.059366
O37	O	1.108678	-0.116054	0.399806
O38	O	1.358678	0.133946	0.649806
O39	O	1.608678	0.383946	0.899806
O40	O	1.858678	0.633946	1.149806
O41	O	1.018172	-0.188880	0.190061
O42	O	1.268172	0.061120	0.440061
O43	O	1.518172	0.311120	0.690061
O44	O	1.768172	0.561120	0.940061
O45	O	0.898875	-0.188876	0.309353
O46	O	1.148875	0.061124	0.559353
O47	O	1.398875	0.311124	0.809353
O48	O	1.648875	0.561124	1.059353
O49	O	1.018122	-0.244065	0.519044
O50	O	1.268122	0.005935	0.769044
O51	O	1.518122	0.255935	1.019044
O52	O	1.768122	0.505935	1.269044
O53	O	0.898808	-0.244059	0.399724
O54	O	1.148808	0.005941	0.649724
O55	O	1.398808	0.255941	0.899724
O56	O	1.648808	0.505941	1.149724
O57	O	1.108590	-0.188886	0.519079
O58	O	1.358590	0.061114	0.769079
O59	O	1.608590	0.311114	1.019079
O60	O	1.858590	0.561114	1.269079
O61	O	1.108409	-0.316898	0.309319
O62	O	1.358409	-0.066898	0.559319
O63	O	1.608409	0.183102	0.809319
O64	O	1.858409	0.433102	1.059319
O65	O	1.018019	-0.316894	0.399705
O66	O	1.268019	-0.066894	0.649705
O67	O	1.518019	0.183106	0.899705
O68	O	1.768019	0.433106	1.149705
C69	C	0.872139	-0.216466	0.354536
C70	C	1.122139	0.033534	0.604536
C71	C	1.372139	0.283534	0.854536
C72	C	1.622139	0.533534	1.104536
C73	C	0.790340	-0.216474	0.354545
C74	C	1.040340	0.033526	0.604545
C75	C	1.290340	0.283526	0.854545
C76	C	1.540340	0.533526	1.104545
C77	C	0.602131	-0.245253	0.401542
C78	C	0.852131	0.004747	0.651542
C79	C	1.102131	0.254747	0.901542
C80	C	1.352131	0.504747	1.151542
C81	C	0.525272	-0.245254	0.401551
C82	C	0.775272	0.004746	0.651551
C83	C	1.025272	0.254746	0.901551
C84	C	1.275272	0.504746	1.151551
C85	C	0.525311	-0.187703	0.307589
C86	C	0.775311	0.062297	0.557589
C87	C	1.025311	0.312297	0.807589
C88	C	1.275311	0.562297	1.057589
C89	C	0.602169	-0.187700	0.307584
C90	C	0.852169	0.062300	0.557584
C91	C	1.102169	0.312300	0.807584
C92	C	1.352169	0.562300	1.057584
C93	C	0.640576	-0.216477	0.354559
C94	C	0.890576	0.033523	0.604559
C95	C	1.140576	0.283523	0.854559
C96	C	1.390576	0.533523	1.104559
C97	C	0.486860	-0.216482	0.354574
C98	C	0.736860	0.033518	0.604574
C99	C	0.986860	0.283518	0.854574
C100	C	1.236860	0.533518	1.104574
C101	C	0.403527	-0.216483	0.354583
C102	C	0.653527	0.033517	0.604583
C103	C	0.903527	0.283517	0.854583
C104	C	1.153527	0.533517	1.104583
C105	C	0.723915	-0.216476	0.354551
C106	C	0.973915	0.033524	0.604551
C107	C	1.223915	0.283524	0.854551
C108	C	1.473915	0.533524	1.104551
C109	C	1.063212	-0.333197	0.354521
C110	C	1.313212	-0.083197	0.604521
C111	C	1.563212	0.166803	0.854521
C112	C	1.813212	0.416803	1.104521
C113	C	1.063223	-0.383131	0.354530
C114	C	1.313223	-0.133131	0.604530
C115	C	1.563223	0.116869	0.854530
C116	C	1.813223	0.366869	1.104530
C117	C	1.110497	-0.692764	0.307562
C118	C	1.360497	-0.442764	0.557562
C119	C	1.610497	-0.192764	0.807562
C120	C	1.860497	0.057236	1.057562
C121	C	1.110588	-0.880437	0.307591
C122	C	1.360588	-0.630437	0.557591
C123	C	1.610588	-0.380437	0.807591
C124	C	1.860588	-0.130437	1.057591
O125	O	1.150676	-0.904692	0.267629
O126	O	1.400676	-0.654692	0.517629
O127	O	1.650676	-0.404692	0.767629
O128	O	1.900676	-0.154692	1.017629
N129	N	1.063498	-0.903916	0.354613
N130	N	1.313498	-0.653916	0.604613
N131	N	1.563498	-0.403916	0.854613
N132	N	1.813498	-0.153916	1.104613
C133	C	1.016385	-0.880475	0.401635
C134	C	1.266385	-0.630475	0.651635
C135	C	1.516385	-0.380475	0.901635
C136	C	1.766385	-0.130475	1.151635
O137	O	0.976340	-0.904752	0.441636
O138	O	1.226340	-0.654752	0.691636
O139	O	1.476340	-0.404752	0.941636
O140	O	1.726340	-0.154752	1.191636
C141	C	1.016299	-0.692802	0.401609
C142	C	1.266299	-0.442802	0.651609
C143	C	1.516299	-0.192802	0.901609
C144	C	1.766299	0.057198	1.151609
C145	C	1.063386	-0.669325	0.354579
C146	C	1.313386	-0.419325	0.604579
C147	C	1.563386	-0.169325	0.854579
C148	C	1.813386	0.080675	1.104579
C149	C	1.157581	-0.669286	0.260536
C150	C	1.407581	-0.419286	0.510536
C151	C	1.657581	-0.169286	0.760536
C152	C	1.907581	0.080714	1.010536
C153	C	1.157555	-0.622371	0.260527
C154	C	1.407555	-0.372371	0.510527
C155	C	1.657555	-0.122371	0.760527
C156	C	1.907555	0.127629	1.010527
C157	C	1.110445	-0.598933	0.307543
C158	C	1.360445	-0.348933	0.557543
C159	C	1.610445	-0.098933	0.807543
C160	C	1.860445	0.151067	1.057543
C161	C	1.063360	-0.622410	0.354569
C162	C	1.313360	-0.372410	0.604569
C163	C	1.563360	-0.122410	0.854569
C164	C	1.813360	0.127590	1.104569
C165	C	0.969190	-0.669362	0.448634
C166	C	1.219190	-0.419362	0.698634
C167	C	1.469190	-0.169362	0.948634
C168	C	1.719190	0.080638	1.198634
C169	C	0.969174	-0.622441	0.448625
C170	C	1.219174	-0.372441	0.698625
C171	C	1.469174	-0.122441	0.948625
C172	C	1.719174	0.127559	1.198625
C173	C	1.016262	-0.598964	0.401594
C174	C	1.266262	-0.348964	0.651594
C175	C	1.516262	-0.098964	0.901594
C176	C	1.766262	0.151036	1.151594
C177	C	1.016224	-0.552056	0.401576
C178	C	1.266224	-0.302056	0.651576
C179	C	1.516224	-0.052056	0.901576
C180	C	1.766224	0.197944	1.151576
N181	N	1.063314	-0.528577	0.354554
N182	N	1.313314	-0.278577	0.604554
N183	N	1.563314	-0.028577	0.854554
N184	N	1.813314	0.221423	1.104554
C185	C	1.110424	-0.552015	0.307538
C186	C	1.360424	-0.302015	0.557538
C187	C	1.610424	-0.052015	0.807538
C188	C	1.860424	0.197985	1.057538
C189	C	1.016433	-0.979005	0.401644
C190	C	1.266433	-0.729005	0.651644
C191	C	1.516433	-0.479005	0.901644
C192	C	1.766433	-0.229005	1.151644
C193	C	1.016453	-1.025923	0.401649
C194	C	1.266453	-0.775923	0.651649
C195	C	1.516453	-0.525923	0.901649
C196	C	1.766453	-0.275923	1.151649
C197	C	1.110657	-1.025882	0.307606
C198	C	1.360657	-0.775882	0.557606
C199	C	1.610657	-0.525882	0.807606
C200	C	1.860657	-0.275882	1.057606
C201	C	1.110632	-0.978963	0.307597
C202	C	1.360632	-0.728963	0.557597
C203	C	1.610632	-0.478963	0.807597
C204	C	1.860632	-0.228963	1.057597
C205	C	1.063523	-0.955526	0.354622
C206	C	1.313523	-0.705526	0.604622
C207	C	1.563523	-0.455526	0.854622
C208	C	1.813523	-0.205526	1.104622
C209	C	1.110365	-0.453489	0.307521
C210	C	1.360365	-0.203489	0.557521
C211	C	1.610365	0.046511	0.807521
C212	C	1.860365	0.296511	1.057521
C213	C	1.110333	-0.406569	0.307513
C214	C	1.360333	-0.156569	0.557513
C215	C	1.610333	0.093431	0.807513
C216	C	1.860333	0.343431	1.057513
C217	C	1.016133	-0.406615	0.401559
C218	C	1.266133	-0.156615	0.651559
C219	C	1.516133	0.093385	0.901559
C220	C	1.766133	0.343385	1.151559
C221	C	1.016162	-0.453530	0.401564
C222	C	1.266162	-0.203530	0.651564
C223	C	1.516162	0.046470	0.901564
C224	C	1.766162	0.296470	1.151564
C225	C	1.063284	-0.476966	0.354542
C226	C	1.313284	-0.226966	0.604542
C227	C	1.563284	0.023034	0.854542
C228	C	1.813284	0.273034	1.104542
O229	O	0.976162	-0.527772	0.441523
O230	O	1.226162	-0.277772	0.691523
O231	O	1.476162	-0.027772	0.941523
O232	O	1.726162	0.222228	1.191523
O233	O	1.150475	-0.527730	0.267554
O234	O	1.400475	-0.277730	0.517554
O235	O	1.650475	-0.027730	0.767554
O236	O	1.900475	0.222270	1.017554
C237	C	1.110523	-0.739679	0.307572
C238	C	1.360523	-0.489679	0.557572
C239	C	1.610523	-0.239679	0.807572
C240	C	1.860523	0.010321	1.057572
C241	C	1.063438	-0.763156	0.354598
C242	C	1.313438	-0.513156	0.604598
C243	C	1.563438	-0.263156	0.854598
C244	C	1.813438	-0.013156	1.104598
C245	C	1.016328	-0.739718	0.401614
C246	C	1.266328	-0.489718	0.651614
C247	C	1.516328	-0.239718	0.901614
C248	C	1.766328	0.010282	1.151614
C249	C	1.063459	-0.810074	0.354603
C250	C	1.313459	-0.560074	0.604603
C251	C	1.563459	-0.310074	0.854603
C252	C	1.813459	-0.060074	1.104603
C253	C	1.110569	-0.833512	0.307587
C254	C	1.360569	-0.583512	0.557587
C255	C	1.610569	-0.333512	0.807587
C256	C	1.860569	-0.083512	1.057587
C257	C	1.157659	-0.810033	0.260565
C258	C	1.407659	-0.560033	0.510565
C259	C	1.657659	-0.310033	0.760565
C260	C	1.907659	-0.060033	1.010565
C261	C	1.157633	-0.763117	0.260555
C262	C	1.407633	-0.513117	0.510555
C263	C	1.657633	-0.263117	0.760555
C264	C	1.907633	-0.013117	1.010555
C265	C	0.969238	-0.763197	0.448636
C266	C	1.219238	-0.513197	0.698636
C267	C	1.469238	-0.263197	0.948636
C268	C	1.719238	-0.013197	1.198636
C269	C	0.969267	-0.810113	0.448641
C270	C	1.219267	-0.560113	0.698641
C271	C	1.469267	-0.310113	0.948641
C272	C	1.719267	-0.060113	1.198641
C273	C	1.016378	-0.833551	0.401625
C274	C	1.266378	-0.583551	0.651625
C275	C	1.516378	-0.333551	0.901625
C276	C	1.766378	-0.083551	1.151625
C277	C	1.255298	-0.216482	0.354579
C278	C	1.505298	0.033518	0.604579
C279	C	1.755298	0.283518	0.854579
C280	C	2.005298	0.533518	1.104579
C281	C	1.337097	-0.216486	0.354588
C282	C	1.587097	0.033514	0.604588
C283	C	1.837097	0.283514	0.854588
C284	C	2.087097	0.533514	1.104588
C285	C	1.063358	-0.216475	0.546510
C286	C	1.313358	0.033525	0.796510
C287	C	1.563358	0.283525	1.046510
C288	C	1.813358	0.533525	1.296510
C289	C	1.063363	-0.216476	0.628309
C290	C	1.313363	0.033524	0.878309
C291	C	1.563363	0.283524	1.128309
C292	C	1.813363	0.533524	1.378309
C293	C	1.063498	-0.099296	0.354610
C294	C	1.313498	0.150704	0.604610
C295	C	1.563498	0.400704	0.854610
C296	C	1.813498	0.650704	1.104610
C297	C	1.063564	-0.049361	0.354633
C298	C	1.313564	0.200639	0.604633
C299	C	1.563564	0.450639	0.854633
C300	C	1.813564	0.700639	1.104633
C301	C	1.110455	-0.187749	0.816523
C302	C	1.360455	0.062251	1.066523
C303	C	1.610455	0.312251	1.316523
C304	C	1.860455	0.562251	1.566523
C305	C	1.110451	-0.187749	0.893381
C306	C	1.360451	0.062251	1.143381
C307	C	1.610451	0.312251	1.393381
C308	C	1.860451	0.562251	1.643381
C309	C	1.016247	-0.245209	0.893334
C310	C	1.266247	0.004791	1.143334
C311	C	1.516247	0.254791	1.393334
C312	C	1.766247	0.504791	1.643334
C313	C	1.016248	-0.245207	0.816476
C314	C	1.266248	0.004793	1.066476
C315	C	1.516248	0.254793	1.316476
C316	C	1.766248	0.504793	1.566476
C317	C	1.063356	-0.216477	0.778073
C318	C	1.313356	0.033523	1.028073
C319	C	1.563356	0.283523	1.278073
C320	C	1.813356	0.533523	1.528073
C321	C	1.063351	-0.216480	0.931789
C322	C	1.313351	0.033520	1.181789
C323	C	1.563351	0.283520	1.431789
C324	C	1.813351	0.533520	1.681789
C325	C	1.063346	-0.216480	1.015122
C326	C	1.313346	0.033520	1.265122
C327	C	1.563346	0.283520	1.515122
C328	C	1.813346	0.533520	1.765122
C329	C	1.063360	-0.216477	0.694734
C330	C	1.313360	0.033523	0.944734
C331	C	1.563360	0.283523	1.194734
C332	C	1.813360	0.533523	1.444734
C333	C	1.063333	-0.216483	1.163351
C334	C	1.313333	0.033517	1.413351
C335	C	1.563333	0.283517	1.663351
C336	C	1.813333	0.533517	1.913351
C337	C	1.063344	-0.216481	1.081552
C338	C	1.313344	0.033519	1.331552
C339	C	1.563344	0.283519	1.581552
C340	C	1.813344	0.533519	1.831552
H341	H	0.493973	-0.268686	0.439810
H342	H	0.743973	-0.018686	0.689810
H343	H	0.993973	0.231314	0.939810
H344	H	1.243973	0.481314	1.189810
F345	F	0.643004	-0.275879	0.451539
F346	F	0.893004	-0.025879	0.701539
F347	F	1.143004	0.224121	0.951539
F348	F	1.393004	0.474121	1.201539
H349	H	0.930876	-0.744118	0.486924
H350	H	1.180876	-0.494118	0.736924
H351	H	1.430876	-0.244118	0.986924
H352	H	1.680876	0.005882	1.236924
F353	F	0.966033	-0.478517	0.451605
F354	F	1.216033	-0.228517	0.701605
F355	F	1.466033	0.021483	0.951605
F356	F	1.716033	0.271483	1.201605
H357	H	0.494031	-0.164275	0.269342
H358	H	0.744031	0.085725	0.519342
H359	H	0.994031	0.335725	0.769342
H360	H	1.244031	0.585725	1.019342
F361	F	0.643088	-0.157069	0.257580
F362	F	0.893088	0.092931	0.507580
F363	F	1.143088	0.342931	0.757580
F364	F	1.393088	0.592931	1.007580
F365	F	0.965999	-0.381662	0.451597
F366	F	1.215999	-0.131662	0.701597
F367	F	1.465999	0.118338	0.951597
F368	F	1.715999	0.368338	1.201597
H369	H	0.930843	-0.688469	0.486928
H370	H	1.180843	-0.438469	0.736928
H371	H	1.430843	-0.188469	0.986928
H372	H	1.680843	0.061531	1.236928
F373	F	1.207796	-0.834986	0.210524
F374	F	1.457796	-0.584986	0.460524
F375	F	1.707796	-0.334986	0.710524
F376	F	1.957796	-0.084986	0.960524
F377	F	0.966116	-0.275785	0.934212
F378	F	1.216116	-0.025785	1.184212
F379	F	1.466116	0.224215	1.434212
F380	F	1.716116	0.474215	1.684212
F381	F	0.919144	-0.835094	0.498700
F382	F	1.169144	-0.585094	0.748700
F383	F	1.419144	-0.335094	0.998700
F384	F	1.669144	-0.085094	1.248700
H385	H	0.977889	-0.268601	0.785170
H386	H	1.227889	-0.018601	1.035170
H387	H	1.477889	0.231399	1.285170
H388	H	1.727889	0.481399	1.535170
H389	H	0.978103	-1.045034	0.439939
H390	H	1.228103	-0.795034	0.689939
H391	H	1.478103	-0.545034	0.939939
H392	H	1.728103	-0.295034	1.189939
F393	F	1.160590	-0.157171	0.775653
F394	F	1.410590	0.092829	1.025653
F395	F	1.660590	0.342829	1.275653
F396	F	1.910590	0.592829	1.525653
H397	H	1.148677	-0.387456	0.269213
H398	H	1.398677	-0.137456	0.519213
H399	H	1.648677	0.112544	0.769213
H400	H	1.898677	0.362544	1.019213
H401	H	1.148739	-0.472565	0.269233
H402	H	1.398739	-0.222565	0.519233
H403	H	1.648739	0.027435	0.769233
H404	H	1.898739	0.277435	1.019233
H405	H	1.195900	-0.603258	0.222233
H406	H	1.445900	-0.353258	0.472233
H407	H	1.695900	-0.103258	0.722233
H408	H	1.945900	0.146742	0.972233
H409	H	1.195948	-0.688365	0.222250
H410	H	1.445948	-0.438365	0.472250
H411	H	1.695948	-0.188365	0.722250
H412	H	1.945948	0.061635	0.972250
F413	F	1.160749	-0.953981	0.257542
F414	F	1.410749	-0.703981	0.507542
F415	F	1.660749	-0.453981	0.757542
F416	F	1.910749	-0.203981	1.007542
H417	H	1.149016	-1.044973	0.269324
H418	H	1.399016	-0.794973	0.519324
H419	H	1.649016	-0.544973	0.769324
H420	H	1.899016	-0.294973	1.019324
F421	F	0.966288	-0.954067	0.451696
F422	F	1.216288	-0.704067	0.701696
F423	F	1.466288	-0.454067	0.951696
F424	F	1.716288	-0.204067	1.201696
H425	H	0.930813	-0.603360	0.486920
H426	H	1.180813	-0.353360	0.736920
H427	H	1.430813	-0.103360	0.986920
H428	H	1.680813	0.146640	1.236920
H429	H	1.195977	-0.744005	0.222259
H430	H	1.445977	-0.494005	0.472259
H431	H	1.695977	-0.244005	0.722259
H432	H	1.945977	0.005995	0.972259
H433	H	1.148803	-0.164354	0.924684
H434	H	1.398803	0.085646	1.174684
H435	H	1.648803	0.335646	1.424684
H436	H	1.898803	0.585646	1.674684
