data_functionalizedCrystal
_audit_creation_method	'MofGen! by Chris Wilmer'
_symmetry_space_group_name_H-M	'P1'
_symmetry_Int_Tables_number	1
_symmetry_cell_setting	triclinic
loop_
_symmetry_equiv_pos_as_xyz
  x,y,z
_cell_length_a	11.792241
_cell_length_b	11.792241
_cell_length_c	9.730223
_cell_angle_alpha	89.995675
_cell_angle_beta	90.000450
_cell_angle_gamma	84.193416
loop_
_atom_site_label
_atom_site_type_symbol
_atom_site_fract_x
_atom_site_fract_y
_atom_site_fract_z
O1	O	1.506908	0.155567	-0.114157
O2	O	1.176567	0.171600	-0.114189
O3	O	1.349754	-0.001587	-0.114163
O4	O	1.333721	0.328754	-0.114183
O5	O	1.349741	-0.001591	0.114417
O6	O	1.176554	0.171596	0.114391
O7	O	1.506895	0.155563	0.114423
Zn8	Zn	1.341722	0.163579	0.150699
Zn9	Zn	1.341739	0.163584	-0.150465
O10	O	1.333708	0.328750	0.114396
C11	C	1.134269	0.170591	0.000097
C12	C	1.008255	0.167576	0.000085
C13	C	1.348740	-0.043880	0.000127
C14	C	1.345726	-0.169894	0.000125
C15	C	0.777543	0.162034	0.000125
C16	C	0.905928	0.165113	0.000103
C17	C	1.340183	-0.400606	0.000102
C18	C	1.343262	-0.272221	0.000114
C19	C	1.549192	0.156572	0.000134
C20	C	1.675206	0.159587	0.000137
C21	C	1.334721	0.371043	0.000104
C22	C	1.337736	0.497057	0.000097
N23	N	1.341719	0.163575	0.356235
C24	C	1.418432	0.086920	0.428173
C25	C	1.418442	0.086921	0.572056
C26	C	1.265023	0.240241	0.572051
C27	C	1.265008	0.240234	0.428171
N28	N	1.341744	0.163583	0.643999
H29	H	1.480893	0.024498	0.369607
O30	O	1.492855	0.012504	0.642148
C31	C	1.476440	0.028960	0.784568
H32	H	1.386465	0.070768	0.804226
H33	H	1.488554	-0.056911	0.839258
H34	H	1.541027	0.086326	0.825382
H35	H	1.202568	0.302657	0.630635
O36	O	1.190443	0.314811	0.358494
C37	C	1.122727	0.382461	0.452835
H38	H	1.169275	0.384070	0.555392
H39	H	1.105957	0.472985	0.411243
H40	H	1.038194	0.345035	0.468157
