data_functionalizedCrystal
_audit_creation_method	'MofGen! by Chris Wilmer'
_symmetry_space_group_name_H-M	'P1'
_symmetry_Int_Tables_number	1
_symmetry_cell_setting	triclinic
loop_
_symmetry_equiv_pos_as_xyz
  x,y,z
_cell_length_a	18.101395
_cell_length_b	18.101398
_cell_length_c	12.645324
_cell_angle_alpha	90.018144
_cell_angle_beta	89.964837
_cell_angle_gamma	89.970320
loop_
_atom_site_label
_atom_site_type_symbol
_atom_site_fract_x
_atom_site_fract_y
_atom_site_fract_z
Zn1	Zn	-0.294802	-1.132149	-0.599285
Zn2	Zn	0.205198	-0.632149	-0.099285
Zn3	Zn	-0.418667	-1.132036	-0.422014
Zn4	Zn	0.081333	-0.632036	0.077986
Zn5	Zn	-0.294841	-1.008299	-0.422044
Zn6	Zn	0.205159	-0.508299	0.077956
Zn7	Zn	-0.418603	-1.008258	-0.599245
Zn8	Zn	0.081397	-0.508258	-0.099245
O9	O	-0.356728	-1.070186	-0.510647
O10	O	0.143272	-0.570186	-0.010647
O11	O	-0.311243	-1.235767	-0.575774
O12	O	0.188757	-0.735767	-0.075774
O13	O	-0.402284	-1.115592	-0.273671
O14	O	0.097716	-0.615592	0.226329
O15	O	-0.191203	-1.024792	-0.445585
O16	O	0.308797	-0.524792	0.054415
O17	O	-0.402246	-1.235684	-0.445534
O18	O	0.097754	-0.735684	0.054466
O19	O	-0.191174	-1.115784	-0.575803
O20	O	0.308826	-0.615784	-0.075803
O21	O	-0.311310	-1.024683	-0.273693
O22	O	0.188690	-0.524683	0.226307
O23	O	-0.311247	-0.904661	-0.445546
O24	O	0.188753	-0.404661	0.054454
O25	O	-0.402137	-1.024722	-0.747597
O26	O	0.097863	-0.524722	-0.247597
O27	O	-0.402175	-0.904631	-0.575734
O28	O	0.097825	-0.404631	-0.075734
O29	O	-0.311181	-1.115744	-0.747627
O30	O	0.188819	-0.615744	-0.247627
O31	O	-0.522291	-1.115553	-0.445495
O32	O	-0.022291	-0.615553	0.054505
O33	O	-0.522244	-1.024613	-0.575706
O34	O	-0.022244	-0.524613	-0.075706
C35	C	-0.356709	-0.877775	-0.510640
C36	C	0.143291	-0.377775	-0.010640
C37	C	-0.356719	-0.795461	-0.510662
C38	C	0.143281	-0.295461	-0.010662
C39	C	-0.549139	-1.070086	-0.510616
C40	C	-0.049139	-0.570086	-0.010616
C41	C	-0.631453	-1.070112	-0.510638
C42	C	-0.131453	-0.570112	-0.010638
C43	C	-0.356734	-0.644753	-0.510660
C44	C	0.143266	-0.144753	-0.010660
C45	C	-0.414031	-0.613405	-0.592444
C46	C	0.085969	-0.113405	-0.092444
C47	C	-0.414264	-0.527786	-0.592202
C48	C	0.085736	-0.027786	-0.092202
C49	C	-0.356748	-0.496370	-0.510660
C50	C	0.143252	0.003630	-0.010660
C51	C	-0.377586	-0.527418	-0.398803
C52	C	0.122414	-0.027418	0.101197
C53	C	-0.377994	-0.613063	-0.399276
C54	C	0.122006	-0.113063	0.100724
C55	C	-0.278456	-0.613233	-0.539756
C56	C	0.221544	-0.113233	-0.039756
C57	C	-0.278886	-0.527583	-0.542219
C58	C	0.221114	-0.027583	-0.042219
C59	C	-0.356755	-0.412510	-0.510653
C60	C	0.143245	0.087490	-0.010653
C61	C	-0.356728	-0.728612	-0.510659
C62	C	0.143272	-0.228612	-0.010659
C63	C	-0.930543	-1.070274	-0.510695
C64	C	-0.430543	-0.570274	-0.010695
C65	C	-0.899219	-1.013191	-0.592823
C66	C	-0.399219	-0.513191	-0.092823
C67	C	-0.813602	-1.012919	-0.592566
C68	C	-0.313602	-0.512919	-0.092566
C69	C	-0.782161	-1.070194	-0.510668
C70	C	-0.282161	-0.570194	-0.010668
C71	C	-0.813323	-1.049059	-0.398945
C72	C	-0.313323	-0.549059	0.101055
C73	C	-0.898968	-1.048691	-0.399436
C74	C	-0.398968	-0.548691	0.100564
C75	C	-0.898886	-1.148617	-0.539307
C76	C	-0.398886	-0.648617	-0.039307
C77	C	-0.813235	-1.148157	-0.541757
C78	C	-0.313235	-0.648157	-0.041757
C79	C	-0.698302	-1.070149	-0.510645
C80	C	-0.198302	-0.570149	-0.010645
C81	C	-1.014403	-1.070317	-0.510710
C82	C	-0.514403	-0.570317	-0.010710
C83	C	-0.163566	-1.070305	-0.510702
C84	C	0.336434	-0.570305	-0.010702
C85	C	-0.081252	-1.070356	-0.510725
C86	C	0.418748	-0.570356	-0.010725
C87	C	-0.356647	-1.070241	-0.787153
C88	C	0.143353	-0.570241	-0.287153
C89	C	-0.356613	-1.070265	-0.904983
C90	C	0.143387	-0.570265	-0.404983
C91	C	-0.356749	-0.263347	-0.510655
C92	C	0.143251	0.236653	-0.010655
C93	C	-0.356763	-0.345662	-0.510658
C94	C	0.143237	0.154338	-0.010658
C95	C	-0.299558	-1.127749	-1.072565
C96	C	0.200442	-0.627749	-0.572565
C97	C	-0.299352	-1.127565	-0.950005
C98	C	0.200648	-0.627565	-0.450005
C99	C	-0.335404	-0.992251	-0.949472
C100	C	0.164596	-0.492251	-0.449472
C101	C	-0.334970	-0.992600	-1.072070
C102	C	0.165030	-0.492600	-0.572070
C103	C	-0.434961	-1.090161	-1.072172
C104	C	0.065039	-0.590161	-0.572172
C105	C	-0.434567	-1.091868	-0.949566
C106	C	0.065433	-0.591868	-0.449566
C107	C	-0.356755	-1.070173	-0.235217
C108	C	0.143245	-0.570173	0.264783
C109	C	-0.356580	-1.070293	-0.117388
C110	C	0.143420	-0.570293	0.382612
H111	H	-0.401263	-0.506795	-0.675128
H112	H	0.098737	-0.006795	-0.175128
Br113	Br	-0.246727	-0.649282	-0.673414
Br114	Br	0.253273	-0.149282	-0.173414
Br115	Br	-0.202577	-1.105642	-0.901149
Br116	Br	0.297423	-0.605642	-0.401149
Br117	Br	-0.473351	-0.646303	-0.358313
Br118	Br	0.026649	-0.146303	0.141687
H119	H	-0.241817	-1.114765	-1.103395
H120	H	0.258183	-0.614765	-0.603395
H121	H	-0.277675	-0.975755	-1.100687
H122	H	0.222325	-0.475755	-0.600687
H123	H	-0.278748	-0.975097	-0.918784
H124	H	0.221252	-0.475097	-0.418784
H125	H	-0.920806	-0.955474	-0.574110
H126	H	-0.420806	-0.455474	-0.074110
H127	H	-0.454269	-1.146054	-1.103149
H128	H	0.045731	-0.646054	-0.603149
H129	H	-0.472271	-0.507263	-0.572898
H130	H	0.027729	-0.007263	-0.072898
H131	H	-0.374696	-0.948334	-1.101720
H132	H	0.125304	-0.448334	-0.601720
H133	H	-0.792530	-1.026142	-0.675408
H134	H	-0.292530	-0.526142	-0.175408
H135	H	-0.793179	-0.954850	-0.573615
H136	H	-0.293179	-0.454850	-0.073615
Br137	Br	-0.933455	-1.035006	-0.731352
Br138	Br	-0.433455	-0.535006	-0.231352
H139	H	-0.235770	-0.633507	-0.480194
H140	H	0.264230	-0.133507	0.019806
Br141	Br	-0.461223	-1.187563	-0.901112
Br142	Br	0.038777	-0.687563	-0.401112
H143	H	-0.401182	-0.634029	-0.675628
H144	H	0.098818	-0.134029	-0.175628
H145	H	-0.263166	-0.507294	-0.624540
H146	H	0.236834	-0.007294	-0.124540
Br147	Br	-0.779387	-1.116175	-0.294168
Br148	Br	-0.279387	-0.616175	0.205832
Br149	Br	-0.777551	-1.222800	-0.449332
Br150	Br	-0.277551	-0.722800	0.050668
Br151	Br	-0.311438	-0.647630	-0.294198
Br152	Br	0.188562	-0.147630	0.205802
H153	H	-0.919011	-0.991423	-0.375198
H154	H	-0.419011	-0.491423	0.124802
Br155	Br	-0.310164	-0.493505	-0.294444
Br156	Br	0.189836	0.006495	0.205556
Br157	Br	-0.471897	-0.491612	-0.357106
Br158	Br	0.028103	0.008388	0.142894
H159	H	-0.233942	-0.506199	-0.487042
H160	H	0.266058	-0.006199	0.012958
H161	H	-0.919692	-1.088465	-0.336158
H162	H	-0.419692	-0.588465	0.163842
Br163	Br	-0.777687	-0.954618	-0.357818
Br164	Br	-0.277687	-0.454618	0.142182
Br165	Br	-0.934788	-1.180733	-0.672778
Br166	Br	-0.434788	-0.680733	-0.172778
H167	H	-0.792865	-1.164094	-0.623979
H168	H	-0.292865	-0.664094	-0.123979
H169	H	-0.479339	-1.053060	-0.918914
H170	H	0.020661	-0.553060	-0.418914
Br171	Br	-0.932663	-1.219507	-0.439626
Br172	Br	-0.432663	-0.719507	0.060374
Br173	Br	-0.321480	-1.223988	-0.899866
Br174	Br	0.178520	-0.723988	-0.399866
Br175	Br	-0.402504	-0.918955	-0.900881
Br176	Br	0.097496	-0.418955	-0.400881
Br177	Br	-0.505774	-1.020408	-1.120475
Br178	Br	-0.005774	-0.520408	-0.620475
H179	H	-0.312674	-1.185791	-1.102050
H180	H	0.187326	-0.685791	-0.602050
H181	H	-0.471705	-0.634892	-0.573374
H182	H	0.028295	-0.134892	-0.073374
