data_functionalizedCrystal
_audit_creation_method	'MofGen! by Chris Wilmer'
_symmetry_space_group_name_H-M	'P1'
_symmetry_Int_Tables_number	1
_symmetry_cell_setting	triclinic
loop_
_symmetry_equiv_pos_as_xyz
  x,y,z
_cell_length_a	10.967926
_cell_length_b	14.519709
_cell_length_c	9.482900
_cell_angle_alpha	99.350820
_cell_angle_beta	92.549900
_cell_angle_gamma	84.207347
loop_
_atom_site_label
_atom_site_type_symbol
_atom_site_fract_x
_atom_site_fract_y
_atom_site_fract_z
O1	O	1.610558	0.162805	0.282598
O2	O	1.261349	0.164827	0.195106
O3	O	1.445210	0.029903	0.241184
O4	O	1.426696	0.297729	0.236520
O5	O	1.407864	0.057425	0.473617
O6	O	1.224002	0.192349	0.427539
O7	O	1.573212	0.190327	0.515031
Cu8	Cu	1.395197	0.193851	0.492508
Cu9	Cu	1.439363	0.161303	0.217629
O10	O	1.389350	0.325251	0.468953
C11	C	1.197984	0.176361	0.300126
C12	C	1.064816	0.169716	0.266762
C13	C	0.986099	0.181010	0.372295
C14	C	0.848463	0.174141	0.337815
C15	C	1.425674	0.009274	0.357185
C16	C	1.423088	-0.093198	0.356538
C17	C	1.413573	-0.468431	0.354116
C18	C	1.416215	-0.364029	0.354789
C19	C	1.418330	-0.280817	0.355328
C20	C	1.420973	-0.176409	0.355999
C21	C	1.636577	0.178792	0.410008
C22	C	1.769746	0.185437	0.443362
C23	C	1.408887	0.345880	0.352949
C24	C	1.411475	0.448350	0.353587
N25	N	1.364142	0.216743	0.685845
N26	N	1.470428	0.138404	0.024294
C27	C	1.430195	0.168050	0.774598
C28	C	1.404365	0.187104	0.935542
H29	H	0.804243	0.200189	0.559248
H30	H	0.813965	0.159384	0.221930
H31	H	1.020603	0.195759	0.488172
O32	O	1.314005	0.253560	0.987161
C33	C	1.226165	0.211585	1.053192
H34	H	1.270064	0.143641	1.086836
H35	H	1.190964	0.261544	1.151471
H36	H	1.146439	0.195629	0.974667
H37	H	1.030313	0.154959	0.150886
H38	H	1.288464	0.272533	0.729010
H39	H	1.505864	0.112253	0.731434
H40	H	1.546102	0.082604	0.981134
