data_functionalizedCrystal
_audit_creation_method	'MofGen! by Chris Wilmer'
_symmetry_space_group_name_H-M	'P1'
_symmetry_Int_Tables_number	1
_symmetry_cell_setting	triclinic
loop_
_symmetry_equiv_pos_as_xyz
  x,y,z
_cell_length_a	10.723022
_cell_length_b	10.723024
_cell_length_c	14.586319
_cell_angle_alpha	90.002624
_cell_angle_beta	90.003205
_cell_angle_gamma	84.467548
loop_
_atom_site_label
_atom_site_type_symbol
_atom_site_fract_x
_atom_site_fract_y
_atom_site_fract_z
O1	O	1.657188	0.175016	0.076232
O2	O	1.294035	0.191772	0.076235
O3	O	1.483988	0.001818	0.076230
O4	O	1.467235	0.364970	0.076237
O5	O	1.483975	0.001815	-0.076251
O6	O	1.294022	0.191769	-0.076246
O7	O	1.657175	0.175013	-0.076249
Cu8	Cu	1.475597	0.183391	-0.090170
Cu9	Cu	1.475613	0.183394	0.090156
O10	O	1.467222	0.364967	-0.076244
C11	C	1.247529	0.190551	-0.000005
C12	C	1.108975	0.186904	-0.000004
C13	C	0.890796	0.289421	-0.000000
C14	C	1.033999	0.293192	-0.000002
C15	C	1.482763	-0.044683	-0.000009
C16	C	1.479115	-0.183238	-0.000006
C17	C	1.585403	-0.258221	-0.000006
C18	C	1.581635	-0.401424	-0.000002
C19	C	1.703681	0.176234	-0.000007
C20	C	1.842235	0.179881	-0.000002
C21	C	1.468448	0.411468	-0.000003
C22	C	1.472095	0.550023	0.000000
N23	N	1.475595	0.183388	-0.217002
C24	C	1.559735	0.099305	-0.452011
C25	C	1.559738	0.099302	-0.547992
C26	C	1.391476	0.267475	-0.547997
C27	C	1.391468	0.267471	-0.452017
C28	C	1.475604	0.183387	-0.404027
C29	C	1.475616	0.183388	-0.595987
C30	C	1.475619	0.183386	-0.700055
C31	C	1.475599	0.183388	-0.299953
N32	N	1.475625	0.183388	0.216988
H33	H	0.906678	0.088892	0.000002
F34	F	1.649277	0.009812	-0.400939
F35	F	1.301940	0.356961	-0.599078
F36	F	1.353154	-0.365770	-0.000007
F37	F	1.649279	0.009808	-0.599057
H38	H	1.075811	0.386980	-0.000005
F39	F	1.707992	-0.203564	-0.000001
H40	H	1.672625	-0.465857	-0.000006
F41	F	1.356525	-0.237894	0.000003
F42	F	1.301915	0.356962	-0.400945
H43	H	0.826354	0.380409	0.000007
H44	H	1.067171	0.093113	0.000019
