data_functionalizedCrystal
_audit_creation_method	'MofGen! by Chris Wilmer'
_symmetry_space_group_name_H-M	'P1'
_symmetry_Int_Tables_number	1
_symmetry_cell_setting	triclinic
loop_
_symmetry_equiv_pos_as_xyz
  x,y,z
_cell_length_a	15.995350
_cell_length_b	15.995350
_cell_length_c	14.472310
_cell_angle_alpha	90.009379
_cell_angle_beta	90.001162
_cell_angle_gamma	96.507625
loop_
_atom_site_label
_atom_site_type_symbol
_atom_site_fract_x
_atom_site_fract_y
_atom_site_fract_z
O1	O	0.107921	-1.110997	-0.076758
O2	O	0.121248	-0.867221	-0.076776
O3	O	-0.007303	-0.995773	-0.076766
O4	O	0.236472	-0.982445	-0.076769
O5	O	-0.007296	-0.995740	0.076916
O6	O	0.121256	-0.867188	0.076906
O7	O	0.107928	-1.110963	0.076924
Cu8	Cu	0.114593	-0.989073	0.090947
Cu9	Cu	0.114584	-0.989112	-0.090800
O10	O	0.236480	-0.982412	0.076913
C11	C	0.120701	-0.836010	0.000062
C12	C	0.119049	-0.743060	0.000055
C13	C	-0.038494	-0.995205	0.000073
C14	C	-0.131444	-0.993553	0.000068
N15	N	0.114598	-0.989051	0.218778
C16	C	-0.469192	-0.987621	0.000071
C17	C	-0.421758	-0.896069	-0.000281
C18	C	-0.325068	-0.897721	0.000066
C19	C	-0.301631	-0.990564	0.000069
C20	C	-0.342705	-1.035701	0.087831
C21	C	-0.439340	-1.033401	0.087904
C22	C	-0.439707	-1.035330	-0.086861
C23	C	-0.342762	-1.035309	-0.088021
C24	C	-0.206934	-0.992231	0.000071
C25	C	-0.563890	-0.985956	0.000075
C26	C	0.267671	-0.982980	0.000072
C27	C	0.360621	-0.984631	0.000071
C28	C	0.108476	-1.142175	0.000083
C29	C	0.110127	-1.235125	0.000084
C30	C	0.113117	-0.405312	0.000074
C31	C	0.021565	-0.452746	0.000418
C32	C	0.023217	-0.549436	0.000065
C33	C	0.116060	-0.572873	0.000065
C34	C	0.161212	-0.531804	-0.087692
C35	C	0.158912	-0.435169	-0.087759
C36	C	0.160812	-0.434792	0.087007
C37	C	0.160790	-0.531737	0.088160
C38	C	0.117727	-0.667570	0.000057
C39	C	0.111452	-0.310614	0.000076
N40	N	0.114572	-0.989140	-0.218631
C41	C	0.114581	-0.989111	0.592869
C42	C	0.183135	-0.920095	0.553698
C43	C	0.183385	-0.920254	0.446610
C44	C	0.114590	-0.989081	0.407278
C45	C	0.133671	-1.076445	0.446122
C46	C	0.134159	-1.076057	0.553243
C47	C	0.026741	-0.971542	0.553398
C48	C	0.027327	-0.969538	0.446270
C49	C	0.114593	-0.989069	0.302390
C50	C	0.114579	-0.989128	0.697757
H51	H	-0.440293	-0.859490	-0.063217
C52	C	0.069676	-1.147746	0.588536
C53	C	-0.004106	-1.127744	0.649979
C54	C	-0.068391	-1.199543	0.685402
C55	C	-0.058895	-1.291343	0.659382
C56	C	0.014890	-1.311349	0.597935
C57	C	0.079175	-1.239550	0.562512
H58	H	-0.011139	-1.059785	0.669244
H59	H	-0.123012	-1.184733	0.730889
H60	H	-0.106482	-1.344493	0.685604
H61	H	0.021923	-1.379309	0.578671
H62	H	0.133795	-1.254360	0.517026
C63	C	-0.464068	-0.988891	0.176518
C64	C	-0.507974	-0.908259	0.169812
C65	C	-0.532696	-0.863745	0.258427
C66	C	-0.513512	-0.899862	0.353748
C67	C	-0.469604	-0.980498	0.360458
C68	C	-0.444881	-1.025012	0.271843
H69	H	-0.522177	-0.881519	0.099247
H70	H	-0.565200	-0.804053	0.253460
H71	H	-0.531813	-0.866910	0.419346
H72	H	-0.455401	-1.007238	0.431023
H73	H	-0.412377	-1.084704	0.276810
H74	H	-0.015027	-0.434210	0.063352
C75	C	-0.304370	-0.993313	0.176061
C76	C	-0.361145	-0.953906	0.245839
C77	C	-0.322812	-0.911512	0.334067
C78	C	-0.227704	-0.908526	0.352518
C79	C	-0.170924	-0.947934	0.282738
C80	C	-0.209257	-0.990328	0.194510
H81	H	-0.431555	-0.956116	0.232183
H82	H	-0.364845	-0.882340	0.385723
H83	H	-0.199328	-0.877143	0.417829
H84	H	-0.100514	-0.945724	0.296395
H85	H	-0.167223	-1.019500	0.142855
C86	C	0.219228	-1.097866	0.409877
C87	C	0.290128	-1.111579	0.478306
C88	C	0.375687	-1.132994	0.442064
C89	C	0.390346	-1.140696	0.337392
C90	C	0.319444	-1.126983	0.268957
C91	C	0.233885	-1.105567	0.305199
H92	H	0.279279	-1.105878	0.555796
H93	H	0.428174	-1.143146	0.492725
H94	H	0.453682	-1.156549	0.310563
H95	H	0.330293	-1.132684	0.191467
H96	H	0.181398	-1.095416	0.254538
C97	C	-0.025057	-0.587093	-0.085069
C98	C	-0.102643	-0.652413	-0.072427
C99	C	-0.150920	-0.690068	-0.157567
C100	C	-0.121611	-0.662403	-0.255348
C101	C	-0.044021	-0.597080	-0.267995
C102	C	0.004256	-0.559425	-0.182855
H103	H	-0.124343	-0.672896	-0.000040
H104	H	-0.208358	-0.738425	-0.148205
H105	H	-0.157349	-0.690278	-0.318374
H106	H	-0.022321	-0.576598	-0.340382
H107	H	0.061693	-0.511068	-0.192217
H108	H	0.125979	-0.416874	-0.153359
C109	C	0.168036	-0.832524	0.411125
C110	C	0.165262	-0.815484	0.306510
C111	C	0.149916	-0.727749	0.271031
C112	C	0.137344	-0.657055	0.340166
C113	C	0.140118	-0.674093	0.444788
C114	C	0.155464	-0.761828	0.480267
H115	H	0.174569	-0.867818	0.255326
H116	H	0.147862	-0.715136	0.193583
H117	H	0.125983	-0.592108	0.313902
H118	H	0.130811	-0.621759	0.495972
H119	H	0.157517	-0.774440	0.557715
H120	H	-0.297200	-0.861973	0.063079
H121	H	0.008392	-0.909219	0.580461
H122	H	0.012845	-0.905272	0.420883
C123	C	-0.467454	-0.994915	-0.176726
C124	C	-0.517251	-0.918067	-0.172317
C125	C	-0.544998	-0.877642	-0.262176
C126	C	-0.522948	-0.914064	-0.356444
C127	C	-0.473149	-0.990917	-0.360856
C128	C	-0.445401	-1.031342	-0.270998
H129	H	-0.533576	-0.891101	-0.102531
H130	H	-0.581863	-0.820750	-0.258909
H131	H	-0.543488	-0.884139	-0.422962
H132	H	-0.456824	-1.017883	-0.430642
H133	H	-0.408536	-1.088234	-0.274265
C134	C	-0.482912	-1.124200	0.093310
C135	C	-0.429743	-1.198568	0.097551
C136	C	-0.473310	-1.289363	0.102967
C137	C	-0.570046	-1.305791	0.104143
C138	C	-0.623221	-1.231420	0.099902
C139	C	-0.579654	-1.140625	0.094486
H140	H	-0.358129	-1.186409	0.096680
H141	H	-0.433947	-1.344417	0.106106
H142	H	-0.602297	-1.373003	0.108153
H143	H	-0.694835	-1.243579	0.100773
H144	H	-0.619017	-1.085571	0.091347
C145	C	0.120379	-0.407052	0.176875
C146	C	0.172698	-0.348850	0.245322
C147	C	0.132254	-0.321116	0.335186
C148	C	0.039489	-0.351584	0.356602
C149	C	-0.012836	-0.409790	0.288153
C150	C	0.027609	-0.437524	0.198289
H151	H	0.241373	-0.326293	0.229470
H152	H	0.170989	-0.278028	0.385857
H153	H	0.009550	-0.331054	0.423125
H154	H	-0.081510	-0.432347	0.304005
H155	H	-0.011126	-0.480611	0.147619
C156	C	0.249711	-0.391597	-0.093167
C157	C	0.324079	-0.444766	-0.097414
C158	C	0.414875	-0.401200	-0.102837
C159	C	0.431302	-0.304464	-0.104012
C160	C	0.356931	-0.251289	-0.099765
C161	C	0.266136	-0.294856	-0.094342
H162	H	0.311921	-0.516381	-0.096544
H163	H	0.469929	-0.440564	-0.105981
H164	H	0.498514	-0.272213	-0.108027
H165	H	0.369090	-0.179675	-0.100635
H166	H	0.211082	-0.255492	-0.091198
H167	H	0.229421	-0.545930	-0.090955
C168	C	0.118830	-0.570136	-0.175927
C169	C	0.043314	-0.638647	-0.168533
C170	C	0.000923	-0.676973	-0.256765
C171	C	0.034048	-0.646788	-0.352391
C172	C	0.109568	-0.578273	-0.359789
C173	C	0.151959	-0.539947	-0.271557
H174	H	0.018789	-0.660995	-0.097741
H175	H	-0.054982	-0.727692	-0.251288
H176	H	0.002668	-0.675159	-0.417706
H177	H	0.134093	-0.555925	-0.430581
H178	H	0.207864	-0.489228	-0.277034
C179	C	-0.044826	-1.033033	0.410110
C180	C	-0.025686	-1.104059	0.344252
C181	C	-0.097837	-1.167563	0.308093
C182	C	-0.189129	-1.160040	0.337792
C183	C	-0.208274	-1.089010	0.403655
C184	C	-0.136123	-1.025507	0.439814
H185	H	0.041898	-1.109631	0.322263
H186	H	-0.083664	-1.220143	0.259337
H187	H	-0.242539	-1.207048	0.311025
H188	H	-0.275857	-1.083439	0.425643
H189	H	-0.150295	-0.972927	0.488570
H190	H	-0.024275	-1.021872	0.578728
C191	C	0.220701	-1.096966	0.586992
C192	C	0.251870	-1.181398	0.560549
C193	C	0.338415	-1.202305	0.594291
C194	C	0.393791	-1.138779	0.654477
C195	C	0.362623	-1.054342	0.680923
C196	C	0.276077	-1.033435	0.647181
H197	H	0.210877	-1.228428	0.515993
H198	H	0.361488	-1.264811	0.574714
H199	H	0.457857	-1.154256	0.679455
H200	H	0.403616	-1.007312	0.725479
H201	H	0.253005	-0.970928	0.666758
C202	C	0.252260	-0.552477	0.095320
C203	C	0.288099	-0.607372	0.020965
C204	C	0.379574	-0.628106	0.028114
C205	C	0.435211	-0.593946	0.109618
C206	C	0.399373	-0.539048	0.183979
C207	C	0.307897	-0.518314	0.176830
H208	H	0.246913	-0.632662	-0.039375
H209	H	0.406104	-0.668746	-0.026934
H210	H	0.502926	-0.609296	0.114910
H211	H	0.440559	-0.513758	0.244318
H212	H	0.281368	-0.477674	0.231877
H213	H	0.127830	-0.559040	0.153082
H214	H	-0.441349	-0.859626	0.062299
H215	H	-0.315516	-1.002307	-0.152945
C216	C	0.068018	-1.147489	0.411700
C217	C	-0.025726	-1.145727	0.434886
C218	C	-0.091380	-1.216769	0.400462
C219	C	-0.063290	-1.289573	0.342853
C220	C	0.030458	-1.291337	0.319664
C221	C	0.096113	-1.220295	0.354088
H222	H	-0.046524	-1.091832	0.477534
H223	H	-0.160779	-1.215463	0.417628
H224	H	-0.111891	-1.342162	0.317370
H225	H	0.051256	-1.345233	0.277016
H226	H	0.165512	-1.221601	0.336922
H227	H	-0.296649	-0.862239	-0.062846
C228	C	-0.322010	-1.126775	-0.095186
C229	C	-0.267110	-1.162599	-0.020839
C230	C	-0.246357	-1.254068	-0.027997
C231	C	-0.280504	-1.309715	-0.109503
C232	C	-0.335406	-1.273892	-0.183856
C233	C	-0.356159	-1.182423	-0.176697
H234	H	-0.241830	-1.121405	0.039501
H235	H	-0.205715	-1.280586	0.027044
H236	H	-0.265141	-1.377426	-0.114802
H237	H	-0.360686	-1.315086	-0.244196
H238	H	-0.396802	-1.155905	-0.231738
H239	H	-0.328579	-1.103909	0.091097
H240	H	-0.471468	-1.102831	-0.087449
C241	C	-0.024739	-0.587827	0.085043
C242	C	0.020911	-0.637382	0.156801
C243	C	-0.027053	-0.675766	0.241780
C244	C	-0.120668	-0.664596	0.255002
C245	C	-0.166323	-0.615039	0.183242
C246	C	-0.118359	-0.576655	0.098263
H247	H	0.090215	-0.645653	0.147016
H248	H	0.006745	-0.712452	0.294902
H249	H	-0.156174	-0.693011	0.317909
H250	H	-0.235627	-0.606768	0.193027
H251	H	-0.152157	-0.539969	0.045141
H252	H	-0.014865	-0.433166	-0.062168
H253	H	0.228313	-0.403031	0.087600
H254	H	0.171953	-0.854945	0.579481
H255	H	0.247952	-0.931159	0.580608
H256	H	0.248569	-0.931473	0.420976
