data_functionalizedCrystal
_audit_creation_method	'MofGen! by Chris Wilmer'
_symmetry_space_group_name_H-M	'P1'
_symmetry_Int_Tables_number	1
_symmetry_cell_setting	triclinic
loop_
_symmetry_equiv_pos_as_xyz
  x,y,z
_cell_length_a	14.519709
_cell_length_b	14.971486
_cell_length_c	13.596369
_cell_angle_alpha	89.999401
_cell_angle_beta	89.999684
_cell_angle_gamma	83.647137
loop_
_atom_site_label
_atom_site_type_symbol
_atom_site_fract_x
_atom_site_fract_y
_atom_site_fract_z
O1	O	-1.223800	-0.117245	0.081664
O2	O	-0.955315	-0.131053	0.081694
O3	O	-1.096754	0.006047	0.081671
O4	O	-1.082361	-0.254345	0.081687
O5	O	-1.096736	0.006040	-0.081912
O6	O	-0.955297	-0.131060	-0.081889
O7	O	-1.223783	-0.117252	-0.081919
Zn8	Zn	-1.089537	-0.124158	-0.107876
Zn9	Zn	-1.089560	-0.124147	0.107651
O10	O	-1.082344	-0.254352	-0.081896
C11	C	-0.920947	-0.130413	-0.000094
C12	C	-0.818567	-0.128485	-0.000082
C13	C	-1.096101	0.039369	-0.000120
C14	C	-1.094172	0.138667	-0.000119
C15	C	-1.258151	-0.117892	-0.000129
C16	C	-1.360531	-0.119820	-0.000134
C17	C	-0.443675	-0.121386	-0.000128
C18	C	-0.547982	-0.123357	-0.000115
C19	C	-0.631118	-0.124935	-0.000104
C20	C	-0.735431	-0.126907	-0.000093
C21	C	-1.082996	-0.287674	-0.000103
C22	C	-1.084925	-0.386972	-0.000098
N23	N	-1.089528	-0.124164	-0.254968
C24	C	-1.177264	0.195845	-0.000129
C25	C	-1.175446	0.289146	-0.000119
C26	C	-1.090536	0.325266	-0.000106
C27	C	-1.007438	0.268080	-0.000093
C28	C	-1.009257	0.174781	-0.000096
C29	C	-1.003653	0.462545	-0.000089
C30	C	-1.001834	0.555850	-0.000088
C31	C	-1.169842	0.576909	-0.000112
C32	C	-1.171661	0.483610	-0.000115
C33	C	-1.088563	0.426431	-0.000104
C34	C	-1.089533	-0.124166	-0.343966
C35	C	-1.089542	-0.124160	-0.455617
C36	C	-1.089554	-0.124150	-0.544608
C37	C	-1.089564	-0.124144	-0.656266
N38	N	-1.089576	-0.124134	0.254743
H39	H	-1.246407	0.166444	-0.000146
H40	H	-1.237504	0.623470	-0.000118
H41	H	-0.932692	0.585255	-0.000093
H42	H	-1.243107	0.335698	-0.000129
H43	H	-0.938303	0.297496	-0.000076
H44	H	-0.935985	0.415991	-0.000077
H45	H	-0.941595	0.128227	-0.000087
H46	H	-1.240802	0.454205	-0.000133
