data_functionalizedCrystal
_audit_creation_method	'MofGen! by Chris Wilmer'
_symmetry_space_group_name_H-M	'P1'
_symmetry_Int_Tables_number	1
_symmetry_cell_setting	triclinic
loop_
_symmetry_equiv_pos_as_xyz
  x,y,z
_cell_length_a	13.897449
_cell_length_b	29.839131
_cell_length_c	13.897441
_cell_angle_alpha	89.958174
_cell_angle_beta	89.981404
_cell_angle_gamma	90.036508
loop_
_atom_site_label
_atom_site_type_symbol
_atom_site_fract_x
_atom_site_fract_y
_atom_site_fract_z
Zn1	Zn	1.474565	-0.178828	-0.545299
Zn2	Zn	1.724565	0.071172	-0.295299
Zn3	Zn	1.974565	0.321172	-0.045299
Zn4	Zn	2.224565	0.571172	0.204701
Zn5	Zn	1.474415	-0.253962	-0.383966
Zn6	Zn	1.724415	-0.003962	-0.133966
Zn7	Zn	1.974415	0.246038	0.116034
Zn8	Zn	2.224415	0.496038	0.366034
Zn9	Zn	1.313260	-0.178848	-0.384018
Zn10	Zn	1.563260	0.071152	-0.134018
Zn11	Zn	1.813260	0.321152	0.115982
Zn12	Zn	2.063260	0.571152	0.365982
Zn13	Zn	1.313186	-0.253933	-0.545219
Zn14	Zn	1.563186	-0.003933	-0.295219
Zn15	Zn	1.813186	0.246067	-0.045219
Zn16	Zn	2.063186	0.496067	0.204781
O17	O	1.393857	-0.216393	-0.464626
O18	O	1.643857	0.033607	-0.214626
O19	O	1.893857	0.283607	0.035374
O20	O	2.143857	0.533607	0.285374
O21	O	1.609527	-0.188798	-0.523910
O22	O	1.859527	0.061202	-0.273910
O23	O	2.109527	0.311202	-0.023910
O24	O	2.359527	0.561202	0.226090
O25	O	1.453006	-0.244018	-0.248992
O26	O	1.703006	0.005982	0.001008
O27	O	1.953006	0.255982	0.251008
O28	O	2.203006	0.505982	0.501008
O29	O	1.334751	-0.115978	-0.405467
O30	O	1.584751	0.134022	-0.155467
O31	O	1.834751	0.384022	0.094533
O32	O	2.084751	0.634022	0.344533
O33	O	1.609417	-0.243998	-0.405380
O34	O	1.859417	0.006002	-0.155380
O35	O	2.109417	0.256002	0.094620
O36	O	2.359417	0.506002	0.344620
O37	O	1.453261	-0.115964	-0.523960
O38	O	1.703261	0.134036	-0.273960
O39	O	1.953261	0.384036	-0.023960
O40	O	2.203261	0.634036	0.226040
O41	O	1.334606	-0.188832	-0.249029
O42	O	1.584606	0.061168	0.000971
O43	O	1.834606	0.311168	0.250971
O44	O	2.084606	0.561168	0.500971
O45	O	1.178268	-0.188805	-0.405389
O46	O	1.428268	0.061195	-0.155389
O47	O	1.678268	0.311195	0.094611
O48	O	1.928268	0.561195	0.344611
O49	O	1.334625	-0.243950	-0.680211
O50	O	1.584625	0.006050	-0.430211
O51	O	1.834625	0.256050	-0.180211
O52	O	2.084625	0.506050	0.069789
O53	O	1.178214	-0.243970	-0.523823
O54	O	1.428214	0.006030	-0.273823
O55	O	1.678214	0.256030	-0.023823
O56	O	1.928214	0.506030	0.226177
O57	O	1.453189	-0.188771	-0.680270
O58	O	1.703189	0.061229	-0.430270
O59	O	1.953189	0.311229	-0.180270
O60	O	2.203189	0.561229	0.069730
O61	O	1.452935	-0.316825	-0.405302
O62	O	1.702935	-0.066825	-0.155302
O63	O	1.952935	0.183175	0.094698
O64	O	2.202935	0.433175	0.344698
O65	O	1.334480	-0.316804	-0.523773
O66	O	1.584480	-0.066804	-0.273773
O67	O	1.834480	0.183196	-0.023773
O68	O	2.084480	0.433196	0.226227
C69	C	1.143242	-0.216387	-0.464604
C70	C	1.393242	0.033613	-0.214604
C71	C	1.643242	0.283613	0.035396
C72	C	1.893242	0.533613	0.285396
C73	C	1.036028	-0.216395	-0.464617
C74	C	1.286028	0.033605	-0.214617
C75	C	1.536028	0.283605	0.035383
C76	C	1.786028	0.533605	0.285383
C77	C	0.839733	-0.216397	-0.464642
C78	C	1.089733	0.033603	-0.214642
C79	C	1.339733	0.283603	0.035358
C80	C	1.589733	0.533603	0.285358
C81	C	0.948966	-0.216394	-0.464626
C82	C	1.198966	0.033606	-0.214626
C83	C	1.448966	0.283606	0.035374
C84	C	1.698966	0.533606	0.285374
C85	C	1.393709	-0.333115	-0.464544
C86	C	1.643709	-0.083115	-0.214544
C87	C	1.893709	0.166885	0.035456
C88	C	2.143709	0.416885	0.285456
C89	C	1.393735	-0.383050	-0.464542
C90	C	1.643735	-0.133050	-0.214542
C91	C	1.893735	0.116950	0.035458
C92	C	2.143735	0.366950	0.285458
C93	C	1.455551	-0.692651	-0.526413
C94	C	1.705551	-0.442651	-0.276413
C95	C	1.955551	-0.192651	-0.026413
C96	C	2.205551	0.057349	0.223587
C97	C	1.455656	-0.880324	-0.526471
C98	C	1.705656	-0.630324	-0.276471
C99	C	1.955656	-0.380324	-0.026471
C100	C	2.205656	-0.130324	0.223529
O101	O	1.508070	-0.904552	-0.579015
O102	O	1.758070	-0.654552	-0.329015
O103	O	2.008070	-0.404552	-0.079015
O104	O	2.258070	-0.154552	0.170985
N105	N	1.394020	-0.903835	-0.464733
N106	N	1.644020	-0.653835	-0.214733
N107	N	1.894020	-0.403835	0.035267
N108	N	2.144020	-0.153835	0.285267
C109	C	1.332350	-0.880425	-0.402980
C110	C	1.582350	-0.630425	-0.152980
C111	C	1.832350	-0.380425	0.097020
C112	C	2.082350	-0.130425	0.347020
O113	O	1.279920	-0.904729	-0.350476
O114	O	1.529920	-0.654729	-0.100476
O115	O	1.779920	-0.404729	0.149524
O116	O	2.029920	-0.154729	0.399524
C117	C	1.332241	-0.692753	-0.402928
C118	C	1.582241	-0.442753	-0.152928
C119	C	1.832241	-0.192753	0.097072
C120	C	2.082241	0.057247	0.347072
C121	C	1.393887	-0.669244	-0.464663
C122	C	1.643887	-0.419244	-0.214663
C123	C	1.893887	-0.169244	0.035337
C124	C	2.143887	0.080756	0.285337
C125	C	1.517192	-0.669142	-0.588144
C126	C	1.767192	-0.419142	-0.338144
C127	C	2.017192	-0.169142	-0.088144
C128	C	2.267192	0.080858	0.161856
C129	C	1.517169	-0.622226	-0.588125
C130	C	1.767169	-0.372226	-0.338125
C131	C	2.017169	-0.122226	-0.088125
C132	C	2.267169	0.127774	0.161875
C133	C	1.455505	-0.598820	-0.526375
C134	C	1.705505	-0.348820	-0.276375
C135	C	1.955505	-0.098820	-0.026375
C136	C	2.205505	0.151180	0.223625
C137	C	1.393864	-0.622328	-0.464644
C138	C	1.643864	-0.372328	-0.214644
C139	C	1.893864	-0.122328	0.035356
C140	C	2.143864	0.127672	0.285356
C141	C	1.270566	-0.669344	-0.341181
C142	C	1.520566	-0.419344	-0.091181
C143	C	1.770566	-0.169344	0.158819
C144	C	2.020566	0.080656	0.408819
C145	C	1.270543	-0.622423	-0.341175
C146	C	1.520543	-0.372423	-0.091175
C147	C	1.770543	-0.122423	0.158825
C148	C	2.020543	0.127577	0.408825
C149	C	1.332189	-0.598914	-0.402910
C150	C	1.582189	-0.348914	-0.152910
C151	C	1.832189	-0.098914	0.097090
C152	C	2.082189	0.151086	0.347090
C153	C	1.332177	-0.552006	-0.402876
C154	C	1.582177	-0.302006	-0.152876
C155	C	1.832177	-0.052006	0.097124
C156	C	2.082177	0.197994	0.347124
N157	N	1.393813	-0.528495	-0.464614
N158	N	1.643813	-0.278495	-0.214614
N159	N	1.893813	-0.028495	0.035386
N160	N	2.143813	0.221505	0.285386
C161	C	1.455477	-0.551902	-0.526363
C162	C	1.705477	-0.301902	-0.276363
C163	C	1.955477	-0.051902	-0.026363
C164	C	2.205477	0.198098	0.223637
C165	C	1.332413	-0.978955	-0.403011
C166	C	1.582413	-0.728955	-0.153011
C167	C	1.832413	-0.478955	0.096989
C168	C	2.082413	-0.228955	0.346989
C169	C	1.332441	-1.025873	-0.403022
C170	C	1.582441	-0.775873	-0.153022
C171	C	1.832441	-0.525873	0.096978
C172	C	2.082441	-0.275873	0.346978
C173	C	1.455746	-1.025769	-0.526515
C174	C	1.705746	-0.775769	-0.276515
C175	C	1.955746	-0.525769	-0.026515
C176	C	2.205746	-0.275769	0.223485
C177	C	1.455722	-0.978850	-0.526497
C178	C	1.705722	-0.728850	-0.276497
C179	C	1.955722	-0.478850	-0.026497
C180	C	2.205722	-0.228850	0.223503
C181	C	1.394048	-0.955444	-0.464749
C182	C	1.644048	-0.705444	-0.214749
C183	C	1.894048	-0.455444	0.035251
C184	C	2.144048	-0.205444	0.285251
C185	C	1.455424	-0.453376	-0.526319
C186	C	1.705424	-0.203376	-0.276319
C187	C	1.955424	0.046624	-0.026319
C188	C	2.205424	0.296624	0.223681
C189	C	1.455399	-0.406456	-0.526292
C190	C	1.705399	-0.156456	-0.276292
C191	C	1.955399	0.093544	-0.026292
C192	C	2.205399	0.343544	0.223708
C193	C	1.332090	-0.406565	-0.402803
C194	C	1.582090	-0.156565	-0.152803
C195	C	1.832090	0.093435	0.097197
C196	C	2.082090	0.343435	0.347197
C197	C	1.332119	-0.453481	-0.402827
C198	C	1.582119	-0.203481	-0.152827
C199	C	1.832119	0.046519	0.097173
C200	C	2.082119	0.296519	0.347173
C201	C	1.393789	-0.476885	-0.464592
C202	C	1.643789	-0.226885	-0.214592
C203	C	1.893789	0.023115	0.035408
C204	C	2.143789	0.273115	0.285408
O205	O	1.279783	-0.527749	-0.350366
O206	O	1.529783	-0.277749	-0.100366
O207	O	1.779783	-0.027749	0.149634
O208	O	2.029783	0.222251	0.399634
O209	O	1.507883	-0.527590	-0.578874
O210	O	1.757883	-0.277590	-0.328874
O211	O	2.007883	-0.027590	-0.078874
O212	O	2.257883	0.222410	0.171126
C213	C	1.455574	-0.739566	-0.526432
C214	C	1.705574	-0.489566	-0.276432
C215	C	1.955574	-0.239566	-0.026432
C216	C	2.205574	0.010434	0.223568
C217	C	1.393934	-0.763075	-0.464701
C218	C	1.643934	-0.513075	-0.214701
C219	C	1.893934	-0.263075	0.035299
C220	C	2.143934	-0.013075	0.285299
C221	C	1.332270	-0.739668	-0.402951
C222	C	1.582270	-0.489668	-0.152951
C223	C	1.832270	-0.239668	0.097049
C224	C	2.082270	0.010332	0.347049
C225	C	1.393962	-0.809993	-0.464712
C226	C	1.643962	-0.559993	-0.214712
C227	C	1.893962	-0.309993	0.035288
C228	C	2.143962	-0.059993	0.285288
C229	C	1.455626	-0.833399	-0.526462
C230	C	1.705626	-0.583399	-0.276462
C231	C	1.955626	-0.333399	-0.026462
C232	C	2.205626	-0.083399	0.223538
C233	C	1.517261	-0.809888	-0.588200
C234	C	1.767261	-0.559888	-0.338200
C235	C	2.017261	-0.309888	-0.088200
C236	C	2.267261	-0.059888	0.161800
C237	C	1.517238	-0.762973	-0.588181
C238	C	1.767238	-0.512973	-0.338181
C239	C	2.017238	-0.262973	-0.088181
C240	C	2.267238	-0.012973	0.161819
C241	C	1.270634	-0.763179	-0.341213
C242	C	1.520634	-0.513179	-0.091213
C243	C	1.770634	-0.263179	0.158787
C244	C	2.020634	-0.013179	0.408787
C245	C	1.270663	-0.810095	-0.341236
C246	C	1.520663	-0.560095	-0.091236
C247	C	1.770663	-0.310095	0.158764
C248	C	2.020663	-0.060095	0.408764
C249	C	1.332327	-0.833502	-0.402986
C250	C	1.582327	-0.583502	-0.152986
C251	C	1.832327	-0.333502	0.097014
C252	C	2.082327	-0.083502	0.347014
C253	C	1.645449	-0.216399	-0.464648
C254	C	1.895449	0.033601	-0.214648
C255	C	2.145449	0.283601	0.035352
C256	C	2.395449	0.533601	0.285352
C257	C	1.752663	-0.216402	-0.464658
C258	C	2.002663	0.033598	-0.214658
C259	C	2.252663	0.283598	0.035342
C260	C	2.502663	0.533598	0.285342
C261	C	1.393916	-0.216355	-0.716219
C262	C	1.643916	0.033645	-0.466219
C263	C	1.893916	0.283645	-0.216219
C264	C	2.143916	0.533645	0.033781
C265	C	1.393941	-0.216339	-0.823433
C266	C	1.643941	0.033661	-0.573433
C267	C	1.893941	0.283661	-0.323433
C268	C	2.143941	0.533661	-0.073433
C269	C	1.394030	-0.099214	-0.464728
C270	C	1.644030	0.150786	-0.214728
C271	C	1.894030	0.400786	0.035272
C272	C	2.144030	0.650786	0.285272
C273	C	1.394105	-0.049280	-0.464772
C274	C	1.644105	0.200720	-0.214772
C275	C	1.894105	0.450720	0.035228
C276	C	2.144105	0.700720	0.285228
C277	C	1.393961	-0.216326	-0.910503
C278	C	1.643961	0.033674	-0.660503
C279	C	1.893961	0.283674	-0.410503
C280	C	2.143961	0.533674	-0.160503
C281	C	1.393988	-0.216306	-1.019735
C282	C	1.643988	0.033694	-0.769735
C283	C	1.893988	0.283694	-0.519735
C284	C	2.143988	0.533694	-0.269735
C285	C	1.393853	-0.216398	-0.214011
C286	C	1.643853	0.033602	0.035989
C287	C	1.893853	0.283602	0.285989
C288	C	2.143853	0.533602	0.535989
C289	C	1.394015	-0.216287	-0.106798
C290	C	1.644015	0.033713	0.143202
C291	C	1.894015	0.283713	0.393202
C292	C	2.144015	0.533713	0.643202
H293	H	1.505602	-0.387317	-0.576564
H294	H	1.755602	-0.137317	-0.326564
H295	H	2.005602	0.112683	-0.076564
H296	H	2.255602	0.362683	0.173436
O297	O	1.521938	-0.478618	-0.592932
O298	O	1.771938	-0.228618	-0.342932
O299	O	2.021938	0.021382	-0.092932
O300	O	2.271938	0.271382	0.157068
H301	H	1.597645	-0.469589	-0.576443
H302	H	1.847645	-0.219589	-0.326443
H303	H	2.097645	0.030411	-0.076443
H304	H	2.347645	0.280411	0.173557
O305	O	1.265964	-1.051224	-0.336418
O306	O	1.515964	-0.801224	-0.086418
O307	O	1.765964	-0.551224	0.163582
O308	O	2.015964	-0.301224	0.413582
H309	H	1.276343	-1.087783	-0.346785
H310	H	1.526343	-0.837783	-0.096785
H311	H	1.776343	-0.587783	0.153215
H312	H	2.026343	-0.337783	0.403215
H313	H	1.567364	-0.603088	-0.638398
H314	H	1.817364	-0.353088	-0.388398
H315	H	2.067364	-0.103088	-0.138398
H316	H	2.317364	0.146912	0.111602
O317	O	1.265653	-0.478843	-0.336226
O318	O	1.515653	-0.228843	-0.086226
O319	O	1.765653	0.021157	0.163774
O320	O	2.015653	0.271157	0.413774
H321	H	1.216565	-0.500224	-0.379357
H322	H	1.466565	-0.250224	-0.129357
H323	H	1.716565	-0.000224	0.120643
H324	H	1.966565	0.249776	0.370643
H325	H	1.220367	-0.688477	-0.290909
H326	H	1.470367	-0.438477	-0.040909
H327	H	1.720367	-0.188477	0.209091
H328	H	1.970367	0.061523	0.459091
H329	H	1.220317	-0.603368	-0.290893
H330	H	1.470317	-0.353368	-0.040893
H331	H	1.720317	-0.103368	0.209107
H332	H	1.970317	0.146632	0.459107
O333	O	1.583710	-0.694384	-0.654747
O334	O	1.833710	-0.444384	-0.404747
O335	O	2.083710	-0.194384	-0.154747
O336	O	2.333710	0.055616	0.095253
H337	H	1.626565	-0.670147	-0.697658
H338	H	1.876565	-0.420147	-0.447658
H339	H	2.126565	-0.170147	-0.197658
H340	H	2.376565	0.079853	0.052342
O341	O	1.522244	-1.051020	-0.593129
O342	O	1.772244	-0.801020	-0.343129
O343	O	2.022244	-0.551020	-0.093129
O344	O	2.272244	-0.301020	0.156871
H345	H	1.571353	-1.072398	-0.550015
H346	H	1.821353	-0.822398	-0.300015
H347	H	2.071353	-0.572398	-0.050015
H348	H	2.321353	-0.322398	0.199985
H349	H	1.282189	-0.959902	-0.352725
H350	H	1.532189	-0.709902	-0.102725
H351	H	1.782189	-0.459902	0.147275
H352	H	2.032189	-0.209902	0.397275
H353	H	1.220465	-0.829232	-0.290955
H354	H	1.470465	-0.579232	-0.040955
H355	H	1.720465	-0.329232	0.209045
H356	H	1.970465	-0.079232	0.459045
H357	H	1.505919	-0.959712	-0.576768
H358	H	1.755919	-0.709712	-0.326768
H359	H	2.005919	-0.459712	-0.076768
H360	H	2.255919	-0.209712	0.173232
O361	O	1.265580	-0.381316	-0.336205
O362	O	1.515580	-0.131316	-0.086205
O363	O	1.765580	0.118684	0.163795
O364	O	2.015580	0.368684	0.413795
H365	H	1.275918	-0.344742	-0.346578
H366	H	1.525918	-0.094742	-0.096578
H367	H	1.775918	0.155258	0.153422
H368	H	2.025918	0.405258	0.403422
O369	O	1.583738	-0.737619	-0.654757
O370	O	1.833738	-0.487619	-0.404757
O371	O	2.083738	-0.237619	-0.154757
O372	O	2.333738	0.012381	0.095243
H373	H	1.626614	-0.761784	-0.697693
H374	H	1.876614	-0.511784	-0.447693
H375	H	2.126614	-0.261784	-0.197693
H376	H	2.376614	-0.011784	0.052307
O377	O	1.204136	-0.737936	-0.274594
O378	O	1.454136	-0.487936	-0.024594
O379	O	1.704136	-0.237936	0.225406
O380	O	1.954136	0.012064	0.475406
H381	H	1.161295	-0.762171	-0.231664
H382	H	1.411295	-0.512171	0.018336
H383	H	1.661295	-0.262171	0.268336
H384	H	1.911295	-0.012171	0.518336
H385	H	1.567474	-0.828954	-0.638476
H386	H	1.817474	-0.578954	-0.388476
H387	H	2.067474	-0.328954	-0.138476
H388	H	2.317474	-0.078954	0.111524
