data_functionalizedCrystal
_audit_creation_method	'MofGen! by Chris Wilmer'
_symmetry_space_group_name_H-M	'P1'
_symmetry_Int_Tables_number	1
_symmetry_cell_setting	triclinic
loop_
_symmetry_equiv_pos_as_xyz
  x,y,z
_cell_length_a	18.101398
_cell_length_b	19.805405
_cell_length_c	19.805398
_cell_angle_alpha	90.030326
_cell_angle_beta	89.982499
_cell_angle_gamma	89.978323
loop_
_atom_site_label
_atom_site_type_symbol
_atom_site_fract_x
_atom_site_fract_y
_atom_site_fract_z
Zn1	Zn	1.132095	0.269557	-0.382791
Zn2	Zn	1.632095	0.769557	0.117209
Zn3	Zn	1.132016	0.382748	-0.269599
Zn4	Zn	1.632016	0.882748	0.230401
Zn5	Zn	1.008269	0.269569	-0.269607
Zn6	Zn	1.508269	0.769569	0.230393
Zn7	Zn	1.008215	0.382701	-0.382737
Zn8	Zn	1.508215	0.882701	0.117263
O9	O	1.070149	0.326144	-0.326183
O10	O	1.570149	0.826144	0.173817
O11	O	1.235718	0.284587	-0.367795
O12	O	1.735718	0.784587	0.132205
O13	O	1.115590	0.367759	-0.174883
O14	O	1.615590	0.867759	0.325117
O15	O	1.024750	0.174851	-0.284646
O16	O	1.524750	0.674851	0.215354
O17	O	1.235659	0.367748	-0.284633
O18	O	1.735659	0.867748	0.215367
O19	O	1.115725	0.174842	-0.367802
O20	O	1.615725	0.674842	0.132198
O21	O	1.024674	0.284607	-0.174889
O22	O	1.524674	0.784607	0.325111
O23	O	0.904629	0.284561	-0.284594
O24	O	1.404629	0.784561	0.215406
O25	O	1.024659	0.367667	-0.477461
O26	O	1.524659	0.867667	0.022539
O27	O	0.904589	0.367678	-0.367711
O28	O	1.404589	0.867678	0.132289
O29	O	1.115673	0.284542	-0.477500
O30	O	1.615673	0.784542	0.022500
O31	O	1.115538	0.477458	-0.284581
O32	O	1.615538	0.977458	0.215419
O33	O	1.024582	0.477423	-0.367703
O34	O	1.524582	0.977423	0.132297
C35	C	1.070066	0.502000	-0.326151
C36	C	1.570066	1.002000	0.173849
C37	C	1.070098	0.577232	-0.326159
C38	C	1.570098	1.077232	0.173841
C39	C	0.877738	0.326116	-0.326148
C40	C	1.377738	0.826116	0.173852
C41	C	0.795424	0.326121	-0.326149
C42	C	1.295424	0.826121	0.173851
C43	C	1.070169	0.326098	-0.502726
C44	C	1.570169	0.826098	-0.002726
C45	C	1.070177	0.326078	-0.577958
C46	C	1.570177	0.826078	-0.077958
C47	C	0.496333	0.326163	-0.326206
C48	C	0.996333	0.826163	0.173794
C49	C	0.527659	0.273606	-0.274166
C50	C	1.027659	0.773606	0.225834
C51	C	0.613277	0.273747	-0.273944
C52	C	1.113277	0.773747	0.226056
C53	C	0.644716	0.326141	-0.326178
C54	C	1.144716	0.826141	0.173822
C55	C	0.613607	0.397441	-0.306685
C56	C	1.113607	0.897441	0.193315
C57	C	0.527961	0.397149	-0.306323
C58	C	1.027961	0.897149	0.193677
C59	C	0.527937	0.308040	-0.397861
C60	C	1.027937	0.808040	0.102139
C61	C	0.613588	0.306452	-0.397470
C62	C	1.113588	0.806452	0.102530
C63	C	0.728575	0.326134	-0.326163
C64	C	1.228575	0.826134	0.173837
C65	C	0.412474	0.326176	-0.326219
C66	C	0.912474	0.826176	0.173781
C67	C	1.263311	0.326172	-0.326219
C68	C	1.763311	0.826172	0.173781
C69	C	1.345625	0.326184	-0.326234
C70	C	1.845625	0.826184	0.173766
C71	C	1.070253	0.149601	-0.326231
C72	C	1.570253	0.649601	0.173769
C73	C	1.070297	0.074369	-0.326251
C74	C	1.570297	0.574369	0.173749
C75	C	1.117504	0.612571	-0.282923
C76	C	1.617504	1.112571	0.217077
C77	C	1.117536	0.683260	-0.282938
C78	C	1.617536	1.183260	0.217062
C79	C	1.070156	0.718607	-0.326186
C80	C	1.570156	1.218607	0.173814
C81	C	1.022747	0.683263	-0.369427
C82	C	1.522747	1.183263	0.130573
C83	C	1.022720	0.612575	-0.369415
C84	C	1.522720	1.112575	0.130585
C85	C	1.022857	0.968336	-0.369477
C86	C	1.522857	1.468336	0.130523
C87	C	1.022886	1.039028	-0.369485
C88	C	1.522886	1.539028	0.130515
C89	C	1.117672	1.039020	-0.283000
C90	C	1.617672	1.539020	0.217000
C91	C	1.117645	0.968333	-0.282988
C92	C	1.617645	1.468333	0.217012
C93	C	1.070239	0.932995	-0.326231
C94	C	1.570239	1.432995	0.173769
C95	C	1.070207	0.856346	-0.326215
C96	C	1.570207	1.356346	0.173785
C97	C	1.070185	0.795254	-0.326199
C98	C	1.570185	1.295254	0.173801
C99	C	1.117634	0.369268	-1.039744
C100	C	1.617634	0.869268	-0.539744
C101	C	1.117614	0.369286	-0.969056
C102	C	1.617614	0.869286	-0.469056
C103	C	1.070269	0.326002	-0.933720
C104	C	1.570269	0.826002	-0.433720
C105	C	1.022937	0.282701	-0.969077
C106	C	1.522937	0.782701	-0.469077
C107	C	1.022954	0.282687	-1.039764
C108	C	1.522954	0.782687	-0.539764
C109	C	1.022865	0.282759	-0.684003
C110	C	1.522865	0.782759	-0.184003
C111	C	1.022853	0.282776	-0.613311
C112	C	1.522853	0.782776	-0.113311
C113	C	1.117525	0.369359	-0.613295
C114	C	1.617525	0.869359	-0.113295
C115	C	1.117542	0.369344	-0.683982
C116	C	1.617542	0.869344	-0.183982
C117	C	1.070207	0.326047	-0.719333
C118	C	1.570207	0.826047	-0.219333
C119	C	1.070229	0.326028	-0.795981
C120	C	1.570229	0.826028	-0.295981
C121	C	1.070250	0.326017	-0.857073
C122	C	1.570250	0.826017	-0.357073
C123	C	1.070172	0.326140	-0.150327
C124	C	1.570172	0.826140	0.349673
C125	C	1.070307	0.325969	-0.075096
C126	C	1.570307	0.825969	0.424904
H127	H	0.634311	0.220876	-0.286163
H128	H	1.134311	0.720876	0.213837
Cl129	Cl	0.495890	0.191724	-0.292821
Cl130	Cl	0.995890	0.691724	0.207179
H131	H	0.984297	0.247526	-0.584543
H132	H	1.484297	0.747526	-0.084543
H133	H	0.984321	0.247504	-0.712777
H134	H	1.484321	0.747504	-0.212777
Cl135	Cl	0.963427	0.228277	-0.924655
Cl136	Cl	1.463427	0.728277	-0.424655
H137	H	1.156275	1.067801	-0.247792
H138	H	1.656275	1.567801	0.252208
Cl139	Cl	0.495963	0.459656	-0.362284
Cl140	Cl	0.995963	0.959656	0.137716
H141	H	0.635029	0.413077	-0.254867
H142	H	1.135029	0.913077	0.245133
Cl143	Cl	0.494625	0.229164	-0.425222
Cl144	Cl	0.994625	0.729164	0.074778
Cl145	Cl	0.645000	0.225451	-0.420173
Cl146	Cl	1.145000	0.725451	0.079827
H147	H	0.984256	0.939569	-0.404686
H148	H	1.484256	1.439569	0.095314
H149	H	0.633738	0.285728	-0.220849
H150	H	1.133738	0.785728	0.279151
H151	H	0.506117	0.285452	-0.221380
H152	H	1.006117	0.785452	0.278620
Cl153	Cl	0.963123	0.568148	-0.423774
Cl154	Cl	1.463123	1.068148	0.076226
H155	H	0.984305	1.067806	-0.404708
H156	H	1.484305	1.567806	0.095292
Cl157	Cl	1.177064	0.423761	-0.728400
Cl158	Cl	1.677064	0.923761	-0.228400
Cl159	Cl	0.645035	0.459520	-0.363376
Cl160	Cl	1.145035	0.959520	0.136624
Cl161	Cl	0.963188	0.727699	-0.423801
Cl162	Cl	1.463188	1.227699	0.076199
Cl163	Cl	0.963458	0.228248	-1.084206
Cl164	Cl	1.463458	0.728248	-0.584206
H165	H	1.156191	0.404512	-1.068509
H166	H	1.656191	0.904512	-0.568509
Cl167	Cl	1.177115	0.423720	-0.924616
Cl168	Cl	1.677115	0.923720	-0.424616
H169	H	0.507958	0.412518	-0.253939
H170	H	1.007958	0.912518	0.246061
Cl171	Cl	1.177138	0.727684	-0.228583
Cl172	Cl	1.677138	1.227684	0.271417
H173	H	1.156065	0.404616	-0.584504
H174	H	1.656065	0.904616	-0.084504
H175	H	0.634991	0.341942	-0.438321
H176	H	1.134991	0.841942	0.061679
H177	H	0.507679	0.346320	-0.436635
H178	H	1.007679	0.846320	0.063365
Cl179	Cl	1.177066	0.568142	-0.228546
Cl180	Cl	1.677066	1.068142	0.271454
H181	H	1.156223	0.939556	-0.247769
H182	H	1.656223	1.439556	0.252231
