data_functionalizedCrystal
_audit_creation_method	'MofGen! by Chris Wilmer'
_symmetry_space_group_name_H-M	'P1'
_symmetry_Int_Tables_number	1
_symmetry_cell_setting	triclinic
loop_
_symmetry_equiv_pos_as_xyz
  x,y,z
_cell_length_a	19.188930
_cell_length_b	16.992695
_cell_length_c	16.053802
_cell_angle_alpha	87.258926
_cell_angle_beta	92.586369
_cell_angle_gamma	86.906501
loop_
_atom_site_label
_atom_site_type_symbol
_atom_site_fract_x
_atom_site_fract_y
_atom_site_fract_z
O1	O	-0.934644	-0.094549	-0.069701
O2	O	-0.434644	0.405451	0.430299
O3	O	-0.732101	-0.107727	-0.069644
O4	O	-0.232101	0.392273	0.430356
O5	O	-0.832560	0.013002	-0.069666
O6	O	-0.332560	0.513002	0.430334
O7	O	-0.834185	-0.215277	-0.069679
O8	O	-0.334185	0.284723	0.430321
O9	O	-0.827029	0.006384	0.069194
O10	O	-0.327029	0.506384	0.569194
O11	O	-0.726570	-0.114345	0.069216
O12	O	-0.226570	0.385655	0.569216
O13	O	-0.929113	-0.101167	0.069159
O14	O	-0.429113	0.398833	0.569159
Zn15	Zn	-0.826963	-0.108807	0.091235
Zn16	Zn	-0.326963	0.391193	0.591235
Zn17	Zn	-0.834250	-0.100087	-0.091720
Zn18	Zn	-0.334250	0.399913	0.408280
O19	O	-0.828653	-0.221895	0.069181
O20	O	-0.328653	0.278105	0.569181
C21	C	-0.703299	-0.110610	-0.000207
C22	C	-0.203299	0.389390	0.499793
C23	C	-0.625719	-0.109330	-0.000185
C24	C	-0.125719	0.390670	0.499815
C25	C	-0.827705	0.038898	-0.000235
C26	C	-0.327705	0.538898	0.499765
C27	C	-0.821472	0.125921	-0.000234
C28	C	-0.321472	0.625921	0.499766
C29	C	-0.957914	-0.098284	-0.000280
C30	C	-0.457914	0.401716	0.499720
C31	C	-1.035495	-0.099564	-0.000308
C32	C	-0.535495	0.400436	0.499692
C33	C	-0.584941	-0.180168	-0.000202
C34	C	-0.084941	0.319832	0.499798
C35	C	-0.512047	-0.178964	-0.000211
C36	C	-0.012047	0.321036	0.499789
C37	C	-0.479935	-0.106918	-0.000220
C38	C	0.020065	0.393082	0.499780
C39	C	-0.520722	-0.036070	-0.000198
C40	C	-0.020722	0.463930	0.499802
C41	C	-0.593614	-0.037276	-0.000180
C42	C	-0.093614	0.462724	0.499820
N43	N	-0.370616	-0.049593	-0.047510
N44	N	0.129384	0.450407	0.452490
N45	N	-0.301371	-0.048452	-0.047528
N46	N	0.198629	0.451548	0.452472
C47	C	-0.260316	-0.103279	-0.000271
C48	C	0.239684	0.396721	0.499729
N49	N	-0.291120	-0.159302	0.046996
N50	N	0.208880	0.340698	0.546996
N51	N	-0.360371	-0.160445	0.047011
N52	N	0.139629	0.339555	0.547011
C53	C	-0.400896	-0.105602	-0.000238
C54	C	0.099104	0.394398	0.499762
C55	C	-0.140497	-0.172817	-0.000297
C56	C	0.359503	0.327183	0.499703
C57	C	-0.067602	-0.171611	-0.000300
C58	C	0.432398	0.328389	0.499700
C59	C	-0.076279	-0.028714	-0.000295
C60	C	0.423721	0.471286	0.499705
C61	C	-0.149172	-0.029923	-0.000283
C62	C	0.350828	0.470077	0.499717
C63	C	-0.181277	-0.101977	-0.000288
C64	C	0.318723	0.398023	0.499712
C65	C	-0.833508	-0.247792	-0.000252
C66	C	-0.333508	0.252208	0.499748
C67	C	-0.839741	-0.334814	-0.000259
C68	C	-0.339741	0.165186	0.499741
N69	N	-0.821995	-0.114757	0.216096
N70	N	-0.321995	0.385243	0.716096
C71	C	-0.881613	0.176368	-0.000250
C72	C	-0.381613	0.676368	0.499750
C73	C	-0.875752	0.258135	-0.000256
C74	C	-0.375752	0.758135	0.499744
C75	C	-0.809751	0.289453	-0.000240
C76	C	-0.309751	0.789453	0.499760
C77	C	-0.749606	0.238999	-0.000227
C78	C	-0.249606	0.738999	0.499773
C79	C	-0.755467	0.157234	-0.000226
C80	C	-0.255467	0.657234	0.499774
C81	C	-0.785458	0.532967	-0.000245
C82	C	-0.285458	1.032967	0.499755
C83	C	-0.779601	0.614738	-0.000243
C84	C	-0.279601	1.114738	0.499757
C85	C	-0.905748	0.633869	-0.000273
C86	C	-0.405748	1.133869	0.499727
C87	C	-0.911603	0.552102	-0.000268
C88	C	-0.411603	1.052102	0.499732
C89	C	-0.851459	0.501655	-0.000259
C90	C	-0.351459	1.001655	0.499741
N91	N	-0.803759	0.373031	-0.000244
N92	N	-0.303759	0.873031	0.499756
N93	N	-0.857452	0.418079	-0.000261
N94	N	-0.357452	0.918079	0.499739
N95	N	-0.839224	-0.094131	-0.216581
N96	N	-0.339224	0.405869	0.283419
C97	C	-0.864758	-0.063405	0.259781
C98	C	-0.364758	0.436595	0.759781
C99	C	-0.861289	-0.067575	0.347188
C100	C	-0.361289	0.432425	0.847188
C101	C	-0.815061	-0.123101	0.390909
C102	C	-0.315061	0.376899	0.890909
C103	C	-0.772293	-0.174455	0.347219
C104	C	-0.272293	0.325545	0.847219
C105	C	-0.775758	-0.170281	0.259813
C106	C	-0.275758	0.329719	0.759813
C107	C	-0.799922	-0.141311	0.652322
C108	C	-0.299922	0.358689	1.152322
C109	C	-0.796461	-0.145483	0.739734
C110	C	-0.296461	0.354517	1.239734
C111	C	-0.885457	-0.038601	0.739698
C112	C	-0.385457	0.461399	1.239698
C113	C	-0.888921	-0.034435	0.652290
C114	C	-0.388921	0.465565	1.152290
C115	C	-0.846151	-0.085786	0.608607
C116	C	-0.346151	0.414214	1.108607
N117	N	-0.811516	-0.127366	0.480254
N118	N	-0.311516	0.372634	0.980254
N119	N	-0.849693	-0.081517	0.519264
N120	N	-0.349693	0.418483	1.019264
H121	H	-0.478839	-0.236651	-0.000223
H122	H	0.021161	0.263349	0.499777
H123	H	-0.758814	-0.190702	0.775328
H124	H	-0.258814	0.309298	1.275328
C125	C	-0.620256	-0.259421	-0.000203
C126	C	-0.120256	0.240579	0.499797
H127	H	-0.669509	-0.249996	-0.000197
H128	H	-0.169509	0.250004	0.499803
H129	H	-0.604581	-0.290891	0.048214
H130	H	-0.104581	0.209109	0.548214
H131	H	-0.608474	-0.286265	-0.048640
H132	H	-0.108474	0.213735	0.451360
H133	H	-0.896110	-0.025759	0.382756
H134	H	-0.396110	0.474241	0.882756
C135	C	-0.194031	0.048000	-0.000277
C136	C	0.305969	0.548000	0.499723
H137	H	-0.164468	0.091083	-0.000290
H138	H	0.335532	0.591083	0.499710
H139	H	-0.220702	0.048195	0.048152
H140	H	0.279298	0.548195	0.548152
H141	H	-0.224590	0.052805	-0.048701
H142	H	0.275410	0.552805	0.451299
H143	H	-0.740935	-0.212096	0.224245
H144	H	-0.240935	0.287904	0.724245
H145	H	-0.765098	-0.183125	0.616762
H146	H	-0.265098	0.316875	1.116762
C147	C	-0.022743	-0.249535	-0.000320
C148	C	0.477257	0.250465	0.499680
H149	H	0.025268	-0.238499	-0.000321
H150	H	0.525268	0.261501	0.499679
H151	H	-0.034851	-0.276776	-0.048746
H152	H	0.465149	0.223224	0.451254
H153	H	-0.030962	-0.281400	0.048107
H154	H	0.469038	0.218600	0.548107
H155	H	-0.695866	0.264504	-0.000219
H156	H	-0.195866	0.764504	0.499781
H157	H	-0.706495	0.116159	-0.000213
H158	H	-0.206495	0.616159	0.499787
C159	C	-0.721444	-0.235534	0.395309
C160	C	-0.221444	0.264466	0.895309
H161	H	-0.725509	-0.230671	0.453622
H162	H	-0.225509	0.269329	0.953622
H163	H	-0.674947	-0.226468	0.381015
H164	H	-0.174947	0.273532	0.881015
H165	H	-0.732516	-0.287151	0.380967
H166	H	-0.232516	0.212849	0.880967
C167	C	-0.954215	0.141926	-0.000267
C168	C	-0.454215	0.641926	0.499733
H169	H	-0.989192	0.183685	-0.000285
H170	H	-0.489192	0.683685	0.499715
H171	H	-0.957197	0.108123	0.048155
H172	H	-0.457197	0.608123	0.548155
H173	H	-0.961052	0.112734	-0.048698
H174	H	-0.461052	0.612734	0.451302
C175	C	-0.941906	0.313624	-0.000265
C176	C	-0.441906	0.813624	0.499735
H177	H	-0.982053	0.283261	-0.000262
H178	H	-0.482053	0.783261	0.499738
H179	H	-0.944178	0.348224	-0.048688
H180	H	-0.444178	0.848224	0.451312
H181	H	-0.940307	0.343611	0.048165
H182	H	-0.440307	0.843611	0.548165
H183	H	-0.494572	0.022591	-0.000216
H184	H	0.005428	0.522591	0.499784
C185	C	-0.638472	0.040649	-0.000171
C186	C	-0.138472	0.540649	0.499829
H187	H	-0.608910	0.083732	-0.000182
H188	H	-0.108910	0.583732	0.499818
H189	H	-0.665146	0.040843	0.048256
H190	H	-0.165146	0.540843	0.548256
H191	H	-0.669029	0.045453	-0.048598
H192	H	-0.169029	0.545453	0.451402
C193	C	-0.915609	-0.002324	0.211695
C194	C	-0.415609	0.497676	0.711695
H195	H	-0.940575	0.027666	0.250234
H196	H	-0.440575	0.527666	0.750234
H197	H	-0.947593	-0.028813	0.177574
H198	H	-0.447593	0.471187	0.677574
H199	H	-0.890024	0.031870	0.177621
H200	H	-0.390024	0.531870	0.677621
H201	H	-0.926564	0.010779	0.616694
H202	H	-0.426564	0.510779	1.116694
C203	C	-0.706997	0.649187	-0.000240
C204	C	-0.206997	1.149187	0.499760
H205	H	-0.672016	0.607433	-0.000245
H206	H	-0.172016	1.107433	0.499755
H207	H	-0.700153	0.678382	0.048183
H208	H	-0.200153	1.178382	0.548183
H209	H	-0.704030	0.682990	-0.048671
H210	H	-0.204030	1.182990	0.451329
C211	C	-0.175819	-0.252069	-0.000291
C212	C	0.324181	0.247931	0.499709
H213	H	-0.225072	-0.242642	-0.000290
H214	H	0.274928	0.257358	0.499710
H215	H	-0.160147	-0.283535	0.048129
H216	H	0.339853	0.216465	0.548129
H217	H	-0.164035	-0.278919	-0.048724
H218	H	0.335965	0.221081	0.451276
C219	C	-0.719304	0.477483	-0.000235
C220	C	-0.219304	0.977483	0.499765
H221	H	-0.732243	0.424301	-0.000249
H222	H	-0.232243	0.924301	0.499751
H223	H	-0.690495	0.484645	0.048193
H224	H	-0.190495	0.984645	0.548193
H225	H	-0.694364	0.489265	-0.048660
H226	H	-0.194364	0.989265	0.451340
C227	C	-0.932493	0.017888	0.787751
C228	C	-0.432493	0.517888	1.287751
H229	H	-0.923806	0.007456	0.846068
H230	H	-0.423806	0.507456	1.346068
H231	H	-0.980125	0.010192	0.773399
H232	H	-0.480125	0.510192	1.273399
H233	H	-0.922554	0.070872	0.773439
H234	H	-0.422554	0.570872	1.273439
H235	H	-0.954714	0.674951	-0.000282
H236	H	-0.454714	1.174951	0.499718
C237	C	-0.040965	0.050536	-0.000310
C238	C	0.459035	0.550536	0.499690
H239	H	0.008288	0.041110	-0.000329
H240	H	0.508288	0.541110	0.499671
H241	H	-0.052746	0.077391	0.048115
H242	H	0.447254	0.577391	0.548115
H243	H	-0.056640	0.081996	-0.048738
H244	H	0.443360	0.581996	0.451262
H245	H	-0.965348	0.526610	-0.000281
H246	H	-0.465348	1.026610	0.499719
