data_functionalizedCrystal
_audit_creation_method	'MofGen! by Chris Wilmer'
_symmetry_space_group_name_H-M	'P1'
_symmetry_Int_Tables_number	1
_symmetry_cell_setting	triclinic
loop_
_symmetry_equiv_pos_as_xyz
  x,y,z
_cell_length_a	13.339070
_cell_length_b	13.339070
_cell_length_c	18.266242
_cell_angle_alpha	89.993743
_cell_angle_beta	90.001352
_cell_angle_gamma	115.629294
loop_
_atom_site_label
_atom_site_type_symbol
_atom_site_fract_x
_atom_site_fract_y
_atom_site_fract_z
O1	O	-1.496800	-0.550529	0.060900
O2	O	-1.181990	-0.478270	0.060897
O3	O	-1.303265	-0.356995	0.060896
O4	O	-1.375525	-0.671804	0.060901
O5	O	-1.303264	-0.356980	-0.060866
O6	O	-1.181989	-0.478254	-0.060865
O7	O	-1.496799	-0.550514	-0.060862
Zn8	Zn	-1.339394	-0.514382	-0.080196
Zn9	Zn	-1.339395	-0.514402	0.080231
O10	O	-1.375524	-0.671789	-0.060861
C11	C	-1.140874	-0.466056	0.000015
C12	C	-1.018360	-0.429672	0.000014
C13	C	-1.291058	-0.315872	0.000016
C14	C	-1.254675	-0.193358	0.000018
C15	C	-1.537914	-0.562728	0.000021
C16	C	-1.660428	-0.599111	0.000027
C17	C	-1.387730	-0.712912	0.000021
C18	C	-1.424114	-0.835426	0.000023
C19	C	-0.732973	-0.712571	0.000030
C20	C	-0.848081	-0.746759	0.000034
C21	C	-0.890657	-0.667490	0.000029
C22	C	-0.818112	-0.554028	0.000020
C23	C	-0.702992	-0.519837	0.000023
C24	C	-0.860676	-0.474756	0.000021
C25	C	-0.788132	-0.361294	0.000013
C26	C	-0.673023	-0.327109	0.000014
C27	C	-0.630448	-0.406377	0.000020
C28	C	-0.975796	-0.508947	0.000019
C29	C	-0.945816	-0.316213	0.000011
C30	C	-0.830707	-0.282025	0.000008
N31	N	-1.339401	-0.514370	-0.189683
C32	C	-1.537574	0.092030	0.000021
C33	C	-1.571761	-0.023079	0.000014
C34	C	-1.492492	-0.065654	0.000016
C35	C	-1.379030	0.006890	0.000023
C36	C	-1.344839	0.122010	0.000024
C37	C	-1.299758	-0.035674	0.000018
C38	C	-1.186296	0.036871	0.000026
C39	C	-1.152111	0.151979	0.000027
C40	C	-1.231380	0.194555	0.000026
C41	C	-1.333949	-0.150794	0.000018
C42	C	-1.141215	-0.120813	0.000020
C43	C	-1.107028	-0.005705	0.000027
N44	N	-1.339394	-0.514408	0.189718
C45	C	-1.393269	-0.460891	0.228026
C46	C	-1.393279	-0.460891	0.304671
C47	C	-1.339391	-0.514393	0.343005
C48	C	-1.285514	-0.567922	0.304687
C49	C	-1.285516	-0.567930	0.228043
N50	N	-1.246080	-0.500862	0.463343
N51	N	-1.246080	-0.500849	0.536151
C52	C	-1.339384	-0.514376	0.573927
N53	N	-1.432686	-0.527895	0.536145
N54	N	-1.432684	-0.527902	0.463330
C55	C	-1.339384	-0.514392	0.426112
C56	C	-1.393275	-0.460857	0.695343
C57	C	-1.393287	-0.460866	0.771989
C58	C	-1.285512	-0.567889	0.772003
C59	C	-1.285510	-0.567888	0.695358
C60	C	-1.339389	-0.514366	0.657033
H61	H	-1.034852	-0.601328	0.000022
H62	H	-1.602102	0.126707	0.000014
H63	H	-1.437150	-0.417281	0.664137
F64	F	-1.450639	-0.403911	0.812761
F65	F	-1.450623	-0.403928	0.345449
H66	H	-1.426331	-0.209849	0.000011
F67	F	-1.228167	-0.624867	0.345484
F68	F	-1.528881	-0.188164	0.000011
F69	F	-1.228169	-0.624838	0.812797
F70	F	-1.228163	-0.624842	0.654584
F71	F	-1.194999	0.317067	0.000102
F72	F	-1.013167	-0.703879	0.000031
F73	F	-1.450616	-0.403934	0.187239
F74	F	-1.228172	-0.624892	0.187271
H75	H	-1.664142	-0.082137	0.000007
F76	F	-0.986275	0.071515	0.000036
H77	H	-0.907140	-0.839139	0.000046
H78	H	-0.698296	-0.777099	0.000041
F79	F	-0.507935	-0.369997	0.000014
H80	H	-0.613959	-0.234721	0.000016
F81	F	-0.753487	-0.161273	-0.000001
F82	F	-1.056845	-0.166119	0.000017
H83	H	-0.980479	-0.251665	0.000010
H84	H	-1.059723	0.211043	0.000027
