data_functionalizedCrystal
_audit_creation_method	'MofGen! by Chris Wilmer'
_symmetry_space_group_name_H-M	'P1'
_symmetry_Int_Tables_number	1
_symmetry_cell_setting	triclinic
loop_
_symmetry_equiv_pos_as_xyz
  x,y,z
_cell_length_a	11.169417
_cell_length_b	16.120256
_cell_length_c	11.169416
_cell_angle_alpha	92.880283
_cell_angle_beta	90.011219
_cell_angle_gamma	92.881592
loop_
_atom_site_label
_atom_site_type_symbol
_atom_site_fract_x
_atom_site_fract_y
_atom_site_fract_z
Zn1	Zn	1.800522	-0.471350	-0.512238
Zn2	Zn	2.133855	-0.138016	-0.178904
Zn3	Zn	2.467189	0.195317	0.154429
Zn4	Zn	1.810597	-0.331951	-0.702758
Zn5	Zn	2.143930	0.001382	-0.369425
Zn6	Zn	2.477263	0.334715	-0.036092
Zn7	Zn	1.609993	-0.331960	-0.502092
Zn8	Zn	1.943326	0.001373	-0.168758
Zn9	Zn	2.276659	0.334707	0.164575
Zn10	Zn	1.599817	-0.471327	-0.712879
Zn11	Zn	1.933150	-0.137993	-0.379545
Zn12	Zn	2.266484	0.195340	-0.046212
O13	O	1.705232	-0.401647	-0.607492
O14	O	2.038565	-0.068314	-0.274158
O15	O	2.371899	0.265020	0.059175
O16	O	1.969808	-0.452864	-0.537521
O17	O	2.303141	-0.119531	-0.204188
O18	O	2.636474	0.213802	0.129145
O19	O	1.792461	-0.215288	-0.667658
O20	O	2.125795	0.118045	-0.334325
O21	O	2.459128	0.451378	-0.000991
O22	O	1.635309	-0.350463	-0.335489
O23	O	1.968642	-0.017130	-0.002155
O24	O	2.301976	0.316203	0.331178
O25	O	1.977210	-0.350449	-0.677496
O26	O	2.310543	-0.017115	-0.344163
O27	O	2.643876	0.316218	-0.010829
O28	O	1.775290	-0.452873	-0.342943
O29	O	2.108623	-0.119539	-0.009610
O30	O	2.441957	0.213794	0.323724
O31	O	1.645078	-0.215294	-0.520229
O32	O	1.978412	0.118039	-0.186896
O33	O	2.311745	0.451372	0.146438
O34	O	1.440694	-0.350441	-0.530042
O35	O	1.774027	-0.017108	-0.196709
O36	O	2.107360	0.316226	0.136624
O37	O	1.617966	-0.587994	-0.694745
O38	O	1.951299	-0.254661	-0.361411
O39	O	2.284633	0.078673	-0.028078
O40	O	1.433218	-0.452833	-0.684907
O41	O	1.766551	-0.119500	-0.351573
O42	O	2.099884	0.213833	-0.018240
O43	O	1.765423	-0.588011	-0.547334
O44	O	2.098756	-0.254678	-0.214001
O45	O	2.432090	0.078656	0.119332
O46	O	1.782594	-0.350427	-0.872050
O47	O	2.115928	-0.017093	-0.538716
O48	O	2.449261	0.316240	-0.205383
O49	O	1.627735	-0.452825	-0.879485
O50	O	1.961069	-0.119492	-0.546152
O51	O	2.294402	0.213842	-0.212818
C52	C	1.393408	-0.401636	-0.607473
C53	C	1.726742	-0.068303	-0.274139
C54	C	2.060075	0.265030	0.059194
C55	C	1.260007	-0.401651	-0.607495
C56	C	1.593340	-0.068318	-0.274162
C57	C	1.926674	0.265015	0.059172
C58	C	1.689436	-0.619098	-0.623300
C59	C	2.022769	-0.285765	-0.289967
C60	C	2.356102	0.047569	0.043367
C61	C	1.682704	-0.711763	-0.630037
C62	C	2.016037	-0.378429	-0.296703
C63	C	2.349371	-0.045096	0.036630
C64	C	1.740334	-0.922718	-0.572330
C65	C	2.073667	-0.589385	-0.238997
C66	C	2.407001	-0.256051	0.094337
C67	C	1.670374	-0.881417	-0.642286
C68	C	2.003707	-0.548084	-0.308953
C69	C	2.337041	-0.214750	0.024380
C70	C	1.677236	-0.787013	-0.635469
C71	C	2.010570	-0.453679	-0.302135
C72	C	2.343903	-0.120346	0.031198
C73	C	1.733473	-1.017131	-0.579146
C74	C	2.066806	-0.683798	-0.245813
C75	C	2.400140	-0.350464	0.087521
C76	C	2.018274	-0.401658	-0.607512
C77	C	2.351607	-0.068325	-0.274178
C78	C	2.684940	0.265009	0.059155
C79	C	2.151673	-0.401663	-0.607520
C80	C	2.485007	-0.068330	-0.274187
C81	C	2.818340	0.265004	0.059147
C82	C	1.705185	-0.401641	-0.919316
C83	C	2.038518	-0.068307	-0.585982
C84	C	2.371852	0.265026	-0.252649
C85	C	1.705273	-0.401666	-1.052718
C86	C	2.038606	-0.068332	-0.719384
C87	C	2.371939	0.265001	-0.386051
C88	C	1.721036	-0.185042	-0.591658
C89	C	2.054370	0.148292	-0.258325
C90	C	2.387703	0.481625	0.075009
C91	C	1.728000	-0.092377	-0.584583
C92	C	2.061333	0.240956	-0.251250
C93	C	2.394667	0.574289	0.082083
C94	C	1.705311	-0.401672	-0.294451
C95	C	2.038644	-0.068338	0.038882
C96	C	2.371977	0.264995	0.372216
C97	C	1.705344	-0.401682	-0.161052
C98	C	2.038678	-0.068349	0.172282
C99	C	2.372011	0.264985	0.505615
H100	H	1.805378	-0.887179	-0.507324
H101	H	2.138712	-0.553846	-0.173991
H102	H	2.472045	-0.220513	0.159343
H103	H	1.605318	-0.916958	-0.707292
H104	H	1.938652	-0.583625	-0.373958
H105	H	2.271985	-0.250291	-0.040625
