data_functionalizedCrystal
_audit_creation_method	'MofGen! by Chris Wilmer'
_symmetry_space_group_name_H-M	'P1'
_symmetry_Int_Tables_number	1
_symmetry_cell_setting	triclinic
loop_
_symmetry_equiv_pos_as_xyz
  x,y,z
_cell_length_a	27.732048
_cell_length_b	11.295483
_cell_length_c	12.837942
_cell_angle_alpha	94.530417
_cell_angle_beta	88.735798
_cell_angle_gamma	85.934336
loop_
_atom_site_label
_atom_site_type_symbol
_atom_site_fract_x
_atom_site_fract_y
_atom_site_fract_z
O1	O	0.649961	-0.098869	0.116236
O2	O	0.510097	-0.098905	0.134974
O3	O	0.576928	-0.098881	-0.025247
O4	O	0.583131	-0.098894	0.276458
O5	O	0.571057	0.099168	-0.011196
O6	O	0.504227	0.099144	0.149025
O7	O	0.644090	0.099179	0.130287
Cu8	Cu	0.573622	0.117245	0.140939
Cu9	Cu	0.580565	-0.116971	0.124322
O10	O	0.577260	0.099155	0.290509
C11	C	0.489136	0.000115	0.141606
C12	C	0.435423	0.000101	0.140421
N13	N	0.568743	0.281979	0.152626
N14	N	0.585449	-0.281705	0.112627
C15	C	0.100928	0.000149	0.227648
C16	C	-0.100950	0.000160	0.223254
O17	O	-0.128255	0.000208	0.303017
N18	N	-0.124781	0.000162	0.128248
C19	C	-0.098140	0.000169	0.034335
O20	O	-0.123042	0.000183	-0.046573
C21	C	0.103737	0.000167	0.038731
C22	C	0.127566	0.000152	0.133742
C23	C	0.124756	0.000136	0.322652
C24	C	0.175223	0.000127	0.323749
C25	C	0.201861	0.000131	0.229842
C26	C	0.178032	0.000143	0.134839
C27	C	0.130377	0.000182	-0.055181
C28	C	0.180849	0.000185	-0.054073
C29	C	0.204678	0.000171	0.040938
C30	C	0.255137	0.000138	0.042030
N31	N	0.278968	0.000136	0.137035
C32	C	0.252330	0.000132	0.230942
C33	C	-0.204128	0.000168	0.032033
C34	C	-0.254596	0.000166	0.030934
C35	C	-0.257404	0.000159	0.219854
C36	C	-0.206934	0.000152	0.220951
C37	C	-0.180297	0.000166	0.127039
C38	C	0.358313	0.000112	0.233239
C39	C	0.408785	0.000098	0.234327
C40	C	0.411587	0.000111	0.045408
C41	C	0.361120	0.000119	0.044319
C42	C	0.334484	0.000123	0.138243
O43	O	0.282472	0.000103	-0.037690
O44	O	0.277240	0.000144	0.311840
C45	C	0.050461	0.000158	0.226551
C46	C	0.026632	0.000171	0.131548
C47	C	0.053270	0.000174	0.037641
C48	C	-0.023837	0.000169	0.130448
C49	C	-0.050474	0.000166	0.224354
C50	C	-0.026644	0.000164	0.319360
C51	C	0.023823	0.000155	0.320457
C52	C	0.029439	0.000176	-0.057364
C53	C	-0.021027	0.000184	-0.058454
C54	C	-0.047665	0.000181	0.035452
C55	C	0.665052	0.000157	0.123655
C56	C	0.718766	0.000163	0.124840
C57	C	0.571897	0.000142	-0.056809
C58	C	0.565648	0.000139	-0.171786
C59	C	0.620574	0.531288	0.028441
C60	C	0.616890	0.655950	0.037280
C61	C	0.557688	0.655969	0.179138
C62	C	0.561372	0.531306	0.170299
C63	C	0.592817	0.468970	0.094949
C64	C	0.596503	0.344306	0.086115
C65	C	0.537299	0.344326	0.227968
C66	C	0.533615	0.468989	0.236807
C67	C	0.640777	0.000133	-0.413948
C68	C	0.634907	0.000130	-0.521981
C69	C	0.548040	0.000120	-0.495885
C70	C	0.553909	0.000123	-0.387853
C71	C	0.600279	0.000132	-0.346889
C72	C	0.606148	0.000144	-0.238854
C73	C	0.519281	0.000126	-0.212761
C74	C	0.513412	0.000122	-0.320793
C75	C	0.582291	0.000129	0.322070
C76	C	0.588540	0.000125	0.437047
H77	H	0.428183	0.000085	0.311700
H78	H	0.532084	0.706739	0.240479
H79	H	0.646180	0.480533	-0.032905
H80	H	0.678533	0.000152	-0.380594
O81	O	0.503043	0.529681	0.309866
C82	C	0.468549	0.601775	0.259946
H83	H	0.483500	0.620441	0.179924
H84	H	0.433947	0.553743	0.250041
C85	C	0.439057	0.697272	0.425181
C86	C	0.457420	0.720206	0.326899
H87	H	0.432190	0.770324	0.466482
H88	H	0.462294	0.648698	0.458814
H89	H	0.410223	0.657242	0.416912
H90	H	0.486256	0.760222	0.335169
H91	H	0.434187	0.768790	0.293270
H92	H	0.667885	0.000127	-0.576578
H93	H	0.336632	0.000119	0.309721
H94	H	0.486305	0.000134	-0.158148
O95	O	-0.044231	0.000352	-0.150679
C96	C	-0.076362	0.102948	-0.149698
H97	H	-0.086158	0.137135	-0.065425
H98	H	-0.058339	0.174773	-0.190784
C99	C	-0.110546	0.029823	-0.310474
C100	C	-0.122580	0.071806	-0.206968
H101	H	-0.139054	0.010616	-0.345804
H102	H	-0.088897	-0.039296	-0.311137
H103	H	-0.095526	0.089684	-0.344698
H104	H	-0.137594	0.011940	-0.172742
H105	H	-0.144232	0.140914	-0.206300
H106	H	0.510288	0.000100	-0.529259
O107	O	0.643903	0.716301	-0.027379
C108	C	0.672434	0.634544	-0.095796
H109	H	0.677563	0.545681	-0.059634
H110	H	0.653595	0.621289	-0.173451
C111	C	0.715818	0.792325	-0.158897
C112	C	0.722121	0.683185	-0.114478
H113	H	0.746467	0.822330	-0.170425
H114	H	0.696595	0.847408	-0.112806
H115	H	0.700118	0.781265	-0.223604
H116	H	0.737816	0.694249	-0.049766
H117	H	0.741348	0.628105	-0.160558
O118	O	0.046889	0.000201	0.412848
C119	C	0.012547	0.000171	0.495482
H120	H	-0.024124	0.037668	0.469653
H121	H	0.009558	-0.094844	0.517668
C122	C	0.073651	0.031781	0.622393
C123	C	0.028611	0.077845	0.590672
H124	H	0.083560	0.079689	0.681113
H125	H	0.096788	0.031797	0.566721
H126	H	0.071154	-0.047397	0.640874
H127	H	0.031111	0.157015	0.572180
H128	H	0.005475	0.077844	0.646344
O129	O	0.510407	0.283663	0.292617
C130	C	0.541353	0.211579	0.351045
H131	H	0.577799	0.192889	0.307894
H132	H	0.546744	0.259633	0.430955
C133	C	0.473879	0.116127	0.418212
C134	C	0.518641	0.093163	0.365209
H135	H	0.459868	0.043084	0.426954
H136	H	0.453029	0.164694	0.378851
H137	H	0.478377	0.156174	0.484797
H138	H	0.514141	0.053130	0.298620
H139	H	0.539489	0.044586	0.404559
O140	O	0.198288	0.000181	0.416139
C141	C	0.163947	0.000154	0.498774
H142	H	0.127275	0.037644	0.472942
H143	H	0.160959	-0.094859	0.520966
C144	C	0.225049	0.031781	0.625684
C145	C	0.180009	0.077837	0.593960
H146	H	0.234958	0.079695	0.684402
H147	H	0.248187	0.031795	0.570012
H148	H	0.222553	-0.047395	0.644170
H149	H	0.182507	0.157006	0.575462
H150	H	0.156873	0.077839	0.649631
O151	O	0.626987	0.283829	0.012766
C152	C	0.613503	0.314358	-0.087477
H153	H	0.573793	0.348620	-0.084945
H154	H	0.636725	0.386737	-0.113157
C155	C	0.669819	0.161567	-0.168816
C156	C	0.621046	0.203639	-0.165709
H157	H	0.674474	0.093273	-0.217075
H158	H	0.678905	0.141002	-0.101281
H159	H	0.689165	0.221894	-0.190213
H160	H	0.601701	0.143318	-0.144300
H161	H	0.611957	0.224192	-0.233242
H162	H	0.643905	0.000155	-0.205503
O163	O	-0.183866	0.000200	0.313340
C164	C	-0.218205	0.000161	0.395978
H165	H	-0.254878	0.037652	0.370154
H166	H	-0.221192	-0.094856	0.418161
C167	C	-0.157099	0.031777	0.522882
C168	C	-0.202141	0.077834	0.491168
H169	H	-0.147190	0.079685	0.581602
H170	H	-0.133964	0.031799	0.467208
H171	H	-0.159594	-0.047403	0.541361
H172	H	-0.199645	0.157007	0.472677
H173	H	-0.225276	0.077828	0.546841
H174	H	0.341719	0.000113	-0.033048
O175	O	0.468338	0.000061	-0.360422
C176	C	0.433852	0.000094	-0.278061
H177	H	0.451879	-0.037393	-0.207533
H178	H	0.418307	0.095108	-0.255828
C179	C	0.370685	-0.031536	-0.400022
C180	C	0.392825	-0.077589	-0.313401
H181	H	0.345376	-0.079450	-0.421821
H182	H	0.393918	-0.031555	-0.455511
H183	H	0.357735	0.047641	-0.381482
H184	H	0.405779	-0.156759	-0.331945
H185	H	0.369593	-0.077586	-0.257916
H186	H	0.110985	0.000195	-0.132549
H187	H	0.103073	0.000138	0.399126
H188	H	-0.279101	0.000157	0.296316
H189	H	-0.182444	0.000179	-0.044446
H190	H	0.202535	0.000196	-0.130550
H191	H	0.433285	0.000109	-0.031048
H192	H	-0.048341	0.000156	0.395822
H193	H	0.051123	0.000182	-0.133836
H194	H	-0.273993	0.000159	-0.046435
