data_functionalizedCrystal
_audit_creation_method	'MofGen! by Chris Wilmer'
_symmetry_space_group_name_H-M	'P1'
_symmetry_Int_Tables_number	1
_symmetry_cell_setting	triclinic
loop_
_symmetry_equiv_pos_as_xyz
  x,y,z
_cell_length_a	16.120379
_cell_length_b	16.625547
_cell_length_c	16.120484
_cell_angle_alpha	87.074925
_cell_angle_beta	90.213218
_cell_angle_gamma	92.856851
loop_
_atom_site_label
_atom_site_type_symbol
_atom_site_fract_x
_atom_site_fract_y
_atom_site_fract_z
Zn1	Zn	0.487101	-1.193860	-0.306919
Zn2	Zn	0.987101	-0.693860	0.193081
Zn3	Zn	0.355088	-1.193024	-0.453120
Zn4	Zn	0.855088	-0.693024	0.046880
Zn5	Zn	0.348044	-1.065451	-0.314084
Zn6	Zn	0.848044	-0.565451	0.185916
Zn7	Zn	0.494082	-1.051828	-0.445932
Zn8	Zn	0.994082	-0.551828	0.054068
O9	O	0.421079	-1.126041	-0.380014
O10	O	0.921079	-0.626041	0.119986
O11	O	0.469616	-1.306580	-0.326322
O12	O	0.969616	-0.806580	0.173678
O13	O	0.237788	-1.181453	-0.440683
O14	O	0.737788	-0.681453	0.059317
O15	O	0.360622	-1.088537	-0.196770
O16	O	0.860622	-0.588537	0.303230
O17	O	0.372626	-1.305966	-0.433735
O18	O	0.872626	-0.805966	0.066265
O19	O	0.462786	-1.182878	-0.191505
O20	O	0.962786	-0.682878	0.308495
O21	O	0.232614	-1.087726	-0.338535
O22	O	0.732614	-0.587726	0.161465
O23	O	0.367390	-0.950814	-0.331565
O24	O	0.867390	-0.450814	0.168435
O25	O	0.609521	-1.065317	-0.421485
O26	O	1.109521	-0.565317	0.078515
O27	O	0.474683	-0.940804	-0.428433
O28	O	0.974683	-0.440804	0.071567
O29	O	0.604393	-1.169668	-0.319353
O30	O	1.104393	-0.669668	0.180647
O31	O	0.379395	-1.168242	-0.568531
O32	O	0.879395	-0.668242	-0.068531
O33	O	0.481513	-1.064506	-0.563250
O34	O	0.981513	-0.564506	-0.063250
C35	C	0.421030	-0.916553	-0.379997
C36	C	0.921030	-0.416553	0.120003
C37	C	0.421030	-0.826932	-0.380009
C38	C	0.921030	-0.326932	0.119991
C39	C	0.421038	-0.754149	-0.380010
C40	C	0.921038	-0.254149	0.119990
C41	C	0.421055	-0.662839	-0.380012
C42	C	0.921055	-0.162839	0.119988
C43	C	0.421073	-0.590062	-0.380018
C44	C	0.921073	-0.090062	0.119982
C45	C	0.421090	-0.498746	-0.380021
C46	C	0.921090	0.001254	0.119979
C47	C	0.205026	-1.136026	-0.391106
C48	C	0.705026	-0.636026	0.108894
C49	C	0.112587	-1.140445	-0.395643
C50	C	0.612587	-0.640445	0.104357
C51	C	-0.056659	-1.148524	-0.403927
C52	C	0.443341	-0.648524	0.096073
C53	C	-0.100359	-1.103739	-0.355766
C54	C	0.399641	-0.603739	0.144234
C55	C	-0.194533	-1.108234	-0.360375
C56	C	0.305467	-0.608234	0.139625
C57	C	0.037524	-1.144030	-0.399319
C58	C	0.537524	-0.644030	0.100681
C59	C	0.637973	-1.116066	-0.368818
C60	C	1.137973	-0.616066	0.131182
C61	C	0.730400	-1.111816	-0.364047
C62	C	1.230400	-0.611816	0.135953
C63	C	0.421118	-0.336347	-0.380028
C64	C	0.921118	0.163653	0.119972
C65	C	0.421108	-0.425969	-0.380027
C66	C	0.921108	0.074031	0.119973
C67	C	0.431994	-1.114826	-0.596062
C68	C	0.931994	-0.614826	-0.096062
C69	C	0.436691	-1.110101	-0.688486
C70	C	0.936691	-0.610101	-0.188486
C71	C	0.445284	-1.101478	-0.857707
C72	C	0.945284	-0.601478	-0.357707
C73	C	0.396887	-1.150747	-0.901480
C74	C	0.896887	-0.650747	-0.401480
C75	C	0.401669	-1.145950	-0.995640
C76	C	0.901669	-0.645950	-0.495640
C77	C	0.440504	-1.106275	-0.763538
C78	C	0.940504	-0.606275	-0.263538
C79	C	0.410140	-1.137320	-0.163122
C80	C	0.910140	-0.637320	0.336878
C81	C	0.405478	-1.142127	-0.070695
C82	C	0.905478	-0.642127	0.429305
H83	H	-0.067044	-1.062021	-0.311072
H84	H	0.432956	-0.562021	0.188928
H85	H	-0.089972	-1.190238	-0.448617
H86	H	0.410028	-0.690238	0.051383
C87	C	0.336039	-1.212576	-0.856581
C88	C	0.836039	-0.712576	-0.356581
H89	H	0.340752	-1.207718	-0.798268
H90	H	0.840752	-0.707718	-0.298268
H91	H	0.348944	-1.265484	-0.870068
H92	H	0.848944	-0.765484	-0.370068
H93	H	0.280868	-1.202651	-0.873698
H94	H	0.780868	-0.702651	-0.373698
H95	H	0.490304	-1.055697	-0.890946
H96	H	0.990304	-0.555697	-0.390946
