data_functionalizedCrystal
_audit_creation_method	'MofGen! by Chris Wilmer'
_symmetry_space_group_name_H-M	'P1'
_symmetry_Int_Tables_number	1
_symmetry_cell_setting	triclinic
loop_
_symmetry_equiv_pos_as_xyz
  x,y,z
_cell_length_a	29.839134
_cell_length_b	13.033374
_cell_length_c	13.033109
_cell_angle_alpha	105.152083
_cell_angle_beta	97.201568
_cell_angle_gamma	82.835036
loop_
_atom_site_label
_atom_site_type_symbol
_atom_site_fract_x
_atom_site_fract_y
_atom_site_fract_z
Zn1	Zn	-0.695332	-0.499706	-0.654449
Zn2	Zn	-0.195332	0.000294	-0.154449
Zn3	Zn	-0.678372	-0.654765	-0.499419
Zn4	Zn	-0.178372	-0.154765	0.000581
Zn5	Zn	-0.611738	-0.477122	-0.476843
Zn6	Zn	-0.111738	0.022878	0.023157
Zn7	Zn	-0.611752	-0.677181	-0.676957
Zn8	Zn	-0.111752	-0.177181	-0.176957
O9	O	-0.649299	-0.577193	-0.576917
O10	O	-0.149299	-0.077193	-0.076917
O11	O	-0.755947	-0.520345	-0.633912
O12	O	-0.255947	-0.020345	-0.133912
O13	O	-0.662429	-0.612367	-0.347795
O14	O	-0.162429	-0.112367	0.152205
O15	O	-0.629919	-0.331499	-0.481535
O16	O	-0.129919	0.168501	0.018465
O17	O	-0.743486	-0.634266	-0.520012
O18	O	-0.243486	-0.134266	-0.020012
O19	O	-0.691335	-0.348092	-0.612021
O20	O	-0.191335	0.151908	-0.112021
O21	O	-0.613473	-0.481854	-0.331209
O22	O	-0.113473	0.018146	0.168791
O23	O	-0.548875	-0.503590	-0.503361
O24	O	-0.048875	-0.003590	-0.003361
O25	O	-0.629943	-0.672472	-0.822601
O26	O	-0.129943	-0.172472	-0.322601
O27	O	-0.548886	-0.650573	-0.650384
O28	O	-0.048886	-0.150573	-0.150384
O29	O	-0.691349	-0.542081	-0.806064
O30	O	-0.191349	-0.042081	-0.306064
O31	O	-0.662443	-0.806356	-0.541838
O32	O	-0.162443	-0.306356	-0.041838
O33	O	-0.613498	-0.822826	-0.672274
O34	O	-0.113498	-0.322826	-0.172274
C35	C	-0.532580	-0.577064	-0.576866
C36	C	-0.032580	-0.077064	-0.076866
C37	C	-0.482648	-0.577038	-0.576872
C38	C	0.017352	-0.077038	-0.076872
C39	C	-0.132539	-0.517981	-0.636343
C40	C	0.367461	-0.017981	-0.136343
C41	C	-0.320215	-0.517911	-0.636320
C42	C	0.179785	-0.017911	-0.136320
O43	O	-0.349994	-0.467596	-0.686883
O44	O	0.150006	0.032404	-0.186883
N45	N	-0.337201	-0.577096	-0.576897
N46	N	0.162799	-0.077096	-0.076897
C47	C	-0.307264	-0.636308	-0.517481
C48	C	0.192736	-0.136308	-0.017481
O49	O	-0.326018	-0.686655	-0.466946
O50	O	0.173982	-0.186655	0.033054
C51	C	-0.119590	-0.636383	-0.517511
C52	C	0.380410	-0.136383	-0.017511
C53	C	-0.102607	-0.577186	-0.576929
C54	C	0.397393	-0.077186	-0.076929
C55	C	-0.115556	-0.458790	-0.695757
C56	C	0.384444	0.041210	-0.195757
C57	C	-0.068640	-0.458803	-0.695758
C58	C	0.431360	0.041197	-0.195758
C59	C	-0.038707	-0.518008	-0.636344
C60	C	0.461293	-0.018008	-0.136344
C61	C	-0.055691	-0.577199	-0.576930
C62	C	0.444309	-0.077199	-0.076930
C63	C	-0.089654	-0.695600	-0.458102
C64	C	0.410346	-0.195600	0.041898
C65	C	-0.042733	-0.695616	-0.458117
C66	C	0.457267	-0.195616	0.041883
C67	C	-0.025750	-0.636419	-0.517535
C68	C	0.474250	-0.136419	-0.017535
C69	C	0.021158	-0.636417	-0.517517
C70	C	0.521158	-0.136417	-0.017517
N71	N	0.038144	-0.577233	-0.576940
N72	N	0.538144	-0.077233	-0.076940
C73	C	0.008211	-0.518028	-0.636353
C74	C	0.508211	-0.018028	-0.136353
C75	C	-0.405797	-0.636262	-0.517468
C76	C	0.094203	-0.136262	-0.017468
C77	C	-0.452715	-0.636242	-0.517458
C78	C	0.047285	-0.136242	-0.017458
C79	C	-0.465663	-0.517847	-0.636299
C80	C	0.034337	-0.017847	-0.136299
C81	C	-0.418743	-0.517862	-0.636301
C82	C	0.081257	-0.017862	-0.136301
C83	C	-0.388811	-0.577078	-0.576891
C84	C	0.111189	-0.077078	-0.076891
C85	C	0.106739	-0.518060	-0.636349
C86	C	0.606739	-0.018060	-0.136349
C87	C	0.153660	-0.518075	-0.636341
C88	C	0.653660	-0.018075	-0.136341
C89	C	0.166603	-0.636474	-0.517506
C90	C	0.666603	-0.136474	-0.017506
C91	C	0.119687	-0.636455	-0.517509
C92	C	0.619687	-0.136455	-0.017509
C93	C	0.089755	-0.577245	-0.576939
C94	C	0.589755	-0.077245	-0.076939
O95	O	0.050963	-0.686716	-0.466990
O96	O	0.550963	-0.186716	0.033010
O97	O	0.026974	-0.467707	-0.686899
O98	O	0.526974	0.032293	-0.186899
C99	C	-0.179456	-0.517968	-0.636342
C100	C	0.320544	-0.017968	-0.136342
C101	C	-0.196439	-0.577159	-0.576928
C102	C	0.303561	-0.077159	-0.076928
C103	C	-0.166506	-0.636364	-0.517514
C104	C	0.333494	-0.136364	-0.017514
C105	C	-0.243357	-0.577139	-0.576919
C106	C	0.256643	-0.077139	-0.076919
C107	C	-0.273290	-0.517934	-0.636332
C108	C	0.226710	-0.017934	-0.136332
C109	C	-0.256304	-0.458749	-0.695755
C110	C	0.243696	0.041251	-0.195755
C111	C	-0.209388	-0.458763	-0.695756
C112	C	0.290612	0.041237	-0.195756
C113	C	-0.183492	-0.695548	-0.458091
C114	C	0.316508	-0.195548	0.041909
C115	C	-0.230409	-0.695529	-0.458094
C116	C	0.269591	-0.195529	0.041906
C117	C	-0.260342	-0.636324	-0.517508
C118	C	0.239658	-0.136324	-0.017508
C119	C	-0.636144	-0.853129	-0.611971
C120	C	-0.136144	-0.353129	-0.111971
C121	C	-0.630560	-0.971180	-0.627003
C122	C	-0.130560	-0.471180	-0.127003
C123	C	-0.662540	-0.612296	-0.853948
C124	C	-0.162540	-0.112296	-0.353948
C125	C	-0.668182	-0.627255	-0.972001
C126	C	-0.168182	-0.127255	-0.472001
C127	C	0.233527	-0.577299	-0.576953
C128	C	0.733527	-0.077299	-0.076953
C129	C	0.183593	-0.577280	-0.576928
C130	C	0.683593	-0.077280	-0.076928
C131	C	-0.662518	-0.300183	-0.541749
C132	C	-0.162518	0.199817	-0.041749
C133	C	-0.668151	-0.182138	-0.526763
C134	C	-0.168151	0.317862	-0.026763
C135	C	-0.652265	-0.015658	-0.569145
C136	C	-0.152265	0.484342	-0.069145
C137	C	-0.646443	-0.137663	-0.584629
C138	C	-0.146443	0.362337	-0.084629
C139	C	-0.646476	-0.569348	-1.016427
C140	C	-0.146476	-0.069348	-0.516427
C141	C	-0.652307	-0.584807	-1.138442
C142	C	-0.152307	-0.084807	-0.638442
C143	C	-0.636139	-0.542151	-0.300955
C144	C	-0.136139	-0.042151	0.199045
C145	C	-0.630597	-0.526893	-0.182863
C146	C	-0.130597	-0.026893	0.317137
H147	H	0.105859	-0.684647	-0.469115
H148	H	0.605859	-0.184647	0.030885
Br149	Br	-0.475757	-0.716558	-0.436790
Br150	Br	0.024243	-0.216558	0.063210
Br151	Br	-0.706315	-0.095078	-0.425095
Br152	Br	-0.206315	0.404922	0.074905
Br153	Br	-0.706349	-0.728973	-1.059156
Br154	Br	-0.206349	-0.228973	-0.559156
H155	H	-0.607694	-0.465870	-1.130572
H156	H	-0.107694	0.034130	-0.630572
Br157	Br	-0.690476	-0.686530	-1.225593
Br158	Br	-0.190476	-0.186530	-0.725593
Br159	Br	-0.506294	-0.437496	-0.716929
Br160	Br	-0.006294	0.062504	-0.216929
Br161	Br	-0.112690	-0.775921	-0.377434
Br162	Br	0.387310	-0.275921	0.122566
Br163	Br	-0.045599	-0.378470	-0.776411
Br164	Br	0.454401	0.121530	-0.276411
H165	H	-0.159125	-0.743762	-0.409710
H166	H	0.340875	-0.243762	0.090290
H167	H	0.167484	-0.469865	-0.684726
H168	H	0.667484	0.030135	-0.184726
H169	H	0.082374	-0.469845	-0.684742
H170	H	0.582374	0.030155	-0.184742
H171	H	-0.139923	-0.410578	-0.744144
H172	H	0.360077	0.089422	-0.244144
H173	H	-0.404919	-0.469657	-0.684684
H174	H	0.095081	0.030343	-0.184684
H175	H	-0.675160	0.036584	-0.508151
H176	H	-0.175160	0.536584	-0.008151
Br177	Br	-0.592405	-0.058249	-0.728683
Br178	Br	-0.092405	0.441751	-0.228683
H179	H	-0.381429	-0.684485	-0.469084
H180	H	0.118571	-0.184485	0.030916
H181	H	-0.623550	-0.189905	-0.645635
H182	H	-0.123550	0.310095	-0.145635
Br183	Br	-0.608311	-0.467625	-0.929271
Br184	Br	-0.108311	0.032375	-0.429271
H185	H	0.190983	-0.684673	-0.469128
H186	H	0.690983	-0.184673	0.030872
Br187	Br	-0.002113	-0.775996	-0.377494
Br188	Br	0.497887	-0.275996	0.122506
Br189	Br	-0.186348	-0.378420	-0.776400
Br190	Br	0.313652	0.121580	-0.276400
H191	H	-0.280684	-0.410538	-0.744127
H192	H	0.219316	0.089462	-0.244127
Br193	Br	-0.253450	-0.775860	-0.377432
Br194	Br	0.246550	-0.275860	0.122568
