data_functionalizedCrystal
_audit_creation_method	'MofGen! by Chris Wilmer'
_symmetry_space_group_name_H-M	'P1'
_symmetry_Int_Tables_number	1
_symmetry_cell_setting	triclinic
loop_
_symmetry_equiv_pos_as_xyz
  x,y,z
_cell_length_a	21.295417
_cell_length_b	19.077269
_cell_length_c	21.295411
_cell_angle_alpha	92.275197
_cell_angle_beta	89.978356
_cell_angle_gamma	87.733796
loop_
_atom_site_label
_atom_site_type_symbol
_atom_site_fract_x
_atom_site_fract_y
_atom_site_fract_z
Zn1	Zn	-0.289322	1.075941	-0.317219
Zn2	Zn	-0.039322	1.325941	-0.067219
Zn3	Zn	0.210678	1.575941	0.182781
Zn4	Zn	0.460678	1.825941	0.432781
Zn5	Zn	-0.394570	1.075832	-0.211949
Zn6	Zn	-0.144570	1.325832	0.038051
Zn7	Zn	0.105430	1.575832	0.288051
Zn8	Zn	0.355430	1.825832	0.538051
Zn9	Zn	-0.285095	0.958239	-0.216197
Zn10	Zn	-0.035095	1.208239	0.033803
Zn11	Zn	0.214905	1.458239	0.283803
Zn12	Zn	0.464905	1.708239	0.533803
Zn13	Zn	-0.390329	0.958204	-0.321410
Zn14	Zn	-0.140329	1.208204	-0.071410
Zn15	Zn	0.109671	1.458204	0.178590
Zn16	Zn	0.359671	1.708204	0.428590
O17	O	-0.339829	1.017054	-0.266694
O18	O	-0.089829	1.267054	-0.016694
O19	O	0.160171	1.517054	0.233306
O20	O	0.410171	1.767054	0.483306
O21	O	-0.306827	1.174413	-0.299723
O22	O	-0.056827	1.424413	-0.049723
O23	O	0.193173	1.674413	0.200277
O24	O	0.443173	1.924413	0.450277
O25	O	-0.380054	1.060202	-0.124424
O26	O	-0.130054	1.310202	0.125576
O27	O	0.119946	1.560202	0.375576
O28	O	0.369946	1.810202	0.625576
O29	O	-0.197568	0.973912	-0.229622
O30	O	0.052432	1.223912	0.020378
O31	O	0.302432	1.473912	0.270378
O32	O	0.552432	1.723912	0.520378
O33	O	-0.384152	1.174333	-0.222381
O34	O	-0.134152	1.424333	0.027619
O35	O	0.115848	1.674333	0.277619
O36	O	0.365848	1.924333	0.527619
O37	O	-0.200674	1.060388	-0.303843
O38	O	0.049326	1.310388	-0.053843
O39	O	0.299326	1.560388	0.196157
O40	O	0.549326	1.810388	0.446157
O41	O	-0.299623	0.973806	-0.127545
O42	O	-0.049623	1.223806	0.122455
O43	O	0.200377	1.473806	0.372455
O44	O	0.450377	1.723806	0.622455
O45	O	-0.295511	0.859748	-0.233686
O46	O	-0.045511	1.109748	0.016314
O47	O	0.204489	1.359748	0.266314
O48	O	0.454489	1.609748	0.516314
O49	O	-0.376924	0.973854	-0.408943
O50	O	-0.126924	1.223854	-0.158943
O51	O	0.123076	1.473854	0.091057
O52	O	0.373076	1.723854	0.341057
O53	O	-0.372825	0.859722	-0.310986
O54	O	-0.122825	1.109722	-0.060986
O55	O	0.127175	1.359722	0.189014
O56	O	0.377175	1.609722	0.439014
O57	O	-0.302714	1.060354	-0.405864
O58	O	-0.052714	1.310354	-0.155864
O59	O	0.197286	1.560354	0.094136
O60	O	0.447286	1.810354	0.344136
O61	O	-0.482094	1.060168	-0.226445
O62	O	-0.232094	1.310168	0.023555
O63	O	0.017906	1.560168	0.273555
O64	O	0.267906	1.810168	0.523555
O65	O	-0.478978	0.973748	-0.306866
O66	O	-0.228978	1.223748	-0.056866
O67	O	0.021022	1.473748	0.193134
O68	O	0.271022	1.723748	0.443134
C69	C	-0.333250	0.834199	-0.273252
C70	C	-0.083250	1.084199	-0.023252
C71	C	0.166750	1.334199	0.226748
C72	C	0.416750	1.584199	0.476748
C73	C	-0.330450	0.755972	-0.276072
C74	C	-0.080450	1.005972	-0.026072
C75	C	0.169550	1.255972	0.223928
C76	C	0.419550	1.505972	0.473928
C77	C	-0.369329	0.719177	-0.237070
C78	C	-0.119329	0.969177	0.012930
C79	C	0.130671	1.219177	0.262930
C80	C	0.380671	1.469177	0.512930
C81	C	-0.366699	0.645675	-0.239728
C82	C	-0.116699	0.895675	0.010272
C83	C	0.133301	1.145675	0.260272
C84	C	0.383301	1.395675	0.510272
C85	C	-0.325186	0.608970	-0.281386
C86	C	-0.075186	0.858970	-0.031386
C87	C	0.174814	1.108970	0.218614
C88	C	0.424814	1.358970	0.468614
C89	C	-0.286306	0.645770	-0.320393
C90	C	-0.036306	0.895770	-0.070393
C91	C	0.213694	1.145770	0.179607
C92	C	0.463694	1.395770	0.429607
C93	C	-0.288940	0.719271	-0.317738
C94	C	-0.038940	0.969271	-0.067738
C95	C	0.211060	1.219271	0.182262
C96	C	0.461060	1.469271	0.432262
C97	C	-0.313002	0.389151	-0.293657
C98	C	-0.063002	0.639151	-0.043657
C99	C	0.186998	0.889151	0.206343
C100	C	0.436998	1.139151	0.456343
C101	C	-0.310370	0.315645	-0.296308
C102	C	-0.060370	0.565645	-0.046308
C103	C	0.189630	0.815645	0.203692
C104	C	0.439630	1.065645	0.453692
C105	C	-0.390764	0.315555	-0.215643
C106	C	-0.140764	0.565555	0.034357
C107	C	0.109236	0.815555	0.284357
C108	C	0.359236	1.065555	0.534357
C109	C	-0.393391	0.389057	-0.212989
C110	C	-0.143391	0.639057	0.037011
C111	C	0.106609	0.889057	0.287011
C112	C	0.356609	1.139057	0.537011
C113	C	-0.354513	0.425851	-0.251998
C114	C	-0.104513	0.675851	-0.001998
C115	C	0.145487	0.925851	0.248002
C116	C	0.395487	1.175851	0.498002
N117	N	-0.322496	0.533839	-0.284103
N118	N	-0.072496	0.783839	-0.034103
N119	N	0.177504	1.033839	0.215897
N120	N	0.427504	1.283839	0.465897
N121	N	-0.357208	0.500980	-0.249284
N122	N	-0.107208	0.750980	0.000716
N123	N	0.142792	1.000980	0.250716
N124	N	0.392792	1.250980	0.500716
C125	C	-0.503377	1.016962	-0.266662
C126	C	-0.253377	1.266962	-0.016662
C127	C	-0.003377	1.516962	0.233338
C128	C	0.246623	1.766962	0.483338
C129	C	-0.573346	1.016987	-0.266668
C130	C	-0.323346	1.266987	-0.016668
C131	C	-0.073346	1.516987	0.233332
C132	C	0.176654	1.766987	0.483332
C133	C	-0.607816	1.062026	-0.224832
C134	C	-0.357816	1.312026	0.025168
C135	C	-0.107816	1.562026	0.275168
C136	C	0.142184	1.812026	0.525168
C137	C	-0.673559	1.062059	-0.224845
C138	C	-0.423559	1.312059	0.025155
C139	C	-0.173559	1.562059	0.275155
C140	C	0.076441	1.812059	0.525155
C141	C	-0.704830	1.017040	-0.266687
C142	C	-0.454830	1.267040	-0.016687
C143	C	-0.204830	1.517040	0.233313
C144	C	0.045170	1.767040	0.483313
C145	C	-0.670353	0.971998	-0.308531
C146	C	-0.420353	1.221998	-0.058531
C147	C	-0.170353	1.471998	0.191469
C148	C	0.079647	1.721998	0.441469
C149	C	-0.604611	0.971971	-0.308521
C150	C	-0.354611	1.221971	-0.058521
C151	C	-0.104611	1.471971	0.191479
C152	C	0.145389	1.721971	0.441479
N153	N	-0.805886	0.955473	-0.273694
N154	N	-0.555886	1.205473	-0.023694
N155	N	-0.305886	1.455473	0.226306
N156	N	-0.055886	1.705473	0.476306
N157	N	-0.868338	0.955501	-0.273700
N158	N	-0.618338	1.205501	-0.023700
N159	N	-0.368338	1.455501	0.226300
N160	N	-0.118338	1.705501	0.476300
C161	C	-0.902908	1.017119	-0.266721
C162	C	-0.652908	1.267119	-0.016721
C163	C	-0.402908	1.517119	0.233279
C164	C	-0.152908	1.767119	0.483279
N165	N	-0.872666	1.078710	-0.259723
N166	N	-0.622666	1.328710	-0.009723
N167	N	-0.372666	1.578710	0.240277
N168	N	-0.122666	1.828710	0.490277
N169	N	-0.810208	1.078682	-0.259714
N170	N	-0.560208	1.328682	-0.009714
N171	N	-0.310208	1.578682	0.240286
N172	N	-0.060208	1.828682	0.490286
C173	C	-0.776117	1.017064	-0.266703
C174	C	-0.526117	1.267064	-0.016703
C175	C	-0.276117	1.517064	0.233297
C176	C	-0.026117	1.767064	0.483297
C177	C	-1.008665	1.062198	-0.224897
C178	C	-0.758665	1.312198	0.025103
C179	C	-0.508665	1.562198	0.275103
C180	C	-0.258665	1.812198	0.525103
C181	C	-1.074409	1.062232	-0.224914
C182	C	-0.824409	1.312232	0.025086
C183	C	-0.574409	1.562232	0.275086
C184	C	-0.324409	1.812232	0.525086
C185	C	-1.071201	0.972164	-0.308597
C186	C	-0.821201	1.222164	-0.058597
C187	C	-0.571201	1.472164	0.191403
C188	C	-0.321201	1.722164	0.441403
C189	C	-1.005458	0.972137	-0.308583
C190	C	-0.755458	1.222137	-0.058583
C191	C	-0.505458	1.472137	0.191417
C192	C	-0.255458	1.722137	0.441417
C193	C	-0.974193	1.017152	-0.266729
C194	C	-0.724193	1.267152	-0.016729
C195	C	-0.474193	1.517152	0.233271
C196	C	-0.224193	1.767152	0.483271
C197	C	-0.175642	1.017166	-0.266739
C198	C	0.074358	1.267166	-0.016739
C199	C	0.324358	1.517166	0.233261
C200	C	0.574358	1.767166	0.483261
C201	C	-0.105676	1.017213	-0.266758
C202	C	0.144324	1.267213	-0.016758
C203	C	0.394324	1.517213	0.233242
C204	C	0.644324	1.767213	0.483242
C205	C	-0.339818	1.017112	-0.430882
C206	C	-0.089818	1.267112	-0.180882
C207	C	0.160182	1.517112	0.069118
C208	C	0.410182	1.767112	0.319118
C209	C	-0.339813	1.017137	-0.500849
C210	C	-0.089813	1.267137	-0.250849
C211	C	0.160187	1.517137	-0.000849
C212	C	0.410187	1.767137	0.249151
C213	C	-0.346434	1.200623	-0.260111
C214	C	-0.096434	1.450623	-0.010111
C215	C	0.153566	1.700623	0.239889
C216	C	0.403566	1.950623	0.489889
C217	C	-0.349249	1.278850	-0.257305
C218	C	-0.099249	1.528850	-0.007305
C219	C	0.150751	1.778850	0.242695
C220	C	0.400751	2.028850	0.492695
C221	C	-0.301170	1.062176	-0.532114
C222	C	-0.051170	1.312176	-0.282114
C223	C	0.198830	1.562176	-0.032114
C224	C	0.448830	1.812176	0.217886
C225	C	-0.301143	1.062175	-0.597856
C226	C	-0.051143	1.312175	-0.347856
C227	C	0.198857	1.562175	-0.097856
C228	C	0.448857	1.812175	0.152144
C229	C	-0.339770	1.017143	-0.632332
C230	C	-0.089770	1.267143	-0.382332
C231	C	0.160230	1.517143	-0.132332
C232	C	0.410230	1.767143	0.117668
C233	C	-0.378415	0.972095	-0.601060
C234	C	-0.128415	1.222095	-0.351060
C235	C	0.121585	1.472095	-0.101060
C236	C	0.371585	1.722095	0.148940
C237	C	-0.378436	0.972092	-0.535319
C238	C	-0.128436	1.222092	-0.285319
C239	C	0.121564	1.472092	-0.035319
C240	C	0.371564	1.722092	0.214681
N241	N	-0.394642	1.011713	-0.735742
N242	N	-0.144642	1.261713	-0.485742
N243	N	0.105358	1.511713	-0.235742
N244	N	0.355358	1.761713	0.014258
N245	N	-0.394620	1.011719	-0.798194
N246	N	-0.144620	1.261719	-0.548194
N247	N	0.105380	1.511719	-0.298194
N248	N	0.355380	1.761719	-0.048194
C249	C	-0.339706	1.017147	-0.830406
C250	C	-0.089706	1.267147	-0.580406
C251	C	0.160294	1.517147	-0.330406
C252	C	0.410294	1.767147	-0.080406
N253	N	-0.284814	1.022582	-0.797808
N254	N	-0.034814	1.272582	-0.547808
N255	N	0.215186	1.522582	-0.297808
N256	N	0.465186	1.772582	-0.047808
N257	N	-0.284837	1.022579	-0.735351
N258	N	-0.034837	1.272579	-0.485351
N259	N	0.215163	1.522579	-0.235351
N260	N	0.465163	1.772579	0.014649
C261	C	-0.339750	1.017140	-0.703617
C262	C	-0.089750	1.267140	-0.453617
C263	C	0.160250	1.517140	-0.203617
C264	C	0.410250	1.767140	0.046383
C265	C	-0.301030	1.062187	-0.932956
C266	C	-0.051030	1.312187	-0.682956
C267	C	0.198970	1.562187	-0.432956
C268	C	0.448970	1.812187	-0.182956
C269	C	-0.301002	1.062182	-0.998700
C270	C	-0.051002	1.312182	-0.748700
C271	C	0.198998	1.562182	-0.498700
C272	C	0.448998	1.812182	-0.248700
C273	C	-0.378280	0.972105	-1.001902
C274	C	-0.128280	1.222105	-0.751902
C275	C	0.121720	1.472105	-0.501902
C276	C	0.371720	1.722105	-0.251902
C277	C	-0.378302	0.972107	-0.936160
C278	C	-0.128302	1.222107	-0.686160
C279	C	0.121698	1.472107	-0.436160
C280	C	0.371698	1.722107	-0.186160
C281	C	-0.339679	1.017152	-0.901691
C282	C	-0.089679	1.267152	-0.651691
C283	C	0.160321	1.517152	-0.401691
C284	C	0.410321	1.767152	-0.151691
C285	C	-0.339796	1.017036	-0.103143
C286	C	-0.089796	1.267036	0.146857
C287	C	0.160204	1.517036	0.396857
C288	C	0.410204	1.767036	0.646857
C289	C	-0.339628	1.017148	-0.033171
C290	C	-0.089628	1.267148	0.216829
C291	C	0.160372	1.517148	0.466829
C292	C	0.410372	1.767148	0.716829
H293	H	-0.281346	0.419100	-0.325421
H294	H	-0.031346	0.669100	-0.075421
H295	H	0.218654	0.919100	0.174579
H296	H	0.468654	1.169100	0.424579
H297	H	-0.257281	0.749229	-0.349497
H298	H	-0.007281	0.999229	-0.099497
H299	H	0.242719	1.249229	0.150503
H300	H	0.492719	1.499229	0.400503
H301	H	-0.582362	1.098682	-0.190754
H302	H	-0.332362	1.348682	0.059246
H303	H	-0.082362	1.598682	0.309246
H304	H	0.167638	1.848682	0.559246
O305	O	-0.259512	1.110758	-0.494937
O306	O	-0.009512	1.360758	-0.244937
O307	O	0.240488	1.610758	0.005063
O308	O	0.490488	1.860758	0.255063
H309	H	-0.209669	1.098722	-0.507982
H310	H	0.040331	1.348722	-0.257982
H311	H	0.290331	1.598722	-0.007982
H312	H	0.540331	1.848722	0.242018
H313	H	-0.409773	0.935436	-0.910704
H314	H	-0.159773	1.185436	-0.660704
H315	H	0.090227	1.435436	-0.410704
H316	H	0.340227	1.685436	-0.160704
O317	O	-0.414102	0.758765	-0.192137
O318	O	-0.164102	1.008765	0.057863
O319	O	0.085898	1.258765	0.307863
O320	O	0.335898	1.508765	0.557863
H321	H	-0.440698	0.720827	-0.165467
H322	H	-0.190698	0.970827	0.084533
H323	H	0.059302	1.220827	0.334533
H324	H	0.309302	1.470827	0.584533
O325	O	-0.259468	1.110760	-0.631590
O326	O	-0.009468	1.360760	-0.381590
O327	O	0.240532	1.610760	-0.131590
O328	O	0.490532	1.860760	0.118410
H329	H	-0.232619	1.142085	-0.596576
H330	H	0.017381	1.392085	-0.346576
H331	H	0.267381	1.642085	-0.096576
H332	H	0.517381	1.892085	0.153424
H333	H	-0.398358	0.615719	-0.207968
H334	H	-0.148358	0.865719	0.042032
H335	H	0.101642	1.115719	0.292032
H336	H	0.351642	1.365719	0.542032
O337	O	-0.265591	0.276051	-0.341238
O338	O	-0.015591	0.526051	-0.091238
O339	O	0.234409	0.776051	0.158762
O340	O	0.484409	1.026051	0.408762
H341	H	-0.292613	0.242562	-0.374413
H342	H	-0.042613	0.492562	-0.124413
H343	H	0.207387	0.742562	0.125587
H344	H	0.457387	0.992562	0.375587
H345	H	-0.576545	0.935294	-0.342589
H346	H	-0.326545	1.185294	-0.092589
H347	H	-0.076545	1.435294	0.157411
H348	H	0.173455	1.685294	0.407411
H349	H	-0.427194	0.418937	-0.179065
H350	H	-0.177194	0.668937	0.070935
H351	H	0.072806	0.918937	0.320935
H352	H	0.322806	1.168937	0.570935
H353	H	-0.701630	1.098737	-0.190778
H354	H	-0.451630	1.348737	0.059222
H355	H	-0.201630	1.598737	0.309222
H356	H	0.048370	1.848737	0.559222
H357	H	-0.409863	0.935427	-0.629134
H358	H	-0.159863	1.185427	-0.379134
H359	H	0.090137	1.435427	-0.129134
H360	H	0.340137	1.685427	0.120866
O361	O	-0.420102	0.923498	-0.501592
O362	O	-0.170102	1.173498	-0.251592
O363	O	0.079898	1.423498	-0.001592
O364	O	0.329898	1.673498	0.248408
H365	H	-0.446954	0.892177	-0.536607
H366	H	-0.196954	1.142177	-0.286607
H367	H	0.053046	1.392177	-0.036607
H368	H	0.303046	1.642177	0.213393
O369	O	-0.968280	0.923538	-0.353694
O370	O	-0.718280	1.173538	-0.103694
O371	O	-0.468280	1.423538	0.146306
O372	O	-0.218280	1.673538	0.396306
H373	H	-0.981296	0.935574	-0.402680
H374	H	-0.731296	1.185574	-0.152680
H375	H	-0.481296	1.435574	0.097320
H376	H	-0.231296	1.685574	0.347320
O377	O	-0.432698	0.275872	-0.173574
O378	O	-0.182698	0.525872	0.076426
O379	O	0.067302	0.775872	0.326426
O380	O	0.317302	1.025872	0.576426
H381	H	-0.423898	0.218595	-0.182420
H382	H	-0.173898	0.468595	0.067580
H383	H	0.076102	0.718595	0.317580
H384	H	0.326102	0.968595	0.567580
O385	O	-0.704075	0.923432	-0.353656
O386	O	-0.454075	1.173432	-0.103656
O387	O	-0.204075	1.423432	0.146344
O388	O	0.045925	1.673432	0.396344
H389	H	-0.755581	0.931009	-0.346628
H390	H	-0.505581	1.181009	-0.096628
H391	H	-0.255581	1.431009	0.153372
H392	H	-0.005581	1.681009	0.403372
O393	O	-0.241526	0.606187	-0.365322
O394	O	0.008474	0.856187	-0.115322
O395	O	0.258474	1.106187	0.134678
O396	O	0.508474	1.356187	0.384678
H397	H	-0.246219	0.548895	-0.360610
H398	H	0.003781	0.798895	-0.110610
H399	H	0.253781	1.048895	0.139390
H400	H	0.503781	1.298895	0.389390
O401	O	-0.259322	1.110763	-1.032426
O402	O	-0.009322	1.360763	-0.782426
O403	O	0.240678	1.610763	-0.532426
O404	O	0.490678	1.860763	-0.282426
H405	H	-0.232475	1.142087	-0.997410
H406	H	0.017525	1.392087	-0.747410
H407	H	0.267525	1.642087	-0.497410
H408	H	0.517525	1.892087	-0.247410
O409	O	-0.974936	1.110756	-0.179767
O410	O	-0.724936	1.360756	0.070233
O411	O	-0.474936	1.610756	0.320233
O412	O	-0.224936	1.860756	0.570233
H413	H	-1.009953	1.142090	-0.150685
H414	H	-0.759953	1.392090	0.099315
H415	H	-0.509953	1.642090	0.349315
H416	H	-0.259953	1.892090	0.599315
O417	O	-1.111593	1.110811	-0.179789
O418	O	-0.861593	1.360811	0.070211
O419	O	-0.611593	1.610811	0.320211
O420	O	-0.361593	1.860811	0.570211
H421	H	-1.078805	1.142100	-0.150682
H422	H	-0.828805	1.392100	0.099318
H423	H	-0.578805	1.642100	0.349318
H424	H	-0.328805	1.892100	0.599318
O425	O	-1.104918	0.923603	-0.353726
O426	O	-0.854918	1.173603	-0.103726
O427	O	-0.604918	1.423603	0.146274
O428	O	-0.354918	1.673603	0.396274
H429	H	-1.156425	0.931184	-0.346703
H430	H	-0.906425	1.181184	-0.096703
H431	H	-0.656425	1.431184	0.153297
H432	H	-0.406425	1.681184	0.403297
O433	O	-0.259368	1.110760	-0.895772
O434	O	-0.009368	1.360760	-0.645772
O435	O	0.240632	1.610760	-0.395772
O436	O	0.490632	1.860760	-0.145772
H437	H	-0.232483	1.142071	-0.928560
H438	H	0.017517	1.392071	-0.678560
H439	H	0.267517	1.642071	-0.428560
H440	H	0.517517	1.892071	-0.178560
O441	O	-0.419943	0.923531	-1.039076
O442	O	-0.169943	1.173531	-0.789076
O443	O	0.080057	1.423531	-0.539076
O444	O	0.330057	1.673531	-0.289076
H445	H	-0.413439	0.931101	-1.090043
H446	H	-0.163439	1.181101	-0.840043
H447	H	0.086561	1.431101	-0.590043
H448	H	0.336561	1.681101	-0.340043
