data_functionalizedCrystal
_audit_creation_method	'MofGen! by Chris Wilmer'
_symmetry_space_group_name_H-M	'P1'
_symmetry_Int_Tables_number	1
_symmetry_cell_setting	triclinic
loop_
_symmetry_equiv_pos_as_xyz
  x,y,z
_cell_length_a	25.639233
_cell_length_b	11.169417
_cell_length_c	11.169416
_cell_angle_alpha	89.988781
_cell_angle_beta	89.989665
_cell_angle_gamma	90.010052
loop_
_atom_site_label
_atom_site_type_symbol
_atom_site_fract_x
_atom_site_fract_y
_atom_site_fract_z
Zn1	Zn	-0.295604	-1.834847	-0.477925
Zn2	Zn	-0.208181	-1.834770	-0.678594
Zn3	Zn	-0.208186	-1.634167	-0.477926
Zn4	Zn	-0.295589	-1.634140	-0.678568
O5	O	-0.251890	-1.734481	-0.578253
O6	O	-0.284011	-2.002786	-0.504554
O7	O	-0.135017	-1.808139	-0.651986
O8	O	-0.219791	-1.660830	-0.309976
O9	O	-0.219782	-2.002730	-0.651985
O10	O	-0.284016	-1.808269	-0.309976
O11	O	-0.135020	-1.660756	-0.504557
O12	O	-0.219777	-1.466213	-0.504532
O13	O	-0.368757	-1.660785	-0.651941
O14	O	-0.283991	-1.466194	-0.651942
O15	O	-0.368767	-1.808243	-0.504529
O16	O	-0.219768	-1.808113	-0.846540
O17	O	-0.283986	-1.660711	-0.846521
C18	C	-0.251883	-1.422656	-0.578235
C19	C	-0.251893	-1.289256	-0.578256
C20	C	-0.388263	-1.734520	-0.578232
C21	C	-0.446377	-1.734536	-0.578223
C22	C	-0.251886	-1.734433	-0.890078
C23	C	-0.251902	-1.734523	-1.023478
C24	C	-0.806752	-1.811415	-0.501238
C25	C	-0.861356	-1.811430	-0.501205
O26	O	-0.889602	-1.876698	-0.435891
N27	N	-0.888660	-1.734668	-0.577942
C28	C	-0.861357	-1.657878	-0.654708
O29	O	-0.889595	-1.592587	-0.719975
C30	C	-0.806753	-1.657858	-0.654735
C31	C	-0.779452	-1.734633	-0.578001
C32	C	-0.779450	-1.888183	-0.424510
C33	C	-0.724850	-1.888169	-0.424545
C34	C	-0.697551	-1.811388	-0.501308
C35	C	-0.724852	-1.734620	-0.578036
C36	C	-0.779451	-1.581063	-0.731494
C37	C	-0.724844	-1.581049	-0.731513
C38	C	-0.697543	-1.657824	-0.654780
C39	C	-0.642952	-1.657825	-0.654835
N40	N	-0.615648	-1.734586	-0.578098
C41	C	-0.642947	-1.811368	-0.501334
C42	C	-0.976027	-1.657925	-0.654646
C43	C	-1.030630	-1.657950	-0.654627
C44	C	-1.030625	-1.811500	-0.501121
C45	C	-0.976022	-1.811480	-0.501147
C46	C	-0.948723	-1.734686	-0.577909
C47	C	-0.528282	-1.811334	-0.501415
C48	C	-0.473677	-1.811317	-0.501460
C49	C	-0.473686	-1.657763	-0.654960
C50	C	-0.528287	-1.657784	-0.654920
C51	C	-0.555583	-1.734574	-0.578137
O52	O	-0.614671	-1.592587	-0.720112
O53	O	-0.614702	-1.876637	-0.436067
C54	C	-0.116048	-1.734511	-0.578188
C55	C	-0.057934	-1.734727	-0.577858
C56	C	-0.251897	-2.047523	-0.578272
C57	C	-0.251900	-2.180923	-0.578281
C58	C	-0.251906	-1.734561	-0.265211
C59	C	-0.251912	-1.734596	-0.131811
H60	H	-0.451451	-1.873841	-0.438973
N61	N	-0.948153	-1.579472	-0.733073
N62	N	-0.972543	-1.510946	-0.801576
H63	H	-0.952860	-1.455536	-0.856965
H64	H	-0.451449	-1.595254	-0.717463
N65	N	-0.807321	-1.502652	-0.809906
N66	N	-0.782930	-1.434117	-0.878438
H67	H	-0.802612	-1.378739	-0.933828
N68	N	-0.556177	-1.579368	-0.733306
N69	N	-0.586654	-1.621550	-0.809779
H70	H	-0.606346	-1.566156	-0.865133
N71	N	-0.556152	-1.889772	-0.422970
N72	N	-0.531760	-1.958301	-0.354472
H73	H	-0.551442	-2.013702	-0.299073
N74	N	-0.696975	-1.966602	-0.346156
N75	N	-0.721365	-2.035145	-0.277629
H76	H	-0.701682	-2.090542	-0.222261
N77	N	-0.696969	-1.502589	-0.809926
N78	N	-0.721356	-1.434049	-0.878422
H79	H	-0.701670	-1.378637	-0.933803
N80	N	-0.807331	-1.966606	-0.346077
N81	N	-0.801226	-1.958675	-0.235335
H82	H	-0.820913	-2.014071	-0.179940
H83	H	-0.953797	-1.873995	-0.438662
N84	N	-1.058506	-1.579518	-0.733015
N85	N	-1.052398	-1.468774	-0.725048
H86	H	-1.072083	-1.413373	-0.780408
N87	N	-1.058525	-1.889926	-0.422715
N88	N	-1.107277	-1.889919	-0.422707
H89	H	-1.126983	-1.945304	-0.367337
