data_functionalizedCrystal
_audit_creation_method	'MofGen! by Chris Wilmer'
_symmetry_space_group_name_H-M	'P1'
_symmetry_Int_Tables_number	1
_symmetry_cell_setting	triclinic
loop_
_symmetry_equiv_pos_as_xyz
  x,y,z
_cell_length_a	19.288867
_cell_length_b	15.186229
_cell_length_c	16.109301
_cell_angle_alpha	90.000293
_cell_angle_beta	83.299326
_cell_angle_gamma	90.004108
loop_
_atom_site_label
_atom_site_type_symbol
_atom_site_fract_x
_atom_site_fract_y
_atom_site_fract_z
O1	O	0.921597	0.073198	0.103717
O2	O	0.719370	0.073206	0.117706
O3	O	0.826038	0.073196	-0.010338
O4	O	0.814928	0.073208	0.231762
O5	O	0.826026	-0.073261	-0.010331
O6	O	0.719357	-0.073251	0.117714
O7	O	0.921584	-0.073259	0.103724
Zn8	Zn	0.820469	-0.096508	0.110720
Zn9	Zn	0.820485	0.096455	0.110711
O10	O	0.814915	-0.073249	0.231769
C11	C	0.693486	-0.000021	0.117260
C12	C	0.616379	-0.000018	0.115908
C13	C	0.060797	0.079805	0.106165
C14	C	0.133248	0.079808	0.107430
C15	C	0.169471	-0.000025	0.108071
C16	C	0.133240	-0.079868	0.107424
C17	C	0.060792	-0.079869	0.106151
C18	C	0.278914	-0.061186	0.158787
C19	C	0.351361	-0.061181	0.160065
C20	C	0.392926	-0.000025	0.111996
C21	C	0.362035	0.061141	0.062658
C22	C	0.289587	0.061140	0.061384
C23	C	0.248029	-0.000033	0.109451
C24	C	0.507708	0.079816	0.114008
C25	C	0.580161	0.079816	0.115268
C26	C	0.580151	-0.079863	0.115271
C27	C	0.507701	-0.079860	0.114002
C28	C	0.471483	-0.000018	0.113375
N29	N	0.820463	-0.228201	0.110726
C30	C	0.862588	-0.453923	0.161011
C31	C	0.862596	-0.546113	0.161005
C32	C	0.778369	-0.546124	0.060408
C33	C	0.778366	-0.453936	0.060410
C34	C	0.820474	-0.407838	0.110716
C35	C	0.820485	-0.592215	0.110708
C36	C	0.820493	-0.692172	0.110701
C37	C	0.820467	-0.307875	0.110722
C38	C	0.947468	-0.000030	0.104171
C39	C	1.024575	-0.000027	0.105523
C40	C	0.825582	-0.000032	-0.041308
C41	C	0.824233	-0.000031	-0.133599
N42	N	0.820497	0.228148	0.110698
C43	C	0.883117	-0.000018	-0.442798
C44	C	0.884391	-0.000023	-0.356082
C45	C	0.757832	-0.000030	-0.335777
C46	C	0.756559	-0.000031	-0.422491
C47	C	0.819203	-0.000021	-0.476000
C48	C	0.821751	-0.000025	-0.302570
C49	C	0.823132	-0.000030	-0.208548
C50	C	0.817822	-0.000017	-0.570027
C51	C	0.815372	-0.000019	0.262739
C52	C	0.816721	-0.000014	0.355029
H53	H	0.478207	-0.144869	0.113483
H54	H	0.609643	-0.144865	0.115789
H55	H	0.704509	-0.000037	-0.449524
H56	H	0.896890	-0.583631	0.201958
H57	H	0.896876	-0.416393	0.201973
Cl58	Cl	0.725431	-0.604081	-0.002824
H59	H	0.162746	0.144820	0.107957
H60	H	0.934126	-0.000010	-0.486363
Cl61	Cl	0.414281	0.138032	0.002226
Cl62	Cl	0.964744	-0.000017	-0.314346
H63	H	0.264439	0.110942	0.021210
Cl64	Cl	0.462175	0.180186	0.113213
Cl65	Cl	0.625700	0.180187	0.116066
Cl66	Cl	0.725417	-0.395995	-0.002821
Cl67	Cl	0.226669	-0.138084	0.219213
Cl68	Cl	0.679084	-0.000035	-0.268504
Cl69	Cl	0.178777	-0.180230	0.108226
Cl70	Cl	0.390187	-0.138068	0.222097
Cl71	Cl	0.015271	0.180178	0.105369
H72	H	0.031300	-0.144880	0.105631
