data_functionalizedCrystal
_audit_creation_method	'MofGen! by Chris Wilmer'
_symmetry_space_group_name_H-M	'P1'
_symmetry_Int_Tables_number	1
_symmetry_cell_setting	triclinic
loop_
_symmetry_equiv_pos_as_xyz
  x,y,z
_cell_length_a	23.096457
_cell_length_b	14.395555
_cell_length_c	14.395555
_cell_angle_alpha	60.001260
_cell_angle_beta	60.004297
_cell_angle_gamma	90.001253
loop_
_atom_site_label
_atom_site_type_symbol
_atom_site_fract_x
_atom_site_fract_y
_atom_site_fract_z
Zr1	Zr	-0.075954	0.894883	1.016804
O2	O	-0.168402	0.940353	1.016800
O3	O	-0.047613	0.746559	1.016799
O4	O	-0.168394	0.746561	1.210583
O5	O	0.047652	1.093215	0.670163
O6	O	-0.168389	0.746563	1.363449
O7	O	-0.047621	0.940350	0.823016
O8	O	0.047666	0.746558	1.016805
O9	O	-0.168404	1.093220	1.016807
O10	O	-0.035523	0.845661	1.130886
O11	O	0.035574	0.959742	0.902732
O12	O	-0.106630	0.959745	1.130887
O13	O	-0.035533	1.073826	0.902732
Zr14	Zr	0.076003	1.138687	1.016825
Zr15	Zr	-0.075946	0.894885	1.260608
Zr16	Zr	0.075995	1.138685	0.773021
Zr17	Zr	-0.075957	1.138688	1.016815
Zr18	Zr	0.076005	0.894881	1.016814
O19	O	0.047661	1.287011	1.016830
O20	O	-0.168391	0.940355	1.363457
O21	O	0.047650	1.287008	0.670172
O22	O	0.168451	1.093217	1.016828
O23	O	-0.047601	0.746561	1.363456
O24	O	0.168439	1.093214	0.670171
O25	O	-0.047603	0.940354	1.363465
O26	O	0.168442	1.287008	0.823046
O27	O	0.168437	1.287007	0.670180
O28	O	0.047669	1.093219	1.210612
O29	O	-0.168397	1.093221	1.210598
O30	O	0.168446	0.940348	0.823030
O31	O	0.168452	0.940350	1.016822
O32	O	0.047673	0.746559	1.210596
O33	O	-0.047624	1.287010	0.823032
O34	O	-0.047618	1.287012	1.016823
O35	O	0.106679	1.073824	0.902742
O36	O	0.035581	0.959744	1.130896
O37	O	-0.035526	1.073828	1.130897
O38	O	0.035572	1.187908	0.902742
C39	C	0.000027	0.711821	1.016801
C40	C	0.000028	0.608319	1.016796
C41	C	0.038796	0.609932	0.892396
C42	C	-0.028064	0.516915	0.954581
C43	C	0.066867	0.516908	0.954616
C44	C	-0.066871	0.516665	1.078981
C45	C	0.028108	0.516673	1.078999
C46	C	-0.038791	0.423638	1.141275
C47	C	-0.190054	1.016786	1.016802
C48	C	-0.254565	1.016787	1.016798
C49	C	-0.677975	1.076341	0.897737
C50	C	-0.617356	1.076337	0.897729
C51	C	-0.624155	1.016789	1.016822
C52	C	-0.691579	0.957217	1.135932
C53	C	-0.752195	0.957214	1.135936
N54	N	-0.556605	1.025053	1.105468
N55	N	-0.499020	1.025062	1.105456
C56	C	-0.441524	1.016793	1.016817
N57	N	-0.443783	1.008536	0.928170
N58	N	-0.501372	1.008533	0.928178
C59	C	-0.558431	1.016785	1.016831
C60	C	-0.308380	1.076350	0.897707
C61	C	-0.247762	1.076337	0.897704
C62	C	-0.321987	0.957225	1.135910
C63	C	-0.382603	0.957230	1.135909
C64	C	-0.375794	1.016799	1.016804
C65	C	0.190102	1.016783	1.016826
C66	C	0.254613	1.016783	1.016831
C67	C	0.000014	1.016782	0.711853
C68	C	0.000011	1.016781	0.608352
C69	C	0.000021	1.321748	1.016828
C70	C	0.000020	1.425250	1.016833
C71	C	-0.038754	1.078995	0.547754
C72	C	-0.066846	0.971728	0.561986
C73	C	0.028097	1.124034	0.409705
C74	C	-0.028120	0.909452	0.624011
C75	C	0.066860	1.061835	0.471667
C76	C	0.038785	0.954505	0.485946
C77	C	0.000034	1.016787	1.321775
C78	C	0.000038	1.016788	1.425276
C79	C	-0.190041	0.711825	1.321750
C80	C	-0.254547	0.608325	1.425242
C81	C	0.000037	0.711824	1.321762
C82	C	0.000042	0.608323	1.425258
C83	C	0.190092	1.016781	0.711865
C84	C	0.254600	1.016779	0.608368
C85	C	0.000011	1.321746	0.711867
C86	C	0.000007	1.425247	0.608371
C87	C	0.190089	1.321744	0.711879
C88	C	0.254596	1.425245	0.608387
C89	C	-0.190044	1.016789	1.321763
C90	C	-0.254551	1.016790	1.425260
C91	C	-0.321964	0.619270	1.473854
C92	C	-0.382580	0.522030	1.571110
C93	C	-0.375779	0.413845	1.619745
C94	C	-0.308355	0.402902	1.571129
C95	C	-0.247740	0.500141	1.473882
C96	C	0.322015	1.076339	0.559760
C97	C	0.382632	1.076360	0.462500
C98	C	0.375833	1.016815	0.413857
C99	C	0.308410	0.957254	0.462469
C100	C	0.247794	0.957240	0.559721
C101	C	0.247771	1.533410	0.559776
C102	C	0.308376	1.630669	0.462520
C103	C	0.375805	1.619760	0.413884
C104	C	0.382627	1.511583	0.462499
C105	C	0.322023	1.414327	0.559746
C106	C	-0.247729	1.076341	1.473878
C107	C	-0.308334	1.076339	1.571138
C108	C	-0.375762	1.016792	1.619770
C109	C	-0.382583	0.957233	1.571148
C110	C	-0.321978	0.957230	1.473897
C111	C	0.038793	0.609937	1.485880
C112	C	0.066873	0.516883	1.471685
C113	C	-0.028071	0.516950	1.623921
C114	C	0.028161	0.516631	1.409637
C115	C	-0.066820	0.516713	1.561936
C116	C	-0.038756	0.423641	1.547695
H117	H	-0.123426	0.517491	1.131516
H118	H	0.123390	0.515923	1.434548
H119	H	0.302884	0.908774	0.422849
Br120	Br	-0.067822	0.758209	0.776614
Br121	Br	0.331263	1.157154	0.625760
H122	H	-0.437495	0.908737	1.232886
H123	H	-0.302828	0.314805	1.610745
Br124	Br	0.161083	0.515386	0.866953
Br125	Br	0.458105	1.016847	0.281870
Br126	Br	-0.331221	0.876397	1.297539
H127	H	0.051974	0.517424	1.318093
H128	H	-0.562459	1.124831	0.800746
Br129	Br	-0.093511	0.290917	1.316740
H130	H	0.123370	1.099970	0.434516
Br131	Br	-0.156249	0.485266	1.407904
Br132	Br	-0.093471	1.166538	0.593146
Br133	Br	-0.161052	0.908208	0.623930
Br134	Br	0.299100	1.777466	0.396559
H135	H	0.071570	0.901822	0.458999
Br136	Br	-0.299145	1.157185	0.736069
H137	H	0.192873	1.542315	0.599363
Br138	Br	0.067669	1.275203	0.257037
Br139	Br	-0.093412	0.290921	1.592623
Br140	Br	-0.331214	0.766081	1.407881
H141	H	0.071531	0.689685	0.787202
Br142	Br	-0.668733	1.157181	0.736095
H143	H	-0.697112	0.908730	1.232899
Br144	Br	-0.067664	0.515363	0.866952
Br145	Br	-0.331250	0.876412	1.407917
H146	H	-0.807088	0.908713	1.232918
H147	H	-0.192870	1.124835	0.800720
Br148	Br	-0.474074	0.536909	1.637064
H149	H	0.437525	1.124862	0.422936
Br150	Br	-0.458050	0.281888	1.751725
H151	H	-0.437491	0.908752	1.610759
H152	H	0.192903	0.908732	0.599296
H153	H	0.051882	0.517647	1.131531
Br154	Br	-0.458005	1.016810	1.751754
Br155	Br	0.458047	1.751765	0.281904
Br156	Br	0.474143	1.496797	0.396480
H157	H	0.327590	1.326257	0.599323
Br158	Br	-0.156227	1.157165	1.407899
H159	H	-0.302766	1.124843	1.610709
H160	H	0.071630	0.689694	1.458639
Br161	Br	-0.160998	0.518394	1.623798
Br162	Br	-0.067653	0.515479	1.776576
