data_functionalizedCrystal
_audit_creation_method	'MofGen! by Chris Wilmer'
_symmetry_space_group_name_H-M	'P1'
_symmetry_Int_Tables_number	1
_symmetry_cell_setting	triclinic
loop_
_symmetry_equiv_pos_as_xyz
  x,y,z
_cell_length_a	11.169417
_cell_length_b	14.909042
_cell_length_c	11.169409
_cell_angle_alpha	93.330125
_cell_angle_beta	90.019824
_cell_angle_gamma	86.720188
loop_
_atom_site_label
_atom_site_type_symbol
_atom_site_fract_x
_atom_site_fract_y
_atom_site_fract_z
Zn1	Zn	1.862467	-0.359060	0.650981
Zn2	Zn	1.873915	-0.509951	0.438716
Zn3	Zn	1.661757	-0.359115	0.450311
Zn4	Zn	1.673313	-0.509878	0.639366
O5	O	1.767863	-0.434501	0.544844
O6	O	2.031936	-0.379084	0.622832
O7	O	1.845726	-0.489996	0.272300
O8	O	1.678754	-0.232865	0.486644
O9	O	2.040346	-0.489943	0.466881
O10	O	1.826215	-0.232824	0.634076
O11	O	1.689855	-0.379178	0.280819
O12	O	1.495340	-0.379106	0.475382
O13	O	1.698450	-0.489818	0.808861
O14	O	1.503830	-0.489871	0.614280
O15	O	1.837420	-0.379013	0.817394
O16	O	1.856932	-0.636185	0.455619
O17	O	1.709551	-0.636131	0.603036
C18	C	1.456037	-0.434487	0.544829
C19	C	1.322638	-0.434503	0.544850
C20	C	1.785770	-0.668891	0.526835
C21	C	1.793540	-0.769164	0.519170
C22	C	1.654526	-0.957596	0.658141
C23	C	1.661824	-1.051811	0.650944
C24	C	1.815426	-1.051812	0.497574
C25	C	1.808128	-0.957597	0.504771
C26	C	1.727677	-0.910492	0.585059
C27	C	1.720387	-0.816275	0.592261
C28	C	1.873982	-0.816277	0.438886
C29	C	1.881279	-0.910492	0.431689
C30	C	2.080906	-0.434515	0.544859
C31	C	2.214307	-0.434522	0.544865
C32	C	1.767947	-0.434401	0.857894
C33	C	1.767983	-0.434358	0.991297
C34	C	1.749919	-0.199196	0.562949
C35	C	1.742272	-0.098923	0.570665
C36	C	1.767843	-0.434536	0.233016
C37	C	1.768020	-0.434324	0.099633
H38	H	1.654883	-0.777923	0.657638
C39	C	1.567081	-0.906610	0.745353
C40	C	1.504567	-0.968029	0.807806
C41	C	1.423994	-0.921095	0.888150
H42	H	1.609990	-0.869795	0.800599
H43	H	1.511902	-0.869935	0.702233
H44	H	1.559737	-1.004689	0.850924
H45	H	1.461633	-1.004846	0.752592
H46	H	1.368816	-0.884420	0.845031
H47	H	1.466913	-0.884281	0.943388
H48	H	1.381561	-0.962760	0.930526
H49	H	1.602260	-1.090160	0.710459
H50	H	1.946776	-0.948858	0.366318
H51	H	1.880913	-1.090181	0.432197
C52	C	1.953264	-0.764972	0.359587
C53	C	1.929639	-0.672379	0.383052
C54	C	2.002639	-0.625089	0.310020
H55	H	2.035124	-0.780244	0.375983
H56	H	1.936929	-0.780421	0.277725
H57	H	1.945983	-0.656936	0.464895
H58	H	1.847793	-0.657080	0.366649
H59	H	1.986305	-0.640538	0.228157
H60	H	2.084495	-0.640368	0.326421
H61	H	1.986613	-0.562260	0.325922
