data_functionalizedCrystal
_audit_creation_method	'MofGen! by Chris Wilmer'
_symmetry_space_group_name_H-M	'P1'
_symmetry_Int_Tables_number	1
_symmetry_cell_setting	triclinic
loop_
_symmetry_equiv_pos_as_xyz
  x,y,z
_cell_length_a	13.897449
_cell_length_b	13.897448
_cell_length_c	13.897441
_cell_angle_alpha	90.027040
_cell_angle_beta	89.978743
_cell_angle_gamma	89.979604
loop_
_atom_site_label
_atom_site_type_symbol
_atom_site_fract_x
_atom_site_fract_y
_atom_site_fract_z
Zn1	Zn	1.474670	0.383972	-0.545467
Zn2	Zn	1.974670	0.883972	-0.045467
Zn3	Zn	1.474564	0.545291	-0.384176
Zn4	Zn	1.974564	1.045291	0.115824
Zn5	Zn	1.313365	0.384014	-0.384178
Zn6	Zn	1.813365	0.884014	0.115822
Zn7	Zn	1.313335	0.545229	-0.545421
Zn8	Zn	1.813335	1.045229	-0.045421
O9	O	1.393984	0.464627	-0.464810
O10	O	1.893984	0.964627	0.035190
O11	O	1.609637	0.405380	-0.524090
O12	O	2.109637	0.905380	-0.024090
O13	O	1.453149	0.523941	-0.249194
O14	O	1.953149	1.023941	0.250806
O15	O	1.334819	0.249027	-0.405593
O16	O	1.834819	0.749027	0.094407
O17	O	1.609560	0.523900	-0.405590
O18	O	2.109560	1.023900	0.094410
O19	O	1.453329	0.248996	-0.524092
O20	O	1.953329	0.748996	-0.024092
O21	O	1.334717	0.405451	-0.249196
O22	O	1.834717	0.905451	0.250804
O23	O	1.178379	0.405391	-0.405549
O24	O	1.678379	0.905391	0.094451
O25	O	1.334768	0.523795	-0.680409
O26	O	1.834768	1.023795	-0.180409
O27	O	1.178358	0.523835	-0.524013
O28	O	1.678358	1.023835	-0.024013
O29	O	1.453300	0.405320	-0.680443
O30	O	1.953300	0.905320	-0.180443
O31	O	1.453121	0.680264	-0.405545
O32	O	1.953121	1.180264	0.094455
O33	O	1.334666	0.680219	-0.524011
O34	O	1.834666	1.180219	-0.024011
C35	C	1.143369	0.464612	-0.464777
C36	C	1.643369	0.964612	0.035223
C37	C	1.036155	0.464629	-0.464785
C38	C	1.536155	0.964629	0.035215
C39	C	0.949086	0.464632	-0.464801
C40	C	1.449086	0.964632	0.035199
C41	C	0.839853	0.464639	-0.464831
C42	C	1.339853	0.964639	0.035169
C43	C	1.393905	0.715241	-0.464794
C44	C	1.893905	1.215241	0.035206
C45	C	1.393960	0.822455	-0.464819
C46	C	1.893960	1.322455	0.035181
C47	C	1.394054	1.018750	-0.464888
C48	C	1.894054	1.518750	0.035112
C49	C	1.393999	0.909517	-0.464853
C50	C	1.893999	1.409517	0.035147
C51	C	1.645577	0.464642	-0.464845
C52	C	2.145577	0.964642	0.035155
C53	C	1.752790	0.464649	-0.464859
C54	C	2.252790	0.964649	0.035141
C55	C	1.394081	1.213034	-0.464859
C56	C	1.894081	1.713034	0.035141
C57	C	1.394101	1.105820	-0.464909
C58	C	1.894101	1.605820	0.035091
C59	C	1.394043	0.464546	-0.716403
C60	C	1.894043	0.964546	-0.216403
C61	C	1.394068	0.464511	-0.823617
C62	C	1.894068	0.964511	-0.323617
C63	C	1.394088	0.464484	-0.910687
C64	C	1.894088	0.964484	-0.410687
C65	C	1.394115	0.464440	-1.019920
C66	C	1.894115	0.964440	-0.519920
C67	C	1.393980	0.464638	-0.214196
C68	C	1.893980	0.964638	0.285804
C69	C	1.394142	0.464400	-0.106983
C70	C	1.894142	0.964400	0.393017
