data_functionalizedCrystal
_audit_creation_method	'MofGen! by Chris Wilmer'
_symmetry_space_group_name_H-M	'P1'
_symmetry_Int_Tables_number	1
_symmetry_cell_setting	triclinic
loop_
_symmetry_equiv_pos_as_xyz
  x,y,z
_cell_length_a	19.377369
_cell_length_b	19.377372
_cell_length_c	18.878441
_cell_angle_alpha	89.998309
_cell_angle_beta	107.873619
_cell_angle_gamma	62.069167
loop_
_atom_site_label
_atom_site_type_symbol
_atom_site_fract_x
_atom_site_fract_y
_atom_site_fract_z
Zr1	Zr	0.939095	0.435800	0.001133
O2	O	1.046526	0.323010	0.074193
O3	O	0.808585	0.485417	-0.000766
O4	O	0.949301	0.463721	0.117453
O5	O	0.905808	0.344711	-0.160597
O6	O	0.983605	0.557607	0.128261
O7	O	0.905810	0.344706	-0.044026
O8	O	0.731891	0.596418	-0.083211
O9	O	1.157522	0.305900	0.050875
O10	O	0.896415	0.558473	-0.018275
O11	O	0.870812	0.488410	-0.113336
O12	O	1.036487	0.462866	0.025852
O13	O	1.010884	0.392803	-0.069209
Zr14	Zr	0.993803	0.585546	-0.167547
Zr15	Zr	0.993806	0.585538	0.018370
Zr16	Zr	0.939092	0.435808	-0.184784
Zr17	Zr	1.116122	0.408513	-0.036056
Zr18	Zr	0.816776	0.612833	-0.130359
O19	O	1.124313	0.535929	-0.165648
O20	O	1.124318	0.535918	0.098701
O21	O	1.046521	0.323021	-0.190157
O22	O	0.886373	0.698336	-0.240607
O23	O	0.886377	0.698325	0.023743
O24	O	0.808581	0.485428	-0.265115
O25	O	1.027090	0.676635	-0.005817
O26	O	0.983598	0.557625	-0.283867
O27	O	0.949294	0.463739	-0.294675
O28	O	1.027088	0.676640	-0.122388
O29	O	1.201010	0.424922	0.064576
O30	O	0.731888	0.596424	-0.230990
O31	O	0.775376	0.715446	-0.217289
O32	O	0.775379	0.715439	-0.069511
O33	O	1.157520	0.305907	-0.096904
O34	O	1.201008	0.424928	-0.083203
O35	O	0.896412	0.558480	-0.192266
O36	O	0.922014	0.628543	-0.097205
O37	O	1.062086	0.532936	-0.053078
O38	O	1.036484	0.462873	-0.148139
C39	C	0.745015	0.544805	-0.036690
C40	C	0.669863	0.556389	-0.020903
C41	C	0.898014	0.323374	-0.104768
C42	C	0.874788	0.259806	-0.112085
C43	C	0.355675	0.411926	-0.217295
C44	C	0.285001	0.422907	-0.202511
C45	C	0.311738	0.496046	-0.103275
C46	C	0.382412	0.485075	-0.118053
C47	C	0.404375	0.443013	-0.175064
C48	C	0.431113	0.516163	-0.075821
C49	C	0.501784	0.505188	-0.090596
C50	C	0.523754	0.463127	-0.147602
C51	C	0.475046	0.432039	-0.189838
C52	C	0.409152	0.558219	-0.018808
C53	C	0.457852	0.589307	0.023424
C54	C	0.528521	0.578338	0.008646
C55	C	0.550492	0.536276	-0.048360
C56	C	0.577229	0.609425	0.050882
C57	C	0.647900	0.598451	0.036108
C58	C	0.621162	0.525302	-0.063134
C59	C	1.163972	-0.198783	-0.020979
C60	C	1.142128	-0.258501	-0.027862
C61	C	0.995903	-0.158686	-0.073927
C62	C	1.017735	-0.098958	-0.067052
C63	C	1.101770	-0.119013	-0.040577
C64	C	0.955534	-0.019187	-0.086649
C65	C	0.977364	0.040535	-0.079770
C66	C	1.061395	0.020488	-0.053294
C67	C	1.123601	-0.059290	-0.033698
C68	C	0.871499	0.000866	-0.113119
C69	C	0.809298	0.080637	-0.132716
C70	C	0.831127	0.140361	-0.125843
C71	C	0.915159	0.120313	-0.099367
C72	C	0.768922	0.220139	-0.145439
C73	C	0.790752	0.279862	-0.138560
C74	C	0.936989	0.180036	-0.092488
C75	C	1.187883	0.476541	-0.129724
C76	C	1.263035	0.464957	-0.145512
C77	C	0.966453	0.510663	0.149346
C78	C	0.966455	0.510660	0.228273
C79	C	1.034884	0.697972	-0.061646
C80	C	1.058110	0.761540	-0.054329
C81	C	1.039570	0.460754	0.288387
C82	C	1.039569	0.460761	0.362546
C83	C	0.966450	0.510670	0.376589
C84	C	0.893330	0.560581	0.316468
C85	C	0.893333	0.560578	0.242311
C86	C	0.893328	0.560583	0.471036
C87	C	0.893323	0.560585	0.545197
C88	C	1.039563	0.460766	0.591271
C89	C	1.039566	0.460762	0.517114
C90	C	0.966445	0.510673	0.456998
C91	C	0.966444	0.510681	0.684239
C92	C	0.966438	0.510680	0.605312
C93	C	0.813451	0.732105	-0.015129
C94	C	0.761524	0.807256	0.007975
C95	C	0.745011	0.544815	-0.269243
C96	C	0.669857	0.556403	-0.332382
C97	C	0.813446	0.732115	-0.247683
C98	C	0.761519	0.807270	-0.303504
C99	C	1.119452	0.289232	0.081269
C100	C	1.171379	0.214076	0.137090
C101	C	1.119448	0.289242	-0.151285
C102	C	1.171374	0.214090	-0.174390
C103	C	1.187887	0.476531	0.102829
C104	C	1.263041	0.464943	0.165968
C105	C	0.723777	0.805973	0.060034
C106	C	0.674994	0.876579	0.081758
C107	C	0.663955	0.948468	0.051419
C108	C	0.701709	0.949749	-0.000643
C109	C	0.750496	0.879144	-0.022362
C110	C	0.647927	0.598420	-0.403241
C111	C	0.577321	0.609304	-0.462577
C112	C	0.528643	0.578174	-0.451050
C113	C	0.550579	0.536151	-0.380184
C114	C	0.621187	0.525263	-0.320852
C115	C	0.750499	0.879142	-0.280097
C116	C	0.701720	0.949762	-0.332542
C117	C	0.663955	0.948510	-0.408392
C118	C	0.674979	0.876630	-0.431800
C119	C	0.723763	0.806010	-0.379357
C120	C	1.182407	0.142203	0.113681
C121	C	1.231209	0.071579	0.166121
C122	C	1.268977	0.072831	0.241971
C123	C	1.257949	0.144712	0.265379
C124	C	1.209153	0.215333	0.212939
C125	C	1.209129	0.215372	-0.226442
C126	C	1.257931	0.144763	-0.248150
C127	C	1.268972	0.072874	-0.217808
C128	C	1.231215	0.071593	-0.165749
C129	C	1.182419	0.142200	-0.144039
C130	C	1.311699	0.496084	0.154419
C131	C	1.382310	0.485211	0.213741
C132	C	1.404264	0.443193	0.284611
C133	C	1.355599	0.412053	0.296159
C134	C	1.284986	0.422930	0.236839
H135	H	0.639045	0.491051	-0.109558
H136	H	1.288706	0.145721	0.327142
H137	H	1.421927	0.510570	0.204323
C138	C	0.610280	1.026131	0.075313
N139	N	0.569847	1.084625	0.093311
C140	C	0.379842	0.365648	-0.280005
N141	N	0.398049	0.330788	-0.327231
H142	H	0.559471	0.643524	-0.520273
C143	C	0.601494	0.451056	-0.163855
N144	N	0.660047	0.441966	-0.176098
C145	C	0.610287	1.026202	-0.466071
N146	N	0.569862	1.084723	-0.509510
H147	H	1.151677	0.141145	-0.101656
H148	H	0.492928	0.397788	-0.236262
H149	H	0.471151	0.587045	-0.499368
C150	C	0.792038	0.880538	-0.196665
N151	N	0.823328	0.881595	-0.133825
H152	H	0.732764	0.747442	0.084753
C153	C	1.379737	0.365868	0.374132
N154	N	1.397914	0.331091	0.432867
H155	H	1.240213	0.013050	-0.141050
H156	H	0.833784	0.601225	0.556627
H157	H	1.200175	0.273854	0.232009
H158	H	1.099110	0.420107	0.276961
H159	H	0.927482	-0.142367	-0.095481
H160	H	0.853728	-0.047767	-0.118713
C161	C	0.716861	0.102687	-0.161840
N162	N	0.647237	0.119298	-0.183779
H163	H	0.732726	0.747493	-0.398425
H164	H	1.461764	0.434341	0.332906
H165	H	1.293836	0.530297	0.096718
H166	H	1.200144	0.273902	-0.251159
C167	C	0.497020	0.501917	-0.367515
N168	N	0.456674	0.476137	-0.357973
C169	C	1.119990	0.405830	0.428666
N170	N	1.180563	0.364443	0.478468
H171	H	1.245374	0.397567	0.246252
H172	H	0.245351	0.397586	-0.236904
H173	H	0.293849	0.530291	-0.056855
C174	C	1.119998	0.405867	0.657400
N175	N	1.180579	0.364517	0.707212
C176	C	0.633425	0.875267	-0.515238
N177	N	0.602118	0.874243	-0.578085
C178	C	0.331410	0.570292	-0.002558
N179	N	0.272853	0.579386	0.009679
C180	C	0.433683	0.635576	0.086132
N181	N	0.415477	0.670429	0.133363
H182	H	0.687554	0.623772	-0.412641
H183	H	0.692714	1.008291	-0.025340
C184	C	0.553063	0.655687	0.113595
N185	N	0.534860	0.690533	0.160831
H186	H	1.151656	0.141170	0.051925
C187	C	0.701472	0.632652	0.082563
N188	N	0.741823	0.658412	0.117555
C189	C	1.322648	-0.004790	-0.241703
N190	N	1.363075	-0.063283	-0.259705
C191	C	0.812898	0.615480	0.331917
N192	N	0.752314	0.656828	0.343552
H193	H	0.644258	0.875520	0.124149
H194	H	0.700501	0.236456	-0.166988
C195	C	1.243328	-0.007481	0.140356
N196	N	1.252455	-0.067026	0.120948
C197	C	0.689595	1.028823	-0.306775
N198	N	0.680462	1.088370	-0.287366
C199	C	1.029433	0.157976	-0.063370
N200	N	1.099058	0.141363	-0.041439
C201	C	1.322644	-0.004861	0.299650
N202	N	1.363062	-0.063380	0.343091
H203	H	1.288666	0.145822	-0.290541
H204	H	1.079168	0.069120	-0.047692
H205	H	1.192031	-0.075623	-0.012164
H206	H	1.192786	-0.323457	-0.011900
C207	C	1.256415	-0.220843	0.008138
N208	N	1.326041	-0.237457	0.030069
H209	H	0.781224	0.880200	-0.064756
H210	H	0.740102	0.344815	-0.154533
H211	H	1.099104	0.420118	0.505684
H212	H	0.833785	0.601227	0.422089
H213	H	0.833796	0.601216	0.193364
H214	H	0.639033	0.491052	-0.263156
