data_functionalizedCrystal
_audit_creation_method	'MofGen! by Chris Wilmer'
_symmetry_space_group_name_H-M	'P1'
_symmetry_Int_Tables_number	1
_symmetry_cell_setting	triclinic
loop_
_symmetry_equiv_pos_as_xyz
  x,y,z
_cell_length_a	18.101398
_cell_length_b	21.295412
_cell_length_c	18.101395
_cell_angle_alpha	90.025462
_cell_angle_beta	89.971165
_cell_angle_gamma	89.977775
loop_
_atom_site_label
_atom_site_type_symbol
_atom_site_fract_x
_atom_site_fract_y
_atom_site_fract_z
Zn1	Zn	1.132102	-0.356034	0.294889
Zn2	Zn	1.632102	0.143966	0.794889
Zn3	Zn	1.132004	-0.250769	0.418733
Zn4	Zn	1.632004	0.249231	0.918733
Zn5	Zn	1.008267	-0.250768	0.294905
Zn6	Zn	1.508267	0.249232	0.794905
Zn7	Zn	1.008212	-0.355991	0.418688
Zn8	Zn	1.508212	0.144009	0.918688
O9	O	1.070146	-0.303390	0.356804
O10	O	1.570146	0.196610	0.856804
O11	O	1.235722	-0.342089	0.311329
O12	O	1.735722	0.157911	0.811329
O13	O	1.115571	-0.162680	0.402333
O14	O	1.615571	0.337320	0.902333
O15	O	1.024758	-0.264749	0.191270
O16	O	1.524758	0.235251	0.691270
O17	O	1.235650	-0.264752	0.402317
O18	O	1.735650	0.235248	0.902317
O19	O	1.115739	-0.342087	0.191258
O20	O	1.615739	0.157913	0.691258
O21	O	1.024662	-0.162679	0.311357
O22	O	1.524662	0.337321	0.811357
O23	O	0.904627	-0.264707	0.311313
O24	O	1.404627	0.235293	0.811313
O25	O	1.024665	-0.444086	0.402240
O26	O	1.524665	0.055914	0.902240
O27	O	0.904586	-0.342014	0.402256
O28	O	1.404586	0.157986	0.902256
O29	O	1.115686	-0.444117	0.311286
O30	O	1.615686	0.055883	0.811286
O31	O	1.115518	-0.264710	0.522360
O32	O	1.615518	0.235290	1.022360
O33	O	1.024569	-0.342015	0.522327
O34	O	1.524569	0.157985	1.022327
C35	C	0.877736	-0.303356	0.356782
C36	C	1.377736	0.196644	0.856782
C37	C	0.795421	-0.303356	0.356791
C38	C	1.295421	0.196644	0.856791
C39	C	0.644713	-0.303385	0.356806
C40	C	1.144713	0.196615	0.856806
C41	C	0.613360	-0.254827	0.299505
C42	C	1.113360	0.245173	0.799505
C43	C	0.527742	-0.254986	0.299290
C44	C	1.027742	0.245014	0.799290
C45	C	0.496331	-0.303412	0.356821
C46	C	0.996331	0.196588	0.856821
C47	C	0.527467	-0.369827	0.335990
C48	C	1.027467	0.130173	0.835990
C49	C	0.613112	-0.369531	0.335565
C50	C	1.113112	0.130469	0.835565
C51	C	0.613110	-0.286113	0.435086
C52	C	1.113110	0.213887	0.935086
C53	C	0.527459	-0.284666	0.434673
C54	C	1.027459	0.215334	0.934673
C55	C	0.412471	-0.303431	0.356831
C56	C	0.912471	0.196569	0.856831
C57	C	0.728573	-0.303370	0.356794
C58	C	1.228573	0.196630	0.856794
C59	C	1.070180	-0.467581	0.356756
C60	C	1.570180	0.032419	0.856756
C61	C	1.070195	-0.537549	0.356736
C62	C	1.570195	-0.037549	0.856736
C63	C	1.117660	-1.037024	0.309258
C64	C	1.617660	-0.537024	0.809258
C65	C	1.117654	-0.971282	0.309276
C66	C	1.617654	-0.471282	0.809276
C67	C	1.070259	-0.938388	0.356638
C68	C	1.570259	-0.438388	0.856638
C69	C	1.022879	-0.971243	0.403999
C70	C	1.522879	-0.471243	0.903999
C71	C	1.022892	-1.036984	0.403985
C72	C	1.522892	-0.536984	0.903985
N73	N	1.005411	-0.835155	0.362334
N74	N	1.505411	-0.335155	0.862334
N75	N	1.005402	-0.772703	0.362343
N76	N	1.505402	-0.272703	0.862343
C77	C	1.070220	-0.740314	0.356684
C78	C	1.570220	-0.240314	0.856684
N79	N	1.135050	-0.772735	0.351002
N80	N	1.635050	-0.272735	0.851002
N81	N	1.135059	-0.835192	0.350989
N82	N	1.635059	-0.335192	0.850989
C83	C	1.070241	-0.867103	0.356659
C84	C	1.570241	-0.367103	0.856659
C85	C	1.117594	-0.636181	0.309350
C86	C	1.617594	-0.136181	0.809350
C87	C	1.117590	-0.570438	0.309373
C88	C	1.617590	-0.070438	0.809373
C89	C	1.022808	-0.570400	0.404091
C90	C	1.522808	-0.070400	0.904091
C91	C	1.022819	-0.636143	0.404072
C92	C	1.522819	-0.136143	0.904072
C93	C	1.070211	-0.669029	0.356697
C94	C	1.570211	-0.169029	0.856697
C95	C	1.263308	-0.303425	0.356826
C96	C	1.763308	0.196575	0.856826
C97	C	1.345622	-0.303440	0.356836
C98	C	1.845622	0.196560	0.856836
C99	C	1.070047	-0.303372	0.549215
C100	C	1.570047	0.196628	1.049215
C101	C	1.070072	-0.303385	0.631529
C102	C	1.570072	0.196615	1.131529
C103	C	1.070155	-0.139839	0.356798
C104	C	1.570155	0.360161	0.856798
C105	C	1.070284	-0.069871	0.356610
C106	C	1.570284	0.430129	0.856610
C107	C	1.070266	-0.303423	0.163642
C108	C	1.570266	0.196577	0.663642
C109	C	1.070317	-0.303437	0.081328
C110	C	1.570317	0.196563	0.581328
C111	C	1.070235	-0.303419	0.930620
C112	C	1.570235	0.196581	1.430620
C113	C	1.013145	-0.352178	0.899304
C114	C	1.513145	0.147822	1.399304
C115	C	1.012873	-0.352026	0.813687
C116	C	1.512873	0.147974	1.313687
C117	C	1.070154	-0.303403	0.782237
C118	C	1.570154	0.196597	1.282237
C119	C	1.049029	-0.237058	0.813385
C120	C	1.549029	0.262942	1.313385
C121	C	1.048661	-0.237349	0.899030
C122	C	1.548661	0.262651	1.399030
C123	C	1.148576	-0.320421	0.898967
C124	C	1.648576	0.179579	1.398967
C125	C	1.148115	-0.321875	0.813316
C126	C	1.648115	0.178125	1.313316
C127	C	1.070110	-0.303389	0.698378
C128	C	1.570110	0.196611	1.198378
C129	C	1.070277	-0.303428	1.014479
C130	C	1.570277	0.196572	1.514479
H131	H	0.507279	-0.266453	0.241289
H132	H	1.007279	0.233547	0.741289
H133	H	0.991394	-0.222948	0.919070
H134	H	1.491394	0.277052	1.419070
H135	H	1.089302	-0.199737	0.793015
H136	H	1.589302	0.300263	1.293015
H137	H	0.955430	-0.341057	0.920888
H138	H	1.455430	0.158943	1.420888
N139	N	1.168786	-1.072493	0.258174
N140	N	1.668786	-0.572493	0.758174
H141	H	1.161608	-1.119125	0.265350
H142	H	1.661608	-0.619125	0.765350
H143	H	1.157289	-1.061013	0.205285
H144	H	1.657289	-0.561013	0.705285
H145	H	1.191110	-0.284907	0.919217
H146	H	1.691110	0.215093	1.419217
H147	H	1.156183	-0.662959	0.270774
H148	H	1.656183	-0.162959	0.770774
N149	N	0.971750	-0.935767	0.455071
N150	N	1.471750	-0.435767	0.955071
H151	H	0.941736	-0.966554	0.485065
H152	H	1.441736	-0.466554	0.985065
H153	H	1.001864	-0.908485	0.489351
H154	H	1.501864	-0.408485	0.989351
H155	H	0.954805	-0.340763	0.793261
H156	H	1.454805	0.159237	1.293261
N157	N	0.973978	-0.217633	0.785058
N158	N	1.473978	0.282367	1.285058
H159	H	0.953555	-0.251707	0.752057
H160	H	1.453555	0.248293	1.252057
H161	H	0.939476	-0.210812	0.828189
H162	H	1.439476	0.289188	1.328189
N163	N	1.101325	-0.187574	0.926491
N164	N	1.601325	0.312426	1.426491
H165	H	1.141154	-0.207816	0.957453
H166	H	1.641154	0.292184	1.457453
H167	H	1.124629	-0.165551	0.882923
H168	H	1.624629	0.334449	1.382923
H169	H	0.506046	-0.384683	0.279412
H170	H	1.006046	0.115317	0.779412
H171	H	0.633116	-0.384130	0.278355
H172	H	1.133116	0.115870	0.778355
N173	N	0.641668	-0.223033	0.460289
N174	N	1.141668	0.276967	0.960289
H175	H	0.675386	-0.205012	0.421213
H176	H	1.175386	0.294988	0.921213
H177	H	0.598686	-0.193610	0.468608
H178	H	1.098686	0.306390	0.968608
H179	H	1.156233	-0.944533	0.270714
H180	H	1.656233	-0.444533	0.770714
H181	H	0.984311	-1.063728	0.442545
H182	H	1.484311	-0.563728	0.942545
N183	N	1.168697	-0.535007	0.258304
N184	N	1.668697	-0.035007	0.758304
H185	H	1.198718	-0.565819	0.228292
H186	H	1.698718	-0.065819	0.728292
H187	H	1.138565	-0.507729	0.224040
H188	H	1.638565	-0.007729	0.724040
N189	N	0.499849	-0.189765	0.316499
N190	N	0.999849	0.310235	0.816499
H191	H	0.468947	-0.173989	0.273928
H192	H	0.968947	0.326011	0.773928
H193	H	0.468759	-0.191002	0.362820
H194	H	0.968759	0.308998	0.862820
N195	N	0.640598	-0.419110	0.388467
N196	N	1.140598	0.080890	0.888467
H197	H	0.597076	-0.441062	0.411957
H198	H	1.097076	0.058938	0.911957
H199	H	0.671562	-0.450726	0.360656
H200	H	1.171562	0.049274	0.860656
N201	N	0.639978	-0.332948	0.491637
N202	N	1.139978	0.167052	0.991637
H203	H	0.619500	-0.321616	0.541816
H204	H	1.119500	0.178384	1.041816
H205	H	0.622696	-0.376394	0.477435
H206	H	1.122696	0.123606	0.977435
N207	N	0.500526	-0.419083	0.389584
N208	N	1.000526	0.080917	0.889584
H209	H	0.467799	-0.398770	0.427974
H210	H	0.967799	0.101230	0.927974
H211	H	0.471523	-0.452073	0.361929
H212	H	0.971523	0.047927	0.861929
N213	N	0.971693	-0.534932	0.455182
N214	N	1.471693	-0.034932	0.955182
H215	H	0.978875	-0.488300	0.448008
H216	H	1.478875	0.011700	0.948008
H217	H	0.918811	-0.546414	0.443651
H218	H	1.418811	-0.046414	0.943651
H219	H	1.167837	-0.367975	0.920518
H220	H	1.667837	0.132025	1.420518
N221	N	1.207434	-0.278257	0.784959
N222	N	1.707434	0.221743	1.284959
H223	H	1.232122	-0.256580	0.828004
H224	H	1.732122	0.243420	1.328004
H225	H	1.245368	-0.303240	0.756447
H226	H	1.745368	0.196760	1.256447
N227	N	0.971707	-0.671573	0.455134
N228	N	1.471707	-0.171573	0.955134
H229	H	0.978906	-0.718210	0.447938
H230	H	1.478906	-0.218210	0.947938
H231	H	0.983198	-0.660073	0.508029
H232	H	1.483198	-0.160073	1.008029
N233	N	1.030374	-0.417187	0.785780
N234	N	1.530374	0.082813	1.285780
H235	H	1.038335	-0.446269	0.829114
H236	H	1.538335	0.053731	1.329114
H237	H	0.987839	-0.433056	0.754896
H238	H	1.487839	0.066944	1.254896
H239	H	1.026230	-0.401531	0.919855
H240	H	1.526230	0.098469	1.419855
N241	N	1.169226	-0.386550	0.786349
N242	N	1.669226	0.113450	1.286349
H243	H	1.128466	-0.403816	0.754132
H244	H	1.628466	0.096184	1.254132
H245	H	1.216462	-0.383851	0.756805
H246	H	1.716462	0.116149	1.256805
N247	N	0.500485	-0.219927	0.455500
N248	N	1.000485	0.280073	0.955500
H249	H	0.520682	-0.208131	0.505622
H250	H	1.020682	0.291869	1.005622
H251	H	0.517987	-0.188557	0.417506
H252	H	1.017987	0.311443	0.917506
N253	N	0.640601	-0.189391	0.316496
N254	N	1.140601	0.310609	0.816496
H255	H	0.623876	-0.176775	0.367633
H256	H	1.123876	0.323225	0.867633
H257	H	0.696339	-0.188639	0.314120
H258	H	1.196339	0.311361	0.814120
N259	N	0.641879	-0.269835	0.223103
N260	N	1.141879	0.230165	0.723103
H261	H	0.697614	-0.267642	0.222936
H262	H	1.197614	0.232358	0.722936
H263	H	0.625600	-0.313491	0.208608
H264	H	1.125600	0.186509	0.708608
N265	N	0.499133	-0.328065	0.494228
N266	N	0.999133	0.171935	0.994228
H267	H	0.465573	-0.360641	0.471484
H268	H	0.965573	0.139359	0.971484
H269	H	0.542228	-0.349610	0.518979
H270	H	1.042228	0.150390	1.018979
