data_functionalizedCrystal
_audit_creation_method	'MofGen! by Chris Wilmer'
_symmetry_space_group_name_H-M	'P1'
_symmetry_Int_Tables_number	1
_symmetry_cell_setting	triclinic
loop_
_symmetry_equiv_pos_as_xyz
  x,y,z
_cell_length_a	18.215407
_cell_length_b	19.805405
_cell_length_c	18.215399
_cell_angle_alpha	89.969390
_cell_angle_beta	89.980167
_cell_angle_gamma	90.026858
loop_
_atom_site_label
_atom_site_type_symbol
_atom_site_fract_x
_atom_site_fract_y
_atom_site_fract_z
Zn1	Zn	1.125064	-0.269462	-0.416102
Zn2	Zn	1.625064	0.230538	0.083898
Zn3	Zn	1.124969	-0.382653	-0.293030
Zn4	Zn	1.624969	0.117347	0.206970
Zn5	Zn	1.001997	-0.269484	-0.293050
Zn6	Zn	1.501997	0.230516	0.206950
Zn7	Zn	1.001959	-0.382615	-0.416055
Zn8	Zn	1.501959	0.117385	0.083945
O9	O	1.063497	-0.326054	-0.354559
O10	O	1.563497	0.173946	0.145441
O11	O	1.228036	-0.284484	-0.399788
O12	O	1.728036	0.215516	0.100212
O13	O	1.108633	-0.367666	-0.190049
O14	O	1.608633	0.132334	0.309951
O15	O	1.018377	-0.174765	-0.309401
O16	O	1.518377	0.325235	0.190599
O17	O	1.227966	-0.367644	-0.309368
O18	O	1.727966	0.132356	0.190632
O19	O	1.108794	-0.174748	-0.399807
O20	O	1.608794	0.325252	0.100193
O21	O	1.018285	-0.284521	-0.190063
O22	O	1.518285	0.215479	0.309937
O23	O	0.899008	-0.284485	-0.309355
O24	O	1.399008	0.215515	0.190645
O25	O	1.018313	-0.367580	-0.519046
O26	O	1.518313	0.132420	-0.019046
O27	O	0.898980	-0.367602	-0.399727
O28	O	1.398980	0.132398	0.100273
O29	O	1.108758	-0.284447	-0.519080
O30	O	1.608758	0.215553	-0.019080
O31	O	1.108596	-0.477365	-0.309322
O32	O	1.608596	0.022635	0.190678
O33	O	1.018221	-0.477337	-0.399708
O34	O	1.518221	0.022663	0.100292
C35	C	0.872291	-0.326042	-0.354538
C36	C	1.372291	0.173958	0.145462
C37	C	0.790492	-0.326053	-0.354547
C38	C	1.290492	0.173947	0.145453
C39	C	0.602303	-0.369400	-0.401544
C40	C	1.102303	0.130600	0.098456
C41	C	0.525444	-0.369403	-0.401553
C42	C	1.025444	0.130597	0.098447
C43	C	0.525444	-0.282719	-0.307591
C44	C	1.025444	0.217281	0.192409
C45	C	0.602301	-0.282714	-0.307586
C46	C	1.102301	0.217286	0.192414
C47	C	0.640729	-0.326059	-0.354561
C48	C	1.140729	0.173941	0.145439
C49	C	0.487013	-0.326066	-0.354575
C50	C	0.987013	0.173934	0.145425
C51	C	0.403679	-0.326068	-0.354585
C52	C	0.903679	0.173932	0.145415
C53	C	0.724068	-0.326056	-0.354553
C54	C	1.224068	0.173944	0.145447
C55	C	1.063415	-0.501910	-0.354524
C56	C	1.563415	-0.001910	0.145476
C57	C	1.063446	-0.577142	-0.354533
C58	C	1.563446	-0.077142	0.145467
C59	C	1.110550	-0.612478	-0.307518
C60	C	1.610550	-0.112478	0.192482
C61	C	1.110582	-0.683166	-0.307535
C62	C	1.610582	-0.183166	0.192465
C63	C	1.063505	-0.718517	-0.354562
C64	C	1.563505	-0.218517	0.145438
C65	C	1.016399	-0.683176	-0.401582
C66	C	1.516399	-0.183176	0.098418
C67	C	1.016372	-0.612489	-0.401569
C68	C	1.516372	-0.112489	0.098431
C69	C	1.016507	-0.968249	-0.401637
C70	C	1.516507	-0.468249	0.098363
C71	C	1.016536	-1.038941	-0.401645
C72	C	1.516536	-0.538941	0.098355
C73	C	1.110717	-1.038927	-0.307602
C74	C	1.610717	-0.538927	0.192398
C75	C	1.110690	-0.968239	-0.307589
C76	C	1.610690	-0.468239	0.192411
C77	C	1.063587	-0.932905	-0.354611
C78	C	1.563587	-0.432905	0.145389
C79	C	1.063555	-0.856256	-0.354594
C80	C	1.563555	-0.356256	0.145406
C81	C	1.063533	-0.795164	-0.354577
C82	C	1.563533	-0.295164	0.145423
C83	C	1.255450	-0.326066	-0.354581
C84	C	1.755450	0.173934	0.145419
C85	C	1.337249	-0.326071	-0.354590
C86	C	1.837249	0.173929	0.145410
C87	C	1.063542	-0.326007	-0.546512
C88	C	1.563542	0.173993	-0.046512
C89	C	1.063561	-0.325987	-0.628311
C90	C	1.563561	0.174013	-0.128311
C91	C	1.063601	-0.149511	-0.354611
C92	C	1.563601	0.350489	0.145389
C93	C	1.063645	-0.074279	-0.354633
C94	C	1.563645	0.425721	0.145367
C95	C	1.110673	-0.282659	-0.816524
C96	C	1.610673	0.217341	-0.316524
C97	C	1.110682	-0.282639	-0.893383
C98	C	1.610682	0.217361	-0.393383
C99	C	1.016502	-0.369210	-0.893336
C100	C	1.516502	0.130790	-0.393336
C101	C	1.016490	-0.369226	-0.816479
C102	C	1.516490	0.130774	-0.316479
C103	C	1.063580	-0.325952	-0.778075
C104	C	1.563580	0.174048	-0.278075
C105	C	1.063600	-0.325916	-0.931791
C106	C	1.563600	0.174084	-0.431791
C107	C	1.063609	-0.325895	-1.015125
C108	C	1.563609	0.174105	-0.515125
C109	C	1.063570	-0.325972	-0.694736
C110	C	1.563570	0.174028	-0.194736
C111	C	1.063495	-0.326051	-0.163353
C112	C	1.563495	0.173949	0.336647
C113	C	1.063619	-0.325880	-0.081555
C114	C	1.563619	0.174120	0.418445
H115	H	0.633588	-0.247416	-0.269327
H116	H	1.133588	0.252584	0.230673
H117	H	1.148938	-0.711934	-0.269250
H118	H	1.648938	-0.211934	0.230750
C119	C	1.161689	-0.235550	-0.935165
C120	C	1.661689	0.264450	-0.435165
C121	C	1.120048	-0.192141	-0.979275
C122	C	1.620048	0.307859	-0.479275
C123	C	1.167011	-0.148743	-1.017766
C124	C	1.667011	0.351257	-0.517766
H125	H	1.193761	-0.261353	-0.965208
H126	H	1.693761	0.238647	-0.465208
H127	H	1.189715	-0.209741	-0.901304
H128	H	1.689715	0.290259	-0.401304
H129	H	1.092035	-0.217947	-1.013132
H130	H	1.592035	0.282053	-0.513132
H131	H	1.087979	-0.166323	-0.949250
H132	H	1.587979	0.333677	-0.449250
H133	H	1.195036	-0.122935	-0.983905
H134	H	1.695036	0.377065	-0.483905
H135	H	1.199080	-0.174552	-1.047805
H136	H	1.699080	0.325448	-0.547805
H137	H	1.138764	-0.119281	-1.047694
H138	H	1.638764	0.380719	-0.547694
C139	C	0.965353	-0.574084	-0.452704
C140	C	1.465353	-0.074084	0.047296
C141	C	1.006985	-0.533456	-0.499915
C142	C	1.506985	-0.033456	0.000085
C143	C	0.960015	-0.498074	-0.547041
C144	C	1.460015	0.001926	-0.047041
H145	H	0.933279	-0.546494	-0.424605
H146	H	1.433279	-0.046494	0.075395
H147	H	0.937330	-0.605237	-0.480758
H148	H	1.437330	-0.105237	0.019242
H149	H	1.034995	-0.502306	-0.471864
H150	H	1.534995	-0.002306	0.028136
H151	H	1.039057	-0.561029	-0.528031
H152	H	1.539057	-0.061029	-0.028031
H153	H	0.931992	-0.529228	-0.575095
H154	H	1.431992	-0.029228	-0.075095
H155	H	0.927943	-0.470488	-0.518936
H156	H	1.427943	0.029512	-0.018936
H157	H	0.988255	-0.470509	-0.579084
H158	H	1.488255	0.029491	-0.079084
H159	H	0.494162	-0.404695	-0.439812
H160	H	0.994162	0.095305	0.060188
C161	C	1.161819	-0.235597	-0.774961
C162	C	1.661819	0.264403	-0.274961
C163	C	1.203048	-0.197667	-0.825088
C164	C	1.703048	0.302333	-0.325088
C165	C	1.250164	-0.154297	-0.786829
C166	C	1.750164	0.345703	-0.286829
H167	H	1.193933	-0.261419	-0.744973
H168	H	1.693933	0.238581	-0.244973
H169	H	1.133693	-0.206076	-0.745000
H170	H	1.633693	0.293924	-0.245000
H171	H	1.231171	-0.227184	-0.855037
H172	H	1.731171	0.272816	-0.355037
H173	H	1.170953	-0.171832	-0.855077
H174	H	1.670953	0.328168	-0.355077
H175	H	1.222038	-0.124776	-0.756868
H176	H	1.722038	0.375224	-0.256868
H177	H	1.282273	-0.180124	-0.756843
H178	H	1.782273	0.319876	-0.256843
H179	H	1.278138	-0.128552	-0.820834
H180	H	1.778138	0.371448	-0.320834
H181	H	0.494146	-0.247431	-0.269344
H182	H	0.994146	0.252569	0.230656
C183	C	0.965463	-0.416170	-0.935166
C184	C	1.465463	0.083830	-0.435166
C185	C	0.975566	-0.406905	-1.010705
C186	C	1.475566	0.093095	-0.510705
C187	C	0.928569	-0.450161	-1.049259
C188	C	1.428569	0.049839	-0.549259
H189	H	0.915989	-0.406309	-0.922654
H190	H	1.415989	0.093691	-0.422654
H191	H	0.976214	-0.461665	-0.922598
H192	H	1.476214	0.038335	-0.422598
H193	H	0.964810	-0.361421	-1.023267
H194	H	1.464810	0.138579	-0.523267
H195	H	1.025030	-0.416772	-1.023239
H196	H	1.525030	0.083228	-0.523239
H197	H	0.939320	-0.495656	-1.036692
H198	H	1.439320	0.004344	-0.536692
H199	H	0.879098	-0.440296	-1.036741
H200	H	1.379098	0.059704	-0.536741
H201	H	0.935422	-0.443885	-1.100516
H202	H	1.435422	0.056115	-0.600516
H203	H	1.148883	-0.583700	-0.269220
H204	H	1.648883	-0.083700	0.230780
C205	C	1.161681	-0.929824	-0.256439
C206	C	1.661681	-0.429824	0.243561
C207	C	1.120023	-0.889317	-0.209210
C208	C	1.620023	-0.389317	0.290790
C209	C	1.166973	-0.853928	-0.162075
C210	C	1.666973	-0.353928	0.337925
H211	H	1.193733	-0.902151	-0.284531
H212	H	1.693733	-0.402151	0.215469
H213	H	1.189727	-0.960973	-0.228398
H214	H	1.689727	-0.460973	0.271602
H215	H	1.091989	-0.858172	-0.237248
H216	H	1.591989	-0.358172	0.262752
H217	H	1.087973	-0.916973	-0.181102
H218	H	1.587973	-0.416973	0.318898
H219	H	1.195019	-0.885077	-0.134035
H220	H	1.695019	-0.385077	0.365965
H221	H	1.199023	-0.826259	-0.190173
H222	H	1.699023	-0.326259	0.309827
H223	H	1.138715	-0.826445	-0.130021
H224	H	1.638715	-0.326445	0.369979
C225	C	1.161852	-1.077413	-0.256648
C226	C	1.661852	-0.577413	0.243352
C227	C	1.151826	-1.146885	-0.266743
C228	C	1.651826	-0.646885	0.233257
C229	C	1.198929	-1.182358	-0.219830
C230	C	1.698929	-0.682358	0.280170
H231	H	1.151164	-1.065958	-0.207155
H232	H	1.651164	-0.565958	0.292845
H233	H	1.211299	-1.065814	-0.267482
H234	H	1.711299	-0.565814	0.232518
H235	H	1.102391	-1.158480	-0.255905
H236	H	1.602391	-0.658480	0.244095
H237	H	1.162520	-1.158360	-0.316227
H238	H	1.662520	-0.658360	0.183773
H239	H	1.248376	-1.170758	-0.230664
H240	H	1.748376	-0.670758	0.269336
H241	H	1.188237	-1.170896	-0.170340
H242	H	1.688237	-0.670896	0.329660
H243	H	1.192137	-1.229497	-0.226678
H244	H	1.692137	-0.729497	0.273322
C245	C	0.965330	-0.416308	-0.774860
C246	C	1.465330	0.083692	-0.274860
C247	C	0.924112	-0.454220	-0.824941
C248	C	1.424112	0.045780	-0.324941
C249	C	0.876985	-0.497601	-0.786628
C250	C	1.376985	0.002399	-0.286628
H251	H	0.933210	-0.390496	-0.744878
H252	H	1.433210	0.109504	-0.244878
H253	H	0.993447	-0.445841	-0.744889
H254	H	1.493447	0.054159	-0.244889
H255	H	0.895998	-0.424690	-0.854899
H256	H	1.395998	0.075310	-0.354899
H257	H	0.956213	-0.480046	-0.854924
H258	H	1.456213	0.019954	-0.354924
H259	H	0.905102	-0.527134	-0.756657
H260	H	1.405102	-0.027134	-0.256657
H261	H	0.844870	-0.471783	-0.756647
H262	H	1.344870	0.028217	-0.256647
H263	H	0.849018	-0.523333	-0.820602
H264	H	1.349018	-0.023333	-0.320602
H265	H	0.633589	-0.404693	-0.439797
H266	H	1.133589	0.095307	0.060203
H267	H	0.978202	-1.067722	-0.439946
H268	H	1.478202	-0.567722	0.060054
H269	H	0.978153	-0.939485	-0.439923
H270	H	1.478153	-0.439485	0.060077
C271	C	0.965313	-0.721677	-0.452562
C272	C	1.465313	-0.221677	0.047438
C273	C	0.975402	-0.791146	-0.442496
C274	C	1.475402	-0.291146	0.057504
C275	C	0.928344	-0.826632	-0.489437
C276	C	1.428344	-0.326632	0.010563
H277	H	0.976003	-0.710136	-0.502047
H278	H	1.476003	-0.210136	-0.002047
H279	H	0.915853	-0.710174	-0.441735
H280	H	1.415853	-0.210174	0.058265
H281	H	1.024851	-0.802644	-0.453328
H282	H	1.524851	-0.302644	0.046672
H283	H	0.964706	-0.802707	-0.393021
H284	H	1.464706	-0.302707	0.106979
H285	H	0.878884	-0.815129	-0.478611
H286	H	1.378884	-0.315129	0.021389
H287	H	0.939038	-0.815085	-0.538920
H288	H	1.439038	-0.315085	-0.038920
H289	H	0.935178	-0.873770	-0.482610
H290	H	1.435178	-0.373770	0.017390
