data_functionalizedCrystal
_audit_creation_method	'MofGen! by Chris Wilmer'
_symmetry_space_group_name_H-M	'P1'
_symmetry_Int_Tables_number	1
_symmetry_cell_setting	triclinic
loop_
_symmetry_equiv_pos_as_xyz
  x,y,z
_cell_length_a	14.853566
_cell_length_b	15.712078
_cell_length_c	13.330367
_cell_angle_alpha	89.998477
_cell_angle_beta	89.995295
_cell_angle_gamma	101.607781
loop_
_atom_site_label
_atom_site_type_symbol
_atom_site_fract_x
_atom_site_fract_y
_atom_site_fract_z
O1	O	1.233446	0.112890	-0.083354
O2	O	0.975404	0.126340	-0.083370
O3	O	1.070096	-0.006254	-0.083359
O4	O	1.138753	0.245484	-0.083365
O5	O	1.070075	-0.006257	0.083488
O6	O	0.975383	0.126337	0.083477
O7	O	1.233425	0.112887	0.083494
Cu8	Cu	1.104402	0.119612	0.098720
Cu9	Cu	1.104427	0.119615	-0.098596
O10	O	1.138732	0.245481	0.083483
C11	C	0.941604	0.125729	0.000052
C12	C	0.840921	0.123903	0.000046
C13	C	0.415212	0.116183	-0.090885
C14	C	0.415210	0.116181	0.091018
C15	C	0.509807	0.117895	0.091015
C16	C	0.557111	0.118755	0.000061
C17	C	0.509818	0.117900	-0.090891
C18	C	0.557109	0.118758	0.181965
C19	C	0.651712	0.120474	0.181965
C20	C	0.699017	0.121327	0.091010
C21	C	0.651717	0.120472	0.000055
C22	C	0.699021	0.121332	-0.090900
C23	C	0.651723	0.120470	-0.181856
C24	C	0.557122	0.118754	-0.181847
C25	C	0.793617	0.123044	0.091000
C26	C	0.793628	0.123049	-0.090906
C27	C	1.058870	-0.038472	0.000063
C28	C	1.025438	-0.134467	0.000059
C29	C	1.309280	-0.501224	0.000067
C30	C	1.277845	-0.591423	0.000065
C31	C	1.120333	-0.570996	0.000055
C32	C	1.151755	-0.480793	0.000061
C33	C	1.246229	-0.445914	0.000066
C34	C	1.088704	-0.425483	0.000061
C35	C	1.120124	-0.335288	0.000062
C36	C	1.214594	-0.300403	0.000064
C37	C	1.277649	-0.355719	0.000067
C38	C	0.994231	-0.460363	0.000049
C39	C	0.931180	-0.405054	0.000048
C40	C	0.962599	-0.314857	0.000056
C41	C	1.057069	-0.279972	0.000058
C42	C	0.899544	-0.259540	0.000053
C43	C	0.930964	-0.169345	0.000054
C44	C	1.088489	-0.189777	0.000059
C45	C	1.267224	0.113498	0.000070
C46	C	1.367908	0.115323	0.000070
C47	C	1.149959	0.277699	0.000058
C48	C	1.183390	0.373694	0.000056
N49	N	1.104391	0.119609	0.237501
N50	N	1.104443	0.119611	-0.237378
C51	C	1.062487	0.178305	0.710120
C52	C	1.146389	0.060919	0.710097
C53	C	1.146378	0.060916	0.605079
C54	C	1.104422	0.119610	0.552576
C55	C	1.062477	0.178305	0.605091
C56	C	1.188330	0.002227	0.552556
C57	C	1.188322	0.002223	0.447531
C58	C	1.146359	0.060913	0.395026
C59	C	1.104412	0.119610	0.447548
C60	C	1.062456	0.178304	0.395045
C61	C	1.020502	0.236998	0.447565
C62	C	1.020514	0.236995	0.552587
C63	C	1.146347	0.060915	0.290004
C64	C	1.062446	0.178305	0.290017
H65	H	0.832125	0.123754	0.165055
C66	C	0.505102	0.117833	-0.281889
H67	H	0.546821	0.118589	-0.336061
H68	H	0.477947	0.167556	-0.285652
H69	H	0.458451	0.066779	-0.285678
H70	H	0.690251	0.121176	-0.255911
H71	H	1.222482	-0.045569	0.404776
H72	H	1.240174	-0.226960	0.000065
H73	H	0.376691	0.115486	0.165069
C74	C	0.363190	0.115239	-0.190929
H75	H	0.300074	0.114098	-0.177904
H76	H	0.368960	0.065138	-0.228301
H77	H	0.388434	0.165915	-0.228297
C78	C	1.381569	-0.317343	0.000079
H79	H	1.391246	-0.255705	0.000086
H80	H	1.408795	-0.336318	-0.058099
H81	H	1.408770	-0.336321	0.058275
H82	H	0.518589	0.118064	0.256015
C83	C	0.861612	-0.108502	0.000055
H84	H	0.800847	-0.142192	0.000061
H85	H	0.870602	-0.072890	-0.058128
H86	H	0.870590	-0.072895	0.058246
H87	H	1.386210	-0.472824	0.000081
H88	H	1.028275	0.226097	0.247275
C89	C	0.974354	0.301558	0.389805
H90	H	0.980358	0.293146	0.319737
H91	H	1.003173	0.359287	0.407011
H92	H	0.911053	0.292053	0.407020
C93	C	0.703731	0.121414	0.282011
H94	H	0.662008	0.120650	0.336179
H95	H	0.750378	0.172465	0.285791
H96	H	0.730889	0.071688	0.285789
C97	C	0.974381	0.301558	0.610359
H98	H	0.980407	0.293158	0.680426
H99	H	0.911082	0.292067	0.593169
H100	H	1.003211	0.359289	0.593139
C101	C	1.347208	-0.652262	0.000068
H102	H	1.407970	-0.618568	0.000077
H103	H	1.338231	-0.687870	-0.058115
H104	H	1.338220	-0.687873	0.058259
H105	H	1.165419	-0.161377	0.000074
C106	C	1.016344	0.242866	0.767885
H107	H	1.022361	0.234465	0.837952
H108	H	0.953048	0.233371	0.750682
H109	H	1.045174	0.300597	0.750667
H110	H	1.043412	-0.599406	0.000047
C111	C	0.959664	-0.559575	0.000048
H112	H	0.894370	-0.572426	0.000032
H113	H	0.981633	-0.583755	0.058235
H114	H	0.981654	-0.583750	-0.058139
C115	C	1.192537	-0.003637	0.767847
H116	H	1.186532	0.004766	0.837916
H117	H	1.255831	0.005855	0.750621
H118	H	1.163703	-0.061369	0.750645
C119	C	0.827265	-0.443425	0.000049
H120	H	0.817581	-0.505064	0.000055
H121	H	0.800053	-0.424443	-0.058131
H122	H	0.800054	-0.424450	0.058243
C123	C	0.795630	-0.297914	0.000043
H124	H	0.785949	-0.359553	0.000045
H125	H	0.768424	-0.278930	-0.058139
H126	H	0.768411	-0.278943	0.058235
H127	H	1.222496	-0.045555	0.595307
H128	H	1.180510	0.013131	0.247247
H129	H	0.832135	0.123746	-0.164973
