data_functionalizedCrystal
_audit_creation_method	'MofGen! by Chris Wilmer'
_symmetry_space_group_name_H-M	'P1'
_symmetry_Int_Tables_number	1
_symmetry_cell_setting	triclinic
loop_
_symmetry_equiv_pos_as_xyz
  x,y,z
_cell_length_a	18.215407
_cell_length_b	18.050589
_cell_length_c	18.215399
_cell_angle_alpha	89.976397
_cell_angle_beta	89.980167
_cell_angle_gamma	90.028669
loop_
_atom_site_label
_atom_site_type_symbol
_atom_site_fract_x
_atom_site_fract_y
_atom_site_fract_z
Zn1	Zn	1.125055	-0.295658	-0.416138
Zn2	Zn	1.458388	0.037675	-0.082805
Zn3	Zn	1.791722	0.371008	0.250529
Zn4	Zn	1.124956	-0.419853	-0.293081
Zn5	Zn	1.458289	-0.086520	0.040252
Zn6	Zn	1.791623	0.246813	0.373586
Zn7	Zn	1.001987	-0.295682	-0.293085
Zn8	Zn	1.335321	0.037651	0.040248
Zn9	Zn	1.668654	0.370984	0.373581
Zn10	Zn	1.001946	-0.419812	-0.416106
Zn11	Zn	1.335280	-0.086479	-0.082773
Zn12	Zn	1.668613	0.246855	0.250561
O13	O	1.063486	-0.357751	-0.354603
O14	O	1.396820	-0.024418	-0.021269
O15	O	1.730153	0.308915	0.312064
O16	O	1.228026	-0.312140	-0.399826
O17	O	1.561359	0.021193	-0.066493
O18	O	1.894693	0.354527	0.266841
O19	O	1.108620	-0.403409	-0.190097
O20	O	1.441953	-0.070076	0.143236
O21	O	1.775287	0.263258	0.476569
O22	O	1.018371	-0.191755	-0.309424
O23	O	1.351705	0.141579	0.023909
O24	O	1.685038	0.474912	0.357243
O25	O	1.227953	-0.403386	-0.309417
O26	O	1.561287	-0.070052	0.023917
O27	O	1.894620	0.263281	0.357250
O28	O	1.108788	-0.191737	-0.399830
O29	O	1.442122	0.141597	-0.066497
O30	O	1.775455	0.474930	0.266837
O31	O	1.018275	-0.312181	-0.190101
O32	O	1.351609	0.021152	0.143233
O33	O	1.684942	0.354485	0.476566
O34	O	0.898998	-0.312141	-0.309393
O35	O	1.232331	0.021192	0.023941
O36	O	1.565664	0.354525	0.357274
O37	O	1.018301	-0.403315	-0.519095
O38	O	1.351634	-0.069982	-0.185761
O39	O	1.684968	0.263352	0.147572
O40	O	0.898967	-0.403339	-0.399775
O41	O	1.232301	-0.070005	-0.066442
O42	O	1.565634	0.263328	0.266891
O43	O	1.108748	-0.312100	-0.519118
O44	O	1.442082	0.021233	-0.185785
O45	O	1.775415	0.354567	0.147549
O46	O	1.108580	-0.523772	-0.309385
O47	O	1.441913	-0.190439	0.023948
O48	O	1.775247	0.142894	0.357281
O49	O	1.018205	-0.523742	-0.399771
O50	O	1.351538	-0.190409	-0.066438
O51	O	1.684872	0.142925	0.266895
C52	C	0.872280	-0.357739	-0.354582
C53	C	1.205613	-0.024405	-0.021248
C54	C	1.538947	0.308928	0.312085
C55	C	0.790481	-0.357751	-0.354590
C56	C	1.123814	-0.024418	-0.021257
C57	C	1.457148	0.308915	0.312077
C58	C	1.063397	-0.550704	-0.354590
C59	C	1.396731	-0.217370	-0.021257
C60	C	1.730064	0.115963	0.312076
C61	C	1.063427	-0.633249	-0.354610
C62	C	1.396760	-0.299916	-0.021277
C63	C	1.730093	0.033417	0.312057
C64	C	0.602291	-0.405312	-0.401593
C65	C	0.935624	-0.071979	-0.068260
C66	C	1.268957	0.261354	0.265073
C67	C	0.525432	-0.405315	-0.401602
C68	C	0.858765	-0.071981	-0.068269
C69	C	1.192098	0.261352	0.265064
C70	C	0.525434	-0.310204	-0.307628
C71	C	0.858767	0.023129	0.025705
C72	C	1.192100	0.356463	0.359038
C73	C	0.602291	-0.310199	-0.307623
C74	C	0.935624	0.023135	0.025710
C75	C	1.268958	0.356468	0.359043
C76	C	0.640718	-0.357757	-0.354605
C77	C	0.974051	-0.024424	-0.021271
C78	C	1.307384	0.308910	0.312062
C79	C	0.487001	-0.357765	-0.354619
C80	C	0.820335	-0.024431	-0.021285
C81	C	1.153668	0.308902	0.312048
C82	C	0.403668	-0.357767	-0.354628
C83	C	0.737001	-0.024434	-0.021295
C84	C	1.070334	0.308900	0.312038
C85	C	0.724056	-0.357754	-0.354596
C86	C	1.057390	-0.024421	-0.021263
C87	C	1.390723	0.308913	0.312070
C88	C	1.014329	-0.832710	-0.403744
C89	C	1.347662	-0.499377	-0.070411
C90	C	1.680996	-0.166044	0.262922
C91	C	0.996389	-0.882151	-0.336590
C92	C	1.329723	-0.548818	-0.003257
C93	C	1.663056	-0.215484	0.330076
C94	C	1.063499	-0.784380	-0.354619
C95	C	1.396832	-0.451046	-0.021286
C96	C	1.730166	-0.117713	0.312047
C97	C	1.081475	-0.882021	-0.421781
C98	C	1.414808	-0.548688	-0.088448
C99	C	1.748141	-0.215354	0.244885
C100	C	1.063567	-0.930365	-0.354635
C101	C	1.396901	-0.597031	-0.021301
C102	C	1.730234	-0.263698	0.312032
C103	C	1.045524	-0.832733	-0.287430
C104	C	1.378857	-0.499400	0.045904
C105	C	1.712191	-0.166066	0.379237
C106	C	1.130641	-0.832599	-0.372666
C107	C	1.463974	-0.499265	-0.039333
C108	C	1.797307	-0.165932	0.294001
C109	C	1.112726	-0.882017	-0.305466
C110	C	1.446060	-0.548683	0.027868
C111	C	1.779393	-0.215350	0.361201
C112	C	1.063458	-0.700281	-0.354612
C113	C	1.396791	-0.366948	-0.021278
C114	C	1.730124	-0.033615	0.312055
C115	C	1.063609	-1.014461	-0.354635
C116	C	1.396942	-0.681128	-0.021301
C117	C	1.730276	-0.347795	0.312032
C118	C	1.255439	-0.357765	-0.354624
C119	C	1.588772	-0.024431	-0.021291
C120	C	1.922106	0.308902	0.312042
C121	C	1.337238	-0.357770	-0.354634
C122	C	1.670571	-0.024437	-0.021300
C123	C	2.003905	0.308896	0.312033
C124	C	1.063531	-0.357700	-0.546556
C125	C	1.396864	-0.024367	-0.213222
C126	C	1.730198	0.308966	0.120111
C127	C	1.063550	-0.357678	-0.628355
C128	C	1.396883	-0.024345	-0.295021
C129	C	1.730217	0.308988	0.038312
C130	C	1.063595	-0.164046	-0.354631
C131	C	1.396929	0.169288	-0.021298
C132	C	1.730262	0.502621	0.312036
C133	C	1.063642	-0.081500	-0.354643
C134	C	1.396975	0.251833	-0.021310
C135	C	1.730309	0.585167	0.312024
C136	C	1.110663	-0.310138	-0.816562
C137	C	1.443996	0.023195	-0.483229
C138	C	1.777330	0.356528	-0.149895
C139	C	1.110672	-0.310117	-0.893421
C140	C	1.444005	0.023217	-0.560088
C141	C	1.777338	0.356550	-0.226754
C142	C	1.016489	-0.405104	-0.893385
C143	C	1.349823	-0.071770	-0.560052
C144	C	1.683156	0.261563	-0.226718
C145	C	1.016477	-0.405121	-0.816528
C146	C	1.349811	-0.071788	-0.483194
C147	C	1.683144	0.261546	-0.149861
C148	C	1.063568	-0.357639	-0.778118
C149	C	1.396902	-0.024306	-0.444785
C150	C	1.730235	0.309027	-0.111452
C151	C	1.063589	-0.357600	-0.931834
C152	C	1.396922	-0.024267	-0.598501
C153	C	1.730256	0.309066	-0.265168
C154	C	1.063598	-0.357577	-1.015168
C155	C	1.396932	-0.024244	-0.681835
C156	C	1.730265	0.309089	-0.348501
C157	C	1.063558	-0.357661	-0.694779
C158	C	1.396892	-0.024328	-0.361446
C159	C	1.730225	0.309005	-0.028113
C160	C	1.063484	-0.357749	-0.163396
C161	C	1.396817	-0.024416	0.169937
C162	C	1.730151	0.308918	0.503270
C163	C	1.063607	-0.357561	-0.081598
C164	C	1.396941	-0.024228	0.251735
C165	C	1.730274	0.309105	0.585069
H166	H	0.633575	-0.444035	-0.439850
H167	H	0.966908	-0.110702	-0.106517
H168	H	1.300242	0.222631	0.226816
C169	C	1.168898	-0.988638	-0.250215
C170	C	1.502232	-0.655304	0.083119
C171	C	1.835565	-0.321971	0.416452
C172	C	1.168898	-0.911070	-0.249332
C173	C	1.502231	-0.577737	0.084001
C174	C	1.835564	-0.244404	0.417335
H175	H	1.203577	-1.006574	-0.215561
H176	H	1.536910	-0.673241	0.117772
H177	H	1.870243	-0.339907	0.451105
H178	H	1.121375	-1.006347	-0.237806
H179	H	1.454709	-0.673014	0.095528
H180	H	1.788042	-0.339681	0.428861
H181	H	1.181756	-1.005596	-0.297875
H182	H	1.515090	-0.672263	0.035458
H183	H	1.848423	-0.338929	0.368792
H184	H	1.156034	-0.894112	-0.201673
H185	H	1.489368	-0.560778	0.131661
H186	H	1.822701	-0.227445	0.464994
H187	H	1.216431	-0.893353	-0.261737
H188	H	1.549764	-0.560020	0.071597
H189	H	1.883098	-0.226687	0.404930
H190	H	1.149020	-0.271435	-0.924718
H191	H	1.482353	0.061898	-0.591385
H192	H	1.815686	0.395231	-0.258052
H193	H	0.978151	-0.443763	-0.924667
H194	H	1.311484	-0.110430	-0.591334
H195	H	1.644818	0.222904	-0.258001
C196	C	1.225909	-0.828020	-0.463678
C197	C	1.559242	-0.494687	-0.130344
C198	C	1.892575	-0.161353	0.202989
C199	C	1.207228	-0.803186	-0.393296
C200	C	1.540561	-0.469853	-0.059962
C201	C	1.873895	-0.136520	0.273371
H202	H	1.273189	-0.809856	-0.476420
H203	H	1.606522	-0.476523	-0.143086
H204	H	1.939855	-0.143190	0.190247
H205	H	1.226383	-0.880634	-0.464272
H206	H	1.559716	-0.547300	-0.130939
H207	H	1.893050	-0.213967	0.202395
H208	H	1.190828	-0.810400	-0.498075
H209	H	1.524161	-0.477066	-0.164742
H210	H	1.857494	-0.143733	0.168592
H211	H	1.242306	-0.820811	-0.358897
H212	H	1.575640	-0.487478	-0.025564
H213	H	1.908973	-0.154145	0.307769
H214	H	1.206759	-0.750562	-0.392696
H215	H	1.540092	-0.417228	-0.059362
H216	H	1.873426	-0.083895	0.273971
H217	H	1.096652	-0.903671	-0.478573
H218	H	1.429985	-0.570338	-0.145240
H219	H	1.763318	-0.237005	0.188093
H220	H	0.494138	-0.271485	-0.269377
H221	H	0.827471	0.061848	0.063957
H222	H	1.160804	0.395182	0.397290
C223	C	0.533155	-0.499333	-0.494482
C224	C	0.866488	-0.165999	-0.161149
C225	C	1.199822	0.167334	0.172184
C226	C	0.483193	-0.457592	-0.453251
C227	C	0.816526	-0.124259	-0.119917
C228	C	1.149860	0.209074	0.213416
H229	H	0.507077	-0.531610	-0.526366
H230	H	0.840410	-0.198277	-0.193032
H231	H	1.173744	0.135056	0.140301
H232	H	0.563157	-0.467011	-0.522683
H233	H	0.896490	-0.133678	-0.189350
H234	H	1.229824	0.199656	0.143984
H235	H	0.563107	-0.527694	-0.462359
H236	H	0.896440	-0.194361	-0.129025
H237	H	1.229773	0.138973	0.204308
H238	H	0.453245	-0.429227	-0.485374
H239	H	0.786578	-0.095893	-0.152041
H240	H	1.119911	0.237440	0.181292
H241	H	0.453178	-0.489918	-0.425048
H242	H	0.786512	-0.156585	-0.091714
H243	H	1.119845	0.176748	0.241619
C244	C	0.923386	-0.499021	-0.824206
C245	C	1.256719	-0.165688	-0.490873
C246	C	1.590053	0.167645	-0.157540
C247	C	0.964710	-0.457342	-0.774264
C248	C	1.298043	-0.124008	-0.440931
C249	C	1.631376	0.209325	-0.107598
H250	H	0.891432	-0.531260	-0.798113
H251	H	1.224765	-0.197927	-0.464779
H252	H	1.558098	0.135407	-0.131446
H253	H	0.895257	-0.466659	-0.854182
H254	H	1.228590	-0.133326	-0.520849
H255	H	1.561923	0.200008	-0.187515
H256	H	0.955447	-0.527422	-0.854186
H257	H	1.288781	-0.194089	-0.520853
H258	H	1.622114	0.139245	-0.187519
H259	H	0.932649	-0.428937	-0.744288
H260	H	1.265982	-0.095604	-0.410955
H261	H	1.599315	0.237730	-0.077621
H262	H	0.992841	-0.489708	-0.744276
H263	H	1.326175	-0.156375	-0.410942
H264	H	1.659508	0.176958	-0.077609
C265	C	0.594579	-0.216188	-0.214724
C266	C	0.927913	0.117145	0.118609
C267	C	1.261246	0.450478	0.451943
C268	C	0.644536	-0.257924	-0.255967
C269	C	0.977869	0.075410	0.077366
C270	C	1.311203	0.408743	0.410700
H271	H	0.620661	-0.183921	-0.182834
H272	H	0.953995	0.149413	0.150499
H273	H	1.287328	0.482746	0.483833
H274	H	0.564629	-0.187823	-0.246835
H275	H	0.897962	0.145510	0.086498
H276	H	1.231296	0.478843	0.419832
H277	H	0.564575	-0.248519	-0.186523
H278	H	0.897909	0.084814	0.146810
H279	H	1.231242	0.418147	0.480144
H280	H	0.674537	-0.225593	-0.284172
H281	H	1.007870	0.107740	0.049161
H282	H	1.341203	0.441074	0.382494
H283	H	0.674499	-0.286291	-0.223852
H284	H	1.007832	0.047042	0.109481
H285	H	1.341166	0.380376	0.442815
C286	C	0.887877	-0.828493	-0.440673
C287	C	1.221211	-0.495159	-0.107339
C288	C	1.554544	-0.161826	0.225994
C289	C	0.958118	-0.803474	-0.459746
C290	C	1.291451	-0.470140	-0.126413
C291	C	1.624785	-0.136807	0.206921
H292	H	0.853175	-0.810438	-0.475241
H293	H	1.186509	-0.477105	-0.141908
H294	H	1.519842	-0.143771	0.191425
H295	H	0.887209	-0.881109	-0.440756
H296	H	1.220543	-0.547775	-0.107422
H297	H	1.553876	-0.214442	0.225911
H298	H	0.875607	-0.810888	-0.393088
H299	H	1.208941	-0.477554	-0.059755
H300	H	1.542274	-0.144221	0.273579
H301	H	0.970390	-0.821084	-0.507329
H302	H	1.303724	-0.487750	-0.173995
H303	H	1.637057	-0.154417	0.159338
H304	H	0.958788	-0.750847	-0.459671
H305	H	1.292121	-0.417514	-0.126337
H306	H	1.625454	-0.084180	0.206996
H307	H	0.939642	-0.903933	-0.321340
H308	H	1.272975	-0.570600	0.011993
H309	H	1.606309	-0.237266	0.345326
H310	H	1.030282	-0.811172	-0.230622
H311	H	1.363615	-0.477839	0.102711
H312	H	1.696948	-0.144505	0.436045
C313	C	1.203752	-0.216239	-0.824320
C314	C	1.537085	0.117094	-0.490987
C315	C	1.870418	0.450427	-0.157653
C316	C	1.162417	-0.257940	-0.774342
C317	C	1.495750	0.075394	-0.441008
C318	C	1.829084	0.408727	-0.107675
H319	H	1.235698	-0.184009	-0.798255
H320	H	1.569031	0.149324	-0.464922
H321	H	1.902365	0.482657	-0.131588
H322	H	1.231890	-0.248589	-0.854294
H323	H	1.565223	0.084744	-0.520961
H324	H	1.898557	0.418078	-0.187627
H325	H	1.171697	-0.187829	-0.854298
H326	H	1.505030	0.145505	-0.520965
H327	H	1.838364	0.478838	-0.187632
H328	H	1.194472	-0.286355	-0.744367
H329	H	1.527805	0.046979	-0.411033
H330	H	1.861139	0.380312	-0.077700
H331	H	1.134277	-0.225586	-0.744355
H332	H	1.467610	0.107747	-0.411022
H333	H	1.800943	0.441081	-0.077688
