data_functionalizedCrystal
_audit_creation_method	'MofGen! by Chris Wilmer'
_symmetry_space_group_name_H-M	'P1'
_symmetry_Int_Tables_number	1
_symmetry_cell_setting	triclinic
loop_
_symmetry_equiv_pos_as_xyz
  x,y,z
_cell_length_a	12.827893
_cell_length_b	12.594516
_cell_length_c	12.827885
_cell_angle_alpha	89.971946
_cell_angle_beta	89.980728
_cell_angle_gamma	90.016023
loop_
_atom_site_label
_atom_site_type_symbol
_atom_site_fract_x
_atom_site_fract_y
_atom_site_fract_z
Zn1	Zn	1.597665	-0.423691	-0.590861
Zn2	Zn	1.930998	-0.090358	-0.257528
Zn3	Zn	2.264331	0.242975	0.075805
Zn4	Zn	1.597557	-0.601707	-0.416127
Zn5	Zn	1.930890	-0.268374	-0.082793
Zn6	Zn	2.264224	0.064959	0.250540
Zn7	Zn	1.422906	-0.423743	-0.416135
Zn8	Zn	1.756240	-0.090410	-0.082802
Zn9	Zn	2.089573	0.242923	0.250532
Zn10	Zn	1.422889	-0.601628	-0.590827
Zn11	Zn	1.756223	-0.268295	-0.257493
Zn12	Zn	2.089556	0.065038	0.075840
O13	O	1.510254	-0.512693	-0.503487
O14	O	1.843588	-0.179359	-0.170154
O15	O	2.176921	0.153974	0.163179
O16	O	1.743887	-0.447317	-0.567693
O17	O	2.077220	-0.113984	-0.234360
O18	O	2.410553	0.219350	0.098973
O19	O	1.574351	-0.578155	-0.269892
O20	O	1.907684	-0.244822	0.063442
O21	O	2.241018	0.088512	0.396775
O22	O	1.446140	-0.274791	-0.439330
O23	O	1.779474	0.058543	-0.105997
O24	O	2.112807	0.391876	0.227336
O25	O	1.743807	-0.578105	-0.439317
O26	O	2.077141	-0.244771	-0.105983
O27	O	2.410474	0.088562	0.227350
O28	O	1.574535	-0.274752	-0.567701
O29	O	1.907868	0.058581	-0.234368
O30	O	2.241202	0.391914	0.098965
O31	O	1.446036	-0.447405	-0.269898
O32	O	1.779369	-0.114072	0.063436
O33	O	2.112702	0.219261	0.396769
O34	O	1.276668	-0.447329	-0.439297
O35	O	1.610001	-0.113995	-0.105964
O36	O	1.943335	0.219338	0.227370
O37	O	1.446112	-0.577970	-0.737067
O38	O	1.779445	-0.244636	-0.403734
O39	O	2.112779	0.088697	-0.070401
O40	O	1.276656	-0.578020	-0.567642
O41	O	1.609989	-0.244687	-0.234309
O42	O	1.943322	0.088647	0.099024
O43	O	1.574519	-0.447240	-0.737093
O44	O	1.907852	-0.113907	-0.403759
O45	O	2.241185	0.219426	-0.070426
O46	O	1.574335	-0.750643	-0.439283
O47	O	1.907668	-0.417309	-0.105950
O48	O	2.241001	-0.083976	0.227383
O49	O	1.446007	-0.750584	-0.567635
O50	O	1.779341	-0.417251	-0.234301
O51	O	2.112674	-0.083918	0.099032
C52	C	1.238744	-0.512672	-0.503468
C53	C	1.572078	-0.179339	-0.170134
C54	C	1.905411	0.153995	0.163199
C55	C	1.122591	-0.512689	-0.503484
C56	C	1.455925	-0.179356	-0.170150
C57	C	1.789258	0.153978	0.163183
C58	C	1.070828	-0.577460	-0.566895
C59	C	1.404161	-0.244127	-0.233562
C60	C	1.737495	0.089207	0.099771
C61	C	0.950778	-0.577479	-0.566914
C62	C	1.284111	-0.244146	-0.233580
C63	C	1.617444	0.089188	0.099753
C64	C	1.510186	-0.789234	-0.503477
C65	C	1.843519	-0.455900	-0.170144
C66	C	2.176853	-0.122567	0.163189
C67	C	1.510252	-0.907539	-0.503508
C68	C	1.843585	-0.574206	-0.170174
C69	C	2.176919	-0.240872	0.163159
C70	C	1.440448	-0.976799	-0.573269
C71	C	1.773781	-0.643466	-0.239936
C72	C	2.107115	-0.310132	0.093398
C73	C	1.414986	-1.047668	-0.477914
C74	C	1.748319	-0.714334	-0.144580
C75	C	2.081653	-0.381001	0.188753
C76	C	1.535809	-1.047469	-0.598879
C77	C	1.869143	-0.714136	-0.265546
C78	C	2.202476	-0.380803	0.067787
C79	C	1.484740	-0.976849	-0.408102
C80	C	1.818073	-0.643516	-0.074769
C81	C	2.151406	-0.310183	0.258565
C82	C	1.605607	-0.976645	-0.529132
C83	C	1.938941	-0.643311	-0.195799
C84	C	2.272274	-0.309978	0.137535
C85	C	1.580182	-1.047481	-0.433711
C86	C	1.913515	-0.714148	-0.100378
C87	C	2.246848	-0.380815	0.232956
C88	C	1.782824	-0.512714	-0.503508
C89	C	2.116158	-0.179381	-0.170175
C90	C	2.449491	0.153953	0.163159
C91	C	1.898978	-0.512723	-0.503517
C92	C	2.232311	-0.179390	-0.170183
C93	C	2.565644	0.153944	0.163150
C94	C	1.510325	-0.512590	-0.776058
C95	C	1.843659	-0.179257	-0.442724
C96	C	2.176992	0.154076	-0.109391
C97	C	1.510356	-0.512547	-0.892211
C98	C	1.843689	-0.179213	-0.558878
C99	C	2.177022	0.154120	-0.225544
C100	C	1.510352	-0.235072	-0.503521
C101	C	1.843685	0.098262	-0.170187
C102	C	2.177018	0.431595	0.163146
C103	C	1.510393	-0.116766	-0.503535
C104	C	1.843726	0.216567	-0.170201
C105	C	2.177060	0.549900	0.163132
C106	C	1.573902	-0.447845	-0.944008
C107	C	1.907236	-0.114512	-0.610675
C108	C	2.240569	0.218822	-0.277342
C109	C	1.573935	-0.447799	-1.064059
C110	C	1.907268	-0.114465	-0.730725
C111	C	2.240602	0.218868	-0.397392
C112	C	1.510244	-0.512718	-0.231978
C113	C	1.843577	-0.179384	0.101356
C114	C	2.176910	0.153949	0.434689
C115	C	1.510416	-0.512461	-0.115825
C116	C	1.843749	-0.179128	0.217508
C117	C	2.177082	0.154205	0.550842
H118	H	0.906263	-0.632935	-0.621199
H119	H	1.239596	-0.299602	-0.287866
H120	H	1.572929	0.033732	0.045467
Br121	Br	0.973158	-0.420298	-0.413014
Br122	Br	1.306492	-0.086964	-0.079681
Br123	Br	1.639825	0.246369	0.253653
H124	H	1.456012	-0.567862	-1.071287
H125	H	1.789346	-0.234528	-0.737954
H126	H	2.122679	0.098805	-0.404621
H127	H	1.628343	-0.392409	-1.108603
H128	H	1.961677	-0.059075	-0.775270
H129	H	2.295010	0.274258	-0.441936
H130	H	1.463087	-0.945956	-0.327436
H131	H	1.796420	-0.612623	0.005897
H132	H	2.129754	-0.279290	0.339230
Br133	Br	1.678677	-1.098884	-0.335295
Br134	Br	2.012010	-0.765551	-0.001962
Br135	Br	2.345344	-0.432218	0.331372
H136	H	1.557369	-1.078491	-0.679523
H137	H	1.890702	-0.745157	-0.346190
H138	H	2.224036	-0.411824	-0.012856
Br139	Br	1.419704	-0.604813	-0.966422
Br140	Br	1.753037	-0.271479	-0.633088
Br141	Br	2.086370	0.061854	-0.299755
Br142	Br	1.739876	-0.924610	-0.565293
Br143	Br	2.073209	-0.591277	-0.231960
Br144	Br	2.406543	-0.257944	0.101374
H145	H	1.078031	-0.457246	-0.449213
H146	H	1.411364	-0.123912	-0.115879
H147	H	1.744698	0.209421	0.217454
H148	H	1.334412	-1.078887	-0.456263
H149	H	1.667745	-0.745554	-0.122929
H150	H	2.001078	-0.412221	0.210404
Br151	Br	1.341891	-0.925067	-0.671458
Br152	Br	1.675224	-0.591733	-0.338125
Br153	Br	2.008557	-0.258400	-0.004792
Br154	Br	1.145087	-0.669871	-0.657361
Br155	Br	1.478420	-0.336538	-0.324027
Br156	Br	1.811754	-0.003204	0.009306
Br157	Br	1.664514	-0.355538	-0.869798
Br158	Br	1.997847	-0.022205	-0.536464
Br159	Br	2.331181	0.311128	-0.203131
