data_functionalizedCrystal
_audit_creation_method	'MofGen! by Chris Wilmer'
_symmetry_space_group_name_H-M	'P1'
_symmetry_Int_Tables_number	1
_symmetry_cell_setting	triclinic
loop_
_symmetry_equiv_pos_as_xyz
  x,y,z
_cell_length_a	16.120530
_cell_length_b	12.827892
_cell_length_c	12.827885
_cell_angle_alpha	90.029976
_cell_angle_beta	92.918515
_cell_angle_gamma	87.111094
loop_
_atom_site_label
_atom_site_type_symbol
_atom_site_fract_x
_atom_site_fract_y
_atom_site_fract_z
Zn1	Zn	1.274617	-0.497098	0.671823
Zn2	Zn	1.274533	-0.671870	0.497078
Zn3	Zn	1.135195	-0.488277	0.488240
Zn4	Zn	1.135183	-0.662925	0.662925
O5	O	1.204882	-0.580043	0.580016
O6	O	1.391273	-0.527718	0.656066
O7	O	1.256019	-0.647568	0.349667
O8	O	1.153730	-0.343213	0.512618
O9	O	1.391211	-0.656122	0.527681
O10	O	1.256163	-0.349695	0.647496
O11	O	1.153648	-0.512683	0.343174
O12	O	1.018527	-0.504008	0.503989
O13	O	1.153710	-0.640876	0.810343
O14	O	1.018518	-0.632321	0.632330
O15	O	1.256151	-0.519044	0.816881
O16	O	1.256007	-0.816917	0.519052
O17	O	1.153628	-0.810345	0.640900
C18	C	0.988272	-0.566238	0.566235
C19	C	0.895605	-0.560357	0.560364
C20	C	1.204830	-0.851549	0.579994
C21	C	1.204884	-0.967706	0.580024
C22	C	1.154325	-1.136419	0.513286
C23	C	1.154268	-1.016365	0.513253
C24	C	0.725942	-0.549596	0.549655
C25	C	0.684662	-0.610566	0.610454
C26	C	0.590256	-0.604579	0.604495
C27	C	0.820357	-0.555582	0.555612
C28	C	1.422338	-0.593902	0.593852
C29	C	1.515005	-0.599808	0.599748
C30	C	1.204939	-0.579946	0.852590
C31	C	1.204963	-0.579905	0.968745
C32	C	1.204957	-0.307477	0.580063
C33	C	1.204989	-0.191326	0.580084
C34	C	1.204873	-0.580067	0.308506
C35	C	1.205011	-0.579824	0.192362
C36	C	1.255660	-0.519606	1.023765
C37	C	1.255686	-0.519562	1.143817
H38	H	1.110988	-1.178290	0.456126
F39	F	1.261627	-1.136602	0.654809
H40	H	0.720223	-0.667260	0.666983
F41	F	0.679465	-0.475497	0.475774
H42	H	1.299041	-0.468011	0.981992
F43	F	1.097575	-0.954666	0.438496
H44	H	1.161574	-0.631488	1.010518
H45	H	1.299092	-0.467942	1.191121
F46	F	1.261588	-1.029398	0.654774
F47	F	1.148279	-0.647311	1.130543
