data_functionalizedCrystal
_audit_creation_method	'MofGen! by Chris Wilmer'
_symmetry_space_group_name_H-M	'P1'
_symmetry_Int_Tables_number	1
_symmetry_cell_setting	triclinic
loop_
_symmetry_equiv_pos_as_xyz
  x,y,z
_cell_length_a	18.101398
_cell_length_b	19.077068
_cell_length_c	19.076919
_cell_angle_alpha	94.470751
_cell_angle_beta	87.724166
_cell_angle_gamma	87.677468
loop_
_atom_site_label
_atom_site_type_symbol
_atom_site_fract_x
_atom_site_fract_y
_atom_site_fract_z
Zn1	Zn	1.102247	0.296773	0.409951
Zn2	Zn	1.602247	0.796773	0.909951
Zn3	Zn	1.102156	0.409927	0.296796
Zn4	Zn	1.602156	0.909927	0.796796
Zn5	Zn	0.983594	0.292048	0.292070
Zn6	Zn	1.483594	0.792048	0.792070
Zn7	Zn	0.973186	0.414613	0.414628
Zn8	Zn	1.473186	0.914613	0.914628
O9	O	1.040296	0.353340	0.353361
O10	O	1.540296	0.853340	0.853361
O11	O	1.205867	0.311800	0.394962
O12	O	1.705867	0.811800	0.894962
O13	O	1.090746	0.390351	0.197523
O14	O	1.590746	0.890351	0.697523
O15	O	1.003728	0.194026	0.303773
O16	O	1.503728	0.694026	0.803773
O17	O	1.205799	0.394933	0.311827
O18	O	1.705799	0.894933	0.811827
O19	O	1.090902	0.197498	0.390380
O20	O	1.590902	0.697498	0.890380
O21	O	1.003639	0.303746	0.194051
O22	O	1.503639	0.803746	0.694051
O23	O	0.878582	0.308290	0.308307
O24	O	1.378582	0.808290	0.808307
O25	O	0.985988	0.402920	0.512654
O26	O	1.485988	0.902920	1.012654
O27	O	0.870935	0.398338	0.398350
O28	O	1.370935	0.898338	0.898350
O29	O	1.080809	0.316344	0.509218
O30	O	1.580809	0.816344	1.009218
O31	O	1.080653	0.509197	0.316361
O32	O	1.580653	1.009197	0.816361
O33	O	0.985899	0.512640	0.402932
O34	O	1.485899	1.012640	0.902932
C35	C	1.032156	0.536498	0.360682
C36	C	1.532156	1.036498	0.860682
C37	C	1.028741	0.614855	0.363838
C38	C	1.528741	1.114855	0.863838
C39	C	0.847888	0.353310	0.353323
C40	C	1.347888	0.853310	0.853323
C41	C	0.765574	0.353315	0.353325
C42	C	1.265574	0.853315	0.853325
C43	C	1.032248	0.360682	0.537229
C44	C	1.532248	0.860682	1.037229
C45	C	1.028819	0.363810	0.615583
C46	C	1.528819	0.863810	1.115583
C47	C	0.466478	0.353361	0.353386
C48	C	0.966478	0.853361	0.853386
C49	C	0.502590	0.296444	0.296988
C50	C	1.002590	0.796444	0.796988
C51	C	0.588212	0.296582	0.296763
C52	C	1.088212	0.796582	0.796763
C53	C	0.614863	0.353338	0.353355
C54	C	1.114863	0.853338	0.853355
C55	C	0.581378	0.426782	0.336035
C56	C	1.081378	0.926782	0.836035
C57	C	0.495763	0.426463	0.335646
C58	C	0.995763	0.926463	0.835646
C59	C	0.495637	0.337485	0.427257
C60	C	0.995637	0.837485	0.927257
C61	C	0.581378	0.335815	0.426783
C62	C	1.081378	0.835815	0.926783
C63	C	0.698724	0.353329	0.353340
C64	C	1.198724	0.853329	0.853340
C65	C	0.382618	0.353375	0.353400
C66	C	0.882618	0.853375	0.853400
C67	C	1.233455	0.353371	0.353400
C68	C	1.733455	0.853371	0.853400
C69	C	1.315767	0.353384	0.353416
C70	C	1.815767	0.853384	0.853416
C71	C	1.048486	0.169468	0.346027
C72	C	1.548486	0.669468	0.846027
C73	C	1.051977	0.091113	0.342902
C74	C	1.551977	0.591113	0.842902
C75	C	1.076505	0.649852	0.320285
C76	C	1.576505	1.149852	0.820285
C77	C	1.073297	0.723477	0.323257
C78	C	1.573297	1.223477	0.823257
C79	C	1.022321	0.762102	0.369779
C80	C	1.522321	1.262102	0.869779
C81	C	0.974555	0.727100	0.413336
C82	C	1.474555	1.227100	0.913336
C83	C	0.977767	0.653476	0.410367
C84	C	1.477767	1.153476	0.910367
C85	C	1.007423	0.982487	0.383491
C86	C	1.507423	1.482487	0.883491
C87	C	1.004213	1.056115	0.386455
C88	C	1.504213	1.556115	0.886455
C89	C	1.102956	1.052487	0.296376
C90	C	1.602956	1.552487	0.796376
C91	C	1.106161	0.978863	0.293408
C92	C	1.606161	1.478863	0.793408
C93	C	1.058398	0.943866	0.336968
C94	C	1.558398	1.443866	0.836968
N95	N	1.019039	0.837358	0.372816
N96	N	1.519039	1.337358	0.872816
N97	N	1.061684	0.868612	0.333934
N98	N	1.561684	1.368612	0.833934
C99	C	1.048357	0.345976	0.170207
C100	C	1.548357	0.845976	0.670207
C101	C	1.051939	0.342649	0.091846
C102	C	1.551939	0.842649	0.591846
C103	C	1.076573	0.320207	0.650606
C104	C	1.576573	0.820207	1.150606
C105	C	1.073342	0.323144	0.724228
C106	C	1.573342	0.823144	1.224228
C107	C	1.022359	0.369688	0.762825
C108	C	1.522359	0.869688	1.262825
C109	C	0.974599	0.413294	0.727796
C110	C	1.474599	0.913294	1.227796
C111	C	0.977828	0.410353	0.654176
C112	C	1.477828	0.910353	1.154176
C113	C	1.007407	0.383314	0.983197
C114	C	1.507407	0.883314	1.483197
C115	C	1.004184	0.386253	1.056822
C116	C	1.504184	0.886253	1.556822
C117	C	1.102926	0.296102	1.053248
C118	C	1.602926	0.796102	1.553248
C119	C	1.106153	0.293168	0.979627
C120	C	1.606153	0.793168	1.479627
C121	C	1.058390	0.336771	0.944605
C122	C	1.558390	0.836771	1.444605
N123	N	1.019057	0.372693	0.838078
N124	N	1.519057	0.872693	1.338078
N125	N	1.061690	0.333762	0.869353
N126	N	1.561690	0.833762	1.369353
H127	H	0.611110	0.242026	0.307278
H128	H	1.111110	0.742026	0.807278
F129	F	1.153789	1.089738	0.250023
F130	F	1.653789	1.589738	0.750023
F131	F	1.130840	0.270670	0.609535
F132	F	1.630840	0.770670	1.109535
H133	H	0.598221	0.470197	0.375957
H134	H	1.098221	0.970197	0.875957
H135	H	0.933085	0.451189	0.759228
H136	H	1.433085	0.951189	1.259228
H137	H	0.933052	0.758554	0.451218
H138	H	1.433052	1.258554	0.951218
F139	F	1.160416	0.243629	0.938554
F140	F	1.660416	0.743629	1.438554
H141	H	1.112230	0.287638	0.752740
H142	H	1.612230	0.787638	1.252740
F143	F	1.153753	0.249698	1.090527
F144	F	1.653753	0.749698	1.590527
F145	F	0.949916	0.435792	1.097899
F146	F	1.449916	0.935792	1.597899
F147	F	0.949947	1.097221	0.435965
F148	F	1.449947	1.597221	0.935965
F149	F	0.956574	0.429720	0.945934
F150	F	1.456574	0.929720	1.445934
H151	H	1.112191	0.751969	0.287791
H152	H	1.612191	1.251969	0.787791
H153	H	0.968531	0.953999	0.418958
H154	H	1.468531	1.453999	0.918958
H155	H	0.938933	0.445852	0.625661
H156	H	1.438933	0.945852	1.125661
H157	H	0.482919	0.306572	0.242506
H158	H	0.982919	0.806572	0.742506
F159	F	0.478150	0.224906	0.310538
F160	F	0.978150	0.724906	0.810538
H161	H	0.610552	0.306838	0.241965
H162	H	1.110552	0.806838	0.741965
H163	H	0.604453	0.440899	0.282721
H164	H	1.104453	0.940899	0.782721
F165	F	0.471824	0.444519	0.265176
F166	F	0.971824	0.944519	0.765176
H167	H	0.471528	0.470146	0.375094
H168	H	0.971528	0.970146	0.875094
H169	H	0.475589	0.285018	0.443578
H170	H	0.975589	0.785018	0.943578
F171	F	0.610234	0.265196	0.443931
F172	F	1.110234	0.765196	0.943931
F173	F	0.464549	0.391718	0.482134
F174	F	0.964549	0.891718	0.982134
F175	F	0.604783	0.386366	0.484336
F176	F	1.104783	0.886366	0.984336
H177	H	1.118012	0.618408	0.282399
H178	H	1.618012	1.118408	0.782399
F179	F	1.160424	0.937760	0.243901
F180	F	1.660424	1.437760	0.743901
F181	F	0.926932	0.616230	0.456724
F182	F	1.426932	1.116230	0.956724
