data_functionalizedCrystal
_audit_creation_method	'MofGen! by Chris Wilmer'
_symmetry_space_group_name_H-M	'P1'
_symmetry_Int_Tables_number	1
_symmetry_cell_setting	triclinic
loop_
_symmetry_equiv_pos_as_xyz
  x,y,z
_cell_length_a	21.395362
_cell_length_b	25.639239
_cell_length_c	21.395356
_cell_angle_alpha	89.971496
_cell_angle_beta	89.957023
_cell_angle_gamma	90.054564
loop_
_atom_site_label
_atom_site_type_symbol
_atom_site_fract_x
_atom_site_fract_y
_atom_site_fract_z
Zn1	Zn	0.957819	-0.207942	-0.354582
Zn2	Zn	0.957709	-0.295376	-0.249803
Zn3	Zn	0.853036	-0.207981	-0.249783
Zn4	Zn	0.852988	-0.295373	-0.354508
O5	O	0.905388	-0.251668	-0.302169
O6	O	1.045482	-0.219526	-0.340722
O7	O	0.943797	-0.283800	-0.162122
O8	O	0.867001	-0.134810	-0.263708
O9	O	1.045401	-0.283763	-0.263742
O10	O	0.943985	-0.134782	-0.340703
O11	O	0.866894	-0.219591	-0.162108
O12	O	0.765351	-0.219588	-0.263636
O13	O	0.866921	-0.283758	-0.442196
O14	O	0.765317	-0.283795	-0.340576
O15	O	0.943939	-0.219523	-0.442250
O16	O	0.943751	-0.368541	-0.263669
O17	O	0.866814	-0.368539	-0.340596
C18	C	0.742600	-0.251696	-0.302096
C19	C	0.672959	-0.251720	-0.302080
C20	C	0.640244	-0.285197	-0.342083
C21	C	0.574809	-0.285184	-0.342111
C22	C	0.542091	-0.251700	-0.302125
C23	C	0.574813	-0.218217	-0.262119
C24	C	0.640247	-0.218227	-0.262097
C25	C	0.438368	-0.247496	-0.245720
C26	C	0.372935	-0.247489	-0.245741
C27	C	0.340270	-0.251666	-0.302194
C28	C	0.373046	-0.255860	-0.358627
C29	C	0.438480	-0.255870	-0.358605
C30	C	0.471138	-0.251685	-0.302145
C31	C	0.236603	-0.285130	-0.342231
C32	C	0.171166	-0.285114	-0.342260
C33	C	0.171172	-0.218149	-0.262262
C34	C	0.236607	-0.218163	-0.262239
C35	C	0.269319	-0.251657	-0.302222
C36	C	0.905282	-0.387511	-0.302140
C37	C	0.905295	-0.445625	-0.302149
C38	C	0.945554	-0.805976	-0.262182
C39	C	0.945578	-0.860581	-0.262190
O40	O	0.979698	-0.888808	-0.228177
N41	N	0.905498	-0.887907	-0.302211
C42	C	0.865396	-0.860626	-0.342230
O43	O	0.831307	-0.888884	-0.376271
C44	C	0.865375	-0.806023	-0.342224
C45	C	0.905453	-0.778699	-0.302196
C46	C	0.985629	-0.778653	-0.222158
C47	C	0.985604	-0.724052	-0.222149
C48	C	0.945503	-0.696775	-0.262164
C49	C	0.905428	-0.724099	-0.302187
C50	C	0.825276	-0.778743	-0.382246
C51	C	0.825259	-0.724136	-0.382237
C52	C	0.865337	-0.696813	-0.342209
C53	C	0.865302	-0.642222	-0.342193
N54	N	0.905382	-0.614895	-0.302173
C55	C	0.945483	-0.642172	-0.262158
C56	C	0.865443	-0.975297	-0.342239
C57	C	0.865460	-1.029899	-0.342242
C58	C	0.945643	-1.029850	-0.262204
C59	C	0.945623	-0.975246	-0.262198
C60	C	0.905523	-0.947971	-0.302219
C61	C	0.945426	-0.527507	-0.262142
C62	C	0.945395	-0.472902	-0.262134
C63	C	0.865215	-0.472956	-0.342175
C64	C	0.865243	-0.527556	-0.342180
C65	C	0.905353	-0.554831	-0.302162
O66	O	0.831201	-0.613960	-0.376190
O67	O	0.979571	-0.613908	-0.228128
C68	C	1.068811	-0.251641	-0.302242
C69	C	1.138452	-0.251629	-0.302274
C70	C	0.905437	-0.251636	-0.465592
C71	C	0.905458	-0.251622	-0.535234
C72	C	0.905511	-0.115295	-0.302212
C73	C	0.905563	-0.057181	-0.302230
C74	C	0.865426	-0.218184	-0.567929
C75	C	0.865423	-0.218175	-0.633365
C76	C	0.905465	-0.251597	-0.666102
C77	C	0.945500	-0.285041	-0.633398
C78	C	0.945497	-0.285053	-0.567964
C79	C	0.961916	-0.255694	-0.769807
C80	C	0.961921	-0.255678	-0.835240
C81	C	0.905475	-0.251562	-0.867923
C82	C	0.849024	-0.247450	-0.835164
C83	C	0.849020	-0.247462	-0.769730
C84	C	0.905473	-0.251587	-0.737054
C85	C	0.865437	-0.218112	-0.971571
C86	C	0.865434	-0.218106	-1.037008
C87	C	0.945517	-0.284969	-1.037040
C88	C	0.945514	-0.284978	-0.971605
C89	C	0.905475	-0.251547	-0.938874
C90	C	0.905375	-0.251663	-0.139381
C91	C	0.905475	-0.251529	-0.069741
H92	H	0.465164	-0.259284	-0.404555
H93	H	0.346253	-0.244077	-0.199789
H94	H	0.464958	-0.244092	-0.199746
F95	F	0.782624	-0.807811	-0.424854
F96	F	0.675054	-0.320842	-0.384639
F97	F	0.788946	-0.243066	-0.869942
H98	H	0.832835	-0.190890	-0.944921
H99	H	1.018241	-0.701808	-0.189557
H100	H	0.832783	-0.953092	-0.374827
H101	H	0.832818	-1.052142	-0.374831
F102	F	1.021997	-0.260080	-0.735031
F103	F	0.822809	-0.182527	-1.071805
H104	H	0.832825	-0.190943	-0.659991
F105	F	0.988321	-1.058889	-0.219615
F106	F	0.822576	-0.556637	-0.384770
F107	F	0.338288	-0.260303	-0.418714
F108	F	0.271419	-0.320774	-0.384787
F109	F	0.782579	-0.695111	-0.424835
F110	F	0.822810	-0.182605	-0.533099
H111	H	0.978121	-0.312181	-1.063694
H112	H	0.832563	-0.450739	-0.374753
F113	F	0.788942	-0.243089	-0.734869
H114	H	0.978115	-0.312205	-0.944984
F115	F	0.988108	-0.320643	-0.533166
H116	H	1.007887	-0.259024	-0.861907
H117	H	0.548170	-0.190953	-0.229563
H118	H	0.548167	-0.312445	-0.374689
F119	F	0.136349	-0.320744	-0.384842
H120	H	0.978102	-0.312254	-0.660057
F121	F	0.988279	-0.946171	-0.219596
F122	F	0.136355	-0.182510	-0.219708
F123	F	0.271426	-0.182534	-0.219660
H124	H	0.666883	-0.190964	-0.229521
F125	F	0.988116	-0.556526	-0.219549
F126	F	0.988054	-0.443825	-0.219530
F127	F	1.028315	-0.807675	-0.179566
