data_functionalizedCrystal
_audit_creation_method	'MofGen! by Chris Wilmer'
_symmetry_space_group_name_H-M	'P1'
_symmetry_Int_Tables_number	1
_symmetry_cell_setting	triclinic
loop_
_symmetry_equiv_pos_as_xyz
  x,y,z
_cell_length_a	18.050591
_cell_length_b	29.839131
_cell_length_c	18.050583
_cell_angle_alpha	90.035362
_cell_angle_beta	90.013856
_cell_angle_gamma	90.040261
loop_
_atom_site_label
_atom_site_type_symbol
_atom_site_fract_x
_atom_site_fract_y
_atom_site_fract_z
Zn1	Zn	1.135249	-0.178852	0.419811
Zn2	Zn	1.385249	0.071148	0.669811
Zn3	Zn	1.635249	0.321148	0.919811
Zn4	Zn	1.885249	0.571148	1.169811
Zn5	Zn	1.135124	-0.253987	0.295614
Zn6	Zn	1.385124	-0.003987	0.545614
Zn7	Zn	1.635124	0.246013	0.795614
Zn8	Zn	1.885124	0.496013	1.045614
Zn9	Zn	1.011061	-0.178870	0.295644
Zn10	Zn	1.261061	0.071130	0.545644
Zn11	Zn	1.511061	0.321130	0.795644
Zn12	Zn	1.761061	0.571130	1.045644
Zn13	Zn	1.010987	-0.253954	0.419772
Zn14	Zn	1.260987	-0.003954	0.669772
Zn15	Zn	1.510987	0.246046	0.919772
Zn16	Zn	1.760987	0.496046	1.169772
O17	O	1.073105	-0.216416	0.357711
O18	O	1.323105	0.033584	0.607711
O19	O	1.573105	0.283584	0.857711
O20	O	1.823105	0.533584	1.107711
O21	O	1.239157	-0.188825	0.403339
O22	O	1.489157	0.061175	0.653339
O23	O	1.739157	0.311175	0.903339
O24	O	1.989157	0.561175	1.153339
O25	O	1.118645	-0.244044	0.191694
O26	O	1.368645	0.005956	0.441694
O27	O	1.618645	0.255956	0.691694
O28	O	1.868645	0.505956	0.941694
O29	O	1.027618	-0.116001	0.312144
O30	O	1.277618	0.133999	0.562144
O31	O	1.527618	0.383999	0.812144
O32	O	1.777618	0.633999	1.062144
O33	O	1.239065	-0.244026	0.312093
O34	O	1.489065	0.005974	0.562093
O35	O	1.739065	0.255974	0.812093
O36	O	1.989065	0.505974	1.062093
O37	O	1.118858	-0.115987	0.403368
O38	O	1.368858	0.134013	0.653368
O39	O	1.618858	0.384013	0.903368
O40	O	1.868858	0.634013	1.153368
O41	O	1.027496	-0.188856	0.191716
O42	O	1.277496	0.061144	0.441716
O43	O	1.527496	0.311144	0.691716
O44	O	1.777496	0.561144	0.941716
O45	O	0.907126	-0.188824	0.312107
O46	O	1.157126	0.061176	0.562107
O47	O	1.407126	0.311176	0.812107
O48	O	1.657126	0.561176	1.062107
O49	O	1.027492	-0.243970	0.523702
O50	O	1.277492	0.006030	0.773702
O51	O	1.527492	0.256030	1.023702
O52	O	1.777492	0.506030	1.273702
O53	O	0.907072	-0.243988	0.403303
O54	O	1.157072	0.006012	0.653303
O55	O	1.407072	0.256012	0.903303
O56	O	1.657072	0.506012	1.153303
O57	O	1.118787	-0.188793	0.523730
O58	O	1.368787	0.061207	0.773730
O59	O	1.618787	0.311207	1.023730
O60	O	1.868787	0.561207	1.273730
O61	O	1.118574	-0.316850	0.312056
O62	O	1.368574	-0.066850	0.562056
O63	O	1.618574	0.183150	0.812056
O64	O	1.868574	0.433150	1.062056
O65	O	1.027371	-0.316826	0.403274
O66	O	1.277371	-0.066826	0.653274
O67	O	1.527371	0.183174	0.903274
O68	O	1.777371	0.433174	1.153274
C69	C	0.880153	-0.216405	0.357704
C70	C	1.130153	0.033595	0.607704
C71	C	1.380153	0.283595	0.857704
C72	C	1.630153	0.533595	1.107704
C73	C	0.797607	-0.216411	0.357719
C74	C	1.047607	0.033589	0.607719
C75	C	1.297607	0.283589	0.857719
C76	C	1.547607	0.533589	1.107719
C77	C	1.072971	-0.333139	0.357674
C78	C	1.322971	-0.083139	0.607674
C79	C	1.572971	0.166861	0.857674
C80	C	1.822971	0.416861	1.107674
C81	C	1.072981	-0.383073	0.357683
C82	C	1.322981	-0.133073	0.607683
C83	C	1.572981	0.116927	0.857683
C84	C	1.822981	0.366927	1.107683
C85	C	0.548774	-0.246471	0.407244
C86	C	0.798774	0.003529	0.657244
C87	C	1.048774	0.253529	0.907244
C88	C	1.298774	0.503529	1.157244
C89	C	0.598136	-0.257410	0.339458
C90	C	0.848136	-0.007410	0.589458
C91	C	1.098136	0.242590	0.839458
C92	C	1.348136	0.492590	1.089458
C93	C	0.500487	-0.216425	0.357718
C94	C	0.750487	0.033575	0.607718
C95	C	1.000487	0.283575	0.857718
C96	C	1.250487	0.533575	1.107718
C97	C	0.598206	-0.205501	0.425502
C98	C	0.848206	0.044499	0.675502
C99	C	1.098206	0.294499	0.925502
C100	C	1.348206	0.544499	1.175502
C101	C	0.646472	-0.216419	0.357722
C102	C	0.896472	0.033581	0.607722
C103	C	1.146472	0.283581	0.857722
C104	C	1.396472	0.533581	1.107722
C105	C	0.548761	-0.227385	0.289895
C106	C	0.798761	0.022615	0.539895
C107	C	1.048761	0.272615	0.789895
C108	C	1.298761	0.522615	1.039895
C109	C	0.548828	-0.175457	0.375985
C110	C	0.798828	0.074543	0.625985
C111	C	1.048828	0.324543	0.875985
C112	C	1.298828	0.574543	1.125985
C113	C	0.598168	-0.186380	0.308151
C114	C	0.848168	0.063620	0.558151
C115	C	1.098168	0.313620	0.808151
C116	C	1.348168	0.563620	1.058151
C117	C	0.416388	-0.216430	0.357717
C118	C	0.666388	0.033570	0.607717
C119	C	0.916388	0.283570	0.857717
C120	C	1.166388	0.533570	1.107717
C121	C	0.730568	-0.216415	0.357716
C122	C	0.980568	0.033585	0.607716
C123	C	1.230568	0.283585	0.857716
C124	C	1.480568	0.533585	1.107716
C125	C	1.120680	-0.692716	0.310283
C126	C	1.370680	-0.442716	0.560283
C127	C	1.620680	-0.192716	0.810283
C128	C	1.870680	0.057284	1.060283
C129	C	1.120772	-0.880389	0.310311
C130	C	1.370772	-0.630389	0.560311
C131	C	1.620772	-0.380389	0.810311
C132	C	1.870772	-0.130389	1.060311
O133	O	1.161221	-0.904654	0.269982
O134	O	1.411221	-0.654654	0.519982
O135	O	1.661221	-0.404654	0.769982
O136	O	1.911221	-0.154654	1.019982
N137	N	1.073259	-0.903858	0.357767
N138	N	1.323259	-0.653858	0.607767
N139	N	1.573259	-0.403858	0.857767
N140	N	1.823259	-0.153858	1.107767
C141	C	1.025723	-0.880405	0.405221
C142	C	1.275723	-0.630405	0.655221
C143	C	1.525723	-0.380405	0.905221
C144	C	1.775723	-0.130405	1.155221
O145	O	0.985318	-0.904673	0.445591
O146	O	1.235318	-0.654673	0.695591
O147	O	1.485318	-0.404673	0.945591
O148	O	1.735318	-0.154673	1.195591
C149	C	1.025636	-0.692733	0.405196
C150	C	1.275636	-0.442733	0.655196
C151	C	1.525636	-0.192733	0.905196
C152	C	1.775636	0.057267	1.155196
C153	C	1.073147	-0.669267	0.357732
C154	C	1.323147	-0.419267	0.607732
C155	C	1.573147	-0.169267	0.857732
C156	C	1.823147	0.080733	1.107732
C157	C	1.168188	-0.669250	0.262823
C158	C	1.418188	-0.419250	0.512823
C159	C	1.668188	-0.169250	0.762823
C160	C	1.918188	0.080750	1.012823
C161	C	1.168162	-0.622335	0.262814
C162	C	1.418162	-0.372335	0.512814
C163	C	1.668162	-0.122335	0.762814
C164	C	1.918162	0.127665	1.012814
C165	C	1.120628	-0.598885	0.310263
C166	C	1.370628	-0.348885	0.560263
C167	C	1.620628	-0.098885	0.810263
C168	C	1.870628	0.151115	1.060263
C169	C	1.073120	-0.622352	0.357723
C170	C	1.323120	-0.372352	0.607723
C171	C	1.573120	-0.122352	0.857723
C172	C	1.823120	0.127648	1.107723
C173	C	0.978104	-0.669282	0.452654
C174	C	1.228104	-0.419282	0.702654
C175	C	1.478104	-0.169282	0.952654
C176	C	1.728104	0.080718	1.202654
C177	C	0.978088	-0.622361	0.452644
C178	C	1.228088	-0.372361	0.702644
C179	C	1.478088	-0.122361	0.952644
C180	C	1.728088	0.127639	1.202644
C181	C	1.025599	-0.598894	0.405181
C182	C	1.275599	-0.348894	0.655181
C183	C	1.525599	-0.098894	0.905181
C184	C	1.775599	0.151106	1.155181
C185	C	1.025560	-0.551987	0.405163
C186	C	1.275560	-0.301987	0.655163
C187	C	1.525560	-0.051987	0.905163
C188	C	1.775560	0.198013	1.155163
N189	N	1.073073	-0.528518	0.357707
N190	N	1.323073	-0.278518	0.607707
N191	N	1.573073	-0.028518	0.857707
N192	N	1.823073	0.221482	1.107707
C193	C	1.120607	-0.551968	0.310258
C194	C	1.370607	-0.301968	0.560258
C195	C	1.620607	-0.051968	0.810258
C196	C	1.870607	0.198032	1.060258
C197	C	1.025771	-0.978936	0.405230
C198	C	1.275771	-0.728936	0.655230
C199	C	1.525771	-0.478936	0.905230
C200	C	1.775771	-0.228936	1.155230
C201	C	1.025792	-1.025854	0.405236
C202	C	1.275792	-0.775854	0.655236
C203	C	1.525792	-0.525854	0.905236
C204	C	1.775792	-0.275854	1.155236
C205	C	1.120842	-1.025835	0.310327
C206	C	1.370842	-0.775835	0.560327
C207	C	1.620842	-0.525835	0.810327
C208	C	1.870842	-0.275835	1.060327
C209	C	1.120817	-0.978916	0.310318
C210	C	1.370817	-0.728916	0.560318
C211	C	1.620817	-0.478916	0.810318
C212	C	1.870817	-0.228916	1.060318
C213	C	1.073284	-0.955467	0.357775
C214	C	1.323284	-0.705467	0.607775
C215	C	1.573284	-0.455467	0.857775
C216	C	1.823284	-0.205467	1.107775
C217	C	1.120548	-0.453442	0.310241
C218	C	1.370548	-0.203442	0.560241
C219	C	1.620548	0.046558	0.810241
C220	C	1.870548	0.296558	1.060241
C221	C	1.120515	-0.406522	0.310233
C222	C	1.370515	-0.156522	0.560233
C223	C	1.620515	0.093478	0.810233
C224	C	1.870515	0.343478	1.060233
C225	C	1.025468	-0.406546	0.405145
C226	C	1.275468	-0.156546	0.655145
C227	C	1.525468	0.093454	0.905145
C228	C	1.775468	0.343454	1.155145
C229	C	1.025498	-0.453461	0.405150
C230	C	1.275498	-0.203461	0.655150
C231	C	1.525498	0.046539	0.905150
C232	C	1.775498	0.296539	1.155150
C233	C	1.073044	-0.476908	0.357695
C234	C	1.323044	-0.226908	0.607695
C235	C	1.573044	0.023092	0.857695
C236	C	1.823044	0.273092	1.107695
O237	O	0.985138	-0.527693	0.445477
O238	O	1.235138	-0.277693	0.695477
O239	O	1.485138	-0.027693	0.945477
O240	O	1.735138	0.222307	1.195477
O241	O	1.161018	-0.527692	0.269906
O242	O	1.411018	-0.277692	0.519906
O243	O	1.661018	-0.027692	0.769906
O244	O	1.911018	0.222308	1.019906
C245	C	1.120707	-0.739632	0.310292
C246	C	1.370707	-0.489632	0.560292
C247	C	1.620707	-0.239632	0.810292
C248	C	1.870707	0.010368	1.060292
C249	C	1.073199	-0.763098	0.357751
C250	C	1.323199	-0.513098	0.607751
C251	C	1.573199	-0.263098	0.857751
C252	C	1.823199	-0.013098	1.107751
C253	C	1.025665	-0.739649	0.405201
C254	C	1.275665	-0.489649	0.655201
C255	C	1.525665	-0.239649	0.905201
C256	C	1.775665	0.010351	1.155201
C257	C	1.073220	-0.810016	0.357757
C258	C	1.323220	-0.560016	0.607757
C259	C	1.573220	-0.310016	0.857757
C260	C	1.823220	-0.060016	1.107757
C261	C	1.120754	-0.833465	0.310307
C262	C	1.370754	-0.583465	0.560307
C263	C	1.620754	-0.333465	0.810307
C264	C	1.870754	-0.083465	1.060307
C265	C	1.168267	-0.809996	0.262852
C266	C	1.418267	-0.559996	0.512852
C267	C	1.668267	-0.309996	0.762852
C268	C	1.918267	-0.059996	1.012852
C269	C	1.168241	-0.763081	0.262843
C270	C	1.418241	-0.513081	0.512843
C271	C	1.668241	-0.263081	0.762843
C272	C	1.918241	-0.013081	1.012843
C273	C	0.978152	-0.763117	0.452656
C274	C	1.228152	-0.513117	0.702656
C275	C	1.478152	-0.263117	0.952656
C276	C	1.728152	-0.013117	1.202656
C277	C	0.978182	-0.810033	0.452661
C278	C	1.228182	-0.560033	0.702661
C279	C	1.478182	-0.310033	0.952661
C280	C	1.728182	-0.060033	1.202661
C281	C	1.025716	-0.833482	0.405212
C282	C	1.275716	-0.583482	0.655212
C283	C	1.525716	-0.333482	0.905212
C284	C	1.775716	-0.083482	1.155212
C285	C	1.266811	-0.216427	0.357717
C286	C	1.516811	0.033573	0.607717
C287	C	1.766811	0.283573	0.857717
C288	C	2.016811	0.533573	1.107717
C289	C	1.349356	-0.216432	0.357720
C290	C	1.599356	0.033568	0.607720
C291	C	1.849356	0.283568	0.857720
C292	C	2.099356	0.533568	1.107720
C293	C	1.073260	-0.099238	0.357764
C294	C	1.323260	0.150762	0.607764
C295	C	1.573260	0.400762	0.857764
C296	C	1.823260	0.650762	1.107764
C297	C	1.073326	-0.049303	0.357786
C298	C	1.323326	0.200697	0.607786
C299	C	1.573326	0.450697	0.857786
C300	C	1.823326	0.700697	1.107786
C301	C	1.073145	-0.216376	0.551416
C302	C	1.323145	0.033624	0.801416
C303	C	1.573145	0.283624	1.051416
C304	C	1.823145	0.533624	1.301416
C305	C	1.073163	-0.216359	0.633962
C306	C	1.323163	0.033641	0.883962
C307	C	1.573163	0.283641	1.133962
C308	C	1.823163	0.533641	1.383962
C309	C	1.073108	-0.216424	0.164758
C310	C	1.323108	0.033576	0.414758
C311	C	1.573108	0.283576	0.664758
C312	C	1.823108	0.533576	0.914758
C313	C	1.073234	-0.216314	0.082213
C314	C	1.323234	0.033686	0.332213
C315	C	1.573234	0.283686	0.582213
C316	C	1.823234	0.533686	0.832213
C317	C	1.122855	-0.186323	0.882803
C318	C	1.372855	0.063677	1.132803
C319	C	1.622855	0.313677	1.382803
C320	C	1.872855	0.563677	1.632803
C321	C	1.140961	-0.227315	0.833384
C322	C	1.390961	0.022685	1.083384
C323	C	1.640961	0.272685	1.333384
C324	C	1.890961	0.522685	1.583384
C325	C	1.073210	-0.216330	0.931083
C326	C	1.323210	0.033670	1.181083
C327	C	1.573210	0.283670	1.431083
C328	C	1.823210	0.533670	1.681083
C329	C	1.055116	-0.175354	0.833420
C330	C	1.305116	0.074646	1.083420
C331	C	1.555116	0.324646	1.333420
C332	C	1.805116	0.574646	1.583420
C333	C	1.073189	-0.216342	0.785097
C334	C	1.323189	0.033658	1.035097
C335	C	1.573189	0.283658	1.285097
C336	C	1.823189	0.533658	1.535097
C337	C	1.091352	-0.257344	0.882751
C338	C	1.341352	-0.007344	1.132751
C339	C	1.591352	0.242656	1.382751
C340	C	1.841352	0.492656	1.632751
C341	C	1.005475	-0.205355	0.882791
C342	C	1.255475	0.044645	1.132791
C343	C	1.505475	0.294645	1.382791
C344	C	1.755475	0.544645	1.632791
C345	C	1.023555	-0.246376	0.833394
C346	C	1.273555	0.003624	1.083394
C347	C	1.523555	0.253624	1.333394
C348	C	1.773555	0.503624	1.583394
C349	C	1.073225	-0.216323	1.015181
C350	C	1.323225	0.033677	1.265181
C351	C	1.573225	0.283677	1.515181
C352	C	1.823225	0.533677	1.765181
C353	C	1.073174	-0.216354	0.701001
C354	C	1.323174	0.033646	0.951001
C355	C	1.573174	0.283646	1.201001
C356	C	1.823174	0.533646	1.451001
H357	H	0.527086	-0.271902	0.449073
H358	H	0.777086	-0.021902	0.699073
H359	H	1.027086	0.228098	0.949073
H360	H	1.277086	0.478098	1.199073
H361	H	1.039821	-0.140697	0.811748
H362	H	1.289821	0.109303	1.061748
H363	H	1.539821	0.359303	1.311748
H364	H	1.789821	0.609303	1.561748
H365	H	1.206929	-0.743978	0.224193
H366	H	1.456929	-0.493978	0.474193
H367	H	1.706929	-0.243978	0.724193
H368	H	1.956929	0.006022	0.974193
H369	H	1.206969	-0.829097	0.224215
H370	H	1.456969	-0.579097	0.474215
H371	H	1.706969	-0.329097	0.724215
H372	H	1.956969	-0.079097	0.974215
H373	H	0.986813	-0.472568	0.443801
H374	H	1.236813	-0.222568	0.693801
H375	H	1.486813	0.027432	0.943801
H376	H	1.736813	0.277432	1.193801
H377	H	0.619795	-0.292054	0.324003
H378	H	0.869795	-0.042054	0.574003
H379	H	1.119795	0.207946	0.824003
H380	H	1.369795	0.457946	1.074003
H381	H	0.527134	-0.236665	0.232558
H382	H	0.777134	0.013335	0.482558
H383	H	1.027134	0.263335	0.732558
H384	H	1.277134	0.513335	0.982558
H385	H	0.986764	-0.387446	0.443776
H386	H	1.236764	-0.137446	0.693776
H387	H	1.486764	0.112554	0.943776
H388	H	1.736764	0.362554	1.193776
H389	H	1.206851	-0.603231	0.224167
H390	H	1.456851	-0.353231	0.474167
H391	H	1.706851	-0.103231	0.724167
H392	H	1.956851	0.146769	0.974167
H393	H	0.981564	-0.271786	0.811837
H394	H	1.231564	-0.021786	1.061837
H395	H	1.481564	0.228214	1.311837
H396	H	1.731564	0.478214	1.561837
H397	H	0.619718	-0.160969	0.266222
H398	H	0.869718	0.089031	0.516222
H399	H	1.119718	0.339031	0.766222
H400	H	1.369718	0.589031	1.016222
H401	H	1.198234	-0.236605	0.811680
H402	H	1.448234	0.013395	1.061680
H403	H	1.698234	0.263395	1.311680
H404	H	1.948234	0.513395	1.561680
H405	H	0.527152	-0.140823	0.391459
H406	H	0.777152	0.109177	0.641459
H407	H	1.027152	0.359177	0.891459
H408	H	1.277152	0.609177	1.141459
H409	H	0.619925	-0.196263	0.482824
H410	H	0.869925	0.053737	0.732824
H411	H	1.119925	0.303737	0.982824
H412	H	1.369925	0.553737	1.232824
H413	H	0.948219	-0.196052	0.904510
H414	H	1.198219	0.053948	1.154510
H415	H	1.448219	0.303948	1.404510
H416	H	1.698219	0.553948	1.654510
H417	H	1.159204	-0.387417	0.271580
H418	H	1.409204	-0.137417	0.521580
H419	H	1.659204	0.112583	0.771580
H420	H	1.909204	0.362583	1.021580
H421	H	1.164879	-0.160973	0.904496
H422	H	1.414879	0.089027	1.154496
H423	H	1.664879	0.339027	1.404496
H424	H	1.914879	0.589027	1.654496
H425	H	1.159266	-0.472527	0.271600
H426	H	1.409266	-0.222527	0.521600
H427	H	1.659266	0.027473	0.771600
H428	H	1.909266	0.277473	1.021600
H429	H	1.206900	-0.688337	0.224184
H430	H	1.456900	-0.438337	0.474184
H431	H	1.706900	-0.188337	0.724184
H432	H	1.956900	0.061663	0.974184
H433	H	1.106730	-0.292009	0.904330
H434	H	1.356730	-0.042009	1.154330
H435	H	1.606730	0.207991	1.404330
H436	H	1.856730	0.457991	1.654330
H437	H	1.159505	-0.959812	0.271670
H438	H	1.409505	-0.709812	0.521670
H439	H	1.659505	-0.459812	0.771670
H440	H	1.909505	-0.209812	1.021670
H441	H	0.939445	-0.744029	0.491296
H442	H	1.189445	-0.494029	0.741296
H443	H	1.439445	-0.244029	0.991296
H444	H	1.689445	0.005971	1.241296
H445	H	1.159546	-1.044935	0.271692
H446	H	1.409546	-0.794935	0.521692
H447	H	1.659546	-0.544935	0.771692
H448	H	1.909546	-0.294935	1.021692
H449	H	0.987097	-1.044956	0.443879
H450	H	1.237097	-0.794956	0.693879
H451	H	1.487097	-0.544956	0.943879
H452	H	1.737097	-0.294956	1.193879
H453	H	0.987062	-0.959848	0.443877
H454	H	1.237062	-0.709848	0.693877
H455	H	1.487062	-0.459848	0.943877
H456	H	1.737062	-0.209848	1.193877
H457	H	0.939412	-0.688380	0.491300
H458	H	1.189412	-0.438380	0.741300
H459	H	1.439412	-0.188380	0.991300
H460	H	1.689412	0.061620	1.241300
H461	H	0.939486	-0.829135	0.491311
H462	H	1.189486	-0.579135	0.741311
H463	H	1.439486	-0.329135	0.991311
H464	H	1.689486	-0.079135	1.241311
H465	H	0.939382	-0.603271	0.491292
H466	H	1.189382	-0.353271	0.741292
H467	H	1.439382	-0.103271	0.991292
H468	H	1.689382	0.146729	1.241292
