data_functionalizedCrystal
_audit_creation_method	'MofGen! by Chris Wilmer'
_symmetry_space_group_name_H-M	'P1'
_symmetry_Int_Tables_number	1
_symmetry_cell_setting	triclinic
loop_
_symmetry_equiv_pos_as_xyz
  x,y,z
_cell_length_a	6.817900
_cell_length_b	17.253796
_cell_length_c	11.102193
_cell_angle_alpha	97.516397
_cell_angle_beta	108.604059
_cell_angle_gamma	102.657420
loop_
_atom_site_label
_atom_site_type_symbol
_atom_site_fract_x
_atom_site_fract_y
_atom_site_fract_z
V1	V	-4.088140	-0.111300	-0.408324
O2	O	-4.071669	0.005342	-0.388135
O3	O	-4.041945	-0.220684	-0.417472
O4	O	-4.065273	-0.109591	-0.580960
O5	O	-4.048180	-0.106520	-0.223516
V6	V	-4.568174	-0.097348	-0.384769
O7	O	-4.357052	-0.141906	-0.459994
O8	O	-4.749459	-0.066743	-0.333099
O9	O	-4.391162	0.012036	-0.375620
O10	O	-4.702041	-0.213991	-0.404957
O11	O	-4.725531	-0.102129	-0.569577
O12	O	-4.367834	-0.099058	-0.212132
C13	C	-3.886656	-0.247350	-0.414112
C14	C	-3.930343	-0.336772	-0.422743
C15	C	-4.182571	-0.841362	-0.483934
C16	C	-4.141513	-0.757340	-0.475825
C17	C	-4.063214	-0.703838	-0.354136
C18	C	-4.025992	-0.734362	-0.240549
C19	C	-4.067065	-0.818383	-0.248660
C20	C	-3.934194	-0.451318	-0.317266
C21	C	-3.893117	-0.367291	-0.309164
C22	C	-4.008645	-0.390276	-0.544441
C23	C	-4.049700	-0.474297	-0.552540
C24	C	-4.012486	-0.504814	-0.438954
N25	N	-4.021238	-0.617953	-0.345845
N26	N	-4.054477	-0.590698	-0.447247
C27	C	-3.916412	-0.105638	-0.622655
C28	C	-3.979014	-0.104964	-0.763865
C29	C	-4.068401	-0.252298	-0.816164
C30	C	-4.142497	-0.325644	-0.908652
C31	C	-4.201317	-0.325007	-1.041329
C32	C	-4.186044	-0.251014	-1.081518
C33	C	-4.111948	-0.177668	-0.989031
C34	C	-4.053125	-0.178313	-0.856354
C35	C	-4.022577	-0.030336	-0.936732
C36	C	-3.963741	-0.030972	-0.804054
C37	C	-4.007304	0.043656	-0.976922
C38	C	-3.933192	0.117005	-0.884433
C39	C	-3.874368	0.116364	-0.751749
C40	C	-3.889645	0.042375	-0.711566
C41	C	-4.209793	0.038697	-0.378977
C42	C	-4.145345	0.128119	-0.370355
C43	C	-4.180036	-0.103013	-0.170431
C44	C	-4.096672	-0.103683	-0.029220
H45	H	-4.113459	-0.517854	-0.651632
H46	H	-4.020480	-0.252824	-0.708133
Cl47	Cl	-4.161706	-0.418659	-0.858122
H48	H	-4.261654	-0.384732	-1.116635
Cl49	Cl	-4.260027	-0.250216	-1.248315
H50	H	-4.055217	0.044170	-1.084956
Cl51	Cl	-3.927633	-0.667103	-0.087571
Cl52	Cl	-4.020270	-0.856749	-0.105869
H53	H	-3.920779	0.177243	-0.917168
Cl54	Cl	-4.055428	-0.351906	-0.687226
H55	H	-3.841740	0.041846	-0.603537
Cl56	Cl	-4.281011	-0.908615	-0.636922
Cl57	Cl	-4.188310	-0.718977	-0.618616
H58	H	-3.814047	0.176092	-0.676450
H59	H	-3.903885	-0.476154	-0.224776
Cl60	Cl	-3.794673	-0.300031	-0.156172
