data_functionalizedCrystal
_audit_creation_method	'MofGen! by Chris Wilmer'
_symmetry_space_group_name_H-M	'P1'
_symmetry_Int_Tables_number	1
_symmetry_cell_setting	triclinic
loop_
_symmetry_equiv_pos_as_xyz
  x,y,z
_cell_length_a	11.026607
_cell_length_b	7.681481
_cell_length_c	10.967971
_cell_angle_alpha	83.741881
_cell_angle_beta	83.619627
_cell_angle_gamma	96.989644
loop_
_atom_site_label
_atom_site_type_symbol
_atom_site_fract_x
_atom_site_fract_y
_atom_site_fract_z
O1	O	1.615460	0.012189	-0.522722
O2	O	2.115460	0.512189	-0.022722
O3	O	1.260277	-0.005562	-0.464234
O4	O	1.760277	0.494438	0.035766
O5	O	1.441866	-0.050215	-0.317050
O6	O	1.941866	0.449785	0.182950
O7	O	1.433870	0.056842	-0.669905
O8	O	1.933870	0.556842	-0.169905
O9	O	1.464215	0.237131	-0.298882
O10	O	1.964215	0.737131	0.201118
O11	O	1.282626	0.281784	-0.446065
O12	O	1.782626	0.781784	0.053935
O13	O	1.637809	0.299535	-0.504554
O14	O	2.137809	0.799535	-0.004554
Zn15	Zn	1.463766	0.336282	-0.472425
Zn16	Zn	1.963766	0.836282	0.027575
Zn17	Zn	1.434320	-0.042309	-0.496362
Zn18	Zn	1.934320	0.457691	0.003638
O19	O	1.456219	0.344188	-0.651737
O20	O	1.956219	0.844188	-0.151737
C21	C	1.225894	0.134837	-0.444359
C22	C	1.725894	0.634837	0.055641
C23	C	1.090148	0.125075	-0.412194
C24	C	1.590148	0.625075	0.087806
N25	N	1.483871	0.594660	-0.456089
N26	N	1.983871	1.094660	0.043911
N27	N	1.414224	-0.300689	-0.512690
N28	N	1.914224	0.199311	-0.012690
C29	C	1.019192	0.152021	-0.501009
C30	C	1.519192	0.652021	-0.001009
C31	C	0.878891	0.141933	-0.467766
C32	C	1.378891	0.641933	0.032234
C33	C	1.672191	0.159132	-0.524428
C34	C	2.172191	0.659132	-0.024428
C35	C	1.807936	0.168882	-0.556594
C36	C	2.307936	0.668882	-0.056594
C37	C	1.450771	0.079536	-0.262091
C38	C	1.950771	0.579536	0.237909
C39	C	1.443991	0.038050	-0.125395
C40	C	1.943991	0.538050	0.374605
C41	C	1.447315	0.214434	-0.706696
C42	C	1.947315	0.714434	-0.206696
C43	C	1.454094	0.255908	-0.843393
C44	C	1.954094	0.755908	-0.343393
C45	C	1.452545	0.168407	-0.055034
C46	C	1.952545	0.668407	0.444966
C47	C	1.445538	0.125533	0.086248
C48	C	1.945538	0.625533	0.586248
H49	H	0.835773	0.111350	-0.367115
H50	H	1.335773	0.611350	0.132885
H51	H	1.554979	0.652341	-0.398325
H52	H	2.054979	1.152341	0.101675
O53	O	1.469121	0.358292	-0.113771
O54	O	1.969121	0.858292	0.386229
H55	H	1.472018	0.362168	-0.215522
H56	H	1.972018	0.862168	0.284478
H57	H	1.433032	-0.017820	0.130599
H58	H	1.933032	0.482180	0.630599
H59	H	1.431485	-0.105293	-0.081039
H60	H	1.931485	0.394707	0.418961
H61	H	1.466612	0.399262	0.112257
H62	H	1.966612	0.899262	0.612257
O63	O	0.865026	0.209331	-0.689928
O64	O	1.365026	0.709331	-0.189928
H65	H	0.966263	0.210895	-0.695120
H66	H	1.466263	0.710895	-0.195120
H67	H	1.062313	0.182568	-0.601656
H68	H	1.562313	0.682568	-0.101656
O69	O	1.320046	0.622923	-0.589213
O70	O	1.820046	1.122923	-0.089213
H71	H	1.271396	0.729857	-0.628767
H72	H	1.771396	1.229857	-0.128767
O73	O	1.033050	0.084624	-0.278868
O74	O	1.533050	0.584624	0.221132
H75	H	0.931812	0.083038	-0.273681
H76	H	1.431812	0.583038	0.226319
