data_functionalizedCrystal
_audit_creation_method	'MofGen! by Chris Wilmer'
_symmetry_space_group_name_H-M	'P1'
_symmetry_Int_Tables_number	1
_symmetry_cell_setting	triclinic
loop_
_symmetry_equiv_pos_as_xyz
  x,y,z
_cell_length_a	26.809956
_cell_length_b	15.995350
_cell_length_c	15.995350
_cell_angle_alpha	83.492375
_cell_angle_beta	90.006575
_cell_angle_gamma	89.994818
loop_
_atom_site_label
_atom_site_type_symbol
_atom_site_fract_x
_atom_site_fract_y
_atom_site_fract_z
O1	O	0.041435	-1.110992	-0.107915
O2	O	0.541435	-0.610992	0.392085
O3	O	0.041445	-0.867217	-0.121242
O4	O	0.541445	-0.367217	0.378758
O5	O	0.041439	-0.995768	0.007309
O6	O	0.541439	-0.495768	0.507309
O7	O	0.041441	-0.982441	-0.236466
O8	O	0.541441	-0.482441	0.263534
O9	O	-0.041520	-0.995744	0.007289
O10	O	0.458480	-0.495744	0.507289
O11	O	-0.041514	-0.867193	-0.121262
O12	O	0.458486	-0.367193	0.378738
O13	O	-0.041524	-1.110968	-0.107934
O14	O	0.458476	-0.610968	0.392066
Zn15	Zn	-0.054691	-0.989076	-0.114601
Zn16	Zn	0.445309	-0.489076	0.385399
Zn17	Zn	0.054611	-0.989108	-0.114575
Zn18	Zn	0.554611	-0.489108	0.385425
O19	O	-0.041519	-0.982416	-0.236486
O20	O	0.458481	-0.482416	0.263514
C21	C	-0.000034	-0.836010	-0.120701
C22	C	0.499966	-0.336010	0.379299
C23	C	-0.000030	-0.743060	-0.119049
C24	C	0.499970	-0.243060	0.380951
N25	N	-0.129287	-0.989061	-0.114618
N26	N	0.370713	-0.489061	0.385382
C27	C	-0.000040	-0.995205	0.038494
C28	C	0.499960	-0.495205	0.538494
C29	C	-0.000037	-0.993553	0.131444
C30	C	0.499963	-0.493553	0.631444
C31	C	-0.473916	-1.046024	-0.057667
C32	C	0.026084	-0.546024	0.442333
C33	C	-0.682793	-1.046043	-0.057654
C34	C	-0.182793	-0.546043	0.442346
O35	O	-0.709799	-1.094441	-0.009237
O36	O	-0.209799	-0.594441	0.490763
N37	N	-0.708914	-0.989113	-0.114557
N38	N	-0.208914	-0.489113	0.385443
C39	C	-0.682812	-0.932170	-0.171463
C40	C	-0.182812	-0.432170	0.328537
O41	O	-0.709822	-0.883741	-0.219857
O42	O	-0.209822	-0.383741	0.280143
C43	C	-0.473936	-0.932146	-0.171471
C44	C	0.026064	-0.432146	0.328529
C45	C	-0.447817	-0.989086	-0.114571
C46	C	0.052183	-0.489086	0.385429
C47	C	-0.447797	-1.102958	-0.000770
C48	C	0.052203	-0.602958	0.499230
C49	C	-0.395581	-1.102956	-0.000777
C50	C	0.104419	-0.602956	0.499223
C51	C	-0.369483	-1.046019	-0.057681
C52	C	0.130517	-0.546019	0.442319
C53	C	-0.395601	-0.989084	-0.114577
C54	C	0.104399	-0.489084	0.385423
C55	C	-0.447835	-0.875200	-0.228373
C56	C	0.052165	-0.375200	0.271627
C57	C	-0.395612	-0.875198	-0.228369
C58	C	0.104388	-0.375198	0.271631
C59	C	-0.369494	-0.932138	-0.171468
C60	C	0.130506	-0.432138	0.328532
C61	C	-0.317287	-0.932144	-0.171488
C62	C	0.182713	-0.432144	0.328512
N63	N	-0.291166	-0.989075	-0.114585
N64	N	0.208834	-0.489075	0.385415
C65	C	-0.317264	-1.046012	-0.057681
C66	C	0.182736	-0.546012	0.442319
C67	C	-0.792476	-0.932187	-0.171456
C68	C	-0.292476	-0.432187	0.328544
C69	C	-0.844695	-0.932194	-0.171455
C70	C	-0.344695	-0.432194	0.328545
C71	C	-0.844672	-1.046067	-0.057645
C72	C	-0.344672	-0.546067	0.442355
C73	C	-0.792452	-1.046063	-0.057650
C74	C	-0.292452	-0.546063	0.442350
C75	C	-0.766355	-0.989117	-0.114553
C76	C	-0.266355	-0.489117	0.385447
C77	C	-0.207606	-1.046003	-0.057701
C78	C	0.292394	-0.546003	0.442299
C79	C	-0.155385	-1.045998	-0.057715
C80	C	0.344615	-0.545998	0.442285
C81	C	-0.155412	-0.932122	-0.171522
C82	C	0.344588	-0.432122	0.328478
C83	C	-0.207629	-0.932130	-0.171511
C84	C	0.292371	-0.432130	0.328489
C85	C	-0.233724	-0.989074	-0.114593
C86	C	0.266276	-0.489074	0.385407
O87	O	-0.290249	-0.883765	-0.219873
O88	O	0.209751	-0.383765	0.280127
O89	O	-0.290245	-1.094421	-0.009283
O90	O	0.209755	-0.594421	0.490717
C91	C	-0.526132	-1.046026	-0.057660
C92	C	-0.026132	-0.546026	0.442340
C93	C	-0.552250	-0.989091	-0.114557
C94	C	-0.052250	-0.489091	0.385443
C95	C	-0.526152	-0.932154	-0.171461
C96	C	-0.026152	-0.432154	0.328539
C97	C	-0.604469	-0.989098	-0.114556
C98	C	-0.104469	-0.489098	0.385444
C99	C	-0.630567	-1.046035	-0.057652
C100	C	-0.130567	-0.546035	0.442348
C101	C	-0.604446	-1.102966	-0.000750
C102	C	-0.104446	-0.602966	0.499250
C103	C	-0.552230	-1.102963	-0.000757
C104	C	-0.052230	-0.602963	0.499243
C105	C	-0.552273	-0.875224	-0.228363
C106	C	-0.052273	-0.375224	0.271637
C107	C	-0.604489	-0.875231	-0.228353
C108	C	-0.104489	-0.375231	0.271647
C109	C	-0.630587	-0.932169	-0.171449
C110	C	-0.130587	-0.432169	0.328551
N111	N	0.129207	-0.989131	-0.114552
N112	N	0.629207	-0.489131	0.385448
C113	C	-0.000045	-1.142175	-0.108476
C114	C	0.499955	-0.642175	0.391524
C115	C	-0.000046	-1.235125	-0.110127
C116	C	0.499954	-0.735125	0.389873
C117	C	-0.000040	-0.405312	-0.113117
C118	C	0.499960	0.094688	0.386883
C119	C	-0.000226	-0.452746	-0.021565
C120	C	0.499774	0.047254	0.478435
C121	C	-0.000035	-0.549436	-0.023217
C122	C	0.499965	-0.049436	0.476783
C123	C	-0.000035	-0.572873	-0.116060
C124	C	0.499965	-0.072873	0.383940
C125	C	0.047337	-0.531799	-0.161205
C126	C	0.547337	-0.031799	0.338795
C127	C	0.047373	-0.435164	-0.158905
C128	C	0.547373	0.064836	0.341095
C129	C	-0.046967	-0.434797	-0.160819
C130	C	0.453033	0.065203	0.339181
C131	C	-0.047590	-0.531742	-0.160797
C132	C	0.452410	-0.031742	0.339203
C133	C	-0.000031	-0.667570	-0.117727
C134	C	0.499969	-0.167570	0.382273
C135	C	-0.000041	-0.310614	-0.111452
C136	C	0.499959	0.189386	0.388548
C137	C	-0.000039	-0.982980	-0.267671
C138	C	0.499961	-0.482980	0.232329
C139	C	-0.000039	-0.984631	-0.360621
C140	C	0.499961	-0.484631	0.139379
C141	C	-0.000038	-0.987621	0.469192
C142	C	0.499962	-0.487621	0.969192
C143	C	0.000152	-0.896069	0.421758
C144	C	0.500152	-0.396069	0.921758
C145	C	-0.000035	-0.897721	0.325068
C146	C	0.499965	-0.397721	0.825068
C147	C	-0.000037	-0.990564	0.301631
C148	C	0.499963	-0.490564	0.801631
C149	C	-0.047412	-1.035706	0.342698
C150	C	0.452588	-0.535706	0.842698
C151	C	-0.047451	-1.033407	0.439333
C152	C	0.452549	-0.533407	0.939333
C153	C	0.046889	-1.035325	0.439714
C154	C	0.546889	-0.535325	0.939714
C155	C	0.047515	-1.035304	0.342769
C156	C	0.547515	-0.535304	0.842769
C157	C	-0.000038	-0.992231	0.206934
C158	C	0.499962	-0.492231	0.706934
C159	C	-0.000040	-0.985956	0.563890
C160	C	0.499960	-0.485956	1.063890
H161	H	-0.134121	-1.092368	-0.011379
H162	H	0.365879	-0.592368	0.488621
H163	H	-0.047287	-0.403036	-0.228320
H164	H	0.452713	0.096964	0.271680
N165	N	-0.049623	-1.121267	0.324958
N166	N	0.450377	-0.621267	0.824958
N167	N	-0.051712	-1.137672	0.250470
N168	N	0.448288	-0.637672	0.750470
H169	H	-0.053272	-1.198099	0.237938
H170	H	0.446728	-0.698099	0.737938
H171	H	-0.228847	-1.092371	-0.011352
H172	H	0.271153	-0.592371	0.488648
H173	H	-0.082665	-1.004333	0.314308
H174	H	0.417335	-0.504333	0.814308
H175	H	-0.469042	-1.149323	0.045571
H176	H	0.030958	-0.649323	0.545571
H177	H	0.033982	-0.577304	0.012526
H178	H	0.533982	-0.077304	0.512526
N179	N	0.049558	-0.549505	-0.246775
N180	N	0.549558	-0.049505	0.253225
N181	N	0.049401	-0.490505	-0.305139
N182	N	0.549401	0.009495	0.194861
H183	H	0.050970	-0.503009	-0.365574
H184	H	0.550970	-0.003009	0.134426
H185	H	0.082561	-1.002299	0.315528
H186	H	0.582561	-0.502299	0.815528
H187	H	-0.082874	-0.414251	-0.130897
H188	H	0.417126	0.085749	0.369103
N189	N	-0.042636	-0.585091	0.021299
N190	N	0.457364	-0.085091	0.521299
N191	N	-0.085541	-0.563213	-0.002711
N192	N	0.414459	-0.063213	0.497289
H193	H	-0.115628	-0.588390	0.028734
H194	H	0.384372	-0.088390	0.528734
N195	N	0.042559	-0.853197	0.289401
N196	N	0.542559	-0.353197	0.789401
N197	N	0.049706	-0.846798	0.211716
N198	N	0.549706	-0.346798	0.711716
H199	H	0.079789	-0.815348	0.186528
H200	H	0.579789	-0.315348	0.686528
H201	H	0.033559	-0.433162	0.014870
H202	H	0.533559	0.066838	0.514870
H203	H	-0.374319	-1.149319	0.045559
H204	H	0.125681	-0.649319	0.545559
H205	H	0.082785	-0.416866	-0.125967
H206	H	0.582785	0.083134	0.374033
H207	H	0.034125	-0.859487	0.440298
H208	H	0.534125	-0.359487	0.940298
H209	H	-0.050451	-0.547107	-0.228501
H210	H	0.449549	-0.047107	0.271499
H211	H	-0.033630	-0.859629	0.441344
H212	H	0.466370	-0.359629	0.941344
H213	H	-0.082864	-1.000468	0.457626
H214	H	0.417136	-0.500468	0.957626
H215	H	-0.049602	-1.100622	0.471581
H216	H	0.450398	-0.600622	0.971581
N217	N	-0.631117	-1.161111	0.057383
N218	N	-0.131117	-0.661111	0.557383
N219	N	-0.660251	-1.134533	0.109368
N220	N	-0.160251	-0.634533	0.609368
H221	H	-0.679089	-1.175591	0.150427
H222	H	-0.179089	-0.675591	0.650427
H223	H	-0.034051	-0.861977	0.297195
H224	H	0.465949	-0.361977	0.797195
N225	N	0.091931	-0.997789	0.465503
N226	N	0.591931	-0.497789	0.965503
N227	N	0.089991	-0.935415	0.505928
N228	N	0.589991	-0.435415	1.005928
H229	H	0.121800	-0.908897	0.524145
H230	H	0.621800	-0.408897	1.024145
H231	H	-0.034198	-0.434214	0.015022
H232	H	0.465802	0.065786	0.515022
H233	H	0.050374	-1.103009	0.327407
H234	H	0.550374	-0.603009	0.827407
N235	N	0.050090	-0.394707	-0.243222
N236	N	0.550090	0.105293	0.256778
N237	N	0.085860	-0.347089	-0.265145
N238	N	0.585860	0.152911	0.234855
H239	H	0.087784	-0.318521	-0.324693
H240	H	0.587784	0.181479	0.175307
H241	H	-0.082635	-0.559049	-0.127842
H242	H	0.417365	-0.059049	0.372158
N243	N	-0.234305	-0.873959	-0.229629
N244	N	0.265695	-0.373959	0.270371
N245	N	-0.228472	-0.796573	-0.228427
N246	N	0.271528	-0.296573	0.271573
H247	H	-0.247310	-0.755481	-0.269467
H248	H	0.252690	-0.255481	0.230533
N249	N	0.091562	-0.567435	-0.121866
N250	N	0.591562	-0.067435	0.378134
N251	N	0.088314	-0.623068	-0.060590
N252	N	0.588314	-0.123068	0.439410
H253	H	0.119547	-0.648245	-0.032809
H254	H	0.619547	-0.148245	0.467191
H255	H	-0.771190	-1.092428	-0.011317
H256	H	-0.271190	-0.592428	0.488683
N257	N	0.047286	-1.120012	0.479536
N258	N	0.547286	-0.620012	0.979536
N259	N	0.011829	-1.168267	0.468394
N260	N	0.511829	-0.668267	0.968394
H261	H	0.012107	-1.228076	0.496517
H262	H	0.512107	-0.728076	0.996517
N263	N	-0.871343	-1.104209	0.000489
N264	N	-0.371343	-0.604209	0.500489
N265	N	-0.917967	-1.104188	0.000485
N266	N	-0.417967	-0.604188	0.500485
H267	H	-0.936807	-1.145240	0.041548
H268	H	-0.436807	-0.645240	0.541548
N269	N	-0.871362	-0.874025	-0.229585
N270	N	-0.371362	-0.374025	0.270415
N271	N	-0.865531	-0.796638	-0.228388
N272	N	-0.365531	-0.296638	0.271612
H273	H	-0.884363	-0.755550	-0.269441
H274	H	-0.384363	-0.255550	0.230559
N275	N	-0.765831	-0.874018	-0.229603
N276	N	-0.265831	-0.374018	0.270397
N277	N	-0.771678	-0.875169	-0.306994
N278	N	-0.271678	-0.375169	0.193006
H279	H	-0.752863	-0.834089	-0.348065
H280	H	-0.252863	-0.334089	0.151935
N281	N	-0.474497	-0.817036	-0.286508
N282	N	0.025503	-0.317036	0.213492
N283	N	-0.451179	-0.766208	-0.337304
N284	N	0.048821	-0.266208	0.162696
H285	H	-0.470008	-0.725126	-0.378367
H286	H	0.029992	-0.225126	0.121633
H287	H	-0.531028	-0.828857	-0.274700
H288	H	-0.031028	-0.328857	0.225300
N289	N	-0.368963	-0.817030	-0.286510
N290	N	0.131037	-0.317030	0.213490
N291	N	-0.374808	-0.818172	-0.363903
N292	N	0.125192	-0.318172	0.136097
H293	H	-0.355988	-0.777092	-0.404968
H294	H	0.144012	-0.277092	0.095032
N295	N	-0.128740	-0.873974	-0.229643
N296	N	0.371260	-0.373974	0.270357
N297	N	-0.082117	-0.873985	-0.229631
N298	N	0.417883	-0.373985	0.270369
H299	H	-0.063278	-0.832914	-0.270676
H300	H	0.436722	-0.332914	0.229324
H301	H	-0.530968	-1.149329	0.045578
H302	H	-0.030968	-0.649329	0.545578
H303	H	-0.625751	-0.828866	-0.274695
H304	H	-0.125751	-0.328866	0.225305
