data_functionalizedCrystal
_audit_creation_method	'MofGen! by Chris Wilmer'
_symmetry_space_group_name_H-M	'P1'
_symmetry_Int_Tables_number	1
_symmetry_cell_setting	triclinic
loop_
_symmetry_equiv_pos_as_xyz
  x,y,z
_cell_length_a	14.971486
_cell_length_b	10.654556
_cell_length_c	9.730223
_cell_angle_alpha	89.998368
_cell_angle_beta	89.995390
_cell_angle_gamma	84.050833
loop_
_atom_site_label
_atom_site_type_symbol
_atom_site_fract_x
_atom_site_fract_y
_atom_site_fract_z
O1	O	0.125658	1.666486	-0.114239
O2	O	0.137621	1.300881	-0.114253
O3	O	0.001493	1.493483	-0.114236
O4	O	0.261786	1.473884	-0.114256
O5	O	0.001489	1.493470	0.114344
O6	O	0.137618	1.300868	0.114327
O7	O	0.125654	1.666474	0.114341
Zn8	Zn	0.131635	1.483669	0.150626
Zn9	Zn	0.131640	1.483685	-0.150538
O10	O	0.261783	1.473872	0.114324
C11	C	0.136740	1.254086	0.000035
C12	C	0.134108	1.114671	0.000030
C13	C	0.130405	0.918172	-0.124558
C14	C	0.132872	1.049168	-0.124567
C15	C	0.132868	1.049173	0.124644
C16	C	0.130394	0.918181	0.124651
C17	C	-0.031838	1.492600	0.000054
C18	C	-0.131150	1.489973	0.000053
C19	C	-0.187757	1.603122	0.000058
C20	C	-0.281070	1.600647	0.000044
C21	C	-0.317774	1.485021	0.000035
C22	C	-0.261159	1.371864	0.000025
C23	C	-0.167848	1.374341	0.000029
C24	C	-0.455649	1.366710	0.000020
C25	C	-0.548967	1.364233	0.000018
C26	C	-0.568872	1.593016	0.000035
C27	C	-0.475561	1.595492	0.000039
C28	C	-0.418952	1.482335	0.000032
C29	C	0.295114	1.474755	0.000031
C30	C	0.394425	1.477381	0.000024
C31	C	0.126536	1.713269	0.000050
C32	C	0.129167	1.852683	0.000046
N33	N	0.131632	1.483667	0.356162
N34	N	0.131637	1.483697	-0.356074
C35	C	0.071380	1.568980	0.428096
C36	C	0.071380	1.568993	0.571979
C37	C	0.191892	1.398375	0.571982
C38	C	0.191887	1.398358	0.428102
H39	H	-0.157881	1.697277	0.000074
C40	C	0.258175	1.304554	0.651120
H41	H	0.249557	1.316791	0.747113
H42	H	0.247906	1.220727	0.627562
H43	H	0.317964	1.318284	0.627519
H44	H	0.129386	0.864859	0.226125
H45	H	0.240951	1.328879	0.369530
C46	C	0.134203	1.121222	0.261701
H47	H	0.133096	1.063457	0.335912
H48	H	0.187229	1.162837	0.266898
H49	H	0.083086	1.181810	0.266859
C50	C	0.129053	0.846129	-0.261617
H51	H	0.130137	0.903899	-0.335826
H52	H	0.180158	0.785533	-0.266798
H53	H	0.076015	0.804527	-0.266793
C54	C	0.134239	1.121200	-0.261631
H55	H	0.133161	1.063426	-0.335834
H56	H	0.083137	1.181798	-0.266818
H57	H	0.187279	1.162800	-0.266813
H58	H	0.022316	1.638461	0.630543
H59	H	-0.445680	1.689644	0.000056
C60	C	-0.343335	1.725110	0.000064
H61	H	-0.308112	1.794326	0.000090
H62	H	-0.380146	1.728916	-0.079647
H63	H	-0.380152	1.728885	0.079785
C64	C	-0.631133	1.717490	0.000039
H65	H	-0.595910	1.786706	0.000064
H66	H	-0.667943	1.721294	-0.079673
H67	H	-0.667952	1.721268	0.079759
C68	C	-0.105575	1.249881	0.000023
H69	H	-0.044746	1.267915	0.000012
H70	H	-0.116779	1.202464	0.079727
H71	H	-0.116775	1.202487	-0.079704
C72	C	-0.589340	1.237048	-0.000024
H73	H	-0.542263	1.170010	-0.000053
H74	H	-0.625335	1.231304	0.079679
H75	H	-0.625319	1.231359	-0.079753
C76	C	-0.393382	1.242239	0.000014
H77	H	-0.428603	1.173021	0.000022
H78	H	-0.356560	1.238451	-0.079693
H79	H	-0.356575	1.238449	0.079739
H80	H	-0.291050	1.277720	0.000009
H81	H	0.022315	1.638443	0.369526
