data_functionalizedCrystal
_audit_creation_method	'MofGen! by Chris Wilmer'
_symmetry_space_group_name_H-M	'P1'
_symmetry_Int_Tables_number	1
_symmetry_cell_setting	triclinic
loop_
_symmetry_equiv_pos_as_xyz
  x,y,z
_cell_length_a	16.120530
_cell_length_b	17.077402
_cell_length_c	17.077396
_cell_angle_alpha	89.970216
_cell_angle_beta	87.083390
_cell_angle_gamma	87.118337
loop_
_atom_site_label
_atom_site_type_symbol
_atom_site_fract_x
_atom_site_fract_y
_atom_site_fract_z
Zn1	Zn	-1.274550	0.373441	0.504614
Zn2	Zn	-0.774550	0.873441	1.004614
Zn3	Zn	-1.274451	0.504712	0.373340
Zn4	Zn	-0.774451	1.004712	0.873340
Zn5	Zn	-1.135133	0.366803	0.366714
Zn6	Zn	-0.635133	0.866803	0.866714
Zn7	Zn	-1.135099	0.498002	0.497919
Zn8	Zn	-0.635099	0.998002	0.997919
O9	O	-1.204808	0.435740	0.435647
O10	O	-0.704808	0.935740	0.935647
O11	O	-1.391202	0.396441	0.492775
O12	O	-0.891202	0.896441	0.992775
O13	O	-1.255943	0.486447	0.262613
O14	O	-0.755943	0.986447	0.762613
O15	O	-1.153682	0.257840	0.385035
O16	O	-0.653682	0.757840	0.885035
O17	O	-1.391130	0.492884	0.396329
O18	O	-0.891130	0.992884	0.896329
O19	O	-1.256111	0.262717	0.486350
O20	O	-0.756111	0.762717	0.986350
O21	O	-1.153587	0.385127	0.257744
O22	O	-0.653587	0.885127	0.757744
O23	O	-1.018463	0.378621	0.378543
O24	O	-0.518463	0.878621	0.878543
O25	O	-1.153624	0.481449	0.608655
O26	O	-0.653624	0.981449	1.108655
O27	O	-1.018438	0.475013	0.474939
O28	O	-0.518438	0.975013	0.974939
O29	O	-1.256078	0.389935	0.613574
O30	O	-0.756078	0.889935	1.113574
O31	O	-1.255910	0.613666	0.389837
O32	O	-0.755910	1.113666	0.889837
O33	O	-1.153529	0.608737	0.481364
O34	O	-0.653529	1.108737	0.981364
C35	C	-0.988200	0.425369	0.425296
C36	C	-0.488200	0.925369	0.925296
C37	C	-0.895534	0.420951	0.420886
C38	C	-0.395534	0.920951	0.920886
C39	C	-1.204728	0.639684	0.435611
C40	C	-0.704728	1.139684	0.935611
C41	C	-1.204769	0.726935	0.435626
C42	C	-0.704769	1.226935	0.935626
C43	C	-1.422262	0.446151	0.446038
C44	C	-0.922262	0.946151	0.946038
C45	C	-1.514928	0.450588	0.450467
C46	C	-1.014928	0.950588	0.950467
C47	C	-0.725872	0.412868	0.412842
C48	C	-0.225872	0.912868	0.912842
C49	C	-0.684584	0.458669	0.458508
C50	C	-0.184584	0.958669	0.958508
C51	C	-0.590179	0.454172	0.454033
C52	C	-0.090179	0.954172	0.954033
C53	C	-0.820286	0.417364	0.417317
C54	C	-0.320286	0.917364	0.917317
C55	C	-1.204859	0.435684	0.640393
C56	C	-0.704859	0.935684	1.140393
C57	C	-1.204880	0.435661	0.727644
C58	C	-0.704880	0.935661	1.227644
C59	C	-1.204912	0.231000	0.435700
C60	C	-0.704912	0.731000	0.935700
C61	C	-1.204956	0.143753	0.435723
C62	C	-0.704956	0.643753	0.935723
C63	C	-1.258134	0.770469	0.388025
C64	C	-0.758134	1.270469	0.888025
C65	C	-1.258175	0.852451	0.388047
C66	C	-0.758175	1.352451	0.888047
C67	C	-1.204846	0.890898	0.435667
C68	C	-0.704846	1.390898	0.935667
C69	C	-1.151479	0.847359	0.483274
C70	C	-0.651479	1.347359	0.983274
C71	C	-1.151443	0.765379	0.483255
C72	C	-0.651443	1.265379	0.983255
C73	C	-1.151557	1.018233	0.483307
C74	C	-0.651557	1.518233	0.983307
C75	C	-1.151591	1.100219	0.483325
C76	C	-0.651591	1.600219	0.983325
C77	C	-1.258288	1.105305	0.388098
C78	C	-0.758288	1.605305	0.888098
C79	C	-1.258252	1.023325	0.388080
C80	C	-0.758252	1.523325	0.888080
C81	C	-1.204884	0.979791	0.435686
C82	C	-0.704884	1.479791	0.935686
C83	C	-1.204806	0.435740	0.231699
C84	C	-0.704806	0.935740	0.731699
C85	C	-1.204946	0.435551	0.144456
C86	C	-0.704946	0.935551	0.644456
C87	C	-1.258230	0.388005	0.771197
C88	C	-0.758230	0.888005	1.271197
C89	C	-1.258240	0.387979	0.853178
C90	C	-0.758240	0.887979	1.353178
C91	C	-1.204904	0.435614	0.891605
C92	C	-0.704904	0.935614	1.391605
C93	C	-1.151548	0.483272	0.848046
C94	C	-0.651548	0.983272	1.348046
C95	C	-1.151534	0.483292	0.766066
C96	C	-0.651534	0.983292	1.266066
C97	C	-1.151582	0.483226	1.018918
C98	C	-0.651582	0.983226	1.518918
C99	C	-1.151596	0.483206	1.100903
C100	C	-0.651596	0.983206	1.600903
C101	C	-1.258287	0.387913	1.106030
C102	C	-0.758287	0.887913	1.606030
C103	C	-1.258273	0.387934	1.024050
C104	C	-0.758273	0.887934	1.524050
C105	C	-1.204919	0.435593	0.980497
C106	C	-0.704919	0.935593	1.480497
H107	H	-0.720138	0.501259	0.500966
H108	H	-0.220138	1.001259	1.000966
H109	H	-1.301665	0.349218	0.739916
H110	H	-0.801665	0.849218	1.239916
H111	H	-1.108163	0.521993	1.132188
H112	H	-0.608163	1.021993	1.632188
H113	H	-1.108118	0.522054	0.879340
H114	H	-0.608118	1.022054	1.379340
O115	O	-1.093989	0.534693	0.719092
O116	O	-0.593989	1.034693	1.219092
H117	H	-1.102932	0.526698	0.655630
H118	H	-0.602932	1.026698	1.155630
O119	O	-1.093997	0.971275	0.534653
O120	O	-0.593997	1.471275	1.034653
H121	H	-1.051594	0.931952	0.497449
H122	H	-0.551594	1.431952	0.997449
H123	H	-1.301684	0.349175	0.888636
H124	H	-0.801684	0.849175	1.388636
H125	H	-1.301556	0.739170	0.349243
H126	H	-0.801556	1.239170	0.849243
H127	H	-0.690321	0.370281	0.370388
H128	H	-0.190321	0.870281	0.870388
O129	O	-1.315832	0.336508	1.153004
O130	O	-0.815832	0.836508	1.653004
H131	H	-1.352926	0.303397	1.112511
H132	H	-0.852926	0.803397	1.612511
O133	O	-1.315727	0.899408	0.336700
O134	O	-0.815727	1.399408	0.836700
H135	H	-1.352794	0.858900	0.303576
H136	H	-0.852794	1.358900	0.803576
O137	O	-1.094084	1.141693	0.534694
O138	O	-0.594084	1.641693	1.034694
H139	H	-1.056978	1.097651	0.567805
H140	H	-0.556978	1.597651	1.067805
O141	O	-1.315771	0.981851	0.336723
O142	O	-0.815771	1.481851	0.836723
H143	H	-1.352895	1.025894	0.303629
H144	H	-0.852895	1.525894	0.803629
O145	O	-1.315860	1.152253	0.336757
O146	O	-0.815860	1.652253	0.836757
H147	H	-1.306937	1.215718	0.344777
H148	H	-0.806937	1.715718	0.844777
O149	O	-1.093952	0.888829	0.534626
O150	O	-0.593952	1.388829	1.034626
H151	H	-1.131252	0.927915	0.576377
H152	H	-0.631252	1.427915	1.076377
H153	H	-1.107990	0.729934	0.522019
H154	H	-0.607990	1.229934	1.022019
H155	H	-1.108122	0.522022	0.983458
H156	H	-0.608122	1.022022	1.483458
O157	O	-1.315802	0.336562	0.982599
O158	O	-0.815802	0.836562	1.482599
H159	H	-1.352901	0.303414	1.026655
H160	H	-0.852901	0.803414	1.526655
