data_functionalizedCrystal
_audit_creation_method	'MofGen! by Chris Wilmer'
_symmetry_space_group_name_H-M	'P1'
_symmetry_Int_Tables_number	1
_symmetry_cell_setting	triclinic
loop_
_symmetry_equiv_pos_as_xyz
  x,y,z
_cell_length_a	10.654550
_cell_length_b	23.532407
_cell_length_c	9.730223
_cell_angle_alpha	89.990960
_cell_angle_beta	89.999957
_cell_angle_gamma	83.666804
loop_
_atom_site_label
_atom_site_type_symbol
_atom_site_fract_x
_atom_site_fract_y
_atom_site_fract_z
O1	O	1.665305	0.079985	-0.114203
O2	O	1.299585	0.087605	-0.114230
O3	O	1.493473	0.000935	-0.114191
O4	O	1.471417	0.166655	-0.114242
O5	O	1.493461	0.000933	0.114389
O6	O	1.299573	0.087603	0.114350
O7	O	1.665293	0.079982	0.114377
Zn8	Zn	1.482431	0.083792	0.150655
Zn9	Zn	1.482447	0.083795	-0.150508
O10	O	1.471404	0.166652	0.114337
C11	C	1.252799	0.087044	0.000057
C12	C	1.113408	0.085370	0.000048
C13	C	1.492905	-0.020286	0.000103
C14	C	1.491217	-0.083514	0.000113
C15	C	1.032306	0.136400	0.000036
C16	C	0.901335	0.134824	0.000060
C17	C	0.932582	0.031183	0.000103
C18	C	1.063550	0.032760	0.000089
C19	C	1.595364	-0.481938	0.000046
C20	C	1.593795	-0.541349	0.000035
O21	O	1.690341	-0.577464	-0.000009
N22	N	1.478529	-0.564726	0.000028
C23	C	1.364824	-0.528689	0.000017
O24	O	1.266636	-0.554029	0.000008
C25	C	1.366394	-0.469280	0.000018
C26	C	1.481668	-0.445906	0.000039
C27	C	1.710629	-0.458564	0.000066
C28	C	1.712197	-0.399158	0.000079
C29	C	1.598500	-0.363126	0.000072
C30	C	1.483236	-0.386500	0.000052
C31	C	1.252690	-0.433244	-0.000003
C32	C	1.254270	-0.373831	-0.000003
C33	C	1.369544	-0.350458	0.000018
C34	C	1.371107	-0.291061	0.000058
N35	N	1.486374	-0.267684	0.000066
C36	C	1.600070	-0.303716	0.000073
C37	C	1.361535	-0.653453	0.000013
C38	C	1.359964	-0.712861	0.000022
C39	C	1.588936	-0.725517	0.000038
C40	C	1.590506	-0.666108	0.000038
C41	C	1.476802	-0.630076	0.000020
C42	C	1.603355	-0.178958	0.000101
C43	C	1.604913	-0.119546	0.000120
C44	C	1.375942	-0.106896	0.000097
C45	C	1.374383	-0.166303	0.000086
C46	C	1.488100	-0.202333	0.000083
O47	O	1.274613	-0.254911	0.000096
O48	O	1.698241	-0.278369	0.000063
C49	C	1.712079	0.080543	0.000087
C50	C	1.851469	0.082217	0.000087
C51	C	1.471972	0.187873	0.000041
C52	C	1.473661	0.251101	0.000022
N53	N	1.482429	0.083790	0.356192
N54	N	1.482459	0.083793	-0.356045
C55	C	1.568311	0.045429	0.428135
C56	C	1.568324	0.045429	0.572018
C57	C	1.396567	0.122156	0.572002
C58	C	1.396550	0.122153	0.428121
H59	H	1.072896	0.179239	0.000013
N60	N	0.878789	-0.025554	0.000130
H61	H	0.908405	-0.047935	-0.084597
H62	H	0.908426	-0.047890	0.084928
N63	N	1.151037	-0.022282	0.000118
H64	H	1.099581	-0.055849	0.000138
H65	H	1.206056	-0.023886	-0.084621
N66	N	1.660919	0.004039	0.350573
H67	H	1.613236	-0.021379	0.290906
H68	H	1.716228	0.026065	0.290930
H69	H	1.638255	0.014191	0.630591
H70	H	1.698787	-0.100519	0.000141
H71	H	1.326648	0.153392	0.630581
H72	H	1.266096	-0.731886	0.000028
N73	N	1.303905	0.163525	0.350513
H74	H	1.249508	0.187831	0.417910
H75	H	1.351646	0.188903	0.290788
H76	H	1.158822	-0.452264	-0.000029
N77	N	0.813859	0.189863	0.000124
H78	H	0.865322	0.223428	0.000121
H79	H	0.758794	0.191486	-0.084581
N80	N	1.836536	-0.373958	0.000090
H81	H	1.886305	-0.387064	-0.084646
H82	H	1.820200	-0.330859	0.000144
N83	N	1.726003	-0.217814	0.000099
H84	H	1.799252	-0.193984	0.000116
H85	H	1.730338	-0.242746	0.084834
N86	N	1.833269	-0.497422	0.000074
H87	H	1.906515	-0.473591	0.000088
H88	H	1.837602	-0.522350	0.084816
N89	N	1.714839	-0.640903	0.000057
H90	H	1.720609	-0.616531	-0.084675
H91	H	1.720514	-0.616571	0.084850
N92	N	1.711571	-0.764386	0.000045
H93	H	1.693075	-0.805567	0.000037
H94	H	1.761843	-0.756761	-0.084689
H95	H	1.268937	-0.624119	0.000010
N96	N	1.250056	-0.191517	0.000082
H97	H	1.178269	-0.159674	0.000084
H98	H	1.244423	-0.215879	-0.084667
H99	H	1.161675	-0.344497	-0.000020
N100	N	1.253316	-0.068027	0.000127
H101	H	1.271812	-0.026846	0.000142
H102	H	1.203038	-0.075632	-0.084610
