data_functionalizedCrystal
_audit_creation_method	'MofGen! by Chris Wilmer'
_symmetry_space_group_name_H-M	'P1'
_symmetry_Int_Tables_number	1
_symmetry_cell_setting	triclinic
loop_
_symmetry_equiv_pos_as_xyz
  x,y,z
_cell_length_a	17.000383
_cell_length_b	16.098524
_cell_length_c	14.519731
_cell_angle_alpha	93.060845
_cell_angle_beta	79.644578
_cell_angle_gamma	93.248674
loop_
_atom_site_label
_atom_site_type_symbol
_atom_site_fract_x
_atom_site_fract_y
_atom_site_fract_z
O1	O	1.059335	0.069315	0.036664
O2	O	0.827652	0.069304	0.070128
O3	O	0.949627	0.069302	-0.081351
O4	O	0.937360	0.069317	0.188142
O5	O	0.943252	-0.069212	-0.088200
O6	O	0.821277	-0.069210	0.063279
O7	O	1.052959	-0.069199	0.029815
Zn8	Zn	0.936106	-0.091197	0.045459
Zn9	Zn	0.944505	0.091302	0.054483
O10	O	0.930984	-0.069197	0.181293
C11	C	0.794813	0.000046	0.068500
C12	C	0.706462	0.000042	0.073844
N13	N	0.930379	-0.215747	0.039300
C14	C	0.206298	0.000075	0.108355
C15	C	0.289314	0.000074	0.103326
C16	C	0.340178	0.000063	0.016040
C17	C	0.308024	0.000061	-0.066222
C18	C	0.225010	0.000068	-0.061192
C19	C	0.591294	0.000047	-0.003388
C20	C	0.674313	0.000038	-0.008411
C21	C	0.655598	0.000052	0.161137
C22	C	0.572583	0.000054	0.166159
C23	C	0.540436	0.000056	0.083897
C24	C	0.425033	0.000059	0.010898
C25	C	0.455582	0.000066	0.089041
C26	C	0.976724	-0.259323	0.089193
C27	C	0.972729	-0.346513	0.084877
C28	C	0.922384	-0.390125	0.030673
C29	C	0.876037	-0.346542	-0.019226
C30	C	0.880037	-0.259354	-0.014915
C31	C	0.907891	-0.653378	0.015047
C32	C	0.903893	-0.740572	0.010742
C33	C	1.000587	-0.740536	0.114845
C34	C	1.004579	-0.653347	0.119155
C35	C	0.958235	-0.609772	0.069252
C36	C	0.918297	-0.479247	0.026262
C37	C	0.962327	-0.520652	0.073658
C38	C	1.085798	0.000061	0.031442
C39	C	1.174149	0.000070	0.026099
C40	C	0.945864	0.000045	-0.119087
C41	C	0.944142	0.000044	-0.221324
N42	N	0.950238	0.215852	0.060635
C43	C	0.942742	0.000046	-0.304352
C44	C	0.940994	0.000052	-0.408515
C45	C	0.939606	0.000058	-0.491539
C46	C	0.937857	0.000062	-0.595709
C47	C	0.934747	0.000062	0.219030
C48	C	0.936470	0.000068	0.321267
H49	H	0.164889	0.000077	0.179432
Br50	Br	1.030656	-0.461463	0.147213
Br51	Br	1.063478	-0.799678	0.182566
H52	H	0.681781	0.000051	0.228110
Br53	Br	0.377053	0.000051	-0.184683
H54	H	0.565131	0.000047	-0.070371
Br55	Br	0.849968	-0.538441	-0.047293
H56	H	0.414165	0.000079	0.160109
Br57	Br	0.503558	0.000073	0.284623
Br58	Br	0.332942	0.000087	0.214964
H59	H	0.466456	0.000047	-0.060171
Br60	Br	0.807713	-0.405729	-0.092795
Br61	Br	0.743344	0.000021	-0.126879
H62	H	1.045578	-0.617844	0.163291
Br63	Br	0.181378	0.000065	-0.172829
H64	H	1.017716	-0.223821	0.133338
H65	H	1.010470	-0.381989	0.125504
H66	H	0.862891	-0.776078	-0.033397
H67	H	0.870155	-0.617909	-0.025588
Br68	Br	0.817149	-0.200214	-0.082645
