data_functionalizedCrystal
_audit_creation_method	'MofGen! by Chris Wilmer'
_symmetry_space_group_name_H-M	'P1'
_symmetry_Int_Tables_number	1
_symmetry_cell_setting	triclinic
loop_
_symmetry_equiv_pos_as_xyz
  x,y,z
_cell_length_a	16.992694
_cell_length_b	16.974885
_cell_length_c	9.730223
_cell_angle_alpha	86.349143
_cell_angle_beta	89.997895
_cell_angle_gamma	87.024242
loop_
_atom_site_label
_atom_site_type_symbol
_atom_site_fract_x
_atom_site_fract_y
_atom_site_fract_z
O1	O	1.040209	0.167645	0.095480
O2	O	0.811926	0.165806	0.095725
O3	O	0.932432	0.052026	0.108344
O4	O	0.919704	0.281425	0.082860
O5	O	0.932423	0.052025	-0.120236
O6	O	0.811918	0.165805	-0.132855
O7	O	1.040201	0.167645	-0.133100
Zn8	Zn	0.926058	0.166725	-0.169270
Zn9	Zn	0.926069	0.166726	0.131894
O10	O	0.919695	0.281425	-0.145719
C11	C	0.782712	0.163440	-0.018297
C12	C	0.695675	0.156380	-0.017497
C13	C	0.931944	0.022537	-0.002667
C14	C	0.930492	-0.065331	0.007104
C15	C	0.929803	-0.106618	-0.112898
C16	C	0.928444	-0.189180	-0.103705
C17	C	0.927767	-0.230451	0.025491
C18	C	0.928459	-0.189158	0.145503
C19	C	0.929823	-0.106598	0.136309
C20	C	0.923691	-0.477366	0.066350
C21	C	0.922324	-0.559931	0.075535
C22	C	0.922311	-0.559947	-0.173674
C23	C	0.923671	-0.477386	-0.182857
C24	C	0.924366	-0.436100	-0.062846
N25	N	0.926376	-0.314842	0.034891
N26	N	0.925763	-0.351712	-0.072247
C27	C	0.645361	0.224495	-0.025065
C28	C	0.563582	0.217857	-0.024346
C29	C	0.532118	0.143104	-0.016050
C30	C	0.582438	0.074984	-0.008486
C31	C	0.664216	0.081622	-0.009214
C32	C	0.288550	0.115589	-0.013030
C33	C	0.206766	0.108956	-0.012299
C34	C	0.187915	0.251830	-0.028162
C35	C	0.269695	0.258462	-0.028881
C36	C	0.320008	0.190342	-0.021324
N37	N	0.448526	0.136317	-0.015311
N38	N	0.403598	0.197129	-0.022073
C39	C	1.069415	0.170011	-0.019075
C40	C	1.156452	0.177070	-0.019866
C41	C	0.920183	0.310914	-0.034706
C42	C	0.921635	0.398781	-0.044468
N43	N	0.926056	0.166724	-0.374806
C44	C	0.973554	0.217711	-0.452400
C45	C	0.973567	0.217707	-0.596282
C46	C	0.878577	0.115728	-0.584964
C47	C	0.878569	0.115729	-0.441084
N48	N	0.926077	0.166720	0.337431
H49	H	0.930340	-0.073020	-0.218104
C50	C	0.856682	-0.447445	0.275386
C51	C	0.924400	-0.432052	0.198336
H52	H	0.857104	-0.419482	0.356889
H53	H	0.855790	-0.502529	0.299224
H54	H	0.811226	-0.430752	0.222302
H55	H	0.969856	-0.448751	0.251417
H56	H	0.925299	-0.376957	0.174501
C57	C	0.860621	-0.209950	-0.313765
C58	C	0.927670	-0.234547	-0.235633
H59	H	0.860140	-0.237958	-0.395215
H60	H	0.861537	-0.154879	-0.337696
H61	H	0.814712	-0.220347	-0.261374
H62	H	0.973580	-0.224145	-0.288020
H63	H	0.926761	-0.289631	-0.211704
H64	H	0.921746	-0.593571	-0.271380
H65	H	0.927913	-0.222768	0.250697
H66	H	0.921766	-0.593532	0.180748
H67	H	0.705182	0.026156	-0.003051
C68	C	0.929690	-0.114869	0.383562
C69	C	0.930576	-0.061212	0.268219
H70	H	0.930152	-0.086848	0.464998
H71	H	0.974853	-0.150211	0.382306
H72	H	0.883455	-0.143929	0.381615
H73	H	0.976814	-0.032155	0.270161
H74	H	0.885408	-0.025856	0.269476
C75	C	1.104865	0.257142	-0.644924
C76	C	1.025777	0.273756	-0.681570
H77	H	1.137098	0.291750	-0.697572
H78	H	1.119493	0.203982	-0.662604
H79	H	1.111642	0.264441	-0.549745
H80	H	1.019000	0.266452	-0.776747
H81	H	1.011145	0.326929	-0.663900
H82	H	0.181152	0.048080	-0.005541
H83	H	0.839914	0.074210	-0.638946
C84	C	0.522330	0.337582	0.079879
C85	C	0.508278	0.292732	-0.032655
H86	H	0.488184	0.383807	0.074750
H87	H	0.575531	0.352227	0.078253
H88	H	0.512790	0.307130	0.162956
H89	H	0.517824	0.323183	-0.115732
H90	H	0.455064	0.278088	-0.031042
H91	H	0.670972	0.285367	-0.031819
H92	H	1.012221	0.259235	-0.398441
H93	H	0.839890	0.074205	-0.377904
H94	H	0.329506	0.060121	-0.006878
C95	C	0.386683	0.332075	-0.036945
C96	C	0.304278	0.340633	-0.037940
H97	H	0.408031	0.382805	-0.042507
H98	H	0.403968	0.303842	-0.113534
H99	H	0.403934	0.303783	0.045895
H100	H	0.287027	0.368920	-0.120785
H101	H	0.286986	0.368877	0.038656
C102	C	0.054185	0.305096	-0.034101
C103	C	0.132609	0.326704	-0.036486
H104	H	0.020043	0.351323	-0.039254
H105	H	0.044653	0.274665	0.048985
H106	H	0.044669	0.274655	-0.110436
H107	H	0.142126	0.357140	0.039854
H108	H	0.142144	0.357148	-0.119583
H109	H	0.556814	0.014118	-0.001751
H110	H	0.924238	-0.443790	-0.288062
