data_functionalizedCrystal
_audit_creation_method	'MofGen! by Chris Wilmer'
_symmetry_space_group_name_H-M	'P1'
_symmetry_Int_Tables_number	1
_symmetry_cell_setting	triclinic
loop_
_symmetry_equiv_pos_as_xyz
  x,y,z
_cell_length_a	35.277640
_cell_length_b	35.288085
_cell_length_c	35.277682
_cell_angle_alpha	59.997005
_cell_angle_beta	89.996902
_cell_angle_gamma	59.999936
loop_
_atom_site_label
_atom_site_type_symbol
_atom_site_fract_x
_atom_site_fract_y
_atom_site_fract_z
O1	O	0.260035	0.334272	-0.011290
O2	O	0.204913	0.256671	0.011213
O3	O	0.204912	0.334269	-0.066411
O4	O	0.260036	0.256674	0.066334
O5	O	0.267959	0.271241	-0.066410
O6	O	0.267960	0.193643	0.011213
O7	O	0.323082	0.271244	-0.011290
Cu8	Cu	0.301277	0.226688	-0.000038
Cu9	Cu	0.226717	0.301226	-0.000038
O10	O	0.323083	0.193646	0.066334
C11	C	0.364509	0.388002	-0.023608
C12	C	0.341119	0.361397	-0.020385
C13	C	0.341590	0.433930	-0.023931
C14	C	0.433150	0.388005	-0.023613
C15	C	0.483152	0.361403	-0.020395
C16	C	0.410127	0.433934	-0.023935
C17	C	0.364507	0.456628	-0.023613
C18	C	0.341115	0.503398	-0.020396
C19	C	0.410129	0.365412	-0.023930
C20	C	0.322217	0.541183	-0.017796
C21	C	0.322222	0.339902	-0.017781
C22	C	0.523548	0.339911	-0.017795
C23	C	0.298508	0.588586	-0.014535
C24	C	0.298515	0.312936	-0.014514
C25	C	0.574227	0.312949	-0.014533
C26	C	0.027625	0.061861	0.034093
C27	C	0.050647	0.015934	0.034413
C28	C	0.096269	0.061859	0.034096
C29	C	0.119187	0.015932	0.034415
C30	C	0.096268	-0.006762	0.034093
C31	C	0.050648	0.084451	0.034416
C32	C	-0.137907	0.185442	0.021664
C33	C	-0.184784	0.210707	0.018150
C34	C	-0.208300	0.189023	0.016384
C35	C	-0.259130	0.216420	0.012564
C36	C	-0.184935	0.142070	0.018137
C37	C	-0.138060	0.116805	0.021657
C38	C	-0.114546	0.138493	0.023421
C39	C	0.138183	-0.159817	0.021660
C40	C	0.159788	-0.203166	0.018145
C41	C	0.204994	-0.224912	0.016380
C42	C	0.228421	-0.271908	0.012562
C43	C	0.228596	-0.203308	0.018136
C44	C	0.206995	-0.159967	0.021659
C45	C	0.161783	-0.138221	0.023418
C46	C	0.138188	0.185434	0.021675
C47	C	0.159792	0.210701	0.018157
C48	C	0.205000	0.189015	0.016394
C49	C	0.228426	0.216410	0.012578
C50	C	0.228599	0.142067	0.018145
C51	C	0.206993	0.116804	0.021661
C52	C	0.161787	0.138489	0.023430
C53	C	-0.063718	0.111096	0.027234
C54	C	-0.023203	0.089258	0.030276
C55	C	0.119693	0.089254	0.030281
C56	C	0.138365	0.111090	0.027242
C57	C	0.119691	-0.053758	0.030275
C58	C	0.138362	-0.091221	0.027233
C59	C	0.095977	0.466060	-0.438568
C60	C	0.050357	0.511987	-0.461486
C61	C	0.095977	0.466060	-0.369925
C62	C	0.050357	0.511987	-0.392947
C63	C	0.027334	0.534682	-0.438567
C64	C	0.118895	0.443469	-0.392948
C65	C	0.207165	0.342481	-0.480485
C66	C	0.228922	0.317217	-0.502090
C67	C	0.205467	0.338902	-0.547297
C68	C	0.229053	0.311506	-0.570722
C69	C	0.160254	0.385855	-0.570898
C70	C	0.138502	0.411119	-0.549295
C71	C	0.161960	0.389430	-0.504086
C72	C	-0.138197	0.687740	-0.549753
C73	C	-0.185073	0.731090	-0.571510
C74	C	-0.208591	0.752835	-0.548056
C75	C	-0.259418	0.799832	-0.571639
C76	C	-0.185226	0.731230	-0.502843
C77	C	-0.138349	0.687888	-0.481090
C78	C	-0.114837	0.666143	-0.504550
C79	C	0.207165	0.342481	-0.204394
C80	C	0.228921	0.317213	-0.157515
C81	C	0.205465	0.338898	-0.133999
C82	C	0.229051	0.311502	-0.083169
C83	C	0.160254	0.385847	-0.157362
C84	C	0.138500	0.411111	-0.204239
C85	C	0.161962	0.389426	-0.227753
C86	C	0.138368	0.416826	-0.480662
C87	C	0.119564	0.438664	-0.461991
C88	C	0.119565	0.438664	-0.319097
C89	C	0.138368	0.416826	-0.278582
C90	C	-0.023493	0.581679	-0.462154
C91	C	-0.064008	0.619142	-0.480957
O92	O	0.724110	0.193655	0.011196
O93	O	0.591365	0.271256	-0.011308
O94	O	0.668977	0.193662	0.066316
O95	O	0.646498	0.271249	-0.066428
O96	O	0.668975	0.256693	0.066311
O97	O	0.591364	0.334288	-0.011313
O98	O	0.724108	0.256686	0.011190
Cu99	Cu	0.657736	0.301242	-0.000062
Cu100	Cu	0.657738	0.226700	-0.000056
O101	O	0.646497	0.334281	-0.066434
O102	O	0.267953	0.712704	0.011194
O103	O	0.323075	0.602495	-0.011309
O104	O	0.323072	0.602484	0.066315
O105	O	0.267956	0.712715	-0.066430
O106	O	0.260024	0.602489	0.066309
O107	O	0.260027	0.602500	-0.011315
O108	O	0.204904	0.712709	0.011188
Cu109	Cu	0.226709	0.657605	-0.000064
Cu110	Cu	0.301271	0.657599	-0.000057
O111	O	0.204907	0.712719	-0.066436
O112	O	-0.408921	0.925433	-0.602616
O113	O	-0.276178	0.815217	-0.547497
O114	O	-0.353795	0.815213	-0.547490
O115	O	-0.331304	0.925436	-0.602624
O116	O	-0.353797	0.815215	-0.610537
O117	O	-0.276180	0.815218	-0.610544
O118	O	-0.408923	0.925434	-0.665664
Cu119	Cu	-0.342551	0.870326	-0.643861
Cu120	Cu	-0.342549	0.870325	-0.569300
O121	O	-0.331306	0.925438	-0.665671
O122	O	0.260040	0.256670	-0.665375
O123	O	0.204912	0.334269	-0.610253
O124	O	0.204915	0.256669	-0.610247
O125	O	0.260037	0.334270	-0.665381
O126	O	0.267960	0.193642	-0.547200
O127	O	0.267958	0.271242	-0.547207
O128	O	0.323085	0.193643	-0.602329
Cu129	Cu	0.301278	0.226688	-0.569011
Cu130	Cu	0.226719	0.301224	-0.643571
O131	O	0.323083	0.271243	-0.602335
C132	C	0.433158	0.071300	0.293191
C133	C	0.483159	0.024531	0.316581
C134	C	0.410136	0.093994	0.316110
C135	C	0.364515	0.139922	0.224549
C136	C	0.341123	0.166525	0.174548
C137	C	0.341597	0.162513	0.247573
C138	C	0.364516	0.139922	0.293193
C139	C	0.341125	0.166524	0.316584
C140	C	0.410135	0.093995	0.247571
C141	C	0.322228	0.188016	0.335482
C142	C	0.523556	-0.013252	0.335478
C143	C	0.322225	0.188019	0.134151
C144	C	0.298520	0.214979	0.359191
C145	C	0.574235	-0.060654	0.359185
C146	C	0.298517	0.214982	0.083472
C147	C	0.681233	0.139975	0.293161
C148	C	0.678009	0.166582	0.316548
C149	C	0.681548	0.094050	0.316081
C150	C	0.681248	0.139963	0.224524
C151	C	0.678040	0.166559	0.174524
C152	C	0.681563	0.094039	0.247548
C153	C	0.681232	0.071350	0.293166
C154	C	0.678006	0.024584	0.316558
C155	C	0.681564	0.162559	0.247543
C156	C	0.675400	-0.013197	0.335457
C157	C	0.675403	0.188079	0.335442
C158	C	0.675447	0.188046	0.134128
C159	C	0.672130	-0.060596	0.359166
C160	C	0.672135	0.215048	0.359146
C161	C	0.672196	0.215002	0.083451
C162	C	0.364490	0.387980	0.293167
C163	C	0.341096	0.361378	0.316556
C164	C	0.410110	0.365385	0.316088
C165	C	0.364494	0.456607	0.224527
C166	C	0.341105	0.503380	0.174525
C167	C	0.410114	0.433908	0.247552
C168	C	0.433134	0.387977	0.293172
C169	C	0.483136	0.361370	0.316565
C170	C	0.341574	0.433911	0.247547
C171	C	0.523532	0.339874	0.335464
C172	C	0.322197	0.339885	0.335451
C173	C	0.322210	0.541168	0.134129
C174	C	0.574211	0.312907	0.359174
C175	C	0.298486	0.312921	0.359157
C176	C	0.298504	0.588575	0.083449
C177	C	0.623685	0.534347	-0.438579
C178	C	0.623372	0.511646	-0.461493
C179	C	0.623671	0.465732	-0.369936
C180	C	0.623358	0.443134	-0.392954
C181	C	0.623690	0.465719	-0.438572
C182	C	0.623353	0.511658	-0.392961
C183	C	0.636112	0.687410	-0.480504
C184	C	0.639629	0.730760	-0.502111
C185	C	0.641403	0.752499	-0.547315
C186	C	0.645224	0.799496	-0.570743
C187	C	0.639657	0.730888	-0.570913
C188	C	0.636134	0.687546	-0.549308
C189	C	0.634362	0.665807	-0.504101
C190	C	0.636151	0.411366	-0.549743
C191	C	0.639672	0.386247	-0.571496
C192	C	0.641435	0.339290	-0.548040
C193	C	0.645260	0.312048	-0.571619
C194	C	0.639671	0.317456	-0.502829
C195	C	0.636141	0.342578	-0.481081
C196	C	0.634384	0.389535	-0.504543
C197	C	0.636059	0.411430	-0.204413
C198	C	0.639568	0.386320	-0.157535
C199	C	0.641329	0.339363	-0.134017
C200	C	0.645136	0.312135	-0.083189
C201	C	0.639585	0.317516	-0.157377
C202	C	0.636078	0.342625	-0.204252
C203	C	0.634311	0.389586	-0.227768
C204	C	0.630547	0.618806	-0.480676
C205	C	0.627504	0.581344	-0.462004
C206	C	0.627476	0.438507	-0.319110
C207	C	0.630508	0.416807	-0.278596
C208	C	0.627514	0.438480	-0.462155
C209	C	0.630562	0.416769	-0.480954
O210	O	0.646397	0.271324	0.452738
O211	O	0.668903	0.193717	0.397624
O212	O	0.591280	0.271325	0.397607
O213	O	0.724020	0.193716	0.452754
O214	O	0.591295	0.334345	0.334562
O215	O	0.668918	0.256737	0.334579
O216	O	0.646412	0.334345	0.389693
Cu217	Cu	0.657666	0.301295	0.356379
Cu218	Cu	0.657649	0.226766	0.430937
O219	O	0.724035	0.256737	0.389709
C220	C	0.027648	1.061913	-0.438592
C221	C	0.050673	1.084504	-0.461508
C222	C	0.096288	0.993282	-0.369947
C223	C	0.119208	1.015978	-0.392967
C224	C	0.096293	1.061909	-0.438587
C225	C	0.050668	1.015982	-0.392972
C226	C	-0.137885	1.116252	-0.480517
C227	C	-0.184762	1.141367	-0.502125
C228	C	-0.208275	1.188328	-0.547331
C229	C	-0.259104	1.215568	-0.570759
C230	C	-0.184907	1.210170	-0.570931
C231	C	-0.138032	1.185050	-0.549325
C232	C	-0.114521	1.138089	-0.504116
C233	C	0.138219	1.185491	-0.549766
C234	C	0.159827	1.210754	-0.571521
C235	C	0.205032	1.189069	-0.548065
C236	C	0.228462	1.216461	-0.571646
C237	C	0.228631	1.142112	-0.502852
C238	C	0.207027	1.116844	-0.481101
C239	C	0.161816	1.138542	-0.504563
C240	C	0.138193	0.840210	-0.204418
C241	C	0.159794	0.796860	-0.157539
C242	C	0.205001	0.775110	-0.134021
C243	C	0.228423	0.728108	-0.083192
C244	C	0.228603	0.796715	-0.157382
C245	C	0.207000	0.840066	-0.204259
C246	C	0.161795	0.861807	-0.227775
C247	C	-0.063694	1.110857	-0.480691
C248	C	-0.023179	1.089149	-0.462018
C249	C	0.119708	0.946280	-0.319120
C250	C	0.138377	0.908813	-0.278605
C251	C	0.119719	1.089305	-0.462172
C252	C	0.138392	1.111142	-0.480972
H253	H	0.156671	-0.003060	0.034931
H254	H	0.634617	0.449670	-0.223559
C255	C	0.434787	0.316021	0.366027
C256	C	0.437071	0.274049	0.368476
C257	C	0.459816	0.228557	0.414466
H258	H	0.418138	0.323916	0.385155
H259	H	0.465323	0.305731	0.376432
H260	H	0.406540	0.284337	0.358077
H261	H	0.453723	0.266136	0.349359
H262	H	0.490352	0.218268	0.424871
H263	H	0.443164	0.236458	0.433590
H264	H	0.461372	0.200072	0.416133
C265	C	0.277655	0.118621	0.016155
C266	C	0.277513	0.156177	-0.025481
C267	C	0.322693	0.134601	-0.027328
H268	H	0.288660	0.087054	0.017674
H269	H	0.297394	0.110086	0.041624
H270	H	0.257781	0.164705	-0.050944
H271	H	0.266517	0.187746	-0.027009
H272	H	0.342432	0.126066	-0.001859
H273	H	0.333694	0.103035	-0.025808
H274	H	0.322603	0.160081	-0.055575
H275	H	0.622859	0.530640	-0.498977
C276	C	0.434687	0.459368	-0.024693
C277	C	0.409982	0.512041	-0.064621
C278	C	0.432587	0.535490	-0.065328
H279	H	0.465213	0.439329	-0.024856
H280	H	0.436247	0.459591	0.002074
H281	H	0.408428	0.511815	-0.091381
H282	H	0.379458	0.532094	-0.064467
H283	H	0.434146	0.535713	-0.038561
H284	H	0.463112	0.515446	-0.065490
H285	H	0.415825	0.571233	-0.092417
H286	H	-0.204054	1.248405	-0.607738
C287	C	0.134797	0.409481	-0.620011
C288	C	0.123361	0.461380	-0.650082
C289	C	0.099911	0.483159	-0.695329
H290	H	0.107231	0.410793	-0.620793
H291	H	0.154219	0.387741	-0.629527
H292	H	0.103940	0.483114	-0.640568
H293	H	0.150919	0.460083	-0.649314
H294	H	0.119333	0.461419	-0.704845
H295	H	0.072347	0.484467	-0.696106
H296	H	0.092153	0.518372	-0.715738
C297	C	-0.112752	1.208862	-0.575012
C298	C	-0.143377	1.255373	-0.619220
C299	C	-0.120108	1.277329	-0.642892
H300	H	-0.087352	1.183574	-0.577936
H301	H	-0.101599	1.217504	-0.558158
H302	H	-0.154523	1.246729	-0.636070
H303	H	-0.168777	1.280672	-0.616310
H304	H	-0.108955	1.285970	-0.626039
H305	H	-0.094709	1.252037	-0.645813
H306	H	-0.140885	1.308891	-0.672889
C307	C	-0.112782	0.065853	0.023528
C308	C	-0.143411	0.052277	0.021215
C309	C	-0.120144	0.005349	0.022928
H310	H	-0.087384	0.037538	0.051748
H311	H	-0.101627	0.071549	-0.001970
H312	H	-0.154559	0.046578	0.046711
H313	H	-0.168809	0.080580	-0.007003
H314	H	-0.108989	0.011045	-0.002570
H315	H	-0.094746	-0.022962	0.051149
H316	H	-0.140923	-0.003865	0.021355
H317	H	0.031872	0.530975	-0.374459
H318	H	0.682059	0.075061	0.353564
C319	C	0.291642	0.459174	-0.024522
C320	C	0.289164	0.421949	0.015002
C321	C	0.243162	0.445188	0.014476
H322	H	0.272538	0.469538	-0.051557
H323	H	0.281224	0.489823	-0.024645
H324	H	0.299576	0.391310	0.015121
H325	H	0.308257	0.411582	0.042043
H326	H	0.232744	0.475836	0.014353
H327	H	0.224063	0.455551	-0.012560
H328	H	0.241476	0.419936	0.041294
H329	H	0.428619	0.074992	0.353596
C330	C	0.089131	1.208974	-0.575153
C331	C	0.075253	1.176810	-0.546423
C332	C	0.030034	1.198429	-0.569788
H333	H	0.088351	1.210241	-0.602697
H334	H	0.068649	1.244191	-0.582939
H335	H	0.095730	1.141603	-0.538643
H336	H	0.076023	1.175540	-0.518879
H337	H	0.009552	1.233646	-0.577575
H338	H	0.029258	1.199695	-0.597332
H339	H	0.020611	1.176612	-0.550297
C340	C	0.434687	0.316157	-0.024651
C341	C	0.404743	0.301143	-0.024869
C342	C	0.427346	0.255782	-0.025544
H343	H	0.461659	0.287563	0.002116
H344	H	0.443352	0.324171	-0.051737
H345	H	0.396085	0.293127	0.002214
H346	H	0.377771	0.329724	-0.051634
H347	H	0.436011	0.263796	-0.052630
H348	H	0.454318	0.227192	0.001224
H349	H	0.407032	0.245592	-0.025696
H350	H	0.032162	-0.003060	0.034931
C351	C	0.025936	0.133706	0.035135
C352	C	-0.019026	0.148721	0.035352
C353	C	-0.041799	0.194084	0.036024
H354	H	0.024309	0.162299	0.008366
H355	H	0.042614	0.125695	0.062219
H356	H	-0.035699	0.156734	0.008271
H357	H	-0.017412	0.120141	0.062119
H358	H	-0.025121	0.186073	0.063109
H359	H	-0.043423	0.222673	0.009255
H360	H	-0.072306	0.204274	0.036176
C361	C	0.634102	0.319014	-0.229691
C362	C	0.592472	0.356481	-0.267107
C363	C	0.590638	0.334751	-0.290556
H364	H	0.635624	0.287464	-0.209031
H365	H	0.659575	0.310415	-0.240884
H366	H	0.567007	0.365072	-0.255914
H367	H	0.590941	0.388032	-0.287778
H368	H	0.616111	0.326153	-0.301749
H369	H	0.592162	0.303202	-0.269892
H370	H	0.562395	0.360171	-0.315948
H371	H	0.156694	0.996974	-0.374482
H372	H	0.428598	0.452904	0.229068
C373	C	0.134119	1.261748	-0.620595
C374	C	0.089899	1.275346	-0.636478
C375	C	0.066200	1.322323	-0.681681
H376	H	0.150929	1.256117	-0.640436
H377	H	0.131221	1.290026	-0.620641
H378	H	0.092799	1.247074	-0.636436
H379	H	0.073077	1.280987	-0.616650
H380	H	0.063302	1.350601	-0.681726
H381	H	0.083014	1.316687	-0.701517
H382	H	0.036193	1.331558	-0.692461
C383	C	0.089132	0.208991	0.023660
C384	C	0.088189	0.210801	0.062423
C385	C	0.043006	0.232502	0.064263
H386	H	0.079599	0.187254	0.026032
H387	H	0.068654	0.244230	-0.003758
H388	H	0.108659	0.175568	0.089835
H389	H	0.097713	0.232541	0.060060
H390	H	0.022529	0.267740	0.036845
H391	H	0.033477	0.210762	0.066634
H392	H	0.042359	0.233737	0.090561
C393	C	0.434849	0.068577	0.223010
C394	C	0.479811	0.023412	0.252952
C395	C	0.502587	-0.000019	0.230344
H396	H	0.436476	0.093713	0.196038
H397	H	0.418173	0.058173	0.214342
H398	H	0.496483	0.033816	0.261613
H399	H	0.478198	-0.001737	0.279924
H400	H	0.485911	-0.010423	0.221676
H401	H	0.504211	0.025121	0.203373
H402	H	0.533095	-0.030669	0.250658
C403	C	0.682276	0.068771	0.222836
C404	C	0.682500	0.098484	0.177875
C405	C	0.683162	0.075220	0.155100
H406	H	0.655502	0.068578	0.221205
H407	H	0.709354	0.033027	0.239516
H408	H	0.655425	0.134218	0.161199
H409	H	0.709272	0.098679	0.179492
H410	H	0.710240	0.039476	0.171780
H411	H	0.656388	0.075028	0.153473
H412	H	0.683319	0.095374	0.124593
C413	C	0.682277	0.211820	0.222979
C414	C	0.682483	0.226843	0.252917
C415	C	0.683144	0.272216	0.230306
H416	H	0.655508	0.240407	0.196006
H417	H	0.709360	0.203817	0.214312
H418	H	0.655403	0.234849	0.261578
H419	H	0.709250	0.198270	0.279890
H420	H	0.710227	0.264212	0.221639
H421	H	0.656375	0.300798	0.203334
H422	H	0.683288	0.282411	0.250617
H423	H	0.304102	0.452883	0.229051
H424	H	0.101691	0.449349	-0.568514
C425	C	0.634169	0.663903	-0.431430
C426	C	0.636439	0.692114	-0.415395
C427	C	0.634646	0.670476	-0.370193
H428	H	0.659646	0.627259	-0.411645
H429	H	0.605931	0.666743	-0.431433
H430	H	0.664674	0.689270	-0.415389
H431	H	0.610965	0.728758	-0.435167
H432	H	0.606408	0.673316	-0.370196
H433	H	0.660123	0.633832	-0.350412
H434	H	0.636181	0.689617	-0.359309
H435	H	0.140573	0.248929	0.016730
C436	C	0.622595	0.393907	-0.368392
C437	C	0.582670	0.405854	-0.393105
C438	C	0.581954	0.360519	-0.370498
H439	H	0.622423	0.383600	-0.337869
H440	H	0.649362	0.365359	-0.366823
H441	H	0.555909	0.434393	-0.394668
H442	H	0.582833	0.416155	-0.423627
H443	H	0.608721	0.331971	-0.368930
H444	H	0.581784	0.350215	-0.339976
H445	H	0.554868	0.368617	-0.387265
H446	H	-0.118765	0.203105	0.023101
C447	C	0.089108	-0.136304	0.023594
C448	C	0.073069	-0.164510	0.021319
C449	C	0.027866	-0.142868	0.023104
H450	H	0.069327	-0.099659	-0.001883
H451	H	0.089107	-0.139146	0.051834
H452	H	0.073066	-0.161663	-0.006918
H453	H	0.092836	-0.201154	0.046793
H454	H	0.027865	-0.145710	0.051344
H455	H	0.008089	-0.106223	-0.002373
H456	H	0.016979	-0.162005	0.021565
H457	H	0.622833	0.530658	-0.374482
C458	C	-0.210075	0.261693	0.016224
C459	C	-0.179453	0.275285	0.018509
C460	C	-0.202737	0.322256	0.016729
H461	H	-0.221250	0.256057	0.041700
H462	H	-0.235464	0.289977	-0.012016
H463	H	-0.154073	0.247009	0.046746
H464	H	-0.168276	0.280933	-0.006965
H465	H	-0.228126	0.350539	-0.011511
H466	H	-0.213911	0.316615	0.042205
H467	H	-0.181965	0.331487	0.018275
H468	H	0.304114	0.199470	0.229088
H469	H	0.640991	0.404111	-0.138518
C470	C	0.277667	-0.226974	0.016194
C471	C	0.291532	-0.269548	0.012724
C472	C	0.336730	-0.291356	0.010925
H473	H	0.298183	-0.239683	0.043615
H474	H	0.278404	-0.200179	-0.010100
H475	H	0.290799	-0.296339	0.039015
H476	H	0.271029	-0.256853	-0.014696
H477	H	0.337467	-0.264560	-0.015369
H478	H	0.357242	-0.304061	0.038346
H479	H	0.346142	-0.320241	0.008566
C480	C	0.641436	0.754311	-0.476549
C481	C	0.603830	0.808307	-0.501504
C482	C	0.605477	0.830016	-0.477968
H483	H	0.669636	0.751535	-0.473666
H484	H	0.639853	0.735188	-0.446536
H485	H	0.605417	0.827424	-0.531508
H486	H	0.575624	0.811097	-0.504388
H487	H	0.603894	0.810894	-0.447955
H488	H	0.633679	0.827238	-0.475086
H489	H	0.579960	0.866653	-0.494894
H490	H	-0.204094	0.748676	-0.608320
C491	C	0.025780	0.537221	-0.511458
C492	C	0.055715	0.507488	-0.526686
C493	C	0.033089	0.530714	-0.572713
H494	H	0.017090	0.572964	-0.530568
H495	H	-0.001183	0.537393	-0.513236
H496	H	0.082670	0.507322	-0.524911
H497	H	0.064406	0.471747	-0.507588
H498	H	0.006125	0.530886	-0.574492
H499	H	0.024400	0.566456	-0.591820
H500	H	0.053395	0.510541	-0.583051
H501	H	0.156374	0.406503	-0.374462
H502	H	0.641099	0.748593	-0.607720
H503	H	0.634711	0.669955	-0.568525
C504	C	0.634219	0.462360	-0.575302
C505	C	0.636503	0.476113	-0.619553
C506	C	0.634719	0.523088	-0.643110
H507	H	0.659692	0.456668	-0.558427
H508	H	0.605978	0.490592	-0.578148
H509	H	0.664741	0.447887	-0.616705
H510	H	0.611032	0.481816	-0.636441
H511	H	0.606479	0.551321	-0.645956
H512	H	0.660193	0.517392	-0.626231
H513	H	0.636265	0.532429	-0.673138
C514	C	0.232552	0.318952	-0.229964
C515	C	0.207499	0.306416	-0.246396
C516	C	0.230865	0.284751	-0.269961
H517	H	0.262592	0.287353	-0.209384
H518	H	0.235349	0.344367	-0.255391
H519	H	0.204708	0.281003	-0.220972
H520	H	0.177461	0.338007	-0.266982
H521	H	0.233662	0.310165	-0.295387
H522	H	0.260904	0.253153	-0.249378
H523	H	0.213868	0.276246	-0.281116
C524	C	-0.210552	0.118624	0.016194
C525	C	-0.256607	0.150805	0.012726
C526	C	-0.280219	0.129225	0.010931
H527	H	-0.195842	0.083409	0.043615
H528	H	-0.210043	0.117381	-0.010100
H529	H	-0.257113	0.152043	0.039018
H530	H	-0.271329	0.186021	-0.014693
H531	H	-0.279711	0.127981	-0.015364
H532	H	-0.265506	0.094009	0.038352
H533	H	-0.311472	0.151059	0.008573
H534	H	0.265441	1.124451	-0.483755
H535	H	0.140568	-0.220751	0.016715
C536	C	-0.210208	1.117764	-0.476530
C537	C	-0.247617	1.155234	-0.472373
C538	C	-0.271072	1.133512	-0.448802
H539	H	-0.189551	1.086211	-0.446495
H540	H	-0.221409	1.109173	-0.493403
H541	H	-0.236416	1.163817	-0.455500
H542	H	-0.268284	1.186788	-0.502401
H543	H	-0.282273	1.124921	-0.465675
H544	H	-0.250411	1.101960	-0.418769
H545	H	-0.296459	1.158934	-0.445983
H546	H	0.641100	0.279225	-0.483733
C547	C	0.641499	0.409985	-0.620611
C548	C	0.603898	0.422640	-0.649678
C549	C	0.605563	0.444514	-0.694926
H550	H	0.669702	0.384667	-0.620708
H551	H	0.639924	0.441565	-0.631493
H552	H	0.605477	0.391063	-0.638799
H553	H	0.575689	0.447962	-0.649595
H554	H	0.603988	0.476094	-0.705809
H555	H	0.633768	0.419193	-0.695019
H556	H	0.580049	0.453107	-0.714655
C557	C	0.634256	0.318776	-0.431988
C558	C	0.636565	0.272269	-0.416093
C559	C	0.634838	0.250323	-0.370868
H560	H	0.606033	0.344070	-0.431894
H561	H	0.659749	0.310131	-0.412183
H562	H	0.611074	0.280915	-0.435893
H563	H	0.664786	0.246963	-0.416176
H564	H	0.660331	0.241679	-0.351063
H565	H	0.606614	0.275621	-0.370779
H566	H	0.636408	0.218764	-0.360077
H567	H	0.226216	-0.142382	0.023091
H568	H	0.641022	0.279278	-0.138225
C569	C	0.232702	0.065819	0.023584
C570	C	0.276921	0.052225	0.021300
C571	C	0.300620	0.005257	0.023077
H572	H	0.215891	0.071458	-0.001894
H573	H	0.235601	0.037534	0.051822
H574	H	0.274021	0.080503	-0.006935
H575	H	0.293744	0.046575	0.046776
H576	H	0.303519	-0.023027	0.051315
H577	H	0.283806	0.010901	-0.002402
H578	H	0.330627	-0.003975	0.021532
H579	H	0.032187	1.121468	-0.498989
C580	C	0.025949	0.990719	-0.368413
C581	C	-0.019013	1.020443	-0.398357
C582	C	-0.041794	0.997185	-0.375750
H583	H	0.024321	0.990519	-0.341442
H584	H	0.042622	0.954978	-0.359743
H585	H	-0.035682	1.056175	-0.407020
H586	H	-0.017399	1.020646	-0.425328
H587	H	-0.025122	0.961444	-0.367080
H588	H	-0.043418	0.996986	-0.348781
H589	H	-0.072302	1.017346	-0.396065
C590	C	0.134100	0.773462	-0.132264
C591	C	0.089893	0.801775	-0.162896
C592	C	0.066213	0.780231	-0.139632
H593	H	0.131174	0.776282	-0.106865
H594	H	0.150948	0.736821	-0.121110
H595	H	0.073049	0.838407	-0.174043
H596	H	0.092804	0.798958	-0.188296
H597	H	0.083061	0.743590	-0.128477
H598	H	0.063291	0.783052	-0.114233
H599	H	0.036218	0.799435	-0.160413
C600	C	0.089086	0.863928	-0.229989
C601	C	0.060119	0.917938	-0.246417
C602	C	0.014881	0.939810	-0.269982
H603	H	0.078056	0.844923	-0.209409
H604	H	0.089079	0.861141	-0.255417
H605	H	0.060124	0.920721	-0.220993
H606	H	0.071134	0.936957	-0.267003
H607	H	0.014873	0.937023	-0.295410
H608	H	0.003855	0.920801	-0.249400
H609	H	-0.004778	0.976459	-0.281136
C610	C	-0.112435	1.065255	-0.431442
C611	C	-0.142927	1.051495	-0.415405
C612	C	-0.119496	1.004519	-0.370202
H613	H	-0.101258	1.070946	-0.411659
H614	H	-0.087037	1.037025	-0.431442
H615	H	-0.168317	1.079719	-0.415402
H616	H	-0.154105	1.045793	-0.435176
H617	H	-0.094098	0.976289	-0.370202
H618	H	-0.108320	1.010215	-0.350423
H619	H	-0.140180	0.995174	-0.359317
H620	H	0.265730	0.278980	-0.138494
C621	C	0.232720	0.318866	-0.431410
C622	C	0.276974	0.272352	-0.415371
C623	C	0.300528	0.250589	-0.370168
H624	H	0.215847	0.310264	-0.411627
H625	H	0.235559	0.344258	-0.431411
H626	H	0.274132	0.246965	-0.415366
H627	H	0.293859	0.280940	-0.435141
H628	H	0.303367	0.275981	-0.370170
H629	H	0.283651	0.241990	-0.350390
H630	H	0.330557	0.219030	-0.359282
C631	C	-0.210840	0.754896	-0.477445
C632	C	-0.256896	0.797470	-0.506165
C633	C	-0.280509	0.819278	-0.482781
H634	H	-0.196132	0.767604	-0.469641
H635	H	-0.210332	0.728100	-0.449905
H636	H	-0.257403	0.824261	-0.533697
H637	H	-0.271618	0.784776	-0.513971
H638	H	-0.280000	0.792482	-0.455242
H639	H	-0.265797	0.831982	-0.474978
H640	H	-0.311761	0.848163	-0.502263
H641	H	0.265733	0.278988	-0.482870
H642	H	0.226245	1.078611	-0.444291
C643	C	-0.112741	0.664234	-0.575312
C644	C	-0.143229	0.692443	-0.619566
C645	C	-0.119793	0.670809	-0.643125
H646	H	-0.101560	0.627588	-0.558441
H647	H	-0.087346	0.667079	-0.578152
H648	H	-0.168616	0.689593	-0.616724
H649	H	-0.154413	0.729088	-0.636449
H650	H	-0.094397	0.673654	-0.645965
H651	H	-0.108612	0.634164	-0.626250
H652	H	-0.140474	0.689948	-0.673155
H653	H	0.265415	0.779001	-0.138232
C654	C	-0.113070	0.664491	-0.431995
C655	C	-0.143698	0.692800	-0.416103
C656	C	-0.120430	0.671256	-0.370876
H657	H	-0.087672	0.667312	-0.431896
H658	H	-0.101915	0.627849	-0.412191
H659	H	-0.154846	0.729433	-0.435902
H660	H	-0.169096	0.689981	-0.416190
H661	H	-0.109275	0.634614	-0.351072
H662	H	-0.095032	0.674078	-0.370782
H663	H	-0.141208	0.690457	-0.360086
C664	C	0.089420	0.462090	-0.229527
C665	C	0.073537	0.475679	-0.198903
C666	C	0.028326	0.522638	-0.222182
H667	H	0.069590	0.456441	-0.240692
H668	H	0.089357	0.490380	-0.254923
H669	H	0.073596	0.447395	-0.173516
H670	H	0.093354	0.481339	-0.187736
H671	H	0.028264	0.550928	-0.247578
H672	H	0.008500	0.516984	-0.233347
H673	H	0.017546	0.531867	-0.201409
H674	H	0.141154	0.403501	-0.138211
C675	C	0.232712	0.863426	-0.229547
C676	C	0.276930	0.835092	-0.198924
C677	C	0.300632	0.856592	-0.222204
H678	H	0.215902	0.900064	-0.240718
H679	H	0.235613	0.860583	-0.254940
H680	H	0.274027	0.837941	-0.173539
H681	H	0.293753	0.798455	-0.187751
H682	H	0.303533	0.853748	-0.247597
H683	H	0.283818	0.893229	-0.233374
H684	H	0.330638	0.837367	-0.201431
