data_functionalizedCrystal
_audit_creation_method	'MofGen! by Chris Wilmer'
_symmetry_space_group_name_H-M	'P1'
_symmetry_Int_Tables_number	1
_symmetry_cell_setting	triclinic
loop_
_symmetry_equiv_pos_as_xyz
  x,y,z
_cell_length_a	6.817900
_cell_length_b	17.296766
_cell_length_c	17.110486
_cell_angle_alpha	100.227224
_cell_angle_beta	99.060439
_cell_angle_gamma	102.621013
loop_
_atom_site_label
_atom_site_type_symbol
_atom_site_fract_x
_atom_site_fract_y
_atom_site_fract_z
V1	V	-3.976392	-0.110853	-0.254662
O2	O	-3.965399	0.005573	-0.241624
O3	O	-3.927739	-0.220040	-0.260798
O4	O	-3.906258	-0.109040	-0.362136
O5	O	-3.987029	-0.106195	-0.139585
V6	V	-4.462869	-0.096940	-0.239941
O7	O	-4.231170	-0.141373	-0.286954
O8	O	-4.658287	-0.066421	-0.207649
O9	O	-4.288315	0.012247	-0.233806
O10	O	-4.591258	-0.213367	-0.252979
O11	O	-4.569629	-0.101598	-0.355019
O12	O	-4.309796	-0.098753	-0.132468
C13	C	-3.773381	-0.246661	-0.258813
C14	C	-3.814744	-0.335922	-0.264546
C15	C	-3.808623	-0.366461	-0.193958
C16	C	-3.847507	-0.450332	-0.199347
C17	C	-3.892496	-0.503662	-0.275325
C18	C	-3.898622	-0.473119	-0.345918
C19	C	-3.859753	-0.389250	-0.340528
C20	C	-4.011147	-0.757464	-0.295265
C21	C	-4.050010	-0.841338	-0.300649
C22	C	-3.998896	-0.818545	-0.154078
C23	C	-3.960017	-0.734675	-0.148695
C24	C	-3.966156	-0.704139	-0.219288
C25	C	-3.932236	-0.589392	-0.280835
C26	C	-3.926431	-0.618411	-0.213777
C27	C	-3.745979	-0.105069	-0.388078
C28	C	-3.769919	-0.104309	-0.475990
C29	C	-3.962444	-0.107959	-0.521609
C30	C	-3.984925	-0.107244	-0.604211
C31	C	-3.814883	-0.102885	-0.641194
C32	C	-3.622342	-0.099232	-0.595568
C33	C	-3.599860	-0.099941	-0.512966
C34	C	-3.873693	-0.100539	-0.890381
C35	C	-3.896192	-0.099833	-0.972989
C36	C	-4.258774	-0.107844	-0.981627
C37	C	-4.236277	-0.108557	-0.899024
C38	C	-4.043737	-0.104900	-0.853404
C39	C	-3.837860	-0.102157	-0.725627
C40	C	-4.020759	-0.105622	-0.768971
C41	C	-4.106015	0.038863	-0.235789
C42	C	-4.043890	0.128123	-0.230061
C43	C	-4.133417	-0.102728	-0.106521
C44	C	-4.088717	-0.103484	-0.018608
H45	H	-3.842525	-0.475191	-0.141867
H46	H	-3.771975	-0.323043	-0.132088
H47	H	-3.864759	-0.364388	-0.398008
H48	H	-4.374747	-0.112106	-0.868919
H49	H	-4.100918	-0.111514	-0.491506
H50	H	-3.935269	-0.516548	-0.407780
C51	C	-3.435300	-0.094439	-0.636247
H52	H	-3.476264	-0.094549	-0.691977
H53	H	-3.333086	-0.045877	-0.610339
H54	H	-3.381175	-0.139951	-0.631530
C55	C	-3.709294	-0.095344	-1.013737
H56	H	-3.591448	-0.093354	-0.974757
H57	H	-3.735072	-0.142041	-1.056296
H58	H	-3.686093	-0.047946	-1.035306
C59	C	-4.099508	-0.900002	-0.384228
H60	H	-4.097615	-0.869805	-0.425500
H61	H	-3.999748	-0.930579	-0.386664
H62	H	-4.231725	-0.935806	-0.392084
C63	C	-3.876968	-0.559754	-0.130206
H64	H	-3.878902	-0.589950	-0.088933
H65	H	-3.744769	-0.523946	-0.122344
H66	H	-3.976754	-0.529183	-0.127778
C67	C	-3.992176	-0.852137	-0.076434
H68	H	-4.021786	-0.909725	-0.090522
H69	H	-3.859331	-0.831099	-0.042722
H70	H	-4.091311	-0.836322	-0.048160
H71	H	-3.923398	-0.691257	-0.086826
H72	H	-4.141694	-0.110212	-0.641350
C73	C	-4.017876	-0.723884	-0.372913
H74	H	-4.050212	-0.767659	-0.418932
H75	H	-4.119757	-0.694253	-0.376577
H76	H	-3.887778	-0.689029	-0.371143
H77	H	-3.968870	-0.632823	-0.342696
H78	H	-4.415533	-0.110820	-1.018779
C79	C	-4.207802	-0.110419	-0.728298
H80	H	-4.325692	-0.112490	-0.767294
H81	H	-4.230584	-0.157895	-0.706849
H82	H	-4.182528	-0.063822	-0.685657
H83	H	-3.699417	-0.098611	-0.755748
H84	H	-3.716933	-0.097590	-0.853253
H85	H	-3.443078	-0.096949	-0.475819
