data_functionalizedCrystal
_audit_creation_method	'MofGen! by Chris Wilmer'
_symmetry_space_group_name_H-M	'P1'
_symmetry_Int_Tables_number	1
_symmetry_cell_setting	triclinic
loop_
_symmetry_equiv_pos_as_xyz
  x,y,z
_cell_length_a	15.995350
_cell_length_b	15.995350
_cell_length_c	15.072220
_cell_angle_alpha	90.001101
_cell_angle_beta	89.991149
_cell_angle_gamma	83.492375
loop_
_atom_site_label
_atom_site_type_symbol
_atom_site_fract_x
_atom_site_fract_y
_atom_site_fract_z
O1	O	1.110996	0.107921	-0.073703
O2	O	0.867221	0.121249	-0.073721
O3	O	0.995772	-0.007303	-0.073710
O4	O	0.982444	0.236472	-0.073713
O5	O	0.995740	-0.007296	0.073855
O6	O	0.867189	0.121256	0.073844
O7	O	1.110964	0.107928	0.073862
Zn8	Zn	0.989071	0.114593	0.097283
Zn9	Zn	0.989113	0.114584	-0.097141
O10	O	0.982413	0.236480	0.073852
C11	C	0.836010	0.120701	0.000060
C12	C	0.743060	0.119049	0.000053
C13	C	0.405312	0.113117	0.000071
C14	C	0.452746	0.021565	0.000401
C15	C	0.549436	0.023217	0.000063
C16	C	0.572873	0.116060	0.000063
C17	C	0.531804	0.161212	-0.084201
C18	C	0.435168	0.158912	-0.084266
C19	C	0.434793	0.160812	0.083543
C20	C	0.531738	0.160790	0.084651
C21	C	0.667570	0.117727	0.000055
C22	C	0.310614	0.111452	0.000073
C23	C	0.995205	-0.038494	0.000070
C24	C	0.993553	-0.131444	0.000065
C25	C	0.987621	-0.469192	0.000068
C26	C	0.896069	-0.421758	-0.000270
C27	C	0.897721	-0.325068	0.000063
C28	C	0.990564	-0.301631	0.000066
C29	C	1.035702	-0.342705	0.084335
C30	C	1.033402	-0.439341	0.084405
C31	C	1.035330	-0.439707	-0.083404
C32	C	1.035308	-0.342761	-0.084518
C33	C	0.992231	-0.206934	0.000068
C34	C	0.985956	-0.563890	0.000072
C35	C	1.142175	0.108476	0.000080
C36	C	1.235125	0.110127	0.000081
C37	C	0.982980	0.267671	0.000069
C38	C	0.984631	0.360621	0.000069
N39	N	0.989049	0.114599	0.229971
N40	N	0.989142	0.114571	-0.229830
C41	C	0.989112	0.114580	0.589173
C42	C	0.920095	0.183135	0.551560
C43	C	0.920254	0.183385	0.448735
C44	C	0.989080	0.114590	0.410969
C45	C	1.076445	0.133671	0.448266
C46	C	1.076058	0.134159	0.551124
C47	C	0.971542	0.026741	0.551272
C48	C	0.969537	0.027327	0.448409
C49	C	0.989067	0.114593	0.310255
C50	C	0.989130	0.114579	0.689886
H51	H	0.403031	0.228312	0.084113
H52	H	0.577852	-0.012275	0.060467
C53	C	0.846655	-0.446793	-0.081913
C54	C	0.831864	-0.539321	-0.096077
C55	C	0.782454	-0.564360	-0.177728
C56	C	0.747835	-0.496871	-0.245216
C57	C	0.762625	-0.404336	-0.231055
C58	C	0.812035	-0.379297	-0.149403
H59	H	0.857492	-0.589286	-0.046117
H60	H	0.771506	-0.632861	-0.188211
H61	H	0.711259	-0.515406	-0.305659
H62	H	0.736997	-0.354371	-0.281015
H63	H	0.822983	-0.310797	-0.138920
H64	H	1.102831	-0.471468	-0.083968
C65	C	0.935026	0.270716	0.586431
C66	C	0.951175	0.340892	0.520785
C67	C	0.966103	0.428478	0.555644
C68	C	0.964883	0.445887	0.656149
C69	C	0.948734	0.375709	0.721801
C70	C	0.933806	0.288123	0.686943
H71	H	0.952078	0.328007	0.446380
H72	H	0.978057	0.480429	0.507043
H73	H	0.975934	0.510724	0.681953
H74	H	0.947830	0.388595	0.796207
H75	H	0.921851	0.236173	0.735544
H76	H	1.103014	-0.327400	-0.089603
H77	H	0.855314	0.172016	0.423519
C78	C	0.887329	0.001967	0.586340
C79	C	0.857005	-0.082017	0.557896
C80	C	0.772788	-0.106779	0.592963
C81	C	0.718895	-0.047557	0.656474
C82	C	0.749218	0.036432	0.684922
C83	C	0.833435	0.061194	0.649855
H84	H	0.896901	-0.125861	0.510877
H85	H	0.750341	-0.168953	0.571903
H86	H	0.656552	-0.065888	0.682433
H87	H	0.709322	0.080276	0.731940
H88	H	0.855882	0.123368	0.670914
H89	H	0.433165	-0.014865	-0.059694
H90	H	0.905271	0.012846	0.424032
H91	H	1.103910	-0.328579	0.087471
H92	H	0.859626	-0.441349	0.059819
H93	H	0.434211	-0.015027	0.060830
C94	C	1.033032	-0.044826	0.413688
C95	C	1.104058	-0.025685	0.350451
C96	C	1.167561	-0.097836	0.315731
C97	C	1.160038	-0.189129	0.344249
C98	C	1.089010	-0.208274	0.407490
C99	C	1.025507	-0.136122	0.442209
H100	H	1.109630	0.041898	0.329337
H101	H	1.220141	-0.083664	0.268916
H102	H	1.207047	-0.242539	0.318547
H103	H	1.083438	-0.275857	0.428603
H104	H	0.972927	-0.150295	0.489025
C105	C	1.147490	0.068019	0.415218
C106	C	1.220294	0.096109	0.359904
C107	C	1.291338	0.030455	0.326854
C108	C	1.289578	-0.063288	0.349119
C109	C	1.216771	-0.091383	0.404436
C110	C	1.145727	-0.025730	0.437485
H111	H	1.221599	0.165508	0.343419
H112	H	1.345234	0.051254	0.285905
H113	H	1.342169	-0.111889	0.324654
H114	H	1.215466	-0.160782	0.420920
H115	H	1.091830	-0.046528	0.478435
H116	H	0.559041	0.127829	0.146989
C117	C	0.832093	0.167994	0.585012
C118	C	0.779610	0.236022	0.640121
C119	C	0.691612	0.220857	0.673582
C120	C	0.656096	0.137663	0.651934
C121	C	0.708579	0.069628	0.596822
C122	C	0.796578	0.084794	0.563361
H123	H	0.805900	0.297612	0.656150
H124	H	0.652760	0.271220	0.714380
H125	H	0.590955	0.126436	0.676703
H126	H	0.682289	0.008038	0.580794
H127	H	0.835429	0.034430	0.522563
H128	H	1.092297	0.197002	0.422498
H129	H	0.416873	0.125979	-0.147255
H130	H	0.931473	0.248570	0.424121
H131	H	1.004325	-0.314320	0.147042
H132	H	0.545929	0.229421	-0.087335
H133	H	1.005411	-0.460250	-0.147274
C134	C	1.039526	-0.042185	0.584133
C135	C	1.014360	-0.116091	0.639804
C136	C	1.082345	-0.185009	0.672669
C137	C	1.175497	-0.180021	0.649863
C138	C	1.200668	-0.106112	0.594189
C139	C	1.132682	-0.037194	0.561324
H140	H	0.945399	-0.119786	0.656689
H141	H	1.063712	-0.239721	0.713882
H142	H	1.225824	-0.231039	0.674191
H143	H	1.269628	-0.102417	0.577304
H144	H	1.151316	0.017518	0.520110
C145	C	0.552478	0.252260	0.091526
C146	C	0.607372	0.288099	0.020130
C147	C	0.628107	0.379574	0.026995
C148	C	0.593947	0.435211	0.105255
C149	C	0.539050	0.399372	0.176656
C150	C	0.518315	0.307897	0.169791
H151	H	0.632661	0.246913	-0.037808
H152	H	0.668745	0.406104	-0.025862
H153	H	0.609297	0.502926	0.110336
H154	H	0.513760	0.440558	0.234594
H155	H	0.477676	0.281368	0.222648
H156	H	0.402920	0.226128	-0.088090
H157	H	0.414244	0.130885	0.147414
C158	C	0.849772	-0.286671	-0.081534
C159	C	0.879343	-0.313617	-0.175558
C160	C	0.831383	-0.275227	-0.257154
C161	C	0.753851	-0.209891	-0.244725
C162	C	0.724275	-0.182942	-0.150697
C163	C	0.772235	-0.221332	-0.069101
H164	H	0.936741	-0.361986	-0.184762
H165	H	0.853277	-0.295177	-0.326760
H166	H	0.718347	-0.181473	-0.305127
H167	H	0.666877	-0.134573	-0.141493
H168	H	0.750341	-0.201382	0.000505
C169	C	1.147747	0.069675	0.585012
C170	C	1.127746	-0.004106	0.644009
C171	C	1.199545	-0.068392	0.678022
C172	C	1.291345	-0.058895	0.653038
C173	C	1.311350	0.014890	0.594037
C174	C	1.239551	0.079175	0.560024
H175	H	1.059786	-0.011139	0.662507
H176	H	1.184735	-0.123012	0.721699
H177	H	1.344495	-0.106483	0.678216
H178	H	1.379309	0.021922	0.575539
H179	H	1.254360	0.133795	0.516348
H180	H	0.560191	0.129845	-0.146912
H181	H	0.861974	-0.297200	0.060568
H182	H	1.002306	-0.315516	-0.146857
H183	H	1.000460	-0.457639	0.147395
C184	C	1.124200	-0.482912	0.089596
C185	C	1.198569	-0.429743	0.093668
C186	C	1.289364	-0.473311	0.098869
C187	C	1.305792	-0.570046	0.099998
C188	C	1.231421	-0.623221	0.095926
C189	C	1.140626	-0.579654	0.090725
H190	H	1.186410	-0.358129	0.092832
H191	H	1.344418	-0.433947	0.101883
H192	H	1.373004	-0.602297	0.103848
H193	H	1.243580	-0.694836	0.096762
H194	H	1.085572	-0.619018	0.087711
H195	H	0.577307	-0.012521	-0.060446
H196	H	1.091540	0.198219	0.575106
