data_functionalizedCrystal
_audit_creation_method	'MofGen! by Chris Wilmer'
_symmetry_space_group_name_H-M	'P1'
_symmetry_Int_Tables_number	1
_symmetry_cell_setting	triclinic
loop_
_symmetry_equiv_pos_as_xyz
  x,y,z
_cell_length_a	13.339070
_cell_length_b	11.295483
_cell_length_c	12.837942
_cell_angle_alpha	94.530417
_cell_angle_beta	105.229117
_cell_angle_gamma	84.780254
loop_
_atom_site_label
_atom_site_type_symbol
_atom_site_fract_x
_atom_site_fract_y
_atom_site_fract_z
O1	O	1.400127	-0.099068	0.529340
O2	O	1.098836	-0.099061	0.459183
O3	O	1.242800	-0.099057	0.341438
O4	O	1.256163	-0.099072	0.647085
O5	O	1.230153	0.098994	0.351757
O6	O	1.086189	0.098990	0.469503
O7	O	1.387480	0.098983	0.539660
Cu8	Cu	1.235680	0.117070	0.505524
Cu9	Cu	1.250636	-0.117148	0.493319
O10	O	1.243516	0.098979	0.657405
C11	C	1.053681	-0.000035	0.452492
C12	C	0.937974	-0.000032	0.417167
N13	N	1.225168	0.281806	0.514109
N14	N	1.261156	-0.281884	0.484728
C15	C	0.599660	-0.000064	0.691833
C16	C	0.708373	-0.000071	0.725025
C17	C	0.765779	-0.000060	0.648063
C18	C	0.714461	-0.000045	0.537904
C19	C	0.605738	-0.000048	0.504708
C20	C	0.771856	-0.000044	0.460938
C21	C	0.720538	-0.000028	0.350779
C22	C	0.611826	-0.000030	0.317588
C23	C	0.554420	-0.000040	0.394550
C24	C	0.880579	-0.000041	0.494135
C25	C	0.886657	-0.000025	0.307010
C26	C	0.777944	-0.000018	0.273817
C27	C	1.432635	-0.000046	0.546351
C28	C	1.548343	-0.000057	0.581675
C29	C	1.231963	-0.000032	0.306679
C30	C	1.218501	-0.000034	0.187729
C31	C	1.336821	0.531098	0.422866
C32	C	1.328885	0.655762	0.429364
C33	C	1.201356	0.655798	0.533595
C34	C	1.209291	0.531135	0.527097
C35	C	1.277027	0.468789	0.471733
C36	C	1.284968	0.344123	0.465242
C37	C	1.157434	0.344162	0.569466
C38	C	1.149498	0.468826	0.575963
C39	C	1.380342	-0.000063	-0.006682
C40	C	1.367698	-0.000064	-0.118445
C41	C	1.180571	-0.000047	-0.147561
C42	C	1.193215	-0.000046	-0.035798
C43	C	1.293103	-0.000052	0.034638
C44	C	1.305746	-0.000041	0.146403
C45	C	1.118620	-0.000033	0.117285
C46	C	1.105976	-0.000035	0.005522
C47	C	1.254353	-0.000049	0.692164
C48	C	1.267816	-0.000055	0.811113
H49	H	0.922351	-0.000049	0.583827
Cl50	Cl	0.902448	-0.000064	0.689794
H51	H	0.750149	-0.000093	0.814716
H52	H	1.438738	-0.000077	-0.152082
Cl53	Cl	1.404055	0.734090	0.367927
H54	H	1.108749	0.293416	0.609260
H55	H	0.552912	-0.000083	0.754482
H56	H	1.387080	-0.000042	0.203751
H57	H	0.736146	-0.000015	0.184123
Cl58	Cl	0.417746	-0.000030	0.352826
H59	H	1.099247	-0.000056	-0.204929
H60	H	0.570047	-0.000031	0.227889
Cl61	Cl	1.505910	-0.000040	0.081871
H62	H	1.146199	0.706576	0.578662
Cl63	Cl	0.980410	-0.000038	-0.083035
H64	H	1.094346	0.519602	0.621037
Cl65	Cl	1.008941	-0.000004	0.169236
Cl66	Cl	1.421984	0.452719	0.353281
H67	H	1.340125	0.293363	0.420165
H68	H	0.933396	-0.000022	0.244341
