data_functionalizedCrystal
_audit_creation_method	'MofGen! by Chris Wilmer'
_symmetry_space_group_name_H-M	'P1'
_symmetry_Int_Tables_number	1
_symmetry_cell_setting	triclinic
loop_
_symmetry_equiv_pos_as_xyz
  x,y,z
_cell_length_a	16.109301
_cell_length_b	15.995350
_cell_length_c	14.586319
_cell_angle_alpha	89.998440
_cell_angle_beta	89.999213
_cell_angle_gamma	83.476928
loop_
_atom_site_label
_atom_site_type_symbol
_atom_site_fract_x
_atom_site_fract_y
_atom_site_fract_z
O1	O	1.103160	0.107624	-0.076178
O2	O	0.861101	0.121018	-0.076192
O3	O	0.988747	-0.007569	-0.076184
O4	O	0.975514	0.236210	-0.076186
O5	O	0.988739	-0.007570	0.076297
O6	O	0.861093	0.121016	0.076289
O7	O	1.103151	0.107622	0.076303
Cu8	Cu	0.982121	0.114319	0.090219
Cu9	Cu	0.982131	0.114321	-0.090107
O10	O	0.975505	0.236208	0.076295
C11	C	0.830122	0.120474	0.000047
C12	C	0.737826	0.118848	0.000041
C13	C	0.515573	0.191366	0.000051
C14	C	0.428853	0.189831	0.000057
C15	C	0.448686	0.037268	0.000055
C16	C	0.535405	0.038804	0.000055
C17	C	0.568846	0.115855	0.000049
C18	C	0.395406	0.112785	0.000054
C19	C	0.301380	0.111120	0.000061
C20	C	0.662879	0.117520	0.000044
C21	C	0.988196	-0.038764	0.000055
C22	C	0.986556	-0.131714	0.000050
C23	C	0.980665	-0.469460	0.000053
C24	C	0.889758	-0.422001	-0.000295
C25	C	0.891399	-0.325311	0.000049
C26	C	0.983587	-0.301900	0.000051
C27	C	1.028421	-0.342991	0.087126
C28	C	1.026137	-0.439626	0.087198
C29	C	1.028025	-0.439983	-0.086201
C30	C	1.028003	-0.343037	-0.087351
C31	C	0.985243	-0.207203	0.000053
C32	C	0.979012	-0.564157	0.000057
C33	C	1.134130	0.108166	0.000062
C34	C	1.226426	0.109792	0.000062
C35	C	0.976056	0.267404	0.000054
C36	C	0.977697	0.360354	0.000053
N37	N	0.982120	0.114317	0.217050
N38	N	0.982139	0.114317	-0.216939
C39	C	1.038660	0.057398	0.452061
C40	C	1.038662	0.057396	0.548042
C41	C	0.925593	0.171238	0.548044
C42	C	0.925587	0.171236	0.452064
C43	C	0.982125	0.114316	0.404075
C44	C	0.982134	0.114317	0.596036
C45	C	0.982136	0.114315	0.700103
C46	C	0.982122	0.114317	0.300001
H47	H	0.856156	-0.296879	-0.062370
H48	H	0.879546	0.217586	0.412992
N49	N	0.986979	-0.308758	-0.168177
N50	N	1.012866	-0.333312	-0.245482
H51	H	0.983900	-0.309089	-0.302566
H52	H	1.084696	0.011050	0.412990
N53	N	1.096399	-0.000747	0.597071
N54	N	1.096388	-0.000750	0.682766
H55	H	1.137160	-0.041822	0.717395
N56	N	0.549720	0.270076	0.000046
N57	N	0.502141	0.337490	0.000050
H58	H	0.526254	0.393083	0.000048
H59	H	1.095050	-0.471762	-0.086785
H60	H	0.385481	0.251320	0.000061
N61	N	0.414538	-0.041441	0.000044
N62	N	0.462116	-0.108856	0.000040
H63	H	0.438001	-0.164448	0.000030
H64	H	0.853427	-0.440522	-0.062738
N65	N	0.589816	-0.038341	0.000063
N66	N	0.559950	-0.107130	0.000064
H67	H	0.598377	-0.161612	0.000073
H68	H	0.853581	-0.441586	0.061797
N69	N	0.867849	0.229371	0.597080
N70	N	0.867861	0.229367	0.682775
H71	H	0.827078	0.270425	0.717407
H72	H	0.855912	-0.297438	0.062570
N73	N	0.989343	-0.307374	0.168408
N74	N	0.928484	-0.251740	0.162434
H75	H	0.900879	-0.226586	0.219837
N76	N	0.985114	-0.462568	0.168853
N77	N	0.958365	-0.407236	0.225389
H78	H	0.929390	-0.423433	0.283060
N79	N	1.109865	-0.480097	0.092168
N80	N	1.169798	-0.436945	0.095579
H81	H	1.228930	-0.465524	0.099095
H82	H	1.096149	-0.328884	0.090365
H83	H	0.998307	-0.460513	-0.152198
N84	N	1.112334	-0.323770	-0.093949
N85	N	1.141203	-0.279212	-0.034071
H86	H	1.200763	-0.265600	-0.038727
