data_functionalizedCrystal
_audit_creation_method	'MofGen! by Chris Wilmer'
_symmetry_space_group_name_H-M	'P1'
_symmetry_Int_Tables_number	1
_symmetry_cell_setting	triclinic
loop_
_symmetry_equiv_pos_as_xyz
  x,y,z
_cell_length_a	12.759401
_cell_length_b	19.120786
_cell_length_c	12.759393
_cell_angle_alpha	92.476000
_cell_angle_beta	90.019676
_cell_angle_gamma	92.465677
loop_
_atom_site_label
_atom_site_type_symbol
_atom_site_fract_x
_atom_site_fract_y
_atom_site_fract_z
Zn1	Zn	1.588346	-0.279590	0.576101
Zn2	Zn	1.580707	-0.397064	0.392907
Zn3	Zn	1.412642	-0.279625	0.400437
Zn4	Zn	1.405110	-0.397013	0.568551
O5	O	1.496701	-0.338323	0.484499
O6	O	1.734353	-0.295180	0.551807
O7	O	1.558368	-0.381522	0.246882
O8	O	1.442299	-0.181329	0.430051
O9	O	1.728741	-0.381488	0.417216
O10	O	1.571387	-0.181303	0.559110
O11	O	1.434892	-0.295240	0.252415
O12	O	1.264622	-0.295190	0.422730
O13	O	1.429461	-0.381400	0.716576
O14	O	1.259088	-0.381434	0.546242
O15	O	1.564083	-0.295130	0.722123
O16	O	1.551065	-0.495348	0.409895
O17	O	1.422054	-0.495310	0.538940
C18	C	1.223735	-0.338311	0.484485
C19	C	1.106957	-0.338322	0.484503
C20	C	1.055013	-0.293463	0.554683
C21	C	0.945288	-0.293470	0.554690
C22	C	0.939462	-0.383202	0.414332
C23	C	1.049184	-0.383191	0.414321
C24	C	1.484942	-0.520815	0.472804
C25	C	1.480007	-0.598886	0.467836
C26	C	1.544848	-0.635490	0.532750
C27	C	1.540207	-0.708846	0.528084
C28	C	1.470730	-0.745596	0.458497
C29	C	1.405881	-0.708987	0.393580
C30	C	1.410518	-0.635633	0.398252
C31	C	1.453366	-0.967083	0.441031
C32	C	1.448737	-1.040443	0.436361
C33	C	1.583062	-1.040297	0.570867
C34	C	1.587697	-0.966941	0.575529
C35	C	1.522844	-0.930338	0.510615
C36	C	1.465987	-0.820578	0.453724
C37	C	1.527583	-0.855358	0.515395
C38	C	1.770734	-0.338335	0.484514
C39	C	1.887510	-0.338341	0.484520
C40	C	1.496784	-0.338255	0.758537
C41	C	1.496819	-0.338227	0.875315
C42	C	1.508535	-0.155118	0.496263
C43	C	1.513578	-0.077047	0.501276
C44	C	1.496682	-0.338339	0.211530
C45	C	1.496863	-0.338170	0.094765
C46	C	1.566923	-0.293299	0.933068
C47	C	1.566943	-0.293268	1.042794
C48	C	1.426752	-0.383100	1.037005
C49	C	1.426728	-0.383126	0.927281
H50	H	1.601428	-0.605572	0.589411
H51	H	1.357716	-0.605830	0.345393
H52	H	0.903000	-0.256940	0.611836
H53	H	1.369688	-0.419658	1.079329
H54	H	1.369634	-0.419712	0.880258
H55	H	0.892410	-0.419733	0.357194
H56	H	1.102048	-0.256926	0.611826
Br57	Br	1.662044	-0.232362	0.862545
H58	H	1.091478	-0.419722	0.357166
Br59	Br	1.354447	-1.090319	0.341908
Br60	Br	1.621862	-0.805481	0.609840
H61	H	1.635859	-1.070107	0.623717
H62	H	1.409421	-0.850508	0.397063
H63	H	1.624026	-0.256682	1.089811
Br64	Br	1.365339	-0.917417	0.352946
Br65	Br	1.681992	-0.917070	0.669971
Br66	Br	1.311575	-0.758862	0.299153
H67	H	1.593016	-0.738646	0.580937
