data_functionalizedCrystal
_audit_creation_method	'MofGen! by Chris Wilmer'
_symmetry_space_group_name_H-M	'P1'
_symmetry_Int_Tables_number	1
_symmetry_cell_setting	triclinic
loop_
_symmetry_equiv_pos_as_xyz
  x,y,z
_cell_length_a	23.532407
_cell_length_b	16.992695
_cell_length_c	16.053802
_cell_angle_alpha	87.258926
_cell_angle_beta	92.559697
_cell_angle_gamma	86.758450
loop_
_atom_site_label
_atom_site_type_symbol
_atom_site_fract_x
_atom_site_fract_y
_atom_site_fract_z
O1	O	-0.762229	-0.091835	-0.069325
O2	O	-0.262229	0.408165	0.430675
O3	O	-0.597050	-0.105601	-0.069350
O4	O	-0.097050	0.394399	0.430650
O5	O	-0.678977	0.015419	-0.069331
O6	O	-0.178977	0.515419	0.430669
O7	O	-0.680302	-0.212855	-0.069344
O8	O	-0.180302	0.287145	0.430656
O9	O	-0.674466	0.008785	0.069527
O10	O	-0.174466	0.508785	0.569527
O11	O	-0.592539	-0.112235	0.069508
O12	O	-0.092539	0.387765	0.569508
O13	O	-0.757718	-0.098469	0.069533
O14	O	-0.257718	0.401531	0.569533
Zn15	Zn	-0.674413	-0.106406	0.091567
Zn16	Zn	-0.174413	0.393594	0.591567
Zn17	Zn	-0.680356	-0.097665	-0.091384
Zn18	Zn	-0.180356	0.402335	0.408616
O19	O	-0.675791	-0.219489	0.069514
O20	O	-0.175791	0.280511	0.569514
C21	C	-0.573561	-0.108568	0.000076
C22	C	-0.073561	0.391432	0.500076
C23	C	-0.510292	-0.107513	0.000067
C24	C	-0.010292	0.392487	0.500067
C25	C	-0.781207	-0.095503	0.000105
C26	C	-0.281207	0.404497	0.500105
C27	C	-0.844476	-0.096557	0.000109
C28	C	-0.344476	0.403443	0.500109
C29	C	-0.114414	-0.172521	0.000101
C30	C	0.385586	0.327479	0.500101
C31	C	-0.054965	-0.171542	0.000106
C32	C	0.445035	0.328458	0.500106
O33	O	-0.021210	-0.231805	0.000133
O34	O	0.478790	0.268195	0.500133
N35	N	-0.028768	-0.099595	0.000109
N36	N	0.471232	0.400405	0.500109
C37	C	-0.062024	-0.028623	0.000115
C38	C	0.437976	0.471377	0.500115
O39	O	-0.034283	0.032663	0.000119
O40	O	0.465717	0.532663	0.500119
C41	C	-0.121471	-0.029603	0.000116
C42	C	0.378529	0.470397	0.500116
C43	C	-0.147665	-0.101554	0.000105
C44	C	0.352335	0.398446	0.500105
C45	C	-0.140607	-0.244467	0.000091
C46	C	0.359393	0.255533	0.500091
C47	C	-0.200052	-0.245445	0.000084
C48	C	0.299948	0.254555	0.500084
C49	C	-0.233304	-0.174478	0.000088
C50	C	0.266696	0.325522	0.500088
C51	C	-0.207110	-0.102533	0.000098
C52	C	0.292890	0.397467	0.500098
C53	C	-0.154726	0.041368	0.000128
C54	C	0.345274	0.541368	0.500128
C55	C	-0.214177	0.040381	0.000129
C56	C	0.285823	0.540381	0.500129
C57	C	-0.240371	-0.031570	0.000118
C58	C	0.259629	0.468430	0.500118
C59	C	-0.299806	-0.032545	0.000095
C60	C	0.200194	0.467455	0.500095
N61	N	-0.326002	-0.104492	0.000092
N62	N	0.173998	0.395508	0.500092
C63	C	-0.292751	-0.175458	0.000088
C64	C	0.207249	0.324542	0.500088
C65	C	0.062821	-0.026571	0.000115
C66	C	0.562821	0.473429	0.500115
C67	C	0.122267	-0.025590	0.000108
C68	C	0.622267	0.474410	0.500108
C69	C	0.129322	-0.168509	0.000101
C70	C	0.629322	0.331491	0.500101
C71	C	0.069874	-0.169489	0.000102
C72	C	0.569874	0.330511	0.500102
C73	C	0.036624	-0.098518	0.000112
C74	C	0.536624	0.401482	0.500112
C75	C	-0.417590	-0.177508	0.000074
C76	C	0.082410	0.322492	0.500074
C77	C	-0.477041	-0.178480	0.000063
C78	C	0.022959	0.321520	0.500063
C79	C	-0.484091	-0.035561	0.000075
C80	C	0.015909	0.464439	0.500075
C81	C	-0.424645	-0.034588	0.000081
C82	C	0.075355	0.465412	0.500081
C83	C	-0.391396	-0.105568	0.000083
C84	C	0.108604	0.394432	0.500083
O85	O	-0.333597	0.027687	0.000071
O86	O	0.166403	0.527687	0.500071
O87	O	-0.320500	-0.236735	0.000096
O88	O	0.179500	0.263265	0.500096
C89	C	-0.675018	0.041301	0.000098
C90	C	-0.175018	0.541301	0.500098
C91	C	-0.669935	0.128306	0.000097
C92	C	-0.169935	0.628306	0.500097
C93	C	-0.679750	-0.245372	0.000083
C94	C	-0.179750	0.254628	0.500083
C95	C	-0.684834	-0.332376	0.000079
C96	C	-0.184834	0.167624	0.500079
N97	N	-0.670361	-0.112370	0.216427
N98	N	-0.170361	0.387630	0.716427
C99	C	-0.718981	0.178928	0.000105
C100	C	-0.218981	0.678928	0.500105
C101	C	-0.714202	0.260678	0.000096
C102	C	-0.214202	0.760678	0.500096
C103	C	-0.660375	0.291804	0.000085
C104	C	-0.160375	0.791804	0.500085
C105	C	-0.611326	0.241175	0.000075
C106	C	-0.111326	0.741175	0.500075
C107	C	-0.616106	0.159427	0.000077
C108	C	-0.116106	0.659427	0.500077
C109	C	-0.640564	0.535248	0.000071
C110	C	-0.140564	1.035248	0.500071
C111	C	-0.635788	0.617002	0.000071
C112	C	-0.135788	1.117002	0.500071
C113	C	-0.738664	0.636499	0.000091
C114	C	-0.238664	1.136499	0.500091
C115	C	-0.743439	0.554748	0.000098
C116	C	-0.243439	1.054748	0.500098
C117	C	-0.694390	0.504127	0.000083
C118	C	-0.194390	1.004127	0.500083
N119	N	-0.655489	0.375365	0.000079
N120	N	-0.155489	0.875365	0.500079
N121	N	-0.699277	0.420568	0.000084
N122	N	-0.199277	0.920568	0.500084
N123	N	-0.684412	-0.091694	-0.216243
N124	N	-0.184412	0.408306	0.283757
C125	C	-0.705235	-0.060894	0.260128
C126	C	-0.205235	0.439106	0.760128
C127	C	-0.702407	-0.065074	0.347535
C128	C	-0.202407	0.434926	0.847535
C129	C	-0.664706	-0.120734	0.391237
C130	C	-0.164706	0.379266	0.891237
C131	C	-0.629827	-0.172213	0.347529
C132	C	-0.129827	0.327787	0.847529
C133	C	-0.632654	-0.168028	0.260125
C134	C	-0.132654	0.331972	0.760125
C135	C	-0.652360	-0.138988	0.652644
C136	C	-0.152360	0.361012	1.152644
C137	C	-0.649537	-0.143170	0.740055
C138	C	-0.149537	0.356830	1.240055
C139	C	-0.722116	-0.036030	0.740054
C140	C	-0.222116	0.463970	1.240054
C141	C	-0.724941	-0.031854	0.652648
C142	C	-0.224941	0.468146	1.152648
C143	C	-0.690061	-0.083330	0.608947
C144	C	-0.190061	0.416670	1.108947
N145	N	-0.661815	-0.125009	0.480580
N146	N	-0.161815	0.374991	0.980580
N147	N	-0.692949	-0.079050	0.519606
N148	N	-0.192949	0.420950	1.019606
H149	H	-0.390525	-0.235307	0.000078
H150	H	0.109475	0.264693	0.500078
H151	H	-0.511174	0.022218	0.000075
H152	H	-0.011174	0.522218	0.500075
C153	C	-0.187089	-0.386612	0.000091
C154	C	0.312911	0.113388	0.500091
C155	C	-0.228838	-0.324538	0.000087
C156	C	0.271162	0.175462	0.500087
H157	H	-0.204858	-0.435443	0.000101
H158	H	0.295142	0.064557	0.500101
H159	H	-0.165622	-0.380944	-0.048330
H160	H	0.334378	0.119056	0.451670
H161	H	-0.162478	-0.385554	0.048516
H162	H	0.337522	0.114446	0.548516
H163	H	-0.253447	-0.325593	-0.048341
H164	H	0.246553	0.174407	0.451659
H165	H	-0.250315	-0.330207	0.048513
H166	H	0.249685	0.169793	0.548513
C167	C	-0.519846	0.246309	0.071433
C168	C	-0.019846	0.746309	0.571433
C169	C	-0.552157	0.275382	0.000060
C170	C	-0.052157	0.775382	0.500060
H171	H	-0.483316	0.267422	0.071420
H172	H	0.016684	0.767422	0.571420
H173	H	-0.538621	0.261408	0.119851
H174	H	-0.038621	0.761408	0.619851
H175	H	-0.515680	0.190377	0.071423
H176	H	-0.015680	0.690377	0.571423
H177	H	-0.556326	0.331314	0.000073
H178	H	-0.056326	0.831314	0.500073
H179	H	-0.533377	0.260288	-0.048371
H180	H	-0.033377	0.760288	0.451629
C181	C	-0.071984	-0.322873	-0.071305
C182	C	0.428016	0.177127	0.428695
C183	C	-0.104063	-0.322482	0.000080
C184	C	0.395937	0.177518	0.500080
H185	H	-0.049424	-0.371038	-0.071312
H186	H	0.450576	0.128962	0.428688
H187	H	-0.096894	-0.317962	-0.119715
H188	H	0.403106	0.182038	0.380285
H189	H	-0.047870	-0.279889	-0.071290
H190	H	0.452130	0.220111	0.428710
H191	H	-0.128180	-0.365463	0.000062
H192	H	0.371820	0.134537	0.500062
H193	H	-0.079150	-0.327401	0.048503
H194	H	0.420850	0.172599	0.548503
C195	C	-0.005809	0.051855	0.071493
C196	C	0.494191	0.551855	0.571493
C197	C	0.026274	0.051450	0.000112
C198	C	0.526274	0.551450	0.500112
H199	H	-0.028365	0.100023	0.071492
H200	H	0.471635	0.600023	0.571492
H201	H	-0.029920	0.008877	0.071486
H202	H	0.470080	0.508877	0.571486
H203	H	0.019104	0.046951	0.119911
H204	H	0.519104	0.546951	0.619911
H205	H	0.001362	0.056348	-0.048307
H206	H	0.501362	0.556348	0.451693
H207	H	0.050388	0.094440	0.000111
H208	H	0.550388	0.594440	0.500111
H209	H	-0.600624	0.494041	0.000059
H210	H	-0.100624	0.994041	0.500059
H211	H	-0.618835	-0.188499	0.775633
H212	H	-0.118835	0.311501	1.275633
C213	C	-0.560635	-0.274358	0.268899
C214	C	-0.060635	0.225642	0.768899
C215	C	-0.594321	-0.224616	0.212084
C216	C	-0.094321	0.275384	0.712084
H217	H	-0.536972	-0.309295	0.239239
H218	H	-0.036972	0.190705	0.739239
H219	H	-0.537572	-0.243506	0.302998
H220	H	-0.037572	0.256494	0.802998
H221	H	-0.584518	-0.304018	0.302981
H222	H	-0.084518	0.195982	0.802981
H223	H	-0.570438	-0.194952	0.178005
H224	H	-0.070438	0.305048	0.678005
H225	H	-0.617386	-0.255472	0.177971
H226	H	-0.117386	0.244528	0.677971
C227	C	0.082833	-0.310657	0.000095
C228	C	0.582833	0.189343	0.500095
C229	C	0.041086	-0.248580	0.000099
C230	C	0.541086	0.251420	0.500099
H231	H	0.065061	-0.359485	0.000100
H232	H	0.565061	0.140515	0.500100
H233	H	0.104299	-0.304986	-0.048327
H234	H	0.604299	0.195014	0.451673
H235	H	0.107445	-0.309605	0.048519
H236	H	0.607445	0.190395	0.548519
H237	H	0.016476	-0.249628	-0.048329
H238	H	0.516476	0.250372	0.451671
H239	H	0.019610	-0.254252	0.048526
H240	H	0.519610	0.245748	0.548526
H241	H	-0.599128	-0.217530	0.383117
H242	H	-0.099128	0.282470	0.883117
H243	H	0.156406	-0.226294	0.000102
H244	H	0.656406	0.273706	0.500102
C245	C	-0.810454	0.173783	-0.071269
C246	C	-0.310454	0.673783	0.428731
C247	C	-0.778148	0.144716	0.000112
C248	C	-0.278148	0.644716	0.500112
H249	H	-0.846980	0.152659	-0.071268
H250	H	-0.346980	0.652659	0.428732
H251	H	-0.814625	0.229707	-0.071262
H252	H	-0.314625	0.729707	0.428738
H253	H	-0.791667	0.158684	-0.119687
H254	H	-0.291667	0.658684	0.380313
H255	H	-0.796933	0.159820	0.048531
H256	H	-0.296933	0.659820	0.548531
H257	H	-0.773979	0.088780	0.000113
H258	H	-0.273979	0.588780	0.500113
H259	H	-0.241247	0.098177	0.000138
H260	H	0.258753	0.598177	0.500138
C261	C	-0.532212	0.121045	-0.071317
C262	C	-0.032212	0.621045	0.428683
C263	C	-0.562193	0.103780	0.000069
C264	C	-0.062193	0.603780	0.500069
H265	H	-0.498926	0.086694	-0.071321
H266	H	0.001074	0.586694	0.428679
H267	H	-0.555704	0.113962	-0.119726
H268	H	-0.055704	0.613962	0.380274
H269	H	-0.521666	0.174187	-0.071309
H270	H	-0.021666	0.674187	0.428691
H271	H	-0.572743	0.050640	0.000058
H272	H	-0.072743	0.550640	0.500058
H273	H	-0.538696	0.110857	0.048491
H274	H	-0.038696	0.610857	0.548491
H275	H	-0.133410	0.099958	0.000138
H276	H	0.366590	0.599958	0.500138
H277	H	-0.735938	-0.015573	0.224552
H278	H	-0.235938	0.484427	0.724552
H279	H	-0.730804	-0.023157	0.383116
H280	H	-0.230804	0.476843	0.883116
H281	H	-0.754140	0.301892	0.000105
H282	H	-0.254140	0.801892	0.500105
H283	H	-0.787270	0.529412	0.000107
H284	H	-0.287270	1.029412	0.500107
C285	C	0.187335	0.055023	0.071490
C286	C	0.687335	0.555023	0.571490
C287	C	0.151057	0.053500	0.000108
C288	C	0.651057	0.553500	0.500108
H289	H	0.205109	0.103849	0.071489
H290	H	0.705109	0.603849	0.571489
H291	H	0.165858	0.049360	0.119902
H292	H	0.665858	0.549360	0.619902
H293	H	0.215647	0.012897	0.071482
H294	H	0.715647	0.512897	0.571482
H295	H	0.122741	0.095622	0.000119
H296	H	0.622741	0.595622	0.500119
H297	H	0.172535	0.059171	-0.048316
H298	H	0.672535	0.559171	0.451684
C299	C	-0.796392	0.073638	0.661430
C300	C	-0.296392	0.573638	1.161430
C301	C	-0.766380	0.029334	0.604613
C302	C	-0.266380	0.529334	1.104613
H303	H	-0.821973	0.111414	0.631773
H304	H	-0.321973	0.611414	1.131773
H305	H	-0.817252	0.039523	0.695509
H306	H	-0.317252	0.539523	1.195509
H307	H	-0.770305	0.100033	0.695533
H308	H	-0.270305	0.600033	1.195533
H309	H	-0.792467	0.002934	0.570514
H310	H	-0.292467	0.502934	1.070514
H311	H	-0.745519	0.063454	0.570520
H312	H	-0.245519	0.563454	1.070520
C313	C	-0.364191	0.052840	-0.071288
C314	C	0.135809	0.552840	0.428712
C315	C	-0.395849	0.044500	0.000085
C316	C	0.104151	0.544500	0.500085
H317	H	-0.346419	0.101668	-0.071280
H318	H	0.153581	0.601668	0.428720
H319	H	-0.335881	0.010719	-0.071279
H320	H	0.164119	0.510719	0.428721
H321	H	-0.388806	0.051801	-0.119711
H322	H	0.111194	0.551801	0.380289
H323	H	-0.371233	0.045532	0.048509
H324	H	0.128767	0.545532	0.548509
H325	H	-0.424162	0.086631	0.000084
H326	H	0.075838	0.586631	0.500084
H327	H	-0.750513	0.005880	0.775643
H328	H	-0.250513	0.505880	1.275643
H329	H	-0.623959	-0.180903	0.617070
H330	H	-0.123959	0.319097	1.117070
H331	H	-0.778597	0.677723	0.000101
H332	H	-0.278597	1.177723	0.500101
C333	C	-0.464086	-0.319655	0.000062
C334	C	0.035914	0.180345	0.500062
C335	C	-0.505831	-0.257574	0.000057
C336	C	-0.005831	0.242426	0.500057
H337	H	-0.481860	-0.368482	0.000064
H338	H	0.018140	0.131518	0.500064
H339	H	-0.442616	-0.313987	-0.048356
H340	H	0.057384	0.186013	0.451644
H341	H	-0.439478	-0.318604	0.048490
H342	H	0.060522	0.181396	0.548490
H343	H	-0.530437	-0.258622	-0.048375
H344	H	-0.030437	0.241378	0.451625
H345	H	-0.527311	-0.263244	0.048480
H346	H	-0.027311	0.236756	0.548480
C347	C	-0.548954	0.628976	-0.071345
C348	C	-0.048954	1.128976	0.428655
C349	C	-0.576620	0.651223	0.000049
C350	C	-0.076620	1.151223	0.500049
H351	H	-0.512430	0.650109	-0.071360
H352	H	-0.012430	1.150109	0.428640
H353	H	-0.544775	0.573052	-0.071341
H354	H	-0.044775	1.073052	0.428659
H355	H	-0.570890	0.648693	-0.119754
H356	H	-0.070890	1.148693	0.380246
H357	H	-0.554685	0.631501	0.048458
H358	H	-0.054685	1.131501	0.548458
H359	H	-0.580795	0.707158	0.000052
H360	H	-0.080795	1.207158	0.500052
