data_functionalizedCrystal
_audit_creation_method	'MofGen! by Chris Wilmer'
_symmetry_space_group_name_H-M	'P1'
_symmetry_Int_Tables_number	1
_symmetry_cell_setting	triclinic
loop_
_symmetry_equiv_pos_as_xyz
  x,y,z
_cell_length_a	21.395364
_cell_length_b	21.395361
_cell_length_c	21.395356
_cell_angle_alpha	90.030681
_cell_angle_beta	90.024640
_cell_angle_gamma	90.028209
loop_
_atom_site_label
_atom_site_type_symbol
_atom_site_fract_x
_atom_site_fract_y
_atom_site_fract_z
Zn1	Zn	-0.957853	0.249496	-0.354266
Zn2	Zn	-0.624520	0.582830	-0.020933
Zn3	Zn	-0.291186	0.916163	0.312401
Zn4	Zn	-0.957757	0.354273	-0.249483
Zn5	Zn	-0.624424	0.687606	0.083850
Zn6	Zn	-0.291091	1.020939	0.417184
Zn7	Zn	-0.853070	0.249508	-0.249501
Zn8	Zn	-0.519737	0.582842	0.083833
Zn9	Zn	-0.186403	0.916175	0.417166
Zn10	Zn	-0.853037	0.354235	-0.354221
Zn11	Zn	-0.519704	0.687569	-0.020888
Zn12	Zn	-0.186371	1.020902	0.312445
O13	O	-0.905429	0.301878	-0.301868
O14	O	-0.572096	0.635212	0.031466
O15	O	-0.238763	0.968545	0.364799
O16	O	-1.045518	0.263406	-0.340377
O17	O	-0.712185	0.596739	-0.007044
O18	O	-0.378852	0.930072	0.326289
O19	O	-0.943844	0.340396	-0.161807
O20	O	-0.610511	0.673730	0.171526
O21	O	-0.277177	1.007063	0.504859
O22	O	-0.867023	0.161829	-0.263424
O23	O	-0.533690	0.495162	0.069909
O24	O	-0.200357	0.828496	0.403243
O25	O	-1.045448	0.340384	-0.263394
O26	O	-0.712115	0.673718	0.069939
O27	O	-0.378781	1.007051	0.403273
O28	O	-0.944007	0.161820	-0.340395
O29	O	-0.610674	0.495153	-0.007061
O30	O	-0.277340	0.828487	0.326272
O31	O	-0.866930	0.263427	-0.161820
O32	O	-0.533597	0.596760	0.171513
O33	O	-0.200264	0.930093	0.504846
O34	O	-0.765388	0.263390	-0.263381
O35	O	-0.432054	0.596724	0.069953
O36	O	-0.098721	0.930057	0.403286
O37	O	-0.866968	0.340321	-0.441905
O38	O	-0.533634	0.673654	-0.108572
O39	O	-0.200301	1.006987	0.224762
O40	O	-0.765364	0.340333	-0.340319
O41	O	-0.432030	0.673666	-0.006985
O42	O	-0.098697	1.006999	0.326348
O43	O	-0.943975	0.263369	-0.441938
O44	O	-0.610642	0.596703	-0.108605
O45	O	-0.277309	0.930036	0.224729
O46	O	-0.943812	0.441946	-0.263351
O47	O	-0.610479	0.775279	0.069983
O48	O	-0.277146	1.108612	0.403316
O49	O	-0.866875	0.441918	-0.340301
O50	O	-0.533542	0.775252	-0.006968
O51	O	-0.200208	1.108585	0.326365
C52	C	-0.742642	0.301859	-0.301847
C53	C	-0.409308	0.635192	0.031486
C54	C	-0.075975	0.968526	0.364820
C55	C	-0.673001	0.301866	-0.301853
C56	C	-0.339667	0.635199	0.031480
C57	C	-0.006334	0.968533	0.364813
C58	C	-0.171208	0.342005	-0.341879
C59	C	0.162125	0.675338	-0.008546
C60	C	0.495458	1.008671	0.324787
C61	C	-0.236644	0.342006	-0.341874
C62	C	0.096690	0.675339	-0.008540
C63	C	0.430023	1.008673	0.324793
C64	C	-0.269362	0.301883	-0.301878
C65	C	0.063971	0.635216	0.031455
C66	C	0.397304	0.968549	0.364789
C67	C	-0.236640	0.261767	-0.261873
C68	C	0.096693	0.595100	0.071460
C69	C	0.430027	0.928433	0.404793
C70	C	-0.171206	0.261771	-0.261876
C71	C	0.162128	0.595105	0.071458
C72	C	0.495461	0.928438	0.404791
C73	C	-0.373051	0.245420	-0.297031
C74	C	-0.039718	0.578753	0.036302
C75	C	0.293616	0.912086	0.369636
C76	C	-0.438484	0.245414	-0.297033
C77	C	-0.105151	0.578747	0.036300
C78	C	0.228183	0.912081	0.369633
C79	C	-0.471183	0.301869	-0.301867
C80	C	-0.137850	0.635202	0.031466
C81	C	0.195484	0.968536	0.364799
C82	C	-0.438441	0.358331	-0.306712
C83	C	-0.105108	0.691665	0.026621
C84	C	0.228226	1.024998	0.359955
C85	C	-0.373007	0.358336	-0.306714
C86	C	-0.039673	0.691669	0.026619
C87	C	0.293660	1.025003	0.359952
C88	C	-0.340315	0.301874	-0.301871
C89	C	-0.006981	0.635207	0.031463
C90	C	0.326352	0.968540	0.364796
C91	C	-0.574850	0.341987	-0.341860
C92	C	-0.241517	0.675320	-0.008527
C93	C	0.091817	1.008653	0.324807
C94	C	-0.640287	0.341989	-0.341850
C95	C	-0.306953	0.675322	-0.008517
C96	C	0.026380	1.008656	0.324817
C97	C	-0.640281	0.261744	-0.261853
C98	C	-0.306948	0.595077	0.071480
C99	C	0.026385	0.928411	0.404814
C100	C	-0.574846	0.261748	-0.261860
C101	C	-0.241513	0.595081	0.071474
C102	C	0.091821	0.928414	0.404807
C103	C	-0.542134	0.301868	-0.301867
C104	C	-0.208801	0.635201	0.031467
C105	C	0.124532	0.968535	0.364800
C106	C	-0.905347	0.464666	-0.301833
C107	C	-0.572013	0.797999	0.031501
C108	C	-0.238680	1.131333	0.364834
C109	C	-0.905369	0.534307	-0.301839
C110	C	-0.572035	0.867640	0.031494
C111	C	-0.238702	1.200974	0.364828
C112	C	-0.068853	0.301894	-0.301885
C113	C	0.264481	0.635227	0.031448
C114	C	0.597814	0.968561	0.364782
C115	C	-0.138494	0.301892	-0.301882
C116	C	0.194839	0.635225	0.031451
C117	C	0.528173	0.968558	0.364784
C118	C	-0.905479	0.301839	-0.465291
C119	C	-0.572145	0.635173	-0.131958
C120	C	-0.238812	0.968506	0.201376
C121	C	-0.905500	0.301823	-0.534932
C122	C	-0.572166	0.635156	-0.201599
C123	C	-0.238833	0.968489	0.131734
C124	C	-0.905529	0.138455	-0.301916
C125	C	-0.572196	0.471788	0.031417
C126	C	-0.238863	0.805122	0.364750
C127	C	-0.905572	0.068814	-0.301937
C128	C	-0.572239	0.402147	0.031396
C129	C	-0.238905	0.735480	0.364730
C130	C	-0.945465	0.567014	-0.261812
C131	C	-0.612132	0.900347	0.071522
C132	C	-0.278799	1.233680	0.404855
C133	C	-0.945495	0.632449	-0.261826
C134	C	-0.612161	0.965782	0.071508
C135	C	-0.278828	1.299116	0.404841
C136	C	-0.905416	0.665175	-0.301860
C137	C	-0.572082	0.998509	0.031473
C138	C	-0.238749	1.331842	0.364806
C139	C	-0.865316	0.632461	-0.341895
C140	C	-0.531983	0.965794	-0.008562
C141	C	-0.198649	1.299127	0.324771
C142	C	-0.865293	0.567027	-0.341885
C143	C	-0.531959	0.900360	-0.008551
C144	C	-0.198626	1.233693	0.324782
C145	C	-0.849001	0.768887	-0.306769
C146	C	-0.515668	1.102221	0.026564
C147	C	-0.182334	1.435554	0.359897
C148	C	-0.849023	0.834320	-0.306776
C149	C	-0.515690	1.167654	0.026558
C150	C	-0.182357	1.500987	0.359891
C151	C	-0.905489	0.866996	-0.301897
C152	C	-0.572155	1.200329	0.031436
C153	C	-0.238822	1.533663	0.364770
C154	C	-0.961933	0.834231	-0.296999
C155	C	-0.628600	1.167564	0.036334
C156	C	-0.295267	1.500898	0.369668
C157	C	-0.961910	0.768797	-0.296988
C158	C	-0.628576	1.102130	0.036345
C159	C	-0.295243	1.435463	0.369678
C160	C	-0.905437	0.736128	-0.301877
C161	C	-0.572104	1.069461	0.031457
C162	C	-0.238770	1.402794	0.364790
C163	C	-0.945620	0.970655	-0.261883
C164	C	-0.612287	1.303989	0.071450
C165	C	-0.278954	1.637322	0.404784
C166	C	-0.945651	1.036092	-0.261901
C167	C	-0.612317	1.369425	0.071432
C168	C	-0.278984	1.702759	0.404765
C169	C	-0.865467	1.036102	-0.341968
C170	C	-0.532133	1.369436	-0.008634
C171	C	-0.198800	1.702769	0.324699
C172	C	-0.865442	0.970667	-0.341953
C173	C	-0.532109	1.304000	-0.008619
C174	C	-0.198775	1.637334	0.324714
C175	C	-0.905518	0.937947	-0.301907
C176	C	-0.572185	1.271281	0.031426
C177	C	-0.238851	1.604614	0.364760
C178	C	-0.865462	0.261740	-0.567642
C179	C	-0.532128	0.595073	-0.234309
C180	C	-0.198795	0.928407	0.099024
C181	C	-0.865459	0.261728	-0.633078
C182	C	-0.532126	0.595062	-0.299744
C183	C	-0.198793	0.928395	0.033589
C184	C	-0.905507	0.301793	-0.665801
C185	C	-0.572173	0.635126	-0.332467
C186	C	-0.238840	0.968460	0.000866
C187	C	-0.945548	0.341884	-0.633083
C188	C	-0.612214	0.675217	-0.299749
C189	C	-0.278881	1.008550	0.033584
C190	C	-0.945544	0.341898	-0.567649
C191	C	-0.612211	0.675232	-0.234315
C192	C	-0.278877	1.008565	0.099018
C193	C	-0.961959	0.306721	-0.769488
C194	C	-0.628625	0.640055	-0.436154
C195	C	-0.295292	0.973388	-0.102821
C196	C	-0.961963	0.306702	-0.834921
C197	C	-0.628630	0.640035	-0.501587
C198	C	-0.295296	0.973369	-0.168254
C199	C	-0.905517	0.301751	-0.867622
C200	C	-0.572184	0.635084	-0.534288
C201	C	-0.238850	0.968417	-0.200955
C202	C	-0.849065	0.296805	-0.834881
C203	C	-0.515731	0.630139	-0.501548
C204	C	-0.182398	0.963472	-0.168215
C205	C	-0.849061	0.296820	-0.769447
C206	C	-0.515728	0.630154	-0.436114
C207	C	-0.182394	0.963487	-0.102780
C208	C	-0.905515	0.301782	-0.736753
C209	C	-0.572181	0.635115	-0.403420
C210	C	-0.238848	0.968448	-0.070086
C211	C	-0.865473	0.261653	-0.971284
C212	C	-0.532140	0.594987	-0.637951
C213	C	-0.198806	0.928320	-0.304618
C214	C	-0.865470	0.261646	-1.036721
C215	C	-0.532137	0.594979	-0.703388
C216	C	-0.198803	0.928313	-0.370054
C217	C	-0.945564	0.341798	-1.036725
C218	C	-0.612230	0.675131	-0.703391
C219	C	-0.278897	1.008464	-0.370058
C220	C	-0.945561	0.341808	-0.971289
C221	C	-0.612228	0.675142	-0.637956
C222	C	-0.278895	1.008475	-0.304622
C223	C	-0.905517	0.301733	-0.938573
C224	C	-0.572184	0.635066	-0.605240
C225	C	-0.238850	0.968399	-0.271906
C226	C	-0.905416	0.301872	-0.139080
C227	C	-0.572083	0.635205	0.194253
C228	C	-0.238750	0.968538	0.527587
C229	C	-0.905517	0.301712	-0.069439
C230	C	-0.572183	0.635045	0.263894
C231	C	-0.238850	0.968378	0.597227
H232	H	-0.263283	0.229099	-0.229307
H233	H	0.070050	0.562432	0.104026
H234	H	0.403383	0.895766	0.437359
N235	N	-1.022780	0.733451	-0.291714
N236	N	-0.689447	1.066784	0.041620
N237	N	-0.356114	1.400118	0.374953
H238	H	-1.044131	0.744844	-0.251188
H239	H	-0.710797	1.078177	0.082145
H240	H	-0.377464	1.411510	0.415479
H241	H	-1.050757	0.744800	-0.328003
H242	H	-0.717424	1.078134	0.005331
H243	H	-0.384090	1.411467	0.338664
N244	N	-0.988752	0.385031	-0.935999
N245	N	-0.655418	0.718364	-0.602666
N246	N	-0.322085	1.051697	-0.269333
H247	H	-0.963269	0.414068	-0.908832
H248	H	-0.629936	0.747401	-0.575499
H249	H	-0.296602	1.080735	-0.242165
H250	H	-1.014116	0.410370	-0.966692
H251	H	-0.680783	0.743703	-0.633359
H252	H	-0.347449	1.077037	-0.300025
N253	N	-0.135929	0.385286	-0.385019
N254	N	0.197405	0.718619	-0.051686
N255	N	0.530738	1.051953	0.281648
H256	H	-0.089511	0.379204	-0.378952
H257	H	0.243822	0.712538	-0.045619
H258	H	0.577155	1.045871	0.287715
H259	H	-0.147390	0.375590	-0.429784
H260	H	0.185943	0.708924	-0.096451
H261	H	0.519277	1.042257	0.236883
H262	H	-0.978255	0.944014	-0.229277
H263	H	-0.644922	1.277347	0.104056
H264	H	-0.311588	1.610681	0.437390
H265	H	-0.978172	0.374418	-1.063367
H266	H	-0.644839	0.707751	-0.730033
H267	H	-0.311505	1.041084	-0.396700
H268	H	-0.832857	0.229085	-0.659716
H269	H	-0.499523	0.562419	-0.326382
H270	H	-0.166190	0.895752	0.006951
H271	H	-1.007930	0.310726	-0.861573
H272	H	-0.674597	0.644059	-0.528240
H273	H	-0.341263	0.977392	-0.194906
H274	H	-0.978151	0.374538	-0.541016
H275	H	-0.644817	0.707871	-0.207683
H276	H	-0.311484	1.041205	0.125650
H277	H	-1.007913	0.860834	-0.293027
H278	H	-0.674579	1.194167	0.040307
H279	H	-0.341246	1.527501	0.373640
H280	H	-0.263285	0.374671	-0.374446
H281	H	0.070048	0.708004	-0.041113
H282	H	0.403382	1.041337	0.292221
N283	N	-0.675555	0.218458	-0.218717
N284	N	-0.342222	0.551792	0.114616
N285	N	-0.008889	0.885125	0.447949
H286	H	-0.664142	0.228130	-0.173933
H287	H	-0.330809	0.561463	0.159400
H288	H	0.002525	0.894796	0.492734
H289	H	-0.721962	0.224557	-0.224835
H290	H	-0.388629	0.557890	0.108499
H291	H	-0.055295	0.891223	0.441832
H292	H	-0.465138	0.199439	-0.293095
H293	H	-0.131804	0.532772	0.040238
H294	H	0.201529	0.866106	0.373571
H295	H	-0.978099	0.540375	-0.229206
H296	H	-0.644766	0.873709	0.104128
H297	H	-0.311433	1.207042	0.437461
N298	N	-0.788180	0.291480	-0.734133
N299	N	-0.454847	0.624813	-0.400800
N300	N	-0.121513	0.958146	-0.067466
H301	H	-0.752420	0.288337	-0.764773
H302	H	-0.419086	0.621670	-0.431440
H303	H	-0.085753	0.955003	-0.098106
H304	H	-0.782334	0.329657	-0.706967
H305	H	-0.449000	0.662991	-0.373633
H306	H	-0.115667	0.996324	-0.040300
H307	H	-0.144570	0.229105	-0.229305
H308	H	0.188763	0.562438	0.104028
H309	H	0.522097	0.895771	0.437362
N310	N	-0.539569	0.385267	-0.385003
N311	N	-0.206235	0.718600	-0.051669
N312	N	0.127098	1.051933	0.281664
H313	H	-0.512394	0.414269	-0.359488
H314	H	-0.179061	0.747603	-0.026155
H315	H	0.154273	1.080936	0.307178
H316	H	-0.512483	0.359801	-0.414081
H317	H	-0.179149	0.693134	-0.080748
H318	H	0.154184	1.026468	0.252586
H319	H	-0.548210	0.229081	-0.229292
H320	H	-0.214876	0.562414	0.104041
H321	H	0.118457	0.895748	0.437375
N322	N	-0.822183	0.935388	-0.385116
N323	N	-0.488850	1.268721	-0.051783
N324	N	-0.155517	1.602054	0.281551
H325	H	-0.828249	0.888970	-0.379034
H326	H	-0.494916	1.222303	-0.045701
H327	H	-0.161582	1.555637	0.287633
H328	H	-0.831914	0.946784	-0.429875
H329	H	-0.498581	1.280118	-0.096542
H330	H	-0.165248	1.613451	0.236791
H331	H	-0.978148	0.659084	-0.229231
H332	H	-0.644815	0.992417	0.104103
H333	H	-0.311482	1.325751	0.437436
N334	N	-0.988903	1.071372	-0.218730
N335	N	-0.655570	1.404705	0.114603
N336	N	-0.322237	1.738039	0.447936
H337	H	-1.014285	1.040712	-0.193361
H338	H	-0.680951	1.374046	0.139972
H339	H	-0.347618	1.707379	0.473306
H340	H	-0.963422	1.098565	-0.189719
H341	H	-0.630089	1.431899	0.143614
H342	H	-0.296755	1.765232	0.476947
N343	N	-0.788097	0.733642	-0.312024
N344	N	-0.454764	1.066976	0.021310
N345	N	-0.121431	1.400309	0.354643
H346	H	-0.788908	0.706464	-0.350628
H347	H	-0.455575	1.039798	-0.017295
H348	H	-0.122242	1.373131	0.316038
H349	H	-0.752376	0.764362	-0.315094
H350	H	-0.419042	1.097695	0.018239
H351	H	-0.085709	1.431028	0.351572
H352	H	-1.007928	0.310748	-0.742868
H353	H	-0.674594	0.644081	-0.409535
H354	H	-0.341261	0.977415	-0.076202
H355	H	-0.832685	0.659111	-0.374493
H356	H	-0.499351	0.992444	-0.041160
H357	H	-0.166018	1.325777	0.292174
N358	N	-0.675575	0.385261	-0.384986
N359	N	-0.342242	0.718595	-0.051653
N360	N	-0.008908	1.051928	0.281681
H361	H	-0.644920	0.410676	-0.410329
H362	H	-0.311587	0.744009	-0.076995
H363	H	0.021746	1.077343	0.256338
H364	H	-0.702752	0.359793	-0.414024
H365	H	-0.369419	0.693126	-0.080690
H366	H	-0.036085	1.026459	0.252643
N367	N	-0.822273	0.218510	-0.532365
N368	N	-0.488939	0.551844	-0.199032
N369	N	-0.155606	0.885177	0.134301
H370	H	-0.777500	0.228228	-0.543734
H371	H	-0.444166	0.561561	-0.210401
H372	H	-0.110833	0.894894	0.122932
H373	H	-0.828394	0.224613	-0.485959
H374	H	-0.495061	0.557946	-0.152625
H375	H	-0.161728	0.891279	0.180708
N376	N	-0.788174	0.291498	-0.870140
N377	N	-0.454841	0.624831	-0.536807
N378	N	-0.121508	0.958165	-0.203474
H379	H	-0.796738	0.292254	-0.916560
H380	H	-0.463405	0.625588	-0.583227
H381	H	-0.130072	0.958921	-0.249894
H382	H	-0.760165	0.327744	-0.858663
H383	H	-0.426832	0.661077	-0.525329
H384	H	-0.093498	0.994410	-0.191996
H385	H	-0.346433	0.199445	-0.293084
H386	H	-0.013100	0.532778	0.040249
H387	H	0.320234	0.866112	0.373582
N388	N	-0.988737	0.385102	-0.668372
N389	N	-0.655403	0.718435	-0.335039
N390	N	-0.322070	1.051769	-0.001705
H391	H	-0.982664	0.379010	-0.714788
H392	H	-0.649331	0.712344	-0.381455
H393	H	-0.315997	1.045677	-0.048122
H394	H	-1.033491	0.375363	-0.656955
H395	H	-0.700157	0.708696	-0.323621
H396	H	-0.366824	1.042030	0.009712
H397	H	-0.832836	1.062747	-0.374568
H398	H	-0.499503	1.396081	-0.041234
H399	H	-0.166170	1.729414	0.292099
N400	N	-0.788147	0.869657	-0.312049
N401	N	-0.454814	1.202991	0.021285
N402	N	-0.121481	1.536324	0.354618
H403	H	-0.752374	0.839030	-0.315144
H404	H	-0.419040	1.172363	0.018190
H405	H	-0.085707	1.505697	0.351523
H406	H	-0.789038	0.896782	-0.350657
H407	H	-0.455705	1.230115	-0.017324
H408	H	-0.122372	1.563449	0.316010
N409	N	-0.473694	0.419231	-0.311919
N410	N	-0.140360	0.752565	0.021414
N411	N	0.192973	1.085898	0.354747
H412	H	-0.462318	0.440604	-0.352430
H413	H	-0.128984	0.773937	-0.019097
H414	H	0.204349	1.107271	0.314236
H415	H	-0.520103	0.410619	-0.311151
H416	H	-0.186770	0.743952	0.022183
H417	H	0.146563	1.077285	0.355516
H418	H	-0.832640	0.540396	-0.374480
H419	H	-0.499307	0.873730	-0.041147
H420	H	-0.165974	1.207063	0.292186
H421	H	-0.832866	0.229022	-0.944645
H422	H	-0.499533	0.562355	-0.611312
H423	H	-0.166199	0.895688	-0.277979
N424	N	-0.822278	0.218413	-1.071999
N425	N	-0.488945	0.551746	-0.738665
N426	N	-0.155612	0.885079	-0.405332
H427	H	-0.832042	0.173650	-1.060631
H428	H	-0.498708	0.506984	-0.727297
H429	H	-0.165375	0.840317	-0.393964
H430	H	-0.828371	0.224537	-1.118405
H431	H	-0.495037	0.557870	-0.785072
H432	H	-0.161704	0.891204	-0.451739
N433	N	-0.337691	0.419229	-0.311934
N434	N	-0.004357	0.752562	0.021400
N435	N	0.328976	1.085895	0.354733
H436	H	-0.368329	0.454995	-0.314995
H437	H	-0.034996	0.788328	0.018338
H438	H	0.298337	1.121661	0.351672
H439	H	-0.310523	0.424995	-0.273747
H440	H	0.022810	0.758328	0.059587
H441	H	0.356143	1.091661	0.392920
