data_functionalizedCrystal
_audit_creation_method	'MofGen! by Chris Wilmer'
_symmetry_space_group_name_H-M	'P1'
_symmetry_Int_Tables_number	1
_symmetry_cell_setting	triclinic
loop_
_symmetry_equiv_pos_as_xyz
  x,y,z
_cell_length_a	19.077241
_cell_length_b	19.077068
_cell_length_c	15.298259
_cell_angle_alpha	97.833723
_cell_angle_beta	82.229381
_cell_angle_gamma	94.707771
loop_
_atom_site_label
_atom_site_type_symbol
_atom_site_fract_x
_atom_site_fract_y
_atom_site_fract_z
Zn1	Zn	-0.992535	0.163467	-0.569739
Zn2	Zn	-0.492535	0.663467	-0.069739
Zn3	Zn	-1.006277	0.299954	-0.426602
Zn4	Zn	-0.506277	0.799954	0.073398
Zn5	Zn	-0.894705	0.188297	-0.415119
Zn6	Zn	-0.394705	0.688297	0.084881
Zn7	Zn	-0.869881	0.286055	-0.569661
Zn8	Zn	-0.369881	0.786055	-0.069661
O9	O	-0.940850	0.234443	-0.495280
O10	O	-0.440850	0.734443	0.004720
O11	O	-1.092382	0.176998	-0.555590
O12	O	-0.592382	0.676998	-0.055590
O13	O	-1.007617	0.301352	-0.300499
O14	O	-0.507617	0.801352	0.199501
O15	O	-0.912320	0.086971	-0.430857
O16	O	-0.412320	0.586971	0.069143
O17	O	-1.102479	0.277275	-0.450427
O18	O	-0.602479	0.777275	0.049573
O19	O	-0.984195	0.068729	-0.544455
O20	O	-0.484195	0.568729	-0.044455
O21	O	-0.925646	0.219318	-0.292062
O22	O	-0.425646	0.719318	0.207938
O23	O	-0.793388	0.205839	-0.430781
O24	O	-0.293388	0.705839	0.069219
O25	O	-0.870011	0.253585	-0.694251
O26	O	-0.370011	0.753585	-0.194251
O27	O	-0.775150	0.277661	-0.544323
O28	O	-0.275150	0.777661	-0.044323
O29	O	-0.960124	0.163520	-0.694309
O30	O	-0.460124	0.663520	-0.194309
O31	O	-0.983547	0.396143	-0.450352
O32	O	-0.483547	0.896143	0.049648
O33	O	-0.883337	0.385931	-0.555457
O34	O	-0.383337	0.885931	-0.055457
C35	C	-0.758852	0.242937	-0.486298
C36	C	-0.258852	0.742937	0.013702
C37	C	-0.680989	0.246585	-0.482477
C38	C	-0.180989	0.746585	0.017523
C39	C	-0.639138	0.196149	-0.535525
C40	C	-0.139138	0.696149	-0.035525
C41	C	-0.565979	0.199574	-0.531927
C42	C	-0.065979	0.699574	-0.031927
C43	C	-0.534671	0.253438	-0.475286
C44	C	-0.034671	0.753438	0.024714
C45	C	-0.576528	0.303876	-0.422232
C46	C	-0.076528	0.803876	0.077768
C47	C	-0.649687	0.300447	-0.425826
C48	C	-0.149687	0.800447	0.074174
C49	C	-0.316437	0.269281	-0.458652
C50	C	0.183563	0.769281	0.041348
C51	C	-0.243272	0.272707	-0.455065
C52	C	0.256728	0.772707	0.044935
C53	C	-0.232729	0.168405	-0.564759
C54	C	0.267271	0.668405	-0.064759
C55	C	-0.305888	0.164983	-0.568352
C56	C	0.194112	0.664983	-0.068352
C57	C	-0.347739	0.215419	-0.515295
C58	C	0.152261	0.715419	-0.015295
N59	N	-0.459891	0.256942	-0.471609
N60	N	0.040109	0.756942	0.028391
N61	N	-0.422519	0.211912	-0.518967
N62	N	0.077481	0.711912	-0.018967
C63	C	-0.910766	0.204232	-0.727485
C64	C	-0.410766	0.704232	-0.227485
C65	C	-0.897946	0.191358	-0.826437
C66	C	-0.397946	0.691358	-0.326437
C67	C	-0.932256	0.416452	-0.504163
C68	C	-0.432256	0.916452	-0.004163
C69	C	-0.928640	0.494309	-0.507995
C70	C	-0.428640	0.994309	-0.007995
C71	C	-0.123559	0.225914	-0.504291
C72	C	0.376441	0.725914	-0.004291
C73	C	-0.201421	0.222272	-0.508112
C74	C	0.298579	0.722272	-0.008112
C75	C	-0.949494	0.051721	-0.486384
C76	C	-0.449494	0.551721	0.013616
C77	C	-0.953177	-0.026145	-0.482592
C78	C	-0.453177	0.473855	0.017408
C79	C	-0.979143	0.536172	-0.455122
C80	C	-0.479143	1.036172	0.044878
C81	C	-0.975745	0.609326	-0.458733
C82	C	-0.475745	1.109326	0.041267
C83	C	-0.921840	0.640616	-0.515212
C84	C	-0.421840	1.140616	-0.015212
C85	C	-0.871334	0.598747	-0.568091
C86	C	-0.371334	1.098747	-0.068091
C87	C	-0.874736	0.525594	-0.564485
C88	C	-0.374736	1.025594	-0.064485
C89	C	-0.906073	0.858833	-0.531865
C90	C	-0.406073	1.358833	-0.031865
C91	C	-0.902674	0.931992	-0.535465
C92	C	-0.402674	1.431992	-0.035465
C93	C	-1.007086	0.942566	-0.426108
C94	C	-0.507086	1.442566	0.073892
C95	C	-1.010480	0.869411	-0.422503
C96	C	-0.510480	1.369411	0.077497
C97	C	-0.959976	0.827548	-0.475385
C98	C	-0.459976	1.327548	0.024615
N99	N	-0.918365	0.715391	-0.518902
N100	N	-0.418365	1.215391	-0.018902
N101	N	-0.963455	0.752774	-0.471699
N102	N	-0.463455	1.252774	0.028301
C103	C	-1.032524	0.325917	-1.122929
C104	C	-0.532524	0.825917	-0.622929
C105	C	-1.044565	0.338018	-1.029959
C106	C	-0.544565	0.838018	-0.529959
C107	C	-1.007912	0.301354	-0.979074
C108	C	-0.507912	0.801354	-0.479074
C109	C	-0.959214	0.252587	-1.021168
C110	C	-0.459214	0.752587	-0.521168
C111	C	-0.947168	0.240489	-1.114148
C112	C	-0.447168	0.740489	-0.614148
C113	C	-0.922556	0.215926	-0.970293
C114	C	-0.422556	0.715926	-0.470293
C115	C	-0.873858	0.167160	-1.012387
C116	C	-0.373858	0.667160	-0.512387
C117	C	-0.861814	0.155064	-1.105357
C118	C	-0.361814	0.655064	-0.605357
C119	C	-0.898468	0.191728	-1.156242
C120	C	-0.398468	0.691728	-0.656242
C121	C	-0.934602	0.228024	-0.877313
C122	C	-0.434602	0.728024	-0.377313
C123	C	-0.849246	0.142596	-0.868532
C124	C	-0.349246	0.642596	-0.368532
C125	C	-0.837205	0.130496	-0.961502
C126	C	-0.337205	0.630496	-0.461502
C127	C	-0.970859	0.264485	-0.263978
C128	C	-0.470859	0.764485	0.236022
C129	C	-0.983824	0.277155	-0.165024
C130	C	-0.483824	0.777155	0.334976
H131	H	-0.350503	0.310350	-0.415450
H132	H	0.149497	0.810350	0.084550
O133	O	-0.825766	0.484876	-0.615942
O134	O	-0.325766	0.984876	-0.115942
C135	C	-0.860132	0.433151	-0.673343
C136	C	-0.360132	0.933151	-0.173343
H137	H	-0.913556	0.451852	-0.682703
H138	H	-0.413556	0.951852	-0.182703
H139	H	-0.825922	0.424591	-0.740537
H140	H	-0.325922	0.924591	-0.240537
H141	H	-0.868708	0.381185	-0.643206
H142	H	-0.368708	0.881185	-0.143206
O143	O	-0.192086	0.119469	-0.616422
O144	O	0.307914	0.619469	-0.116422
C145	C	-0.197773	0.122495	-0.706750
C146	C	0.302227	0.622495	-0.206750
H147	H	-0.214680	0.176952	-0.714849
H148	H	0.285320	0.676952	-0.214849
H149	H	-0.144249	0.113044	-0.748090
H150	H	0.355751	0.613044	-0.248090
H151	H	-0.238985	0.079939	-0.730351
H152	H	0.261015	0.579939	-0.230351
H153	H	-0.683761	0.341517	-0.382628
H154	H	-0.183761	0.841517	0.117372
H155	H	-0.974256	0.267726	-0.843049
H156	H	-0.474256	0.767726	-0.343049
H157	H	-0.551032	0.347730	-0.376109
H158	H	-0.051032	0.847730	0.123891
O159	O	-1.068161	0.361611	-1.172224
O160	O	-0.568161	0.861611	-0.672224
C161	C	-1.113743	0.407231	-1.115139
C162	C	-0.613743	0.907231	-0.615139
H163	H	-1.093527	0.419619	-1.047562
H164	H	-0.593527	0.919619	-0.547562
H165	H	-1.115119	0.458582	-1.145061
H166	H	-0.615119	0.958582	-0.645061
H167	H	-1.169439	0.380384	-1.106632
H168	H	-0.669439	0.880384	-0.606632
H169	H	-1.023036	0.510702	-0.409127
H170	H	-0.523036	1.010702	0.090873
O171	O	-0.857098	0.818130	-0.583326
O172	O	-0.357098	1.318130	-0.083326
C173	C	-0.891450	0.766403	-0.640739
C174	C	-0.391450	1.266403	-0.140739
H175	H	-0.944877	0.785094	-0.650103
H176	H	-0.444877	1.285094	-0.150103
H177	H	-0.857233	0.757855	-0.707930
H178	H	-0.357233	1.257855	-0.207930
H179	H	-0.900018	0.714432	-0.610611
H180	H	-0.400018	1.214432	-0.110611
O181	O	-0.212977	0.325062	-0.399962
O182	O	0.287023	0.825062	0.100038
C183	C	-0.265600	0.368854	-0.353920
C184	C	0.234400	0.868854	0.146080
H185	H	-0.319493	0.338107	-0.352049
H186	H	0.180507	0.838107	0.147951
H187	H	-0.253186	0.386360	-0.283087
H188	H	0.246814	0.886360	0.216913
H189	H	-0.266672	0.417506	-0.389390
H190	H	0.233328	0.917506	0.110610
O191	O	-1.062866	0.838920	-0.367764
O192	O	-0.562866	1.338920	0.132236
C193	C	-1.103482	0.787848	-0.418642
C194	C	-0.603482	1.287848	0.081358
H195	H	-1.070505	0.769274	-0.484323
H196	H	-0.570505	1.269274	0.015677
H197	H	-1.119975	0.740685	-0.380322
H198	H	-0.619975	1.240685	0.119678
H199	H	-1.152807	0.812286	-0.432422
H200	H	-0.652807	1.312286	0.067578
O201	O	-1.056243	0.983141	-0.374792
O202	O	-0.556243	1.483141	0.125208
C203	C	-1.124345	0.959403	-0.396904
C204	C	-0.624345	1.459403	0.103096
H205	H	-1.123804	0.901758	-0.428583
H206	H	-0.623804	1.401758	0.071417
H207	H	-1.164236	0.963776	-0.334117
H208	H	-0.664236	1.463776	0.165883
H209	H	-1.140065	0.993480	-0.445889
H210	H	-0.640065	1.493480	0.054111
H211	H	-1.016870	0.643409	-0.415677
H212	H	-0.516870	1.143409	0.084323
H213	H	-0.858784	0.957463	-0.581474
H214	H	-0.358784	1.457463	-0.081474
H215	H	-1.017718	0.311210	-0.903374
H216	H	-0.517718	0.811210	-0.403374
H217	H	-0.819399	0.112742	-0.827101
H218	H	-0.319399	0.612742	-0.327101
O219	O	-0.819031	0.629089	-0.623086
O220	O	-0.319031	1.129089	-0.123086
C221	C	-0.823610	0.598901	-0.711698
C222	C	-0.323610	1.098901	-0.211698
H223	H	-0.879915	0.575536	-0.718018
H224	H	-0.379915	1.075536	-0.218018
H225	H	-0.809615	0.641562	-0.757745
H226	H	-0.309615	1.141562	-0.257745
H227	H	-0.785002	0.555195	-0.730986
H228	H	-0.285002	1.055195	-0.230986
H229	H	-1.084208	0.377730	-0.995692
H230	H	-0.584208	0.877730	-0.495692
H231	H	-0.888668	0.181876	-1.231947
H232	H	-0.388668	0.681876	-0.731947
O233	O	-0.814418	0.107749	-1.146143
O234	O	-0.314418	0.607749	-0.646143
C235	C	-0.746821	0.129285	-1.120734
C236	C	-0.246821	0.629285	-0.620734
H237	H	-0.752845	0.165067	-1.054470
H238	H	-0.252845	0.665067	-0.554470
H239	H	-0.718216	0.080606	-1.113534
H240	H	-0.218216	0.580606	-0.613534
H241	H	-0.714741	0.159592	-1.173650
H242	H	-0.214741	0.659592	-0.673650
O243	O	-0.669438	0.143762	-0.590570
O244	O	-0.169438	0.643762	-0.090570
C245	C	-0.616805	0.099993	-0.636635
C246	C	-0.116805	0.599993	-0.136635
H247	H	-0.569492	0.104710	-0.597491
H248	H	-0.069492	0.604710	-0.097491
H249	H	-0.639297	0.042569	-0.644595
H250	H	-0.139297	0.542569	-0.144595
H251	H	-0.599067	0.117305	-0.705068
H252	H	-0.099067	0.617305	-0.205068
O253	O	-0.525240	0.150679	-0.583509
O254	O	-0.025240	0.650679	-0.083509
C255	C	-0.473621	0.185147	-0.640810
C256	C	0.026379	0.685147	-0.140810
H257	H	-0.464236	0.242807	-0.611344
H258	H	0.035764	0.742807	-0.111344
H259	H	-0.421968	0.157474	-0.648890
H260	H	0.078032	0.657474	-0.148890
H261	H	-0.492916	0.183030	-0.708530
H262	H	0.007084	0.683030	-0.208530
O263	O	-0.336397	0.112637	-0.623248
O264	O	0.163603	0.612637	-0.123248
C265	C	-0.387385	0.071922	-0.572520
C266	C	0.112615	0.571922	-0.072520
H267	H	-0.405918	0.104818	-0.506740
H268	H	0.094082	0.604818	-0.006740
H269	H	-0.434578	0.055452	-0.610869
H270	H	0.065422	0.555452	-0.110869
H271	H	-0.362891	0.022573	-0.558931
H272	H	0.137109	0.522573	-0.058931
O273	O	-0.789811	0.083181	-1.002296
O274	O	-0.289811	0.583181	-0.502296
C275	C	-0.722209	0.104711	-0.976900
C276	C	-0.222209	0.604711	-0.476900
H277	H	-0.728225	0.140490	-0.910632
H278	H	-0.228225	0.640490	-0.410632
H279	H	-0.693604	0.056031	-0.969712
H280	H	-0.193604	0.556031	-0.469712
H281	H	-0.690135	0.135022	-1.029816
H282	H	-0.190135	0.635022	-0.529816
