data_functionalizedCrystal
_audit_creation_method	'MofGen! by Chris Wilmer'
_symmetry_space_group_name_H-M	'P1'
_symmetry_Int_Tables_number	1
_symmetry_cell_setting	triclinic
loop_
_symmetry_equiv_pos_as_xyz
  x,y,z
_cell_length_a	14.519709
_cell_length_b	11.792241
_cell_length_c	10.268362
_cell_angle_alpha	90.005428
_cell_angle_beta	89.998968
_cell_angle_gamma	83.936780
loop_
_atom_site_label
_atom_site_type_symbol
_atom_site_fract_x
_atom_site_fract_y
_atom_site_fract_z
O1	O	-1.224412	-0.148781	-0.108131
O2	O	-0.955999	-0.166302	-0.108171
O3	O	-1.096719	0.007665	-0.108141
O4	O	-1.083692	-0.322748	-0.108161
O5	O	-1.096707	0.007672	0.108460
O6	O	-0.955987	-0.166295	0.108430
O7	O	-1.224400	-0.148774	0.108470
Cu8	Cu	-1.090192	-0.157534	0.128227
Cu9	Cu	-1.090207	-0.157542	-0.127928
O10	O	-1.083680	-0.322741	0.108440
C11	C	-0.921630	-0.165482	0.000124
C12	C	-0.819240	-0.163035	0.000109
C13	C	-1.258769	-0.149594	0.000171
C14	C	-1.361159	-0.152041	0.000178
C15	C	-1.095895	0.049955	0.000159
C16	C	-1.093446	0.175955	0.000157
C17	C	-0.444311	-0.154027	0.000169
C18	C	-0.548628	-0.156528	0.000152
C19	C	-0.631772	-0.158531	0.000138
C20	C	-0.736096	-0.161033	0.000123
C21	C	-1.084504	-0.365031	0.000137
C22	C	-1.086954	-0.491031	0.000130
N23	N	-1.090189	-0.157527	0.308393
C24	C	-1.088942	0.406642	0.000135
C25	C	-1.091444	0.278271	0.000147
N26	N	-1.090218	-0.157540	-0.308094
C27	C	-1.090202	-0.157540	0.574063
C28	C	-1.090192	-0.157536	0.426226
