data_functionalizedCrystal
_audit_creation_method	'MofGen! by Chris Wilmer'
_symmetry_space_group_name_H-M	'P1'
_symmetry_Int_Tables_number	1
_symmetry_cell_setting	triclinic
loop_
_symmetry_equiv_pos_as_xyz
  x,y,z
_cell_length_a	19.188930
_cell_length_b	14.519709
_cell_length_c	13.596369
_cell_angle_alpha	90.000316
_cell_angle_beta	90.005514
_cell_angle_gamma	83.412464
loop_
_atom_site_label
_atom_site_type_symbol
_atom_site_fract_x
_atom_site_fract_y
_atom_site_fract_z
O1	O	0.091519	1.223302	0.081675
O2	O	0.591519	1.723302	0.581675
O3	O	0.102297	0.954758	0.081706
O4	O	0.602297	1.454758	0.581706
O5	O	-0.004720	1.096779	0.081670
O6	O	0.495280	1.596779	0.581670
O7	O	0.198536	1.081280	0.081711
O8	O	0.698536	1.581280	0.581711
O9	O	-0.004714	1.096762	-0.081912
O10	O	0.495286	1.596762	0.418088
O11	O	0.102303	0.954740	-0.081877
O12	O	0.602303	1.454740	0.418123
O13	O	0.091525	1.223284	-0.081908
O14	O	0.591525	1.723284	0.418092
Zn15	Zn	0.096915	1.089009	-0.107865
Zn16	Zn	0.596915	1.589009	0.392135
Zn17	Zn	0.096907	1.089032	0.107663
Zn18	Zn	0.596907	1.589032	0.607663
O19	O	0.198542	1.081263	-0.081872
O20	O	0.698542	1.581263	0.418128
C21	C	0.101797	0.920392	-0.000081
C22	C	0.601797	1.420392	0.499919
C23	C	0.100292	0.818020	-0.000070
C24	C	0.600292	1.318020	0.499930
C25	C	-0.030730	1.096269	-0.000124
C26	C	0.469270	1.596269	0.499876
C27	C	-0.108240	1.094762	-0.000132
C28	C	0.391760	1.594762	0.499868
C29	C	0.094751	0.443159	-0.000116
C30	C	0.594751	0.943159	0.499884
C31	C	0.096290	0.547457	-0.000103
C32	C	0.596290	1.047457	0.499897
C33	C	0.097521	0.630586	-0.000092
C34	C	0.597521	1.130586	0.499908
C35	C	0.099060	0.734891	-0.000081
C36	C	0.599060	1.234891	0.499919
C37	C	-0.152867	1.178095	-0.000146
C38	C	0.347133	1.678095	0.499854
C39	C	-0.225696	1.176680	-0.000131
C40	C	0.274304	1.676680	0.499869
C41	C	-0.253895	1.091926	-0.000120
C42	C	0.246105	1.591926	0.499880
C43	C	-0.209257	1.008582	-0.000100
C44	C	0.290743	1.508582	0.499900
C45	C	-0.136430	1.009999	-0.000106
C46	C	0.363570	1.509999	0.499894
N47	N	-0.362128	1.027136	-0.055783
N48	N	0.137872	1.527136	0.444217
N49	N	-0.431312	1.025795	-0.055779
N50	N	0.068688	1.525795	0.444221
C51	C	-0.473318	1.087649	-0.000100
C52	C	0.026682	1.587649	0.499900
N53	N	-0.443530	1.150909	0.055564
N54	N	0.056470	1.650909	0.555564
N55	N	-0.374340	1.152253	0.055556
N56	N	0.125660	1.652253	0.555556
C57	C	-0.332863	1.090379	-0.000113
C58	C	0.167137	1.590379	0.499887
C59	C	-0.596916	1.169454	-0.000095
C60	C	-0.096916	1.669454	0.499905
C61	C	-0.669745	1.168035	-0.000073
C62	C	-0.169745	1.668035	0.499927
C63	C	-0.653305	0.999934	-0.000053
C64	C	-0.153305	1.499934	0.499947
C65	C	-0.580477	1.001355	-0.000065
C66	C	-0.080477	1.501355	0.499935
C67	C	-0.552287	1.086118	-0.000091
C68	C	-0.052287	1.586118	0.499909
C69	C	0.224551	1.081773	-0.000076
C70	C	0.724551	1.581773	0.499924
C71	C	0.302061	1.083280	-0.000061
C72	C	0.802061	1.583280	0.499939
C73	C	0.092024	1.257649	-0.000118
C74	C	0.592024	1.757649	0.499882
C75	C	0.093529	1.360021	-0.000123
C76	C	0.593529	1.860021	0.499877
N77	N	0.096919	1.089000	-0.254956
N78	N	0.596919	1.589000	0.245044
C79	C	0.096921	1.089005	-0.343954
C80	C	0.596921	1.589005	0.156046
C81	C	0.096916	1.089014	-0.455606
C82	C	0.596916	1.589014	0.044394
C83	C	0.096908	1.089026	-0.544596
C84	C	0.596908	1.589026	-0.044596
C85	C	0.096904	1.089037	-0.656255
C86	C	0.596904	1.589037	-0.156255
N87	N	0.096896	1.089049	0.254755
N88	N	0.596896	1.589049	0.754755
H89	H	-0.129920	1.247116	-0.000164
H90	H	0.370080	1.747116	0.499836
H91	H	-0.676263	0.930926	-0.000039
H92	H	-0.176263	1.430926	0.499961
H93	H	-0.544140	0.933496	-0.000058
H94	H	-0.044140	1.433496	0.499942
H95	H	-0.100094	0.942137	-0.000095
H96	H	0.399906	1.442137	0.499905
H97	H	-0.573962	1.238472	-0.000112
H98	H	-0.073962	1.738472	0.499888
O99	O	-0.236613	0.926229	0.000084
O100	O	0.263387	1.426229	0.500084
C101	C	-0.244808	0.782112	0.084827
C102	C	0.255192	1.282112	0.584827
C103	C	-0.213796	0.875356	0.084746
C104	C	0.286204	1.375356	0.584746
H105	H	-0.226360	0.740946	0.153258
H106	H	0.273640	1.240946	0.653258
H107	H	-0.304528	0.795358	0.084889
H108	H	0.195472	1.295358	0.584889
H109	H	-0.226453	0.740973	0.016343
H110	H	0.273547	1.240973	0.516343
H111	H	-0.232097	0.916543	0.153218
H112	H	0.267903	1.416543	0.653218
H113	H	-0.154078	0.862044	0.084632
H114	H	0.345922	1.362044	0.584632
O115	O	-0.268958	1.257719	-0.000191
O116	O	0.231042	1.757719	0.499809
C117	C	-0.277584	1.424599	-0.000172
C118	C	0.222416	1.924599	0.499828
C119	C	-0.228513	1.332893	-0.000125
C120	C	0.271487	1.832893	0.499875
H121	H	-0.244904	1.485401	-0.000098
H122	H	0.255096	1.985401	0.499902
H123	H	-0.312082	1.428184	-0.068646
H124	H	0.187918	1.928184	0.431354
H125	H	-0.312100	1.428097	0.068272
H126	H	0.187900	1.928097	0.568272
H127	H	-0.193954	1.329333	-0.068523
H128	H	0.306046	1.829333	0.431477
H129	H	-0.194063	1.329345	0.068394
H130	H	0.305937	1.829345	0.568394
O131	O	-0.712999	1.249075	-0.000130
O132	O	-0.212999	1.749075	0.499870
C133	C	-0.721617	1.415954	-0.000112
C134	C	-0.221617	1.915954	0.499888
C135	C	-0.672551	1.324245	-0.000070
C136	C	-0.172551	1.824245	0.499930
H137	H	-0.688934	1.476753	-0.000043
H138	H	-0.188934	1.976753	0.499957
H139	H	-0.756119	1.419542	-0.068583
H140	H	-0.256119	1.919542	0.431417
H141	H	-0.756129	1.419455	0.068335
H142	H	-0.256129	1.919455	0.568335
H143	H	-0.637995	1.320682	-0.068472
H144	H	-0.137995	1.820682	0.431528
H145	H	-0.638096	1.320694	0.068446
H146	H	-0.138096	1.820694	0.568446
