data_functionalizedCrystal
_audit_creation_method	'MofGen! by Chris Wilmer'
_symmetry_space_group_name_H-M	'P1'
_symmetry_Int_Tables_number	1
_symmetry_cell_setting	triclinic
loop_
_symmetry_equiv_pos_as_xyz
  x,y,z
_cell_length_a	8.559649
_cell_length_b	13.596369
_cell_length_c	8.559649
_cell_angle_alpha	89.995606
_cell_angle_beta	110.221336
_cell_angle_gamma	90.005741
loop_
_atom_site_label
_atom_site_type_symbol
_atom_site_fract_x
_atom_site_fract_y
_atom_site_fract_z
O1	O	2.126883	0.081788	0.055032
O2	O	1.651398	0.081789	-0.028749
O3	O	1.931031	0.081787	0.250884
O4	O	1.847250	0.081790	-0.224601
O5	O	1.931008	-0.081795	0.250894
O6	O	1.651375	-0.081794	-0.028739
O7	O	2.126860	-0.081795	0.055043
Zn8	Zn	1.889113	-0.107767	0.013154
Zn9	Zn	1.889144	0.107761	0.013140
O10	O	1.847227	-0.081793	-0.224590
C11	C	1.591077	-0.000002	-0.035093
C12	C	1.411378	-0.000002	-0.053992
N13	N	1.889105	-0.254859	0.013165
C14	C	1.889142	-0.656149	0.013138
C15	C	1.889126	-0.544498	0.013140
C16	C	1.889124	-0.455508	0.013151
C17	C	1.889107	-0.343849	0.013154
C18	C	2.187180	-0.000001	0.061387
C19	C	2.366879	0.000004	0.080286
C20	C	1.937369	-0.000002	0.311198
C21	C	1.956268	0.000003	0.490898
N22	N	1.889167	0.254853	0.013143
C23	C	1.840889	-0.000001	-0.284904
C24	C	1.821990	-0.000000	-0.464604
H25	H	1.466268	0.000004	0.209714
H26	H	1.312000	0.000009	-0.183411
C27	C	1.628027	0.084106	0.301911
C28	C	1.647268	0.000008	0.401251
H29	H	1.520155	0.084113	0.219096
H30	H	1.709724	0.084100	0.249923
H31	H	1.641128	0.141141	0.369345
H32	H	1.634179	-0.057027	0.333819
H33	H	1.565548	0.000006	0.453242
H34	H	2.085696	-0.000005	0.590286
