data_functionalizedCrystal
_audit_creation_method	'MofGen! by Chris Wilmer'
_symmetry_space_group_name_H-M	'P1'
_symmetry_Int_Tables_number	1
_symmetry_cell_setting	triclinic
loop_
_symmetry_equiv_pos_as_xyz
  x,y,z
_cell_length_a	6.817900
_cell_length_b	9.514072
_cell_length_c	11.168144
_cell_angle_alpha	88.684538
_cell_angle_beta	108.508840
_cell_angle_gamma	118.843421
loop_
_atom_site_label
_atom_site_type_symbol
_atom_site_fract_x
_atom_site_fract_y
_atom_site_fract_z
V1	V	-4.169139	-0.222227	-0.394688
V2	V	-3.669139	0.277773	0.105312
O3	O	-4.066626	0.010656	-0.386157
O4	O	-3.566626	0.510656	0.113843
O5	O	-4.203659	-0.440617	-0.392968
O6	O	-3.703659	0.059383	0.107032
O7	O	-4.144521	-0.218819	-0.566379
O8	O	-3.644521	0.281181	-0.066379
O9	O	-4.126174	-0.212677	-0.211546
O10	O	-3.626174	0.287323	0.288454
V11	V	-4.638941	-0.194370	-0.372664
V12	V	-4.138941	0.305630	0.127336
O13	O	-4.460496	-0.283333	-0.443000
O14	O	-3.960496	0.216667	0.057000
O15	O	-4.797781	-0.133265	-0.324352
O16	O	-4.297781	0.366735	0.175648
O17	O	-4.381214	0.024019	-0.374384
O18	O	-3.881214	0.524019	0.125616
O19	O	-4.858850	-0.427253	-0.381195
O20	O	-4.358850	0.072747	0.118805
O21	O	-4.799303	-0.203920	-0.555807
O22	O	-4.299303	0.296080	-0.055807
O23	O	-4.440352	-0.197779	-0.200974
O24	O	-3.940352	0.302221	0.299026
C25	C	-4.068063	-0.493855	-0.386994
C26	C	-3.568063	0.006145	0.113006
C27	C	-4.177732	-0.672391	-0.386732
C28	C	-3.677732	-0.172391	0.113268
C29	C	-3.992624	-0.210928	-0.608196
C30	C	-3.492624	0.289072	-0.108196
C31	C	-4.054329	-0.209587	-0.748560
C32	C	-3.554329	0.290413	-0.248560
C33	C	-4.175923	-0.348760	-0.828900
C34	C	-3.675923	0.151240	-0.328900
C35	C	-4.239700	-0.347377	-0.973975
C36	C	-3.739700	0.152623	-0.473975
C37	C	-4.180155	0.077249	-0.380355
C38	C	-3.680155	0.577249	0.119645
C39	C	-4.049726	0.255783	-0.380625
C40	C	-3.549726	0.755783	0.119375
C41	C	-4.255592	-0.205675	-0.159150
C42	C	-3.755592	0.294325	0.340850
C43	C	-4.173123	-0.207008	-0.018785
C44	C	-3.673123	0.292992	0.481215
H45	H	-3.856198	-0.669112	-0.375535
H46	H	-3.356198	-0.169112	0.124465
H47	H	-4.371264	-0.747501	-0.391804
H48	H	-3.871264	-0.247501	0.108196
H49	H	-4.232819	-0.468936	-0.790280
H50	H	-3.732819	0.031064	-0.290280
H51	H	-4.343893	-0.466526	-1.042997
H52	H	-3.843893	0.033474	-0.542997
F53	F	-4.036900	-0.051258	-0.928578
F54	F	-3.536900	0.448742	-0.428578
H55	H	-3.997456	-0.089412	-0.787181
H56	H	-3.497456	0.410588	-0.287181
