data_functionalizedCrystal
_audit_creation_method	'MofGen! by Chris Wilmer'
_symmetry_space_group_name_H-M	'P1'
_symmetry_Int_Tables_number	1
_symmetry_cell_setting	triclinic
loop_
_symmetry_equiv_pos_as_xyz
  x,y,z
_cell_length_a	19.121379
_cell_length_b	15.298530
_cell_length_c	15.296720
_cell_angle_alpha	91.639580
_cell_angle_beta	101.632443
_cell_angle_gamma	77.506871
loop_
_atom_site_label
_atom_site_type_symbol
_atom_site_fract_x
_atom_site_fract_y
_atom_site_fract_z
Zn1	Zn	-0.970533	-0.373901	0.392378
Zn2	Zn	-0.977416	-0.494620	0.220274
Zn3	Zn	-0.874865	-0.354557	0.250115
Zn4	Zn	-0.834841	-0.528794	0.372956
O5	O	-0.914414	-0.437968	0.308931
O6	O	-1.071151	-0.383709	0.365187
O7	O	-0.983444	-0.453643	0.100797
O8	O	-0.901425	-0.233683	0.289603
O9	O	-1.076209	-0.472400	0.238744
O10	O	-0.971712	-0.247895	0.394123
O11	O	-0.908100	-0.350739	0.122721
O12	O	-0.769850	-0.383876	0.270771
O13	O	-0.833210	-0.530645	0.498968
O14	O	-0.740445	-0.511887	0.361021
O15	O	-0.932902	-0.416846	0.513237
O16	O	-0.944634	-0.622593	0.219911
O17	O	-0.839884	-0.647700	0.332086
C18	C	-0.729295	-0.449491	0.317027
C19	C	-0.650094	-0.454446	0.320508
C20	C	-0.628170	-0.390057	0.275262
C21	C	-0.553752	-0.394720	0.278531
C22	C	-0.501259	-0.463769	0.327052
C23	C	-0.523188	-0.528164	0.372300
C24	C	-0.597605	-0.523504	0.369025
C25	C	-0.275803	-0.481181	0.339281
C26	C	-0.201382	-0.485834	0.342555
C27	C	-0.231951	-0.352390	0.248784
C28	C	-0.306368	-0.347733	0.245518
C29	C	-0.328291	-0.412131	0.290762
C30	C	-0.425192	-0.468535	0.330398
C31	C	-0.404357	-0.407368	0.287411
C32	C	-0.100257	-0.426394	0.300795
C33	C	-0.179458	-0.421445	0.297309
C34	C	-0.888679	-0.667156	0.270671
C35	C	-0.877730	-0.765205	0.254330
C36	C	-0.940265	-0.207888	0.347358
C37	C	-0.951281	-0.109841	0.363734
C38	C	-0.877823	-0.479715	0.539003
C39	C	-0.862231	-0.497505	0.637045
C40	C	-0.835961	0.196136	0.192216
C41	C	-0.825614	0.104018	0.176824
C42	C	-0.857029	0.050549	0.223550
C43	C	-0.898795	0.089207	0.285671
C44	C	-0.909149	0.181335	0.301059
C45	C	-0.930217	0.035748	0.332393
C46	C	-0.971983	0.074406	0.394514
C47	C	-0.982334	0.166526	0.409899
C48	C	-0.950918	0.219995	0.363173
C49	C	-0.919863	-0.056381	0.317005
C50	C	-0.993051	-0.071182	0.425848
C51	C	-1.003398	0.020937	0.441240
C52	C	-0.950910	-0.396317	0.079763
C53	C	-0.966668	-0.378270	-0.018244
C54	C	-1.025901	-0.310663	0.943127
C55	C	-1.040555	-0.293950	0.851011
C56	C	-0.995975	-0.344837	0.797515
C57	C	-0.936739	-0.412441	0.836145
C58	C	-0.922086	-0.429161	0.928269
C59	C	-0.892161	-0.463334	0.782657
C60	C	-0.832924	-0.530938	0.821287
C61	C	-0.818274	-0.547655	0.913402
C62	C	-0.862854	-0.496768	0.966898
C63	C	-0.906813	-0.446614	0.690532
C64	C	-0.802999	-0.565112	0.675674
C65	C	-0.788344	-0.581826	0.767791
H66	H	-0.535906	-0.342292	0.241680
F67	F	-0.802537	0.253047	0.142488
F68	F	-1.011572	-0.327046	0.699476
F69	F	-0.460225	-0.333885	0.235769
F70	F	-0.846088	-0.047475	0.207090
H71	H	-0.791610	0.072549	0.126244
F72	F	-1.026793	0.207668	0.476005
F73	F	-0.969855	-0.374667	0.649430
F74	F	-0.362230	-0.274236	0.193882
F75	F	-1.103597	-0.222004	0.809904
H76	H	-0.959335	0.295005	0.375707
F77	F	-1.047846	0.062091	0.507353
H78	H	-0.214094	-0.299962	0.211948
F79	F	-0.620938	-0.592038	0.417180
F80	F	-1.026491	-0.128082	0.475577
F81	F	-1.073343	-0.256520	1.000064
H82	H	-0.158642	-0.542063	0.382073
H83	H	-0.850926	-0.510372	1.041908
H84	H	-0.770045	-0.602709	0.944850
H85	H	-0.766699	-0.606550	0.632118
F86	F	-0.684031	-0.316561	0.223623
F87	F	-0.299125	-0.549718	0.387436
H88	H	-0.382444	-0.524755	0.369905
H89	H	-0.480443	-0.584389	0.411803
F90	F	-0.875414	-0.097513	0.250894
F91	F	-0.725303	-0.653774	0.808914
