data_functionalizedCrystal
_audit_creation_method	'MofGen! by Chris Wilmer'
_symmetry_space_group_name_H-M	'P1'
_symmetry_Int_Tables_number	1
_symmetry_cell_setting	triclinic
loop_
_symmetry_equiv_pos_as_xyz
  x,y,z
_cell_length_a	23.532361
_cell_length_b	23.532407
_cell_length_c	14.586319
_cell_angle_alpha	89.991006
_cell_angle_beta	90.000145
_cell_angle_gamma	82.839173
loop_
_atom_site_label
_atom_site_type_symbol
_atom_site_fract_x
_atom_site_fract_y
_atom_site_fract_z
O1	O	0.755276	0.069008	-0.076158
O2	O	0.589409	0.079039	-0.076181
O3	O	0.677345	-0.008909	-0.076152
O4	O	0.667341	0.156956	-0.076187
O5	O	0.677338	-0.008911	0.076329
O6	O	0.589402	0.079037	0.076300
O7	O	0.755269	0.069006	0.076323
Cu8	Cu	0.672335	0.074021	0.090234
Cu9	Cu	0.672344	0.074024	-0.090092
O10	O	0.667334	0.156954	0.076294
C11	C	0.568189	0.078787	0.000057
C12	C	0.504971	0.078032	0.000049
C13	C	0.231731	0.074729	-0.083063
C14	C	0.291131	0.075444	-0.083065
O15	O	0.321860	0.075795	-0.153751
N16	N	0.320832	0.075804	0.000053
C17	C	0.291132	0.075444	0.083178
O18	O	0.321850	0.075815	0.153876
C19	C	0.231734	0.074725	0.083179
C20	C	0.202035	0.074370	0.000056
C21	C	0.202031	0.074375	-0.166179
C22	C	0.142636	0.073661	-0.166176
C23	C	0.112939	0.073302	-0.083057
C24	C	0.142639	0.073657	0.000059
C25	C	0.202036	0.074360	0.166304
C26	C	0.142634	0.073640	0.166298
C27	C	0.112934	0.073286	0.083175
C28	C	0.053547	0.072584	0.083181
N29	N	0.023845	0.072224	0.000063
C30	C	0.053541	0.072583	-0.083056
C31	C	0.415872	0.076953	0.083169
C32	C	0.475269	0.077676	0.083168
C33	C	0.475263	0.077675	-0.083075
C34	C	0.415865	0.076956	-0.083074
C35	C	0.386171	0.076593	0.000051
C36	C	-0.071194	0.071084	-0.083044
C37	C	-0.130596	0.070373	-0.083033
C38	C	-0.130585	0.070370	0.083209
C39	C	-0.071189	0.071085	0.083200
C40	C	-0.041495	0.071440	0.000066
O41	O	0.022780	0.072230	0.153831
O42	O	0.022817	0.072204	-0.153741
C43	C	0.677086	-0.030126	0.000091
C44	C	0.676320	-0.093343	0.000098
C45	C	0.723555	-0.492454	0.000054
C46	C	0.722844	-0.551854	0.000047
O47	O	0.766630	-0.588606	0.000019
N48	N	0.670566	-0.574471	0.000041
C49	C	0.618997	-0.537685	0.000032
O50	O	0.574465	-0.562377	0.000024
C51	C	0.619709	-0.478286	0.000032
C52	C	0.671990	-0.455672	0.000048
C53	C	0.775832	-0.469839	0.000069
C54	C	0.776543	-0.410443	0.000078
C55	C	0.724977	-0.373662	0.000072
C56	C	0.672701	-0.396276	0.000057
C57	C	0.568140	-0.441501	0.000017
C58	C	0.568857	-0.382099	0.000016
C59	C	0.621137	-0.359485	0.000032
C60	C	0.621847	-0.300099	0.000059
N61	N	0.674124	-0.277481	0.000066
C62	C	0.725690	-0.314263	0.000072
C63	C	0.617505	-0.662427	0.000029
C64	C	0.616793	-0.721825	0.000035
C65	C	0.720640	-0.735990	0.000049
C66	C	0.721352	-0.676591	0.000049
C67	C	0.669783	-0.639810	0.000036
C68	C	0.727179	-0.189526	0.000091
C69	C	0.727886	-0.130124	0.000104
C70	C	0.624039	-0.115965	0.000085
C71	C	0.623332	-0.175361	0.000078
C72	C	0.674907	-0.212141	0.000078
O73	O	0.578083	-0.263312	0.000083
O74	O	0.770214	-0.289562	0.000067
C75	C	0.776489	0.069258	0.000083
C76	C	0.839708	0.070014	0.000086
C77	C	0.667592	0.178171	0.000049
C78	C	0.668358	0.241388	0.000036
N79	N	0.672334	0.074019	0.217066
N80	N	0.672350	0.074021	-0.216924
C81	C	0.711286	0.035089	0.548073
C82	C	0.711285	0.035089	0.452091
C83	C	0.633395	0.112956	0.452076
C84	C	0.633400	0.112958	0.548056
C85	C	0.672345	0.074021	0.596051
C86	C	0.672339	0.074020	0.404091
C87	C	0.672337	0.074020	0.300024
C88	C	0.672347	0.074021	0.700125
H89	H	-0.154775	0.070086	-0.150725
O90	O	0.770680	-0.771807	0.000003
C91	C	0.758835	-0.829081	0.000017
H92	H	0.714113	-0.831094	-0.028851
H93	H	0.791720	-0.856177	-0.044258
H94	H	0.761094	-0.846285	0.073166
H95	H	0.763923	-0.658183	0.000062
H96	H	0.226204	0.074665	-0.233868
O97	O	-0.042447	0.071459	-0.163880
C98	C	-0.081406	0.070980	-0.237231
H99	H	-0.126206	0.088499	-0.212850
H100	H	-0.068028	0.098846	-0.295371
H101	H	-0.081487	0.025210	-0.262785
H102	H	0.819115	-0.392037	0.000087
O103	O	0.566057	-0.743884	0.000068
C104	C	0.576478	-0.804198	0.000037
H105	H	0.621000	-0.818409	0.028912
H106	H	0.543041	-0.822251	0.044295
H107	H	0.573817	-0.820707	-0.073119
H108	H	0.391698	0.076664	0.150863
O109	O	0.518797	-0.346313	0.000127
C110	C	0.516085	-0.311550	0.079113
H111	H	0.561270	-0.308802	0.105454
H112	H	0.494608	-0.266782	0.061351
H113	H	0.490185	-0.330957	0.134403
H114	H	0.742998	0.003384	0.587149
O115	O	0.386966	0.076531	-0.163761
C116	C	0.359358	0.026777	-0.168741
H117	H	0.352701	0.010221	-0.096572
H118	H	0.316077	0.037365	-0.203931
H119	H	0.386971	-0.007488	-0.209748
O120	O	0.113873	0.073314	0.247131
C121	C	0.152831	0.073766	0.320487
H122	H	0.192710	0.092309	0.296111
H123	H	0.131899	0.101210	0.378620
H124	H	0.165387	0.028144	0.346050
O125	O	-0.159450	0.069919	0.163923
C126	C	-0.187085	0.020180	0.168883
H127	H	-0.164474	-0.014080	0.121722
H128	H	-0.185505	0.003609	0.242400
H129	H	-0.233623	0.030791	0.146540
O130	O	0.777241	-0.225306	0.000218
C131	C	0.779942	-0.260089	0.079198
H132	H	0.734754	-0.262849	0.105514
H133	H	0.801427	-0.304851	0.061439
H134	H	0.805830	-0.240694	0.134506
H135	H	0.601688	0.144665	0.587123
O136	O	-0.042420	0.071405	0.164025
C137	C	-0.081374	0.070952	0.237387
H138	H	-0.121257	0.052417	0.213021
H139	H	-0.060441	0.043499	0.295525
H140	H	-0.093921	0.116571	0.262940
H141	H	0.226207	0.074646	0.233992
O142	O	0.778689	-0.108186	-0.000047
C143	C	0.810110	-0.127012	-0.079005
H144	H	0.779534	-0.139186	-0.134207
H145	H	0.834133	-0.091161	-0.105505
H146	H	0.842069	-0.165912	-0.061151
O147	O	0.113882	0.073284	-0.247004
C148	C	0.152839	0.073765	-0.320357
H149	H	0.197640	0.056249	-0.295971
H150	H	0.139461	0.045898	-0.378483
H151	H	0.152917	0.119536	-0.345934
H152	H	0.575509	-0.632483	0.000026
H153	H	0.817825	-0.499782	0.000071
O154	O	0.595584	0.150719	0.405309
C155	C	0.603937	0.142378	0.310306
H156	H	0.625479	0.096985	0.297210
H157	H	0.560770	0.148940	0.273834
H158	H	0.632315	0.174463	0.283052
O159	O	0.504169	0.078097	-0.163762
C160	C	0.531783	0.127848	-0.168757
H161	H	0.538432	0.144404	-0.096594
H162	H	0.575069	0.117255	-0.203926
H163	H	0.504179	0.162114	-0.209792
O164	O	0.504030	0.078000	0.163996
C165	C	0.465073	0.077545	0.237352
H166	H	0.425194	0.059004	0.212982
H167	H	0.486005	0.050098	0.295496
H168	H	0.452518	0.123165	0.262898
H169	H	0.525567	-0.459902	-0.000002
H170	H	0.742995	0.003387	0.413030
O171	O	0.572498	-0.197237	0.000025
C172	C	0.527138	-0.152032	0.000048
H173	H	0.542871	-0.111762	-0.028800
H174	H	0.490622	-0.164229	-0.044238
H175	H	0.511241	-0.143553	0.073198
H176	H	0.582056	-0.086007	0.000084
