data_functionalizedCrystal
_audit_creation_method	'MofGen! by Chris Wilmer'
_symmetry_space_group_name_H-M	'P1'
_symmetry_Int_Tables_number	1
_symmetry_cell_setting	triclinic
loop_
_symmetry_equiv_pos_as_xyz
  x,y,z
_cell_length_a	16.959454
_cell_length_b	11.169417
_cell_length_c	11.169409
_cell_angle_alpha	89.980176
_cell_angle_beta	90.027925
_cell_angle_gamma	89.998132
loop_
_atom_site_label
_atom_site_type_symbol
_atom_site_fract_x
_atom_site_fract_y
_atom_site_fract_z
Zn1	Zn	0.314599	1.835040	-0.678580
Zn2	Zn	0.446806	1.834962	-0.477912
Zn3	Zn	0.314647	1.634326	-0.477914
Zn4	Zn	0.446741	1.634366	-0.678557
O5	O	0.380698	1.734674	-0.578241
O6	O	0.332143	2.002980	-0.651969
O7	O	0.429322	1.808298	-0.309962
O8	O	0.204030	1.660967	-0.504543
O9	O	0.429275	2.002922	-0.504540
O10	O	0.203994	1.808431	-0.651971
O11	O	0.332225	1.660892	-0.309964
O12	O	0.332163	1.466382	-0.504521
O13	O	0.429165	1.661036	-0.846510
O14	O	0.429212	1.466411	-0.651932
O15	O	0.332081	1.808470	-0.846526
O16	O	0.557408	1.808337	-0.504518
O17	O	0.557361	1.660960	-0.651930
C18	C	0.380686	1.422849	-0.578225
C19	C	0.380700	1.289449	-0.578247
C20	C	0.174530	1.734703	-0.578260
C21	C	0.086673	1.734716	-0.578268
C22	C	-0.284823	1.811560	-0.655047
C23	C	-0.284781	1.658005	-0.501529
C24	C	-0.202235	1.657987	-0.501525
C25	C	-0.160979	1.734758	-0.578282
C26	C	-0.202269	1.811547	-0.655043
C27	C	-0.160939	1.581208	-0.424756
C28	C	-0.078388	1.581189	-0.424748
C29	C	-0.037131	1.657955	-0.501512
C30	C	-0.078426	1.734746	-0.578277
C31	C	-0.037170	1.811517	-0.655034
C32	C	-0.078464	1.888303	-0.731806
C33	C	-0.161012	1.888313	-0.731807
C34	C	0.045418	1.657944	-0.501511
C35	C	0.045383	1.811504	-0.655029
C36	C	0.586065	1.734677	-0.578248
C37	C	0.673921	1.734788	-0.578291
C38	C	0.380611	1.734766	-0.891283
C39	C	0.380573	1.734805	-1.024683
C40	C	0.380711	2.047716	-0.578257
C41	C	0.380716	2.181116	-0.578264
C42	C	0.380729	1.734651	-0.266416
C43	C	0.380543	1.734844	-0.133016
H44	H	0.078968	1.874013	-0.717544
H45	H	-0.194638	1.950831	-0.794311
F46	F	-0.328770	1.893268	-0.736758
H47	H	-0.044862	1.950815	-0.794296
F48	F	-0.328691	1.576311	-0.419838
H49	H	-0.044774	1.518664	-0.362236
H50	H	-0.194532	1.518709	-0.362257
F51	F	0.089362	1.576237	-0.419803
