data_functionalizedCrystal
_audit_creation_method	'MofGen! by Chris Wilmer'
_symmetry_space_group_name_H-M	'P1'
_symmetry_Int_Tables_number	1
_symmetry_cell_setting	triclinic
loop_
_symmetry_equiv_pos_as_xyz
  x,y,z
_cell_length_a	12.594517
_cell_length_b	13.032721
_cell_length_c	13.032268
_cell_angle_alpha	76.710373
_cell_angle_beta	97.162024
_cell_angle_gamma	82.795614
loop_
_atom_site_label
_atom_site_type_symbol
_atom_site_fract_x
_atom_site_fract_y
_atom_site_fract_z
Zn1	Zn	1.477991	0.499091	-0.654228
Zn2	Zn	1.477874	0.654176	-0.499176
Zn3	Zn	1.325891	0.476585	-0.476645
Zn4	Zn	1.274083	0.676648	-0.676714
O5	O	1.388960	0.576625	-0.576691
O6	O	1.626917	0.519678	-0.633679
O7	O	1.479347	0.611794	-0.347567
O8	O	1.367798	0.330940	-0.481362
O9	O	1.626831	0.633617	-0.519762
O10	O	1.479545	0.347475	-0.611831
O11	O	1.367685	0.481319	-0.331014
O12	O	1.170077	0.503110	-0.503166
O13	O	1.279498	0.671918	-0.822351
O14	O	1.132014	0.650095	-0.650156
O15	O	1.429308	0.541468	-0.805830
O16	O	1.429110	0.805787	-0.541566
O17	O	1.279386	0.822297	-0.672003
C18	C	1.348639	0.852583	-0.611693
C19	C	1.331482	0.970644	-0.626702
C20	C	1.112426	0.576600	-0.576657
C21	C	0.994117	0.576618	-0.576671
C22	C	1.348637	0.611711	-0.853703
C23	C	1.331454	0.626662	-0.971750
C24	C	0.945530	0.496593	-0.496846
C25	C	0.864397	0.590160	-0.483018
C26	C	0.864441	0.483100	-0.590523
C27	C	0.914542	0.670230	-0.562798
C28	C	0.914596	0.563110	-0.670340
C29	C	0.833480	0.656749	-0.656557
C30	C	1.666573	0.576651	-0.576726
C31	C	1.784875	0.576662	-0.576740
C32	C	1.429463	0.299592	-0.541575
C33	C	1.446724	0.181537	-0.526611
C34	C	1.397964	1.015082	-0.568905
C35	C	1.380233	1.137103	-0.584417
C36	C	1.397917	0.568784	-1.016204
C37	C	1.380159	0.584235	-1.138211
C38	C	1.429198	0.541599	-0.300746
C39	C	1.446630	0.526349	-0.182662
H40	H	0.994050	0.428967	-0.429274
H41	H	1.310101	0.645223	-1.190473
C42	C	0.944553	0.777109	-0.546879
H43	H	0.881383	0.821742	-0.540296
H44	H	0.996317	0.764214	-0.483912
H45	H	0.974459	0.811318	-0.606623
C46	C	1.492592	0.944455	-0.486543
H47	H	1.532007	0.988159	-0.452298
H48	H	1.464895	0.895365	-0.434776
H49	H	1.539270	0.906283	-0.521752
C50	C	1.541266	0.443948	-1.112071
H51	H	1.540793	0.444375	-1.039330
H52	H	1.533505	0.374863	-1.121150
H53	H	1.607889	0.461787	-1.132175
H54	H	0.842045	0.404001	-0.602176
C55	C	1.285603	1.207727	-0.666787
H56	H	1.246197	1.164024	-0.701043
H57	H	1.238928	1.245908	-0.631591
H58	H	1.313313	1.256809	-0.718559
H59	H	1.261401	0.687646	-1.024015
H60	H	1.516777	1.129251	-0.465644
H61	H	1.261441	1.022936	-0.687673
H62	H	0.842004	0.601614	-0.403835
H63	H	0.937022	0.551624	-0.749495
C64	C	0.768166	0.748284	-0.747798
H65	H	0.785221	0.814647	-0.737801
H66	H	0.786110	0.739234	-0.814180
H67	H	0.692863	0.747453	-0.747684
C68	C	1.492548	0.486390	-0.945608
H69	H	1.492074	0.486820	-0.872867
H70	H	1.484791	0.417304	-0.954684
H71	H	1.559171	0.504231	-0.965712
