data_functionalizedCrystal
_audit_creation_method	'MofGen! by Chris Wilmer'
_symmetry_space_group_name_H-M	'P1'
_symmetry_Int_Tables_number	1
_symmetry_cell_setting	triclinic
loop_
_symmetry_equiv_pos_as_xyz
  x,y,z
_cell_length_a	17.699091
_cell_length_b	17.699083
_cell_length_c	16.776229
_cell_angle_alpha	90.002452
_cell_angle_beta	90.007233
_cell_angle_gamma	83.284545
loop_
_atom_site_label
_atom_site_type_symbol
_atom_site_fract_x
_atom_site_fract_y
_atom_site_fract_z
O1	O	-0.095699	-1.004079	0.066174
O2	O	0.237634	-0.670745	0.399508
O3	O	0.570968	-0.337412	0.732841
O4	O	-0.108151	-0.783701	0.066200
O5	O	0.225182	-0.450367	0.399534
O6	O	0.558515	-0.117034	0.732867
O7	O	0.008264	-0.900113	0.066184
O8	O	0.341597	-0.566780	0.399517
O9	O	0.674930	-0.233446	0.732850
O10	O	-0.212114	-0.887666	0.066191
O11	O	0.121219	-0.554333	0.399524
O12	O	0.454553	-0.221000	0.732858
O13	O	0.008243	-0.900102	-0.066393
O14	O	0.341577	-0.566769	0.266941
O15	O	0.674910	-0.233436	0.600274
O16	O	-0.108172	-0.783690	-0.066376
O17	O	0.225162	-0.450357	0.266957
O18	O	0.558495	-0.117023	0.600290
O19	O	-0.095719	-1.004068	-0.066402
O20	O	0.237614	-0.670735	0.266931
O21	O	0.570947	-0.337401	0.600265
Zn22	Zn	-0.101949	-0.893877	-0.087438
Zn23	Zn	0.231385	-0.560544	0.245895
Zn24	Zn	0.564718	-0.227211	0.579228
Zn25	Zn	-0.101922	-0.893891	0.087237
Zn26	Zn	0.231411	-0.560558	0.420570
Zn27	Zn	0.564745	-0.227225	0.753903
O28	O	-0.212134	-0.887656	-0.066385
O29	O	0.121199	-0.554322	0.266948
O30	O	0.454532	-0.220989	0.600281
C31	C	-0.107715	-0.755498	-0.000085
C32	C	0.225618	-0.422165	0.333249
C33	C	0.558951	-0.088832	0.666582
C34	C	-0.106377	-0.671480	-0.000075
C35	C	0.226957	-0.338147	0.333259
C36	C	0.560290	-0.004814	0.666592
C37	C	0.036450	-0.899661	-0.000104
C38	C	0.369784	-0.566327	0.333230
C39	C	0.703117	-0.232994	0.666563
C40	C	0.120468	-0.898320	-0.000101
C41	C	0.453802	-0.564986	0.333233
C42	C	0.787135	-0.231653	0.666566
C43	C	-0.096155	-1.032270	-0.000115
C44	C	0.237178	-0.698937	0.333218
C45	C	0.570511	-0.365604	0.666551
C46	C	-0.097494	-1.116288	-0.000120
C47	C	0.235839	-0.782955	0.333213
C48	C	0.569173	-0.449622	0.666547
C49	C	0.159947	-0.897697	0.072167
C50	C	0.493280	-0.564364	0.405501
C51	C	0.826613	-0.231031	0.738834
C52	C	0.238890	-0.896433	0.072168
C53	C	0.572223	-0.563099	0.405501
C54	C	0.905556	-0.229766	0.738834
C55	C	0.278353	-0.895796	-0.000101
C56	C	0.611687	-0.562462	0.333233
C57	C	0.945020	-0.229129	0.666566
C58	C	0.238869	-0.896416	-0.072374
C59	C	0.572202	-0.563083	0.260959
C60	C	0.905536	-0.229749	0.594292
C61	C	0.159927	-0.897675	-0.072374
C62	C	0.493260	-0.564342	0.260959
C63	C	0.826593	-0.231008	0.594293
C64	C	0.557234	-0.891336	-0.072378
C65	C	0.890568	-0.558003	0.260955
C66	C	1.223901	-0.224670	0.594288
C67	C	0.636182	-0.890079	-0.072373
C68	C	0.969516	-0.556746	0.260960
C69	C	1.302849	-0.223413	0.594293
C70	C	0.636197	-0.890094	0.072163
C71	C	0.969530	-0.556761	0.405497
C72	C	1.302864	-0.223427	0.738830
C73	C	0.557255	-0.891353	0.072164
C74	C	0.890588	-0.558020	0.405497
C75	C	1.223921	-0.224687	0.738831
C76	C	0.517777	-0.891969	-0.000109
C77	C	0.851110	-0.558636	0.333224
C78	C	1.184443	-0.225302	0.666558
C79	C	0.432178	-0.893339	-0.000109
C80	C	0.765511	-0.560006	0.333225
C81	C	1.098844	-0.226672	0.666558
C82	C	0.363952	-0.894431	-0.000102
C83	C	0.697285	-0.561098	0.333231
C84	C	1.030619	-0.227765	0.666564
C85	C	0.759679	-0.888109	-0.000099
C86	C	1.093012	-0.554775	0.333234
C87	C	1.426346	-0.221442	0.666568
C88	C	0.675662	-0.889451	-0.000104
C89	C	1.008995	-0.556118	0.333229
C90	C	1.342328	-0.222785	0.666562
N91	N	-0.101966	-0.893873	-0.206650
N92	N	0.231367	-0.560540	0.126684
N93	N	0.564700	-0.227206	0.460017
C94	C	-0.174710	-0.622861	-0.000073
C95	C	0.158623	-0.289528	0.333261
C96	C	0.491957	0.043806	0.666594
C97	C	-0.173448	-0.543918	-0.000083
C98	C	0.159886	-0.210584	0.333250
C99	C	0.493219	0.122749	0.666584
C100	C	-0.103851	-0.513595	-0.000090
C101	C	0.229482	-0.180262	0.333244
C102	C	0.562815	0.153072	0.666577
C103	C	-0.035513	-0.562220	-0.000094
C104	C	0.297820	-0.228887	0.333239
C105	C	0.631154	0.104446	0.666572
C106	C	-0.036776	-0.641162	-0.000090
C107	C	0.296557	-0.307829	0.333244
C108	C	0.629891	0.025504	0.666577
C109	C	-0.030418	-0.243857	-0.000114
C110	C	0.302916	0.089476	0.333219
C111	C	0.636249	0.422809	0.666553
C112	C	-0.029160	-0.164909	-0.000116
C113	C	0.304173	0.168424	0.333217
C114	C	0.637507	0.501758	0.666550
C115	C	-0.167089	-0.146613	-0.000108
C116	C	0.166244	0.186721	0.333226
C117	C	0.499577	0.520054	0.666559
C118	C	-0.168352	-0.225555	-0.000103
C119	C	0.164981	0.107779	0.333230
C120	C	0.498314	0.441112	0.666564
C121	C	-0.100014	-0.274173	-0.000112
C122	C	0.233319	0.059160	0.333222
C123	C	0.566652	0.392494	0.666555
C124	C	-0.101384	-0.359772	-0.000102
C125	C	0.231949	-0.026439	0.333232
C126	C	0.565283	0.306895	0.666565
C127	C	-0.102481	-0.427997	-0.000094
C128	C	0.230852	-0.094664	0.333240
C129	C	0.564186	0.238669	0.666573
C130	C	-0.056058	-0.848083	-0.751817
C131	C	0.277276	-0.514749	-0.418484
C132	C	0.610609	-0.181416	-0.085151
C133	C	-0.056064	-0.848081	-0.668365
C134	C	0.277269	-0.514747	-0.335032
C135	C	0.610603	-0.181414	-0.001699
C136	C	-0.101916	-0.893895	-0.626649
C137	C	0.231418	-0.560561	-0.293316
C138	C	0.564751	-0.227228	0.040018
C139	C	-0.147758	-0.939719	-0.668389
C140	C	0.185575	-0.606386	-0.335056
C141	C	0.518909	-0.273052	-0.001723
C142	C	-0.147747	-0.939724	-0.751840
C143	C	0.185586	-0.606391	-0.418507
C144	C	0.518920	-0.273057	-0.085173
C145	C	-0.147803	-0.939699	-0.331842
C146	C	0.185531	-0.606366	0.001491
C147	C	0.518864	-0.273032	0.334824
C148	C	-0.147812	-0.939689	-0.248386
C149	C	0.185522	-0.606355	0.084948
C150	C	0.518855	-0.273022	0.418281
C151	C	-0.056119	-0.848056	-0.248367
C152	C	0.277214	-0.514722	0.084966
C153	C	0.610547	-0.181389	0.418299
C154	C	-0.056108	-0.848061	-0.331818
C155	C	0.277225	-0.514728	0.001515
C156	C	0.610558	-0.181394	0.334849
C157	C	-0.101948	-0.893888	-0.373551
C158	C	0.231386	-0.560555	-0.040218
C159	C	0.564719	-0.227221	0.293116
C160	C	-0.101939	-0.893891	-0.464039
C161	C	0.231394	-0.560557	-0.130706
C162	C	0.564728	-0.227224	0.202627
C163	C	-0.101929	-0.893889	-0.536162
C164	C	0.231405	-0.560555	-0.202829
C165	C	0.564738	-0.227222	0.130504
N166	N	-0.101898	-0.893902	0.206448
N167	N	0.231435	-0.560568	0.539781
N168	N	0.564769	-0.227235	0.873115
H169	H	0.127822	-0.898220	0.131017
H170	H	0.461155	-0.564887	0.464350
H171	H	0.794488	-0.231554	0.797684
Br172	Br	0.065299	-0.123758	-0.000123
Br173	Br	0.398632	0.209576	0.333210
Br174	Br	0.731965	0.542909	0.666544
H175	H	0.271030	-0.895929	0.131016
H176	H	0.604363	-0.562596	0.464349
H177	H	0.937697	-0.229263	0.797682
Br178	Br	0.503701	-0.892224	0.170246
Br179	Br	0.837035	-0.558891	0.503579
Br180	Br	1.170368	-0.225557	0.836913
H181	H	0.668349	-0.889588	0.131012
H182	H	1.001682	-0.556255	0.464345
H183	H	1.335016	-0.222922	0.797678
Br184	Br	0.006126	-0.785870	-0.611728
Br185	Br	0.339460	-0.452537	-0.278395
Br186	Br	0.672793	-0.119204	0.054938
H187	H	0.025227	-0.283433	-0.000122
H188	H	0.358561	0.049900	0.333212
H189	H	0.691894	0.383233	0.666545
Br190	Br	0.689740	-0.889216	-0.170459
Br191	Br	1.023074	-0.555882	0.162875
Br192	Br	1.356407	-0.222549	0.496208
H193	H	-0.018774	-0.810752	-0.365779
H194	H	0.314559	-0.477419	-0.032446
H195	H	0.647892	-0.144085	0.300887
H196	H	-0.185128	-0.977014	-0.365811
H197	H	0.148205	-0.643680	-0.032478
H198	H	0.481539	-0.310347	0.300855
Br199	Br	0.006167	-0.785897	-0.808424
Br200	Br	0.339501	-0.452564	-0.475091
Br201	Br	0.672834	-0.119231	-0.141758
Br202	Br	-0.262807	-0.266703	-0.000086
Br203	Br	0.070526	0.066631	0.333247
Br204	Br	0.403859	0.399964	0.666580
H205	H	-0.229091	-0.504335	-0.000080
H206	H	0.104242	-0.171001	0.333253
H207	H	0.437575	0.162332	0.666586
Br208	Br	0.503665	-0.892157	-0.170463
Br209	Br	0.836998	-0.558823	0.162870
Br210	Br	1.170331	-0.225490	0.496203
Br211	Br	-0.210045	-1.001866	-0.191771
Br212	Br	0.123288	-0.668533	0.141562
Br213	Br	0.456621	-0.335200	0.474896
Br214	Br	0.058941	-0.521069	-0.000111
Br215	Br	0.392274	-0.187736	0.333222
Br216	Br	0.725607	0.145597	0.666555
H217	H	0.271006	-0.895893	-0.131217
H218	H	0.604339	-0.562559	0.202117
H219	H	0.937673	-0.229226	0.535450
H220	H	-0.018793	-0.810743	-0.214378
H221	H	0.314541	-0.477410	0.118955
H222	H	0.647874	-0.144077	0.452288
Br223	Br	-0.209980	-1.001901	-0.611776
Br224	Br	0.123353	-0.668568	-0.278442
Br225	Br	0.456686	-0.335235	0.054891
H226	H	-0.222733	-0.107018	-0.000105
H227	H	0.110600	0.226316	0.333228
H228	H	0.443933	0.559649	0.666562
H229	H	-0.185075	-0.977035	-0.785819
H230	H	0.148259	-0.643702	-0.452486
H231	H	0.481592	-0.310368	-0.119153
H232	H	0.127783	-0.898171	-0.131222
H233	H	0.461116	-0.564838	0.202111
H234	H	0.794450	-0.231505	0.535445
Br235	Br	0.055965	-0.707147	-0.000099
Br236	Br	0.389299	-0.373814	0.333234
Br237	Br	0.722632	-0.040480	0.666567
Br238	Br	-0.269167	-0.664005	-0.000055
Br239	Br	0.064166	-0.330672	0.333278
Br240	Br	0.397499	0.002662	0.666611
