data_functionalizedCrystal
_audit_creation_method	'MofGen! by Chris Wilmer'
_symmetry_space_group_name_H-M	'P1'
_symmetry_Int_Tables_number	1
_symmetry_cell_setting	triclinic
loop_
_symmetry_equiv_pos_as_xyz
  x,y,z
_cell_length_a	19.188930
_cell_length_b	19.188940
_cell_length_c	9.730223
_cell_angle_alpha	89.998243
_cell_angle_beta	89.985926
_cell_angle_gamma	83.146747
loop_
_atom_site_label
_atom_site_type_symbol
_atom_site_fract_x
_atom_site_fract_y
_atom_site_fract_z
O1	O	0.926144	0.087164	-0.114733
O2	O	1.426144	0.587164	0.385267
O3	O	0.722833	0.098898	-0.114639
O4	O	1.222833	0.598898	0.385361
O5	O	0.830352	-0.008624	-0.114678
O6	O	1.330352	0.491376	0.385322
O7	O	0.818625	0.194686	-0.114694
O8	O	1.318625	0.694686	0.385306
O9	O	0.830351	-0.008621	0.113902
O10	O	1.330351	0.491379	0.613902
O11	O	0.722832	0.098901	0.113941
O12	O	1.222832	0.598901	0.613941
O13	O	0.926143	0.087167	0.113847
O14	O	1.426143	0.587167	0.613847
Zn15	Zn	0.824487	0.093034	0.150186
Zn16	Zn	1.324487	0.593034	0.650186
Zn17	Zn	0.824489	0.093031	-0.150978
Zn18	Zn	1.324489	0.593031	0.349022
O19	O	0.818624	0.194689	0.113886
O20	O	1.318624	0.694689	0.613886
C21	C	0.696821	0.098520	-0.000337
C22	C	1.196821	0.598520	0.499663
C23	C	0.619317	0.097379	-0.000301
C24	C	1.119317	0.597379	0.499699
C25	C	0.829970	-0.034633	-0.000388
C26	C	1.329970	0.465367	0.499612
C27	C	0.828827	-0.112138	-0.000388
C28	C	1.328827	0.387862	0.499612
C29	C	0.820692	-0.665395	0.124182
C30	C	1.320692	-0.165395	0.624182
C31	C	0.821759	-0.592571	0.124189
C32	C	1.321759	-0.092571	0.624189
C33	C	0.822296	-0.556153	-0.000409
C34	C	1.322296	-0.056153	0.499591
C35	C	0.821748	-0.592563	-0.125023
C36	C	1.321748	-0.092563	0.374977
C37	C	0.820675	-0.665385	-0.125026
C38	C	1.320675	-0.165385	0.374974
N39	N	0.863713	-0.447130	-0.093168
N40	N	1.363713	0.052870	0.406832
N41	N	0.864734	-0.377952	-0.093156
N42	N	1.364734	0.122048	0.406844
C43	C	0.825530	-0.336744	-0.000405
C44	C	1.325530	0.163256	0.499595
N45	N	0.785274	-0.367327	0.092354
N46	N	1.285274	0.132673	0.592354
N47	N	0.784255	-0.436512	0.092346
N48	N	1.284255	0.063488	0.592346
C49	C	0.823460	-0.477189	-0.000419
C50	C	1.323460	0.022811	0.499581
C51	C	0.827229	-0.221377	0.124209
C52	C	1.327229	0.278623	0.624209
C53	C	0.828291	-0.148551	0.124210
C54	C	1.328291	0.351449	0.624210
C55	C	0.828288	-0.148545	-0.125005
C56	C	1.328288	0.351455	0.374995
C57	C	0.827218	-0.221369	-0.125003
C58	C	1.327218	0.278631	0.374997
C59	C	0.826692	-0.257781	-0.000393
C60	C	1.326692	0.242219	0.499607
C61	C	0.574395	0.160470	-0.000327
C62	C	1.074395	0.660470	0.499673
C63	C	0.501571	0.159398	-0.000342
C64	C	1.001571	0.659398	0.499658
C65	C	0.473672	0.095232	-0.000358
C66	C	0.973672	0.595232	0.499642
C67	C	0.518604	0.032133	-0.000324
C68	C	1.018604	0.532133	0.499676
C69	C	0.591426	0.033207	-0.000295
C70	C	1.091426	0.533207	0.499705
N71	N	0.365691	0.046184	-0.078206
N72	N	0.865691	0.546184	0.421794
N73	N	0.296512	0.045169	-0.078236
N74	N	0.796512	0.545169	0.421764
C75	C	0.254264	0.091994	-0.000442
C76	C	0.754264	0.591994	0.499558
N77	N	0.283806	0.139883	0.077366
N78	N	0.783806	0.639883	0.577366
N79	N	0.352990	0.140901	0.077390
N80	N	0.852990	0.640901	0.577390
C81	C	0.394710	0.094061	-0.000389
C82	C	0.894710	0.594061	0.499611
C83	C	0.130377	0.153927	-0.000483
C84	C	0.630377	0.653927	0.499517
C85	C	0.057553	0.152853	-0.000489
C86	C	0.557553	0.652853	0.499511
C87	C	0.074587	0.025586	-0.000485
C88	C	0.574587	0.525586	0.499515
C89	C	0.147410	0.026662	-0.000465
C90	C	0.647410	0.526662	0.499535
C91	C	0.175301	0.090835	-0.000470
C92	C	0.675301	0.590835	0.499530
C93	C	0.952154	0.087546	-0.000458
C94	C	1.452154	0.587546	0.499542
C95	C	1.029659	0.088686	-0.000503
C96	C	1.529659	0.588686	0.499497
C97	C	0.819005	0.220699	-0.000407
C98	C	1.319005	0.720699	0.499593
C99	C	0.820148	0.298203	-0.000416
C100	C	1.320148	0.798203	0.499584
N101	N	0.824491	0.093036	0.355722
N102	N	1.324491	0.593036	0.855722
N103	N	0.824490	0.093023	-0.356514
N104	N	1.324490	0.593023	0.143486
C105	C	0.872112	0.045441	0.427631
C106	C	1.372112	0.545441	0.927631
C107	C	0.872111	0.045433	0.571514
C108	C	1.372111	0.545433	1.071514
C109	C	0.776864	0.140621	0.571567
C110	C	1.276864	0.640621	1.071567
C111	C	0.776863	0.140625	0.427687
C112	C	1.276863	0.640625	0.927687
C113	C	0.927105	-0.009512	0.427602
C114	C	1.427105	0.490488	0.927602
C115	C	0.927103	-0.009521	0.571485
C116	C	1.427103	0.490479	1.071485
H117	H	0.822188	-0.562925	0.225654
H118	H	1.322188	-0.062925	0.725654
H119	H	0.020977	0.204231	-0.000503
H120	H	0.520977	0.704231	0.499497
O121	O	0.635038	-0.028101	-0.000523
O122	O	1.135038	0.471899	0.499477
C123	C	0.622436	-0.067083	-0.118892
C124	C	1.122436	0.432917	0.381108
H125	H	0.597449	-0.030148	-0.201643
H126	H	1.097449	0.469852	0.298357
H127	H	0.674197	-0.095239	-0.158616
H128	H	1.174197	0.404761	0.341384
H129	H	0.585471	-0.107383	-0.092137
H130	H	1.085471	0.392617	0.407863
O131	O	0.907683	-0.069793	0.624919
O132	O	1.407683	0.430207	1.124919
C133	C	0.962670	-0.103026	0.706371
C134	C	1.462670	0.396974	1.206371
H135	H	0.997695	-0.062562	0.742010
H136	H	1.497695	0.437438	1.242010
H137	H	0.939766	-0.128097	0.799706
H138	H	1.439766	0.371903	1.299706
H139	H	0.995010	-0.145292	0.643264
H140	H	1.495010	0.354708	1.143264
O141	O	0.157395	0.216303	-0.000653
O142	O	0.657395	0.716303	0.499347
C143	C	0.134459	0.254747	-0.119057
C144	C	0.634459	0.754747	0.380943
H145	H	0.084014	0.235878	-0.158543
H146	H	0.584014	0.735878	0.341457
H147	H	0.124175	0.312921	-0.092428
H148	H	0.624175	0.812921	0.407572
H149	H	0.176642	0.246530	-0.201942
H150	H	0.676642	0.746530	0.298058
O151	O	0.822240	-0.557294	-0.246180
O152	O	1.322240	-0.057294	0.253820
C153	C	0.821549	-0.605045	-0.356159
C154	C	1.321549	-0.105045	0.143841
H155	H	0.798683	-0.653998	-0.319621
H156	H	1.298683	-0.153998	0.180379
H157	H	0.787969	-0.579465	-0.443286
H158	H	1.287969	-0.079465	0.056714
H159	H	0.877434	-0.620286	-0.394503
H160	H	1.377434	-0.120286	0.105497
H161	H	0.495884	-0.020111	-0.000356
H162	H	0.995884	0.479889	0.499644
H163	H	0.464989	0.210775	-0.000360
H164	H	0.964989	0.710775	0.499640
O165	O	0.047379	-0.036684	-0.000565
O166	O	0.547379	0.463316	0.499435
C167	C	-0.026529	-0.024105	-0.000557
C168	C	0.473471	0.475895	0.499443
H169	H	-0.043785	0.030434	-0.043834
H170	H	0.456215	0.530434	0.456166
H171	H	-0.048752	-0.065150	-0.066931
H172	H	0.451248	0.434850	0.433069
H173	H	-0.046815	-0.027426	0.109097
H174	H	0.453185	0.472574	0.609097
O175	O	0.990890	0.004084	0.618214
O176	O	1.490890	0.504084	1.118214
C177	C	0.982682	0.065629	0.698666
C178	C	1.482682	0.565629	1.198666
H179	H	0.926681	0.074861	0.739653
H180	H	1.426681	0.574861	1.239653
H181	H	1.021061	0.059520	0.788485
H182	H	1.521061	0.559520	1.288485
H183	H	0.993667	0.112272	0.632919
H184	H	1.493667	0.612272	1.132919
H185	H	0.820231	-0.695023	-0.226492
H186	H	1.320231	-0.195023	0.273508
O187	O	0.826744	-0.256865	0.245125
O188	O	1.326744	0.243135	0.745125
C189	C	0.825671	-0.328945	0.218406
C190	C	1.325671	0.171055	0.718406
H191	H	0.847619	-0.341842	0.111305
H192	H	1.347619	0.158158	0.611305
H193	H	0.859159	-0.361156	0.297960
H194	H	1.359159	0.138844	0.797960
H195	H	0.769368	-0.342122	0.224348
H196	H	1.269368	0.157878	0.724348
H197	H	0.828732	-0.118913	0.225677
H198	H	1.328732	0.381087	0.725677
O199	O	0.820144	-0.700652	0.245347
O200	O	1.320144	-0.200652	0.745347
C201	C	0.820869	-0.652903	0.355323
C202	C	1.320869	-0.152903	0.855323
H203	H	0.799537	-0.598034	0.318806
H204	H	1.299537	-0.098034	0.818806
H205	H	0.786671	-0.669408	0.442489
H206	H	1.286671	-0.169408	0.942489
H207	H	0.876985	-0.652656	0.393604
H208	H	1.376985	-0.152656	0.893604
H209	H	0.183987	-0.024713	-0.000451
H210	H	0.683987	0.475287	0.499549
O211	O	0.730572	0.186921	0.358047
O212	O	1.230572	0.686921	0.858047
C213	C	0.688525	0.228909	0.452422
C214	C	1.188525	0.728909	0.952422
H215	H	0.717148	0.229629	0.554969
H216	H	1.217148	0.729629	1.054969
H217	H	0.677693	0.284696	0.410858
H218	H	1.177693	0.784696	0.910858
H219	H	0.636736	0.206356	0.467751
H220	H	1.136736	0.706356	0.967751
O221	O	0.828667	-0.113106	-0.245981
O222	O	1.328667	0.386894	0.254019
C223	C	0.768796	-0.062936	-0.253359
C224	C	1.268796	0.437064	0.246641
H225	H	0.748849	-0.049316	-0.145139
H226	H	1.248849	0.450684	0.354861
H227	H	0.783092	-0.013548	-0.306189
H228	H	1.283092	0.486452	0.193811
H229	H	0.726035	-0.085376	-0.314714
H230	H	1.226035	0.414624	0.185286
H231	H	0.915812	-0.063043	0.388558
H232	H	1.415812	0.436957	0.888558
O233	O	0.826576	-0.256747	-0.246006
O234	O	1.326576	0.243253	0.253994
C235	C	0.765511	-0.290796	-0.253428
C236	C	1.265511	0.209204	0.246572
H237	H	0.723578	-0.263200	-0.182698
H238	H	1.223578	0.236800	0.317302
H239	H	0.745208	-0.288901	-0.363624
H240	H	1.245208	0.211099	0.136376
H241	H	0.778367	-0.347817	-0.219965
H242	H	1.278367	0.152183	0.280035
O243	O	0.601371	0.222866	-0.000256
O244	O	1.101371	0.722866	0.499744
C245	C	0.546099	0.278322	-0.000316
C246	C	1.046099	0.778322	0.499684
H247	H	0.496675	0.258901	0.042935
H248	H	0.996675	0.758901	0.542935
H249	H	0.561166	0.323136	0.066055
H250	H	1.061166	0.823136	0.566055
H251	H	0.535763	0.297771	-0.109982
H252	H	1.035763	0.797771	0.390018
H253	H	0.738085	0.179366	0.630176
H254	H	1.238085	0.679366	1.130176
O255	O	0.987341	0.010169	0.374506
O256	O	1.487341	0.510169	0.874506
C257	C	0.995481	0.078591	0.419382
C258	C	1.495481	0.578591	0.919382
H259	H	0.964421	0.090414	0.518247
H260	H	1.464421	0.590414	1.018247
H261	H	1.053400	0.082628	0.439344
H262	H	1.553400	0.582628	0.939344
H263	H	0.975205	0.118059	0.336845
H264	H	1.475205	0.618059	0.836845
