data_functionalizedCrystal
_audit_creation_method	'MofGen! by Chris Wilmer'
_symmetry_space_group_name_H-M	'P1'
_symmetry_Int_Tables_number	1
_symmetry_cell_setting	triclinic
loop_
_symmetry_equiv_pos_as_xyz
  x,y,z
_cell_length_a	16.109302
_cell_length_b	12.837942
_cell_length_c	14.586319
_cell_angle_alpha	89.996741
_cell_angle_beta	89.994552
_cell_angle_gamma	89.145360
loop_
_atom_site_label
_atom_site_type_symbol
_atom_site_fract_x
_atom_site_fract_y
_atom_site_fract_z
O1	O	1.113716	0.133244	-0.076281
O2	O	1.613716	0.633244	0.423719
O3	O	0.872971	0.149825	-0.076274
O4	O	1.372971	0.649825	0.423726
O5	O	0.988005	-0.009367	-0.076272
O6	O	1.488005	0.490633	0.423728
O7	O	0.998681	0.292435	-0.076284
O8	O	1.498681	0.792435	0.423716
O9	O	0.987996	-0.009369	0.076209
O10	O	1.487996	0.490631	0.576209
O11	O	0.872962	0.149822	0.076207
O12	O	1.372962	0.649822	0.576207
O13	O	1.113707	0.133242	0.076199
O14	O	1.613707	0.633242	0.576199
Cu15	Cu	0.993333	0.141532	0.090126
Cu16	Cu	1.493333	0.641532	0.590126
Cu17	Cu	0.993344	0.141535	-0.090201
Cu18	Cu	1.493344	0.641535	0.409799
O19	O	0.998672	0.292433	0.076197
O20	O	1.498672	0.792433	0.576197
C21	C	0.841938	0.149152	-0.000033
C22	C	1.341938	0.649152	0.499967
C23	C	0.749483	0.147138	-0.000030
C24	C	1.249483	0.647138	0.499970
C25	C	0.984394	-0.047987	-0.000032
C26	C	1.484394	0.452013	0.499968
C27	C	0.973637	-0.163061	-0.000033
C28	C	1.473637	0.336939	0.499967
C29	C	0.536767	0.142479	0.083078
C30	C	1.036767	0.642479	0.583078
C31	C	0.449896	0.140576	0.083075
C32	C	0.949896	0.640576	0.583075
C33	C	0.449917	0.140584	-0.083168
C34	C	0.949917	0.640584	0.416832
C35	C	0.536786	0.142480	-0.083164
C36	C	1.036786	0.642480	0.416836
C37	C	0.580209	0.143433	-0.000038
C38	C	1.080209	0.643433	0.499962
C39	C	0.406468	0.139633	-0.000045
C40	C	0.906468	0.639633	0.499955
C41	C	0.312278	0.137569	-0.000049
C42	C	0.812278	0.637569	0.499951
C43	C	0.674405	0.145495	-0.000034
C44	C	1.174405	0.645495	0.499966
C45	C	1.102954	-0.404062	-0.000056
C46	C	1.602954	0.095938	0.499944
C47	C	1.092851	-0.512185	-0.000057
C48	C	1.592851	-0.012185	0.499943
C49	C	0.943328	-0.487430	-0.000044
C50	C	1.443328	0.012570	0.499956
C51	C	0.953431	-0.379308	-0.000042
C52	C	1.453431	0.120692	0.499958
C53	C	1.033247	-0.337628	-0.000047
C54	C	1.533247	0.162372	0.499953
C55	C	1.043349	-0.229504	-0.000039
C56	C	1.543349	0.270496	0.499961
C57	C	0.893827	-0.204751	-0.000032
C58	C	1.393827	0.295249	0.499968
C59	C	0.883724	-0.312873	-0.000033
C60	C	1.383724	0.187127	0.499967
C61	C	1.144739	0.133914	-0.000044
C62	C	1.644739	0.633914	0.499956
C63	C	1.237195	0.135929	-0.000053
C64	C	1.737195	0.635929	0.499947
C65	C	1.002284	0.331054	-0.000045
C66	C	1.502284	0.831054	0.499955
C67	C	1.013040	0.446127	-0.000050
C68	C	1.513040	0.946127	0.499950
N69	N	0.993332	0.141529	0.216957
N70	N	1.493332	0.641529	0.716957
N71	N	0.993352	0.141529	-0.217032
N72	N	1.493352	0.641529	0.282968
C73	C	1.044290	0.071063	0.451965
C74	C	1.544290	0.571063	0.951965
C75	C	1.044292	0.071060	0.547946
C76	C	1.544292	0.571060	1.047946
C77	C	0.942388	0.211999	0.547954
C78	C	1.442388	0.711999	1.047954
C79	C	0.942382	0.211995	0.451974
C80	C	1.442382	0.711995	0.951974
C81	C	0.993338	0.141529	0.403982
C82	C	1.493338	0.641529	0.903982
C83	C	0.993346	0.141529	0.595943
C84	C	1.493346	0.641529	1.095943
C85	C	0.993348	0.141527	0.700010
C86	C	1.493348	0.641527	1.200010
C87	C	0.993335	0.141529	0.299908
C88	C	1.493335	0.641529	0.799908
H89	H	0.572119	0.143255	0.150765
H90	H	1.072119	0.643255	0.650765
H91	H	1.149614	-0.566273	-0.000068
H92	H	1.649614	-0.066273	0.499932
Cl93	Cl	1.108344	-0.017528	0.391636
Cl94	Cl	1.608344	0.482472	0.891636
Cl95	Cl	1.108346	-0.017531	0.608265
Cl96	Cl	1.608346	0.482469	1.108265
Cl97	Cl	0.842997	-0.539847	-0.000064
Cl98	Cl	1.342997	-0.039847	0.499936
H99	H	0.818741	-0.346824	-0.000033
H100	H	1.318741	0.153176	0.499967
Cl101	Cl	0.878319	0.300583	0.391647
Cl102	Cl	1.378319	0.800583	0.891647
Cl103	Cl	0.395323	0.139361	-0.187663
Cl104	Cl	0.895323	0.639361	0.312337
H105	H	1.167943	-0.370127	-0.000051
H106	H	1.667943	0.129873	0.499949
Cl107	Cl	0.806190	-0.121227	-0.000009
Cl108	Cl	1.306190	0.378773	0.499991
Cl109	Cl	0.878336	0.300585	0.608290
Cl110	Cl	1.378336	0.800585	1.108290
H111	H	0.572158	0.143253	-0.150851
H112	H	1.072158	0.643253	0.349149
Cl113	Cl	0.395286	0.139379	0.187569
Cl114	Cl	0.895286	0.639379	0.687569
H115	H	1.108339	-0.195570	-0.000040
H116	H	1.608339	0.304430	0.499960
