data_functionalizedCrystal
_audit_creation_method	'MofGen! by Chris Wilmer'
_symmetry_space_group_name_H-M	'P1'
_symmetry_Int_Tables_number	1
_symmetry_cell_setting	triclinic
loop_
_symmetry_equiv_pos_as_xyz
  x,y,z
_cell_length_a	21.295420
_cell_length_b	21.295417
_cell_length_c	16.959447
_cell_angle_alpha	89.969420
_cell_angle_beta	89.981229
_cell_angle_gamma	90.027953
loop_
_atom_site_label
_atom_site_type_symbol
_atom_site_fract_x
_atom_site_fract_y
_atom_site_fract_z
Zn1	Zn	0.962322	-0.250648	-0.446915
Zn2	Zn	1.462322	0.249352	0.053085
Zn3	Zn	0.962237	-0.355918	-0.314727
Zn4	Zn	1.462237	0.144082	0.185273
Zn5	Zn	0.857056	-0.250664	-0.314749
Zn6	Zn	1.357056	0.249336	0.185251
Zn7	Zn	0.857016	-0.355880	-0.446863
Zn8	Zn	1.357016	0.144120	0.053137
O9	O	0.909658	-0.303278	-0.380813
O10	O	1.409658	0.196722	0.119187
O11	O	1.050400	-0.264622	-0.429392
O12	O	1.550400	0.235378	0.070608
O13	O	0.948265	-0.341979	-0.204119
O14	O	1.448265	0.158021	0.295881
O15	O	0.871072	-0.162572	-0.332312
O16	O	1.371072	0.337428	0.167688
O17	O	1.050338	-0.341964	-0.332275
O18	O	1.550338	0.158036	0.167725
O19	O	0.948411	-0.162561	-0.429413
O20	O	1.448411	0.337439	0.070587
O21	O	0.870990	-0.264649	-0.204135
O22	O	1.370990	0.235351	0.295865
O23	O	0.768962	-0.264612	-0.332262
O24	O	1.268962	0.235388	0.167738
O25	O	0.871004	-0.341899	-0.557481
O26	O	1.371004	0.158101	-0.057481
O27	O	0.768932	-0.341914	-0.429325
O28	O	1.268932	0.158086	0.070675
O29	O	0.948372	-0.264585	-0.557519
O30	O	1.448372	0.235415	-0.057519
O31	O	0.948227	-0.444003	-0.332224
O32	O	1.448227	0.055997	0.167776
O33	O	0.870922	-0.443975	-0.429304
O34	O	1.370922	0.056025	0.070696
C35	C	0.746106	-0.303261	-0.380791
C36	C	1.246106	0.196739	0.119209
C37	C	0.676138	-0.303269	-0.380800
C38	C	1.176138	0.196731	0.119200
C39	C	0.176681	-0.343603	-0.431305
C40	C	0.676681	0.156397	0.068695
C41	C	0.242424	-0.343603	-0.431297
C42	C	0.742424	0.156397	0.068703
C43	C	0.275299	-0.303292	-0.380838
C44	C	0.775299	0.196708	0.119162
C45	C	0.242426	-0.262989	-0.330370
C46	C	0.742426	0.237011	0.169630
C47	C	0.176684	-0.262994	-0.330374
C48	C	0.676684	0.237006	0.169626
N49	N	0.378539	-0.248175	-0.374894
N50	N	0.878539	0.251825	0.125106
N51	N	0.440991	-0.248172	-0.374895
N52	N	0.940991	0.251828	0.125105
C53	C	0.473373	-0.303274	-0.380821
C54	C	0.973373	0.196726	0.119179
N55	N	0.440946	-0.358381	-0.386763
N56	N	0.940946	0.141619	0.113237
N57	N	0.378488	-0.358384	-0.386766
N58	N	0.878488	0.141616	0.113234
C59	C	0.346584	-0.303282	-0.380828
C60	C	0.846584	0.196718	0.119172
C61	C	0.577524	-0.343578	-0.431274
C62	C	1.077524	0.156422	0.068726
C63	C	0.643268	-0.343580	-0.431260
C64	C	1.143268	0.156420	0.068740
C65	C	0.643268	-0.262960	-0.330337
C66	C	1.143268	0.237040	0.169663
C67	C	0.577526	-0.262964	-0.330347
C68	C	1.077526	0.237036	0.169653
C69	C	0.544658	-0.303272	-0.380819
C70	C	1.044658	0.196728	0.119181
C71	C	0.909578	-0.466829	-0.380773
C72	C	1.409578	0.033171	0.119227
C73	C	0.909601	-0.536797	-0.380783
C74	C	1.409601	-0.036797	0.119217
C75	C	0.949848	-0.569601	-0.431380
C76	C	1.449848	-0.069601	0.068620
C77	C	0.949870	-0.635344	-0.431399
C78	C	1.449870	-0.135344	0.068601
C79	C	0.909652	-0.668280	-0.380808
C80	C	1.409652	-0.168280	0.119192
C81	C	0.869397	-0.635469	-0.330207
C82	C	1.369397	-0.135469	0.169793
C83	C	0.869371	-0.569727	-0.330195
C84	C	1.369371	-0.069727	0.169805
N85	N	0.904898	-0.771542	-0.311632
N86	N	1.404898	-0.271542	0.188368
N87	N	0.904926	-0.833993	-0.311646
N88	N	1.404926	-0.333993	0.188354
C89	C	0.909725	-0.866355	-0.380843
C90	C	1.409725	-0.366355	0.119157
N91	N	0.914508	-0.833905	-0.450028
N92	N	1.414508	-0.333905	0.049972
N93	N	0.914483	-0.771448	-0.450013
N94	N	1.414483	-0.271448	0.049987
C95	C	0.909675	-0.739565	-0.380816
C96	C	1.409675	-0.239565	0.119184
C97	C	0.949999	-0.970444	-0.431466
C98	C	1.449999	-0.470444	0.068534
C99	C	0.950017	-1.036187	-0.431486
C100	C	1.450017	-0.536187	0.068514
C101	C	0.869547	-1.036311	-0.330288
C102	C	1.369547	-0.536311	0.169712
C103	C	0.869526	-0.970569	-0.330274
C104	C	1.369526	-0.470569	0.169726
C105	C	0.909755	-0.937639	-0.380862
C106	C	1.409755	-0.437639	0.119138
C107	C	1.073848	-0.303295	-0.380837
C108	C	1.573848	0.196705	0.119163
C109	C	1.143816	-0.303303	-0.380847
C110	C	1.643816	0.196697	0.119153
C111	C	0.909693	-0.303236	-0.586982
C112	C	1.409693	0.196764	-0.086982
C113	C	0.909708	-0.303218	-0.674838
C114	C	1.409708	0.196782	-0.174838
C115	C	0.909756	-0.139087	-0.380871
C116	C	1.409756	0.360913	0.119129
C117	C	0.909797	-0.069119	-0.380895
C118	C	1.409797	0.430881	0.119105
C119	C	0.869434	-0.343464	-0.716094
C120	C	1.369434	0.156536	-0.216094
C121	C	0.949993	-0.262951	-0.716136
C122	C	1.449993	0.237049	-0.216136
C123	C	0.950006	-0.262931	-0.798682
C124	C	1.450006	0.237069	-0.298682
C125	C	0.909732	-0.303177	-0.839938
C126	C	1.409732	0.196823	-0.339938
C127	C	0.869445	-0.343443	-0.798648
C128	C	1.369445	0.156557	-0.298648
C129	C	0.990288	-0.222661	-0.839979
C130	C	1.490288	0.277339	-0.339979
C131	C	0.990302	-0.222638	-0.922530
C132	C	1.490302	0.277362	-0.422530
C133	C	0.950030	-0.262887	-0.963787
C134	C	1.450030	0.237113	-0.463787
C135	C	0.909742	-0.303156	-0.922492
C136	C	1.409742	0.196844	-0.422492
C137	C	0.869468	-0.343402	-0.963747
C138	C	1.369468	0.156598	-0.463747
C139	C	0.829183	-0.383674	-0.922453
C140	C	1.329183	0.116326	-0.422453
C141	C	0.829173	-0.383693	-0.839905
C142	C	1.329173	0.116307	-0.339905
C143	C	0.950040	-0.262869	-1.046335
C144	C	1.450040	0.237131	-0.546335
C145	C	0.869479	-0.343381	-1.046301
C146	C	1.369479	0.156619	-0.546301
C147	C	0.909659	-0.303274	-0.175447
C148	C	1.409659	0.196726	0.324553
C149	C	0.909766	-0.303115	-0.087591
C150	C	1.409766	0.196885	0.412409
H151	H	0.550767	-0.230145	-0.289260
H152	H	1.050767	0.269855	0.210740
H153	H	0.269196	-0.230168	-0.289285
H154	H	0.769196	0.269832	0.210715
Cl155	Cl	0.536201	-0.394254	-0.494720
Cl156	Cl	1.036201	0.105746	0.005280
H157	H	0.836597	-0.543018	-0.288992
H158	H	1.336597	-0.043018	0.211008
Cl159	Cl	1.000666	-0.212231	-1.098244
Cl160	Cl	1.500666	0.287769	-0.598244
H161	H	0.670026	-0.376401	-0.472347
H162	H	1.170026	0.123599	0.027653
H163	H	0.670034	-0.230139	-0.289250
H164	H	1.170034	0.269861	0.210750
Cl165	Cl	0.818793	-0.394090	-0.664185
Cl166	Cl	1.318793	0.105910	-0.164185
Cl167	Cl	1.000475	-0.676591	-0.495006
Cl168	Cl	1.500475	-0.176591	0.004994
Cl169	Cl	0.778551	-0.434263	-0.974328
Cl170	Cl	1.278551	0.065737	-0.474328
H171	H	0.149924	-0.376428	-0.472401
H172	H	0.649924	0.123572	0.027599
H173	H	0.982603	-0.542791	-0.472573
H174	H	1.482603	-0.042791	0.027427
H175	H	0.796375	-0.416480	-0.806276
H176	H	1.296375	0.083520	-0.306276
Cl177	Cl	1.000598	-0.212338	-0.664271
Cl178	Cl	1.500598	0.287662	-0.164271
H179	H	1.023074	-0.189892	-0.806382
H180	H	1.523074	0.310108	-0.306382
H181	H	0.269188	-0.376421	-0.472389
H182	H	0.769188	0.123579	0.027611
H183	H	0.836685	-0.376157	-1.079886
H184	H	1.336685	0.123843	-0.579886
H185	H	0.982754	-0.943631	-0.472660
H186	H	1.482754	-0.443631	0.027340
H187	H	0.149926	-0.230175	-0.289284
H188	H	0.649926	0.269825	0.210716
H189	H	1.023106	-0.189847	-0.956144
H190	H	1.523106	0.310153	-0.456144
H191	H	0.836650	-0.662290	-0.289017
H192	H	1.336650	-0.162290	0.210983
H193	H	0.836796	-1.063127	-0.289100
H194	H	1.336796	-0.563127	0.210900
Cl195	Cl	0.818926	-0.929328	-0.266662
Cl196	Cl	1.318926	-0.429328	0.233338
Cl197	Cl	1.000610	-1.077427	-0.495110
Cl198	Cl	1.500610	-0.577427	0.004890
