data_functionalizedCrystal
_audit_creation_method	'MofGen! by Chris Wilmer'
_symmetry_space_group_name_H-M	'P1'
_symmetry_Int_Tables_number	1
_symmetry_cell_setting	triclinic
loop_
_symmetry_equiv_pos_as_xyz
  x,y,z
_cell_length_a	21.395362
_cell_length_b	19.805405
_cell_length_c	21.395355
_cell_angle_alpha	89.980090
_cell_angle_beta	89.956060
_cell_angle_gamma	90.042288
loop_
_atom_site_label
_atom_site_type_symbol
_atom_site_fract_x
_atom_site_fract_y
_atom_site_fract_z
Zn1	Zn	0.957878	-0.269255	-0.354580
Zn2	Zn	1.291212	0.064079	-0.021246
Zn3	Zn	1.624545	0.397412	0.312087
Zn4	Zn	0.957789	-0.382425	-0.249800
Zn5	Zn	1.291122	-0.049091	0.083534
Zn6	Zn	1.624455	0.284242	0.416867
Zn7	Zn	0.853093	-0.269286	-0.249781
Zn8	Zn	1.186426	0.064047	0.083553
Zn9	Zn	1.519760	0.397380	0.416886
Zn10	Zn	0.853070	-0.382438	-0.354504
Zn11	Zn	1.186403	-0.049105	-0.021171
Zn12	Zn	1.519737	0.284228	0.312162
O13	O	0.905458	-0.325851	-0.302166
O14	O	1.238791	0.007482	0.031167
O15	O	1.572124	0.340816	0.364501
O16	O	1.045544	-0.284248	-0.340720
O17	O	1.378878	0.049085	-0.007386
O18	O	1.712211	0.382419	0.325947
O19	O	0.943873	-0.367424	-0.162119
O20	O	1.277206	-0.034091	0.171214
O21	O	1.610539	0.299243	0.504548
O22	O	0.867040	-0.174565	-0.263706
O23	O	1.200374	0.158768	0.069627
O24	O	1.533707	0.492101	0.402960
O25	O	1.045478	-0.367393	-0.263738
O26	O	1.378812	-0.034060	0.069595
O27	O	1.712145	0.299273	0.402929
O28	O	0.944025	-0.174542	-0.340701
O29	O	1.277359	0.158791	-0.007368
O30	O	1.610692	0.492124	0.325965
O31	O	0.866953	-0.284302	-0.162105
O32	O	1.200287	0.049032	0.171228
O33	O	1.533620	0.382365	0.504561
O34	O	0.765412	-0.284315	-0.263633
O35	O	1.098746	0.049018	0.069700
O36	O	1.432079	0.382352	0.403033
O37	O	0.867001	-0.367417	-0.442192
O38	O	1.200334	-0.034084	-0.108859
O39	O	1.533668	0.299250	0.224475
O40	O	0.765395	-0.367448	-0.340573
O41	O	1.098729	-0.034114	-0.007240
O42	O	1.432062	0.299219	0.326094
O43	O	0.944003	-0.284261	-0.442247
O44	O	1.277336	0.049072	-0.108914
O45	O	1.610670	0.382405	0.224419
O46	O	0.943850	-0.477143	-0.263665
O47	O	1.277184	-0.143810	0.069668
O48	O	1.610517	0.189524	0.403002
O49	O	0.866914	-0.477153	-0.340591
O50	O	1.200247	-0.143820	-0.007258
O51	O	1.533581	0.189513	0.326075
C52	C	0.742670	-0.325887	-0.302093
C53	C	1.076003	0.007447	0.031240
C54	C	1.409336	0.340780	0.364573
C55	C	0.673029	-0.325918	-0.302077
C56	C	1.006362	0.007415	0.031256
C57	C	1.339695	0.340748	0.364590
C58	C	0.640323	-0.369263	-0.342080
C59	C	0.973656	-0.035930	-0.008746
C60	C	1.306990	0.297404	0.324587
C61	C	0.574888	-0.369246	-0.342108
C62	C	0.908221	-0.035913	-0.008774
C63	C	1.241554	0.297420	0.324559
C64	C	0.542160	-0.325892	-0.302122
C65	C	0.875494	0.007441	0.031212
C66	C	1.208827	0.340774	0.364545
C67	C	0.574874	-0.282539	-0.262116
C68	C	0.908207	0.050794	0.071217
C69	C	1.241540	0.384127	0.404550
C70	C	0.640308	-0.282553	-0.262094
C71	C	0.973641	0.050781	0.071239
C72	C	1.306974	0.384114	0.404573
C73	C	0.438435	-0.320440	-0.245717
C74	C	0.771768	0.012894	0.087617
C75	C	1.105102	0.346227	0.420950
C76	C	0.373002	-0.320431	-0.245738
C77	C	0.706336	0.012902	0.087595
C78	C	1.039669	0.346235	0.420929
C79	C	0.340340	-0.325848	-0.302191
C80	C	0.673673	0.007485	0.031142
C81	C	1.007006	0.340818	0.364476
C82	C	0.373118	-0.331287	-0.358624
C83	C	0.706451	0.002046	-0.025291
C84	C	1.039785	0.335379	0.308042
C85	C	0.438552	-0.331301	-0.358602
C86	C	0.771885	0.002033	-0.025269
C87	C	1.105219	0.335366	0.308065
C88	C	0.471208	-0.325873	-0.302142
C89	C	0.804541	0.007460	0.031192
C90	C	1.137875	0.340794	0.364525
C91	C	0.236682	-0.369177	-0.342227
C92	C	0.570015	-0.035844	-0.008894
C93	C	0.903348	0.297490	0.324440
C94	C	0.171245	-0.369156	-0.342256
C95	C	0.504578	-0.035822	-0.008923
C96	C	0.837912	0.297511	0.324411
C97	C	0.171232	-0.282452	-0.262259
C98	C	0.504566	0.050881	0.071074
C99	C	0.837899	0.384214	0.404407
C100	C	0.236668	-0.282470	-0.262236
C101	C	0.570001	0.050863	0.071097
C102	C	0.903334	0.384196	0.404431
C103	C	0.269388	-0.325836	-0.302219
C104	C	0.602722	0.007497	0.031114
C105	C	0.936055	0.340831	0.364448
C106	C	0.905387	-0.501707	-0.302136
C107	C	1.238720	-0.168374	0.031198
C108	C	1.572054	0.164960	0.364531
C109	C	0.905414	-0.576939	-0.302144
C110	C	1.238748	-0.243606	0.031190
C111	C	1.572081	0.089728	0.364523
C112	C	0.945514	-0.612255	-0.262130
C113	C	1.278847	-0.278922	0.071203
C114	C	1.612180	0.054411	0.404536
C115	C	0.945540	-0.682944	-0.262144
C116	C	1.278874	-0.349610	0.071189
C117	C	1.612207	-0.016277	0.404523
C118	C	0.905464	-0.718315	-0.302169
C119	C	1.238797	-0.384981	0.031165
C120	C	1.572130	-0.051648	0.364498
C121	C	0.865362	-0.682993	-0.342187
C122	C	1.198696	-0.349660	-0.008853
C123	C	1.532029	-0.016327	0.324480
C124	C	0.865339	-0.612306	-0.342175
C125	C	1.198673	-0.278973	-0.008842
C126	C	1.532006	0.054361	0.324491
C127	C	0.865455	-0.968067	-0.342233
C128	C	1.198788	-0.634733	-0.008900
C129	C	1.532122	-0.301400	0.324434
C130	C	0.865480	-1.038759	-0.342240
C131	C	1.198813	-0.705425	-0.008906
C132	C	1.532146	-0.372092	0.324427
C133	C	0.945656	-1.038704	-0.262202
C134	C	1.278989	-0.705371	0.071132
C135	C	1.612322	-0.372037	0.404465
C136	C	0.945633	-0.968017	-0.262191
C137	C	1.278966	-0.634684	0.071143
C138	C	1.612299	-0.301350	0.404476
C139	C	0.905534	-0.932702	-0.302210
C140	C	1.238867	-0.599369	0.031123
C141	C	1.572201	-0.266035	0.364456
C142	C	0.905507	-0.856053	-0.302196
C143	C	1.238840	-0.522720	0.031138
C144	C	1.572173	-0.189387	0.364471
C145	C	0.905488	-0.794962	-0.302181
C146	C	1.238821	-0.461628	0.031153
C147	C	1.572154	-0.128295	0.364486
C148	C	1.068881	-0.325816	-0.302239
C149	C	1.402214	0.007518	0.031094
C150	C	1.735548	0.340851	0.364427
C151	C	1.138522	-0.325800	-0.302271
C152	C	1.471855	0.007533	0.031063
C153	C	1.805189	0.340866	0.364396
C154	C	0.905510	-0.325837	-0.465589
C155	C	1.238843	0.007496	-0.132256
C156	C	1.572176	0.340829	0.201077
C157	C	0.905532	-0.325831	-0.535231
C158	C	1.238865	0.007502	-0.201897
C159	C	1.572198	0.340835	0.131436
C160	C	0.905545	-0.149308	-0.302210
C161	C	1.238879	0.184025	0.031123
C162	C	1.572212	0.517358	0.364456
C163	C	0.905583	-0.074076	-0.302229
C164	C	1.238916	0.259257	0.031104
C165	C	1.572249	0.592590	0.364438
C166	C	0.945625	-0.282530	-0.567974
C167	C	1.278958	0.050803	-0.234640
C168	C	1.612292	0.384136	0.098693
C169	C	0.945624	-0.282501	-0.633409
C170	C	1.278957	0.050832	-0.300076
C171	C	1.612291	0.384165	0.033258
C172	C	0.905537	-0.325785	-0.666099
C173	C	1.238870	0.007548	-0.332766
C174	C	1.572203	0.340881	0.000568
C175	C	0.865436	-0.369089	-0.633348
C176	C	1.198769	-0.035756	-0.300015
C177	C	1.532102	0.297577	0.033318
C178	C	0.865433	-0.369112	-0.567914
C179	C	1.198766	-0.035779	-0.234581
C180	C	1.532100	0.297554	0.098753
C181	C	0.900565	-0.386731	-0.769762
C182	C	1.233898	-0.053398	-0.436428
C183	C	1.567232	0.279936	-0.103095
C184	C	0.900572	-0.386709	-0.835195
C185	C	1.233905	-0.053376	-0.501861
C186	C	1.567238	0.279958	-0.168528
C187	C	0.905540	-0.325714	-0.867920
C188	C	1.238874	0.007620	-0.534587
C189	C	1.572207	0.340953	-0.201253
C190	C	0.910516	-0.264738	-0.835204
C191	C	1.243849	0.068595	-0.501871
C192	C	1.577182	0.401928	-0.168538
C193	C	0.910513	-0.264762	-0.769770
C194	C	1.243846	0.068572	-0.436437
C195	C	1.577180	0.401905	-0.103103
C196	C	0.905534	-0.325765	-0.737051
C197	C	1.238868	0.007569	-0.403718
C198	C	1.572201	0.340902	-0.070385
C199	C	0.945635	-0.282378	-0.971615
C200	C	1.278968	0.050956	-0.638282
C201	C	1.612302	0.384289	-0.304949
C202	C	0.945630	-0.282347	-1.037052
C203	C	1.278963	0.050986	-0.703719
C204	C	1.612296	0.384319	-0.370385
C205	C	0.865444	-0.368941	-1.036990
C206	C	1.198778	-0.035608	-0.703657
C207	C	1.532111	0.297725	-0.370323
C208	C	0.865446	-0.368966	-0.971555
C209	C	1.198780	-0.035632	-0.638221
C210	C	1.532113	0.297701	-0.304888
C211	C	0.905545	-0.325685	-0.938871
C212	C	1.238878	0.007649	-0.605538
C213	C	1.572212	0.340982	-0.272205
C214	C	0.905442	-0.325816	-0.139378
C215	C	1.238775	0.007518	0.193955
C216	C	1.572108	0.340851	0.527288
C217	C	0.905541	-0.325631	-0.069738
C218	C	1.238874	0.007702	0.263596
C219	C	1.572208	0.341036	0.596929
H220	H	0.263297	-0.247178	-0.229658
H221	H	0.596630	0.086156	0.103675
H222	H	0.929963	0.419489	0.437008
N223	N	0.473662	-0.314600	-0.184824
N224	N	0.806995	0.018734	0.148509
N225	N	1.140328	0.352067	0.481842
H226	H	0.500846	-0.272897	-0.185727
H227	H	0.834179	0.060436	0.147607
H228	H	1.167513	0.393770	0.480940
H229	H	0.442930	-0.311187	-0.149112
H230	H	0.776264	0.022147	0.184221
H231	H	1.109597	0.355480	0.517554
H232	H	0.144586	-0.247150	-0.229705
H233	H	0.477920	0.086184	0.103628
H234	H	0.811253	0.419517	0.436962
N235	N	0.915868	-0.198941	-0.870486
N236	N	1.249201	0.134393	-0.537152
N237	N	1.582535	0.467726	-0.203819
H238	H	0.956428	-0.175904	-0.859130
H239	H	1.289762	0.157430	-0.525797
H240	H	1.623095	0.490763	-0.192463
H241	H	0.915082	-0.208224	-0.916891
H242	H	1.248416	0.125110	-0.583558
H243	H	1.581749	0.458443	-0.250225
H244	H	0.978308	-1.067466	-0.229618
H245	H	1.311642	-0.734133	0.103715
H246	H	1.644975	-0.400800	0.437049
N247	N	0.337651	-0.314570	-0.184874
N248	N	0.670984	0.018763	0.148459
N249	N	1.004318	0.352096	0.481793
H250	H	0.368270	-0.311132	-0.149109
H251	H	0.701603	0.022201	0.184225
H252	H	1.034937	0.355534	0.517558
H253	H	0.310537	-0.272863	-0.185858
H254	H	0.643870	0.060471	0.147475
H255	H	0.977204	0.393804	0.480809
N256	N	0.822208	-0.415625	-1.072245
N257	N	1.155542	-0.082292	-0.738911
N258	N	1.488875	0.251042	-0.405578
H259	H	0.831914	-0.463988	-1.060865
H260	H	1.165247	-0.130655	-0.727531
H261	H	1.498581	0.202679	-0.394198
H262	H	0.777463	-0.405068	-1.060811
H263	H	1.110797	-0.071735	-0.727477
H264	H	1.444130	0.261598	-0.394144
N265	N	0.539580	-0.235787	-0.218980
N266	N	0.872913	0.097547	0.114353
N267	N	1.206246	0.430880	0.447686
H268	H	0.493164	-0.242360	-0.225059
H269	H	0.826497	0.090973	0.108274
H270	H	1.159831	0.424306	0.441607
H271	H	0.550966	-0.246262	-0.174215
H272	H	0.884299	0.087071	0.159118
H273	H	1.217632	0.420405	0.492452
N274	N	0.988879	-0.235697	-0.936358
N275	N	1.322212	0.097636	-0.603025
N276	N	1.655546	0.430969	-0.269692
H277	H	1.014275	-0.208257	-0.967033
H278	H	1.347609	0.125077	-0.633699
H279	H	1.680942	0.458410	-0.300366
H280	H	0.963391	-0.204391	-0.909188
H281	H	1.296724	0.128942	-0.575855
H282	H	1.630057	0.462275	-0.242522
H283	H	0.832845	-1.067556	-0.374837
H284	H	1.166179	-0.734222	-0.041504
H285	H	1.499512	-0.400889	0.291829
N286	N	0.473907	-0.337165	-0.419464
N287	N	0.807240	-0.003832	-0.086130
N288	N	1.140574	0.329501	0.247203
H289	H	0.443291	-0.340596	-0.455232
H290	H	0.776625	-0.007263	-0.121899
H291	H	1.109958	0.326071	0.211434
H292	H	0.501098	-0.295940	-0.425340
H293	H	0.834431	0.037394	-0.092006
H294	H	1.167764	0.370727	0.241327
H295	H	0.978146	-0.583461	-0.229535
H296	H	1.311479	-0.250128	0.103798
H297	H	1.644813	0.083206	0.437132
N298	N	0.822186	-0.415825	-0.532604
N299	N	1.155520	-0.082491	-0.199271
N300	N	1.488853	0.250842	0.134063
H301	H	0.847630	-0.447199	-0.505475
H302	H	1.180963	-0.113865	-0.172141
H303	H	1.514296	0.219468	0.161192
H304	H	0.793171	-0.388288	-0.505470
H305	H	1.126504	-0.054955	-0.172137
H306	H	1.459838	0.278379	0.161197
H307	H	0.978276	-0.247287	-0.541367
H308	H	1.311609	0.086046	-0.208034
H309	H	1.644942	0.419380	0.125300
H310	H	0.832734	-0.711798	-0.374778
H311	H	1.166067	-0.378464	-0.041445
H312	H	1.499401	-0.045131	0.291889
H313	H	0.978271	-0.247237	-0.660074
H314	H	1.311605	0.086096	-0.326740
H315	H	1.644938	0.419430	0.006593
H316	H	0.832794	-0.404329	-0.659969
H317	H	1.166127	-0.070996	-0.326635
H318	H	1.499461	0.262337	0.006698
N319	N	0.988864	-0.235630	-1.072371
N320	N	1.322197	0.097704	-0.739038
N321	N	1.655530	0.431037	-0.405705
H322	H	1.014262	-0.208215	-1.041735
H323	H	1.347595	0.125118	-0.708401
H324	H	1.680929	0.458451	-0.375068
H325	H	1.017846	-0.263159	-1.099548
H326	H	1.351179	0.070175	-0.766215
H327	H	1.684512	0.403508	-0.432881
N328	N	0.822202	-0.929982	-0.385390
N329	N	1.155536	-0.596648	-0.052056
N330	N	1.488869	-0.263315	0.281277
H331	H	0.796815	-0.963117	-0.410742
H332	H	1.130149	-0.629784	-0.077409
H333	H	1.463482	-0.296450	0.255925
H334	H	0.793211	-0.900703	-0.359842
H335	H	1.126545	-0.567370	-0.026508
H336	H	1.459878	-0.234036	0.306825
H337	H	0.144617	-0.404451	-0.374835
H338	H	0.477951	-0.071117	-0.041502
H339	H	0.811284	0.262216	0.291832
H340	H	0.666936	-0.247254	-0.229519
H341	H	1.000270	0.086079	0.103814
H342	H	1.333603	0.419412	0.437148
H343	H	0.978265	-0.939220	-0.229597
H344	H	1.311598	-0.605887	0.103737
H345	H	1.644931	-0.272554	0.437070
N346	N	0.988790	-0.721032	-0.218984
N347	N	1.322123	-0.387699	0.114350
N348	N	1.655457	-0.054365	0.447683
H349	H	0.963351	-0.750409	-0.189924
H350	H	1.296684	-0.417076	0.143409
H351	H	1.630018	-0.083743	0.476743
H352	H	1.017817	-0.750270	-0.244531
H353	H	1.351150	-0.416937	0.088802
H354	H	1.684484	-0.083603	0.422135
H355	H	0.832687	-0.583552	-0.374759
H356	H	1.166020	-0.250219	-0.041426
H357	H	1.499354	0.083114	0.291907
H358	H	0.832802	-0.404230	-0.944895
H359	H	1.166135	-0.070897	-0.611562
H360	H	1.499469	0.262437	-0.278228
H361	H	0.914562	-0.215113	-0.743136
H362	H	1.247896	0.118220	-0.409802
H363	H	1.581229	0.451553	-0.076469
H364	H	0.896524	-0.436359	-0.861827
H365	H	1.229858	-0.103026	-0.528493
H366	H	1.563191	0.230308	-0.195160
N367	N	0.895214	-0.452524	-0.734468
N368	N	1.228547	-0.119190	-0.401134
N369	N	1.561880	0.214143	-0.067801
H370	H	0.892072	-0.491147	-0.765120
H371	H	1.225405	-0.157813	-0.431787
H372	H	1.558739	0.175520	-0.098453
H373	H	0.933390	-0.458800	-0.707351
H374	H	1.266723	-0.125467	-0.374018
H375	H	1.600056	0.207866	-0.040685
H376	H	0.548254	-0.404542	-0.374685
H377	H	0.881587	-0.071209	-0.041352
H378	H	1.214920	0.262124	0.291982
N379	N	0.675615	-0.416034	-0.385202
N380	N	1.008948	-0.082700	-0.051869
N381	N	1.342281	0.250633	0.281464
H382	H	0.644962	-0.443490	-0.410549
H383	H	0.978296	-0.110157	-0.077215
H384	H	1.311629	0.223177	0.256118
H385	H	0.702819	-0.388536	-0.414237
H386	H	1.036152	-0.055203	-0.080904
H387	H	1.369486	0.278131	0.252429
H388	H	0.263324	-0.404485	-0.374787
H389	H	0.596658	-0.071151	-0.041454
H390	H	0.929991	0.262182	0.291880
N391	N	0.337900	-0.337134	-0.419519
N392	N	0.671233	-0.003801	-0.086185
N393	N	1.004567	0.329532	0.247148
H394	H	0.291474	-0.336298	-0.410973
H395	H	0.624807	-0.002964	-0.077640
H396	H	0.958141	0.330369	0.255694
H397	H	0.349405	-0.298041	-0.447592
H398	H	0.682739	0.035293	-0.114259
H399	H	1.016072	0.368626	0.219074
