data_functionalizedCrystal
_audit_creation_method	'MofGen! by Chris Wilmer'
_symmetry_space_group_name_H-M	'P1'
_symmetry_Int_Tables_number	1
_symmetry_cell_setting	triclinic
loop_
_symmetry_equiv_pos_as_xyz
  x,y,z
_cell_length_a	23.532407
_cell_length_b	23.532407
_cell_length_c	9.616153
_cell_angle_alpha	89.993077
_cell_angle_beta	89.998491
_cell_angle_gamma	82.848678
loop_
_atom_site_label
_atom_site_type_symbol
_atom_site_fract_x
_atom_site_fract_y
_atom_site_fract_z
O1	O	0.755262	0.069132	-0.115486
O2	O	1.255262	0.569132	0.384514
O3	O	0.589398	0.079136	-0.115529
O4	O	1.089398	0.579136	0.384471
O5	O	0.677332	-0.008798	-0.115481
O6	O	1.177332	0.491202	0.384519
O7	O	0.667328	0.157066	-0.115534
O8	O	1.167328	0.657066	0.384466
O9	O	0.677320	-0.008796	0.115811
O10	O	1.177320	0.491204	0.615811
O11	O	0.589386	0.079138	0.115763
O12	O	1.089386	0.579138	0.615763
O13	O	0.755250	0.069134	0.115805
O14	O	1.255250	0.569134	0.615805
Zn15	Zn	0.672316	0.074136	0.152506
Zn16	Zn	1.172316	0.574136	0.652506
Zn17	Zn	0.672332	0.074134	-0.152230
Zn18	Zn	1.172332	0.574134	0.347770
O19	O	0.667316	0.157068	0.115757
O20	O	1.167316	0.657068	0.615757
C21	C	0.568176	0.078882	0.000112
C22	C	1.068176	0.578882	0.500112
C23	C	0.504959	0.078116	0.000096
C24	C	1.004959	0.578116	0.500096
C25	C	0.105856	0.125350	0.000144
C26	C	0.605856	0.625350	0.500144
C27	C	0.046456	0.124638	0.000153
C28	C	0.546456	0.624638	0.500153
O29	O	0.009711	0.168424	0.000189
O30	O	0.509711	0.668424	0.500189
N31	N	0.023830	0.072362	0.000168
N32	N	0.523830	0.572362	0.500168
C33	C	0.060607	0.020794	0.000187
C34	C	0.560607	0.520794	0.500187
O35	O	0.035908	-0.023737	0.000202
O36	O	0.535908	0.476263	0.500202
C37	C	0.120006	0.021506	0.000189
C38	C	0.620006	0.521506	0.500189
C39	C	0.142629	0.073785	0.000160
C40	C	0.642629	0.573785	0.500160
C41	C	0.128479	0.177625	0.000117
C42	C	0.628479	0.677625	0.500117
C43	C	0.187876	0.178336	0.000106
C44	C	0.687876	0.678336	0.500106
C45	C	0.224649	0.126772	0.000122
C46	C	0.724649	0.626772	0.500122
C47	C	0.202025	0.074497	0.000149
C48	C	0.702025	0.574497	0.500149
C49	C	0.156783	-0.030062	0.000219
C50	C	0.656783	0.469938	0.500219
C51	C	0.216185	-0.029345	0.000221
C52	C	0.716185	0.470655	0.500221
C53	C	0.238808	0.022934	0.000192
C54	C	0.738808	0.522934	0.500192
C55	C	0.298194	0.023643	0.000153
C56	C	0.798194	0.523643	0.500153
N57	N	0.320820	0.075920	0.000139
N58	N	0.820820	0.575920	0.500139
C59	C	0.284048	0.127484	0.000123
C60	C	0.784048	0.627484	0.500123
C61	C	-0.064135	0.019302	0.000187
C62	C	0.435865	0.519302	0.500187
C63	C	-0.123533	0.018589	0.000176
C64	C	0.376467	0.518589	0.500176
C65	C	-0.137680	0.122434	0.000144
C66	C	0.362320	0.622434	0.500144
C67	C	-0.078281	0.123146	0.000146
C68	C	0.421719	0.623146	0.500146
C69	C	-0.041509	0.071578	0.000173
C70	C	0.458491	0.571578	0.500173
C71	C	0.408784	0.128974	0.000098
C72	C	0.908784	0.628974	0.500098
C73	C	0.468186	0.129680	0.000081
C74	C	0.968186	0.629680	0.500081
C75	C	0.482329	0.025836	0.000120
C76	C	0.982329	0.525836	0.500120
C77	C	0.422932	0.025129	0.000130
C78	C	0.922932	0.525129	0.500130
C79	C	0.386160	0.076702	0.000123
C80	C	0.886160	0.576702	0.500123
O81	O	0.334974	-0.020119	0.000122
O82	O	0.834974	0.479881	0.500122
O83	O	0.308755	0.172007	0.000127
O84	O	0.808755	0.672007	0.500127
C85	C	0.677071	-0.030013	0.000169
C86	C	1.177071	0.469987	0.500169
C87	C	0.676305	-0.093230	0.000179
C88	C	1.176305	0.406770	0.500179
C89	C	0.723539	-0.492333	0.000115
C90	C	1.223539	0.007667	0.500115
C91	C	0.722827	-0.551733	0.000104
C92	C	1.222827	-0.051733	0.500104
O93	O	0.766613	-0.588478	0.000064
O94	O	1.266613	-0.088478	0.500064
N95	N	0.670551	-0.574359	0.000092
N96	N	1.170551	-0.074359	0.500092
C97	C	0.618983	-0.537582	0.000076
C98	C	1.118983	-0.037582	0.500076
O99	O	0.574452	-0.562281	0.000063
O100	O	1.074452	-0.062281	0.500063
C101	C	0.619695	-0.478182	0.000077
C102	C	1.119695	0.021818	0.500077
C103	C	0.671974	-0.455560	0.000103
C104	C	1.171974	0.044440	0.500103
C105	C	0.775814	-0.469710	0.000140
C106	C	1.275814	0.030290	0.500140
C107	C	0.776525	-0.410313	0.000153
C108	C	1.276525	0.089687	0.500153
C109	C	0.724961	-0.373540	0.000142
C110	C	1.224961	0.126460	0.500142
C111	C	0.672685	-0.396164	0.000117
C112	C	1.172685	0.103836	0.500117
C113	C	0.568127	-0.441406	0.000051
C114	C	1.068127	0.058594	0.500051
C115	C	0.568844	-0.382004	0.000051
C116	C	1.068844	0.117996	0.500051
C117	C	0.621123	-0.359381	0.000077
C118	C	1.121123	0.140619	0.500077
C119	C	0.621832	-0.299995	0.000118
C120	C	1.121832	0.200005	0.500118
N121	N	0.674109	-0.277368	0.000131
N122	N	1.174109	0.222632	0.500131
C123	C	0.725673	-0.314141	0.000142
C124	C	1.225673	0.185859	0.500142
C125	C	0.617491	-0.662324	0.000072
C126	C	1.117491	-0.162324	0.500072
C127	C	0.616778	-0.721722	0.000081
C128	C	1.116778	-0.221722	0.500081
C129	C	0.720623	-0.735869	0.000107
C130	C	1.220623	-0.235869	0.500107
C131	C	0.721335	-0.676470	0.000107
C132	C	1.221335	-0.176470	0.500107
C133	C	0.669767	-0.639698	0.000084
C134	C	1.169767	-0.139698	0.500084
C135	C	0.727163	-0.189405	0.000172
C136	C	1.227163	0.310595	0.500172
C137	C	0.727869	-0.130003	0.000191
C138	C	1.227869	0.369997	0.500191
C139	C	0.624025	-0.115860	0.000158
C140	C	1.124025	0.384140	0.500158
C141	C	0.623318	-0.175257	0.000146
C142	C	1.123318	0.324743	0.500146
C143	C	0.674891	-0.212029	0.000148
C144	C	1.174891	0.287971	0.500148
O145	O	0.578070	-0.263215	0.000153
O146	O	1.078070	0.236785	0.500153
O147	O	0.770196	-0.289433	0.000137
O148	O	1.270196	0.210567	0.500137
C149	C	0.776472	0.069388	0.000162
C150	C	1.276472	0.569388	0.500162
C151	C	0.839689	0.070154	0.000168
C152	C	1.339689	0.570154	0.500168
C153	C	0.667577	0.178283	0.000105
C154	C	1.167577	0.678283	0.500105
C155	C	0.668343	0.241500	0.000085
C156	C	1.168343	0.741500	0.500085
N157	N	0.672310	0.074138	0.360481
N158	N	1.172310	0.574138	0.860481
N159	N	0.672343	0.074128	-0.360204
N160	N	1.172343	0.574128	0.139796
C161	C	0.625132	0.121023	0.580825
C162	C	1.125132	0.621023	1.080825
C163	C	0.625232	0.121194	0.419658
C164	C	1.125232	0.621194	0.919658
C165	C	0.731662	0.086782	0.418941
C166	C	1.231662	0.586782	0.918941
C167	C	0.731404	0.087113	0.580159
C168	C	1.231404	0.587113	1.080159
C169	C	0.660730	0.014449	0.580408
C170	C	1.160730	0.514449	1.080408
C171	C	0.659357	0.014857	0.419181
C172	C	1.159357	0.514857	0.919181
H173	H	-0.034198	-0.022693	0.000197
H174	H	0.465802	0.477307	0.500197
N175	N	0.569873	0.111822	0.370041
N176	N	1.069873	0.611822	0.870041
N177	N	0.560475	0.110351	0.242237
N178	N	1.060475	0.610351	0.742237
H179	H	0.521375	0.103735	0.207198
H180	H	1.021375	0.603735	0.707198
H181	H	0.762610	-0.765821	0.000111
H182	H	1.262610	-0.265821	0.500111
H183	H	0.819097	-0.391900	0.000169
H184	H	1.319097	0.108100	0.500169
N185	N	0.571357	-0.078290	0.000104
N186	N	1.071357	0.421710	0.500104
N187	N	0.536526	-0.080177	-0.097422
N188	N	1.036526	0.419823	0.402578
H189	H	0.499329	-0.053641	-0.097475
H190	H	0.999329	0.446359	0.402525
N191	N	-0.055176	0.176548	0.000159
N192	N	0.444824	0.676548	0.500159
N193	N	-0.023617	0.188534	0.097661
N194	N	0.476383	0.688534	0.597661
H195	H	-0.007301	0.226252	0.097677
H196	H	0.492699	0.726252	0.597677
N197	N	0.828485	-0.507276	0.000148
N198	N	1.328485	-0.007276	0.500148
N199	N	0.839688	-0.541998	-0.097335
N200	N	1.339688	-0.041998	0.402665
H201	H	0.876889	-0.568528	-0.097320
H202	H	1.376889	-0.068528	0.402680
N203	N	-0.175248	0.175109	0.000175
N204	N	0.324752	0.675109	0.500175
N205	N	-0.173351	0.209948	0.097671
N206	N	0.326649	0.709948	0.597671
H207	H	-0.199883	0.247148	0.097697
H208	H	0.300117	0.747148	0.597697
H209	H	0.580863	0.113666	0.619628
H210	H	1.080863	0.613666	1.119628
N211	N	0.133694	-0.083470	0.000241
N212	N	0.633694	0.416530	0.500241
N213	N	0.166544	-0.129501	0.000264
N214	N	0.666544	0.370499	0.500264
H215	H	0.150240	-0.167224	0.000281
H216	H	0.650240	0.332776	0.500281
H217	H	0.763906	-0.658056	0.000128
H218	H	1.263906	-0.158056	0.500128
N219	N	0.519899	-0.026832	0.000175
N220	N	1.019899	0.473168	0.500175
N221	N	0.518006	-0.061668	0.097701
N222	N	1.018006	0.438332	0.597701
H223	H	0.544542	-0.098866	0.097753
H224	H	1.044542	0.401134	0.597753
N225	N	-0.146628	-0.034818	0.000174
N226	N	0.353372	0.465182	0.500174
N227	N	-0.113782	-0.080851	0.000181
N228	N	0.386218	0.419149	0.500181
H229	H	-0.130090	-0.118572	0.000185
H230	H	0.369910	0.381428	0.500185
H231	H	0.246123	-0.071339	0.000244
H232	H	0.746123	0.428661	0.500244
H233	H	0.404512	-0.017441	0.000133
H234	H	0.904512	0.482559	0.500133
H235	H	0.691532	-0.021648	0.378905
H236	H	1.191532	0.478352	0.878905
H237	H	0.741689	0.130626	0.617736
H238	H	1.241689	0.630626	1.117736
H239	H	0.574207	-0.740136	0.000083
H240	H	1.074207	-0.240136	0.500083
H241	H	0.767614	0.054285	0.619166
H242	H	1.267614	0.554285	1.119166
N243	N	0.781274	-0.106895	0.000243
N244	N	1.281274	0.393105	0.500243
N245	N	0.815953	-0.118276	0.097751
N246	N	1.315953	0.381724	0.597751
H247	H	0.853669	-0.101958	0.097789
H248	H	1.353669	0.398042	0.597789
N249	N	0.564807	-0.624772	0.000053
N250	N	1.064807	-0.124772	0.500053
N251	N	0.518139	-0.644987	0.000039
N252	N	1.018139	-0.144987	0.500039
H253	H	0.480930	-0.618469	0.000023
H254	H	0.980930	-0.118469	0.500023
N255	N	0.634263	0.176274	0.631625
N256	N	1.134263	0.676274	1.131625
N257	N	0.675390	0.181264	0.711070
N258	N	1.175390	0.681264	1.211070
H259	H	0.681841	0.220285	0.746950
H260	H	1.181841	0.720285	1.246950
N261	N	0.634455	0.176773	0.371255
N262	N	1.134455	0.676773	0.871255
N263	N	0.640844	0.215554	0.456541
N264	N	1.140844	0.715554	0.956541
H265	H	0.647349	0.254812	0.422359
H266	H	1.147349	0.754812	0.922359
N267	N	0.491293	0.183086	0.000088
N268	N	0.991293	0.683086	0.500088
N269	N	0.522858	0.195069	0.097581
N270	N	1.022858	0.695069	0.597581
H271	H	0.539175	0.232786	0.097592
H272	H	1.039175	0.732786	0.597592
N273	N	0.371237	0.181659	0.000099
N274	N	0.871237	0.681659	0.500099
N275	N	0.391454	0.228326	0.000076
N276	N	0.891454	0.728326	0.500076
H277	H	0.364937	0.265536	0.000070
H278	H	0.864937	0.765536	0.500070
N279	N	0.779848	-0.226952	0.000170
N280	N	1.279848	0.273048	0.500170
N281	N	0.826515	-0.206735	0.000193
N282	N	1.326515	0.293265	0.500193
H283	H	0.863725	-0.233252	0.000199
H284	H	1.363725	0.266748	0.500199
N285	N	0.514719	-0.464495	0.000020
N286	N	1.014719	0.035505	0.500020
N287	N	0.468688	-0.431645	-0.000005
N288	N	0.968688	0.068355	0.499995
H289	H	0.430965	-0.447949	-0.000031
H290	H	0.930965	0.052051	0.499969
H291	H	0.580748	-0.193677	0.000163
H292	H	1.080748	0.306323	0.500163
H293	H	0.526850	-0.352066	0.000030
H294	H	1.026850	0.147934	0.500030
N295	N	0.703927	-0.029321	0.628257
N296	N	1.203927	0.470679	1.128257
N297	N	0.743116	-0.016696	0.705757
N298	N	1.243116	0.483304	1.205757
H299	H	0.773625	-0.047604	0.739559
H300	H	1.273625	0.452396	1.239559
H301	H	0.767615	0.053521	0.380607
H302	H	1.267615	0.553521	0.880607
N303	N	0.744876	0.140744	0.368247
N304	N	1.244876	0.640744	0.868247
N305	N	0.710680	0.169979	0.289082
N306	N	1.210680	0.669979	0.789082
H307	H	0.720009	0.208092	0.253280
H308	H	1.220009	0.708092	0.753280
N309	N	0.607624	-0.000890	0.631433
N310	N	1.107624	0.499110	1.131433
N311	N	0.561921	0.030543	0.606677
N312	N	1.061921	0.530543	1.106677
H313	H	0.524410	0.019716	0.642706
H314	H	1.024410	0.519716	1.142706
N315	N	0.210970	0.231744	0.000075
N316	N	0.710970	0.731744	0.500075
N317	N	0.178121	0.277775	0.000062
N318	N	0.678121	0.777775	0.500062
H319	H	0.194427	0.315498	0.000042
H320	H	0.694427	0.815498	0.500042
N321	N	0.090930	0.230307	0.000110
N322	N	0.590930	0.730307	0.500110
N323	N	0.111149	0.276973	0.000091
N324	N	0.611149	0.776973	0.500091
H325	H	0.084634	0.314183	0.000078
H326	H	0.584634	0.814183	0.500078
N327	N	0.604586	0.002815	0.371250
N328	N	1.104586	0.502815	0.871250
N329	N	0.575170	0.037733	0.294141
N330	N	1.075170	0.537733	0.794141
H331	H	0.536488	0.029231	0.260281
H332	H	1.036488	0.529231	0.760281
