data_functionalizedCrystal
_audit_creation_method	'MofGen! by Chris Wilmer'
_symmetry_space_group_name_H-M	'P1'
_symmetry_Int_Tables_number	1
_symmetry_cell_setting	triclinic
loop_
_symmetry_equiv_pos_as_xyz
  x,y,z
_cell_length_a	12.594516
_cell_length_b	12.594517
_cell_length_c	10.686551
_cell_angle_alpha	94.387884
_cell_angle_beta	94.403300
_cell_angle_gamma	90.011939
loop_
_atom_site_label
_atom_site_type_symbol
_atom_site_fract_x
_atom_site_fract_y
_atom_site_fract_z
Zn1	Zn	-0.377630	1.673456	0.713206
Zn2	Zn	-0.569307	1.659682	0.502215
Zn3	Zn	-0.391328	1.481798	0.502253
Zn4	Zn	-0.555555	1.495441	0.713192
O5	O	-0.473455	1.577594	0.607716
O6	O	-0.403079	1.820574	0.685207
O7	O	-0.557185	1.624612	0.325641
O8	O	-0.240564	1.507276	0.530258
O9	O	-0.543903	1.810455	0.530194
O10	O	-0.230500	1.648086	0.685244
O11	O	-0.426425	1.493921	0.325669
O12	O	-0.413090	1.334663	0.530244
O13	O	-0.520466	1.530529	0.889773
O14	O	-0.533747	1.344686	0.685220
O15	O	-0.389745	1.661316	0.889783
O16	O	-0.716430	1.637841	0.530180
O17	O	-0.706327	1.517173	0.685184
C18	C	-0.473414	1.301055	0.607736
C19	C	-0.473420	1.182752	0.607774
C20	C	-0.539195	1.118971	0.691902
C21	C	-0.440139	1.050172	0.722933
C22	C	-0.572558	1.040750	0.576715
C23	C	-0.374308	1.115515	0.638865
C24	C	-0.506795	1.106096	0.492593
C25	C	-0.407676	1.037326	0.523580
C26	C	-0.749997	1.577524	0.607704
C27	C	-0.868300	1.577594	0.607741
C28	C	-0.932100	1.511952	0.691988
C29	C	-1.010422	1.478562	0.576852
C30	C	-1.000776	1.611082	0.722897
C31	C	-0.945067	1.544148	0.492543
C32	C	-0.935410	1.676718	0.638667
C33	C	-1.013705	1.643360	0.523451
C34	C	-0.195832	1.577696	0.607756
C35	C	-0.077525	1.577739	0.607774
C36	C	-0.452043	1.598980	0.936843
C37	C	-0.442919	1.608094	1.077097
C38	C	-0.473498	1.855214	0.607698
C39	C	-0.473516	1.973519	0.607690
C40	C	-0.494707	1.556352	0.279870
C41	C	-0.503531	1.547445	0.139617
H42	H	-0.411944	1.025361	0.820303
H43	H	-0.920479	1.515787	0.395144
H44	H	-0.562408	1.488552	1.085845
N45	N	-0.608835	1.163760	0.781230
N46	N	-0.705440	1.139164	0.770690
H47	H	-0.754619	1.170808	0.833775
N48	N	-0.369070	1.681990	1.144569
N49	N	-0.361515	1.689545	1.262229
H50	H	-0.309361	1.741733	1.309884
N51	N	-1.058221	1.713058	0.433994
N52	N	-1.156840	1.724963	0.420080
H53	H	-1.188284	1.774182	0.356899
N54	N	-1.031807	1.646532	0.845042
N55	N	-1.086075	1.586999	0.903870
H56	H	-1.107990	1.612027	0.990137
H57	H	-0.290477	1.148165	0.665209
N58	N	-0.337880	0.992790	0.434283
N59	N	-0.373708	0.930239	0.344505
H60	H	-0.324413	0.898781	0.281443
N61	N	-0.894136	1.781777	0.671526
N62	N	-0.909919	1.828146	0.776044
H63	H	-0.880768	1.902346	0.799264
H64	H	-0.535017	1.130932	0.395251
H65	H	-0.656356	1.007972	0.550484
H66	H	-0.896453	1.456327	0.763130
N67	N	-1.051662	1.373475	0.544052
N68	N	-1.024702	1.299350	0.610921
H69	H	-1.053823	1.225130	0.587764
