data_functionalizedCrystal
_audit_creation_method	'MofGen! by Chris Wilmer'
_symmetry_space_group_name_H-M	'P1'
_symmetry_Int_Tables_number	1
_symmetry_cell_setting	triclinic
loop_
_symmetry_equiv_pos_as_xyz
  x,y,z
_cell_length_a	18.050591
_cell_length_b	18.050589
_cell_length_c	18.050582
_cell_angle_alpha	90.018205
_cell_angle_beta	90.020922
_cell_angle_gamma	90.024227
loop_
_atom_site_label
_atom_site_type_symbol
_atom_site_fract_x
_atom_site_fract_y
_atom_site_fract_z
Zn1	Zn	1.135293	-0.295786	0.420054
Zn2	Zn	1.635293	0.204214	0.920054
Zn3	Zn	1.135203	-0.419969	0.295873
Zn4	Zn	1.635203	0.080031	0.795873
Zn5	Zn	1.011112	-0.295789	0.295865
Zn6	Zn	1.511112	0.204211	0.795865
Zn7	Zn	1.011060	-0.419930	0.420009
Zn8	Zn	1.511060	0.080070	0.920009
O9	O	1.073167	-0.357868	0.357950
O10	O	1.573167	0.142132	0.857950
O11	O	1.239205	-0.312274	0.403603
O12	O	1.739205	0.187726	0.903603
O13	O	1.118727	-0.403514	0.191948
O14	O	1.618727	0.096486	0.691948
O15	O	1.027644	-0.191864	0.312354
O16	O	1.527644	0.308136	0.812354
O17	O	1.239140	-0.403511	0.312369
O18	O	1.739140	0.096489	0.812369
O19	O	1.118879	-0.191862	0.403595
O20	O	1.618879	0.308138	0.903595
O21	O	1.027557	-0.312279	0.191942
O22	O	1.527557	0.187721	0.691942
O23	O	0.907180	-0.312241	0.312311
O24	O	1.407180	0.187759	0.812311
O25	O	1.027555	-0.403444	0.523940
O26	O	1.527555	0.096556	1.023940
O27	O	0.907142	-0.403447	0.403519
O28	O	1.407142	0.096553	0.903519
O29	O	1.118828	-0.312236	0.523973
O30	O	1.618828	0.187764	1.023973
O31	O	1.118676	-0.523888	0.312325
O32	O	1.618676	-0.023888	0.812325
O33	O	1.027468	-0.523860	0.403527
O34	O	1.527468	-0.023860	0.903527
C35	C	0.880215	-0.357841	0.357909
C36	C	1.380215	0.142159	0.857909
C37	C	0.797669	-0.357847	0.357909
C38	C	1.297669	0.142153	0.857909
C39	C	0.598217	-0.308191	0.308425
C40	C	1.098217	0.191809	0.808425
C41	C	0.548798	-0.375927	0.290154
C42	C	1.048798	0.124073	0.790154
C43	C	0.646539	-0.357869	0.357943
C44	C	1.146539	0.142131	0.857943
C45	C	0.548877	-0.290157	0.376212
C46	C	1.048877	0.209843	0.876212
C47	C	0.500553	-0.357885	0.357974
C48	C	1.000553	0.142115	0.857974
C49	C	0.598206	-0.425641	0.339637
C50	C	1.098206	0.074359	0.839637
C51	C	0.598289	-0.339825	0.425726
C52	C	1.098289	0.160175	0.925726
C53	C	0.548892	-0.407607	0.407481
C54	C	1.048892	0.092393	0.907481
C55	C	0.730637	-0.357859	0.357923
C56	C	1.230637	0.142141	0.857923
C57	C	0.416457	-0.357903	0.357994
C58	C	0.916457	0.142097	0.857994
C59	C	1.073077	-0.550820	0.357938
C60	C	1.573077	-0.050820	0.857938
C61	C	1.073107	-0.633366	0.357958
C62	C	1.573107	-0.133366	0.857958
C63	C	1.023557	-0.832828	0.407536
C64	C	1.523557	-0.332828	0.907536
C65	C	1.005459	-0.882261	0.339767
C66	C	1.505459	-0.382261	0.839767
C67	C	1.073180	-0.784497	0.357967
C68	C	1.573180	-0.284497	0.857967
C69	C	1.091314	-0.882146	0.425744
C70	C	1.591314	-0.382146	0.925744
C71	C	1.073249	-0.930482	0.357983
C72	C	1.573249	-0.430482	0.857983
C73	C	1.055046	-0.832842	0.290162
C74	C	1.555046	-0.332842	0.790162
C75	C	1.140933	-0.832722	0.376186
C76	C	1.640933	-0.332722	0.876186
C77	C	1.122861	-0.882133	0.308370
C78	C	1.622861	-0.382133	0.808370
C79	C	1.073138	-0.700398	0.357959
C80	C	1.573138	-0.200398	0.857959
C81	C	1.073291	-1.014578	0.357983
C82	C	1.573291	-0.514578	0.857983
C83	C	1.266872	-0.357897	0.357992
C84	C	1.766872	0.142103	0.857992
C85	C	1.349418	-0.357909	0.358010
C86	C	1.849418	0.142091	0.858010
C87	C	1.073196	-0.357835	0.551656
C88	C	1.573196	0.142165	1.051656
C89	C	1.073208	-0.357821	0.634202
C90	C	1.573208	0.142179	1.134202
C91	C	1.073277	-0.164163	0.357979
C92	C	1.573277	0.335837	0.857979
C93	C	1.073324	-0.081617	0.357991
C94	C	1.573324	0.418383	0.857991
C95	C	1.073181	-0.357848	0.164998
C96	C	1.573181	0.142152	0.664998
C97	C	1.073312	-0.357652	0.082453
C98	C	1.573312	0.142348	0.582453
C99	C	1.023612	-0.407353	0.833635
C100	C	1.523612	0.092647	1.333635
C101	C	1.091367	-0.425511	0.883034
C102	C	1.591367	0.074489	1.383034
C103	C	1.073245	-0.357765	0.785332
C104	C	1.573245	0.142235	1.285332
C105	C	1.005527	-0.339586	0.883014
C106	C	1.505527	0.160414	1.383014
C107	C	1.073274	-0.357711	0.931317
C108	C	1.573274	0.142289	1.431317
C109	C	1.141036	-0.375958	0.833645
C110	C	1.641036	0.124042	1.333645
C111	C	1.055150	-0.290002	0.833620
C112	C	1.555150	0.209998	1.333620
C113	C	1.122952	-0.308134	0.882998
C114	C	1.622952	0.191866	1.382998
C115	C	1.073227	-0.357797	0.701234
C116	C	1.573227	0.142203	1.201234
C117	C	1.073300	-0.357679	1.015414
C118	C	1.573300	0.142321	1.515414
H119	H	0.527169	-0.232894	0.391625
H120	H	1.027169	0.267106	0.891625
C121	C	1.176650	-0.497854	0.955034
C122	C	1.676650	0.002146	1.455034
C123	C	1.112051	-0.502835	0.912349
C124	C	1.612051	-0.002835	1.412349
H125	H	1.189416	-0.545592	0.973127
H126	H	1.689416	-0.045592	1.473127
H127	H	1.168439	-0.465335	0.995585
H128	H	1.668439	0.034665	1.495585
H129	H	1.215911	-0.479266	0.925334
H130	H	1.715911	0.020734	1.425334
H131	H	1.072789	-0.521418	0.942051
H132	H	1.572789	-0.021418	1.442051
H133	H	1.120258	-0.535366	0.871792
H134	H	1.620258	-0.035366	1.371792
C135	C	0.441845	-0.396889	0.213850
C136	C	0.941845	0.103111	0.713850
C137	C	0.519410	-0.396486	0.212788
C138	C	1.019410	0.103514	0.712788
H139	H	0.423696	-0.409564	0.166087
H140	H	0.923696	0.090436	0.666087
H141	H	0.424268	-0.349131	0.227210
H142	H	0.924268	0.150869	0.727210
H143	H	0.424970	-0.432258	0.248966
H144	H	0.924970	0.067742	0.748966
H145	H	0.536285	-0.361114	0.177676
H146	H	1.036285	0.138886	0.677676
H147	H	0.536994	-0.444252	0.199419
H148	H	1.036994	0.055748	0.699419
H149	H	1.039807	-0.232736	0.811899
H150	H	1.539807	0.267264	1.311899
H151	H	0.948246	-0.324232	0.904701
H152	H	1.448246	0.175768	1.404701
H153	H	0.620045	-0.324530	0.483019
H154	H	1.120045	0.175470	0.983019
C155	C	0.602474	-0.270628	0.180905
C156	C	1.102474	0.229372	0.680905
C157	C	0.627462	-0.251539	0.251837
C158	C	1.127462	0.248461	0.751837
H159	H	0.620533	-0.235657	0.145971
H160	H	1.120533	0.264343	0.645971
H161	H	0.549858	-0.270556	0.180220
H162	H	1.049858	0.229444	0.680220
H163	H	0.620096	-0.318613	0.168417
H164	H	1.120096	0.181387	0.668417
H165	H	0.609836	-0.203556	0.264329
H166	H	1.109836	0.296444	0.764329
H167	H	0.680089	-0.251603	0.252525
H168	H	1.180089	0.248397	0.752525
C169	C	0.442262	-0.463514	0.464020
C170	C	0.942262	0.036486	0.964020
C171	C	0.519830	-0.464387	0.464033
C172	C	1.019830	0.035613	0.964033
H173	H	0.424322	-0.498565	0.498935
H174	H	0.924322	0.001435	0.998935
H175	H	0.424572	-0.475934	0.416033
H176	H	0.924572	0.024066	0.916033
H177	H	0.425289	-0.415451	0.477097
H178	H	0.925289	0.084549	0.977097
H179	H	0.536803	-0.512449	0.450951
H180	H	1.036803	-0.012449	0.950951
H181	H	0.537528	-0.451971	0.512031
H182	H	1.037528	0.048029	1.012031
H183	H	0.948195	-0.904037	0.324371
H184	H	1.448195	-0.404037	0.824371
C185	C	0.704899	-0.502257	0.318841
C186	C	1.204899	-0.002257	0.818841
C187	C	0.627329	-0.502976	0.318699
C188	C	1.127329	-0.002976	0.818699
H189	H	0.722878	-0.549999	0.305910
H190	H	1.222878	-0.049999	0.805910
H191	H	0.722251	-0.489358	0.366826
H192	H	1.222251	0.010642	0.866826
H193	H	0.722175	-0.466935	0.283873
H194	H	1.222175	0.033065	0.783873
H195	H	0.610053	-0.538294	0.353672
H196	H	1.110053	-0.038294	0.853672
H197	H	0.609970	-0.515884	0.270707
H198	H	1.109970	-0.015884	0.770707
H199	H	1.164855	-0.903645	0.266409
H200	H	1.664855	-0.403645	0.766409
C201	C	0.895947	-0.828604	0.444788
C202	C	1.395947	-0.328604	0.944788
C203	C	0.966828	-0.803592	0.464043
C204	C	1.466828	-0.303592	0.964043
H205	H	0.860925	-0.810550	0.479669
H206	H	1.360925	-0.310550	0.979669
H207	H	0.895273	-0.881220	0.444872
H208	H	1.395273	-0.381220	0.944872
H209	H	0.883569	-0.810993	0.396768
H210	H	1.383569	-0.310993	0.896768
H211	H	0.979208	-0.821208	0.512061
H212	H	1.479208	-0.321208	1.012061
H213	H	0.967504	-0.750966	0.463967
H214	H	1.467504	-0.250966	0.963967
H215	H	1.164986	-0.266177	0.904535
H216	H	1.664986	0.233823	1.404535
H217	H	1.039669	-0.811275	0.232834
H218	H	1.539669	-0.311275	0.732834
H219	H	1.198184	-0.810948	0.391613
H220	H	1.698184	-0.310948	0.891613
C221	C	1.059910	-0.886487	0.554913
C222	C	1.559910	-0.386487	1.054913
C223	C	1.111989	-0.911380	0.503112
C224	C	1.611989	-0.411380	1.003112
H225	H	1.072674	-0.904530	0.602677
H226	H	1.572674	-0.404530	1.102677
H227	H	1.012151	-0.904181	0.541637
H228	H	1.512151	-0.404181	1.041637
H229	H	1.059594	-0.833865	0.555562
H230	H	1.559594	-0.333865	1.055562
H231	H	1.112301	-0.964002	0.502458
H232	H	1.612301	-0.464002	1.002458
H233	H	1.159760	-0.893690	0.516391
H234	H	1.659760	-0.393690	1.016391
H235	H	0.981678	-0.449342	0.811961
H236	H	1.481678	0.050658	1.311961
C237	C	1.213274	-0.461045	0.761326
C238	C	1.713274	0.038955	1.261326
C239	C	1.218385	-0.396783	0.804502
C240	C	1.718385	0.103217	1.304502
H241	H	1.261026	-0.473904	0.743338
H242	H	1.761026	0.026096	1.243338
H243	H	1.180962	-0.452382	0.720703
H244	H	1.680962	0.047618	1.220703
H245	H	1.194378	-0.500433	0.790663
H246	H	1.694378	-0.000433	1.290663
H247	H	1.237276	-0.357394	0.775164
H248	H	1.737276	0.142606	1.275164
H249	H	1.250709	-0.405442	0.845131
H250	H	1.750709	0.094558	1.345131
