data_functionalizedCrystal
_audit_creation_method	'MofGen! by Chris Wilmer'
_symmetry_space_group_name_H-M	'P1'
_symmetry_Int_Tables_number	1
_symmetry_cell_setting	triclinic
loop_
_symmetry_equiv_pos_as_xyz
  x,y,z
_cell_length_a	16.992694
_cell_length_b	15.944551
_cell_length_c	16.053802
_cell_angle_alpha	92.564789
_cell_angle_beta	87.249047
_cell_angle_gamma	87.083481
loop_
_atom_site_label
_atom_site_type_symbol
_atom_site_fract_x
_atom_site_fract_y
_atom_site_fract_z
O1	O	1.043704	0.174798	-0.069327
O2	O	0.815419	0.172843	-0.069352
O3	O	0.935795	0.051964	-0.069332
O4	O	0.923328	0.295677	-0.069348
O5	O	0.929169	0.058588	0.069526
O6	O	0.808793	0.179467	0.069506
O7	O	1.037078	0.181422	0.069530
Zn8	Zn	0.921884	0.181497	0.091565
Zn9	Zn	0.930613	0.172769	-0.091386
O10	O	0.916702	0.302301	0.069510
C11	C	0.782894	0.173641	0.000074
C12	C	0.695850	0.166141	0.000065
C13	C	0.645613	0.238506	0.000061
C14	C	0.563826	0.231454	0.000073
C15	C	0.532276	0.152037	0.000083
C16	C	0.582519	0.079667	0.000089
C17	C	0.664305	0.086719	0.000083
C18	C	0.288676	0.122807	0.000107
C19	C	0.206884	0.115759	0.000111
C20	C	0.188196	0.267548	0.000095
C21	C	0.269984	0.274593	0.000084
C22	C	0.320220	0.202223	0.000095
N23	N	0.448677	0.144827	0.000092
N24	N	0.403818	0.209434	0.000092
C25	C	0.931964	0.023948	0.000097
C26	C	0.930413	-0.069402	0.000098
C27	C	0.852090	-0.289513	0.000078
C28	C	0.885194	-0.344825	0.068547
C29	C	0.927606	-0.240317	0.000091
C30	C	0.891744	-0.351338	-0.068356
C31	C	0.924889	-0.405412	0.000081
C32	C	0.960728	-0.294396	0.068617
C33	C	0.967271	-0.300907	-0.068348
C34	C	1.000429	-0.356196	0.000138
C35	C	0.929169	-0.145209	0.000098
C36	C	0.923332	-0.500518	0.000080
C37	C	1.069603	0.180624	0.000103
C38	C	1.156648	0.188124	0.000106
C39	C	0.920533	0.330318	0.000079
C40	C	0.922085	0.423667	0.000073
N41	N	0.915931	0.187453	0.216424
N42	N	0.936572	0.166806	-0.216246
C43	C	0.967170	0.136040	0.260127
C44	C	0.963014	0.140215	0.347533
C45	C	0.907622	0.195808	0.391235
C46	C	0.856378	0.247223	0.347526
C47	C	0.860531	0.243043	0.260121
C48	C	0.889481	0.214042	0.652641
C49	C	0.885333	0.218220	0.740052
C50	C	0.991968	0.111209	0.740053
C51	C	0.996120	0.107038	0.652646
C52	C	0.944873	0.158450	0.608945
N53	N	0.903374	0.200078	0.480578
N54	N	0.949118	0.154175	0.519604
H55	H	0.705207	0.027792	0.000086
C56	C	0.965190	-0.223479	-0.193165
C57	C	1.014081	-0.274557	-0.146482
H58	H	0.994087	-0.207207	-0.241403
H59	H	0.921357	-0.253794	-0.209603
H60	H	0.946980	-0.174788	-0.160150
H61	H	1.032286	-0.323252	-0.179495
H62	H	1.057928	-0.244242	-0.130045
C63	C	0.758493	0.249341	0.161844
C64	C	0.804208	0.299560	0.212081
H65	H	0.723716	0.284233	0.132192
H66	H	0.792076	0.215642	0.123313
H67	H	0.728673	0.214100	0.195963
H68	H	0.834033	0.334797	0.177962
H69	H	0.770621	0.333273	0.250617
C70	C	0.730130	0.331091	-0.071343
C71	C	0.680286	0.325806	0.000045
H72	H	0.751528	0.384991	-0.071353
H73	H	0.771754	0.289011	-0.071336
H74	H	0.700907	0.322870	-0.119757
H75	H	0.709511	0.334021	0.048458
H76	H	0.638656	0.367898	0.000045
H77	H	0.850491	-0.364314	0.126426
H78	H	0.295666	0.339262	0.000066
C79	C	0.553569	0.382195	0.000045
C80	C	0.508606	0.311000	0.000064
H81	H	0.519477	0.431304	0.000036
H82	H	0.583554	0.384102	0.048462
H83	H	0.588161	0.379467	-0.048384
H84	H	0.474017	0.313724	0.048497
H85	H	0.478607	0.309093	-0.048357
C86	C	1.100565	-0.447883	-0.071542
C87	C	1.085127	-0.395256	0.000176
H88	H	1.152859	-0.471984	-0.071522
H89	H	1.064321	-0.491308	-0.072016
H90	H	1.094998	-0.416041	-0.119728
H91	H	1.090689	-0.427100	0.048362
H92	H	1.121383	-0.351825	0.000657
H93	H	0.789404	-0.260406	0.000139
C94	C	1.107176	0.090778	0.553854
C95	C	1.056641	0.045685	0.604388
H96	H	1.144435	0.052830	0.524000
H97	H	1.077225	0.121009	0.515501
H98	H	1.134152	0.129068	0.587795
H99	H	1.029661	0.007400	0.570447
H100	H	1.086596	0.015440	0.642746
C101	C	1.068855	0.034046	0.338754
C102	C	1.019350	0.083713	0.395571
H103	H	1.103640	-0.000831	0.368413
H104	H	1.037844	-0.000019	0.304679
H105	H	1.098665	0.069307	0.304648
H106	H	0.989535	0.048451	0.429673
H107	H	1.050364	0.117781	0.429660
H108	H	0.329568	0.063878	0.000117
H109	H	0.147286	0.326467	0.000088
H110	H	0.862556	-0.376319	-0.126245
H111	H	1.012279	0.090773	0.224550
H112	H	0.181201	0.051085	0.000118
C113	C	1.001133	-0.173075	0.146165
C114	C	1.000073	-0.260796	0.146851
H115	H	1.025417	-0.152332	0.194466
H116	H	1.030096	-0.157715	0.097617
H117	H	0.948603	-0.149686	0.145961
H118	H	1.052605	-0.284185	0.147048
H119	H	0.971112	-0.276163	0.195412
H120	H	1.033690	0.069351	0.775642
C121	C	0.609212	-0.069659	0.000105
C122	C	0.547844	-0.007632	0.000100
H123	H	0.587805	-0.123554	0.000115
H124	H	0.643026	-0.066062	-0.048315
H125	H	0.638419	-0.061435	0.048531
H126	H	0.518641	-0.015852	-0.048329
H127	H	0.514017	-0.011232	0.048526
H128	H	0.840224	0.263494	0.775630
C129	C	0.783668	0.320242	0.661432
C130	C	0.833157	0.270561	0.604612
H131	H	0.748899	0.355140	0.631777
H132	H	0.753847	0.284997	0.695532
H133	H	0.814697	0.354294	0.695513
H134	H	0.802127	0.236504	0.570535
H135	H	0.862980	0.305810	0.570498
H136	H	0.811273	0.292485	0.383113
