data_functionalizedCrystal
_audit_creation_method	'MofGen! by Chris Wilmer'
_symmetry_space_group_name_H-M	'P1'
_symmetry_Int_Tables_number	1
_symmetry_cell_setting	triclinic
loop_
_symmetry_equiv_pos_as_xyz
  x,y,z
_cell_length_a	17.699083
_cell_length_b	17.699083
_cell_length_c	16.776229
_cell_angle_alpha	89.995692
_cell_angle_beta	89.994959
_cell_angle_gamma	83.282848
loop_
_atom_site_label
_atom_site_type_symbol
_atom_site_fract_x
_atom_site_fract_y
_atom_site_fract_z
O1	O	-1.004078	-0.095707	0.066276
O2	O	-0.783699	-0.108160	0.066281
O3	O	-0.900115	0.008256	0.066271
O4	O	-0.887662	-0.212122	0.066286
O5	O	-0.900102	0.008256	-0.066305
O6	O	-0.783686	-0.108159	-0.066295
O7	O	-1.004065	-0.095706	-0.066300
Zn8	Zn	-0.893873	-0.101933	-0.087347
Zn9	Zn	-0.893891	-0.101933	0.087328
O10	O	-0.887649	-0.212122	-0.066291
C11	C	-0.755496	-0.107713	-0.000007
C12	C	-0.671478	-0.106375	-0.000005
C13	C	-0.632003	-0.105744	-0.072273
C14	C	-0.553061	-0.104475	-0.072274
C15	C	-0.513594	-0.103841	-0.000006
C16	C	-0.553074	-0.104470	0.072268
C17	C	-0.632016	-0.105734	0.072268
C18	C	-0.234711	-0.099371	0.072270
C19	C	-0.155764	-0.098109	0.072265
C20	C	-0.155757	-0.098111	-0.072272
C21	C	-0.234698	-0.099375	-0.072272
C22	C	-0.274172	-0.100000	0.000001
C23	C	-0.359771	-0.101375	0.000001
C24	C	-0.427996	-0.102472	-0.000005
C25	C	-0.899662	0.036453	-0.000017
C26	C	-0.898323	0.120471	-0.000017
C27	C	-0.032269	-0.096148	-0.000010
C28	C	-0.116289	-0.097472	-0.000004
C29	C	-0.888102	-0.240319	-0.000001
C30	C	-0.889441	-0.324337	0.000005
N31	N	-0.893867	-0.101932	-0.206558
C32	C	-0.966657	0.169092	-0.000020
C33	C	-0.965395	0.248036	-0.000013
C34	C	-0.895798	0.278356	-0.000009
C35	C	-0.827459	0.229729	-0.000004
C36	C	-0.828722	0.150787	-0.000005
C37	C	-0.822364	0.548092	0.000003
C38	C	-0.821106	0.627040	0.000002
C39	C	-0.959036	0.645341	-0.000005
C40	C	-0.960299	0.566399	-0.000006
C41	C	-0.891961	0.517778	0.000003
C42	C	-0.893331	0.432179	-0.000003
C43	C	-0.894428	0.363954	-0.000008
C44	C	-0.939682	-0.147781	-0.248270
C45	C	-0.939690	-0.147778	-0.331722
C46	C	-0.893879	-0.101930	-0.373461
C47	C	-0.848062	-0.056076	-0.331744
C48	C	-0.848059	-0.056075	-0.248293
C49	C	-0.848078	-0.056077	-0.668291
C50	C	-0.848083	-0.056083	-0.751748
C51	C	-0.939710	-0.147779	-0.751720
C52	C	-0.939706	-0.147779	-0.668269
C53	C	-0.893892	-0.101922	-0.626559
C54	C	-0.893885	-0.101925	-0.536071
C55	C	-0.893882	-0.101931	-0.463948
N56	N	-0.893903	-0.101928	0.206539
H57	H	-0.123632	-0.097592	0.131118
H58	H	-0.520926	-0.103948	-0.131122
C59	C	-0.277421	-0.100086	0.150819
C60	C	-0.225955	-0.099282	0.214105
C61	C	-0.265273	-0.099950	0.286480
H62	H	-0.314070	-0.056470	0.153934
H63	H	-0.302345	-0.144714	0.153875
H64	H	-0.201043	-0.054660	0.211051
H65	H	-0.189304	-0.142895	0.211017
H66	H	-0.290197	-0.144577	0.289536
H67	H	-0.301921	-0.056333	0.289586
H68	H	-0.230359	-0.099412	0.329428
H69	H	-0.664154	-0.106249	0.131116
H70	H	-1.023330	0.144412	-0.000028
C71	C	-0.113030	-0.097464	-0.150827
C72	C	-0.164489	-0.098312	-0.214114
C73	C	-0.125158	-0.097729	-0.286487
H74	H	-0.088088	-0.052863	-0.153951
H75	H	-0.076391	-0.141107	-0.153871
H76	H	-0.201114	-0.054674	-0.211071
H77	H	-0.189433	-0.142911	-0.211016
H78	H	-0.088519	-0.141372	-0.289532
H79	H	-0.100217	-0.053127	-0.289603
H80	H	-0.160065	-0.098312	-0.329436
C81	C	-0.798246	-0.006429	-0.797108
C82	C	-0.746892	-0.052384	-0.845003
C83	C	-0.700966	-0.006673	-0.886793
H84	H	-0.829245	0.028447	-0.829728
H85	H	-0.770917	0.020868	-0.760341
H86	H	-0.774219	-0.079668	-0.881766
H87	H	-0.715876	-0.087259	-0.812403
H88	H	-0.673637	0.020623	-0.850025
H89	H	-0.731971	0.028201	-0.919408
H90	H	-0.666112	-0.037847	-0.919289
H91	H	-0.766719	0.508514	0.000010
C92	C	-0.798446	-0.006198	-0.202961
C93	C	-0.844432	0.045130	-0.155066
C94	C	-0.798758	0.091099	-0.113303
H95	H	-0.763545	-0.037169	-0.170342
H96	H	-0.771177	0.021152	-0.239744
H97	H	-0.871688	0.017782	-0.118287
H98	H	-0.879332	0.076118	-0.187665
H99	H	-0.771489	0.118449	-0.150087
H100	H	-0.763859	0.060121	-0.080690
H101	H	-0.829953	0.125934	-0.080808
C102	C	-0.751973	0.262793	-0.000040
C103	C	-0.765490	0.342333	-0.000063
C104	C	-0.695969	0.372815	-0.000111
H105	H	-0.723789	0.246176	0.046180
H106	H	-0.723832	0.246139	-0.046290
H107	H	-0.793619	0.358980	0.046182
H108	H	-0.793663	0.358971	-0.046280
H109	H	-0.667828	0.356161	-0.046361
H110	H	-0.667790	0.356193	0.046111
H111	H	-0.705131	0.426786	-0.000134
C112	C	-1.039646	0.300732	0.000104
C113	C	-1.081581	0.287027	0.068296
C114	C	-1.149994	0.335547	0.068426
H115	H	-1.029041	0.352117	0.000150
H116	H	-1.068222	0.291546	-0.046108
H117	H	-1.053011	0.296219	0.114496
H118	H	-1.092207	0.235652	0.068264
H119	H	-1.178570	0.326361	0.022213
H120	H	-1.139381	0.386929	0.068469
H121	H	-1.178458	0.326251	0.114689
C122	C	-0.510085	-0.103818	0.150650
C123	C	-0.432499	-0.102598	0.135184
C124	C	-0.392875	-0.102010	0.207371
H125	H	-0.528787	-0.059916	0.180400
H126	H	-0.517125	-0.148161	0.180354
H127	H	-0.425464	-0.058260	0.105493
H128	H	-0.413775	-0.146497	0.105445
H129	H	-0.399914	-0.146353	0.237075
H130	H	-0.411582	-0.058108	0.237116
H131	H	-0.340228	-0.101190	0.196888
H132	H	-0.977007	-0.185116	-0.634289
C133	C	-0.798346	-0.006378	-0.377199
C134	C	-0.808095	-0.016244	-0.459211
C135	C	-0.762298	0.029518	-0.501106
H136	H	-0.812483	0.045458	-0.363651
H137	H	-0.746523	-0.020491	-0.363544
H138	H	-0.859907	-0.002126	-0.472861
H139	H	-0.793953	-0.068070	-0.472784
H140	H	-0.710475	0.015405	-0.487450
H141	H	-0.776439	0.081350	-0.487551
H142	H	-0.768901	0.022825	-0.556755
H143	H	-0.764429	0.651723	0.000004
C144	C	-1.035939	0.533627	0.000031
C145	C	-1.095515	0.593105	0.000053
C146	C	-1.165206	0.562946	0.000102
H147	H	-1.039404	0.503226	-0.046188
H148	H	-1.039342	0.503231	0.046283
H149	H	-1.092114	0.623488	-0.046194
H150	H	-1.092076	0.623511	0.046269
H151	H	-1.168608	0.532550	0.046353
H152	H	-1.168662	0.532546	-0.046119
H153	H	-1.205636	0.603297	0.000124
H154	H	-0.810774	-0.018738	-0.634341
C155	C	-1.033212	0.698167	0.000160
C156	C	-1.036537	0.744001	0.068381
C157	C	-1.104857	0.792664	0.068562
H158	H	-1.035654	0.729420	-0.046016
H159	H	-1.074862	0.668829	0.000198
H160	H	-0.994898	0.773337	0.068336
H161	H	-1.034107	0.712769	0.114568
H162	H	-1.146508	0.763326	0.068600
H163	H	-1.107294	0.823912	0.022383
H164	H	-1.107126	0.823764	0.114852
C165	C	-0.989484	-0.197642	-0.796863
C166	C	-1.029584	-0.237809	-0.742446
C167	C	-1.075433	-0.283757	-0.784000
H168	H	-1.024441	-0.166665	-0.829416
H169	H	-0.958421	-0.232554	-0.829403
H170	H	-1.060645	-0.202902	-0.709920
H171	H	-0.994647	-0.268801	-0.709892
H172	H	-1.044370	-0.318669	-0.816540
H173	H	-1.110385	-0.252774	-0.816551
H174	H	-1.102641	-0.311021	-0.747085
C175	C	-0.989502	-0.197585	-0.203101
C176	C	-1.029642	-0.237720	-0.257496
C177	C	-1.075554	-0.283599	-0.215919
H178	H	-0.958503	-0.232520	-0.170545
H179	H	-1.024431	-0.166539	-0.170562
H180	H	-0.994718	-0.268763	-0.290022
H181	H	-1.060656	-0.202804	-0.290054
H182	H	-1.110483	-0.252553	-0.183380
H183	H	-1.044549	-0.318529	-0.183364
H184	H	-1.102800	-0.310831	-0.252819
C185	C	-0.989411	-0.197473	-0.377153
C186	C	-0.979632	-0.187643	-0.459169
C187	C	-1.025435	-0.233402	-0.501044
H188	H	-0.975298	-0.249307	-0.363574
H189	H	-1.041236	-0.183336	-0.363511
H190	H	-0.927819	-0.201785	-0.472805
H191	H	-0.993751	-0.135820	-0.472772
H192	H	-1.077260	-0.219264	-0.487402
H193	H	-1.011318	-0.285232	-0.487459
H194	H	-1.018812	-0.226733	-0.556696
C195	C	-0.674719	-0.106390	-0.150822
C196	C	-0.623251	-0.105543	-0.214111
C197	C	-0.662572	-0.106124	-0.286483
H198	H	-0.699663	-0.150989	-0.153940
H199	H	-0.711355	-0.062745	-0.153871
H200	H	-0.586628	-0.149184	-0.211063
H201	H	-0.598305	-0.060947	-0.211019
H202	H	-0.699208	-0.062479	-0.289532
H203	H	-0.687514	-0.150724	-0.289593
H204	H	-0.627658	-0.105542	-0.329433
C205	C	-0.277659	-0.099943	-0.150677
C206	C	-0.331630	-0.035587	-0.154890
C207	C	-0.371226	-0.036085	-0.227102
H208	H	-0.242935	-0.099345	-0.193785
H209	H	-0.302646	-0.144532	-0.153688
H210	H	-0.306644	0.008991	-0.151888
H211	H	-0.366371	-0.036171	-0.111799
H212	H	-0.396213	-0.080674	-0.230113
H213	H	-0.336495	-0.035490	-0.270205
H214	H	-0.407854	0.007575	-0.229967
H215	H	-0.773078	0.111200	-0.000003
