data_functionalizedCrystal
_audit_creation_method	'MofGen! by Chris Wilmer'
_symmetry_space_group_name_H-M	'P1'
_symmetry_Int_Tables_number	1
_symmetry_cell_setting	triclinic
loop_
_symmetry_equiv_pos_as_xyz
  x,y,z
_cell_length_a	14.044190
_cell_length_b	8.559649
_cell_length_c	7.681481
_cell_angle_alpha	85.086760
_cell_angle_beta	83.728840
_cell_angle_gamma	98.514779
loop_
_atom_site_label
_atom_site_type_symbol
_atom_site_fract_x
_atom_site_fract_y
_atom_site_fract_z
O1	O	-0.021858	-2.101907	-0.146396
O2	O	0.478142	-1.601907	0.353604
O3	O	0.026593	-1.643609	-0.146414
O4	O	0.526593	-1.143609	0.353586
O5	O	-0.135118	-1.865876	-0.146371
O6	O	0.364882	-1.365876	0.353629
O7	O	0.139853	-1.879640	-0.146440
O8	O	0.639853	-1.379640	0.353560
O9	O	-0.155063	-1.893228	0.146492
O10	O	0.344937	-1.393228	0.646492
O11	O	0.006649	-1.670961	0.146449
O12	O	0.506649	-1.170961	0.646449
O13	O	-0.041802	-2.129259	0.146467
O14	O	0.458198	-1.629259	0.646467
Zn15	Zn	-0.020743	-1.904452	0.192956
Zn16	Zn	0.479257	-1.404452	0.692956
Zn17	Zn	0.005534	-1.868415	-0.192904
Zn18	Zn	0.505534	-1.368415	0.307096
O19	O	0.119909	-1.906991	0.146423
O20	O	0.619909	-1.406991	0.646423
C21	C	0.020293	-1.598278	0.000015
C22	C	0.520293	-1.098278	0.500015
C23	C	0.031222	-1.422456	0.000010
C24	C	0.531222	-0.922456	0.500010
C25	C	-0.179967	-1.873529	0.000065
C26	C	0.320033	-1.373529	0.500065
C27	C	-0.283886	-1.855562	0.000080
C28	C	0.216114	-1.355562	0.500080
C29	C	-0.035501	-2.174589	0.000033
C30	C	0.464499	-1.674589	0.500033
C31	C	-0.046430	-2.350410	0.000027
C32	C	0.453570	-1.850410	0.500027
C33	C	-0.541053	-1.950141	0.000015
C34	C	-0.041053	-1.450141	0.500015
C35	C	-0.474150	-1.822733	0.000022
C36	C	0.025850	-1.322733	0.500022
C37	C	-0.368277	-1.841003	0.000054
C38	C	0.131723	-1.341003	0.500054
C39	C	-0.646936	-1.931873	-0.000018
C40	C	-0.146936	-1.431873	0.499982
C41	C	0.164758	-1.899339	-0.000017
C42	C	0.664758	-1.399339	0.499983
C43	C	0.268678	-1.917304	-0.000043
C44	C	0.768678	-1.417304	0.499957
N45	N	-0.038678	-1.929058	0.456295
N46	N	0.461322	-1.429058	0.956295
N47	N	0.023461	-1.843821	-0.456243
N48	N	0.523461	-1.343821	0.043757
H49	H	-0.496385	-1.699934	0.000007
H50	H	0.003615	-1.199934	0.500007
H51	H	0.086886	-1.756810	0.468543
H52	H	0.586886	-1.256810	0.968543
Cl53	Cl	-0.136601	-2.063425	0.572424
Cl54	Cl	0.363399	-1.563425	1.072424
Cl55	Cl	-0.161986	-1.462846	0.000046
Cl56	Cl	0.338014	-0.962846	0.500046
H57	H	-0.518819	-2.072931	0.000038
H58	H	-0.018819	-1.572931	0.500038
H59	H	0.106071	-1.349619	-0.000018
H60	H	0.606071	-0.849619	0.499982
