data_functionalizedCrystal
_audit_creation_method	'MofGen! by Chris Wilmer'
_symmetry_space_group_name_H-M	'P1'
_symmetry_Int_Tables_number	1
_symmetry_cell_setting	triclinic
loop_
_symmetry_equiv_pos_as_xyz
  x,y,z
_cell_length_a	8.497374
_cell_length_b	17.077404
_cell_length_c	17.077402
_cell_angle_alpha	89.976892
_cell_angle_beta	89.987778
_cell_angle_gamma	90.003463
loop_
_atom_site_label
_atom_site_type_symbol
_atom_site_fract_x
_atom_site_fract_y
_atom_site_fract_z
Zn1	Zn	0.891988	1.199930	0.312640
Zn2	Zn	0.628173	1.199874	0.443874
Zn3	Zn	0.628207	1.068699	0.312627
Zn4	Zn	0.891897	1.068630	0.443868
O5	O	0.760066	1.134283	0.378252
O6	O	0.857016	1.309770	0.330056
O7	O	0.407415	1.182479	0.426461
O8	O	0.663251	1.086159	0.202782
O9	O	0.663193	1.309729	0.426474
O10	O	0.857049	1.182574	0.202791
O11	O	0.407440	1.086105	0.330034
O12	O	0.663162	0.958843	0.330028
O13	O	1.112671	1.086042	0.426463
O14	O	0.856894	0.958792	0.426450
O15	O	1.112738	1.182508	0.330050
O16	O	0.663104	1.182412	0.553720
O17	O	0.856861	1.085988	0.553716
C18	C	0.760023	0.930336	0.378238
C19	C	0.760042	0.843086	0.378251
C20	C	0.860756	0.802090	0.428533
C21	C	0.860781	0.720109	0.428535
C22	C	0.760083	0.679126	0.378257
C23	C	0.659364	0.720128	0.327969
C24	C	0.659348	0.802107	0.327964
C25	C	0.659402	0.549258	0.327985
C26	C	0.659416	0.467273	0.327991
C27	C	0.860835	0.467260	0.428556
C28	C	0.860819	0.549239	0.428551
C29	C	0.760098	0.590235	0.378263
C30	C	0.760003	1.134208	0.582200
C31	C	0.760029	1.134247	0.669450
C32	C	1.171547	1.134278	0.378253
C33	C	1.350191	1.134279	0.378262
C34	C	0.760111	1.339028	0.378267
C35	C	0.760130	1.426277	0.378273
C36	C	0.760164	1.134381	0.173508
C37	C	0.760206	1.134422	0.086258
C38	C	0.659248	1.184506	0.710416
C39	C	0.659289	1.184545	0.792397
C40	C	0.760103	1.134319	0.833409
C41	C	0.860895	1.084058	0.792437
C42	C	0.860861	1.084024	0.710458
C43	C	0.860955	1.084130	0.963307
C44	C	0.860986	1.084163	1.045291
C45	C	0.659382	1.184651	1.045246
C46	C	0.659349	1.184618	0.963267
C47	C	0.760139	1.134355	0.922300
H48	H	0.942791	0.686734	0.469481
H49	H	0.942751	0.835452	0.469478
C50	C	0.447229	0.641441	0.316913
C51	C	0.548688	0.594328	0.272713
H52	H	0.378885	0.669270	0.282792
H53	H	0.386774	0.609442	0.351060
H54	H	0.507224	0.677574	0.346852
H55	H	0.488692	0.558191	0.242777
H56	H	0.609149	0.626330	0.238552
C57	C	0.637480	1.290063	0.618139
C58	C	0.548428	1.239716	0.665338
H59	H	0.569060	1.324145	0.590309
H60	H	0.706268	1.320071	0.650081
H61	H	0.697486	1.260116	0.582009
H62	H	0.488430	1.269662	0.701472
H63	H	0.479611	1.209705	0.633393
C64	C	0.637592	1.290166	0.870981
C65	C	0.548532	1.239822	0.918180
H66	H	0.569177	1.324244	0.843143
H67	H	0.706372	1.320178	0.902924
H68	H	0.697609	1.260216	0.834857
H69	H	0.488524	1.269772	0.954308
H70	H	0.479725	1.209807	0.886234
H71	H	0.577437	0.433907	0.287041
H72	H	0.942807	0.582606	0.469495
H73	H	0.577381	0.686753	0.287029
H74	H	0.942986	1.043166	0.825836
H75	H	0.942929	1.043098	0.677104
H76	H	0.577320	1.225580	1.078605
C77	C	0.460232	0.793891	0.228573
C78	C	0.548626	0.847173	0.272699
H79	H	0.391871	0.821714	0.194458
H80	H	0.529077	0.761935	0.198601
H81	H	0.399780	0.761896	0.262739
H82	H	0.609087	0.879163	0.238534
H83	H	0.479772	0.879142	0.302673
H84	H	0.577222	1.225471	0.825748
C85	C	1.060304	0.984851	1.037107
C86	C	0.971824	1.028966	1.090374
H87	H	1.128739	0.950780	1.064941
H88	H	0.991518	0.954831	1.005174
H89	H	1.120681	1.019025	1.005088
H90	H	0.911438	0.994791	1.122390
H91	H	1.040619	1.058988	1.122320
H92	H	0.942850	0.433878	0.469499
H93	H	0.943034	1.043203	0.929955
