data_functionalizedCrystal
_audit_creation_method	'MofGen! by Chris Wilmer'
_symmetry_space_group_name_H-M	'P1'
_symmetry_Int_Tables_number	1
_symmetry_cell_setting	triclinic
loop_
_symmetry_equiv_pos_as_xyz
  x,y,z
_cell_length_a	12.645331
_cell_length_b	12.645330
_cell_length_c	18.215399
_cell_angle_alpha	89.976970
_cell_angle_beta	89.979974
_cell_angle_gamma	90.017906
loop_
_atom_site_label
_atom_site_type_symbol
_atom_site_fract_x
_atom_site_fract_y
_atom_site_fract_z
Zn1	Zn	1.620702	-0.422044	-0.416145
Zn2	Zn	1.620592	-0.599326	-0.293089
Zn3	Zn	1.443425	-0.422078	-0.293092
Zn4	Zn	1.443398	-0.599267	-0.416114
O5	O	1.532029	-0.510679	-0.354610
O6	O	1.769035	-0.445572	-0.399833
O7	O	1.597056	-0.575853	-0.190105
O8	O	1.466999	-0.273726	-0.309429
O9	O	1.768954	-0.575820	-0.309425
O10	O	1.597243	-0.273701	-0.399836
O11	O	1.466892	-0.445630	-0.190107
O12	O	1.295074	-0.445572	-0.309399
O13	O	1.466953	-0.575719	-0.519102
O14	O	1.295055	-0.575751	-0.399783
O15	O	1.597217	-0.445514	-0.519125
O16	O	1.597030	-0.747666	-0.309394
O17	O	1.466846	-0.747622	-0.399780
C18	C	1.256600	-0.510660	-0.354588
C19	C	1.138770	-0.510677	-0.354596
C20	C	1.093865	-0.428653	-0.297829
C21	C	0.971305	-0.428350	-0.298023
C22	C	0.970935	-0.480888	-0.432284
C23	C	1.093533	-0.480275	-0.431929
C24	C	1.093556	-0.622734	-0.334410
C25	C	0.970948	-0.622149	-0.332726
C26	C	1.531952	-0.786109	-0.354600
C27	C	1.532016	-0.903939	-0.354620
C28	C	1.450455	-1.071519	-0.411657
C29	C	1.450038	-0.948960	-0.411473
C30	C	1.501776	-0.948529	-0.277061
C31	C	1.501278	-1.071128	-0.277407
C32	C	1.644316	-1.071028	-0.374513
C33	C	1.643627	-0.948422	-0.376208
C34	C	1.808535	-0.510699	-0.354632
C35	C	1.926365	-0.510708	-0.354642
C36	C	1.532094	-0.510606	-0.546563
C37	C	1.532122	-0.510575	-0.628362
C38	C	1.532136	-0.234174	-0.354636
C39	C	1.532181	-0.116344	-0.354648
C40	C	1.599975	-0.442714	-0.816569
C41	C	1.599987	-0.442683	-0.893428
C42	C	1.464344	-0.578272	-0.893393
C43	C	1.464326	-0.578296	-0.816535
C44	C	1.532148	-0.510519	-0.778125
C45	C	1.532178	-0.510463	-0.931842
C46	C	1.532191	-0.510430	-1.015175
C47	C	1.532134	-0.510550	-0.694786
C48	C	1.532026	-0.510675	-0.163404
C49	C	1.532204	-0.510408	-0.081605
H50	H	0.941995	-0.345326	-0.311429
H51	H	1.419307	-1.099819	-0.260579
C52	C	1.726549	-1.110079	-0.318372
H53	H	1.692770	-1.153801	-0.283003
H54	H	1.757782	-1.051057	-0.294498
H55	H	1.779807	-1.149466	-0.342967
C56	C	1.674565	-0.368157	-0.774317
H57	H	1.664850	-0.377887	-0.723037
H58	H	1.659078	-0.296926	-0.786920
H59	H	1.745794	-0.383676	-0.786922
H60	H	1.409086	-0.633511	-0.785234
H61	H	0.941165	-0.446954	-0.240462
C62	C	1.337740	-0.909452	-0.393694
H63	H	1.337098	-0.834326	-0.393528
H64	H	1.317010	-0.934923	-0.346777
H65	H	1.289829	-0.934722	-0.429819
H66	H	1.655217	-0.387467	-0.924725
C67	C	1.389756	-0.652830	-0.935646
H68	H	1.399487	-0.643113	-0.986925
H69	H	1.318530	-0.637321	-0.923044
H70	H	1.405253	-0.724064	-0.923041
H71	H	1.420660	-0.917918	-0.259929
C72	C	1.578181	-1.111195	-0.218061
H73	H	1.609582	-1.052543	-0.193843
H74	H	1.631803	-1.152867	-0.240341
H75	H	1.540584	-1.152880	-0.183372
C76	C	1.133624	-0.453462	-0.219807
H77	H	1.177972	-0.514061	-0.221152
H78	H	1.074937	-0.466819	-0.188579
H79	H	1.172518	-0.394812	-0.201561
H80	H	1.671902	-1.101875	-0.430107
C81	C	1.135500	-0.317117	-0.315698
H82	H	1.180126	-0.320319	-0.357606
H83	H	1.174471	-0.290811	-0.275040
H84	H	1.077581	-0.271413	-0.325488
C85	C	0.929499	-0.371480	-0.455749
H86	H	0.885051	-0.343828	-0.418340
H87	H	0.890382	-0.378112	-0.500021
H88	H	0.987513	-0.324990	-0.463346
C89	C	1.133677	-0.557498	-0.491046
H90	H	1.075055	-0.589099	-0.515176
H91	H	1.175395	-0.610947	-0.468604
H92	H	1.175331	-0.520074	-0.525842
C93	C	1.132198	-0.369641	-0.454974
H94	H	1.072979	-0.325493	-0.464461
H95	H	1.174080	-0.375295	-0.498096
H96	H	1.173373	-0.339872	-0.416570
H97	H	1.559415	-0.919369	-0.233424
C98	C	1.338852	-1.113260	-0.394115
H99	H	1.289964	-1.085805	-0.428820
H100	H	1.318966	-1.091433	-0.346165
H101	H	1.338773	-1.188303	-0.396552
C102	C	1.475765	-1.111253	-0.489604
H103	H	1.425543	-1.083306	-0.523183
H104	H	1.472690	-1.186301	-0.490478
H105	H	1.544679	-1.088648	-0.503246
C106	C	0.931582	-0.652554	-0.255539
H107	H	0.958820	-0.720039	-0.242594
H108	H	0.856499	-0.654946	-0.255385
H109	H	0.955156	-0.601436	-0.221015
H110	H	1.666432	-0.919274	-0.433287
H111	H	0.941832	-0.538813	-0.475755
C112	C	1.730224	-0.907021	-0.324204
H113	H	1.796755	-0.935147	-0.338538
H114	H	1.714738	-0.928355	-0.275360
H115	H	1.732614	-0.832012	-0.326639
C116	C	1.135241	-0.659513	-0.259193
H117	H	1.180614	-0.606865	-0.239396
H118	H	1.173427	-0.723656	-0.264958
H119	H	1.077391	-0.670681	-0.226814
H120	H	0.940348	-0.686504	-0.371035
H121	H	1.468957	-0.918808	-0.468982
C122	C	1.132804	-0.705290	-0.390250
H123	H	1.176532	-0.671689	-0.425696
H124	H	1.073882	-0.736800	-0.414070
H125	H	1.172237	-0.758300	-0.365431
