data_functionalizedCrystal
_audit_creation_method	'MofGen! by Chris Wilmer'
_symmetry_space_group_name_H-M	'P1'
_symmetry_Int_Tables_number	1
_symmetry_cell_setting	triclinic
loop_
_symmetry_equiv_pos_as_xyz
  x,y,z
_cell_length_a	27.732048
_cell_length_b	14.853566
_cell_length_c	13.930277
_cell_angle_alpha	89.995631
_cell_angle_beta	89.990485
_cell_angle_gamma	83.138535
loop_
_atom_site_label
_atom_site_type_symbol
_atom_site_fract_x
_atom_site_fract_y
_atom_site_fract_z
O1	O	0.063104	1.195343	-0.079778
O2	O	0.070622	0.932761	-0.079795
O3	O	-0.003496	1.072207	-0.079768
O4	O	0.137221	1.055896	-0.079806
O5	O	-0.003497	1.072188	0.079894
O6	O	0.070620	0.932741	0.079866
O7	O	0.063102	1.195323	0.079884
Zn8	Zn	0.066861	1.064029	0.105225
Zn9	Zn	0.066863	1.064055	-0.105137
O10	O	0.137220	1.055877	0.079856
C11	C	0.070280	0.899168	0.000034
C12	C	0.069260	0.799101	0.000028
C13	C	0.064944	0.375996	-0.086986
C14	C	0.064943	0.375997	0.087084
C15	C	0.065901	0.470015	0.087081
C16	C	0.066382	0.517029	0.000043
C17	C	0.065904	0.470023	-0.086992
C18	C	0.066384	0.517026	0.174113
C19	C	0.067343	0.611051	0.174114
C20	C	0.067820	0.658066	0.087075
C21	C	0.067342	0.611055	0.000037
C22	C	0.067822	0.658069	-0.087001
C23	C	0.067341	0.611060	-0.174040
C24	C	0.066382	0.517039	-0.174030
C25	C	0.068779	0.752088	0.087066
C26	C	0.068782	0.752095	-0.087007
C27	C	-0.021505	1.071855	0.000066
C28	C	-0.075165	1.070824	0.000073
C29	C	-0.413625	1.146737	0.000029
C30	C	-0.615303	1.142912	0.000015
O31	O	-0.646234	1.212329	-0.000022
N32	N	-0.634813	1.060226	0.000011
C33	C	-0.603900	0.978491	0.000004
O34	O	-0.625122	0.908074	-0.000010
C35	C	-0.402224	0.982317	0.000010
C36	C	-0.382717	1.065008	0.000025
C37	C	-0.394117	1.229422	0.000042
C38	C	-0.343701	1.230377	0.000051
C39	C	-0.312792	1.148648	0.000046
C40	C	-0.332300	1.065963	0.000033
C41	C	-0.371312	0.900582	-0.000004
C42	C	-0.320890	0.901546	-0.000005
C43	C	-0.301383	0.984237	0.000010
C44	C	-0.250975	0.985190	0.000037
N45	N	-0.231465	1.067876	0.000042
C46	C	-0.262373	1.149605	0.000046
C47	C	-0.709784	0.976488	0.000002
C48	C	-0.760203	0.975531	0.000002
C49	C	-0.771602	1.139953	0.000012
C50	C	-0.721182	1.140908	0.000019
C51	C	-0.690274	1.059174	0.000006
C52	C	-0.156495	1.151605	0.000065
C53	C	-0.106074	1.152553	0.000078
C54	C	-0.094679	0.988132	0.000063
C55	C	-0.145096	0.987183	0.000055
C56	C	-0.176003	1.068927	0.000053
O57	O	-0.220015	0.915810	0.000064
O58	O	-0.241142	1.220011	0.000039
C59	C	-0.464042	1.145782	0.000020
C60	C	-0.483549	1.063097	0.000007
C61	C	-0.452641	0.981368	0.000003
C62	C	-0.533968	1.062140	0.000007
C63	C	-0.564877	1.143869	0.000012
C64	C	-0.545367	1.226555	0.000016
C65	C	-0.494950	1.227511	0.000025
C66	C	-0.472151	0.898682	-0.000002
C67	C	-0.522568	0.897734	-0.000009
C68	C	-0.553476	0.979463	-0.000005
C69	C	0.155229	1.056229	0.000021
C70	C	0.208889	1.057260	0.000006
C71	C	0.063443	1.228916	0.000052
C72	C	0.064464	1.328983	0.000052
N73	N	0.066859	1.064019	0.248791
N74	N	0.066861	1.064072	-0.248703
C75	C	0.099669	1.002306	0.701048
C76	C	0.034053	1.125828	0.701042
C77	C	0.034051	1.125818	0.600546
C78	C	0.066860	1.064051	0.550297
C79	C	0.099670	1.002295	0.600543
C80	C	0.001245	1.187579	0.550292
C81	C	0.001243	1.187571	0.449790
C82	C	0.034049	1.125799	0.399539
C83	C	0.066860	1.064040	0.449792
C84	C	0.099669	1.002273	0.399542
C85	C	0.132478	0.940509	0.449793
C86	C	0.132476	0.940523	0.550292
C87	C	0.034051	1.125786	0.299040
C88	C	0.099669	1.002263	0.299037
H89	H	0.064550	0.337719	-0.157851
N90	N	-0.438815	0.810530	-0.000002
H91	H	-0.445092	0.774427	-0.059189
H92	H	-0.445124	0.774495	0.059223
H93	H	0.007340	1.176077	0.258131
N94	N	-0.034141	1.254176	0.604504
H95	H	-0.068456	1.244267	0.587026
H96	H	-0.028476	1.318056	0.587000
N97	N	0.069295	0.802802	-0.180885
H98	H	0.068843	0.758754	-0.236017
H99	H	0.099634	0.834085	-0.184693
N100	N	0.067860	0.661765	-0.267918
H101	H	0.098199	0.693046	-0.271806
H102	H	0.038299	0.708458	-0.271729
H103	H	0.065996	0.478741	0.244975
N104	N	0.065868	0.466327	-0.267894
H105	H	0.095975	0.474966	-0.305953
H106	H	0.036076	0.490431	-0.305867
N107	N	0.069304	0.802789	0.180930
H108	H	0.068857	0.758739	0.236068
H109	H	0.039761	0.849524	0.184734
N110	N	0.064430	0.325295	0.180956
H111	H	0.064411	0.258439	0.167761
H112	H	0.034322	0.348614	0.218403
H113	H	0.067734	0.649317	0.244986
H114	H	-0.090194	1.219893	0.000092
N115	N	-0.189826	1.239769	0.000063
H116	H	-0.169811	1.292287	0.000075
H117	H	-0.210999	1.242949	0.059250
N118	N	-0.322665	1.319565	0.000063
H119	H	-0.349901	1.371188	0.000062
H120	H	-0.301990	1.323555	-0.059125
H121	H	-0.419279	1.295979	0.000042
N122	N	0.135055	0.935633	0.244850
H123	H	0.169372	0.945531	0.262329
H124	H	0.130038	0.945027	0.173575
H125	H	0.007343	1.176122	0.741958
N126	N	0.167861	0.873892	0.395583
H127	H	0.162230	0.809990	0.413079
H128	H	0.202163	0.883867	0.413078
H129	H	0.126381	0.952016	0.741965
H130	H	-0.025472	1.237862	0.408882
H131	H	-0.705303	1.208243	0.000030
H132	H	-0.479073	1.294846	0.000036
H133	H	-0.796776	1.206500	0.000016
H134	H	0.159189	0.890238	0.591212
H135	H	-0.776081	0.908196	0.000007
H136	H	-0.387186	0.833246	-0.000021
N137	N	-0.676450	0.888325	-0.000009
H138	H	-0.696465	0.835807	-0.000009
H139	H	-0.655287	0.885130	0.059180
H140	H	-0.160979	0.919849	0.000070
N141	N	-0.287554	0.813387	-0.000023
H142	H	-0.307566	0.760864	-0.000032
H143	H	-0.266392	0.810189	0.059168
N144	N	-0.061330	0.899993	0.000076
H145	H	-0.040149	0.896739	-0.059106
H146	H	-0.081364	0.847504	0.000108
N147	N	-0.578709	1.314708	0.000030
H148	H	-0.613607	1.301545	0.000024
H149	H	-0.572383	1.350784	-0.059155
H150	H	-0.538445	0.830392	-0.000013
