data_functionalizedCrystal
_audit_creation_method	'MofGen! by Chris Wilmer'
_symmetry_space_group_name_H-M	'P1'
_symmetry_Int_Tables_number	1
_symmetry_cell_setting	triclinic
loop_
_symmetry_equiv_pos_as_xyz
  x,y,z
_cell_length_a	10.489716
_cell_length_b	13.262415
_cell_length_c	12.376457
_cell_angle_alpha	85.805102
_cell_angle_beta	78.591709
_cell_angle_gamma	84.480973
loop_
_atom_site_label
_atom_site_type_symbol
_atom_site_fract_x
_atom_site_fract_y
_atom_site_fract_z
O1	O	1.727137	0.120197	-0.130948
O2	O	1.356899	0.133271	-0.134972
O3	O	1.539931	-0.016640	-0.088875
O4	O	1.544104	0.270108	-0.177045
O5	O	1.494186	0.020786	0.087629
O6	O	1.311154	0.170698	0.041532
O7	O	1.681392	0.157623	0.045556
Zn8	Zn	1.489010	0.170103	0.071568
Zn9	Zn	1.549281	0.120792	-0.160984
O10	O	1.498359	0.307535	-0.000541
C11	C	1.513086	-0.034645	0.010665
C12	C	1.501233	-0.144055	0.044299
C13	C	1.286422	0.151002	-0.046418
C14	C	1.144575	0.148063	-0.045516
C15	C	1.567571	-0.534055	-0.245745
C16	C	1.578719	-0.431261	-0.277352
C17	C	1.559348	-0.359455	-0.196942
C18	C	1.528828	-0.390451	-0.084919
C19	C	1.517688	-0.493256	-0.053309
C20	C	1.509465	-0.318656	-0.004506
C21	C	1.478945	-0.349653	0.107516
C22	C	1.467807	-0.452447	0.139121
C23	C	1.487178	-0.524254	0.058711
C24	C	1.520605	-0.215851	-0.036116
C25	C	1.470722	-0.175053	0.156319
C26	C	1.459574	-0.277846	0.187926
C27	C	1.053656	0.239992	-0.073786
C28	C	0.950185	0.209869	0.028181
C29	C	0.995291	0.172947	-0.145831
C30	C	1.042954	0.117992	0.056511
C31	C	1.088087	0.081068	-0.117583
C32	C	0.984655	0.050881	-0.015574
C33	C	1.751869	0.139892	-0.043000
C34	C	1.893718	0.142830	-0.043909
C35	C	1.525205	0.325540	-0.100084
C36	C	1.537060	0.434947	-0.133725
N37	N	1.447885	0.203756	0.230278
N38	N	1.590414	0.087131	-0.319691
C39	C	1.685875	0.008993	0.645151
C40	C	1.714651	-0.014561	0.534054
C41	C	1.647962	0.040016	0.458105
C42	C	1.552492	0.118151	0.493263
C43	C	1.523721	0.141713	0.604370
C44	C	1.485807	0.172736	0.417323
C45	C	1.390338	0.250871	0.452481
C46	C	1.361571	0.274428	0.563577
C47	C	1.428260	0.219851	0.639527
C48	C	1.514579	0.149174	0.306217
C49	C	1.352425	0.281894	0.265435
C50	C	1.323649	0.305448	0.376532
H51	H	1.545454	-0.190625	-0.127325
O52	O	1.230745	0.381240	0.410675
C53	C	1.110072	0.358532	0.388741
H54	H	1.110636	0.273157	0.382453
H55	H	1.028069	0.384872	0.458483
H56	H	1.093933	0.399202	0.307554
O57	O	0.878873	0.274629	0.101841
C58	C	0.794905	0.219726	0.183343
H59	H	0.835611	0.137011	0.188074
H60	H	0.787201	0.253497	0.266719
H61	H	0.694005	0.224275	0.161143
O62	O	1.806987	-0.090684	0.499800
C63	C	1.817846	-0.099947	0.385508
H64	H	1.781313	-0.025067	0.346206
H65	H	1.924365	-0.119695	0.346408
H66	H	1.756644	-0.162569	0.371493
H67	H	1.568426	-0.275757	-0.222683
H68	H	1.404828	0.239025	0.729993
O69	O	1.287720	0.334789	0.191533
C70	C	1.333606	0.297255	0.085930
H71	H	1.378551	0.216048	0.094734
H72	H	1.248824	0.298547	0.040567
H73	H	1.410545	0.346819	0.037096
O74	O	1.438191	-0.482734	0.247889
C75	C	1.432460	-0.588857	0.258543
H76	H	1.492440	-0.624233	0.181358
H77	H	1.473634	-0.620721	0.333821
H78	H	1.326675	-0.607432	0.269067
H79	H	1.064333	0.094824	0.142087
O80	O	1.159506	0.016333	-0.191206
C81	C	1.245106	0.071031	-0.271554
H82	H	1.263130	0.144454	-0.236671
H83	H	1.341692	0.023264	-0.295135
H84	H	1.199718	0.089606	-0.347827
O85	O	1.608310	-0.401319	-0.386210
C86	C	1.623048	-0.486739	-0.450404
H87	H	1.567763	-0.550241	-0.400835
H88	H	1.582322	-0.465484	-0.528622
H89	H	1.730974	-0.513564	-0.473665
O90	O	1.429771	-0.308069	0.296702
C91	C	1.312308	-0.355905	0.317546
H92	H	1.295784	-0.385551	0.237675
H93	H	1.318548	-0.421898	0.381208
H94	H	1.227610	-0.298950	0.350611
O95	O	1.750447	-0.044101	0.719008
C96	C	1.660260	-0.091747	0.802151
H97	H	1.568141	-0.101269	0.769423
H98	H	1.705325	-0.169411	0.827386
H99	H	1.634387	-0.043091	0.876876
H100	H	0.954332	-0.029132	0.009082
H101	H	0.973727	0.196175	-0.231336
H102	H	1.592310	0.085557	0.277601
H103	H	1.671395	0.020835	0.367646
O104	O	1.451685	-0.105250	0.234391
C105	C	1.347146	-0.034170	0.218650
H106	H	1.281399	-0.069473	0.171345
H107	H	1.288456	-0.011472	0.302315
H108	H	1.387045	0.035909	0.169565
H109	H	1.283845	0.338058	0.592199
H110	H	1.583350	-0.592528	-0.311202
H111	H	1.478101	-0.607958	0.084439
H112	H	1.084179	0.319975	-0.098293
