data_functionalizedCrystal
_audit_creation_method	'MofGen! by Chris Wilmer'
_symmetry_space_group_name_H-M	'P1'
_symmetry_Int_Tables_number	1
_symmetry_cell_setting	triclinic
loop_
_symmetry_equiv_pos_as_xyz
  x,y,z
_cell_length_a	10.723024
_cell_length_b	9.198806
_cell_length_c	10.723024
_cell_angle_alpha	89.997723
_cell_angle_beta	95.532131
_cell_angle_gamma	90.003661
loop_
_atom_site_label
_atom_site_type_symbol
_atom_site_fract_x
_atom_site_fract_y
_atom_site_fract_z
O1	O	1.657188	0.120879	-0.175025
O2	O	1.294035	0.120884	-0.191778
O3	O	1.483988	0.120876	-0.001825
O4	O	1.467235	0.120887	-0.364978
O5	O	1.483973	-0.120909	-0.001824
O6	O	1.294020	-0.120901	-0.191777
O7	O	1.657173	-0.120906	-0.175023
Cu8	Cu	1.475595	-0.142981	-0.183400
Cu9	Cu	1.475613	0.142958	-0.183402
O10	O	1.467220	-0.120898	-0.364976
C11	C	1.247528	-0.000008	-0.190558
C12	C	1.108974	-0.000007	-0.186911
N13	N	1.475592	-0.344095	-0.183398
C14	C	1.033991	-0.000002	-0.293198
C15	C	0.890788	-0.000001	-0.289431
C16	C	1.548356	-0.416291	-0.255759
C17	C	1.548376	-0.583703	-0.255758
C18	C	1.703680	-0.000011	-0.176243
C19	C	1.842234	-0.000003	-0.179891
C20	C	1.482762	-0.000015	0.044675
C21	C	1.479114	-0.000010	0.183229
N22	N	1.475626	0.344072	-0.183394
C23	C	1.468447	-0.000004	-0.411477
C24	C	1.472094	0.000000	-0.550031
C25	C	1.585401	-0.000009	0.258212
C26	C	1.581634	-0.000004	0.401415
H27	H	1.075814	-0.000008	-0.386984
C28	C	1.712107	-0.000021	0.201719
N29	N	1.807545	-0.000036	0.159170
H30	H	0.826355	0.000009	-0.380421
C31	C	1.391521	-0.572064	-0.099633
N32	N	1.328196	-0.508887	-0.036520
C33	C	0.929269	-0.000012	-0.056957
N34	N	0.994833	-0.000022	0.035637
H35	H	1.413313	-0.406225	-0.121443
H36	H	1.672624	-0.000010	0.465848
H37	H	1.610644	-0.354161	-0.317706
C38	C	1.349160	0.000001	0.362934
N39	N	1.256566	0.000005	0.297370
H40	H	1.067152	0.000028	-0.093125
H41	H	1.610665	-0.645791	-0.317715
H42	H	1.385328	0.000001	0.225051
