data_functionalizedCrystal
_audit_creation_method	'MofGen! by Chris Wilmer'
_symmetry_space_group_name_H-M	'P1'
_symmetry_Int_Tables_number	1
_symmetry_cell_setting	triclinic
loop_
_symmetry_equiv_pos_as_xyz
  x,y,z
_cell_length_a	14.044191
_cell_length_b	14.044220
_cell_length_c	12.996460
_cell_angle_alpha	89.993022
_cell_angle_beta	89.997003
_cell_angle_gamma	93.190327
loop_
_atom_site_label
_atom_site_type_symbol
_atom_site_fract_x
_atom_site_fract_y
_atom_site_fract_z
O1	O	1.277174	0.230202	-0.085522
O2	O	1.610507	0.563535	0.247812
O3	O	1.943841	0.896868	0.581145
O4	O	1.000501	0.221889	-0.085535
O5	O	1.333835	0.555222	0.247799
O6	O	1.667168	0.888556	0.581132
O7	O	1.134685	0.087710	-0.085518
O8	O	1.468018	0.421043	0.247815
O9	O	1.801352	0.754376	0.581149
O10	O	1.142991	0.364381	-0.085538
O11	O	1.476324	0.697715	0.247795
O12	O	1.809657	1.031048	0.581129
O13	O	1.134669	0.087700	0.085616
O14	O	1.468002	0.421034	0.418949
O15	O	1.801336	0.754367	0.752282
O16	O	1.000486	0.221880	0.085599
O17	O	1.333819	0.555213	0.418933
O18	O	1.667152	0.888546	0.752266
O19	O	1.277158	0.230192	0.085612
O20	O	1.610491	0.563526	0.418945
O21	O	1.943825	0.896859	0.752279
Cu22	Cu	1.138820	0.226035	0.101232
Cu23	Cu	1.472154	0.559369	0.434565
Cu24	Cu	1.805487	0.892702	0.767898
Cu25	Cu	1.138839	0.226046	-0.101154
Cu26	Cu	1.472172	0.559380	0.232179
Cu27	Cu	1.805506	0.892713	0.565513
O28	O	1.142975	0.364372	0.085596
O29	O	1.476308	0.697705	0.418929
O30	O	1.809641	1.031039	0.752262
C31	C	0.964872	0.218248	0.000031
C32	C	1.298205	0.551581	0.333364
C33	C	1.631538	0.884914	0.666697
C34	C	0.858728	0.207401	0.000026
C35	C	1.192062	0.540734	0.333360
C36	C	1.525395	0.874067	0.666693
C37	C	0.613270	0.264501	0.000032
C38	C	0.946603	0.597834	0.333366
C39	C	1.279937	0.931168	0.666699
C40	C	0.664395	0.187585	0.000036
C41	C	0.997729	0.520918	0.333370
C42	C	1.331062	0.854251	0.666703
C43	C	0.772532	0.198613	0.000031
C44	C	1.105866	0.531946	0.333364
C45	C	1.439199	0.865280	0.666697
C46	C	0.505123	0.253474	0.000038
C47	C	0.838457	0.586808	0.333371
C48	C	1.171790	0.920141	0.666705
C49	C	1.131041	0.052083	0.000049
C50	C	1.464375	0.385416	0.333382
C51	C	1.797708	0.718750	0.666716
C52	C	1.120197	-0.054060	0.000050
C53	C	1.453530	0.279273	0.333383
C54	C	1.786863	0.612607	0.666716
C55	C	1.100370	-0.248398	0.000034
C56	C	1.433704	0.084935	0.333367
C57	C	1.767037	0.418268	0.666701
C58	C	1.177285	-0.299526	0.000034
C59	C	1.510618	0.033807	0.333368
C60	C	1.843952	0.367140	0.666701
C61	C	1.166253	-0.407663	0.000026
C62	C	1.499587	-0.074329	0.333359
C63	C	1.832920	0.259004	0.666692
C64	C	1.111400	-0.140252	0.000043
C65	C	1.444734	0.193081	0.333376
C66	C	1.778067	0.526415	0.666709
C67	C	1.312788	0.233834	0.000044
C68	C	1.646121	0.567167	0.333378
C69	C	1.979455	0.900500	0.666711
C70	C	1.418931	0.244681	0.000042
C71	C	1.752264	0.578014	0.333376
C72	C	2.085598	0.911348	0.666709
C73	C	1.146618	0.399998	0.000026
C74	C	1.479952	0.733332	0.333360
C75	C	1.813285	1.066665	0.666693
C76	C	1.157463	0.506142	0.000019
C77	C	1.490796	0.839475	0.333352
C78	C	1.824130	1.172808	0.666685
N79	N	1.138814	0.226027	0.243579
N80	N	1.472147	0.559361	0.576912
N81	N	1.805481	0.892694	0.910245
N82	N	1.138852	0.226047	-0.243501
N83	N	1.472186	0.559380	0.089832
N84	N	1.805519	0.892714	0.423166
C85	C	1.138838	0.226047	0.663393
C86	C	1.472171	0.559380	0.996726
C87	C	1.805505	0.892714	1.330060
C88	C	1.138829	0.226045	0.546588
C89	C	1.472162	0.559378	0.879921
C90	C	1.805495	0.892711	1.213255
C91	C	1.138826	0.226038	0.453490
C92	C	1.472160	0.559371	0.786823
C93	C	1.805493	0.892705	1.120156
C94	C	1.138816	0.226034	0.336677
C95	C	1.472150	0.559367	0.670010
C96	C	1.805483	0.892701	1.003344
H97	H	0.650711	0.338628	0.000024
H98	H	0.984045	0.671961	0.333357
H99	H	1.317378	1.005294	0.666691
C100	C	1.269068	-0.150094	0.000067
C101	C	1.602401	0.183239	0.333401
C102	C	1.935735	0.516573	0.666734
C103	C	1.277366	-0.248990	0.000055
C104	C	1.610699	0.084344	0.333388
C105	C	1.944032	0.417677	0.666722
H106	H	1.330852	-0.118894	0.000089
H107	H	1.664185	0.214439	0.333422
H108	H	1.997519	0.547772	0.666756
H109	H	1.235386	-0.132144	-0.059611
H110	H	1.568719	0.201189	0.273722
H111	H	1.902053	0.534523	0.607055
H112	H	1.235351	-0.132174	0.059745
H113	H	1.568685	0.201159	0.393079
H114	H	1.902018	0.534493	0.726412
H115	H	1.311076	-0.266911	-0.059627
H116	H	1.644410	0.066423	0.273706
H117	H	1.977743	0.399756	0.607039
H118	H	1.311062	-0.266947	0.059740
H119	H	1.644395	0.066386	0.393073
H120	H	1.977729	0.399720	0.726406
C121	C	0.514960	0.095806	0.000022
C122	C	0.848294	0.429140	0.333355
C123	C	1.181627	0.762473	0.666689
C124	C	0.613856	0.087506	0.000027
C125	C	0.947189	0.420839	0.333361
C126	C	1.280522	0.754172	0.666694
H127	H	0.483759	0.034024	0.000005
H128	H	0.817092	0.367357	0.333339
H129	H	1.150425	0.700690	0.666672
H130	H	0.497019	0.129488	0.059701
H131	H	0.830352	0.462821	0.393034
H132	H	1.163686	0.796154	0.726368
H133	H	0.497034	0.129525	-0.059656
H134	H	0.830367	0.462858	0.273677
H135	H	1.163700	0.796192	0.607011
H136	H	0.631783	0.053793	0.059710
H137	H	0.965117	0.387126	0.393043
H138	H	1.298450	0.720460	0.726376
H139	H	0.631804	0.053810	-0.059657
H140	H	0.965138	0.387143	0.273676
H141	H	1.298471	0.720477	0.607009
H142	H	1.026242	-0.285837	0.000028
H143	H	1.359576	0.047496	0.333361
H144	H	1.692909	0.380830	0.666695
