data_functionalizedCrystal
_audit_creation_method	'MofGen! by Chris Wilmer'
_symmetry_space_group_name_H-M	'P1'
_symmetry_Int_Tables_number	1
_symmetry_cell_setting	triclinic
loop_
_symmetry_equiv_pos_as_xyz
  x,y,z
_cell_length_a	14.446369
_cell_length_b	17.917603
_cell_length_c	17.917603
_cell_angle_alpha	89.765267
_cell_angle_beta	57.012736
_cell_angle_gamma	57.010332
loop_
_atom_site_label
_atom_site_type_symbol
_atom_site_fract_x
_atom_site_fract_y
_atom_site_fract_z
Zr1	Zr	0.935937	-0.066950	0.751711
O2	O	1.158727	-0.198363	0.620303
O3	O	0.733722	-0.026660	0.791994
O4	O	0.946225	-0.190525	0.784158
O5	O	0.930935	0.094755	0.634321
O6	O	0.930936	-0.184347	0.913411
O7	O	0.946224	-0.034499	0.628139
O8	O	0.550807	0.108776	0.927428
O9	O	1.311063	-0.198369	0.620304
O10	O	0.797866	-0.004873	0.905635
O11	O	0.797866	0.086977	0.813789
O12	O	1.048060	-0.105952	0.804563
O13	O	1.048060	-0.014102	0.712717
Zr14	Zr	0.887168	0.149046	0.967713
Zr15	Zr	0.911553	-0.057098	0.957854
Zr16	Zr	0.911552	0.139194	0.761571
Zr17	Zr	1.178896	-0.066960	0.751713
Zr18	Zr	0.644209	0.149055	0.967712
O19	O	1.089383	0.108755	0.927431
O20	O	1.124056	-0.184355	0.913412
O21	O	1.124054	0.094747	0.634322
O22	O	0.664379	0.280458	1.099121
O23	O	0.699051	-0.012652	1.085103
O24	O	0.699050	0.266450	0.806013
O25	O	0.892171	-0.012659	1.085104
O26	O	0.876881	0.272620	0.935266
O27	O	0.892170	0.266443	0.806014
O28	O	0.876881	0.116594	1.091286
O29	O	1.291681	-0.190538	0.784160
O30	O	0.531424	0.272633	0.935264
O31	O	0.512042	0.280464	1.099120
O32	O	0.531425	0.116607	1.091284
O33	O	1.291680	-0.034512	0.628141
O34	O	1.272298	-0.026681	0.791997
O35	O	0.775045	0.188047	0.914862
O36	O	0.775046	0.096197	1.006708
O37	O	1.025240	-0.004882	0.905636
O38	O	1.025239	0.086968	0.813790
C39	C	0.607648	0.041059	0.859711
C40	C	0.504506	0.041063	0.859710
C41	C	0.942054	0.028724	0.601859
C42	C	0.952405	0.024542	0.514346
C43	C	0.881051	0.298902	0.872045
C44	C	0.870699	0.386416	0.876230
C45	C	0.357428	0.099286	0.802087
C46	C	0.465117	0.099023	0.801746
C47	C	0.571151	-0.065879	0.810317
C48	C	0.463935	-0.065583	0.809877
C49	C	0.253568	0.088883	0.966726
C50	C	0.359484	0.091014	0.966674
C51	C	1.215457	0.041036	0.859714
C52	C	1.318600	0.041032	0.859715
C53	C	0.942055	-0.216807	0.847380
C54	C	0.952407	-0.304321	0.843194
C55	C	0.851791	0.546625	0.883856
C56	C	0.971308	0.535477	0.835571
C57	C	0.960788	0.624623	0.839814
C58	C	0.862309	0.457473	0.879614
C59	C	0.971314	0.016904	0.354137
C60	C	0.851798	0.065189	0.365281
C61	C	0.862318	0.060939	0.276135
C62	C	0.960796	0.021153	0.443289
C63	C	0.881052	0.053371	1.117566
C64	C	0.870700	0.057553	1.205079
C65	C	0.577147	0.053383	1.117564
C66	C	0.463653	0.057569	1.205076
C67	C	0.577146	0.298914	0.872043
C68	C	0.463652	0.386431	0.876228
C69	C	0.546645	0.311237	1.129896
C70	C	0.422799	0.402937	1.221594
C71	C	1.276460	-0.229142	0.589528
C72	C	1.400306	-0.320842	0.497830
C73	C	1.245958	0.028713	0.601861
C74	C	1.359452	0.024526	0.514348
C75	C	1.245959	-0.216819	0.847382
C76	C	1.359454	-0.304336	0.843197
C77	C	0.422268	0.006769	1.193414
C78	C	0.315645	0.010683	1.275632
C79	C	0.250402	0.065403	1.369513
C80	C	0.291796	0.116205	1.381174
C81	C	0.398425	0.112284	1.298956
C82	C	0.398440	0.480297	0.930953
C83	C	0.291813	0.562536	0.934882
C84	C	0.250392	0.550909	0.884091
C85	C	0.315615	0.457034	0.829359
C86	C	0.422247	0.374796	0.825425
C87	C	0.364639	0.398056	1.312608
C88	C	0.248286	0.484210	1.398776
C89	C	0.190088	0.575244	1.393927
C90	C	0.248259	0.580123	1.302904
C91	C	0.364617	0.493970	1.216738
C92	C	1.458478	-0.315961	0.406817
C93	C	1.574862	-0.402115	0.320649
C94	C	1.633064	-0.493149	0.325498
C95	C	1.574887	-0.498028	0.416521
C96	C	1.458512	-0.411875	0.502686
C97	C	1.400848	0.075318	0.526011
C98	C	1.507501	0.071381	0.443791
C99	C	1.572748	0.016658	0.349910
C100	C	1.531349	-0.034140	0.338250
C101	C	1.424705	-0.030208	0.420468
C102	C	1.400839	-0.292677	0.893999
C103	C	1.507463	-0.374901	0.890086
C104	C	1.572708	-0.468782	0.835365
C105	C	1.531312	-0.480439	0.784561
C106	C	1.424683	-0.398216	0.788480
H107	H	0.255905	0.178080	0.835400
N108	N	1.117293	0.434149	0.776632
H109	H	1.166980	0.427665	0.802679
H110	H	1.178411	0.423028	0.705809
N111	N	0.705791	0.124175	0.466596
H112	H	0.718876	0.118887	0.516835
H113	H	0.656149	0.098116	0.473007
H114	H	1.081527	-0.027623	0.277651
N115	N	1.637594	-0.396849	0.222479
H116	H	1.674391	-0.360878	0.216522
H117	H	1.560199	-0.360922	0.216580
N118	N	1.758567	-0.586070	0.232560
H119	H	1.843682	-0.625659	0.230618
H120	H	1.786452	-0.569079	0.174222
N121	N	1.687752	0.012433	0.261233
H122	H	1.780929	-0.057651	0.218388
H123	H	1.703942	0.052968	0.282951
N124	N	0.492620	-0.052252	1.092164
H125	H	0.542082	-0.123062	1.081089
H126	H	0.566382	-0.046952	1.041905
N127	N	1.395737	-0.217786	0.401561
H128	H	1.404523	-0.179902	0.435177
H129	H	1.290413	-0.179974	0.435142
N130	N	0.443117	0.492848	0.985728
H131	H	0.424023	0.463407	1.034881
H132	H	0.385604	0.564809	1.020925
N133	N	1.552152	0.126166	0.456373
H134	H	1.465588	0.198346	0.496057
H135	H	1.629650	0.115287	0.390007
H136	H	0.238720	0.638966	0.979453
N137	N	1.637669	-0.596218	0.421743
H138	H	1.720212	-0.650047	0.353343
H139	H	1.560263	-0.602103	0.457727
N140	N	0.271014	-0.044114	1.263042
H141	H	0.328521	-0.079364	1.191093
H142	H	0.164483	0.003641	1.297177
N143	N	0.135398	0.069625	1.458186
H144	H	0.119087	0.029138	1.436543
H145	H	0.042295	0.139736	1.500992
H146	H	0.238660	0.160756	1.457622
H147	H	0.200858	0.654255	1.298971
H148	H	0.432105	0.153658	1.308466
H149	H	0.095342	0.645389	1.464096
H150	H	1.584489	-0.078694	0.261801
H151	H	0.411957	0.497958	1.142634
H152	H	1.411150	-0.415861	0.576791
N153	N	0.421429	0.055436	0.698279
H154	H	0.425381	-0.002000	0.688418
H155	H	0.522420	0.032616	0.651419
N156	N	0.705794	0.647941	0.942843
H157	H	0.718889	0.698174	0.937554
H158	H	0.644706	0.658983	1.013641
N159	N	0.399738	0.203151	0.846051
H160	H	0.463665	0.215502	0.796366
H161	H	0.391191	0.214024	0.905498
H162	H	1.347730	0.119886	0.602446
H163	H	1.659531	-0.535725	0.832181
H164	H	1.391005	-0.071567	0.410959
N165	N	1.330483	-0.191426	0.953022
H166	H	1.372889	-0.196531	0.984610
H167	H	1.222915	-0.152694	1.005374
H168	H	1.541154	-0.365390	0.931456
N169	N	0.135378	0.639613	0.888340
H170	H	0.100356	0.700838	0.930721
H171	H	0.051642	0.640944	0.916975
H172	H	0.281874	0.447581	0.788007
H173	H	0.566588	0.065627	0.722903
N174	N	0.535281	-0.115854	0.705395
H175	H	0.635947	-0.138000	0.660057
H176	H	0.476314	-0.068695	0.688725
N177	N	0.435889	-0.126597	0.861476
H178	H	0.493170	-0.153569	0.884403
H179	H	0.466336	-0.182433	0.814841
H180	H	0.475330	0.298369	0.780866
N181	N	1.601689	-0.581699	0.725542
H182	H	1.675520	-0.632009	0.730771
H183	H	1.651071	-0.592689	0.654760
H184	H	1.391000	-0.407723	0.747106
N185	N	0.185535	0.478931	1.496940
H186	H	0.102991	0.547317	1.550796
H187	H	0.262952	0.442915	1.502815
H188	H	0.600592	-0.111402	0.850028
H189	H	0.676591	-0.104060	0.732166
H190	H	0.146446	0.166654	1.007440
N191	N	0.427383	0.299876	1.317852
H192	H	0.372870	0.309871	1.388590
H193	H	0.532742	0.262030	1.284188
H194	H	0.306826	0.169822	1.003522
H195	H	0.227475	0.046724	1.009933
N196	N	0.386538	0.041259	1.028950
H197	H	0.493663	-0.014619	0.988527
H198	H	0.333457	0.015217	1.053643
