data_functionalizedCrystal
_audit_creation_method	'MofGen! by Chris Wilmer'
_symmetry_space_group_name_H-M	'P1'
_symmetry_Int_Tables_number	1
_symmetry_cell_setting	triclinic
loop_
_symmetry_equiv_pos_as_xyz
  x,y,z
_cell_length_a	8.497374
_cell_length_b	12.827893
_cell_length_c	12.827892
_cell_angle_alpha	89.984638
_cell_angle_beta	89.992687
_cell_angle_gamma	90.001575
loop_
_atom_site_label
_atom_site_type_symbol
_atom_site_fract_x
_atom_site_fract_y
_atom_site_fract_z
Zn1	Zn	0.891962	1.597487	0.416215
Zn2	Zn	0.628170	1.597435	0.590924
Zn3	Zn	0.628190	1.422782	0.416197
Zn4	Zn	0.891902	1.422714	0.590915
O5	O	0.760056	1.510105	0.503563
O6	O	0.856986	1.743716	0.439402
O7	O	0.407411	1.574274	0.567742
O8	O	0.663214	1.446008	0.269964
O9	O	0.663179	1.743678	0.567760
O10	O	0.857006	1.574363	0.269977
O11	O	0.407425	1.445958	0.439372
O12	O	0.663156	1.276537	0.439363
O13	O	1.112673	1.445891	0.567744
O14	O	0.856904	1.276487	0.567727
O15	O	1.112717	1.574296	0.439393
O16	O	0.663121	1.574207	0.737159
O17	O	0.856884	1.445840	0.737152
C18	C	0.760026	1.238595	0.503543
C19	C	0.760051	1.122442	0.503559
C20	C	0.855776	1.070659	0.567177
C21	C	0.855803	0.950609	0.567195
C22	C	0.760028	1.510039	0.775073
C23	C	0.760069	1.510107	0.891226
C24	C	1.171537	1.510097	0.503564
C25	C	1.350181	1.510099	0.503575
C26	C	0.760087	1.782675	0.503584
C27	C	0.760101	1.898828	0.503593
C28	C	0.760119	1.510199	0.230993
C29	C	0.760145	1.510239	0.114839
C30	C	0.664296	1.573702	0.942979
C31	C	0.664336	1.573774	1.063030
H32	H	0.937714	1.115204	0.621625
O33	O	0.662394	0.951822	0.438465
C34	C	0.586364	0.985481	0.260652
C35	C	0.697091	0.925374	0.334289
H36	H	0.614398	0.964137	0.176409
H37	H	0.459062	0.964041	0.278770
H38	H	0.603730	1.072832	0.272268
H39	H	0.679864	0.838009	0.322713
H40	H	0.824352	0.946900	0.316153
O41	O	0.953635	0.897654	0.632271
C42	C	1.153534	0.908942	0.765011
C43	C	1.042787	0.969045	0.691384
H44	H	1.225665	0.966636	0.812807
H45	H	1.080991	0.857854	0.819612
H46	H	1.236015	0.857830	0.717058
H47	H	0.960283	1.020215	0.739252
H48	H	1.115428	1.020068	0.636779
H49	H	0.678124	1.077897	0.449103
H50	H	0.582276	1.628101	0.898413
O51	O	0.858009	1.445358	0.944500
C52	C	1.070923	1.431369	1.067770
C53	C	0.960077	1.504815	1.007525
H54	H	1.153494	1.479412	1.118724
H55	H	0.998456	1.376862	1.119008
H56	H	1.142953	1.383452	1.010113
H57	H	0.888022	1.552800	1.065107
H58	H	1.032633	1.559253	0.956272
O59	O	0.566706	1.638729	1.116278
C60	C	0.477682	1.697994	1.284485
C61	C	0.588325	1.624373	1.224309
H62	H	0.495098	1.686397	1.371838
H63	H	0.505531	1.782256	1.263063
H64	H	0.350408	1.679778	1.263091
H65	H	0.715636	1.642495	1.245670
H66	H	0.560340	1.540133	1.245736
O67	O	0.857811	1.445130	1.061807
C68	C	0.934174	1.267344	1.028394
C69	C	0.823444	1.340957	1.088509
H70	H	0.906450	1.183106	1.049977
H71	H	0.916710	1.278768	0.941021
H72	H	1.061430	1.285675	1.049737
H73	H	0.696146	1.322672	1.067253
H74	H	0.841045	1.329520	1.175868
