data_functionalizedCrystal
_audit_creation_method	'MofGen! by Chris Wilmer'
_symmetry_space_group_name_H-M	'P1'
_symmetry_Int_Tables_number	1
_symmetry_cell_setting	triclinic
loop_
_symmetry_equiv_pos_as_xyz
  x,y,z
_cell_length_a	11.169417
_cell_length_b	19.077068
_cell_length_c	11.169409
_cell_angle_alpha	92.259065
_cell_angle_beta	89.980176
_cell_angle_gamma	92.327792
loop_
_atom_site_label
_atom_site_type_symbol
_atom_site_fract_x
_atom_site_fract_y
_atom_site_fract_z
Zn1	Zn	1.815630	-0.280126	-0.697665
Zn2	Zn	1.807395	-0.397846	-0.505018
Zn3	Zn	1.614913	-0.280169	-0.497002
Zn4	Zn	1.606803	-0.397789	-0.705659
O5	O	1.711185	-0.338983	-0.601336
O6	O	1.982486	-0.295748	-0.672119
O7	O	1.781809	-0.382278	-0.336008
O8	O	1.648378	-0.181673	-0.516921
O9	O	1.976436	-0.382237	-0.530582
O10	O	1.795844	-0.181642	-0.664347
O11	O	1.640393	-0.295821	-0.330119
O12	O	1.445887	-0.295766	-0.524672
O13	O	1.634556	-0.382139	-0.872546
O14	O	1.439929	-0.382181	-0.677971
O15	O	1.787981	-0.295693	-0.866672
O16	O	1.773945	-0.496329	-0.538333
O17	O	1.626571	-0.496287	-0.685743
C18	C	1.399361	-0.338972	-0.601320
C19	C	1.265960	-0.338984	-0.601343
C20	C	1.698517	-0.521846	-0.613802
C21	C	1.693208	-0.600075	-0.619175
C22	C	1.767503	-0.636826	-0.545014
C23	C	1.762516	-0.710331	-0.550075
C24	C	1.683227	-0.747084	-0.629291
C25	C	1.608929	-0.710328	-0.703460
C26	C	1.613923	-0.636824	-0.698404
C27	C	1.660064	-0.966916	-0.652640
C28	C	1.655073	-1.040425	-0.657687
C29	C	1.808662	-1.040424	-0.504303
C30	C	1.813643	-0.966918	-0.499250
C31	C	1.739350	-0.930169	-0.573423
N32	N	1.678125	-0.822218	-0.634463
N33	N	1.744459	-0.855036	-0.568256
C34	C	2.024226	-0.338994	-0.601353
C35	C	2.157626	-0.338999	-0.601360
C36	C	1.711282	-0.338905	-0.914373
C37	C	1.711324	-0.338871	-1.047771
C38	C	1.723935	-0.155406	-0.588848
C39	C	1.729368	-0.077176	-0.583526
C40	C	1.711160	-0.339010	-0.289513
C41	C	1.711365	-0.338845	-0.156103
H42	H	1.823014	-0.740251	-0.489685
H43	H	1.869149	-1.070353	-0.443917
H44	H	1.878206	-0.936996	-0.434746
C45	C	1.568955	-1.080203	-0.743830
C46	C	1.504986	-1.032288	-0.807733
C47	C	1.425661	-1.068905	-0.887104
H48	H	1.514624	-1.108928	-0.699988
H49	H	1.612879	-1.108813	-0.798185
H50	H	1.461064	-1.003689	-0.753385
H51	H	1.559285	-1.003561	-0.851599
H52	H	1.469585	-1.097516	-0.941460
H53	H	1.371337	-1.097629	-0.843252
H54	H	1.382256	-1.036401	-0.930479
H55	H	1.832062	-0.606907	-0.480503
C56	C	1.522656	-0.750137	-0.789395
C57	C	1.405135	-0.732313	-0.761957
C58	C	1.325625	-0.768962	-0.841104
H59	H	1.530153	-0.799188	-0.781863
H60	H	1.540933	-0.738026	-0.869236
H61	H	1.386863	-0.744428	-0.682135
H62	H	1.397599	-0.683268	-0.769496
H63	H	1.343903	-0.756851	-0.920945
H64	H	1.333133	-0.818011	-0.833566
H65	H	1.245880	-0.756868	-0.822505
C66	C	1.533326	-0.597008	-0.779124
C67	C	1.558175	-0.614830	-0.899116
C68	C	1.483947	-0.578173	-0.973516
H69	H	1.547585	-0.547958	-0.764933
H70	H	1.451850	-0.609114	-0.762401
H71	H	1.639632	-0.602720	-0.915833
H72	H	1.543909	-0.663874	-0.913344
H73	H	1.402471	-0.590278	-0.956793
H74	H	1.498212	-0.529125	-0.959314
H75	H	1.500789	-0.590265	-1.054938
H76	H	1.599569	-0.937001	-0.713032
