data_functionalizedCrystal
_audit_creation_method	'MofGen! by Chris Wilmer'
_symmetry_space_group_name_H-M	'P1'
_symmetry_Int_Tables_number	1
_symmetry_cell_setting	triclinic
loop_
_symmetry_equiv_pos_as_xyz
  x,y,z
_cell_length_a	12.759401
_cell_length_b	18.101395
_cell_length_c	12.759393
_cell_angle_alpha	90.033445
_cell_angle_beta	90.018496
_cell_angle_gamma	90.031265
loop_
_atom_site_label
_atom_site_type_symbol
_atom_site_fract_x
_atom_site_fract_y
_atom_site_fract_z
Zn1	Zn	1.606136	-0.294783	0.593968
Zn2	Zn	1.605980	-0.418644	0.418282
Zn3	Zn	1.430438	-0.294822	0.418307
Zn4	Zn	1.430376	-0.418587	0.593923
O5	O	1.518232	-0.356709	0.506120
O6	O	1.753136	-0.311221	0.570671
O7	O	1.582654	-0.402259	0.271264
O8	O	1.453835	-0.191183	0.441638
O9	O	1.753021	-0.402221	0.441595
O10	O	1.582920	-0.191155	0.570695
O11	O	1.453684	-0.311287	0.271283
O12	O	1.283408	-0.311232	0.441595
O13	O	1.453730	-0.402124	0.740950
O14	O	1.283363	-0.402162	0.570619
O15	O	1.582860	-0.311166	0.740983
O16	O	1.582594	-0.522270	0.441552
O17	O	1.453579	-0.522228	0.570595
C18	C	1.245265	-0.356695	0.506106
C19	C	1.128488	-0.356707	0.506125
C20	C	1.073630	-0.404131	0.573197
C21	C	0.963906	-0.404140	0.573208
C22	C	0.963908	-0.309301	0.439066
C23	C	1.073630	-0.309288	0.439061
C24	C	1.128488	-0.451550	0.640260
C25	C	1.073630	-0.498977	0.707337
C26	C	0.963906	-0.498987	0.707348
C27	C	0.909040	-0.451568	0.640283
C28	C	1.518092	-0.549120	0.506089
C29	C	1.518128	-0.631434	0.506111
C30	C	1.518358	-0.930525	0.506168
C31	C	1.437374	-0.899204	0.587559
C32	C	1.436989	-0.813586	0.587305
C33	C	1.518244	-0.782142	0.506140
C34	C	1.488263	-0.813302	0.395415
C35	C	1.487741	-0.898947	0.395903
C36	C	1.629501	-0.898866	0.534526
C37	C	1.628847	-0.813215	0.536954
C38	C	1.518181	-0.698283	0.506118
C39	C	1.518418	-1.014384	0.506182
C40	C	1.792265	-0.356723	0.506135
C41	C	1.909042	-0.356729	0.506141
C42	C	1.518306	-0.356634	0.780153
C43	C	1.518337	-0.356602	0.896930
C44	C	1.518402	-0.163547	0.506174
C45	C	1.518474	-0.081233	0.506197
C46	C	1.518219	-0.356730	0.233153
C47	C	1.518392	-0.356553	0.116376
C48	C	1.585584	-0.309236	0.951811
C49	C	1.585609	-0.309209	1.061535
C50	C	1.451137	-0.403922	1.061488
C51	C	1.451108	-0.403944	0.951766
C52	C	1.652814	-0.261894	0.896975
C53	C	1.720068	-0.214524	0.951856
C54	C	1.720092	-0.214497	1.061580
C55	C	1.652864	-0.261840	1.116423
H56	H	0.919243	-0.537599	0.761972
H57	H	1.396402	-0.442466	1.106150
O58	O	1.392394	-0.787844	0.366058
C59	C	1.366645	-0.816368	0.266471
H60	H	1.441494	-0.832309	0.223276
H61	H	1.314826	-0.867242	0.276060
C62	C	1.215475	-0.737689	0.256133
C63	C	1.307407	-0.757263	0.203078
H64	H	1.178930	-0.701233	0.217030
H65	H	1.232820	-0.718474	0.323229
H66	H	1.172305	-0.780090	0.264121
H67	H	1.350581	-0.714864	0.195102
H68	H	1.290068	-0.776469	0.135979
H69	H	0.819695	-0.451573	0.640307
H70	H	1.217831	-0.451549	0.640256
O71	O	1.785329	-0.168602	0.898424
C72	C	1.770870	-0.178767	0.789811
H73	H	1.736410	-0.235921	0.774800
H74	H	1.714950	-0.134845	0.758687
C75	C	1.919487	-0.101797	0.751926
C76	C	1.877172	-0.171998	0.733488
H77	H	1.985057	-0.097618	0.717182
H78	H	1.929227	-0.094946	0.825100
H79	H	1.872877	-0.065204	0.725989
H80	H	1.923775	-0.208589	0.759437
H81	H	1.867442	-0.178854	0.660317
H82	H	1.544168	-0.919669	0.333192
O83	O	1.127037	-0.544931	0.772535
C84	C	1.190539	-0.502819	0.840510
H85	H	1.206995	-0.446664	0.803594
H86	H	1.148290	-0.494750	0.918392
C87	C	1.274535	-0.612542	0.904761
C88	C	1.294754	-0.543574	0.859417
H89	H	1.338818	-0.637683	0.916429
H90	H	1.231751	-0.640915	0.858969
H91	H	1.239325	-0.605809	0.969658
H92	H	1.329952	-0.550309	0.794516
H93	H	1.337547	-0.515203	0.905199
H94	H	1.689837	-0.919120	0.475245
H95	H	0.919227	-0.270696	0.384464
H96	H	1.118297	-0.270667	0.384453
O97	O	1.785262	-0.168400	1.114937
C98	C	1.725508	-0.120559	1.178433
H99	H	1.642756	-0.115989	1.145364
H100	H	1.721890	-0.143433	1.261583
C101	C	1.878542	-0.049188	1.220757
C102	C	1.776907	-0.043570	1.180136
H103	H	1.910249	-0.001698	1.221813
H104	H	1.918801	-0.081421	1.177982
H105	H	1.875513	-0.068252	1.290046
H106	H	1.779938	-0.024515	1.110845
H107	H	1.736650	-0.011332	1.222900
H108	H	1.455746	-0.792516	0.669407
H109	H	1.455945	-0.919745	0.669927
H110	H	1.355493	-0.920792	0.569012
O111	O	1.653054	-0.261882	1.223010
C112	C	1.753746	-0.280880	1.259667
H113	H	1.797136	-0.313180	1.196425
H114	H	1.799312	-0.228449	1.279163
C115	C	1.690278	-0.289157	1.436477
C116	C	1.743567	-0.328834	1.358806
H117	H	1.684001	-0.318734	1.497633
H118	H	1.622441	-0.276355	1.411782
H119	H	1.728257	-0.245466	1.452711
H120	H	1.705581	-0.372519	1.342564
H121	H	1.811398	-0.341644	1.383501
H122	H	1.354607	-0.793164	0.568521
H123	H	1.406496	-0.918992	0.371879
H124	H	1.656833	-0.920408	0.613890
H125	H	1.396333	-0.442503	0.907081
H126	H	1.651456	-0.792845	0.618442
O127	O	1.556477	-0.788913	0.321212
C128	C	1.632566	-0.743226	0.368451
H129	H	1.600169	-0.719795	0.444794
H130	H	1.705985	-0.776985	0.385630
C131	C	1.700053	-0.708144	0.199952
C132	C	1.660261	-0.679361	0.293714
H133	H	1.717142	-0.668751	0.153851
H134	H	1.648794	-0.738927	0.168126
H135	H	1.761231	-0.736277	0.214282
H136	H	1.599077	-0.651237	0.279384
H137	H	1.711510	-0.648572	0.325536
H138	H	1.652803	-0.261912	0.807632
O139	O	1.704779	-0.787726	0.471508
C140	C	1.802537	-0.816971	0.501982
H141	H	1.799399	-0.833464	0.588137
H142	H	1.821168	-0.867621	0.452231
C143	C	1.892250	-0.737961	0.380276
C144	C	1.888398	-0.758212	0.486096
H145	H	1.945214	-0.701718	0.370472
H146	H	1.826388	-0.718260	0.359741
H147	H	1.907771	-0.780175	0.338829
H148	H	1.872864	-0.716001	0.527538
H149	H	1.954259	-0.777905	0.506636
