data_functionalizedCrystal
_audit_creation_method	'MofGen! by Chris Wilmer'
_symmetry_space_group_name_H-M	'P1'
_symmetry_Int_Tables_number	1
_symmetry_cell_setting	triclinic
loop_
_symmetry_equiv_pos_as_xyz
  x,y,z
_cell_length_a	19.805407
_cell_length_b	16.120484
_cell_length_c	19.805399
_cell_angle_alpha	92.869501
_cell_angle_beta	89.983114
_cell_angle_gamma	92.925608
loop_
_atom_site_label
_atom_site_type_symbol
_atom_site_fract_x
_atom_site_fract_y
_atom_site_fract_z
Zn1	Zn	1.021057	-0.331915	-0.396377
Zn2	Zn	1.521057	0.168085	0.103623
Zn3	Zn	1.015239	-0.471337	-0.288925
Zn4	Zn	1.515239	0.028663	0.211075
Zn5	Zn	0.907876	-0.331942	-0.283202
Zn6	Zn	1.407876	0.168058	0.216798
Zn7	Zn	0.902099	-0.471289	-0.402070
Zn8	Zn	1.402099	0.028711	0.097930
O9	O	0.961568	-0.401621	-0.342643
O10	O	1.461568	0.098379	0.157357
O11	O	1.115002	-0.350419	-0.382135
O12	O	1.615002	0.149581	0.117865
O13	O	1.000980	-0.452877	-0.193450
O14	O	1.500980	0.047123	0.306550
O15	O	0.927742	-0.215272	-0.293437
O16	O	1.427742	0.284728	0.206563
O17	O	1.110727	-0.452851	-0.303191
O18	O	1.610727	0.047149	0.196809
O19	O	1.010896	-0.215253	-0.376586
O20	O	1.510896	0.284747	0.123414
O21	O	0.922101	-0.350464	-0.189246
O22	O	1.422101	0.149536	0.310754
O23	O	0.812394	-0.350418	-0.298958
O24	O	1.312394	0.149582	0.201042
O25	O	0.917896	-0.452770	-0.496030
O26	O	1.417896	0.047230	0.003970
O27	O	0.808149	-0.452796	-0.386289
O28	O	1.308149	0.047204	0.113711
O29	O	1.005294	-0.350373	-0.491847
O30	O	1.505294	0.149627	0.008153
O31	O	0.995378	-0.587997	-0.308711
O32	O	1.495378	-0.087997	0.191289
O33	O	0.912255	-0.587962	-0.391838
O34	O	1.412255	-0.087962	0.108162
C35	C	0.785713	-0.401605	-0.342621
C36	C	1.285713	0.098395	0.157379
C37	C	0.710480	-0.401618	-0.342628
C38	C	1.210480	0.098382	0.157372
C39	C	0.672940	-0.455007	-0.388035
C40	C	1.172940	0.044993	0.111965
C41	C	0.602252	-0.455008	-0.388044
C42	C	1.102252	0.044992	0.111956
C43	C	0.569104	-0.401625	-0.342643
C44	C	1.069104	0.098375	0.157357
C45	C	0.606649	-0.348230	-0.297235
C46	C	1.106649	0.151770	0.202765
C47	C	0.677336	-0.348225	-0.297229
C48	C	1.177336	0.151775	0.202771
C49	C	0.321575	-0.348249	-0.297258
C50	C	0.821575	0.151751	0.202742
C51	C	0.250882	-0.348260	-0.297266
C52	C	0.750882	0.151740	0.202734
C53	C	0.246490	-0.455032	-0.388073
C54	C	0.746490	0.044968	0.111927
C55	C	0.317178	-0.455027	-0.388067
C56	C	0.817178	0.044973	0.111933
C57	C	0.354717	-0.401630	-0.342661
C58	C	0.854717	0.098370	0.157339
C59	C	0.431365	-0.401628	-0.342652
C60	C	0.931365	0.098372	0.157348
C61	C	0.492457	-0.401630	-0.342649
C62	C	0.992457	0.098370	0.157351
C63	C	0.952577	-0.618229	-0.351528
C64	C	1.452577	-0.118229	0.148472
C65	C	0.948792	-0.710895	-0.355352
C66	C	1.448792	-0.210895	0.144648
C67	C	0.941887	-0.880557	-0.362347
C68	C	1.441887	-0.380557	0.137653
C69	C	0.981370	-0.921844	-0.322951
C70	C	1.481370	-0.421844	0.177049
C71	C	0.977528	-1.016250	-0.326843
C72	C	1.477528	-0.516250	0.173157
C73	C	0.945728	-0.786143	-0.358456
C74	C	1.445728	-0.286143	0.141544
C75	C	1.138110	-0.401638	-0.342666
C76	C	1.638110	0.098362	0.157334
C77	C	1.213342	-0.401645	-0.342676
C78	C	1.713342	0.098355	0.157324
C79	C	0.961600	-0.401563	-0.519184
C80	C	1.461600	0.098437	-0.019184
C81	C	0.961614	-0.401538	-0.594415
C82	C	1.461614	0.098462	-0.094415
C83	C	0.970612	-0.184167	-0.333738
C84	C	1.470612	0.315833	0.166262
C85	C	0.974467	-0.091501	-0.329944
C86	C	1.474467	0.408499	0.170056
C87	C	0.920554	-0.348207	-0.627569
C88	C	1.420554	0.151793	-0.127569
C89	C	0.920564	-0.348191	-0.698257
C90	C	1.420564	0.151809	-0.198257
C91	C	0.961638	-0.401502	-0.735789
C92	C	1.461638	0.098498	-0.235789
C93	C	1.002699	-0.454840	-0.702630
C94	C	1.502699	0.045160	-0.202630
C95	C	1.002685	-0.454860	-0.631944
C96	C	1.502685	0.045140	-0.131944
C97	C	1.002756	-0.454762	-0.987700
C98	C	1.502756	0.045238	-0.487700
C99	C	1.002768	-0.454736	-1.058391
C100	C	1.502768	0.045264	-0.558391
C101	C	0.920635	-0.348093	-1.054013
C102	C	1.420635	0.151907	-0.554013
C103	C	0.920621	-0.348113	-0.983327
C104	C	1.420621	0.151887	-0.483327
C105	C	0.961679	-0.401453	-0.950174
C106	C	1.461679	0.098547	-0.450174
C107	C	0.961667	-0.401471	-0.873527
C108	C	1.461667	0.098529	-0.373527
C109	C	0.961654	-0.401481	-0.812435
C110	C	1.461654	0.098519	-0.312435
C111	C	0.961577	-0.401618	-0.166787
C112	C	1.461577	0.098382	0.333213
C113	C	0.961705	-0.401408	-0.091547
C114	C	1.461705	0.098592	0.408453
H115	H	0.571690	-0.498483	-0.425018
H116	H	1.071690	0.001517	0.074982
O117	O	0.218651	-0.296520	-0.253089
O118	O	0.718651	0.203480	0.246911
C119	C	0.175775	-0.343924	-0.211266
C120	C	0.675775	0.156076	0.288734
H121	H	0.194356	-0.409577	-0.209695
H122	H	0.694356	0.090423	0.290305
H123	H	0.122087	-0.346837	-0.232307
H124	H	0.622087	0.153163	0.267693
C125	C	0.153540	-0.222452	-0.141210
C126	C	0.653540	0.277548	0.358790
C127	C	0.176366	-0.303086	-0.139276
C128	C	0.676366	0.196914	0.360724
H129	H	0.153902	-0.197260	-0.096804
H130	H	0.653902	0.302740	0.403196
H131	H	0.182424	-0.190514	-0.169388
H132	H	0.682424	0.309486	0.330612
H133	H	0.108802	-0.224890	-0.158748
H134	H	0.608802	0.275110	0.341252
H135	H	0.221105	-0.300646	-0.121747
H136	H	0.721105	0.199354	0.378253
H137	H	0.147489	-0.335023	-0.111093
H138	H	0.647489	0.164977	0.388907
H139	H	1.036126	-0.498281	-0.604950
H140	H	1.536126	0.001719	-0.104950
H141	H	1.018058	-0.886290	-0.286299
H142	H	1.518058	-0.386290	0.213701
O143	O	0.880682	-0.296443	-0.946800
O144	O	1.380682	0.203557	-0.446800
C145	C	0.834974	-0.343921	-0.907864
C146	C	1.334974	0.156079	-0.407864
H147	H	0.856218	-0.407106	-0.899864
H148	H	1.356218	0.092894	-0.399864
H149	H	0.784439	-0.353071	-0.935476
H150	H	1.284439	0.146929	-0.435476
C151	C	0.798518	-0.220467	-0.848666
C152	C	1.298518	0.279533	-0.348666
C153	C	0.824613	-0.298069	-0.838835
C154	C	1.324613	0.201931	-0.338835
H155	H	0.792124	-0.192183	-0.806086
H156	H	1.292124	0.307817	-0.306086
H157	H	0.829310	-0.188479	-0.874899
H158	H	1.329310	0.311521	-0.374899
H159	H	0.756409	-0.228103	-0.871678
H160	H	1.256409	0.271897	-0.371678
H161	H	0.866725	-0.290432	-0.815831
H162	H	1.366725	0.209568	-0.315831
H163	H	0.793827	-0.330055	-0.812596
H164	H	1.293827	0.169945	-0.312596
O165	O	0.898132	-0.923093	-0.406007
O166	O	1.398132	-0.423093	0.093993
C167	C	0.903998	-1.009248	-0.400224
C168	C	1.403998	-0.509248	0.099776
H169	H	0.925735	-1.021052	-0.348489
H170	H	1.425735	-0.521052	0.151511
H171	H	0.939029	-1.033889	-0.441404
H172	H	1.439029	-0.533889	0.058596
C173	C	0.807022	-1.039628	-0.471705
C174	C	1.307022	-0.539628	0.028295
C175	C	0.833715	-1.054127	-0.408161
C176	C	1.333715	-0.554127	0.091839
H177	H	0.763669	-1.067313	-0.476604
H178	H	1.263669	-0.567313	0.023396
H179	H	0.803071	-0.981585	-0.475604
H180	H	1.303071	-0.481585	0.024396
H181	H	0.836220	-1.060163	-0.506015
H182	H	1.336220	-0.560163	-0.006015
H183	H	0.804520	-1.033583	-0.373853
H184	H	1.304520	-0.533583	0.126147
H185	H	0.837659	-1.112168	-0.404256
H186	H	1.337659	-0.612168	0.095744
O187	O	0.880590	-0.296394	-0.591217
O188	O	1.380590	0.203606	-0.091217
C189	C	0.844363	-0.249306	-0.635641
C190	C	1.344363	0.250694	-0.135641
H191	H	0.840612	-0.283440	-0.687426
H192	H	1.340612	0.216560	-0.187426
H193	H	0.871782	-0.185987	-0.640570
H194	H	1.371782	0.314013	-0.140570
C195	C	0.777426	-0.195371	-0.543953
C196	C	1.277426	0.304629	-0.043953
C197	C	0.772814	-0.237299	-0.607555
C198	C	1.272814	0.262701	-0.107555
H199	H	0.733292	-0.187961	-0.526628
H200	H	1.233292	0.312039	-0.026628
H201	H	0.801834	-0.227092	-0.514023
H202	H	1.301834	0.272908	-0.014023
H203	H	0.800278	-0.142610	-0.548069
H204	H	1.300278	0.357390	-0.048069
H205	H	0.749970	-0.290063	-0.603437
H206	H	1.249970	0.209937	-0.103437
H207	H	0.748400	-0.205587	-0.637484
H208	H	1.248400	0.294413	-0.137484
O209	O	0.713772	-0.296458	-0.253025
O210	O	1.213772	0.203542	0.246975
C211	C	0.695712	-0.314560	-0.186286
C212	C	1.195712	0.185440	0.313714
H213	H	0.673514	-0.381157	-0.185514
H214	H	1.173514	0.118843	0.314486
H215	H	0.656531	-0.269836	-0.166819
H216	H	1.156531	0.230164	0.333181
C217	C	0.786159	-0.222989	-0.141670
C218	C	1.286159	0.277011	0.358330
C219	C	0.758900	-0.304788	-0.140721
C220	C	1.258900	0.195212	0.359279
H221	H	0.825135	-0.216959	-0.113562
H222	H	1.325135	0.283041	0.386438
H223	H	0.798325	-0.210791	-0.186633
H224	H	1.298325	0.289209	0.313367
H225	H	0.753502	-0.185728	-0.125449
H226	H	1.253502	0.314272	0.374551
H227	H	0.791554	-0.342047	-0.156949
H228	H	1.291554	0.157953	0.343051
H229	H	0.746741	-0.316993	-0.095760
H230	H	1.246741	0.183007	0.404240
O231	O	1.042685	-0.506609	-1.094750
O232	O	1.542685	-0.006609	-0.594750
C233	C	1.078933	-0.553680	-1.050332
C234	C	1.578933	-0.053680	-0.550332
H235	H	1.051081	-0.556581	-1.000058
H236	H	1.551081	-0.056581	-0.500058
H237	H	1.131609	-0.523165	-1.041570
H238	H	1.631609	-0.023165	-0.541570
C239	C	1.119204	-0.638840	-1.143304
C240	C	1.619204	-0.138840	-0.643304
C241	C	1.084992	-0.642408	-1.081560
C242	C	1.584992	-0.142408	-0.581560
H243	H	1.122944	-0.693571	-1.162568
H244	H	1.622944	-0.193571	-0.662568
H245	H	1.094785	-0.607126	-1.173231
H246	H	1.594785	-0.107126	-0.673231
H247	H	1.163097	-0.613407	-1.135995
H248	H	1.663097	-0.113407	-0.635995
H249	H	1.041097	-0.667832	-1.088871
H250	H	1.541097	-0.167832	-0.588871
H251	H	1.109404	-0.674129	-1.051635
H252	H	1.609404	-0.174129	-0.551635
H253	H	0.887201	-0.304663	-1.081015
H254	H	1.387201	0.195337	-0.581015
O255	O	1.042544	-0.506659	-0.955478
O256	O	1.542544	-0.006659	-0.455478
C257	C	1.001769	-0.560508	-0.916778
C258	C	1.501769	-0.060508	-0.416778
H259	H	0.948248	-0.565646	-0.938279
H260	H	1.448248	-0.065646	-0.438279
H261	H	1.000503	-0.534754	-0.862148
H262	H	1.500503	-0.034754	-0.362148
C263	C	1.096969	-0.640867	-0.892845
C264	C	1.596969	-0.140867	-0.392845
C265	C	1.031235	-0.647184	-0.919258
C266	C	1.531235	-0.147184	-0.419258
H267	H	1.115146	-0.694332	-0.894372
H268	H	1.615146	-0.194332	-0.394372
H269	H	1.124441	-0.604586	-0.918916
H270	H	1.624441	-0.104586	-0.418916
H271	H	1.095905	-0.619402	-0.847323
H272	H	1.595905	-0.119402	-0.347323
H273	H	1.032301	-0.668638	-0.964781
H274	H	1.532301	-0.168638	-0.464781
H275	H	1.003764	-0.683471	-0.893194
H276	H	1.503764	-0.183471	-0.393194
H277	H	0.887126	-0.304766	-0.725248
H278	H	1.387126	0.195234	-0.225248
H279	H	0.215918	-0.498507	-0.425048
H280	H	0.715918	0.001493	0.074952
O281	O	0.705031	-0.506891	-0.432203
O282	O	1.205031	-0.006891	0.067797
C283	C	0.656735	-0.554026	-0.472272
C284	C	1.156735	-0.054026	0.027728
H285	H	0.607764	-0.519884	-0.473262
H286	H	1.107764	-0.019884	0.026738
H287	H	0.646583	-0.617306	-0.449999
H288	H	1.146583	-0.117306	0.050001
C289	C	0.743992	-0.608085	-0.543573
C290	C	1.243992	-0.108085	-0.043573
C291	C	0.683847	-0.566148	-0.544794
C292	C	1.183847	-0.066148	-0.044794
H293	H	0.760716	-0.615566	-0.588307
H294	H	1.260716	-0.115566	-0.088307
H295	H	0.776530	-0.576332	-0.516577
H296	H	1.276530	-0.076332	-0.016577
H297	H	0.735523	-0.660814	-0.525009
H298	H	1.235523	-0.160814	-0.025009
H299	H	0.692317	-0.513416	-0.563349
H300	H	1.192317	-0.013416	-0.063349
H301	H	0.651310	-0.597892	-0.571795
H302	H	1.151310	-0.097892	-0.071795
O303	O	0.349271	-0.506910	-0.432235
O304	O	0.849271	-0.006910	0.067765
C305	C	0.300978	-0.554047	-0.472305
C306	C	0.800978	-0.054047	0.027695
H307	H	0.252006	-0.519909	-0.473297
H308	H	0.752006	-0.019909	0.026703
H309	H	0.290827	-0.617328	-0.450033
H310	H	0.790827	-0.117328	0.049967
C311	C	0.388239	-0.608101	-0.543603
C312	C	0.888239	-0.108101	-0.043603
C313	C	0.328092	-0.566168	-0.544826
C314	C	0.828092	-0.066168	-0.044826
H315	H	0.404965	-0.615582	-0.588336
H316	H	0.904965	-0.115582	-0.088336
H317	H	0.420775	-0.576347	-0.516606
H318	H	0.920775	-0.076347	-0.016606
H319	H	0.379772	-0.660831	-0.525039
H320	H	0.879772	-0.160831	-0.025039
H321	H	0.336562	-0.513436	-0.563381
H322	H	0.836562	-0.013436	-0.063381
H323	H	0.295557	-0.597915	-0.571828
H324	H	0.795557	-0.097915	-0.071828
H325	H	0.352131	-0.304776	-0.260280
H326	H	0.852131	0.195224	0.239720
H327	H	0.579655	-0.304761	-0.260271
H328	H	1.079655	0.195239	0.239729
H329	H	1.036139	-0.498251	-0.733195
H330	H	1.536139	0.001749	-0.233195
