data_functionalizedCrystal
_audit_creation_method	'MofGen! by Chris Wilmer'
_symmetry_space_group_name_H-M	'P1'
_symmetry_Int_Tables_number	1
_symmetry_cell_setting	triclinic
loop_
_symmetry_equiv_pos_as_xyz
  x,y,z
_cell_length_a	15.944493
_cell_length_b	14.044220
_cell_length_c	12.503552
_cell_angle_alpha	93.839943
_cell_angle_beta	93.522089
_cell_angle_gamma	91.668039
loop_
_atom_site_label
_atom_site_type_symbol
_atom_site_fract_x
_atom_site_fract_y
_atom_site_fract_z
O1	O	1.128127	-0.116507	0.089309
O2	O	1.628127	0.383493	0.589309
O3	O	0.884704	-0.131636	0.089315
O4	O	1.384704	0.368364	0.589315
O5	O	1.002761	0.013911	0.089302
O6	O	1.502761	0.513911	0.589302
O7	O	1.010070	-0.262055	0.089323
O8	O	1.510070	0.237945	0.589323
O9	O	0.993872	0.002956	-0.089340
O10	O	1.493872	0.502956	0.410660
O11	O	0.875815	-0.142592	-0.089326
O12	O	1.375815	0.357408	0.410674
O13	O	1.119238	-0.127463	-0.089332
O14	O	1.619238	0.372537	0.410668
Cu15	Cu	0.996715	-0.136028	-0.105641
Cu16	Cu	1.496715	0.363972	0.394359
Cu17	Cu	1.007227	-0.123072	0.105624
Cu18	Cu	1.507227	0.376928	0.605624
O19	O	1.001181	-0.273011	-0.089319
O20	O	1.501181	0.226989	0.410681
C21	C	0.848918	-0.136496	-0.000005
C22	C	1.348918	0.363504	0.499995
C23	C	0.755531	-0.134642	-0.000003
C24	C	1.255531	0.365358	0.499997
C25	C	0.526186	-0.220315	0.000004
C26	C	1.026186	0.279685	0.500004
C27	C	0.467786	-0.179517	-0.088084
C28	C	0.967786	0.320483	0.411916
C29	C	0.584552	-0.131207	-0.000006
C30	C	1.084552	0.368793	0.499994
C31	C	0.476552	-0.168694	0.088043
C32	C	0.976552	0.331306	0.588043
C33	C	0.419395	-0.127895	-0.000003
C34	C	0.919395	0.372105	0.499997
C35	C	0.527378	-0.090437	-0.088166
C36	C	1.027378	0.409563	0.411834
C37	C	0.536153	-0.079623	0.088040
C38	C	1.036153	0.420377	0.588040
C39	C	0.477779	-0.038761	-0.000070
C40	C	0.977779	0.461239	0.499930
C41	C	0.679695	-0.133117	-0.000008
C42	C	1.179695	0.366883	0.499992
C43	C	0.324254	-0.125978	-0.000009
C44	C	0.824254	0.374022	0.499991
C45	C	0.995118	0.043747	-0.000019
C46	C	1.495118	0.543747	0.499981
C47	C	0.985576	0.148972	-0.000021
C48	C	1.485576	0.648972	0.499979
C49	C	1.155024	-0.122603	-0.000010
C50	C	1.655024	0.377397	0.499990
C51	C	1.248411	-0.124457	-0.000004
C52	C	1.748411	0.375543	0.499996
C53	C	1.008824	-0.302847	0.000005
C54	C	1.508824	0.197153	0.500005
C55	C	1.018366	-0.408070	0.000013
C56	C	1.518366	0.091930	0.500013
N57	N	0.989327	-0.145140	-0.254233
N58	N	1.489327	0.354860	0.245767
C59	C	0.968133	0.341631	-0.000005
C60	C	1.468133	0.841631	0.499995
C61	C	1.035805	0.399276	-0.000003
C62	C	1.535805	0.899276	0.499997
C63	C	1.026099	0.506478	0.000006
C64	C	1.526099	1.006478	0.500006
C65	C	0.977838	0.234419	-0.000014
C66	C	1.477838	0.734419	0.499986
C67	C	1.025484	-0.100544	-0.526670
C68	C	1.525484	0.399456	-0.026670
C69	C	0.978466	-0.158544	-0.473340
C70	C	1.478466	0.341456	0.026660
C71	C	0.984511	-0.151084	-0.351417
C72	C	1.484511	0.348916	0.148583
C73	C	1.019441	-0.108003	-0.648604
C74	C	1.519441	0.391997	-0.148604
N75	N	1.014621	-0.113952	0.254215
N76	N	1.514621	0.386048	0.754215
H77	H	0.547554	-0.297077	-0.000073
H78	H	1.047554	0.202923	0.499927
H79	H	0.933675	-0.213803	-0.519251
H80	H	1.433675	0.286197	-0.019251
O81	O	0.432235	-0.230004	-0.176839
O82	O	0.932235	0.269996	0.323161
C83	C	0.456794	-0.325625	-0.176534
C84	C	0.956794	0.174375	0.323466
H85	H	0.475821	-0.342993	-0.090818
H86	H	0.975821	0.157007	0.409182
H87	H	0.402015	-0.375077	-0.209804
H88	H	0.902015	0.124923	0.290196
H89	H	0.512403	-0.336127	-0.228731
H90	H	1.012403	0.163873	0.271269
H91	H	0.549680	-0.057400	-0.162711
H92	H	1.049680	0.442600	0.337289
O93	O	0.452485	0.052875	-0.000323
O94	O	0.952485	0.552875	0.499677
C95	C	0.478448	0.093799	-0.093298
C96	C	0.978448	0.593799	0.406702
H97	H	0.488580	0.034795	-0.157908
H98	H	0.988580	0.534795	0.342092
H99	H	0.427989	0.142860	-0.124047
H100	H	0.927989	0.642860	0.375953
H101	H	0.539767	0.136833	-0.073124
H102	H	1.039767	0.636833	0.426876
H103	H	0.565989	-0.037453	0.162508
H104	H	1.065989	0.462547	0.662508
H105	H	1.070274	-0.045291	-0.480765
H106	H	1.570274	0.454709	0.019235
O107	O	0.449920	-0.208284	0.176857
O108	O	0.949920	0.291716	0.676857
C109	C	0.474425	-0.303952	0.176517
C110	C	0.974425	0.196048	0.676517
H111	H	0.530447	-0.314008	0.124943
H112	H	1.030447	0.185992	0.624943
H113	H	0.492812	-0.322014	0.262178
H114	H	0.992812	0.177986	0.762178
H115	H	0.419834	-0.353194	0.142156
H116	H	0.919834	0.146806	0.642156
O117	O	1.113555	0.361950	-0.000063
O118	O	1.613555	0.861950	0.499937
C119	C	1.106067	0.261671	-0.000045
C120	C	1.606067	0.761671	0.499955
H121	H	1.040541	0.236490	-0.033857
H122	H	1.540541	0.736490	0.466143
H123	H	1.155174	0.228052	-0.051921
H124	H	1.655174	0.728052	0.448079
H125	H	1.116432	0.239383	0.085655
H126	H	1.616432	0.739383	0.585655
O127	O	0.890383	0.378950	-0.000055
O128	O	1.390383	0.878950	0.499945
C129	C	0.897882	0.479231	-0.000023
C130	C	1.397882	0.979231	0.499977
H131	H	0.960045	0.500266	-0.033835
H132	H	1.460045	1.000266	0.466165
H133	H	0.843616	0.506505	-0.051892
H134	H	1.343616	1.006505	0.448108
H135	H	0.896048	0.512012	0.085681
H136	H	1.396048	1.012012	0.585681
