data_functionalizedCrystal
_audit_creation_method	'MofGen! by Chris Wilmer'
_symmetry_space_group_name_H-M	'P1'
_symmetry_Int_Tables_number	1
_symmetry_cell_setting	triclinic
loop_
_symmetry_equiv_pos_as_xyz
  x,y,z
_cell_length_a	14.853566
_cell_length_b	15.625429
_cell_length_c	13.330367
_cell_angle_alpha	71.918212
_cell_angle_beta	89.995295
_cell_angle_gamma	83.949208
loop_
_atom_site_label
_atom_site_type_symbol
_atom_site_fract_x
_atom_site_fract_y
_atom_site_fract_z
O1	O	1.196370	0.117697	-0.126166
O2	O	0.933911	0.131719	-0.131283
O3	O	1.072150	-0.006520	-0.080987
O4	O	1.058131	0.255936	-0.176462
O5	O	1.072130	-0.006523	0.085861
O6	O	0.933891	0.131716	0.035566
O7	O	1.196350	0.117693	0.040682
Cu8	Cu	1.065119	0.124704	0.053359
Cu9	Cu	1.065143	0.124708	-0.143959
O10	O	1.058111	0.255933	-0.009613
C11	C	0.900312	0.131082	-0.047630
C12	C	0.800228	0.129179	-0.046943
C13	C	0.377054	0.121130	-0.134946
C14	C	0.377054	0.121127	0.046958
C15	C	0.471088	0.122915	0.046305
C16	C	0.518109	0.123811	-0.044976
C17	C	0.471097	0.122920	-0.135603
C18	C	0.518106	0.123815	0.136927
C19	C	0.612146	0.125603	0.136277
C20	C	0.659170	0.126493	0.044998
C21	C	0.612152	0.125601	-0.045633
C22	C	0.659173	0.126498	-0.136914
C23	C	0.612158	0.125599	-0.227543
C24	C	0.518121	0.123810	-0.226883
C25	C	0.753207	0.128282	0.044337
C26	C	0.753216	0.128288	-0.137571
C27	C	1.071505	-0.040110	0.014653
C28	C	1.069600	-0.140192	0.051054
C29	C	1.063365	-0.469343	-0.283937
C30	C	1.061571	-0.563385	-0.249702
C31	C	1.061550	-0.563375	-0.067816
C32	C	1.063348	-0.469331	-0.102035
C33	C	1.064254	-0.422323	-0.210097
C34	C	1.064237	-0.422311	-0.028195
C35	C	1.066031	-0.328275	-0.062413
C36	C	1.066935	-0.281260	-0.170470
C37	C	1.066048	-0.328287	-0.244315
C38	C	1.063324	-0.469321	0.079866
C39	C	1.064214	-0.422300	0.153705
C40	C	1.066013	-0.328264	0.119489
C41	C	1.066917	-0.281248	0.011432
C42	C	1.066900	-0.281237	0.193333
C43	C	1.068694	-0.187201	0.159116
C44	C	1.068711	-0.187213	-0.022786
C45	C	1.229949	0.118330	-0.042973
C46	C	1.330033	0.120233	-0.043666
C47	C	1.058757	0.289522	-0.105256
C48	C	1.060661	0.389605	-0.141663
N49	N	1.065109	0.124701	0.192141
N50	N	1.065160	0.124704	-0.282739
C51	C	1.003927	0.185896	0.642499
C52	C	1.126382	0.063513	0.686994
C53	C	1.126372	0.063510	0.581977
C54	C	1.065139	0.124702	0.507215
C55	C	1.003917	0.185897	0.537471
C56	C	1.187599	0.002322	0.551711
C57	C	1.187592	0.002318	0.446688
C58	C	1.126354	0.063506	0.371925
C59	C	1.065129	0.124703	0.402187
C60	C	1.003897	0.185895	0.327425
C61	C	0.942666	0.247088	0.357686
C62	C	0.942680	0.247086	0.462709
C63	C	1.126341	0.063509	0.266903
C64	C	1.003887	0.185896	0.222397
H65	H	1.069457	-0.148936	-0.110780
O66	O	0.331533	0.120227	-0.223058
C67	C	0.341463	0.120486	-0.403578
C68	C	0.393131	0.121486	-0.303856
H69	H	0.391240	0.121522	-0.468936
H70	H	0.305636	0.056592	-0.384957
H71	H	0.289243	0.182674	-0.430688
H72	H	0.445395	0.059341	-0.276695
H73	H	0.428895	0.185420	-0.322534
H74	H	1.237448	-0.047509	0.422057
O75	O	0.944362	0.245368	0.671722
C76	C	0.822931	0.366787	0.616479
C77	C	0.890327	0.299471	0.583246
H78	H	0.779239	0.410559	0.544960
H79	H	0.777789	0.327822	0.679798
H80	H	0.861920	0.411857	0.649276
H81	H	0.851412	0.254384	0.550400
H82	H	0.935468	0.338492	0.519969
H83	H	0.479832	0.123078	-0.300668
H84	H	0.338763	0.120404	0.121272
H85	H	0.791482	0.129023	0.118123
O86	O	1.068554	-0.189897	-0.203595
C87	C	0.993048	-0.044824	-0.206549
C88	C	0.991114	-0.148277	-0.168946
H89	H	0.930436	-0.011142	-0.178570
H90	H	1.056530	-0.027404	-0.172528
H91	H	0.993586	-0.019334	-0.296463
H92	H	0.990542	-0.173839	-0.079040
H93	H	0.927638	-0.165636	-0.203046
H94	H	0.892829	0.296908	0.487354
O95	O	1.185938	0.004032	0.759472
C96	C	1.307335	-0.117419	0.792553
C97	C	1.239955	-0.050082	0.710352
H98	H	1.351012	-0.161201	0.752875
H99	H	1.352492	-0.078473	0.827520
H100	H	1.268332	-0.162479	0.858146
H101	H	1.278884	-0.005006	0.644698
H102	H	1.194799	-0.089085	0.675468
O103	O	0.798745	0.129198	-0.226348
C104	C	0.788828	0.128956	-0.406684
C105	C	0.737153	0.127943	-0.306226
H106	H	0.739056	0.127922	-0.471285
H107	H	0.824650	0.192853	-0.434549
H108	H	0.841052	0.066771	-0.388558
H109	H	0.684885	0.190084	-0.324269
H110	H	0.701393	0.064005	-0.278388
O111	O	0.472296	0.122913	0.225512
C112	C	0.327411	0.120225	0.307107
C113	C	0.379187	0.121219	0.206719
H114	H	0.252121	0.118875	0.291941
H115	H	0.354001	0.057526	0.374794
H116	H	0.337782	0.183611	0.328887
H117	H	0.368839	0.057876	0.184843
H118	H	0.352588	0.183960	0.139093
H119	H	1.237457	-0.047494	0.612583
O120	O	0.657680	0.126426	0.224417
C121	C	0.647740	0.126285	0.404894
C122	C	0.596063	0.125334	0.305157
H123	H	0.597943	0.125422	0.470191
H124	H	0.699911	0.064063	0.432143
H125	H	0.683626	0.190147	0.386155
H126	H	0.560123	0.061513	0.323813
H127	H	0.543944	0.187598	0.277935
H128	H	1.066794	-0.290011	-0.332309
O129	O	0.883222	0.306444	0.284934
C130	C	0.828995	0.360717	0.103397
C131	C	0.896345	0.293437	0.185690
H132	H	0.839594	0.350237	0.023135
H133	H	0.756755	0.348836	0.128297
H134	H	0.840817	0.432939	0.097830
H135	H	0.884605	0.221189	0.191298
H136	H	0.968562	0.305397	0.160757
O137	O	1.064209	-0.423806	-0.388951
C138	C	1.064106	-0.433738	-0.565763
C139	C	1.063128	-0.485418	-0.446877
H140	H	1.063252	-0.483531	-0.612630
H141	H	1.001889	-0.381562	-0.589369
H142	H	1.127974	-0.397859	-0.583299
H143	H	0.999302	-0.521351	-0.429254
H144	H	1.125388	-0.537542	-0.423333
H145	H	1.060839	-0.601665	-0.309840
H146	H	1.060808	-0.601662	0.020168
H147	H	1.061854	-0.545889	0.107721
O148	O	1.065977	-0.326761	0.298336
C149	C	1.066200	-0.316835	0.475151
C150	C	1.067227	-0.265167	0.356265
H151	H	1.067229	-0.267062	0.522021
H152	H	1.002299	-0.352654	0.492796
H153	H	1.128382	-0.369062	0.498649
H154	H	1.005088	-0.212897	0.332684
H155	H	1.131168	-0.229411	0.338685
O156	O	1.063376	-0.468113	0.258635
C157	C	1.060562	-0.612969	0.391965
C158	C	1.061523	-0.561203	0.273101
H159	H	1.059044	-0.688239	0.403698
H160	H	1.123971	-0.602720	0.433093
H161	H	0.997889	-0.586252	0.427102
H162	H	1.124154	-0.587887	0.237872
H163	H	0.998072	-0.571452	0.232049
O164	O	1.185847	0.003988	0.237692
C165	C	1.307354	-0.117355	0.292897
C166	C	1.239995	-0.050006	0.326123
H167	H	1.351163	-0.161014	0.364371
H168	H	1.268423	-0.162532	0.260203
H169	H	1.352385	-0.078328	0.229490
H170	H	1.194947	-0.088960	0.389558
H171	H	1.278982	-0.004830	0.358755
H172	H	0.954020	0.235723	0.161531
O173	O	0.657778	0.126634	-0.316296
C174	C	0.676414	0.205202	-0.500373
C175	C	0.624688	0.204150	-0.399936
H176	H	0.649668	0.267857	-0.568028
H177	H	0.751701	0.206700	-0.485347
H178	H	0.666125	0.141779	-0.522113
H179	H	0.634904	0.267560	-0.378141
H180	H	0.549420	0.202605	-0.415015
O181	O	1.069397	-0.141451	0.230784
C182	C	0.993387	-0.025101	0.293959
C183	C	0.992476	-0.076863	0.212753
H184	H	0.931214	0.027142	0.279395
H185	H	0.992375	-0.074795	0.377098
H186	H	1.057294	0.010711	0.285456
H187	H	0.928580	-0.112679	0.221159
H188	H	0.993537	-0.027127	0.129646
