data_functionalizedCrystal
_audit_creation_method	'MofGen! by Chris Wilmer'
_symmetry_space_group_name_H-M	'P1'
_symmetry_Int_Tables_number	1
_symmetry_cell_setting	triclinic
loop_
_symmetry_equiv_pos_as_xyz
  x,y,z
_cell_length_a	22.610064
_cell_length_b	27.732025
_cell_length_c	23.532407
_cell_angle_alpha	82.741073
_cell_angle_beta	89.997161
_cell_angle_gamma	90.018575
loop_
_atom_site_label
_atom_site_type_symbol
_atom_site_fract_x
_atom_site_fract_y
_atom_site_fract_z
O1	O	-0.049093	0.058673	0.755133
O2	O	0.284241	0.392006	1.088466
O3	O	0.617574	0.725339	1.421799
O4	O	-0.049107	0.067163	0.589250
O5	O	0.284226	0.400496	0.922584
O6	O	0.617559	0.733830	1.255917
O7	O	-0.049117	-0.007472	0.677350
O8	O	0.284216	0.325862	1.010683
O9	O	0.617549	0.659195	1.344017
O10	O	-0.049082	0.133307	0.667033
O11	O	0.284251	0.466641	1.000366
O12	O	0.617584	0.799974	1.333700
O13	O	0.049252	-0.007461	0.677335
O14	O	0.382585	0.325873	1.010668
O15	O	0.715918	0.659206	1.344001
O16	O	0.049262	0.067174	0.589235
O17	O	0.382595	0.400507	0.922568
O18	O	0.715929	0.733841	1.255901
O19	O	0.049277	0.058684	0.755117
O20	O	0.382610	0.392017	1.088450
O21	O	0.715943	0.725350	1.421784
Zn22	Zn	0.064887	0.062931	0.672173
Zn23	Zn	0.398221	0.396264	1.005507
Zn24	Zn	0.731554	0.729597	1.338840
Zn25	Zn	-0.064718	0.062916	0.672194
Zn26	Zn	0.268615	0.396249	1.005527
Zn27	Zn	0.601948	0.729583	1.338861
O28	O	0.049287	0.133318	0.667017
O29	O	0.382620	0.466652	1.000351
O30	O	0.715953	0.799985	1.333684
C31	C	0.000075	0.066952	0.568027
C32	C	0.333408	0.400286	0.901360
C33	C	0.666742	0.733619	1.234694
C34	C	0.000068	0.066302	0.504811
C35	C	0.333402	0.399636	0.838145
C36	C	0.666735	0.732969	1.171478
N37	N	0.153340	0.062940	0.672164
N38	N	0.486673	0.396273	1.005497
N39	N	0.820007	0.729607	1.338830
C40	C	0.000061	-0.025474	0.677128
C41	C	0.333395	0.307860	1.010461
C42	C	0.666728	0.641193	1.343794
C43	C	0.000044	-0.079130	0.676482
C44	C	0.333377	0.254203	1.009815
C45	C	0.666710	0.587536	1.343148
N46	N	-0.153171	0.062903	0.672208
N47	N	0.180163	0.396236	1.005542
N48	N	0.513496	0.729569	1.338875
C49	C	0.561977	0.029873	0.711206
C50	C	0.895310	0.363206	1.044540
C51	C	1.228643	0.696540	1.377873
C52	C	0.623897	0.029869	0.711209
C53	C	0.957230	0.363203	1.044542
C54	C	1.290563	0.696536	1.377876
O55	O	0.655912	0.001762	0.744380
O56	O	0.989245	0.335095	1.077714
O57	O	1.322578	0.668428	1.411047
N58	N	0.654877	0.062906	0.672194
N59	N	0.988210	0.396239	1.005527
N60	N	1.321544	0.729573	1.338860
C61	C	0.623934	0.095945	0.633169
C62	C	0.957268	0.429279	0.966502
C63	C	1.290601	0.762612	1.299835
O64	O	0.655971	0.124045	0.599983
O65	O	0.989305	0.457378	0.933316
O66	O	1.322638	0.790712	1.266649
C67	C	0.562015	0.095946	0.633163
C68	C	0.895349	0.429279	0.966497
C69	C	1.228682	0.762613	1.299830
C70	C	0.531038	0.062910	0.672185
C71	C	0.864372	0.396244	1.005519
C72	C	1.197705	0.729577	1.338852
C73	C	0.531000	-0.003160	0.750225
C74	C	0.864333	0.330173	1.083558
C75	C	1.197666	0.663506	1.416891
C76	C	0.469084	-0.003156	0.750222
C77	C	0.802417	0.330177	1.083556
C78	C	1.135751	0.663510	1.416889
C79	C	0.438146	0.029881	0.711201
C80	C	0.771479	0.363215	1.044535
C81	C	1.104812	0.696548	1.377868
C82	C	0.469123	0.062915	0.672183
C83	C	0.802456	0.396248	1.005516
C84	C	1.135789	0.729581	1.338850
C85	C	0.531074	0.128983	0.594136
C86	C	0.864407	0.462316	0.927470
C87	C	1.197741	0.795649	1.260803
C88	C	0.469151	0.128980	0.594134
C89	C	0.802484	0.462314	0.927468
C90	C	1.135818	0.795647	1.260801
C91	C	0.438174	0.095945	0.633156
C92	C	0.771507	0.429278	0.966490
C93	C	1.104840	0.762611	1.299823
C94	C	0.376269	0.095957	0.633160
C95	C	0.709602	0.429290	0.966493
C96	C	1.042935	0.762623	1.299827
N97	N	0.345288	0.062920	0.672176
N98	N	0.678622	0.396253	1.005509
N99	N	1.011955	0.729586	1.338842
C100	C	0.376227	0.029882	0.711196
C101	C	0.709560	0.363216	1.044530
C102	C	1.042893	0.696549	1.377863
C103	C	0.753968	0.095940	0.633182
C104	C	1.087301	0.429274	0.966515
C105	C	1.420635	0.762607	1.299848
C106	C	0.815886	0.095942	0.633189
C107	C	1.149219	0.429276	0.966523
C108	C	1.482552	0.762609	1.299856
C109	C	0.815844	0.029866	0.711229
C110	C	1.149177	0.363199	1.044563
C111	C	1.482510	0.696532	1.377896
C112	C	0.753925	0.029866	0.711224
C113	C	1.087258	0.363200	1.044557
C114	C	1.420592	0.696533	1.377891
C115	C	0.722988	0.062904	0.672197
C116	C	1.056321	0.396237	1.005531
C117	C	1.389654	0.729570	1.338864
C118	C	0.246199	0.029894	0.711189
C119	C	0.579533	0.363227	1.044522
C120	C	0.912866	0.696561	1.377855
C121	C	0.184278	0.029902	0.711184
C122	C	0.517612	0.363236	1.044518
C123	C	0.850945	0.696569	1.377851
C124	C	0.184326	0.095977	0.633143
C125	C	0.517659	0.429310	0.966476
C126	C	0.850992	0.762644	1.299809
C127	C	0.246241	0.095971	0.633149
C128	C	0.579575	0.429304	0.966482
C129	C	0.912908	0.762637	1.299815
C130	C	0.277177	0.062925	0.672174
C131	C	0.610510	0.396258	1.005507
C132	C	0.943843	0.729592	1.338841
O133	O	0.344214	0.124048	0.600004
O134	O	0.677548	0.457382	0.933338
O135	O	1.010881	0.790715	1.266671
O136	O	0.344182	0.001783	0.744372
O137	O	0.677516	0.335116	1.077705
O138	O	1.010849	0.668450	1.411038
C139	C	-0.053543	-0.462309	0.671899
C140	C	0.279790	-0.128975	1.005232
C141	C	0.613123	0.204358	1.338566
C142	C	-0.053562	-0.260646	0.674317
C143	C	0.279771	0.072688	1.007651
C144	C	0.613104	0.406021	1.340984
O145	O	-0.099166	-0.234583	0.674660
O146	O	0.234167	0.098751	1.007993
O147	O	0.567500	0.432084	1.341327
N148	N	0.000057	-0.235418	0.674611
N149	N	0.333391	0.097915	1.007944
N150	N	0.666724	0.431249	1.341278
C151	C	0.053685	-0.260610	0.674304
C152	C	0.387019	0.072724	1.007637
C153	C	0.720352	0.406057	1.340971
O154	O	0.099291	-0.234525	0.674615
O155	O	0.432625	0.098808	1.007949
O156	O	0.765958	0.432141	1.341282
C157	C	0.053703	-0.462272	0.671890
C158	C	0.387037	-0.128939	1.005223
C159	C	0.720370	0.204394	1.338557
C160	C	0.000080	-0.487497	0.671590
C161	C	0.333414	-0.154163	1.004924
C162	C	0.666747	0.179170	1.338257
C163	C	-0.107162	-0.487533	0.671600
C164	C	0.226171	-0.154200	1.004933
C165	C	0.559505	0.179134	1.338267
C166	C	-0.107157	-0.537946	0.670992
C167	C	0.226177	-0.204612	1.004326
C168	C	0.559510	0.128721	1.337659
C169	C	-0.053533	-0.563133	0.670684
C170	C	0.279800	-0.229800	1.004017
C171	C	0.613134	0.103533	1.337350
C172	C	0.000086	-0.537909	0.670983
C173	C	0.333419	-0.204576	1.004316
C174	C	0.666752	0.128758	1.337649
C175	C	0.107331	-0.487464	0.671587
C176	C	0.440664	-0.154130	1.004920
C177	C	0.773998	0.179203	1.338254
C178	C	0.107331	-0.537883	0.670985
C179	C	0.440664	-0.204549	1.004318
C180	C	0.773997	0.128784	1.337652
C181	C	0.053708	-0.563107	0.670685
C182	C	0.387041	-0.229774	1.004019
C183	C	0.720374	0.103560	1.337352
C184	C	0.053715	-0.613509	0.670066
C185	C	0.387048	-0.280176	1.003400
C186	C	0.720382	0.053157	1.336733
N187	N	0.000095	-0.638737	0.669772
N188	N	0.333429	-0.305404	1.003106
N189	N	0.666762	0.027930	1.336439
C190	C	-0.053529	-0.613549	0.670081
C191	C	0.279805	-0.280216	1.003415
C192	C	0.613138	0.053118	1.336748
C193	C	0.053672	-0.154734	0.675570
C194	C	0.387005	0.178600	1.008904
C195	C	0.720339	0.511933	1.342237
C196	C	0.053668	-0.104318	0.676173
C197	C	0.387001	0.229015	1.009506
C198	C	0.720334	0.562349	1.342840
C199	C	-0.053580	-0.104358	0.676187
C200	C	0.279753	0.228976	1.009520
C201	C	0.613086	0.562309	1.342854
C202	C	-0.053575	-0.154774	0.675580
C203	C	0.279758	0.178560	1.008914
C204	C	0.613091	0.511893	1.342247
C205	C	0.000052	-0.179961	0.675277
C206	C	0.333386	0.153372	1.008610
C207	C	0.666719	0.486705	1.341943
C208	C	-0.053513	-0.719419	0.668805
C209	C	0.279820	-0.386085	1.002138
C210	C	0.613153	-0.052752	1.335471
C211	C	-0.053503	-0.769835	0.668194
C212	C	0.279830	-0.436502	1.001528
C213	C	0.613163	-0.103169	1.334861
C214	C	0.053744	-0.769792	0.668183
C215	C	0.387077	-0.436458	1.001517
C216	C	0.720411	-0.103125	1.334850
C217	C	0.053734	-0.719379	0.668790
C218	C	0.387068	-0.386046	1.002124
C219	C	0.720401	-0.052712	1.335457
C220	C	0.000101	-0.694194	0.669103
C221	C	0.333434	-0.360861	1.002436
C222	C	0.666767	-0.027527	1.335770
O223	O	0.099295	-0.639604	0.669730
O224	O	0.432628	-0.306271	1.003063
O225	O	0.765962	0.027063	1.336396
O226	O	-0.099128	-0.639643	0.669782
O227	O	0.234205	-0.306310	1.003116
O228	O	0.567539	0.027023	1.336449
C229	C	-0.053549	-0.411896	0.672507
C230	C	0.279785	-0.078563	1.005840
C231	C	0.613118	0.254770	1.339173
C232	C	0.000070	-0.386672	0.672806
C233	C	0.333403	-0.053338	1.006139
C234	C	0.666737	0.279995	1.339472
C235	C	0.053694	-0.411860	0.672497
C236	C	0.387027	-0.078526	1.005830
C237	C	0.720361	0.254807	1.339164
C238	C	0.000066	-0.336256	0.673408
C239	C	0.333399	-0.002923	1.006741
C240	C	0.666732	0.330410	1.340075
C241	C	-0.053558	-0.311068	0.673717
C242	C	0.279775	0.022265	1.007050
C243	C	0.613108	0.355598	1.340383
C244	C	-0.107178	-0.336296	0.673423
C245	C	0.226156	-0.002963	1.006756
C246	C	0.559489	0.330371	1.340090
C247	C	-0.107173	-0.386708	0.672815
C248	C	0.226161	-0.053375	1.006149
C249	C	0.559494	0.279958	1.339482
C250	C	0.107313	-0.386632	0.672791
C251	C	0.440647	-0.053299	1.006124
C252	C	0.773980	0.280035	1.339457
C253	C	0.107304	-0.336220	0.673398
C254	C	0.440637	-0.002886	1.006731
C255	C	0.773970	0.330447	1.340064
C256	C	0.053680	-0.311032	0.673706
C257	C	0.387013	0.022302	1.007040
C258	C	0.720346	0.355635	1.340373
C259	C	0.000107	0.151320	0.667240
C260	C	0.333440	0.484654	1.000573
C261	C	0.666773	0.817987	1.333906
C262	C	0.000120	0.204977	0.667886
C263	C	0.333454	0.538310	1.001219
C264	C	0.666787	0.871643	1.334552
C265	C	0.000105	0.106392	0.105619
C266	C	0.333438	0.439726	0.438952
C267	C	0.666772	0.773059	0.772286
C268	C	0.000108	0.105789	0.046220
C269	C	0.333442	0.439122	0.379553
C270	C	0.666775	0.772455	0.712887
O271	O	0.000139	0.142953	0.009393
O272	O	0.333473	0.476286	0.342726
O273	O	0.666806	0.809619	0.676059
N274	N	0.000096	0.061418	0.023693
N275	N	0.333430	0.394752	0.357026
N276	N	0.666763	0.728085	0.690359
C277	C	0.000087	0.017649	0.060568
C278	C	0.333420	0.350982	0.393901
C279	C	0.666754	0.684316	0.727235
O280	O	0.000078	-0.020147	0.035953
O281	O	0.333411	0.313186	0.369286
O282	O	0.666744	0.646520	0.702619
C283	C	0.000088	0.018253	0.119966
C284	C	0.333421	0.351587	0.453299
C285	C	0.666754	0.684920	0.786632
C286	C	0.000094	0.062626	0.142489
C287	C	0.333427	0.395960	0.475823
C288	C	0.666760	0.729293	0.809156
C289	C	0.000112	0.150762	0.128143
C290	C	0.333445	0.484095	0.461476
C291	C	0.666778	0.817429	0.794810
C292	C	0.000107	0.151366	0.187538
C293	C	0.333440	0.484699	0.520871
C294	C	0.666774	0.818032	0.854205
C295	C	0.000096	0.107600	0.224408
C296	C	0.333429	0.440933	0.557742
C297	C	0.666763	0.774266	0.891075
C298	C	0.000089	0.063230	0.201884
C299	C	0.333423	0.396563	0.535218
C300	C	0.666756	0.729897	0.868551
C301	C	0.000083	-0.025516	0.156840
C302	C	0.333416	0.307818	0.490173
C303	C	0.666749	0.641151	0.823507
C304	C	0.000084	-0.024907	0.216241
C305	C	0.333417	0.308426	0.549574
C306	C	0.666750	0.641759	0.882908
C307	C	0.000090	0.019466	0.238765
C308	C	0.333423	0.352799	0.572098
C309	C	0.666756	0.686132	0.905431
C310	C	0.000073	0.020068	0.298150
C311	C	0.333407	0.353401	0.631483
C312	C	0.666740	0.686734	0.964816
N313	N	0.000085	0.064438	0.320677
N314	N	0.333419	0.397771	0.654010
N315	N	0.666752	0.731105	0.987343
C316	C	0.000097	0.108204	0.283806
C317	C	0.333430	0.441537	0.617140
C318	C	0.666763	0.774871	0.950473
C319	C	0.000086	0.016383	-0.064172
C320	C	0.333420	0.349716	0.269162
C321	C	0.666753	0.683050	0.602495
C322	C	0.000081	0.015778	-0.123568
C323	C	0.333415	0.349111	0.209765
C324	C	0.666748	0.682445	0.543098
C325	C	0.000104	0.103918	-0.137912
C326	C	0.333437	0.437251	0.195421
C327	C	0.666771	0.770585	0.528754
C328	C	0.000105	0.104522	-0.078515
C329	C	0.333438	0.437856	0.254819
C330	C	0.666771	0.771189	0.588152
C331	C	0.000098	0.060753	-0.041645
C332	C	0.333432	0.394087	0.291689
C333	C	0.666765	0.727420	0.625022
C334	C	0.000087	0.109468	0.408540
C335	C	0.333420	0.442802	0.741873
C336	C	0.666753	0.776135	1.075207
C337	C	0.000080	0.110068	0.467941
C338	C	0.333413	0.443402	0.801274
C339	C	0.666746	0.776735	1.134608
C340	C	0.000060	0.021929	0.482280
C341	C	0.333393	0.355262	0.815613
C342	C	0.666727	0.688595	1.148946
C343	C	0.000064	0.021329	0.422884
C344	C	0.333397	0.354662	0.756217
C345	C	0.666731	0.687995	1.089551
C346	C	0.000079	0.065102	0.386015
C347	C	0.333413	0.398436	0.719349
C348	C	0.666746	0.731769	1.052682
O349	O	0.000045	-0.017077	0.335012
O350	O	0.333378	0.316257	0.668345
O351	O	0.666712	0.649590	1.001678
O352	O	0.000114	0.145994	0.308430
O353	O	0.333447	0.479327	0.641763
O354	O	0.666780	0.812660	0.975096
C355	C	0.000093	0.058894	0.776340
C356	C	0.333426	0.392228	1.109674
C357	C	0.666760	0.725561	1.443007
C358	C	0.000096	0.059544	0.839556
C359	C	0.333429	0.392878	1.172889
C360	C	0.666762	0.726211	1.506223
H361	H	0.159059	0.003001	0.742963
H362	H	0.492392	0.336334	1.076296
H363	H	0.825725	0.669667	1.409629
H364	H	-0.097243	-0.083841	0.676435
H365	H	0.236090	0.249493	1.009768
H366	H	0.569424	0.582826	1.343101
N367	N	-0.111347	-0.797037	0.667898
N368	N	0.221986	-0.463703	1.001231
N369	N	0.555319	-0.130370	1.334565
H370	H	-0.134808	-0.784185	0.632698
H371	H	0.198526	-0.450852	0.966031
H372	H	0.531859	-0.117518	1.299365
H373	H	-0.134720	-0.792337	0.703357
H374	H	0.198613	-0.459003	1.036690
H375	H	0.531947	-0.125670	1.370023
H376	H	0.097333	-0.083783	0.676406
H377	H	0.430666	0.249550	1.009739
H378	H	0.763999	0.582883	1.343073
N379	N	0.279560	-0.005744	0.753282
N380	N	0.612894	0.327589	1.086616
N381	N	0.946227	0.660923	1.419949
H382	H	0.250533	-0.026666	0.777999
H383	H	0.583867	0.306668	1.111332
H384	H	0.917200	0.640001	1.444665
H385	H	0.305254	0.012655	0.778294
H386	H	0.638587	0.345989	1.111627
H387	H	0.971920	0.679322	1.444961
H388	H	0.097398	-0.698838	0.669012
H389	H	0.430732	-0.365504	1.002345
H390	H	0.764065	-0.032171	1.335678
H391	H	0.159126	0.122877	0.601374
H392	H	0.492459	0.456211	0.934707
H393	H	0.825792	0.789544	1.268041
H394	H	0.150973	-0.315686	0.673636
H395	H	0.484307	0.017648	1.006970
H396	H	0.817640	0.350981	1.340303
H397	H	-0.097240	-0.175308	0.675335
H398	H	0.236094	0.158025	1.008669
H399	H	0.569427	0.491359	1.342002
H400	H	0.443866	-0.030058	0.781996
H401	H	0.777199	0.303275	1.115329
H402	H	1.110533	0.636609	1.448662
H403	H	0.556184	-0.030066	0.782000
H404	H	0.889518	0.303268	1.115333
H405	H	1.222851	0.636601	1.448667
N406	N	0.279657	0.131608	0.591072
N407	N	0.612990	0.464942	0.924405
N408	N	0.946324	0.798275	1.257738
H409	H	0.250659	0.152540	0.566355
H410	H	0.583993	0.485873	0.899688
H411	H	0.917326	0.819207	1.233022
H412	H	0.305339	0.113211	0.566059
H413	H	0.638673	0.446544	0.899392
H414	H	0.972006	0.779878	1.232725
N415	N	0.849219	-0.005769	0.753317
N416	N	1.182552	0.327564	1.086651
N417	N	1.515886	0.660897	1.419984
H418	H	0.893144	-0.000755	0.747395
H419	H	1.226477	0.332578	1.080728
H420	H	1.559811	0.665911	1.414062
H421	H	0.838384	-0.040034	0.747045
H422	H	1.171717	0.293300	1.080378
H423	H	1.505051	0.626633	1.413712
H424	H	0.000067	-0.020355	-0.141901
H425	H	0.333401	0.312978	0.191432
H426	H	0.666734	0.646312	0.524765
N427	N	0.720516	-0.005764	0.753311
N428	N	1.053849	0.327569	1.086644
N429	N	1.387183	0.660902	1.419978
H430	H	0.749517	-0.026691	0.778030
H431	H	1.082850	0.306643	1.111364
H432	H	1.416183	0.639976	1.444697
H433	H	0.694821	-0.027043	0.731700
H434	H	1.028155	0.306290	1.065034
H435	H	1.361488	0.639623	1.398367
H436	H	0.097344	-0.175237	0.675323
H437	H	0.430678	0.158096	1.008656
H438	H	0.764011	0.491430	1.341990
H439	H	0.841103	0.122848	0.601420
H440	H	1.174436	0.456181	0.934753
H441	H	1.507770	0.789515	1.268087
H442	H	0.728782	0.122847	0.601403
H443	H	1.062115	0.456181	0.934736
H444	H	1.395448	0.789514	1.268070
H445	H	0.556287	0.155883	0.562361
H446	H	0.889620	0.489216	0.895694
H447	H	1.222953	0.822549	1.229028
N448	N	0.165168	-0.460266	0.671915
N449	N	0.498501	-0.126933	1.005248
N450	N	0.831834	0.206401	1.338581
H451	H	0.199133	-0.483880	0.671633
H452	H	0.532467	-0.150547	1.004966
H453	H	0.865800	0.182786	1.338299
H454	H	0.167500	-0.443438	0.707487
H455	H	0.500834	-0.110104	1.040820
H456	H	0.834167	0.223229	1.374153
N457	N	0.111579	-0.796965	0.667860
N458	N	0.444912	-0.463631	1.001193
N459	N	0.778246	-0.130298	1.334526
H460	H	0.103441	-0.832730	0.667436
H461	H	0.436774	-0.499396	1.000769
H462	H	0.770107	-0.166063	1.334103
H463	H	0.134985	-0.792230	0.703287
H464	H	0.468318	-0.458896	1.036621
H465	H	0.801652	-0.125563	1.369954
H466	H	-0.097187	-0.698919	0.669060
H467	H	0.236146	-0.365586	1.002393
H468	H	0.569480	-0.032252	1.335726
N469	N	-0.164993	-0.565156	0.670738
N470	N	0.168340	-0.231823	1.004071
N471	N	0.501674	0.101511	1.337404
H472	H	-0.198960	-0.541546	0.671049
H473	H	0.134374	-0.208213	1.004382
H474	H	0.467707	0.125121	1.337716
H475	H	-0.167280	-0.590140	0.705829
H476	H	0.166053	-0.256807	1.039162
H477	H	0.499387	0.076527	1.372496
N478	N	0.000080	0.157930	0.492234
N479	N	0.333413	0.491263	0.825567
N480	N	0.666747	0.824596	1.158901
H481	H	0.000089	0.185562	0.459860
H482	H	0.333422	0.518896	0.793193
H483	H	0.666755	0.852229	1.126527
H484	H	0.036544	0.160108	0.516567
H485	H	0.369877	0.493441	0.849901
H486	H	0.703211	0.826774	1.183234
N487	N	0.000114	0.199229	0.211820
N488	N	0.333447	0.532562	0.545153
N489	N	0.666781	0.865895	0.878486
H490	H	0.036585	0.218391	0.198340
H491	H	0.369918	0.551725	0.531673
H492	H	0.703251	0.885058	0.865007
H493	H	0.000088	0.192941	0.255040
H494	H	0.333421	0.526275	0.588373
H495	H	0.666754	0.859608	0.921706
H496	H	0.000123	0.186404	0.098128
H497	H	0.333456	0.519737	0.431462
H498	H	0.666790	0.853070	0.764795
N499	N	0.000151	0.151132	-0.177672
N500	N	0.333484	0.484465	0.155661
N501	N	0.666818	0.817799	0.488994
H502	H	-0.036300	0.170515	-0.170480
H503	H	0.297033	0.503848	0.162854
H504	H	0.630366	0.837181	0.496187
H505	H	0.000184	0.143986	-0.218705
H506	H	0.333517	0.477319	0.114628
H507	H	0.666850	0.810652	0.447961
N508	N	0.165173	-0.565049	0.670660
N509	N	0.498507	-0.231716	1.003994
N510	N	0.831840	0.101617	1.337327
H511	H	0.199138	-0.541417	0.670942
H512	H	0.532471	-0.208083	1.004275
H513	H	0.865805	0.125250	1.337609
H514	H	0.167515	-0.581879	0.635090
H515	H	0.500848	-0.248546	0.968423
H516	H	0.834181	0.084788	1.301757
N517	N	0.435783	0.164612	0.552038
N518	N	0.769116	0.497945	0.885371
N519	N	1.102450	0.831279	1.218704
H520	H	0.464806	0.185537	0.527321
H521	H	0.798140	0.518870	0.860654
H522	H	1.131473	0.852203	1.193988
H523	H	0.410100	0.185893	0.573643
H524	H	0.743433	0.519226	0.906976
H525	H	1.076767	0.852559	1.240310
H526	H	-0.150831	-0.467031	0.671853
H527	H	0.182502	-0.133697	1.005187
H528	H	0.515835	0.199636	1.338520
H529	H	0.000113	0.140655	-0.060180
H530	H	0.333446	0.473988	0.273153
H531	H	0.666780	0.807322	0.606486
N532	N	-0.165009	-0.413915	0.672530
N533	N	0.168324	-0.080582	1.005864
N534	N	0.501658	0.252751	1.339197
H535	H	-0.198975	-0.390304	0.672831
H536	H	0.134358	-0.056971	1.006165
H537	H	0.467691	0.276362	1.339498
H538	H	-0.167318	-0.438909	0.707611
H539	H	0.166015	-0.105575	1.040944
H540	H	0.499348	0.227758	1.374278
H541	H	0.000101	0.145113	0.378528
H542	H	0.333434	0.478447	0.711861
H543	H	0.666768	0.811780	1.045194
N544	N	-0.165016	-0.309119	0.673713
N545	N	0.168317	0.024214	1.007046
N546	N	0.501651	0.357548	1.340380
H547	H	-0.156876	-0.273353	0.674130
H548	H	0.176457	0.059980	1.007463
H549	H	0.509790	0.393313	1.340797
H550	H	-0.188459	-0.322009	0.708917
H551	H	0.144874	0.011324	1.042250
H552	H	0.478207	0.344658	1.375583
N553	N	0.165153	-0.413795	0.672460
N554	N	0.498487	-0.080462	1.005793
N555	N	0.831820	0.252871	1.339126
H556	H	0.199116	-0.390160	0.672738
H557	H	0.532449	-0.056827	1.006072
H558	H	0.865783	0.276507	1.339405
H559	H	0.167493	-0.430623	0.636888
H560	H	0.500826	-0.097290	0.970222
H561	H	0.834159	0.236043	1.303555
H562	H	0.000078	-0.061649	0.138512
H563	H	0.333411	0.271684	0.471845
H564	H	0.666745	0.605018	0.805179
H565	H	0.000079	-0.060550	0.246258
H566	H	0.333412	0.272783	0.579592
H567	H	0.666746	0.606116	0.912925
H568	H	0.000076	-0.019261	-0.034155
H569	H	0.333409	0.314072	0.299179
H570	H	0.666743	0.647405	0.632512
H571	H	0.000050	-0.014804	0.404545
H572	H	0.333384	0.318530	0.737878
H573	H	0.666717	0.651863	1.071211
H574	H	0.000049	-0.013704	0.512310
H575	H	0.333382	0.319629	0.845643
H576	H	0.666715	0.652962	1.178977
