data_functionalizedCrystal
_audit_creation_method	'MofGen! by Chris Wilmer'
_symmetry_space_group_name_H-M	'P1'
_symmetry_Int_Tables_number	1
_symmetry_cell_setting	triclinic
loop_
_symmetry_equiv_pos_as_xyz
  x,y,z
_cell_length_a	12.759401
_cell_length_b	15.297327
_cell_length_c	15.298259
_cell_angle_alpha	88.343348
_cell_angle_beta	99.660824
_cell_angle_gamma	99.708126
loop_
_atom_site_label
_atom_site_type_symbol
_atom_site_fract_x
_atom_site_fract_y
_atom_site_fract_z
Zn1	Zn	1.441228	-0.262945	-0.555548
Zn2	Zn	1.430864	-0.434793	-0.434408
Zn3	Zn	1.289924	-0.288336	-0.409096
Zn4	Zn	1.230873	-0.409392	-0.580834
O5	O	1.348222	-0.348866	-0.494972
O6	O	1.586871	-0.285745	-0.539489
O7	O	1.432544	-0.436623	-0.308481
O8	O	1.339046	-0.162386	-0.407348
O9	O	1.579257	-0.412002	-0.450488
O10	O	1.450208	-0.143732	-0.514945
O11	O	1.328996	-0.329021	-0.289884
O12	O	1.135073	-0.304390	-0.431867
O13	O	1.238401	-0.368708	-0.700050
O14	O	1.091688	-0.393329	-0.558042
O15	O	1.392948	-0.261114	-0.681472
O16	O	1.375285	-0.554005	-0.475008
O17	O	1.228352	-0.535343	-0.582586
C18	C	1.075260	-0.348859	-0.494952
C19	C	0.958478	-0.348873	-0.494969
C20	C	0.881047	-0.395284	-0.560595
C21	C	0.771320	-0.395284	-0.560612
C22	C	0.816464	-0.302461	-0.429371
C23	C	0.926190	-0.302457	-0.429357
C24	C	1.294311	-0.576455	-0.534307
C25	C	1.271339	-0.673813	-0.551164
C26	C	1.512792	-0.986964	-0.374791
C27	C	1.534375	-0.895492	-0.358948
C28	C	1.468619	-0.840068	-0.407001
C29	C	1.381273	-0.876124	-0.470899
C30	C	1.359683	-0.967606	-0.486738
C31	C	1.315509	-0.820710	-0.518948
C32	C	1.228164	-0.856767	-0.582845
C33	C	1.206578	-0.948240	-0.598682
C34	C	1.272335	-1.003664	-0.550629
C35	C	1.337100	-0.729228	-0.503109
C36	C	1.183991	-0.709870	-0.615055
C37	C	1.162407	-0.801342	-0.630898
C38	C	1.622250	-0.348875	-0.494992
C39	C	1.739024	-0.348878	-0.495000
C40	C	1.310244	-0.309245	-0.723431
C41	C	1.294059	-0.292361	-0.820786
C42	C	1.402370	-0.120386	-0.455502
C43	C	1.425444	-0.023022	-0.438683
C44	C	1.464088	-0.468866	-1.133939
C45	C	1.479287	-0.484735	-1.042469
C46	C	1.432982	-0.436643	-0.987044
C47	C	1.371474	-0.372679	-1.023097
C48	C	1.356266	-0.356813	-1.114576
C49	C	1.325160	-0.324590	-0.967682
C50	C	1.263652	-0.260626	-1.003735
C51	C	1.248448	-0.244763	-1.095205
C52	C	1.294753	-0.292855	-1.150631
C53	C	1.340368	-0.340456	-0.876203
C54	C	1.232546	-0.228403	-0.856840
C55	C	1.217347	-0.212534	-0.948310
C56	C	1.386129	-0.388270	-0.267391
C57	C	1.402575	-0.404908	-0.169993
H58	H	1.486196	-0.765588	-0.394097
C59	C	1.111658	-0.648913	-0.667920
H60	H	1.137033	-0.589268	-0.649343
H61	H	1.039667	-0.666186	-0.657658
H62	H	1.113671	-0.653663	-0.729374
C63	C	1.278033	-0.275397	-1.251248
H64	H	1.234772	-0.230414	-1.264784
H65	H	1.243033	-0.328333	-1.281710
H66	H	1.345989	-0.256655	-1.269320
H67	H	1.566316	-1.032099	-0.335668
H68	H	1.445360	-0.449568	-0.912566
C69	C	1.149680	-0.142187	-0.987977
H70	H	1.147252	-0.139634	-1.050393
H71	H	1.181491	-0.085929	-0.962822
H72	H	1.078539	-0.157611	-0.975198
C73	C	1.433167	-0.689572	-0.432825
H74	H	1.436605	-0.627155	-0.430264
H75	H	1.498085	-0.702277	-0.448272
H76	H	1.424068	-0.714810	-0.376565
C77	C	0.916563	-0.446330	-0.632770
H78	H	0.854729	-0.473963	-0.671862
H79	H	0.955912	-0.490265	-0.605789
H80	H	0.960944	-0.406243	-0.665204
C81	C	1.630452	-0.855834	-0.288673
H82	H	1.666529	-0.901941	-0.262330
H83	H	1.605062	-0.826814	-0.244309
H84	H	1.679055	-0.814289	-0.316033
H85	H	0.708278	-0.433075	-0.614053
H86	H	1.390456	-0.392530	-0.846856
H87	H	0.790161	-0.264672	-0.375951
C88	C	1.011373	-0.251402	-0.357168
H89	H	1.081345	-0.258039	-0.366565
H90	H	1.000155	-0.274334	-0.300495
H91	H	1.005181	-0.190323	-0.359926
C92	C	1.248591	-1.104285	-0.568051
H93	H	1.300262	-1.132125	-0.530278
H94	H	1.252426	-1.115142	-0.628164
H95	H	1.178435	-1.127668	-0.556438
C96	C	1.546952	-0.555080	-1.002815
H97	H	1.572362	-0.581442	-1.048921
H98	H	1.503655	-0.599436	-0.973719
H99	H	1.606606	-0.527752	-0.961347
H100	H	1.135445	-0.977595	-0.650701
C101	C	1.181603	-0.175498	-0.795886
H102	H	1.142780	-0.135142	-0.830460
H103	H	1.236767	-0.143522	-0.753610
H104	H	1.133813	-0.215202	-0.765992
C105	C	1.066328	-0.841012	-0.701175
H106	H	1.062887	-0.903430	-0.703718
H107	H	1.075403	-0.815782	-0.757437
H108	H	1.001410	-0.828311	-0.685713
C109	C	1.515014	-0.521759	-1.194905
H110	H	1.497150	-0.503145	-1.254545
H111	H	1.488182	-0.583215	-1.190081
H112	H	1.591139	-0.511538	-1.177708
C113	C	1.180753	-0.174434	-1.134871
H114	H	1.178311	-0.171885	-1.197289
H115	H	1.212543	-0.118169	-1.109725
H116	H	1.109619	-0.189879	-1.122083
