data_functionalizedCrystal
_audit_creation_method	'MofGen! by Chris Wilmer'
_symmetry_space_group_name_H-M	'P1'
_symmetry_Int_Tables_number	1
_symmetry_cell_setting	triclinic
loop_
_symmetry_equiv_pos_as_xyz
  x,y,z
_cell_length_a	14.519731
_cell_length_b	14.519709
_cell_length_c	12.996460
_cell_angle_alpha	89.999966
_cell_angle_beta	89.992872
_cell_angle_gamma	96.315501
loop_
_atom_site_label
_atom_site_type_symbol
_atom_site_fract_x
_atom_site_fract_y
_atom_site_fract_z
O1	O	0.120892	-1.223878	-0.085435
O2	O	0.620892	-0.723878	0.414565
O3	O	0.135128	-0.955402	-0.085467
O4	O	0.635128	-0.455402	0.414533
O5	O	-0.006227	-1.096748	-0.085441
O6	O	0.493773	-0.596748	0.414559
O7	O	0.262247	-1.082532	-0.085461
O8	O	0.762247	-0.582532	0.414539
O9	O	-0.006235	-1.096733	0.085693
O10	O	0.493765	-0.596733	0.585693
O11	O	0.135120	-0.955387	0.085667
O12	O	0.635120	-0.455387	0.585667
O13	O	0.120884	-1.223863	0.085699
O14	O	0.620884	-0.723863	0.585699
Cu15	Cu	0.128001	-1.089624	0.101309
Cu16	Cu	0.628001	-0.589624	0.601309
Cu17	Cu	0.128011	-1.089641	-0.101077
Cu18	Cu	0.628011	-0.589641	0.398923
O19	O	0.262239	-1.082517	0.085673
O20	O	0.762239	-0.582517	0.585673
C21	C	-0.040591	-1.096075	0.000126
C22	C	0.459409	-0.596075	0.500126
C23	C	-0.142971	-1.094079	0.000127
C24	C	0.357029	-0.594079	0.500127
C25	C	0.134461	-0.921035	0.000096
C26	C	0.634461	-0.421035	0.500096
C27	C	0.132473	-0.818654	0.000084
C28	C	0.632473	-0.318654	0.500084
N29	N	0.127994	-1.089618	0.243656
N30	N	0.627994	-0.589618	0.743656
C31	C	-0.226115	-1.092457	0.000124
C32	C	0.273885	-0.592457	0.500124
C33	C	-0.330424	-1.090430	0.000116
C34	C	0.169576	-0.590430	0.500116
C35	C	-0.413563	-1.088822	0.000109
C36	C	0.086437	-0.588822	0.500109
C37	C	-0.517878	-1.086795	0.000103
C38	C	-0.017878	-0.586795	0.500103
C39	C	0.296603	-1.083191	0.000103
C40	C	0.796603	-0.583191	0.500103
C41	C	0.398983	-1.085187	0.000096
C42	C	0.898983	-0.585187	0.500096
C43	C	0.121551	-1.258230	0.000133
C44	C	0.621551	-0.758230	0.500133
C45	C	0.123539	-1.360612	0.000138
C46	C	0.623539	-0.860612	0.500138
C47	C	0.125153	-0.443757	0.000132
C48	C	0.625153	0.056243	0.500132
C49	C	0.127186	-0.548065	0.000118
C50	C	0.627186	-0.048065	0.500118
C51	C	0.128813	-0.631202	0.000107
C52	C	0.628813	-0.131202	0.500107
C53	C	0.130846	-0.735517	0.000095
C54	C	0.630846	-0.235517	0.500095
N55	N	0.128010	-1.089654	-0.243424
N56	N	0.628010	-0.589654	0.256576
C57	C	0.128012	-1.089640	0.663470
C58	C	0.628012	-0.589640	1.163470
C59	C	0.128010	-1.089631	0.546665
C60	C	0.628010	-0.589631	1.046665
C61	C	0.128004	-1.089630	0.453567
C62	C	0.628004	-0.589630	0.953567
C63	C	0.128001	-1.089620	0.336754
C64	C	0.628001	-0.589620	0.836754
