data_functionalizedCrystal
_audit_creation_method	'MofGen! by Chris Wilmer'
_symmetry_space_group_name_H-M	'P1'
_symmetry_Int_Tables_number	1
_symmetry_cell_setting	triclinic
loop_
_symmetry_equiv_pos_as_xyz
  x,y,z
_cell_length_a	15.995292
_cell_length_b	14.853567
_cell_length_c	13.330367
_cell_angle_alpha	90.000844
_cell_angle_beta	89.991273
_cell_angle_gamma	96.448227
loop_
_atom_site_label
_atom_site_type_symbol
_atom_site_fract_x
_atom_site_fract_y
_atom_site_fract_z
O1	O	1.111154	-0.115956	-0.083442
O2	O	0.867389	-0.130361	-0.083437
O3	O	0.995783	0.008081	-0.083443
O4	O	0.982761	-0.254399	-0.083436
O5	O	0.995765	0.008085	0.083404
O6	O	0.867371	-0.130358	0.083410
O7	O	1.111136	-0.115953	0.083405
Cu8	Cu	0.989252	-0.123155	0.098642
Cu9	Cu	0.989274	-0.123159	-0.098674
O10	O	0.982742	-0.254395	0.083411
C11	C	0.836184	-0.129773	-0.000013
C12	C	0.743229	-0.128015	-0.000012
C13	C	0.405483	-0.121554	-0.000023
C14	C	0.428911	-0.221478	-0.000393
C15	C	0.525589	-0.223377	-0.000013
C16	C	0.573042	-0.124760	-0.000018
C17	C	0.543872	-0.074801	0.095255
C18	C	0.447080	-0.073598	0.095331
C19	C	0.447243	-0.071561	-0.094406
C20	C	0.543740	-0.075264	-0.095660
C21	C	0.667741	-0.126567	-0.000012
C22	C	0.310785	-0.119744	-0.000023
C23	C	0.995184	0.041671	-0.000022
C24	C	0.993416	0.141752	-0.000031
C25	C	1.142341	-0.116541	-0.000021
C26	C	1.235296	-0.118299	-0.000029
C27	C	0.983341	-0.287985	-0.000012
C28	C	0.985110	-0.388066	-0.000010
C29	C	0.909672	0.554154	-0.000010
C30	C	1.062207	0.575675	-0.000013
C31	C	1.063870	0.481644	-0.000019
C32	C	0.988432	0.423863	-0.000019
C33	C	0.911333	0.460114	-0.000013
C34	C	1.140968	0.445386	-0.000015
C35	C	1.142634	0.351349	-0.000020
C36	C	1.067196	0.293567	-0.000027
C37	C	0.990093	0.329823	-0.000022
C38	C	0.914655	0.272042	-0.000022
C39	C	0.837551	0.308297	-0.000024
C40	C	0.835894	0.402331	-0.000020
C41	C	1.068853	0.199532	-0.000031
C42	C	0.916316	0.178002	-0.000025
N43	N	0.989242	-0.123152	0.237423
N44	N	0.989290	-0.123155	-0.237456
C45	C	0.932418	-0.184437	0.710049
C46	C	1.046151	-0.061874	0.710012
C47	C	1.046142	-0.061871	0.604994
C48	C	0.989271	-0.123153	0.552498
C49	C	0.932409	-0.184438	0.605021
C50	C	1.103009	-0.000593	0.552463
C51	C	1.103002	-0.000589	0.447438
C52	C	1.046126	-0.061867	0.394941
C53	C	0.989261	-0.123154	0.447470
C54	C	0.932390	-0.184436	0.394974
C55	C	0.875520	-0.245719	0.447502
C56	C	0.875533	-0.245717	0.552523
C57	C	1.046113	-0.061870	0.289919
C58	C	0.932380	-0.184437	0.289946
H59	H	0.544031	-0.262736	0.068401
H60	H	0.829232	-0.295612	0.595298
H61	H	0.544669	-0.262498	-0.068311
H62	H	1.092459	-0.011984	0.752757
H63	H	0.776131	0.261239	-0.000017
H64	H	1.149316	0.049297	0.595208
H65	H	0.846896	0.583676	-0.000016
H66	H	1.131630	0.170018	-0.000023
H67	H	0.886065	-0.234338	0.247211
H68	H	0.829219	-0.295620	0.404748
H69	H	0.886114	-0.234331	0.752819
H70	H	1.149307	0.049312	0.404677
H71	H	1.092420	-0.011978	0.247156
H72	H	0.400968	-0.259994	-0.068718
H73	H	0.432444	-0.000334	0.099655
H74	H	0.399930	-0.259778	0.067550
H75	H	0.576627	-0.003284	-0.101419
H76	H	1.205416	0.321840	-0.000019
H77	H	0.420295	-0.108195	0.166553
H78	H	0.575655	-0.002232	0.098794
H79	H	1.202385	0.492437	-0.000006
H80	H	0.418961	-0.102795	-0.166618
H81	H	0.563963	-0.109492	0.166161
H82	H	0.562360	-0.111640	-0.166143
H83	H	0.854884	0.130963	-0.000029
H84	H	0.433165	0.001990	-0.095053
H85	H	0.773120	0.431858	-0.000021
H86	H	1.123625	0.622725	-0.000005
