data_functionalizedCrystal
_audit_creation_method	'MofGen! by Chris Wilmer'
_symmetry_space_group_name_H-M	'P1'
_symmetry_Int_Tables_number	1
_symmetry_cell_setting	triclinic
loop_
_symmetry_equiv_pos_as_xyz
  x,y,z
_cell_length_a	29.839131
_cell_length_b	13.897449
_cell_length_c	13.897441
_cell_angle_alpha	90.026069
_cell_angle_beta	89.964857
_cell_angle_gamma	89.958652
loop_
_atom_site_label
_atom_site_type_symbol
_atom_site_fract_x
_atom_site_fract_y
_atom_site_fract_z
Zn1	Zn	-0.178840	-1.474544	-0.545488
Zn2	Zn	-0.253975	-1.474371	-0.384177
Zn3	Zn	-0.178859	-1.313233	-0.384191
Zn4	Zn	-0.253943	-1.313148	-0.545414
O5	O	-0.216404	-1.393824	-0.464817
O6	O	-0.188812	-1.609502	-0.524114
O7	O	-0.244032	-1.452959	-0.249197
O8	O	-0.115990	-1.334739	-0.405625
O9	O	-0.244013	-1.609375	-0.405600
O10	O	-0.115975	-1.453253	-0.524129
O11	O	-0.188845	-1.334571	-0.249208
O12	O	-0.188815	-1.178240	-0.405553
O13	O	-0.243960	-1.334594	-0.680406
O14	O	-0.243979	-1.178177	-0.524003
O15	O	-0.188781	-1.453171	-0.680460
O16	O	-0.316838	-1.452876	-0.405528
O17	O	-0.316815	-1.334426	-0.523989
C18	C	-0.216396	-1.143209	-0.464772
C19	C	-0.216403	-1.035995	-0.464776
C20	C	-0.216404	-0.948926	-0.464788
C21	C	-0.216406	-0.839693	-0.464812
C22	C	-0.333127	-1.393650	-0.464770
C23	C	-0.383061	-1.393663	-0.464781
C24	C	-0.692704	-1.455613	-0.403225
C25	C	-0.880377	-1.455732	-0.403263
O26	O	-0.904641	-1.508265	-0.350889
N27	N	-0.903846	-1.394024	-0.464890
C28	C	-0.880395	-1.332286	-0.526517
O29	O	-0.904663	-1.279809	-0.578943
C30	C	-0.692722	-1.332172	-0.526484
C31	C	-0.669256	-1.393878	-0.464846
C32	C	-0.669237	-1.517314	-0.341592
C33	C	-0.622322	-1.517280	-0.341580
C34	C	-0.598873	-1.455545	-0.403200
C35	C	-0.622340	-1.393844	-0.464833
C36	C	-0.669271	-1.270440	-0.588115
C37	C	-0.622350	-1.270419	-0.588103
C38	C	-0.598884	-1.332124	-0.526465
C39	C	-0.551976	-1.332074	-0.526441
N40	N	-0.528507	-1.393783	-0.464813
C41	C	-0.551955	-1.455518	-0.403193
C42	C	-0.978925	-1.332349	-0.526529
C43	C	-1.025843	-1.332376	-0.526536
C44	C	-1.025822	-1.455823	-0.403283
C45	C	-0.978904	-1.455790	-0.403271
C46	C	-0.955456	-1.394057	-0.464902
C47	C	-0.453430	-1.455441	-0.403171
C48	C	-0.406510	-1.455398	-0.403161
C49	C	-0.406535	-1.331955	-0.526418
C50	C	-0.453450	-1.331993	-0.526425
C51	C	-0.476896	-1.393744	-0.464798
O52	O	-0.527683	-1.279576	-0.578795
O53	O	-0.527679	-1.508002	-0.350790
C54	C	-0.739620	-1.455647	-0.403238
C55	C	-0.763086	-1.393946	-0.464870
C56	C	-0.739638	-1.332211	-0.526491
C57	C	-0.810004	-1.393973	-0.464878
C58	C	-0.833453	-1.455708	-0.403257
C59	C	-0.809983	-1.517416	-0.341630
C60	C	-0.763068	-1.517382	-0.341617
C61	C	-0.763107	-1.270503	-0.588118
C62	C	-0.810023	-1.270541	-0.588125
C63	C	-0.833471	-1.332276	-0.526505
C64	C	-0.099226	-1.394025	-0.464887
C65	C	-0.049292	-1.394111	-0.464916
C66	C	-0.216365	-1.393892	-0.716411
C67	C	-0.216348	-1.393921	-0.823625
C68	C	-0.216412	-0.645417	-0.464852
C69	C	-0.216410	-0.752631	-0.464837
C70	C	-0.216317	-1.393948	-1.019920
C71	C	-0.216336	-1.393930	-0.910687
C72	C	-0.216412	-1.393811	-0.214203
C73	C	-0.216302	-1.393969	-0.106990
H74	H	-0.387405	-1.505646	-0.352964
Cl75	Cl	-0.839471	-1.595023	-0.264163
Cl76	Cl	-0.949407	-1.533367	-0.325782
Cl77	Cl	-1.055338	-1.254788	-0.604017
Cl78	Cl	-0.839518	-1.192959	-0.665621
H79	H	-1.044922	-1.506090	-0.353109
H80	H	-0.387436	-1.281688	-0.576586
H81	H	-0.472514	-1.505726	-0.352991
Cl82	Cl	-0.592827	-1.594871	-0.264102
H83	H	-0.472558	-1.281751	-0.576619
Cl84	Cl	-0.733574	-1.594963	-0.264129
Cl85	Cl	-0.698707	-1.594935	-0.264116
Cl86	Cl	-0.698761	-1.192874	-0.665620
Cl87	Cl	-0.733636	-1.192884	-0.665592
H88	H	-0.603262	-1.220149	-0.638293
H89	H	-0.959837	-1.282075	-0.576717
