data_functionalizedCrystal
_audit_creation_method	'MofGen! by Chris Wilmer'
_symmetry_space_group_name_H-M	'P1'
_symmetry_Int_Tables_number	1
_symmetry_cell_setting	triclinic
loop_
_symmetry_equiv_pos_as_xyz
  x,y,z
_cell_length_a	16.625547
_cell_length_b	16.625546
_cell_length_c	13.897441
_cell_angle_alpha	90.033447
_cell_angle_beta	90.026124
_cell_angle_gamma	90.022405
loop_
_atom_site_label
_atom_site_type_symbol
_atom_site_fract_x
_atom_site_fract_y
_atom_site_fract_z
Zn1	Zn	1.232691	-0.320977	0.545501
Zn2	Zn	1.232591	-0.455828	0.384194
Zn3	Zn	1.097850	-0.321012	0.384204
Zn4	Zn	1.097823	-0.455771	0.545432
O5	O	1.165239	-0.388397	0.464833
O6	O	1.345510	-0.338874	0.524128
O7	O	1.214687	-0.437982	0.249214
O8	O	1.115789	-0.208175	0.405633
O9	O	1.345437	-0.437948	0.405617
O10	O	1.214857	-0.208149	0.524138
O11	O	1.115693	-0.338934	0.249221
O12	O	0.985014	-0.338880	0.405566
O13	O	1.115744	-0.437852	0.680423
O14	O	0.984994	-0.437887	0.524020
O15	O	1.214831	-0.338820	0.680473
O16	O	1.214661	-0.568652	0.405550
O17	O	1.115647	-0.568611	0.524010
C18	C	0.955748	-0.388381	0.464787
C19	C	0.866127	-0.388394	0.464790
C20	C	1.165162	-0.597888	0.464792
C21	C	1.165203	-0.687509	0.464807
C22	C	0.793344	-0.388396	0.464802
C23	C	0.702036	-0.388400	0.464827
C24	C	0.629259	-0.388407	0.464851
C25	C	0.537945	-0.388413	0.464874
C26	C	1.165344	-1.015685	0.464908
C27	C	1.165302	-0.924376	0.464882
C28	C	1.165273	-0.851600	0.464857
C29	C	1.165233	-0.760286	0.464833
C30	C	1.375548	-0.388413	0.464879
C31	C	1.465169	-0.388420	0.464899
C32	C	1.165296	-0.388326	0.716426
C33	C	1.165320	-0.388296	0.823640
C34	C	1.165337	-0.178088	0.464894
C35	C	1.165379	-0.088467	0.464921
C36	C	1.165228	-0.388410	0.214218
C37	C	1.165360	-0.388213	0.107005
C38	C	1.165342	-0.388241	1.019935
C39	C	1.165327	-0.388274	0.910702
