data_functionalizedCrystal
_audit_creation_method	'MofGen! by Chris Wilmer'
_symmetry_space_group_name_H-M	'P1'
_symmetry_Int_Tables_number	1
_symmetry_cell_setting	triclinic
loop_
_symmetry_equiv_pos_as_xyz
  x,y,z
_cell_length_a	12.827893
_cell_length_b	14.908520
_cell_length_c	14.908854
_cell_angle_alpha	89.778335
_cell_angle_beta	93.280202
_cell_angle_gamma	93.320575
loop_
_atom_site_label
_atom_site_type_symbol
_atom_site_fract_x
_atom_site_fract_y
_atom_site_fract_z
Zn1	Zn	1.540281	-0.328613	-0.529007
Zn2	Zn	2.040281	0.171387	-0.029007
Zn3	Zn	1.538996	-0.487666	-0.387321
Zn4	Zn	2.038996	0.012334	0.112679
Zn5	Zn	1.374993	-0.337325	-0.378670
Zn6	Zn	1.874993	0.162675	0.121330
Zn7	Zn	1.354862	-0.478933	-0.537634
Zn8	Zn	1.854862	0.021067	-0.037634
O9	O	1.452283	-0.408134	-0.458158
O10	O	1.952283	0.091866	0.041842
O11	O	1.686346	-0.349721	-0.510222
O12	O	2.186346	0.150279	-0.010222
O13	O	1.525128	-0.475025	-0.260350
O14	O	2.025128	0.024975	0.239650
O15	O	1.405881	-0.210342	-0.391382
O16	O	1.905881	0.289658	0.108618
O17	O	1.685402	-0.466577	-0.406126
O18	O	2.185402	0.033423	0.093874
O19	O	1.527318	-0.203942	-0.501834
O20	O	2.027318	0.296058	-0.001834
O21	O	1.404635	-0.364570	-0.253994
O22	O	1.904635	0.135430	0.246006
O23	O	1.226088	-0.356101	-0.399747
O24	O	1.726088	0.143899	0.100253
O25	O	1.371571	-0.451691	-0.662313
O26	O	1.871571	0.048309	-0.162313
O27	O	1.211298	-0.460139	-0.516537
O28	O	1.711298	0.039861	-0.016537
O29	O	1.507798	-0.341252	-0.655975
O30	O	2.007798	0.158748	-0.155975
O31	O	1.505608	-0.612335	-0.414491
O32	O	2.005608	-0.112335	0.085509
O33	O	1.370326	-0.605919	-0.524925
O34	O	1.870326	-0.105919	-0.024925
C35	C	1.180776	-0.408118	-0.458140
C36	C	1.680776	0.091882	0.041860
C37	C	1.064621	-0.408132	-0.458155
C38	C	1.564621	0.091868	0.041845
C39	C	1.005544	-0.459703	-0.515867
C40	C	1.505544	0.040297	-0.015867
C41	C	0.885492	-0.459718	-0.515884
C42	C	1.385492	0.040282	-0.015884
C43	C	1.435670	-0.641751	-0.471602
C44	C	1.935670	-0.141751	0.028398
C45	C	1.428657	-0.741692	-0.477384
C46	C	1.928657	-0.241692	0.022616
C47	C	1.556479	-0.936106	-0.373346
C48	C	2.056479	-0.436106	0.126654
C49	C	1.549893	-1.030009	-0.378775
C50	C	2.049893	-0.530009	0.121225
C51	C	1.408904	-1.023403	-0.493676
C52	C	1.908904	-0.523403	0.006324
C53	C	1.415490	-0.929500	-0.488247
C54	C	1.915490	-0.429500	0.011753
C55	C	1.489279	-0.885855	-0.428079
C56	C	1.989279	-0.385855	0.071921
C57	C	1.495860	-0.791950	-0.422645
C58	C	1.995860	-0.291950	0.077355
C59	C	1.354876	-0.785345	-0.537550
C60	C	1.854876	-0.285345	-0.037550
C61	C	1.348290	-0.879249	-0.542980
C62	C	1.848290	-0.379249	-0.042980
C63	C	1.724851	-0.408152	-0.458177
C64	C	2.224851	0.091848	0.041823
C65	C	1.841003	-0.408159	-0.458185
C66	C	2.341003	0.091841	0.041815
C67	C	1.437583	-0.394526	-0.692681
C68	C	1.937583	0.105474	-0.192681
C69	C	1.431318	-0.388727	-0.792621
C70	C	1.931318	0.111273	-0.292621
C71	C	1.468988	-0.173604	-0.444681
C72	C	1.968988	0.326396	0.055319
C73	C	1.476107	-0.073661	-0.438937
C74	C	1.976107	0.426339	0.061063
C75	C	1.545040	-0.492844	-0.987038
C76	C	2.045040	0.007156	-0.487038
C77	C	1.539157	-0.487398	-1.080940
C78	C	2.039157	0.012602	-0.580940
C79	C	1.413676	-0.372385	-1.074330
C80	C	1.913676	0.127615	-0.574330
C81	C	1.419559	-0.377831	-0.980427
C82	C	1.919559	0.122169	-0.480427
C83	C	1.485242	-0.438063	-0.936785
C84	C	1.985242	0.061937	-0.436785
C85	C	1.491118	-0.443513	-0.842881
C86	C	1.991118	0.056487	-0.342881
C87	C	1.365643	-0.328496	-0.836271
C88	C	1.865643	0.171504	-0.336271
C89	C	1.359761	-0.323050	-0.930174
C90	C	1.859761	0.176950	-0.430174
C91	C	1.466991	-0.421625	-0.224544
C92	C	1.966991	0.078375	0.275456
C93	C	1.473476	-0.427171	-0.124590
C94	C	1.973476	0.072829	0.375410
H95	H	1.616554	-0.900570	-0.324348
H96	H	2.116554	-0.400570	0.175652
H97	H	1.288216	-0.914797	-0.591970
H98	H	1.788216	-0.414797	-0.091970
O99	O	0.818246	-0.518205	-0.581341
O100	O	1.318246	-0.018205	-0.081341
H101	H	0.734505	-0.509033	-0.571088
H102	H	1.234505	-0.009033	-0.071088
H103	H	1.306286	-0.274009	-0.965720
H104	H	1.806286	0.225991	-0.465720
H105	H	1.300155	-0.744420	-0.582115
H106	H	1.800155	-0.244420	-0.082115
H107	H	1.043845	-0.503841	-0.565267
H108	H	1.543845	-0.003841	-0.065267
H109	H	0.891773	-0.364007	-0.408770
H110	H	1.391773	0.135993	0.091230
H111	H	1.026320	-0.363987	-0.408761
H112	H	1.526320	0.136013	0.091239
H113	H	1.360207	-0.323341	-1.109879
H114	H	1.860207	0.176659	-0.609879
H115	H	1.544606	-0.492553	-0.807349
H116	H	2.044606	0.007447	-0.307349
O117	O	1.615884	-0.557802	-0.939962
O118	O	2.115884	-0.057802	-0.439962
H119	H	1.591814	-0.627327	-0.962041
H120	H	2.091814	-0.127327	-0.462041
O121	O	1.622366	-1.084214	-0.319738
O122	O	2.122366	-0.584214	0.180262
H123	H	1.674773	-1.038085	-0.276984
H124	H	2.174773	-0.538085	0.223016
H125	H	1.555939	-0.756416	-0.373651
H126	H	2.055939	-0.256416	0.126349
H127	H	1.348836	-1.058955	-0.542668
H128	H	1.848836	-0.558955	-0.042668
O129	O	1.603636	-0.546494	-1.135147
O130	O	2.103636	-0.046494	-0.635147
H131	H	1.650285	-0.589297	-1.089021
H132	H	2.150285	-0.089297	-0.589021
H133	H	1.316950	-0.283891	-0.795345
H134	H	1.816950	0.216109	-0.295345
