data_functionalizedCrystal
_audit_creation_method	'MofGen! by Chris Wilmer'
_symmetry_space_group_name_H-M	'P1'
_symmetry_Int_Tables_number	1
_symmetry_cell_setting	triclinic
loop_
_symmetry_equiv_pos_as_xyz
  x,y,z
_cell_length_a	12.827893
_cell_length_b	12.759394
_cell_length_c	12.827885
_cell_angle_alpha	89.968422
_cell_angle_beta	90.019272
_cell_angle_gamma	89.977542
loop_
_atom_site_label
_atom_site_type_symbol
_atom_site_fract_x
_atom_site_fract_y
_atom_site_fract_z
Zn1	Zn	1.597618	0.418216	0.590836
Zn2	Zn	2.097618	0.918216	1.090836
Zn3	Zn	1.597491	0.593932	0.416090
Zn4	Zn	2.097491	1.093932	0.916090
Zn5	Zn	1.422859	0.418268	0.416109
Zn6	Zn	1.922859	0.918268	0.916109
Zn7	Zn	1.422823	0.593854	0.590790
Zn8	Zn	1.922823	1.093854	1.090790
O9	O	1.510198	0.506068	0.503456
O10	O	2.010198	1.006068	1.003456
O11	O	1.743837	0.441537	0.567666
O12	O	2.243837	0.941537	1.067666
O13	O	1.574287	0.570684	0.269857
O14	O	2.074287	1.070684	0.769857
O15	O	1.446110	0.271240	0.439314
O16	O	1.946110	0.771240	0.939314
O17	O	1.743743	0.570634	0.439282
O18	O	2.243743	1.070634	0.939282
O19	O	1.574505	0.271202	0.567685
O20	O	2.074505	0.771202	1.067685
O21	O	1.445986	0.441624	0.269871
O22	O	1.945986	0.941624	0.769871
O23	O	1.276619	0.441548	0.439270
O24	O	1.776619	0.941548	0.939270
O25	O	1.446048	0.570501	0.737033
O26	O	1.946048	1.070501	1.237033
O27	O	1.276592	0.570551	0.567608
O28	O	1.776592	1.070551	1.067608
O29	O	1.574469	0.441461	0.737066
O30	O	2.074469	0.941461	1.237066
O31	O	1.574252	0.740943	0.439238
O32	O	2.074252	1.240943	0.939238
O33	O	1.445925	0.740885	0.567589
O34	O	1.945925	1.240885	1.067589
C35	C	1.238688	0.506047	0.503437
C36	C	1.738688	1.006047	1.003437
C37	C	1.122535	0.506064	0.503453
C38	C	1.622535	1.006064	1.003453
C39	C	1.510099	0.779035	0.503430
C40	C	2.010099	1.279035	1.003430
C41	C	1.510152	0.895812	0.503453
C42	C	2.010152	1.395812	1.003453
C43	C	1.070764	0.569998	0.566860
C44	C	1.570764	1.069998	1.066860
C45	C	0.950714	0.570017	0.566879
C46	C	1.450714	1.070017	1.066879
C47	C	1.643749	0.895614	0.637226
C48	C	2.143749	1.395614	1.137226
C49	C	1.710572	0.950377	0.704118
C50	C	2.210572	1.450377	1.204118
C51	C	1.710618	1.060098	0.704136
C52	C	2.210618	1.560098	1.204136
C53	C	1.643831	1.115060	0.637258
C54	C	2.143831	1.615060	1.137258
C55	C	1.577008	1.060298	0.570366
C56	C	2.077008	1.560298	1.070366
C57	C	1.576972	0.950574	0.570352
C58	C	2.076972	1.450574	1.070352
C59	C	1.443407	1.060495	0.436600
C60	C	1.943407	1.560495	0.936600
C61	C	1.443365	0.950774	0.436574
C62	C	1.943365	1.450774	0.936574
C63	C	1.376620	1.115457	0.369721
C64	C	1.876620	1.615457	0.869721
C65	C	1.309801	1.060695	0.302822
C66	C	1.809801	1.560695	0.802822
C67	C	1.309758	0.950967	0.302805
C68	C	1.809758	1.450967	0.802805
C69	C	1.376542	0.896012	0.369682
C70	C	1.876542	1.396012	0.869682
C71	C	1.782768	0.506089	0.503477
C72	C	2.282768	1.006089	1.003477
C73	C	1.898921	0.506098	0.503486
C74	C	2.398921	1.006098	1.003486
C75	C	1.510269	0.505967	0.776027
C76	C	2.010269	1.005967	1.276027
C77	C	1.510299	0.505924	0.892180
C78	C	2.010299	1.005924	1.392180
C79	C	1.510288	1.232034	0.503497
C80	C	2.010288	1.732034	1.003497
C81	C	1.510230	1.115257	0.503492
C82	C	2.010230	1.615257	1.003492
C83	C	1.510187	0.506092	0.231947
C84	C	2.010187	1.006092	0.731947
C85	C	1.510359	0.505839	0.115794
C86	C	2.010359	1.005839	0.615794
C87	C	1.573853	0.442058	0.943981
C88	C	2.073853	0.942058	1.443981
C89	C	1.573886	0.442012	1.064032
C90	C	2.073886	0.942012	1.564032
H91	H	1.115319	0.624717	0.621136
H92	H	1.615319	1.124717	1.121136
Br93	Br	1.419671	0.596990	1.041559
Br94	Br	1.919671	1.096990	1.541559
Br95	Br	0.876516	0.661263	0.657355
Br96	Br	1.376516	1.161263	1.157355
H97	H	1.077981	0.451337	0.449185
H98	H	1.577981	0.951337	0.949185
H99	H	1.255339	0.906385	0.248338
H100	H	1.755339	1.406385	0.748338
H101	H	1.764948	0.905617	0.758572
H102	H	2.264948	1.405617	1.258572
H103	H	1.628300	0.387338	1.108579
H104	H	2.128300	0.887338	1.608579
H105	H	1.455906	0.560560	0.936708
H106	H	1.955906	1.060560	1.436708
H107	H	0.943436	0.451362	0.449194
H108	H	1.443436	0.951362	0.949194
H109	H	1.628236	0.387411	0.899453
H110	H	2.128236	0.887411	1.399453
Br111	Br	1.643679	0.746705	0.637218
Br112	Br	2.143679	1.246705	1.137218
Br113	Br	1.801301	1.134423	0.794924
Br114	Br	2.301301	1.634423	1.294924
Br115	Br	1.376474	0.747103	0.369681
Br116	Br	1.876474	1.247103	0.869681
Br117	Br	1.376837	1.264366	0.369588
Br118	Br	1.876837	1.764366	0.869588
Br119	Br	1.219158	1.135290	0.212081
Br120	Br	1.719158	1.635290	0.712081
Br121	Br	1.644058	1.263969	0.637121
Br122	Br	2.144058	1.763969	1.137121
