data_functionalizedCrystal
_audit_creation_method	'MofGen! by Chris Wilmer'
_symmetry_space_group_name_H-M	'P1'
_symmetry_Int_Tables_number	1
_symmetry_cell_setting	triclinic
loop_
_symmetry_equiv_pos_as_xyz
  x,y,z
_cell_length_a	13.897449
_cell_length_b	29.839131
_cell_length_c	13.897441
_cell_angle_alpha	90.042797
_cell_angle_beta	90.020733
_cell_angle_gamma	90.036508
loop_
_atom_site_label
_atom_site_type_symbol
_atom_site_fract_x
_atom_site_fract_y
_atom_site_fract_z
Zn1	Zn	1.474585	-0.178824	0.545299
Zn2	Zn	1.474430	-0.253959	0.383966
Zn3	Zn	1.313274	-0.178845	0.384018
Zn4	Zn	1.313207	-0.253929	0.545219
O5	O	1.393874	-0.216389	0.464626
O6	O	1.609546	-0.188794	0.523910
O7	O	1.453015	-0.244016	0.248992
O8	O	1.334766	-0.115975	0.405467
O9	O	1.609432	-0.243995	0.405380
O10	O	1.453280	-0.115959	0.523960
O11	O	1.334615	-0.188830	0.249029
O12	O	1.178284	-0.188802	0.405389
O13	O	1.334650	-0.243945	0.680211
O14	O	1.178234	-0.243966	0.523823
O15	O	1.453215	-0.188765	0.680270
O16	O	1.452950	-0.316822	0.405302
O17	O	1.334500	-0.316800	0.523773
C18	C	1.143260	-0.216383	0.464604
C19	C	1.036046	-0.216391	0.464617
C20	C	0.839750	-0.216393	0.464642
C21	C	0.948983	-0.216391	0.464626
C22	C	1.393727	-0.333112	0.464544
C23	C	1.393752	-0.383046	0.464542
C24	C	1.455571	-0.692646	0.526413
C25	C	1.455676	-0.880319	0.526471
O26	O	1.508092	-0.904548	0.579015
N27	N	1.394038	-0.903831	0.464733
C28	C	1.332365	-0.880422	0.402980
O29	O	1.279933	-0.904726	0.350476
C30	C	1.332256	-0.692750	0.402928
C31	C	1.393905	-0.669240	0.464663
C32	C	1.517214	-0.669137	0.588144
C33	C	1.517191	-0.622222	0.588125
C34	C	1.455525	-0.598816	0.526375
C35	C	1.393882	-0.622325	0.464644
C36	C	1.270579	-0.669341	0.341181
C37	C	1.270555	-0.622420	0.341175
C38	C	1.332204	-0.598911	0.402910
C39	C	1.332192	-0.552003	0.402876
N40	N	1.393830	-0.528492	0.464614
C41	C	1.455496	-0.551898	0.526364
C42	C	1.332428	-0.978952	0.403011
C43	C	1.332456	-1.025870	0.403022
C44	C	1.455766	-1.025765	0.526515
C45	C	1.455742	-0.978846	0.526497
C46	C	1.394065	-0.955441	0.464749
C47	C	1.455444	-0.453372	0.526319
C48	C	1.455418	-0.406452	0.526292
C49	C	1.332105	-0.406562	0.402804
C50	C	1.332134	-0.453477	0.402827
C51	C	1.393807	-0.476881	0.464592
O52	O	1.279796	-0.527746	0.350366
O53	O	1.507905	-0.527585	0.578874
C54	C	1.455594	-0.739562	0.526432
C55	C	1.393951	-0.763071	0.464701
C56	C	1.332285	-0.739665	0.402951
C57	C	1.393979	-0.809989	0.464712
C58	C	1.455645	-0.833395	0.526462
C59	C	1.517283	-0.809883	0.588200
C60	C	1.517260	-0.762968	0.588181
C61	C	1.270647	-0.763177	0.341213
C62	C	1.270676	-0.810092	0.341236
C63	C	1.332342	-0.833498	0.402986
C64	C	1.645467	-0.216395	0.464648
C65	C	1.752681	-0.216398	0.464658
C66	C	1.393942	-0.216349	0.716219
C67	C	1.393971	-0.216332	0.823433
C68	C	1.394048	-0.099211	0.464728
C69	C	1.394122	-0.049276	0.464772
C70	C	1.393861	-0.216396	0.214011
C71	C	1.394019	-0.216287	0.106798
C72	C	1.393998	-0.216302	1.019728
C73	C	1.393980	-0.216320	0.910495
H74	H	1.505623	-0.387312	0.576564
O75	O	1.515403	-0.476150	0.586182
C76	C	1.645714	-0.529030	0.599307
C77	C	1.577852	-0.503271	0.531410
H78	H	1.696234	-0.550957	0.555050
H79	H	1.601476	-0.551022	0.649707
H80	H	1.689715	-0.504151	0.643437
H81	H	1.533836	-0.528118	0.487217
H82	H	1.622145	-0.481272	0.481073
O83	O	1.515755	-1.048436	0.586535
C84	C	1.637998	-1.043395	0.709083
C85	C	1.570138	-1.017661	0.641141
H86	H	1.681970	-1.018524	0.753264
H87	H	1.688538	-1.065346	0.664902
H88	H	1.593667	-1.065370	0.759433
H89	H	1.614392	-0.995661	0.590778
H90	H	1.519596	-0.995737	0.685382
H91	H	1.567497	-0.828949	0.638476
O92	O	1.577243	-0.740114	0.648019
C93	C	1.707410	-0.687070	0.661122
C94	C	1.639554	-0.712927	0.593240
H95	H	1.757792	-0.665076	0.616861
H96	H	1.751552	-0.711844	0.705238
H97	H	1.663068	-0.665123	0.711535
H98	H	1.683822	-0.734875	0.542768
H99	H	1.595409	-0.688129	0.549192
H100	H	1.220475	-0.829229	0.290955
O101	O	1.576969	-0.599409	0.648240
C102	C	1.623728	-0.585003	0.812362
C103	C	1.555954	-0.610853	0.744384
H104	H	1.606776	-0.594253	0.890107
H105	H	1.613127	-0.547442	0.801843
H106	H	1.701514	-0.594201	0.795447
H107	H	1.478142	-0.601693	0.761257
H108	H	1.566638	-0.648408	0.754916
O109	O	1.576986	-0.691889	0.648233
C110	C	1.589963	-0.744815	0.778463
C111	C	1.522149	-0.719073	0.710490
H112	H	1.545656	-0.766806	0.828801
H113	H	1.633992	-0.719965	0.822645
H114	H	1.640461	-0.766755	0.734209
H115	H	1.471593	-0.697132	0.754669
H116	H	1.478188	-0.743946	0.666304
O117	O	1.210597	-0.692101	0.281184
C118	C	1.088311	-0.687233	0.158675
C119	C	1.156182	-0.661403	0.226591
H120	H	1.044314	-0.662426	0.114504
H121	H	1.037796	-0.709188	0.202877
H122	H	1.132636	-0.709215	0.108315
H123	H	1.111936	-0.639397	0.276964
H124	H	1.206701	-0.639478	0.182329
H125	H	1.282266	-1.045007	0.352741
O126	O	1.515486	-0.955961	0.586519
C127	C	1.528358	-0.902959	0.716800
C128	C	1.460590	-0.928837	0.648865
H129	H	1.484001	-0.881030	0.767237
H130	H	1.578793	-0.880958	0.672613
H131	H	1.572457	-0.927760	0.760887
H132	H	1.416428	-0.904069	0.604764
H133	H	1.410219	-0.950845	0.693107
H134	H	1.282202	-0.959899	0.352725
O135	O	1.272101	-0.383799	0.342965
C136	C	1.141898	-0.330859	0.329888
C137	C	1.209784	-0.356620	0.397757
H138	H	1.091511	-0.308871	0.374159
H139	H	1.097763	-0.355696	0.285780
H140	H	1.186217	-0.308914	0.279467
H141	H	1.165539	-0.378565	0.448236
H142	H	1.253921	-0.331758	0.441797
H143	H	1.220430	-0.744123	0.290930
H144	H	1.220328	-0.603366	0.290893
H145	H	1.281942	-0.472620	0.352549
