data_functionalizedCrystal
_audit_creation_method	'MofGen! by Chris Wilmer'
_symmetry_space_group_name_H-M	'P1'
_symmetry_Int_Tables_number	1
_symmetry_cell_setting	triclinic
loop_
_symmetry_equiv_pos_as_xyz
  x,y,z
_cell_length_a	10.654556
_cell_length_b	10.654551
_cell_length_c	18.366186
_cell_angle_alpha	89.996635
_cell_angle_beta	89.990556
_cell_angle_gamma	84.486385
loop_
_atom_site_label
_atom_site_type_symbol
_atom_site_fract_x
_atom_site_fract_y
_atom_site_fract_z
O1	O	1.667846	0.176437	-0.060552
O2	O	1.302368	0.193235	-0.060551
O3	O	1.493509	0.002097	-0.060552
O4	O	1.476704	0.367575	-0.060551
O5	O	1.493476	0.002087	0.060547
O6	O	1.302335	0.193225	0.060548
O7	O	1.667813	0.176427	0.060547
Zn8	Zn	1.485069	0.184825	0.079775
Zn9	Zn	1.485112	0.184838	-0.079779
O10	O	1.476672	0.367565	0.060548
C11	C	1.255554	0.191995	-0.000002
C12	C	1.116111	0.188300	-0.000002
C13	C	0.919599	0.183106	-0.066019
C14	C	1.050621	0.186570	-0.066016
C15	C	1.050573	0.186553	0.066014
C16	C	0.919555	0.183079	0.066010
C17	C	0.919627	0.183122	-0.142245
C18	C	1.050649	0.186586	-0.142242
C19	C	1.492259	-0.044706	-0.000004
C20	C	1.488566	-0.184149	-0.000009
C21	C	1.486852	-0.249656	-0.066019
C22	C	1.483372	-0.380676	-0.066016
C23	C	1.483325	-0.380672	0.066014
C24	C	1.486797	-0.249653	0.066009
C25	C	1.486884	-0.249660	-0.142245
C26	C	1.483404	-0.380680	-0.142242
C27	C	1.714627	0.177667	-0.000004
C28	C	1.854070	0.181362	-0.000009
C29	C	1.477922	0.414368	-0.000002
C30	C	1.481615	0.553811	-0.000001
N31	N	1.485048	0.184815	0.188666
N32	N	1.485142	0.184837	-0.188670
C33	C	1.569714	0.100222	0.226766
C34	C	1.569722	0.100216	0.302994
C35	C	1.485076	0.184826	0.341119
C36	C	1.400395	0.269426	0.303009
C37	C	1.400381	0.269421	0.226783
C38	C	1.469618	0.299064	0.461879
C39	C	1.469641	0.299071	0.538104
C40	C	1.485112	0.184842	0.576226
C41	C	1.500587	0.070601	0.538114
C42	C	1.500573	0.070596	0.461887
C43	C	1.485081	0.184841	0.423773
C44	C	1.569791	0.100235	0.696981
C45	C	1.569790	0.100228	0.773210
C46	C	1.400469	0.269449	0.773225
C47	C	1.400464	0.269445	0.696997
C48	C	1.485131	0.184840	0.658880
H49	H	0.866209	0.181634	0.119761
H50	H	1.103907	0.187950	0.119763
H51	H	1.481882	-0.434022	0.119763
C52	C	1.307250	0.362486	0.184868
C53	C	1.214172	0.455594	0.226796
C54	C	1.121043	0.548662	0.184879
C55	C	1.120992	0.548621	0.101033
C56	C	1.214074	0.455510	0.059099
C57	C	1.307202	0.362442	0.101017
H58	H	1.214207	0.455627	0.288868
H59	H	1.052138	0.617589	0.215921
H60	H	1.052052	0.617516	0.070003
H61	H	1.214039	0.455476	-0.002973
H62	H	1.376107	0.293514	0.069975
H63	H	1.488186	-0.196322	0.119761
H64	H	1.400103	-0.203378	-0.171515
H65	H	1.638652	0.031328	0.195733
H66	H	0.867928	0.272567	-0.165897
C67	C	0.886087	0.063333	-0.181781
C68	C	0.991425	-0.029735	-0.213646
C69	C	0.957885	-0.149521	-0.253180
C70	C	0.819006	-0.176239	-0.260849
C71	C	0.713658	-0.083170	-0.228982
C72	C	0.747199	0.036616	-0.189448
H73	H	1.094240	-0.009958	-0.207970
H74	H	1.035871	-0.218417	-0.276770
H75	H	0.794178	-0.264912	-0.290114
H76	H	0.610844	-0.102946	-0.234658
H77	H	0.669213	0.105512	-0.165859
H78	H	1.578489	-0.220089	-0.165896
C79	C	1.359669	-0.420542	-0.174242
C80	C	1.322521	-0.385543	-0.253219
C81	C	1.198784	-0.425361	-0.285235
C82	C	1.112195	-0.500178	-0.238276
C83	C	1.149341	-0.535181	-0.159295
C84	C	1.273078	-0.495363	-0.127278
H85	H	1.386622	-0.330156	-0.287985
H86	H	1.171287	-0.399449	-0.343702
H87	H	1.020598	-0.529654	-0.261977
H88	H	1.085241	-0.590568	-0.124529
H89	H	1.300575	-0.521275	-0.068811
H90	H	1.513184	-0.022415	0.569151
H91	H	1.570202	-0.426967	-0.171509
C92	C	1.662867	0.007163	0.344914
C93	C	1.756031	-0.085858	0.302985
C94	C	1.849178	-0.178909	0.344902
C95	C	1.849161	-0.178939	0.428748
C96	C	1.755993	-0.085914	0.470682
C97	C	1.662846	0.007137	0.428765
H98	H	1.756048	-0.085839	0.240913
H99	H	1.918147	-0.247772	0.313859
H100	H	1.918114	-0.247820	0.459777
H101	H	1.755976	-0.085933	0.532754
H102	H	1.593877	0.076000	0.459808
C103	C	1.120517	0.065763	-0.174202
C104	C	1.105886	-0.062875	-0.138593
C105	C	1.175754	-0.183697	-0.170550
C106	C	1.260254	-0.175883	-0.238116
C107	C	1.274888	-0.047240	-0.273728
C108	C	1.205020	0.073582	-0.241771
H109	H	1.043332	-0.068664	-0.088574
H110	H	1.164920	-0.278926	-0.144187
H111	H	1.311974	-0.265323	-0.261772
H112	H	1.337443	-0.041451	-0.323748
H113	H	1.215854	0.168812	-0.268135
C114	C	1.517570	-0.055060	0.419963
C115	C	1.534580	-0.180717	0.461885
C116	C	1.551566	-0.306374	0.419961
C117	C	1.551542	-0.306375	0.336115
C118	C	1.534530	-0.180713	0.294188
C119	C	1.517544	-0.055055	0.336113
H120	H	1.534599	-0.180721	0.523957
H121	H	1.564159	-0.399397	0.450998
H122	H	1.564116	-0.399394	0.305080
H123	H	1.534511	-0.180709	0.232116
H124	H	1.504951	0.037968	0.305075
C125	C	1.662911	0.007161	0.655048
C126	C	1.659561	-0.135877	0.665536
C127	C	1.752680	-0.228953	0.623606
C128	C	1.849150	-0.178991	0.571189
C129	C	1.852504	-0.035946	0.560699
C130	C	1.759385	0.057130	0.602629
H131	H	1.588144	-0.172869	0.704340
H132	H	1.750197	-0.334845	0.631372
H133	H	1.918083	-0.247892	0.540150
H134	H	1.923921	0.001046	0.521895
H135	H	1.761868	0.163022	0.594863
C136	C	1.452605	0.424726	0.419949
C137	C	1.435608	0.550383	0.461866
C138	C	1.418595	0.676040	0.419937
C139	C	1.418581	0.676040	0.336091
C140	C	1.435579	0.550379	0.294169
C141	C	1.452591	0.424722	0.336098
H142	H	1.435618	0.550387	0.523938
H143	H	1.406012	0.769063	0.450971
H144	H	1.405987	0.769059	0.305053
H145	H	1.435569	0.550375	0.232097
H146	H	1.465175	0.331699	0.305065
H147	H	1.075490	0.275272	-0.171501
H148	H	1.638731	0.031335	0.804232
H149	H	1.331544	0.338335	0.804265
H150	H	1.331526	0.338334	0.665974
H151	H	1.457049	0.392092	0.569129
H152	H	1.331473	0.338315	0.334054
