data_functionalizedCrystal
_audit_creation_method	'MofGen! by Chris Wilmer'
_symmetry_space_group_name_H-M	'P1'
_symmetry_Int_Tables_number	1
_symmetry_cell_setting	triclinic
loop_
_symmetry_equiv_pos_as_xyz
  x,y,z
_cell_length_a	11.169417
_cell_length_b	18.101395
_cell_length_c	18.101389
_cell_angle_alpha	89.983159
_cell_angle_beta	89.984656
_cell_angle_gamma	90.032353
loop_
_atom_site_label
_atom_site_type_symbol
_atom_site_fract_x
_atom_site_fract_y
_atom_site_fract_z
Zn1	Zn	1.834740	-0.294883	-0.418669
Zn2	Zn	1.834571	-0.418708	-0.294831
Zn3	Zn	1.634040	-0.294888	-0.294850
Zn4	Zn	1.633960	-0.418690	-0.418639
O5	O	1.734328	-0.356792	-0.356747
O6	O	2.002667	-0.311314	-0.402247
O7	O	1.807933	-0.402293	-0.191201
O8	O	1.660767	-0.191254	-0.311295
O9	O	2.002543	-0.402288	-0.311263
O10	O	1.808221	-0.191250	-0.402265
O11	O	1.660604	-0.311323	-0.191215
O12	O	1.466080	-0.311305	-0.311266
O13	O	1.660631	-0.402256	-0.522276
O14	O	1.466021	-0.402261	-0.402214
O15	O	1.808143	-0.311296	-0.522298
O16	O	1.807855	-0.522339	-0.311234
O17	O	1.660468	-0.522325	-0.402195
C18	C	1.422503	-0.356782	-0.356739
C19	C	1.289103	-0.356796	-0.356753
C20	C	1.734167	-0.549203	-0.356726
C21	C	1.734208	-0.631517	-0.356741
C22	C	1.734472	-0.930608	-0.356781
C23	C	1.641954	-0.899305	-0.414153
C24	C	1.641515	-0.813687	-0.413974
C25	C	1.734341	-0.782225	-0.356762
C26	C	1.700099	-0.813363	-0.278714
C27	C	1.699502	-0.899008	-0.279057
C28	C	1.861434	-0.898953	-0.376770
C29	C	1.860687	-0.813303	-0.378481
C30	C	1.734269	-0.698366	-0.356746
C31	C	1.734541	-1.014467	-0.356791
C32	C	2.047370	-0.356803	-0.356756
C33	C	2.180770	-0.356807	-0.356760
C34	C	1.734397	-0.356773	-0.549909
C35	C	1.734427	-0.356765	-0.632224
C36	C	1.734522	-0.163630	-0.356786
C37	C	1.734604	-0.081316	-0.356802
C38	C	1.734497	-0.356627	-0.931315
C39	C	1.641367	-0.413674	-0.899976
C40	C	1.641618	-0.413939	-0.814357
C41	C	1.734461	-0.356695	-0.782932
C42	C	1.860910	-0.377878	-0.814026
C43	C	1.860392	-0.378252	-0.899671
C44	C	1.702276	-0.278269	-0.899740
C45	C	1.699463	-0.278722	-0.814089
C46	C	1.734448	-0.356733	-0.699073
C47	C	1.734518	-0.356591	-1.015174
C48	C	1.734328	-0.356757	-0.164337
C49	C	1.734531	-0.356557	-0.082023
H50	H	1.662938	-0.792633	-0.471846
H51	H	1.762345	-0.233962	-0.792698
H52	H	1.770108	-0.235766	-0.920008
F53	F	1.519700	-0.927531	-0.397078
F54	F	1.955556	-0.785300	-0.327848
F55	F	1.785403	-0.786728	-0.221315
H56	H	1.892653	-0.920511	-0.432712
H57	H	1.611672	-0.258970	-0.921334
H58	H	1.547407	-0.793262	-0.400734
H59	H	1.663165	-0.919863	-0.472213
H60	H	1.606693	-0.919049	-0.262124
F61	F	1.518431	-0.396524	-0.926887
H62	H	1.606407	-0.262748	-0.793766
F63	F	1.951534	-0.925421	-0.322161
F64	F	1.783748	-0.926078	-0.221275
F65	F	1.580073	-0.785413	-0.256183
H66	H	1.886510	-0.792950	-0.435921
F67	F	1.519059	-0.396610	-0.786875
F68	F	1.668837	-0.489119	-0.928153
H69	H	1.932132	-0.338505	-0.920404
H70	H	1.662890	-0.472020	-0.793874
H71	H	1.932163	-0.337632	-0.793672
F72	F	1.896092	-0.453121	-0.925792
F73	F	1.897234	-0.451951	-0.786000
