data_functionalizedCrystal
_audit_creation_method	'MofGen! by Chris Wilmer'
_symmetry_space_group_name_H-M	'P1'
_symmetry_Int_Tables_number	1
_symmetry_cell_setting	triclinic
loop_
_symmetry_equiv_pos_as_xyz
  x,y,z
_cell_length_a	25.639242
_cell_length_b	25.639239
_cell_length_c	12.594510
_cell_angle_alpha	90.039834
_cell_angle_beta	90.031243
_cell_angle_gamma	90.034213
loop_
_atom_site_label
_atom_site_type_symbol
_atom_site_fract_x
_atom_site_fract_y
_atom_site_fract_z
Zn1	Zn	0.799272	-0.208168	0.602056
Zn2	Zn	0.799182	-0.295619	0.424060
Zn3	Zn	0.711834	-0.208192	0.424059
Zn4	Zn	0.711793	-0.295567	0.601963
O5	O	0.755520	-0.251887	0.513035
O6	O	0.872425	-0.219780	0.578484
O7	O	0.787574	-0.284053	0.275114
O8	O	0.723488	-0.135024	0.447710
O9	O	0.872359	-0.284030	0.447710
O10	O	0.787728	-0.135006	0.578483
O11	O	0.723401	-0.219822	0.275113
O12	O	0.638664	-0.219772	0.447619
O13	O	0.723418	-0.283942	0.750922
O14	O	0.638634	-0.283966	0.578325
O15	O	0.787688	-0.219730	0.750990
O16	O	0.787534	-0.368777	0.447620
O17	O	0.723331	-0.368739	0.578325
C18	C	0.619678	-0.251866	0.512962
C19	C	0.561564	-0.251870	0.512957
C20	C	0.755432	-0.387729	0.512986
C21	C	0.755443	-0.445843	0.513001
C22	C	0.789038	-0.806213	0.445092
C23	C	0.789059	-0.860818	0.445107
O24	O	0.817532	-0.889061	0.387315
N25	N	0.755612	-0.888126	0.513105
C26	C	0.722147	-0.860826	0.581101
O27	O	0.693700	-0.889068	0.638941
C28	C	0.722130	-0.806223	0.581092
C29	C	0.755575	-0.778918	0.513081
C30	C	0.822481	-0.778908	0.377088
C31	C	0.822460	-0.724308	0.377073
C32	C	0.788996	-0.697012	0.445062
C33	C	0.755554	-0.724318	0.513066
C34	C	0.688668	-0.778925	0.649093
C35	C	0.688654	-0.724318	0.649078
C36	C	0.722098	-0.697013	0.581067
C37	C	0.722069	-0.642422	0.581039
N38	N	0.755515	-0.615114	0.513041
C39	C	0.788979	-0.642409	0.445052
C40	C	0.722186	-0.975497	0.581118
C41	C	0.722201	-1.030099	0.581123
C42	C	0.789113	-1.030087	0.445129
C43	C	0.789096	-0.975484	0.445120
C44	C	0.755633	-0.948189	0.513119
C45	C	0.788932	-0.527744	0.445024
C46	C	0.788906	-0.473139	0.445012
C47	C	0.721996	-0.473156	0.581009
C48	C	0.722019	-0.527757	0.581018
C49	C	0.755492	-0.555049	0.513022
O50	O	0.693612	-0.614144	0.638804
O51	O	0.817426	-0.614161	0.387232
C52	C	0.201194	-0.285368	0.581028
C53	C	0.146590	-0.285372	0.581045
O54	O	0.118347	-0.313828	0.638861
N55	N	0.119281	-0.251901	0.513104
C56	C	0.146580	-0.218421	0.445149
O57	O	0.118338	-0.189952	0.387362
C58	C	0.201183	-0.218416	0.445139
C59	C	0.228489	-0.251892	0.513077
C60	C	0.228499	-0.318842	0.648962
C61	C	0.283100	-0.318839	0.648943
C62	C	0.310395	-0.285363	0.580991
C63	C	0.283089	-0.251890	0.513058
C64	C	0.228481	-0.184934	0.377190
C65	C	0.283088	-0.184931	0.377186
C66	C	0.310394	-0.218408	0.445124
C67	C	0.364985	-0.218411	0.445088
N68	N	0.392293	-0.251882	0.513029
C69	C	0.364998	-0.285358	0.580981
C70	C	0.031909	-0.218435	0.445178
C71	C	-0.022693	-0.218442	0.445182
C72	C	-0.022680	-0.285392	0.581080
C73	C	0.031924	-0.285387	0.581070
C74	C	0.059218	-0.251905	0.513119
C75	C	0.479663	-0.285350	0.580936
C76	C	0.534269	-0.285346	0.580909
C77	C	0.534251	-0.218395	0.445015
C78	C	0.479650	-0.218400	0.445039
C79	C	0.452358	-0.251880	0.513008
O80	O	0.393262	-0.189968	0.387305
O81	O	0.393247	-0.313817	0.638768
C82	C	0.891893	-0.251908	0.513108
C83	C	0.950007	-0.251917	0.513139
C84	C	0.755559	-0.251827	0.790656
C85	C	0.755575	-0.251802	0.908961
C86	C	0.755623	-0.115514	0.513107
C87	C	0.755667	-0.057400	0.513138
C88	C	0.755512	-0.251908	0.236494
C89	C	0.755597	-0.251786	0.118189
C90	C	0.790544	-0.216867	1.049015
C91	C	0.803291	-0.264575	0.978188
C92	C	0.742852	-0.204099	0.978217
C93	C	0.768369	-0.299520	1.048920
C94	C	0.707907	-0.239011	1.048955
C95	C	0.720636	-0.286753	0.978159
H96	H	0.816141	-0.450908	0.389626
C97	C	0.653452	-0.224379	1.090991
N98	N	0.612437	-0.213352	1.122656
H99	H	0.691073	-0.316324	0.947246
H100	H	0.661431	-0.801147	0.704469
H101	H	-0.044920	-0.191188	0.389850
H102	H	0.694749	-0.450924	0.636362
C103	C	0.728298	-0.149607	0.936262
N104	N	0.717340	-0.108563	0.904667
C105	C	0.449650	-0.322183	0.655698
N106	N	0.427044	-0.349929	0.712002
H107	H	0.661404	-0.702097	0.704455
C108	C	0.857762	-0.279184	0.936182
N109	N	0.898790	-0.290183	0.904544
C110	C	0.859248	-0.694279	0.302247
N111	N	0.886958	-0.671665	0.245881
C112	C	0.564301	-0.322173	0.655650
N113	N	0.586920	-0.349911	0.711945
C114	C	0.859294	-0.808925	0.302283
N115	N	0.887021	-0.831529	0.245927
C116	C	0.825750	-0.557758	0.370219
N117	N	0.853478	-0.580364	0.313869
H118	H	0.556484	-0.191141	0.389687
C119	C	0.198483	-0.355677	0.723709
N120	N	0.175879	-0.383428	0.780005
C121	C	0.825889	-0.945453	0.370307
N122	N	0.853604	-0.922837	0.313956
C123	C	0.685404	-1.060129	0.655930
N124	N	0.657689	-1.082745	0.712281
C125	C	0.061955	-0.322210	0.655812
N126	N	0.084571	-0.349946	0.712114
H127	H	0.694787	-0.549989	0.636401
C128	C	0.685374	-0.945478	0.655932
N129	N	0.657650	-0.922871	0.712288
C130	C	0.313129	-0.355663	0.723687
N131	N	0.335743	-0.383400	0.779989
H132	H	0.816363	-1.052321	0.389773
H133	H	-0.044913	-0.312648	0.636414
C134	C	0.061928	-0.181607	0.370409
N135	N	0.084535	-0.153868	0.314093
H136	H	0.779198	-0.339864	1.079848
H137	H	0.206259	-0.157675	0.321865
C138	C	0.449613	-0.181579	0.370296
N139	N	0.426993	-0.153841	0.314005
C140	C	0.313108	-0.148100	0.302430
N141	N	0.335718	-0.120360	0.246120
C142	C	0.830512	-0.177014	1.091050
N143	N	0.860617	-0.147000	1.122712
