data_functionalizedCrystal
_audit_creation_method	'MofGen! by Chris Wilmer'
_symmetry_space_group_name_H-M	'P1'
_symmetry_Int_Tables_number	1
_symmetry_cell_setting	triclinic
loop_
_symmetry_equiv_pos_as_xyz
  x,y,z
_cell_length_a	10.489716
_cell_length_b	10.654541
_cell_length_c	9.130307
_cell_angle_alpha	90.003083
_cell_angle_beta	89.998848
_cell_angle_gamma	95.493468
loop_
_atom_site_label
_atom_site_type_symbol
_atom_site_fract_x
_atom_site_fract_y
_atom_site_fract_z
O1	O	1.693979	-0.177044	-0.121787
O2	O	1.322772	-0.193708	-0.121792
O3	O	1.516912	-0.002640	-0.121781
O4	O	1.499839	-0.368112	-0.121799
O5	O	1.516906	-0.002638	0.121818
O6	O	1.322765	-0.193706	0.121807
O7	O	1.693973	-0.177042	0.121812
Cu8	Cu	1.508369	-0.185374	0.144052
Cu9	Cu	1.508376	-0.185376	-0.144032
O10	O	1.499833	-0.368110	0.121800
C11	C	1.275237	-0.192455	0.000006
C12	C	1.133608	-0.188709	0.000005
C13	C	1.035876	-0.305878	-0.000005
C14	C	0.958558	-0.243963	0.120112
C15	C	0.958570	-0.243937	-0.120058
C16	C	1.058155	-0.126843	0.120220
C17	C	1.058173	-0.126834	-0.120057
C18	C	0.980903	-0.064832	0.000089
C19	C	1.515656	0.044160	0.000018
C20	C	1.511907	0.183605	0.000015
C21	C	1.741508	-0.178295	0.000010
C22	C	1.883137	-0.182041	0.000002
C23	C	1.501089	-0.414910	-0.000002
C24	C	1.504837	-0.554355	-0.000009
N25	N	1.508373	-0.185371	0.346675
C26	C	1.744055	0.211487	0.000037
C27	C	1.858362	0.290938	0.000051
C28	C	1.854832	0.421957	0.000047
C29	C	1.736982	0.473527	0.000024
C30	C	1.622675	0.394077	0.000010
C31	C	1.626217	0.263056	0.000019
C32	C	1.390530	0.366195	-0.000023
C33	C	1.394057	0.235175	-0.000007
C34	C	1.272680	0.417765	-0.000046
C35	C	1.158370	0.338314	-0.000049
C36	C	1.161905	0.207287	-0.000043
C37	C	1.279750	0.155724	-0.000021
N38	N	1.508382	-0.185368	-0.346655
C39	C	1.680355	-0.016230	0.346675
C40	C	1.766354	0.068337	0.423342
C41	C	1.766367	0.068338	0.576675
C42	C	1.680368	-0.016235	0.653345
C43	C	1.594369	-0.100802	0.576678
C44	C	1.594368	-0.100796	0.423342
C45	C	1.422383	-0.269935	0.576678
C46	C	1.422374	-0.269944	0.423345
C47	C	1.336384	-0.354508	0.653348
C48	C	1.250389	-0.439083	0.576681
C49	C	1.250380	-0.439082	0.423338
C50	C	1.336375	-0.354511	0.346678
H51	H	0.915065	-0.293423	-0.221592
N52	N	1.115533	-0.061370	0.254882
H53	H	1.178320	0.011770	0.224428
H54	H	1.161435	-0.122973	0.314553
H55	H	1.101695	-0.077410	-0.221605
N56	N	1.038603	0.121613	-0.000041
H57	H	1.034883	0.066645	0.090270
H58	H	1.034963	0.066698	-0.090394
N59	N	1.747861	0.070174	0.000069
H60	H	1.839858	0.049560	0.000091
H61	H	1.703092	0.033220	-0.090240
H62	H	1.060495	-0.407798	0.000102
H63	H	1.947911	0.486647	0.000046
H64	H	1.680364	-0.016233	0.221823
N65	N	1.733170	0.614840	-0.000004
H66	H	1.823465	0.657346	0.000000
H67	H	1.686682	0.640832	0.090294
N68	N	1.985466	0.235316	0.000097
H69	H	1.992128	0.181563	-0.090193
H70	H	1.992003	0.181653	0.090471
H71	H	0.956523	0.037162	0.000163
N72	N	1.268865	0.559077	-0.000059
H73	H	1.359158	0.601586	-0.000041
H74	H	1.222370	0.585056	0.090240
N75	N	1.031273	0.393933	-0.000086
H76	H	1.046382	0.488988	-0.000097
H77	H	0.981192	0.364961	0.090217
N78	N	1.336396	-0.354522	0.818728
H79	H	1.249579	-0.335416	0.855678
H80	H	1.403984	-0.288131	0.855549
N81	N	1.157633	-0.530283	0.659370
H82	H	1.170683	-0.517443	0.768138
H83	H	1.173139	-0.619526	0.632573
N84	N	1.157612	-0.530285	0.340651
H85	H	1.103139	-0.583853	0.412493
H86	H	1.206915	-0.586286	0.277022
H87	H	1.282639	0.049043	-0.000007
N88	N	1.859076	0.159582	0.340651
H89	H	1.846017	0.146760	0.231881
H90	H	1.949701	0.144227	0.367427
N91	N	1.859118	0.159547	0.659377
H92	H	1.913596	0.213124	0.587548
H93	H	1.915924	0.110911	0.722982
H94	H	1.336380	-0.354507	0.221826
H95	H	0.915048	-0.293424	0.221655
H96	H	1.680373	-0.016219	0.778198
