data_functionalizedCrystal
_audit_creation_method	'MofGen! by Chris Wilmer'
_symmetry_space_group_name_H-M	'P1'
_symmetry_Int_Tables_number	1
_symmetry_cell_setting	triclinic
loop_
_symmetry_equiv_pos_as_xyz
  x,y,z
_cell_length_a	11.792254
_cell_length_b	17.699077
_cell_length_c	16.176319
_cell_angle_alpha	90.005422
_cell_angle_beta	90.001003
_cell_angle_gamma	96.260413
loop_
_atom_site_label
_atom_site_type_symbol
_atom_site_fract_x
_atom_site_fract_y
_atom_site_fract_z
O1	O	-0.143488	1.004850	0.068728
O2	O	-0.162169	0.784571	0.068731
O3	O	0.012405	0.900051	0.068733
O4	O	-0.318062	0.889370	0.068725
O5	O	0.012406	0.900037	-0.068760
O6	O	-0.162168	0.784557	-0.068763
O7	O	-0.143488	1.004836	-0.068766
Cu8	Cu	-0.152828	0.894695	-0.081318
Cu9	Cu	-0.152829	0.894711	0.081283
O10	O	-0.318062	0.889356	-0.068768
C11	C	-0.161500	0.756363	-0.000016
C12	C	-0.159496	0.672334	-0.000014
C13	C	-0.158551	0.632854	-0.074962
C14	C	-0.156649	0.553902	-0.074963
C15	C	-0.155700	0.514429	-0.000015
C16	C	-0.156642	0.553915	0.074939
C17	C	-0.158535	0.632867	0.074939
C18	C	-0.149004	0.235511	0.074941
C19	C	-0.147114	0.156553	0.074935
C20	C	-0.147118	0.156545	-0.074961
C21	C	-0.149011	0.235497	-0.074961
C22	C	-0.149947	0.274977	-0.000008
C23	C	-0.152007	0.360586	-0.000008
C24	C	-0.153649	0.428821	-0.000014
C25	C	-0.360345	0.890036	-0.000022
C26	C	-0.486333	0.892050	-0.000025
C27	C	-0.588650	0.893686	-0.000020
C28	C	-0.717012	0.895732	-0.000011
C29	C	0.054688	0.899371	-0.000011
C30	C	0.180677	0.897357	-0.000003
C31	C	-0.144156	1.033043	-0.000018
C32	C	-0.146161	1.117072	-0.000014
N33	N	-0.152827	0.894689	-0.195684
C34	C	-0.221578	0.940873	-0.238947
C35	C	-0.221573	0.940881	-0.325494
C36	C	-0.152824	0.894701	-0.368776
C37	C	-0.084065	0.848516	-0.325507
C38	C	-0.084064	0.848512	-0.238962
C39	C	-0.084066	0.848530	-0.674535
C40	C	-0.084075	0.848535	-0.761087
C41	C	-0.221576	0.940899	-0.761067
C42	C	-0.221575	0.940895	-0.674522
C43	C	-0.152812	0.894713	-0.631260
C44	C	-0.152816	0.894706	-0.537416
C45	C	-0.152825	0.894704	-0.462619
N46	N	-0.152821	0.894723	0.195648
H47	H	-0.155861	0.521771	0.135964
H48	H	-0.159333	0.664986	-0.135994
H49	H	-0.277562	0.978504	-0.796301
C50	C	-0.244066	0.124113	-0.202734
C51	C	-0.146077	0.113147	-0.157354
H52	H	-0.243427	0.097317	-0.253595
H53	H	-0.245324	0.176777	-0.213456
H54	H	-0.309904	0.105669	-0.171929
H55	H	-0.080239	0.131596	-0.188156
H56	H	-0.144808	0.060473	-0.146634
H57	H	-0.028087	0.810928	-0.796325
H58	H	-0.028075	0.810926	-0.639322
C59	C	-0.023073	0.807459	-0.458180
C60	C	-0.008494	0.797750	-0.373079
H61	H	0.023576	0.776112	-0.487545
H62	H	-0.001919	0.859145	-0.472384
H63	H	-0.100765	0.793690	-0.472327
H64	H	0.069196	0.811524	-0.358931
H65	H	-0.029641	0.746052	-0.358869
H66	H	-0.277562	0.978497	-0.639285
H67	H	-0.028081	0.810905	-0.203738
H68	H	-0.149789	0.267631	-0.135992
C69	C	-0.156869	0.561822	-0.223133
C70	C	-0.155622	0.510504	-0.157349
H71	H	-0.156241	0.535028	-0.273996
H72	H	-0.091453	0.598116	-0.220019
H73	H	-0.223771	0.587115	-0.220004
H74	H	-0.088715	0.485215	-0.160475
H75	H	-0.221044	0.474197	-0.160465
C76	C	-0.147275	0.164489	0.223115
C77	C	-0.146061	0.113164	0.157325
H78	H	-0.146619	0.137701	0.273975
H79	H	-0.214167	0.189782	0.220005
H80	H	-0.081849	0.200785	0.219991
H81	H	-0.211492	0.076872	0.160446
H82	H	-0.079162	0.087859	0.160437
H83	H	-0.149762	0.267646	0.135973
H84	H	-0.159307	0.665010	0.135970
C85	C	-0.357487	1.032178	-0.247629
C86	C	-0.297149	0.991637	-0.191374
H87	H	-0.404135	1.063523	-0.218260
H88	H	-0.404060	0.997541	-0.281388
H89	H	-0.305182	1.062975	-0.281382
H90	H	-0.349455	0.960836	-0.157625
H91	H	-0.250573	1.026279	-0.157601
H92	H	-0.277555	0.978490	-0.360714
