data_functionalizedCrystal
_audit_creation_method	'MofGen! by Chris Wilmer'
_symmetry_space_group_name_H-M	'P1'
_symmetry_Int_Tables_number	1
_symmetry_cell_setting	triclinic
loop_
_symmetry_equiv_pos_as_xyz
  x,y,z
_cell_length_a	16.974800
_cell_length_b	12.811415
_cell_length_c	15.455313
_cell_angle_alpha	87.254642
_cell_angle_beta	90.973911
_cell_angle_gamma	84.065383
loop_
_atom_site_label
_atom_site_type_symbol
_atom_site_fract_x
_atom_site_fract_y
_atom_site_fract_z
O1	O	1.050013	0.133135	-0.008866
O2	O	1.550013	0.633135	0.491134
O3	O	0.820693	0.149085	-0.026226
O4	O	1.320693	0.649085	0.473774
O5	O	0.940553	-0.010906	-0.005219
O6	O	1.440553	0.489094	0.494781
O7	O	0.930153	0.293126	-0.029873
O8	O	1.430153	0.793126	0.470127
O9	O	0.933698	-0.001795	0.137844
O10	O	1.433698	0.498205	0.637844
O11	O	0.813838	0.158196	0.116838
O12	O	1.313838	0.658196	0.616838
O13	O	1.043158	0.142247	0.134198
O14	O	1.543158	0.642247	0.634198
Cu15	Cu	0.927872	0.151053	0.138581
Cu16	Cu	1.427872	0.651053	0.638581
Cu17	Cu	0.935979	0.140278	-0.030609
Cu18	Cu	1.435979	0.640278	0.469391
O19	O	0.923298	0.302237	0.113191
O20	O	1.423298	0.802237	0.613191
C21	C	0.787901	0.152867	0.043305
C22	C	1.287901	0.652867	0.543305
C23	C	0.700403	0.150550	0.037342
C24	C	1.200403	0.650550	0.537342
C25	C	0.655564	0.154425	0.112527
C26	C	1.155564	0.654425	0.612527
C27	C	0.573352	0.152231	0.106928
C28	C	1.073352	0.652231	0.606928
C29	C	0.535979	0.146169	0.026143
C30	C	1.035979	0.646169	0.526143
C31	C	0.580824	0.142290	-0.049047
C32	C	1.080824	0.642290	0.450953
C33	C	0.663035	0.144477	-0.043447
C34	C	1.163035	0.644477	0.456553
C35	C	0.290505	0.139090	0.001032
C36	C	0.790505	0.639090	0.501032
C37	C	0.208287	0.136906	-0.004563
C38	C	0.708287	0.636906	0.495437
C39	C	0.200821	0.146845	0.151414
C40	C	0.700821	0.646845	0.651414
C41	C	0.283034	0.149038	0.157006
C42	C	0.783034	0.649038	0.657006
C43	C	0.327872	0.145153	0.081817
C44	C	0.827872	0.645153	0.581817
N45	N	0.451945	0.143929	0.020418
N46	N	0.951945	0.643929	0.520418
N47	N	0.411905	0.147385	0.087543
N48	N	0.911905	0.647385	0.587543
C49	C	0.936333	-0.045262	0.069317
C50	C	1.436333	0.454738	0.569317
C51	C	0.933961	-0.161207	0.078268
C52	C	1.433961	0.338793	0.578268
C53	C	0.936964	-0.389003	-0.060899
C54	C	1.436964	0.110997	0.439101
C55	C	0.934735	-0.497944	-0.052493
C56	C	1.434735	0.002056	0.447507
C57	C	0.927271	-0.488031	0.103485
C58	C	1.427271	0.011969	0.603485
C59	C	0.929499	-0.379090	0.095079
C60	C	1.429499	0.120910	0.595079
C61	C	0.934347	-0.329580	0.012884
C62	C	1.434347	0.170420	0.512884
C63	C	0.936581	-0.220638	0.004479
C64	C	1.436581	0.279362	0.504479
C65	C	0.929110	-0.210726	0.160456
C66	C	1.429110	0.289274	0.660456
C67	C	0.926882	-0.319667	0.168862
C68	C	1.426882	0.180333	0.668862
C69	C	1.075951	0.138465	0.064665
C70	C	1.575951	0.638465	0.564665
C71	C	1.163449	0.140782	0.070622
C72	C	1.663449	0.640782	0.570622
C73	C	0.927518	0.336594	0.038653
C74	C	1.427518	0.836594	0.538653
C75	C	0.929890	0.452538	0.029696
C76	C	1.429890	0.952538	0.529696
N77	N	0.922177	0.158631	0.257580
N78	N	1.422177	0.658631	0.757580
N79	N	0.941680	0.132692	-0.149607
N80	N	1.441680	0.632692	0.350393
C81	C	0.973116	0.090687	0.311898
C82	C	1.473116	0.590687	0.811898
C83	C	0.968816	0.096427	0.401952
C84	C	1.468816	0.596427	0.901952
C85	C	0.913580	0.170118	0.437686
C86	C	1.413580	0.670118	0.937686
C87	C	0.862636	0.238066	0.383362
C88	C	1.362636	0.738066	0.883362
C89	C	0.866932	0.232319	0.293309
C90	C	1.366932	0.732319	0.793309
C91	C	0.895033	0.194893	0.706016
C92	C	1.395033	0.694893	1.206016
C93	C	0.890742	0.200637	0.796075
C94	C	1.390742	0.700637	1.296075
C95	C	0.996921	0.058996	0.814659
C96	C	1.496921	0.558996	1.314659
C97	C	1.001216	0.053261	0.724604
C98	C	1.501216	0.553261	1.224604
C99	C	0.950269	0.121204	0.670287
C100	C	1.450269	0.621204	1.170287
N101	N	0.909185	0.175990	0.529736
N102	N	1.409185	0.675990	1.029736
N103	N	0.954661	0.115327	0.578240
N104	N	1.454661	0.615327	1.078240
H105	H	0.550389	0.137347	-0.114824
H106	H	1.050389	0.637347	0.385176
H107	H	0.936864	-0.546321	-0.112576
H108	H	1.436864	-0.046321	0.387424
H109	H	0.685986	0.159370	0.178310
H110	H	1.185986	0.659370	0.678310
O111	O	0.529910	0.156056	0.180044
O112	O	1.029910	0.656056	0.680044
C113	C	0.580526	0.161857	0.252548
C114	C	1.080526	0.661857	0.752548
H115	H	0.637192	0.194993	0.230861
H116	H	1.137192	0.694993	0.730861
H117	H	0.549512	0.215363	0.301158
H118	H	1.049512	0.715363	0.801158
H119	H	0.595805	0.079910	0.284256
H120	H	1.095805	0.579910	0.784256
O121	O	0.817417	0.298433	0.240666
O122	O	1.317417	0.798433	0.740666
C123	C	0.767730	0.364691	0.291514
C124	C	1.267730	0.864691	0.791514
H125	H	0.796984	0.370089	0.357865
H126	H	1.296984	0.870089	0.857865
H127	H	0.757533	0.446392	0.258125
H128	H	1.257533	0.946392	0.758125
H129	H	0.708497	0.331171	0.299668
H130	H	1.208497	0.831171	0.799668
O131	O	0.941643	-0.341063	-0.140805
O132	O	1.441643	0.158937	0.359195
C133	C	0.943502	-0.416878	-0.204126
C134	C	1.443502	0.083122	0.295874
H135	H	0.915914	-0.488833	-0.177357
H136	H	1.415914	0.011167	0.322643
H137	H	0.908572	-0.382349	-0.264294
H138	H	1.408572	0.117651	0.235706
H139	H	1.007519	-0.440758	-0.221930
H140	H	1.507519	0.059242	0.278070
H141	H	1.038399	0.003678	0.858892
H142	H	1.538399	0.503678	1.358892
O143	O	0.922423	-0.536075	0.183325
O144	O	1.422423	-0.036075	0.683325
C145	C	0.852584	-0.494807	0.223041
C146	C	1.352584	0.005193	0.723041
H147	H	0.807763	-0.459613	0.171127
H148	H	1.307763	0.040387	0.671127
H149	H	0.826560	-0.560312	0.262018
H150	H	1.326560	-0.060312	0.762018
H151	H	0.866956	-0.431128	0.268093
H152	H	1.366956	0.068872	0.768093
H153	H	0.853551	0.250218	0.661798
H154	H	1.353551	0.750218	1.161798
H155	H	0.922932	-0.359993	0.235783
H156	H	1.422932	0.140007	0.735783
H157	H	0.926982	-0.162333	0.220536
H158	H	1.426982	0.337667	0.720536
H159	H	1.010293	0.041101	0.446178
H160	H	1.510293	0.541101	0.946178
H161	H	0.164306	0.150006	0.212629
H162	H	0.664306	0.650006	0.712629
O163	O	1.026795	0.019010	0.277332
O164	O	1.526795	0.519010	0.777332
C165	C	1.070845	-0.039711	0.344589
C166	C	1.570845	0.460289	0.844589
H167	H	1.035464	-0.036912	0.406622
H168	H	1.535464	0.463088	0.906622
H169	H	1.083523	-0.124734	0.325940
H170	H	1.583523	0.375266	0.825940
H171	H	1.129165	-0.004971	0.355592
H172	H	1.629165	0.495029	0.855592
O173	O	0.706643	0.140534	-0.116443
O174	O	1.206643	0.640534	0.383557
C175	C	0.762726	0.051146	-0.110169
C176	C	1.262726	0.551146	0.389831
H177	H	0.741628	-0.009856	-0.062223
H178	H	1.241628	0.490144	0.437777
H179	H	0.769745	0.016445	-0.176498
H180	H	1.269745	0.516445	0.323502
H181	H	0.822155	0.074568	-0.086714
H182	H	1.322155	0.574568	0.413286
O183	O	1.054892	-0.018419	0.690038
O184	O	1.554892	0.481581	1.190038
C185	C	1.098945	-0.077142	0.757291
C186	C	1.598945	0.422858	1.257291
H187	H	1.063567	-0.074348	0.819326
H188	H	1.563567	0.425652	1.319326
H189	H	1.111624	-0.162164	0.738639
H190	H	1.611624	0.337836	1.238639
H191	H	1.157266	-0.042402	0.768293
H192	H	1.657266	0.457598	1.268293
H193	H	0.313457	0.153969	0.222791
H194	H	0.813457	0.653969	0.722791
H195	H	0.177861	0.131973	-0.070351
H196	H	0.677861	0.631973	0.429649
O197	O	0.809048	0.309619	0.418213
O198	O	1.309048	0.809619	0.918213
C199	C	0.816166	0.300108	0.509344
C200	C	1.316166	0.800108	1.009344
H201	H	0.877957	0.262091	0.529065
H202	H	1.377957	0.762091	1.029065
H203	H	0.806321	0.381354	0.536763
H204	H	1.306321	0.881354	1.036763
H205	H	0.769976	0.249192	0.535894
H206	H	1.269976	0.749192	1.035894
O207	O	0.836970	0.272107	0.830756
O208	O	1.336970	0.772107	1.330756
C209	C	0.759894	0.253438	0.804636
C210	C	1.259894	0.753438	1.304636
H211	H	0.760113	0.168240	0.786393
H212	H	1.260113	0.668240	1.286393
H213	H	0.717610	0.269065	0.860169
H214	H	1.217610	0.769065	1.360169
H215	H	0.739635	0.307910	0.746226
H216	H	1.239635	0.807910	1.246226
O217	O	0.333931	0.135356	-0.072094
O218	O	0.833931	0.635356	0.427906
C219	C	0.283314	0.129513	-0.144592
C220	C	0.783314	0.629513	0.355408
H221	H	0.220587	0.162453	-0.128531
H222	H	0.720587	0.662453	0.371469
H223	H	0.305032	0.177321	-0.201834
H224	H	0.805032	0.677321	0.298166
H225	H	0.283395	0.044042	-0.162035
H226	H	0.783395	0.544042	0.337965
H227	H	0.940530	-0.180329	-0.062448
H228	H	1.440530	0.319671	0.437552
