data_functionalizedCrystal
_audit_creation_method	'MofGen! by Chris Wilmer'
_symmetry_space_group_name_H-M	'P1'
_symmetry_Int_Tables_number	1
_symmetry_cell_setting	triclinic
loop_
_symmetry_equiv_pos_as_xyz
  x,y,z
_cell_length_a	16.992694
_cell_length_b	10.540510
_cell_length_c	15.455320
_cell_angle_alpha	87.293005
_cell_angle_beta	92.844877
_cell_angle_gamma	87.590767
loop_
_atom_site_label
_atom_site_type_symbol
_atom_site_fract_x
_atom_site_fract_y
_atom_site_fract_z
O1	O	1.045270	0.264091	0.072014
O2	O	0.816969	0.261134	0.072040
O3	O	0.936340	0.078357	0.072026
O4	O	0.925899	0.446868	0.072028
O5	O	0.929542	0.088808	-0.072235
O6	O	0.810171	0.271585	-0.072221
O7	O	1.038472	0.274542	-0.072247
Cu8	Cu	0.923701	0.274018	-0.085406
Cu9	Cu	0.931740	0.261658	0.085199
O10	O	0.919101	0.457320	-0.072233
C11	C	0.784337	0.262559	-0.000088
C12	C	0.697231	0.251217	-0.000078
C13	C	0.932163	0.036211	-0.000103
C14	C	0.929836	-0.104941	-0.000097
C15	C	0.647596	0.360638	-0.000078
C16	C	0.565749	0.349976	-0.000090
C17	C	0.533540	0.229891	-0.000095
C18	C	0.583181	0.120462	-0.000098
C19	C	0.665026	0.131126	-0.000092
C20	C	0.289697	0.185693	-0.000119
C21	C	0.207846	0.175037	-0.000122
C22	C	0.190420	0.404552	-0.000116
C23	C	0.272267	0.415205	-0.000104
C24	C	0.321900	0.305777	-0.000112
N25	N	0.449880	0.218990	-0.000105
N26	N	0.405558	0.316680	-0.000108
C27	C	1.012747	-0.315176	-0.000437
C28	C	1.015245	-0.168389	-0.000108
C29	C	0.889996	-0.159462	0.082286
C30	C	0.888121	-0.306391	0.082351
C31	C	0.878612	-0.294469	-0.081701
C32	C	0.882612	-0.147697	-0.082786
C33	C	1.071104	0.273117	-0.000118
C34	C	1.158211	0.284458	-0.000122
C35	C	0.923278	0.499465	-0.000103
C36	C	0.925606	0.640617	-0.000103
N37	N	0.918052	0.282711	-0.205401
C38	C	0.886671	0.330583	-0.749405
C39	C	0.890960	0.324035	-0.658598
C40	C	0.945978	0.239865	-0.613193
C41	C	0.996705	0.162229	-0.658601
C42	C	0.992412	0.168771	-0.749407
C43	C	0.964485	0.211617	-0.341614
C44	C	0.968777	0.205083	-0.250802
C45	C	0.863030	0.366889	-0.250805
C46	C	0.858744	0.373429	-0.341613
C47	C	0.909469	0.295788	-0.387013
N48	N	0.950366	0.233173	-0.520374
N49	N	0.905077	0.302475	-0.479830
N50	N	0.937395	0.252956	0.205194
H51	H	0.673814	0.458424	-0.000072
H52	H	0.330099	0.096588	-0.000125
H53	H	1.013583	0.136539	-0.213838
C54	C	0.511151	0.470335	-0.000081
H55	H	0.457794	0.446790	-0.000094
H56	H	0.523347	0.515579	0.050231
H57	H	0.518620	0.522885	-0.050389
H58	H	1.048598	-0.360067	0.058303
C59	C	0.547757	-0.011631	-0.000103
H60	H	0.589042	-0.075270	-0.000110
H61	H	0.518556	-0.024208	0.050202
H62	H	0.513828	-0.016915	-0.050418
C63	C	0.934913	-0.120235	0.165105
H64	H	0.910352	-0.153681	0.214614
H65	H	0.987961	-0.152684	0.165838
H66	H	0.934127	-0.030131	0.165961
H67	H	0.920902	-0.348475	0.143927
H68	H	0.813944	0.441967	-0.378579
C69	C	0.307691	0.547299	-0.000111
H70	H	0.266406	0.610942	-0.000122
H71	H	0.341622	0.552592	0.050196
H72	H	0.336889	0.559865	-0.050425
C73	C	0.791949	-0.331851	-0.082445
H74	H	0.784409	-0.386749	-0.033299
H75	H	0.758576	-0.257530	-0.080630
H76	H	0.779403	-0.374366	-0.133857
H77	H	0.841872	0.399129	-0.786367
C78	C	0.807233	0.452275	-0.200864
H79	H	0.817663	0.436320	-0.140281
H80	H	0.815508	0.538990	-0.215766
H81	H	0.754096	0.434173	-0.215728
H82	H	0.849655	0.387245	-0.621632
H83	H	0.149999	0.493642	-0.000112
C84	C	0.802068	-0.345321	0.087436
H85	H	0.768409	-0.271352	0.089460
H86	H	0.787536	-0.390475	0.037767
H87	H	0.797170	-0.398135	0.138242
H88	H	1.046672	-0.131798	-0.059162
C89	C	1.020291	0.126234	-0.391543
H90	H	1.053679	0.075185	-0.351494
H91	H	0.990117	0.073014	-0.426949
H92	H	1.051523	0.177839	-0.426982
H93	H	0.705438	0.042024	-0.000091
C94	C	0.805254	-0.103110	0.086451
H95	H	0.782269	-0.137356	0.136746
H96	H	0.806347	-0.013320	0.088923
H97	H	0.774861	-0.123911	0.036253
C98	C	1.053940	-0.362156	-0.080254
H99	H	1.018368	-0.409163	-0.114087
H100	H	1.070017	-0.291249	-0.114168
H101	H	1.098842	-0.415065	-0.061747
H102	H	1.033716	0.105557	-0.786371
H103	H	1.052441	-0.141283	0.059042
C104	C	0.911104	-0.342521	-0.166057
H105	H	0.953640	-0.402627	-0.152298
H106	H	0.870523	-0.381693	-0.198219
H107	H	0.929214	-0.272881	-0.199687
C108	C	1.057224	0.069643	-0.608659
H109	H	1.052522	0.076872	-0.548075
H110	H	1.047539	-0.014927	-0.623520
H111	H	1.108954	0.089885	-0.623562
H112	H	0.820021	-0.103682	-0.087753
C113	C	0.172417	0.042939	-0.000130
H114	H	0.213698	-0.020706	-0.000140
H115	H	0.143218	0.030363	0.050176
H116	H	0.138486	0.037663	-0.050444
H117	H	0.911553	-0.111910	-0.143732
