data_functionalizedCrystal
_audit_creation_method	'MofGen! by Chris Wilmer'
_symmetry_space_group_name_H-M	'P1'
_symmetry_Int_Tables_number	1
_symmetry_cell_setting	triclinic
loop_
_symmetry_equiv_pos_as_xyz
  x,y,z
_cell_length_a	14.044220
_cell_length_b	10.654550
_cell_length_c	9.130313
_cell_angle_alpha	89.999890
_cell_angle_beta	90.004466
_cell_angle_gamma	88.836890
loop_
_atom_site_label
_atom_site_type_symbol
_atom_site_fract_x
_atom_site_fract_y
_atom_site_fract_z
O1	O	1.259693	0.302980	-0.121637
O2	O	1.759693	0.802980	0.378363
O3	O	0.983652	0.292047	-0.121674
O4	O	1.483652	0.792047	0.378326
O5	O	1.128019	0.115412	-0.121649
O6	O	1.628019	0.615412	0.378351
O7	O	1.115326	0.479615	-0.121662
O8	O	1.615326	0.979615	0.378338
O9	O	1.128017	0.115417	0.121950
O10	O	1.628017	0.615417	0.621950
O11	O	0.983650	0.292052	0.121925
O12	O	1.483650	0.792052	0.621925
O13	O	1.259691	0.302985	0.121962
O14	O	1.759691	0.802985	0.621962
Cu15	Cu	1.121671	0.297519	0.144186
Cu16	Cu	1.621671	0.797519	0.644186
Cu17	Cu	1.121673	0.297513	-0.143898
Cu18	Cu	1.621673	0.797513	0.356102
O19	O	1.115324	0.479620	0.121937
O20	O	1.615324	0.979620	0.621937
C21	C	1.127086	0.068523	0.000149
C22	C	1.627086	0.568523	0.500149
C23	C	1.124298	-0.071201	0.000143
C24	C	1.624298	0.428799	0.500143
C25	C	0.948305	0.287263	0.000121
C26	C	1.448305	0.787263	0.500121
C27	C	0.842986	0.272988	0.000106
C28	C	1.342986	0.772988	0.500106
C29	C	1.209299	-0.142144	0.000159
C30	C	1.709299	0.357856	0.500159
C31	C	1.206673	-0.273429	0.000148
C32	C	1.706673	0.226571	0.500148
C33	C	1.034038	-0.262814	0.000112
C34	C	1.534038	0.237186	0.500112
C35	C	1.036664	-0.131532	0.000112
C36	C	1.536664	0.368468	0.500112
C37	C	1.308969	-0.148274	0.000186
C38	C	1.808969	0.351726	0.500186
C39	C	1.306343	-0.279559	0.000176
C40	C	1.806343	0.220441	0.500176
C41	C	0.650153	0.246889	0.000136
C42	C	1.150153	0.746889	0.500136
C43	C	0.593185	0.348137	0.000139
C44	C	1.093185	0.848137	0.500139
C45	C	0.485886	0.333615	0.000156
C46	C	0.985886	0.833615	0.500156
C47	C	0.757461	0.261409	0.000120
C48	C	1.257461	0.761409	0.500120
C49	C	1.295038	0.307769	0.000164
C50	C	1.795038	0.807769	0.500164
C51	C	1.400358	0.322044	0.000169
C52	C	1.900358	0.822044	0.500169
C53	C	1.116257	0.526509	0.000136
C54	C	1.616257	1.026509	0.500136
C55	C	1.119045	0.666233	0.000132
C56	C	1.619045	1.166233	0.500132
N57	N	1.121676	0.297523	0.346809
N58	N	1.621676	0.797523	0.846809
N59	N	1.121675	0.297500	-0.346520
N60	N	1.621675	0.797500	0.153480
C61	C	1.185618	0.219340	0.423472
C62	C	1.685618	0.719340	0.923472
C63	C	1.185616	0.219324	0.576808
C64	C	1.685616	0.719324	1.076808
C65	C	1.057725	0.375686	0.576806
C66	C	1.557725	0.875686	1.076806
C67	C	1.057724	0.375694	0.423472
C68	C	1.557724	0.875694	0.923472
C69	C	1.259458	0.129069	0.423474
C70	C	1.759458	0.629069	0.923474
C71	C	1.259455	0.129054	0.576811
C72	C	1.759455	0.629054	1.076811
H73	H	0.967448	-0.073774	0.000079
H74	H	1.467448	0.426226	0.500079
H75	H	0.618342	0.149310	0.000148
H76	H	1.118342	0.649310	0.500148
H77	H	1.005657	0.439330	0.639241
H78	H	1.505657	0.939330	1.139241
H79	H	1.328328	0.166578	0.375924
H80	H	1.828328	0.666578	0.875924
H81	H	1.332349	0.157898	0.618437
H82	H	1.832349	0.657898	1.118437
H83	H	0.962689	-0.311952	0.000086
H84	H	1.462689	0.188048	0.500086
H85	H	1.343896	-0.317543	0.102124
H86	H	1.843896	0.182457	0.602124
H87	H	1.005649	0.439345	0.361054
H88	H	1.505649	0.939345	0.861054
H89	H	1.347954	-0.115001	-0.101747
H90	H	1.847954	0.384999	0.398253
H91	H	0.624998	0.445725	0.000129
H92	H	1.124998	0.945725	0.500129
H93	H	1.243262	0.030909	0.381855
H94	H	1.743262	0.530909	0.881855
H95	H	1.236409	0.035516	0.624358
H96	H	1.736409	0.535516	1.124358
H97	H	1.340707	-0.109456	0.105372
H98	H	1.840707	0.390544	0.605372
H99	H	1.336465	-0.322177	-0.105000
H100	H	1.836465	0.177823	0.395000
