data_functionalizedCrystal
_audit_creation_method	'MofGen! by Chris Wilmer'
_symmetry_space_group_name_H-M	'P1'
_symmetry_Int_Tables_number	1
_symmetry_cell_setting	triclinic
loop_
_symmetry_equiv_pos_as_xyz
  x,y,z
_cell_length_a	13.032721
_cell_length_b	13.033286
_cell_length_c	18.215399
_cell_angle_alpha	97.174609
_cell_angle_beta	97.154261
_cell_angle_gamma	89.137287
loop_
_atom_site_label
_atom_site_type_symbol
_atom_site_fract_x
_atom_site_fract_y
_atom_site_fract_z
Zn1	Zn	-0.608907	1.520140	-0.334295
Zn2	Zn	-0.275574	1.853473	-0.000962
Zn3	Zn	0.057760	2.186807	0.332372
Zn4	Zn	-0.780886	1.498183	-0.228576
Zn5	Zn	-0.447552	1.831516	0.104757
Zn6	Zn	-0.114219	2.164850	0.438090
Zn7	Zn	-0.587123	1.348169	-0.224711
Zn8	Zn	-0.253790	1.681503	0.108623
Zn9	Zn	0.079543	2.014836	0.441956
Zn10	Zn	-0.759018	1.326302	-0.365054
Zn11	Zn	-0.425685	1.659635	-0.031721
Zn12	Zn	-0.092352	1.992968	0.301613
O13	O	-0.683984	1.423198	-0.288159
O14	O	-0.350650	1.756532	0.045174
O15	O	-0.017317	2.089865	0.378508
O16	O	-0.649988	1.661131	-0.309016
O17	O	-0.316655	1.994464	0.024317
O18	O	0.016678	2.327797	0.357650
O19	O	-0.755218	1.478246	-0.125086
O20	O	-0.421884	1.811579	0.208248
O21	O	-0.088551	2.144913	0.541581
O22	O	-0.446101	1.389322	-0.224757
O23	O	-0.112767	1.722656	0.108577
O24	O	0.220566	2.055989	0.441910
O25	O	-0.776340	1.644999	-0.231345
O26	O	-0.443007	1.978332	0.101988
O27	O	-0.109674	2.311665	0.435321
O28	O	-0.462105	1.515668	-0.305268
O29	O	-0.128772	1.849002	0.028065
O30	O	0.204562	2.182335	0.361399
O31	O	-0.612861	1.368032	-0.122246
O32	O	-0.279528	1.701365	0.211088
O33	O	0.053805	2.034698	0.544421
O34	O	-0.591658	1.201365	-0.254582
O35	O	-0.258324	1.534699	0.078751
O36	O	0.075009	1.868032	0.412084
O37	O	-0.739071	1.352052	-0.463952
O38	O	-0.405738	1.685385	-0.130618
O39	O	-0.072404	2.018719	0.202715
O40	O	-0.717948	1.185299	-0.357692
O41	O	-0.384615	1.518632	-0.024359
O42	O	-0.051281	1.851966	0.308975
O43	O	-0.628785	1.494464	-0.441353
O44	O	-0.295451	1.827798	-0.108020
O45	O	0.037882	2.161131	0.225314
O46	O	-0.921897	1.457042	-0.261171
O47	O	-0.588564	1.790375	0.072163
O48	O	-0.255231	2.123708	0.405496
O49	O	-0.905832	1.330761	-0.361440
O50	O	-0.572498	1.664094	-0.028107
O51	O	-0.239165	1.997428	0.305226
C52	C	-0.650067	1.156020	-0.309056
C53	C	-0.316734	1.489353	0.024277
C54	C	0.016600	1.822686	0.357611
C55	C	-0.635582	1.041716	-0.318016
C56	C	-0.302249	1.375049	0.015318
C57	C	0.031085	1.708383	0.348651
C58	C	-0.951183	1.389174	-0.315077
C59	C	-0.617849	1.722507	0.018257
C60	C	-0.284516	2.055840	0.351590
C61	C	-1.065504	1.374712	-0.326609
C62	C	-0.732170	1.708045	0.006724
C63	C	-0.398837	2.041379	0.340057
C64	C	-0.691544	0.982787	-0.283501
C65	C	-0.358210	1.316120	0.049832
C66	C	-0.024877	1.649454	0.383166
C67	C	-0.676574	0.864648	-0.292761
C68	C	-0.343241	1.197981	0.040573
C69	C	-0.009907	1.531315	0.373906
C70	C	-1.124393	1.430801	-0.282169
C71	C	-0.791060	1.764134	0.051165
C72	C	-0.457726	2.097467	0.384498
C73	C	-1.242550	1.415855	-0.294087
C74	C	-0.909216	1.749188	0.039246
C75	C	-0.575883	2.082522	0.372579
C76	C	-0.415745	1.457384	-0.261150
C77	C	-0.082411	1.790717	0.072183
C78	C	0.250922	2.124051	0.405517
C79	C	-0.301437	1.471952	-0.249641
C80	C	0.031896	1.805285	0.083693
C81	C	0.365229	2.138618	0.417026
C82	C	-0.683918	1.423268	-0.480100
C83	C	-0.350585	1.756601	-0.146767
C84	C	-0.017252	2.089935	0.186567
C85	C	-0.683891	1.423298	-0.561894
C86	C	-0.350557	1.756631	-0.228560
C87	C	-0.017224	2.089964	0.104773
C88	C	-0.718034	1.691420	-0.267181
C89	C	-0.384700	2.024754	0.066152
C90	C	-0.051367	2.358087	0.399486
C91	C	-0.732544	1.805721	-0.258241
C92	C	-0.399210	2.139054	0.075092
C93	C	-0.065877	2.472387	0.408425
C94	C	-0.626381	1.497501	-0.815174
C95	C	-0.293047	1.830834	-0.481840
C96	C	0.040286	2.164168	-0.148507
C97	C	-0.626407	1.497485	-0.738319
C98	C	-0.293074	1.830819	-0.404985
C99	C	0.040260	2.164152	-0.071652
C100	C	-0.741262	1.349197	-0.761841
C101	C	-0.407929	1.682530	-0.428508
C102	C	-0.074595	2.015864	-0.095174
C103	C	-0.741241	1.349218	-0.838694
C104	C	-0.407908	1.682551	-0.505361
C105	C	-0.074574	2.015885	-0.172028
C106	C	-0.683794	1.423369	-0.865358
C107	C	-0.350461	1.756703	-0.532025
C108	C	-0.017128	2.090036	-0.198692
C109	C	-0.683842	1.423332	-0.711650
C110	C	-0.350508	1.756666	-0.378316
C111	C	-0.017175	2.089999	-0.044983
C112	C	-0.683871	1.423315	-0.628320
C113	C	-0.350537	1.756648	-0.294987
C114	C	-0.017204	2.089982	0.038346
C115	C	-0.683767	1.423388	-0.948693
C116	C	-0.350433	1.756722	-0.615360
C117	C	-0.017100	2.090055	-0.282027
C118	C	-0.683982	1.423198	-0.096953
C119	C	-0.350649	1.756531	0.236381
C120	C	-0.017315	2.089864	0.569714
C121	C	-0.683745	1.423404	-0.015115
C122	C	-0.350412	1.756737	0.318219
C123	C	-0.017079	2.090071	0.651552
H124	H	-0.750540	1.019797	-0.247100
H125	H	-0.417207	1.353130	0.086234
H126	H	-0.083873	1.686463	0.419567
O127	O	-0.570458	1.569400	-0.841109
O128	O	-0.237124	1.902734	-0.507776
O129	O	0.096209	2.236067	-0.174443
C130	C	-0.496607	1.519328	-0.883470
C131	C	-0.163274	1.852662	-0.550137
C132	C	0.170059	2.185995	-0.216804
H133	H	-0.479984	1.439138	-0.866003
H134	H	-0.146650	1.772472	-0.532670
H135	H	0.186683	2.105805	-0.199336
H136	H	-0.422183	1.566605	-0.873467
H137	H	-0.088850	1.899938	-0.540133
H138	H	0.244484	2.233272	-0.206800
H139	H	-0.527937	1.511753	-0.945194
H140	H	-0.194603	1.845086	-0.611860
H141	H	0.138730	2.178420	-0.278527
H142	H	-0.787999	1.288849	-0.879558
H143	H	-0.454666	1.622183	-0.546224
H144	H	-0.121333	1.955516	-0.212891
H145	H	-0.791549	0.842724	-0.221841
H146	H	-0.458216	1.176057	0.111493
H147	H	-0.124883	1.509390	0.444826
H148	H	-0.617580	0.827642	-0.329170
H149	H	-0.284247	1.160975	0.004163
H150	H	0.049086	1.494309	0.337496
H151	H	-0.788031	1.288824	-0.740121
H152	H	-0.454698	1.622158	-0.406788
H153	H	-0.121365	1.955491	-0.073455
H154	H	-1.279603	1.356771	-0.340964
H155	H	-0.946270	1.690104	-0.007631
H156	H	-0.612937	2.023437	0.325703
O157	O	-0.570784	1.569574	-0.689538
O158	O	-0.237451	1.902907	-0.356205
O159	O	0.095882	2.236240	-0.022872
C160	C	-0.637758	1.628514	-0.645764
C161	C	-0.304425	1.961847	-0.312431
C162	C	0.028909	2.295181	0.020902
H163	H	-0.719556	1.624578	-0.676579
H164	H	-0.386223	1.957911	-0.343245
H165	H	-0.052890	2.291245	-0.009912
H166	H	-0.610585	1.712385	-0.634954
H167	H	-0.277251	2.045718	-0.301620
H168	H	0.056082	2.379051	0.031713
H169	H	-0.637290	1.596242	-0.590365
H170	H	-0.303957	1.929575	-0.257031
H171	H	0.029376	2.262908	0.076302
H172	H	-0.576592	1.004706	-0.354423
H173	H	-0.243259	1.338039	-0.021089
H174	H	0.090074	1.671372	0.312244
O175	O	-1.109834	1.304352	-0.382565
O176	O	-0.776500	1.637685	-0.049232
O177	O	-0.443167	1.971018	0.284102
C178	C	-1.179289	1.355073	-0.431780
C179	C	-0.845955	1.688407	-0.098446
C180	C	-0.512622	2.021740	0.234887
H181	H	-1.205124	1.431025	-0.401369
H182	H	-0.871791	1.764358	-0.068036
H183	H	-0.538457	2.097691	0.265298
H184	H	-1.249595	1.303684	-0.452469
H185	H	-0.916262	1.637017	-0.119135
H186	H	-0.582928	1.970351	0.214198
H187	H	-1.139313	1.371525	-0.481297
H188	H	-0.805980	1.704859	-0.147964
H189	H	-0.472646	2.038192	0.185370
O190	O	-1.080127	1.501148	-0.226179
O191	O	-0.746794	1.834481	0.107155
O192	O	-0.413461	2.167815	0.440488
C193	C	-1.010629	1.450433	-0.176987
C194	C	-0.677296	1.783766	0.156346
C195	C	-0.343963	2.117100	0.489679
H196	H	-1.032871	1.365361	-0.181985
H197	H	-0.699538	1.698695	0.151348
H198	H	-0.366205	2.032028	0.484681
H199	H	-1.014044	1.487836	-0.117329
H200	H	-0.680711	1.821169	0.216004
H201	H	-0.347377	2.154503	0.549338
H202	H	-0.928776	1.457093	-0.191869
H203	H	-0.595443	1.790426	0.141464
H204	H	-0.262110	2.123759	0.474798
H205	H	-1.264386	1.531044	-0.202769
H206	H	-0.931052	1.864378	0.130565
H207	H	-0.597719	2.197711	0.463898
