data_functionalizedCrystal
_audit_creation_method	'MofGen! by Chris Wilmer'
_symmetry_space_group_name_H-M	'P1'
_symmetry_Int_Tables_number	1
_symmetry_cell_setting	triclinic
loop_
_symmetry_equiv_pos_as_xyz
  x,y,z
_cell_length_a	25.639242
_cell_length_b	29.839131
_cell_length_c	25.639233
_cell_angle_alpha	89.980415
_cell_angle_beta	89.977834
_cell_angle_gamma	90.036947
loop_
_atom_site_label
_atom_site_type_symbol
_atom_site_fract_x
_atom_site_fract_y
_atom_site_fract_z
Zn1	Zn	0.799215	-0.178962	-0.295739
Zn2	Zn	0.799134	-0.254076	-0.208302
Zn3	Zn	0.711791	-0.178955	-0.208303
Zn4	Zn	0.711732	-0.254059	-0.295692
O5	O	0.755468	-0.216513	-0.252009
O6	O	0.872370	-0.188935	-0.284160
O7	O	0.787539	-0.244115	-0.135137
O8	O	0.723447	-0.116089	-0.219922
O9	O	0.872310	-0.244122	-0.219920
O10	O	0.787677	-0.116094	-0.284161
O11	O	0.723369	-0.188924	-0.135138
O12	O	0.638618	-0.188908	-0.219876
O13	O	0.723346	-0.244093	-0.368864
O14	O	0.638575	-0.244087	-0.284081
O15	O	0.787619	-0.188919	-0.368898
O16	O	0.787482	-0.316941	-0.219875
O17	O	0.723268	-0.316929	-0.284080
C18	C	0.619626	-0.216495	-0.251974
C19	C	0.561512	-0.216499	-0.251971
C20	C	0.201135	-0.245293	-0.285409
C21	C	0.146531	-0.245295	-0.285417
O22	O	0.118282	-0.269755	-0.313817
N23	N	0.119229	-0.216525	-0.252043
C24	C	0.146535	-0.187748	-0.218663
O25	O	0.118299	-0.163276	-0.190277
C26	C	0.201138	-0.187743	-0.218658
C27	C	0.228437	-0.216518	-0.252030
C28	C	0.228434	-0.274065	-0.318778
C29	C	0.283034	-0.274063	-0.318769
C30	C	0.310336	-0.245288	-0.285390
C31	C	0.283037	-0.216516	-0.252021
C32	C	0.228443	-0.158963	-0.185281
C33	C	0.283050	-0.158961	-0.185279
C34	C	0.310349	-0.187736	-0.218651
C35	C	0.364940	-0.187739	-0.218633
N36	N	0.392241	-0.216509	-0.252006
C37	C	0.364939	-0.245283	-0.285385
C38	C	0.031864	-0.187759	-0.218677
C39	C	-0.022738	-0.187766	-0.218679
C40	C	-0.022739	-0.245313	-0.285434
C41	C	0.031865	-0.245308	-0.285429
C42	C	0.059166	-0.216529	-0.252051
C43	C	0.479604	-0.245277	-0.285363
C44	C	0.534210	-0.245273	-0.285350
C45	C	0.534206	-0.187724	-0.218597
C46	C	0.479605	-0.187729	-0.218609
C47	C	0.452306	-0.216507	-0.251996
O48	O	0.393223	-0.163290	-0.190249
O49	O	0.393182	-0.269746	-0.313771
C50	C	0.755374	-0.333236	-0.251983
C51	C	0.755381	-0.383170	-0.251990
C52	C	0.788965	-0.692807	-0.218627
C53	C	0.789030	-0.880480	-0.218647
O54	O	0.817509	-0.904740	-0.190260
N55	N	0.755577	-0.903955	-0.252049
C56	C	0.722108	-0.880509	-0.285450
O57	O	0.693659	-0.904782	-0.313865
C58	C	0.722046	-0.692837	-0.285432
C59	C	0.755498	-0.669364	-0.252024
C60	C	0.822415	-0.669335	-0.185222
C61	C	0.822396	-0.622419	-0.185215
C62	C	0.788928	-0.598976	-0.218613
C63	C	0.755479	-0.622449	-0.252018
C64	C	0.688580	-0.669391	-0.318836
C65	C	0.688568	-0.622470	-0.318829
C66	C	0.722020	-0.598998	-0.285422
C67	C	0.721993	-0.552090	-0.285409
N68	N	0.755446	-0.528615	-0.252007
C69	C	0.788914	-0.552058	-0.218609
C70	C	0.722141	-0.979039	-0.285457
C71	C	0.722156	-1.025957	-0.285461
C72	C	0.789079	-1.025925	-0.218658
C73	C	0.789062	-0.979007	-0.218652
C74	C	0.755595	-0.955565	-0.252055
C75	C	0.788872	-0.453533	-0.218597
C76	C	0.788849	-0.406613	-0.218592
C77	C	0.721928	-0.406649	-0.285396
C78	C	0.721949	-0.453564	-0.285400
C79	C	0.755425	-0.477005	-0.251999
O80	O	0.693533	-0.527802	-0.313784
O81	O	0.817366	-0.527777	-0.190207
C82	C	0.788984	-0.739723	-0.218633
C83	C	0.755535	-0.763195	-0.252038
C84	C	0.722067	-0.739752	-0.285436
C85	C	0.755549	-0.810113	-0.252042
C86	C	0.789017	-0.833556	-0.218644
C87	C	0.822470	-0.810081	-0.185242
C88	C	0.822451	-0.763166	-0.185235
C89	C	0.688614	-0.763227	-0.318838
C90	C	0.688635	-0.810143	-0.318841
C91	C	0.722102	-0.833585	-0.285443
C92	C	0.891841	-0.216531	-0.252045
C93	C	0.949955	-0.216539	-0.252060
C94	C	0.755485	-0.216505	-0.388382
C95	C	0.755492	-0.216502	-0.446496
C96	C	0.755577	-0.099335	-0.252047
C97	C	0.755624	-0.049400	-0.252063
C98	C	0.789002	-0.187687	-0.806883
C99	C	0.789008	-0.187675	-0.861488
O100	O	0.817457	-0.163229	-0.889744
N101	N	0.755550	-0.216396	-0.888779
C102	C	0.722079	-0.245129	-0.861463
O103	O	0.693621	-0.269558	-0.889691
C104	C	0.722071	-0.245139	-0.806860
C105	C	0.755535	-0.216419	-0.779571
C106	C	0.822463	-0.158969	-0.779594
C107	C	0.822457	-0.158982	-0.724994
C108	C	0.788990	-0.187714	-0.697682
C109	C	0.755529	-0.216432	-0.724971
C110	C	0.688598	-0.273869	-0.779545
C111	C	0.688592	-0.273876	-0.724938
C112	C	0.722056	-0.245156	-0.697650
C113	C	0.722056	-0.245176	-0.643058
N114	N	0.755514	-0.216455	-0.615767
C115	C	0.788981	-0.187723	-0.643079
C116	C	0.722100	-0.245106	-0.976134
C117	C	0.722110	-0.245099	-1.030736
C118	C	0.789039	-0.187644	-1.030757
C119	C	0.789030	-0.187653	-0.976153
C120	C	0.755558	-0.216384	-0.948843
C121	C	0.788967	-0.187753	-0.528414
C122	C	0.788959	-0.187770	-0.473808
C123	C	0.722029	-0.245223	-0.473793
C124	C	0.722038	-0.245208	-0.528393
C125	C	0.755509	-0.216470	-0.555702
O126	O	0.693620	-0.269609	-0.614767
O127	O	0.817430	-0.163295	-0.614845
C128	C	0.755482	-0.216488	-0.116167
C129	C	0.755576	-0.216365	-0.058053
H130	H	0.457384	-0.268709	-0.312552
C131	C	0.651782	-0.305458	-0.809551
H132	H	0.631847	-0.322563	-0.785457
H133	H	0.671757	-0.325035	-0.830857
H134	H	0.629017	-0.288260	-0.830844
C135	C	0.313081	-0.127304	-0.148562
H136	H	0.349511	-0.131418	-0.153337
H137	H	0.304107	-0.133832	-0.113420
H138	H	0.304155	-0.097128	-0.156286
C139	C	0.685356	-1.051772	-0.322206
H140	H	0.665428	-1.031086	-0.342098
H141	H	0.662593	-1.070101	-0.302187
H142	H	0.705350	-1.070049	-0.345013
C143	C	0.825854	-0.156040	-1.060807
H144	H	0.821061	-0.160148	-1.097234
H145	H	0.860976	-0.162622	-1.051867
H146	H	0.818228	-0.125853	-1.051864
C147	C	0.564245	-0.156073	-0.181886
H148	H	0.600673	-0.160191	-0.186668
H149	H	0.555278	-0.162597	-0.146741
H150	H	0.555321	-0.125897	-0.189611
H151	H	0.556434	-0.268707	-0.312526
H152	H	0.849691	-0.744058	-0.158032
C153	C	0.449575	-0.156079	-0.181899
H154	H	0.473658	-0.138941	-0.162021
H155	H	0.428246	-0.173233	-0.159085
H156	H	0.428304	-0.136528	-0.201950
C157	C	0.685303	-0.276694	-1.060748
H158	H	0.665370	-0.293803	-1.036657
H159	H	0.705285	-0.296267	-1.082054
H160	H	0.662537	-0.259499	-1.082042
H161	H	0.694794	-0.268599	-0.550613
H162	H	0.849637	-0.603311	-0.158013
H163	H	-0.044960	-0.164338	-0.191499
C164	C	0.685234	-0.276840	-0.443745
H165	H	0.665311	-0.293951	-0.467815
H166	H	0.662464	-0.259667	-0.422431
H167	H	0.705233	-0.296419	-0.422456
C168	C	0.651784	-0.305492	-0.694899
H169	H	0.631864	-0.322598	-0.718975
H170	H	0.629013	-0.288319	-0.673587
H171	H	0.671776	-0.325074	-0.673610
C172	C	0.825787	-0.156145	-0.558446
H173	H	0.845716	-0.139049	-0.534367
H174	H	0.805814	-0.136560	-0.579745
H175	H	0.848558	-0.173332	-0.579749
H176	H	0.816330	-1.045021	-0.191464
H177	H	0.305256	-0.297494	-0.345945
H178	H	0.816212	-0.164382	-0.451592
H179	H	0.661390	-0.829250	-0.346045
C180	C	0.198407	-0.305720	-0.355496
H181	H	0.161976	-0.301606	-0.350728
H182	H	0.207339	-0.335893	-0.347776
H183	H	0.207380	-0.299187	-0.390640
C184	C	-0.052778	-0.276961	-0.322155
H185	H	-0.089206	-0.272837	-0.317380
H186	H	-0.043857	-0.307137	-0.314443
H187	H	-0.043808	-0.270425	-0.357299
C188	C	0.061888	-0.276957	-0.322142
H189	H	0.037803	-0.294092	-0.342022
H190	H	0.083169	-0.296505	-0.302102
H191	H	0.083208	-0.259796	-0.344961
H192	H	0.849719	-0.829176	-0.158047
H193	H	0.849671	-0.688417	-0.158025
C194	C	0.825650	-0.380796	-0.181844
H195	H	0.845588	-0.401480	-0.161960
H196	H	0.805661	-0.362518	-0.159038
H197	H	0.848412	-0.362467	-0.201870
H198	H	0.816133	-0.472612	-0.191400
H199	H	0.661361	-0.744143	-0.346035
C200	C	0.825862	-0.953191	-0.181908
H201	H	0.845796	-0.973877	-0.162022
H202	H	0.805875	-0.934910	-0.159103
H203	H	0.848628	-0.934866	-0.201934
C204	C	0.685320	-0.953259	-0.322197
H205	H	0.665397	-0.973963	-0.342083
H206	H	0.705291	-0.934931	-0.345002
H207	H	0.662544	-0.934984	-0.302166
C208	C	0.651786	-0.695201	-0.355589
H209	H	0.631861	-0.674513	-0.375481
H210	H	0.629020	-0.713531	-0.335575
H211	H	0.671782	-0.713476	-0.378396
H212	H	0.054089	-0.164324	-0.191493
C213	C	0.859263	-0.127385	-0.694983
H214	H	0.879189	-0.110271	-0.719076
H215	H	0.882028	-0.144573	-0.673684
H216	H	0.839274	-0.107809	-0.673683
H217	H	0.206226	-0.135532	-0.158104
H218	H	0.694712	-0.472677	-0.312605
H219	H	0.694677	-0.387554	-0.312587
C220	C	0.651754	-0.596687	-0.355574
H221	H	0.631834	-0.617388	-0.375467
H222	H	0.671733	-0.578359	-0.378373
H223	H	0.628975	-0.578411	-0.335547
C224	C	0.859283	-0.127364	-0.809629
H225	H	0.879209	-0.110268	-0.785549
H226	H	0.839313	-0.107779	-0.830931
H227	H	0.882055	-0.144552	-0.830929
C228	C	0.825835	-0.156057	-0.946141
H229	H	0.845763	-0.138943	-0.970232
H230	H	0.848598	-0.173244	-0.924839
H231	H	0.805845	-0.136480	-0.924842
C232	C	0.685289	-0.276722	-0.946097
H233	H	0.665371	-0.293828	-0.970174
H234	H	0.662516	-0.259546	-0.924789
H235	H	0.705276	-0.296304	-0.924803
