data_functionalizedCrystal
_audit_creation_method	'MofGen! by Chris Wilmer'
_symmetry_space_group_name_H-M	'P1'
_symmetry_Int_Tables_number	1
_symmetry_cell_setting	triclinic
loop_
_symmetry_equiv_pos_as_xyz
  x,y,z
_cell_length_a	10.686285
_cell_length_b	10.686154
_cell_length_c	21.395355
_cell_angle_alpha	85.656391
_cell_angle_beta	85.619443
_cell_angle_gamma	89.657472
loop_
_atom_site_label
_atom_site_type_symbol
_atom_site_fract_x
_atom_site_fract_y
_atom_site_fract_z
Zn1	Zn	-0.352285	-1.956217	-0.266492
Zn2	Zn	-0.562032	-1.972197	-0.153142
Zn3	Zn	-0.368393	-1.746431	-0.169095
Zn4	Zn	-0.578097	-1.762542	-0.265245
O5	O	-0.465202	-1.859347	-0.213494
O6	O	-0.366644	-2.133875	-0.245302
O7	O	-0.536363	-1.942194	-0.067582
O8	O	-0.190715	-1.760830	-0.189213
O9	O	-0.520744	-2.145615	-0.162024
O10	O	-0.178880	-1.914959	-0.260770
O11	O	-0.394097	-1.776325	-0.079302
O12	O	-0.409675	-1.573031	-0.188004
O13	O	-0.548124	-1.788288	-0.353087
O14	O	-0.563744	-1.584867	-0.258645
O15	O	-0.382222	-1.930581	-0.354003
O16	O	-0.739704	-1.957815	-0.160815
O17	O	-0.751507	-1.803783	-0.243177
C18	C	-0.490201	-1.533434	-0.224921
C19	C	-0.500927	-1.394009	-0.229823
C20	C	-0.791119	-1.884315	-0.200142
C21	C	-0.930539	-1.895112	-0.194447
C22	C	-0.138009	-1.834315	-0.226910
C23	C	0.001421	-1.823648	-0.232628
C24	C	-0.465168	-1.859449	-0.376914
C25	C	-0.465154	-1.859493	-0.446555
C26	C	-0.440093	-1.186531	-0.202019
C27	C	-0.429362	-1.325955	-0.197120
C28	C	-0.378765	-1.933581	-0.479746
C29	C	-0.378712	-1.933575	-0.545184
C30	C	-0.465068	-1.859496	-0.577426
C31	C	-0.551463	-1.785392	-0.544227
C32	C	-0.551506	-1.785391	-0.478791
C33	C	-0.578778	-1.858244	-0.676821
C34	C	-0.578736	-1.858255	-0.742256
C35	C	-0.464935	-1.859493	-0.779252
C36	C	-0.351170	-1.860747	-0.750806
C37	C	-0.351213	-1.860746	-0.685370
C38	C	-0.465030	-1.859489	-0.648380
C39	C	-0.378481	-1.933579	-0.883399
C40	C	-0.378425	-1.933564	-0.948838
C41	C	-0.551188	-1.785389	-0.947880
C42	C	-0.551232	-1.785396	-0.882442
C43	C	-0.464880	-1.859498	-0.850205
C44	C	-0.465139	-1.859310	-0.050710
C45	C	-0.464781	-1.859483	0.018924
H46	H	-0.950172	-1.754206	-0.269674
F47	F	-0.993816	-1.985871	-0.146015
H48	H	-0.570412	-1.345604	-0.261570
H49	H	-0.308449	-1.993918	-0.453503
F50	F	-0.338554	-1.389215	-0.155619
F51	F	-0.230044	-1.862070	-0.790175
H52	H	-0.621586	-1.725074	-0.855417
H53	H	-0.671370	-1.857241	-0.765411
H54	H	-0.308357	-1.993903	-0.572214
F55	F	-0.230140	-1.862074	-0.655098
H56	H	-0.308161	-1.993909	-0.857151
H57	H	-0.621772	-1.725073	-0.570483
F58	F	-0.286487	-2.012439	-0.984162
F59	F	-0.699909	-1.856955	-0.637452
F60	F	-0.643087	-1.706538	-0.982191
H61	H	-0.621853	-1.725054	-0.451768
