data_functionalizedCrystal
_audit_creation_method	'MofGen! by Chris Wilmer'
_symmetry_space_group_name_H-M	'P1'
_symmetry_Int_Tables_number	1
_symmetry_cell_setting	triclinic
loop_
_symmetry_equiv_pos_as_xyz
  x,y,z
_cell_length_a	6.817900
_cell_length_b	12.908942
_cell_length_c	10.943881
_cell_angle_alpha	94.353139
_cell_angle_beta	108.843448
_cell_angle_gamma	100.860556
loop_
_atom_site_label
_atom_site_type_symbol
_atom_site_fract_x
_atom_site_fract_y
_atom_site_fract_z
V1	V	-4.074648	-0.145823	-0.401834
O2	O	-4.075231	0.007038	-0.394924
O3	O	-4.012391	-0.289171	-0.398375
O4	O	-4.053267	-0.143566	-0.577412
O5	O	-4.034072	-0.139575	-0.214647
V6	V	-4.556571	-0.127540	-0.379532
O7	O	-4.339418	-0.185926	-0.450757
O8	O	-4.741999	-0.087436	-0.330609
O9	O	-4.395621	0.015808	-0.382991
O10	O	-4.673385	-0.280401	-0.386442
O11	O	-4.714544	-0.133788	-0.566718
O12	O	-4.354745	-0.129797	-0.203953
C13	C	-3.853147	-0.324117	-0.391853
C14	C	-3.883712	-0.441306	-0.390195
C15	C	-4.306390	-0.672259	-0.399938
C16	C	-4.335118	-0.782369	-0.398381
C17	C	-3.969902	-0.771640	-0.385532
C18	C	-3.941174	-0.661530	-0.387089
C19	C	-4.109426	-0.611843	-0.394291
C20	C	-4.080691	-0.501730	-0.395839
C21	C	-3.715482	-0.491004	-0.382999
C22	C	-3.744209	-0.601114	-0.381442
C23	C	-3.905287	-0.138382	-0.620231
C24	C	-3.968997	-0.137485	-0.763762
C25	C	-4.197048	-0.142450	-0.854621
C26	C	-4.109009	-0.051834	-0.920804
C27	C	-4.170514	-0.226439	-0.953314
C28	C	-3.880093	-0.046810	-0.828041
C29	C	-3.941649	-0.221494	-0.860559
C30	C	-3.853446	-0.130853	-0.926694
C31	C	-4.218206	0.050749	-0.389510
C32	C	-4.166881	0.167937	-0.391176
C33	C	-4.166066	-0.134985	-0.161128
C34	C	-4.081594	-0.135876	-0.017596
H35	H	-3.832935	-0.812116	-0.379681
H36	H	-3.756797	0.029172	-0.773814
O37	O	-4.194084	0.033725	-0.953106
C38	C	-4.348233	0.130879	-1.125348
C39	C	-4.251870	0.033962	-1.088946
H40	H	-4.395021	0.131090	-1.235178
H41	H	-4.225949	0.207392	-1.071911
H42	H	-4.495219	0.125864	-1.095901
H43	H	-4.104908	0.038874	-1.118391
H44	H	-4.374291	-0.042511	-1.142370
H45	H	-4.217687	-0.461275	-0.401693
H46	H	-3.708598	-0.125916	-0.958318
H47	H	-3.555094	-0.441801	-0.378399
H48	H	-3.870360	-0.293241	-0.833651
O49	O	-4.369551	-0.148478	-0.816566
C50	C	-4.503384	-0.157233	-0.638086
C51	C	-4.307704	-0.150273	-0.680872
H52	H	-4.453444	-0.158664	-0.528371
H53	H	-4.627380	-0.233164	-0.691693
H54	H	-4.574181	-0.084941	-0.662521
H55	H	-4.236728	-0.222510	-0.656443
H56	H	-4.183847	-0.074297	-0.627272
H57	H	-4.443378	-0.631801	-0.405782
H58	H	-4.495504	-0.831556	-0.402981
H59	H	-3.607234	-0.641585	-0.375584
H60	H	-4.293942	-0.302340	-1.007687
