data_functionalizedCrystal
_audit_creation_method	'MofGen! by Chris Wilmer'
_symmetry_space_group_name_H-M	'P1'
_symmetry_Int_Tables_number	1
_symmetry_cell_setting	triclinic
loop_
_symmetry_equiv_pos_as_xyz
  x,y,z
_cell_length_a	10.908937
_cell_length_b	17.019294
_cell_length_c	10.065875
_cell_angle_alpha	94.957055
_cell_angle_beta	83.441416
_cell_angle_gamma	71.768120
loop_
_atom_site_label
_atom_site_type_symbol
_atom_site_fract_x
_atom_site_fract_y
_atom_site_fract_z
O1	O	1.720273	-0.133973	-0.097790
O2	O	2.220273	0.366027	0.402210
O3	O	1.347482	-0.073243	-0.104920
O4	O	1.847482	0.426757	0.395080
O5	O	1.542078	-0.218141	-0.087888
O6	O	2.042078	0.281859	0.412112
O7	O	1.525677	0.010925	-0.114822
O8	O	2.025677	0.510925	0.385178
O9	O	1.504972	-0.190419	0.135842
O10	O	2.004972	0.309581	0.635842
O11	O	1.310376	-0.045522	0.118810
O12	O	1.810376	0.454478	0.618810
O13	O	1.683168	-0.106251	0.125940
O14	O	2.183168	0.393749	0.625940
Zn15	Zn	1.490881	-0.071485	0.157897
Zn16	Zn	1.990881	0.428515	0.657897
Zn17	Zn	1.539769	-0.108009	-0.136877
Zn18	Zn	2.039769	0.391991	0.363123
O19	O	1.488572	0.038646	0.108909
O20	O	1.988572	0.538646	0.608909
C21	C	1.281188	-0.053707	0.006279
C22	C	1.781188	0.446293	0.506279
C23	C	1.138934	-0.036805	0.004295
C24	C	1.638934	0.463195	0.504295
C25	C	0.941816	-0.081018	0.009469
C26	C	1.441816	0.418982	0.509469
C27	C	1.088840	-0.098486	0.011540
C28	C	1.588840	0.401514	0.511540
C29	C	1.522171	-0.233145	0.027368
C30	C	2.022171	0.266855	0.527368
C31	C	1.518123	-0.319152	0.037472
C32	C	2.018123	0.180848	0.537472
C33	C	1.536450	-0.374665	-0.079735
C34	C	2.036450	0.125335	0.420265
C35	C	1.532637	-0.455476	-0.070237
C36	C	2.032637	0.044524	0.429763
C37	C	1.510506	-0.480773	0.056470
C38	C	2.010506	0.019227	0.556470
C39	C	1.492174	-0.425253	0.173686
C40	C	1.992174	0.074747	0.673686
C41	C	1.495978	-0.344442	0.164186
C42	C	1.995978	0.155558	0.664186
C43	C	1.498000	-0.724012	0.091253
C44	C	1.998000	-0.224012	0.591253
C45	C	1.494202	-0.804831	0.100744
C46	C	1.994202	-0.304831	0.600744
C47	C	1.534662	-0.835048	-0.143181
C48	C	2.034662	-0.335048	0.356819
C49	C	1.538472	-0.754236	-0.152669
C50	C	2.038472	-0.254236	0.347331
C51	C	1.520133	-0.698721	-0.035453
C52	C	2.020133	-0.198721	0.464547
C53	C	1.506612	-0.563375	0.066181
C54	C	2.006612	-0.063375	0.566181
C55	C	1.524018	-0.616119	-0.045166
C56	C	2.024018	-0.116119	0.454834
C57	C	1.749462	-0.125788	0.014738
C58	C	2.249462	0.374212	0.514738
C59	C	1.891718	-0.142691	0.016713
C60	C	2.391718	0.357309	0.516713
C61	C	1.508479	0.053650	-0.006351
C62	C	2.008479	0.553650	0.493649
C63	C	1.512529	0.139656	-0.016464
C64	C	2.012529	0.639656	0.483536
N65	N	1.457526	-0.046560	0.359073
N66	N	1.957526	0.453440	0.859073
N67	N	1.573134	-0.132942	-0.338052
N68	N	2.073134	0.367058	0.161948
C69	C	1.528155	-0.099341	0.433056
C70	C	2.028155	0.400659	0.933056
C71	C	1.502494	-0.080153	0.587968
C72	C	2.002494	0.419847	1.087968
H73	H	0.957674	-0.208424	0.024439
H74	H	1.457674	0.291576	0.524439
H75	H	1.072985	0.028931	-0.003443
H76	H	1.572985	0.528931	0.496557
C77	C	1.635491	-0.179590	0.363697
C78	C	2.135491	0.320410	0.863697
N79	N	1.716332	-0.240039	0.311459
N80	N	2.216332	0.259961	0.811459
C81	C	1.395127	0.000087	0.657322
C82	C	1.895127	0.500087	1.157322
N83	N	1.314259	0.060523	0.709562
N84	N	1.814259	0.560523	1.209562
C85	C	1.177932	-0.187294	0.021994
C86	C	1.677932	0.312706	0.521994
N87	N	1.245037	-0.254182	0.029871
N88	N	1.745037	0.245818	0.529871
H89	H	1.652601	-0.192341	0.610609
H90	H	2.152601	0.307659	1.110609
C91	C	1.560795	-0.346847	-0.219124
C92	C	2.060795	0.153153	0.280876
N93	N	1.579127	-0.325895	-0.324116
N94	N	2.079127	0.174105	0.175884
H95	H	1.483093	-0.678826	0.186699
H96	H	1.983093	-0.178826	0.686699
H97	H	1.378055	0.012830	0.410418
H98	H	1.878055	0.512830	0.910418
H99	H	1.547566	-0.500673	-0.165680
H100	H	2.047566	-0.000673	0.334320
H101	H	1.556495	-0.733646	-0.255847
H102	H	2.056495	-0.233646	0.244153
H103	H	1.549590	-0.880255	-0.238611
H104	H	2.049590	-0.380255	0.261389
H105	H	0.875863	-0.015288	0.001727
H106	H	1.375863	0.484712	0.501727
H107	H	1.474147	-0.445855	0.276853
H108	H	1.974147	0.054145	0.776853
C109	C	1.475821	-0.283378	0.293124
C110	C	1.975821	0.216622	0.793124
N111	N	1.460634	-0.237384	0.390245
N112	N	1.960634	0.262616	0.890245
C113	C	1.469851	-0.832654	0.240137
C114	C	1.969851	-0.332654	0.740137
N115	N	1.451512	-0.853611	0.345123
N116	N	1.951512	-0.353611	0.845123
H117	H	1.488597	-0.583983	0.169347
H118	H	1.988597	-0.083983	0.669347
C119	C	1.548369	-0.588289	-0.184539
C120	C	2.048369	-0.088289	0.315461
N121	N	1.566718	-0.567323	-0.289516
N122	N	2.066718	-0.067323	0.210484
