data_functionalizedCrystal
_audit_creation_method	'MofGen! by Chris Wilmer'
_symmetry_space_group_name_H-M	'P1'
_symmetry_Int_Tables_number	1
_symmetry_cell_setting	triclinic
loop_
_symmetry_equiv_pos_as_xyz
  x,y,z
_cell_length_a	10.654550
_cell_length_b	15.995350
_cell_length_c	9.730223
_cell_angle_alpha	90.000899
_cell_angle_beta	89.996251
_cell_angle_gamma	83.988639
loop_
_atom_site_label
_atom_site_type_symbol
_atom_site_fract_x
_atom_site_fract_y
_atom_site_fract_z
O1	O	1.666298	0.117599	-0.114395
O2	O	1.300673	0.128803	-0.114373
O3	O	1.493480	0.001371	-0.114383
O4	O	1.473491	0.245031	-0.114385
O5	O	1.493478	0.001375	0.114197
O6	O	1.300671	0.128806	0.114207
O7	O	1.666295	0.117602	0.114185
Zn8	Zn	1.483483	0.123205	0.150488
Zn9	Zn	1.483486	0.123200	-0.150676
O10	O	1.473488	0.245034	0.114195
C11	C	1.253885	0.127982	-0.000080
C12	C	1.114473	0.125521	-0.000071
C13	C	1.034008	0.200551	-0.000092
C14	C	0.903017	0.198233	-0.000116
C15	C	0.932971	0.045849	-0.000104
C16	C	1.063959	0.048168	-0.000071
C17	C	1.084522	0.277904	-0.000093
C18	C	1.004055	0.352940	-0.000115
C19	C	0.873064	0.350622	-0.000138
C20	C	0.822541	0.273268	-0.000140
C21	C	1.492652	-0.029827	-0.000096
C22	C	1.490175	-0.122791	-0.000104
C23	C	1.481278	-0.460591	-0.000098
C24	C	1.343964	-0.413954	-0.000603
C25	C	1.346442	-0.317249	-0.000087
C26	C	1.485691	-0.293004	-0.000102
C27	C	1.553417	-0.333687	0.130422
C28	C	1.549968	-0.430342	0.130531
C29	C	1.552807	-0.430688	-0.129407
C30	C	1.552775	-0.333743	-0.131132
C31	C	1.488192	-0.198292	-0.000099
C32	C	1.478780	-0.555303	-0.000092
C33	C	1.713084	0.118423	-0.000111
C34	C	1.852495	0.120884	-0.000129
C35	C	1.474316	0.276232	-0.000095
C36	C	1.476793	0.369197	-0.000097
N37	N	1.483490	0.123207	0.356024
N38	N	1.483488	0.123191	-0.356212
C39	C	1.568886	0.066800	0.427946
C40	C	1.568883	0.066789	0.571829
C41	C	1.398083	0.179602	0.571856
C42	C	1.398081	0.179607	0.427976
C43	C	1.654295	0.010400	0.355994
C44	C	1.739700	-0.046012	0.427915
C45	C	1.739697	-0.046022	0.571798
C46	C	1.654289	0.010379	0.643760
H47	H	1.045200	0.415918	-0.000102
O48	O	0.786278	0.431551	-0.000146
H49	H	0.686706	0.416948	-0.000150
H50	H	0.715878	0.271387	-0.000138
H51	H	1.503258	-0.306783	-0.227690
H52	H	1.506376	-0.305577	0.227563
H53	H	1.289082	-0.432806	-0.094203
H54	H	1.809228	-0.091960	0.630355
H55	H	0.891824	-0.017129	-0.000128
O56	O	1.150762	-0.032754	-0.000058
H57	H	1.093632	-0.086933	-0.000086
O58	O	1.831808	-0.106851	0.350318
H59	H	1.815793	-0.172222	0.377927
H60	H	1.654321	-0.317791	-0.139024
H61	H	1.293204	-0.289138	-0.093652
O62	O	1.654291	0.010367	0.798950
H63	H	1.580558	0.059062	0.836901
H64	H	1.654048	-0.461861	-0.130294
O65	O	1.271579	-0.440308	0.122708
H66	H	1.332977	-0.486476	0.184355
O67	O	1.275476	-0.280739	0.124083
H68	H	1.239260	-0.332167	0.184005
O69	O	1.683497	-0.472294	0.138396
H70	H	1.750246	-0.423519	0.142116
O71	O	1.654304	0.010407	0.200807
H72	H	1.580578	0.059110	0.162882
O73	O	1.484536	-0.454973	0.259772
H74	H	1.455645	-0.397872	0.321601
O75	O	1.305981	0.240441	0.649462
H76	H	1.320340	0.230967	0.761594
O77	O	1.305985	0.240449	0.350387
H78	H	1.246609	0.279677	0.424589
H79	H	1.655720	-0.318967	0.135266
O80	O	1.493387	-0.458236	-0.260481
H81	H	1.393444	-0.430673	-0.265114
O82	O	1.225804	0.280401	-0.000054
H83	H	1.247415	0.346792	-0.000046
