data_functionalizedCrystal
_audit_creation_method	'MofGen! by Chris Wilmer'
_symmetry_space_group_name_H-M	'P1'
_symmetry_Int_Tables_number	1
_symmetry_cell_setting	triclinic
loop_
_symmetry_equiv_pos_as_xyz
  x,y,z
_cell_length_a	10.686154
_cell_length_b	10.686285
_cell_length_c	10.686551
_cell_angle_alpha	80.915481
_cell_angle_beta	90.306020
_cell_angle_gamma	90.342528
loop_
_atom_site_label
_atom_site_type_symbol
_atom_site_fract_x
_atom_site_fract_y
_atom_site_fract_z
Zn1	Zn	-1.994023	0.307990	0.537206
Zn2	Zn	-1.993922	0.536577	0.308711
Zn3	Zn	-1.770420	0.340287	0.340869
Zn4	Zn	-1.800171	0.534009	0.534692
O5	O	-1.889634	0.429716	0.430369
O6	O	-2.168674	0.325871	0.494489
O7	O	-1.951781	0.525130	0.136235
O8	O	-1.787673	0.159265	0.381423
O9	O	-2.168600	0.493813	0.326614
O10	O	-1.951953	0.135536	0.525671
O11	O	-1.787575	0.380916	0.159861
O12	O	-1.599702	0.378426	0.378986
O13	O	-1.838379	0.489436	0.711768
O14	O	-1.621560	0.520753	0.521388
O15	O	-1.980801	0.323381	0.713614
O16	O	-1.980629	0.712974	0.324177
O17	O	-1.838281	0.711087	0.490205
C18	C	-1.565343	0.452816	0.453405
C19	C	-1.426613	0.462726	0.463287
C20	C	-1.912708	0.757852	0.403454
C21	C	-1.922697	0.898219	0.391974
C22	C	-1.912920	0.402519	0.759800
C23	C	-1.922843	0.390930	0.900183
C24	C	-1.215191	0.406514	0.407238
C25	C	-1.353920	0.396598	0.397362
C26	C	-1.866506	0.100293	0.457415
C27	C	-1.856650	-0.040087	0.468940
C28	C	-1.866504	0.456710	0.102223
C29	C	-1.856798	0.467927	-0.038148
H30	H	-1.397816	0.332402	0.333360
H31	H	-1.986989	0.316143	0.954789
C32	C	-2.009410	0.971931	0.291072
C33	C	-2.085919	0.900573	0.201914
C34	C	-2.172630	0.974285	0.101014
C35	C	-2.182832	1.119356	0.089272
C36	C	-2.106321	1.190722	0.178432
C37	C	-2.019610	1.117010	0.279332
H38	H	-2.078369	0.793176	0.210604
H39	H	-2.229269	0.921455	0.035012
H40	H	-2.247021	1.173922	0.014580
H41	H	-2.113871	1.298119	0.169742
H42	H	-1.962971	1.169841	0.345334
C43	C	-1.770149	0.568962	0.888101
C44	C	-1.661974	0.528617	0.808837
C45	C	-1.575324	0.629655	0.735077
C46	C	-1.596848	0.771037	0.740580
C47	C	-1.705027	0.811388	0.819847
C48	C	-1.791678	0.710351	0.893607
H49	H	-1.646037	0.423952	0.804761
H50	H	-1.495242	0.599783	0.676398
H51	H	-1.532704	0.845831	0.685978
H52	H	-1.720965	0.916054	0.823924
H53	H	-1.871759	0.740223	0.952286
H54	H	-1.382712	0.526935	0.527284
H55	H	-1.792463	0.905348	0.543619
