data_functionalizedCrystal
_audit_creation_method	'MofGen! by Chris Wilmer'
_symmetry_space_group_name_H-M	'P1'
_symmetry_Int_Tables_number	1
_symmetry_cell_setting	triclinic
loop_
_symmetry_equiv_pos_as_xyz
  x,y,z
_cell_length_a	27.440280
_cell_length_b	17.052862
_cell_length_c	17.052863
_cell_angle_alpha	61.493623
_cell_angle_beta	90.005043
_cell_angle_gamma	70.263485
loop_
_atom_site_label
_atom_site_type_symbol
_atom_site_fract_x
_atom_site_fract_y
_atom_site_fract_z
Zr1	Zr	0.564819	0.816610	-0.200353
O2	O	0.510998	0.944512	-0.328491
O3	O	0.569469	0.665888	-0.146161
O4	O	0.595582	0.783688	-0.306969
O5	O	0.477765	0.860640	-0.057797
O6	O	0.675782	0.783677	-0.306953
O7	O	0.484885	0.826712	-0.167684
O8	O	0.629070	0.572955	-0.019297
O9	O	0.524477	1.071362	-0.345453
O10	O	0.645620	0.736326	-0.141052
O11	O	0.580454	0.761654	-0.059057
O12	O	0.611200	0.900348	-0.248387
O13	O	0.546034	0.925676	-0.166392
Zr14	Zr	0.681374	0.870704	-0.025072
Zr15	Zr	0.692729	0.816593	-0.200328
Zr16	Zr	0.553464	0.870721	-0.025097
Zr17	Zr	0.586317	1.018921	-0.227405
Zr18	Zr	0.659877	0.668393	0.001980
O19	O	0.676725	1.021426	-0.079264
O20	O	0.692870	0.944487	-0.328456
O21	O	0.494853	1.021450	-0.079300
O22	O	0.735195	0.742803	0.103066
O23	O	0.751340	0.665864	-0.146125
O24	O	0.553324	0.742827	0.103031
O25	O	0.768428	0.826674	-0.167628
O26	O	0.650612	0.903627	0.081544
O27	O	0.570411	0.903637	0.081528
O28	O	0.761309	0.860602	-0.057741
O29	O	0.626149	1.071348	-0.345433
O30	O	0.620045	0.615966	0.120008
O31	O	0.721716	0.615952	0.120028
O32	O	0.730742	0.572941	-0.019277
O33	O	0.515452	1.114373	-0.206147
O34	O	0.617123	1.114359	-0.206128
O35	O	0.634994	0.786966	0.022962
O36	O	0.700160	0.761638	-0.059033
O37	O	0.665739	0.925660	-0.166368
O38	O	0.600573	0.950988	-0.084373
C39	C	0.596206	0.590596	-0.078875
C40	C	0.587080	0.504710	-0.067391
C41	C	0.697417	0.209731	-0.206234
C42	C	0.705991	0.290429	-0.217030
C43	C	0.676264	0.344003	-0.179621
C44	C	0.637962	0.316872	-0.131414
C45	C	0.629385	0.236171	-0.120624
C46	C	0.608231	0.370442	-0.094010
C47	C	0.569929	0.343312	-0.045804
C48	C	0.561354	0.262618	-0.035015
C49	C	0.591080	0.209044	-0.072424
C50	C	0.616809	0.451143	-0.104801
C51	C	0.548776	0.477583	-0.019191
C52	C	0.540202	0.396885	-0.008395
C53	C	0.463100	0.843678	-0.112744
C54	C	0.408799	0.843685	-0.112755
C55	C	0.090059	0.758028	-0.056660
C56	C	0.039039	0.758025	-0.056652
O57	O	0.027930	0.685218	-0.008977
N58	N	-0.004445	0.843641	-0.112680
C59	C	0.003092	0.929269	-0.168714
O60	O	-0.038580	1.002092	-0.216369
C61	C	0.054110	0.929273	-0.168716
C62	C	0.097593	0.843649	-0.112691
C63	C	0.133540	0.672412	-0.000638
C64	C	0.184556	0.672415	-0.000648
C65	C	0.192091	0.758036	-0.056679
C66	C	0.148609	0.843653	-0.112700
C67	C	0.061646	1.014901	-0.224744
C68	C	0.112669	1.014898	-0.224741
C69	C	0.156152	0.929274	-0.168716
C70	C	0.207160	0.929277	-0.168741
N71	N	0.250644	0.843661	-0.112712
C72	C	0.243109	0.758040	-0.056681
C73	C	-0.104049	0.929254	-0.168703
C74	C	-0.155067	0.929249	-0.168705
C75	C	-0.119116	0.758005	-0.056642
C76	C	-0.068097	0.758009	-0.056645
C77	C	-0.060565	0.843637	-0.112674
C78	C	0.350246	0.758054	-0.056706
C79	C	0.401265	0.758065	-0.056723
C80	C	0.365309	0.929309	-0.168783
C81	C	0.314295	0.929298	-0.168770
C82	C	0.306766	0.843664	-0.112724
O83	O	0.218309	1.002047	-0.216388
O84	O	0.284784	0.685232	-0.009025
C85	C	0.783093	0.843636	-0.112681
C86	C	0.837394	0.843629	-0.112670
C87	C	0.637300	0.775973	-0.331931
C88	C	0.642120	0.753001	-0.406332
C89	C	0.649987	1.096718	-0.146550
C90	C	0.659113	1.182604	-0.158034
C91	C	0.662356	0.656587	-0.385253
C92	C	0.666885	0.635001	-0.455154
C93	C	0.651182	0.709827	-0.546141
C94	C	0.630950	0.806243	-0.567222
C95	C	0.626417	0.827831	-0.497314
C96	C	0.615243	0.881071	-0.658203
C97	C	0.595011	0.977487	-0.679284
C98	C	0.590479	0.999071	-0.609381
C99	C	0.606181	0.924245	-0.518394
C100	C	0.619777	0.859483	-0.728111
C101	C	0.583838	1.030727	-0.840172
C102	C	0.579309	1.052313	-0.770271
C103	C	0.608894	0.911342	0.106506
C104	C	0.604073	0.934313	0.180907
C105	C	0.756203	0.590575	-0.078844
C106	C	0.801378	0.504682	-0.067349
C107	C	0.582003	0.658281	0.140344
C108	C	0.568057	0.595366	0.226229
C109	C	0.742000	0.658260	0.140375
C110	C	0.782354	0.595338	0.226271
C111	C	0.504194	1.029054	-0.365800
C112	C	0.463839	1.091977	-0.451696
C113	C	0.489991	1.096739	-0.146581
C114	C	0.444816	1.182633	-0.158076
C115	C	0.664190	1.029033	-0.365769
C116	C	0.678137	1.091948	-0.451654
C117	C	0.794124	0.451130	-0.104771
C118	C	0.836568	0.370430	-0.093988
C119	C	0.886264	0.343279	-0.045778
C120	C	0.893518	0.396839	-0.008355
C121	C	0.851075	0.477541	-0.019144
C122	C	0.589976	0.579035	0.309381
C123	C	0.576870	0.519933	0.390085
C124	C	0.541848	0.477157	0.387634
C125	C	0.519926	0.493493	0.304472
C126	C	0.533029	0.552600	0.223770
C127	C	0.835326	0.552568	0.223808
C128	C	0.873250	0.493455	0.304507
C129	C	0.858200	0.477107	0.387670
C130	C	0.805223	0.519885	0.390131
C131	C	0.767301	0.579002	0.309431
C132	C	0.410868	1.134756	-0.449234
C133	C	0.372947	1.193894	-0.529937
C134	C	0.387997	1.210246	-0.613100
C135	C	0.440974	1.167463	-0.615560
C136	C	0.478895	1.108332	-0.534859
C137	C	0.452071	1.236190	-0.120662
C138	C	0.409631	1.316907	-0.131467
C139	C	0.359935	1.344060	-0.179681
C140	C	0.352680	1.290497	-0.217100
C141	C	0.395121	1.209786	-0.206300
C142	C	0.713161	1.134707	-0.449173
C143	C	0.726275	1.193813	-0.529863
C144	C	0.704362	1.210166	-0.613033
C145	C	0.669337	1.167400	-0.615511
C146	C	0.656226	1.108289	-0.534821
H147	H	0.584104	0.143328	-0.063631
H148	H	0.415547	1.360506	-0.100991
Cl149	Cl	0.391934	1.114214	-0.344696
Cl150	Cl	0.955996	0.362690	0.052255
Cl151	Cl	0.340318	1.284584	-0.714547
H152	H	0.627705	1.073481	-0.536854
H153	H	0.792976	0.506566	0.457853
Cl154	Cl	0.459886	1.188025	-0.720116
Cl155	Cl	0.720849	1.284484	-0.714465
Cl156	Cl	0.687045	0.445450	-0.193191
H157	H	0.724168	0.613818	0.311450
Cl158	Cl	0.306352	1.247663	-0.526823
H159	H	0.721615	0.166112	-0.236694
Cl160	Cl	0.860202	0.544850	0.027916
Cl161	Cl	0.306585	1.445527	-0.193247
Cl162	Cl	0.641788	1.187977	-0.720077
Cl163	Cl	0.545486	1.054550	-0.537968
Cl164	Cl	0.340789	0.650397	0.013750
Cl165	Cl	0.740716	1.114162	-0.344627
Cl166	Cl	0.664959	0.485240	-0.165401
Cl167	Cl	0.939845	0.439684	0.301394
Cl168	Cl	0.754139	0.324533	-0.277633
H169	H	0.492532	1.214092	-0.081397
H170	H	0.889084	0.428968	0.453374
H171	H	0.530161	0.240537	0.004230
H172	H	0.389206	1.166181	-0.236765
H173	H	0.754794	1.228630	-0.527828
H174	H	0.675135	0.595674	-0.311170
H175	H	0.509016	0.374784	0.030854
Cl176	Cl	0.511400	0.544931	0.027835
H177	H	0.594725	0.506641	0.457790
Cl178	Cl	0.455928	0.650415	0.013712
Cl179	Cl	0.290201	1.324642	-0.277704
H180	H	0.127414	0.602686	0.044994
Cl181	Cl	0.239214	0.564770	0.069795
Cl182	Cl	0.634006	0.632798	0.312487
H183	H	0.531183	0.429031	0.453353
H184	H	0.920819	0.277563	-0.036999
H185	H	-0.032696	0.688289	-0.011016
H186	H	0.491410	0.458657	0.302490
Cl187	Cl	-0.128597	0.650367	0.013799
H188	H	-0.190467	0.998969	-0.214337
H189	H	0.515180	0.565886	0.156067
H190	H	-0.097923	0.998986	-0.214333
H191	H	0.118796	1.084632	-0.270358
Cl192	Cl	0.006992	1.122553	-0.295173
H193	H	0.847590	0.565867	0.156100
Cl194	Cl	0.259630	1.036936	-0.239219
H195	H	0.683358	0.556499	-0.437984
H196	H	0.371454	0.999019	-0.214405
H197	H	0.753663	0.473231	-0.144039
H198	H	0.636250	0.780980	-0.710938
H199	H	0.654871	0.692246	-0.603055
H200	H	0.573999	1.077580	-0.626552
Cl201	Cl	0.600494	0.951378	-0.430510
H202	H	0.562835	1.130816	-0.787424
H203	H	0.830651	0.326830	-0.124464
Cl204	Cl	0.564095	1.124799	-0.954554
