data_functionalizedCrystal
_audit_creation_method	'MofGen! by Chris Wilmer'
_symmetry_space_group_name_H-M	'P1'
_symmetry_Int_Tables_number	1
_symmetry_cell_setting	triclinic
loop_
_symmetry_equiv_pos_as_xyz
  x,y,z
_cell_length_a	12.837943
_cell_length_b	9.065218
_cell_length_c	11.892052
_cell_angle_alpha	85.683177
_cell_angle_beta	93.959273
_cell_angle_gamma	90.077587
loop_
_atom_site_label
_atom_site_type_symbol
_atom_site_fract_x
_atom_site_fract_y
_atom_site_fract_z
O1	O	1.385056	-0.393293	0.093975
O2	O	1.083073	-0.374323	0.093982
O3	O	1.240306	-0.169924	0.093976
O4	O	1.227823	-0.597692	0.093981
O5	O	1.228295	-0.151386	-0.094032
O6	O	1.071062	-0.355785	-0.094026
O7	O	1.373045	-0.374755	-0.094034
Zn8	Zn	1.220146	-0.362326	-0.123880
Zn9	Zn	1.235972	-0.386751	0.123829
O10	O	1.215812	-0.579153	-0.094028
C11	C	1.038387	-0.358645	-0.000021
C12	C	0.923130	-0.339532	-0.000018
N13	N	1.209354	-0.345657	-0.292936
C14	C	1.233101	-0.105523	-0.000026
C15	C	1.229514	0.058756	-0.000021
C16	C	0.684329	-0.569308	-0.000032
C17	C	0.576034	-0.551356	-0.000030
C18	C	0.598245	-0.285678	-0.000021
C19	C	0.706539	-0.303630	-0.000023
C20	C	0.749577	-0.445449	-0.000026
C21	C	0.857874	-0.463400	-0.000020
C22	C	0.880082	-0.197723	-0.000019
C23	C	0.771788	-0.179771	-0.000017
C24	C	1.417732	-0.390432	-0.000028
C25	C	1.532988	-0.409546	-0.000023
C26	C	1.223017	-0.643555	-0.000022
C27	C	1.226605	-0.807834	-0.000021
C28	C	1.134261	-0.229685	-0.470481
C29	C	1.141796	-0.241331	-0.352138
C30	C	1.269383	-0.438340	-0.352085
C31	C	1.261848	-0.426694	-0.470427
C32	C	1.194284	-0.322365	-0.529621
C33	C	1.186744	-0.310727	-0.647966
C34	C	1.314335	-0.507727	-0.647911
C35	C	1.321870	-0.519374	-0.529568
N36	N	1.246773	-0.403410	0.292885
H37	H	0.892913	-0.578877	-0.000025
H38	H	1.363202	-0.583203	-0.696076
H39	H	0.563178	-0.170206	-0.000111
H40	H	1.376882	-0.604312	-0.481356
H41	H	0.736730	-0.064304	-0.000027
H42	H	1.324400	-0.523268	-0.303868
H43	H	0.522912	-0.652215	-0.000037
H44	H	0.933220	-0.096869	-0.000007
H45	H	1.131726	-0.225781	-0.696160
H46	H	0.719370	-0.684783	-0.000033
H47	H	1.079239	-0.144748	-0.518678
H48	H	1.092920	-0.165861	-0.303990
