data_functionalizedCrystal
_audit_creation_method	'MofGen! by Chris Wilmer'
_symmetry_space_group_name_H-M	'P1'
_symmetry_Int_Tables_number	1
_symmetry_cell_setting	triclinic
loop_
_symmetry_equiv_pos_as_xyz
  x,y,z
_cell_length_a	14.971486
_cell_length_b	14.971486
_cell_length_c	13.448316
_cell_angle_alpha	89.998199
_cell_angle_beta	90.001091
_cell_angle_gamma	96.385872
loop_
_atom_site_label
_atom_site_type_symbol
_atom_site_fract_x
_atom_site_fract_y
_atom_site_fract_z
O1	O	-0.116565	1.186947	-0.082565
O2	O	-0.130524	0.926547	-0.082591
O3	O	0.006656	1.063727	-0.082584
O4	O	-0.253744	1.049768	-0.082571
O5	O	0.006664	1.063709	0.082799
O6	O	-0.130515	0.926530	0.082793
O7	O	-0.116556	1.186930	0.082819
Cu8	Cu	-0.123535	1.056728	0.097907
Cu9	Cu	-0.123545	1.056749	-0.097679
O10	O	-0.253736	1.049751	0.082813
C11	C	-0.129895	0.893214	0.000098
C12	C	-0.128024	0.793917	0.000087
C13	C	-0.208614	0.736691	0.000093
C14	C	-0.206850	0.643392	0.000108
C15	C	-0.124497	0.607320	0.000110
C16	C	-0.043902	0.664552	0.000107
C17	C	-0.045666	0.757850	0.000100
C18	C	-0.040231	0.470090	0.000121
C19	C	-0.038466	0.376786	0.000127
C20	C	-0.201415	0.355632	0.000129
C21	C	-0.203179	0.448930	0.000121
C22	C	-0.122584	0.506156	0.000117
C23	C	-0.287065	1.050384	0.000123
C24	C	-0.386362	1.052254	0.000128
C25	C	-0.443587	0.971665	0.000119
C26	C	-0.536887	0.973428	0.000106
C27	C	-0.572959	1.055781	0.000109
C28	C	-0.515726	1.136377	0.000115
C29	C	-0.422429	1.134613	0.000121
C30	C	-0.710189	1.140048	0.000104
C31	C	-0.803493	1.141812	0.000100
C32	C	-0.824647	0.978863	0.000090
C33	C	-0.731349	0.977099	0.000096
C34	C	-0.674123	1.057695	0.000103
C35	C	0.039985	1.063094	0.000103
C36	C	0.139282	1.061223	0.000091
C37	C	-0.117185	1.220263	0.000128
C38	C	-0.119056	1.319561	0.000132
N39	N	-0.123527	1.056721	0.235471
N40	N	-0.123545	1.056764	-0.235243
C41	C	-0.062809	1.117483	0.287514
C42	C	-0.062809	1.117488	0.391617
C43	C	-0.123531	1.056735	0.443676
C44	C	-0.184252	0.995967	0.391625
C45	C	-0.184248	0.995958	0.287524
C46	C	-0.184258	0.995992	0.608605
C47	C	-0.184264	0.996002	0.712714
C48	C	-0.062819	1.117522	0.712699
C49	C	-0.062815	1.117513	0.608598
C50	C	-0.123537	1.056745	0.556554
H51	H	-0.272474	0.596802	0.000111
H52	H	-0.233709	0.946530	0.755095
C53	C	0.003988	1.184313	0.230256
C54	C	0.070780	1.251146	0.287508
C55	C	0.137582	1.317976	0.230253
C56	C	0.137591	1.317974	0.115745
C57	C	0.070797	1.251139	0.058487
C58	C	0.003995	1.184308	0.115742
H59	H	0.070775	1.251150	0.372279
H60	H	0.187028	1.367452	0.272640
H61	H	0.187042	1.367446	0.073362
H62	H	0.070801	1.251135	-0.026284
H63	H	-0.045451	1.134833	0.073354
C64	C	0.046688	0.624874	0.000109
C65	C	0.070310	0.563642	0.085989
C66	C	0.160902	0.523966	0.085988
C67	C	0.227871	0.545521	0.000107
C68	C	0.204251	0.606755	-0.085780
C69	C	0.113659	0.646432	-0.085778
H70	H	0.020734	0.547683	0.149570
H71	H	0.178387	0.478636	0.149567
H72	H	0.294932	0.516150	0.000105
H73	H	0.253827	0.622714	-0.149360
H74	H	0.096174	0.691762	-0.149358
C75	C	-0.251041	0.929120	0.230273
C76	C	-0.317866	0.862324	0.287532
C77	C	-0.384658	0.795480	0.230283
C78	C	-0.384625	0.795433	0.115776
C79	C	-0.317797	0.862232	0.058511
C80	C	-0.251005	0.929075	0.115760
H81	H	-0.317893	0.862356	0.372303
H82	H	-0.434128	0.746031	0.272675
H83	H	-0.434068	0.745952	0.073397
H84	H	-0.317770	0.862199	-0.026260
H85	H	-0.201535	0.978524	0.073368
H86	H	-0.267039	0.309033	0.000137
H87	H	0.019958	0.804443	0.000095
C88	C	-0.599831	0.884776	0.000108
C89	C	-0.595721	0.817316	-0.085764
C90	C	-0.658663	0.728658	-0.085761
C91	C	-0.725715	0.707460	0.000115
C92	C	-0.729828	0.774922	0.085994
C93	C	-0.666885	0.863580	0.085990
H94	H	-0.546083	0.833006	-0.149341
H95	H	-0.655618	0.678718	-0.149334
H96	H	-0.772309	0.641830	0.000118
H97	H	-0.779466	0.759231	0.149570
H98	H	-0.669930	0.913519	0.149564
H99	H	-0.832859	1.208871	0.000101
H100	H	-0.275675	0.766054	0.000091
C101	C	-0.647236	1.228702	0.000117
C102	C	-0.651339	1.296145	0.086007
C103	C	-0.588385	1.384796	0.086026
C104	C	-0.521330	1.406004	0.000155
C105	C	-0.517225	1.338559	-0.085742
C106	C	-0.580178	1.249908	-0.085761
H107	H	-0.700979	1.280448	0.149579
H108	H	-0.591424	1.434724	0.149612
H109	H	-0.474728	1.471629	0.000169
H110	H	-0.467584	1.354256	-0.149314
H111	H	-0.577139	1.199981	-0.149347
H112	H	-0.414225	0.904604	0.000129
C113	C	0.003978	1.184340	0.551328
C114	C	0.105838	1.182740	0.565639
C115	C	0.172633	1.249565	0.508368
C116	C	0.137566	1.317991	0.436786
C117	C	0.035700	1.319595	0.422471
C118	C	-0.031095	1.252769	0.479742
H119	H	0.131802	1.132084	0.618632
H120	H	0.248041	1.248378	0.518965
H121	H	0.187011	1.367460	0.394390
H122	H	0.009736	1.370250	0.369479
H123	H	-0.106503	1.253956	0.469145
H124	H	-0.270239	0.478296	0.000110
H125	H	-0.013367	1.166964	0.433990
H126	H	-0.013377	1.167001	0.755079
H127	H	0.028593	0.347419	0.000130
H128	H	0.025399	0.516682	0.000119
H129	H	-0.233690	0.946496	0.434017
H130	H	-0.701982	0.910040	0.000098
H131	H	-0.871245	0.913239	0.000087
H132	H	-0.545104	1.203430	0.000119
H133	H	-0.375836	1.200237	0.000124
H134	H	-0.233702	0.946505	0.566235
