data_functionalizedCrystal
_audit_creation_method	'MofGen! by Chris Wilmer'
_symmetry_space_group_name_H-M	'P1'
_symmetry_Int_Tables_number	1
_symmetry_cell_setting	triclinic
loop_
_symmetry_equiv_pos_as_xyz
  x,y,z
_cell_length_a	8.497365
_cell_length_b	19.805407
_cell_length_c	19.805405
_cell_angle_alpha	89.973590
_cell_angle_beta	90.057082
_cell_angle_gamma	89.964663
loop_
_atom_site_label
_atom_site_type_symbol
_atom_site_fract_x
_atom_site_fract_y
_atom_site_fract_z
Zn1	Zn	-0.892013	1.034841	0.269293
Zn2	Zn	-0.628189	1.034725	0.382537
Zn3	Zn	-0.628227	0.921625	0.269367
Zn4	Zn	-0.891908	0.921619	0.382446
O5	O	-0.760084	0.978202	0.325911
O6	O	-0.857044	1.129542	0.284322
O7	O	-0.407431	1.019675	0.367593
O8	O	-0.663278	0.936694	0.174640
O9	O	-0.663214	1.129457	0.367522
O10	O	-0.857081	1.019874	0.174586
O11	O	-0.407459	0.936581	0.284448
O12	O	-0.663177	0.826907	0.284360
O13	O	-1.112685	0.936685	0.367367
O14	O	-0.856902	0.826903	0.367438
O15	O	-1.112762	1.019868	0.284234
O16	O	-0.663112	1.019670	0.477241
O17	O	-0.856866	0.936572	0.477174
C18	C	-0.760033	0.802346	0.325898
C19	C	-0.760049	0.727114	0.325908
C20	C	-0.760008	0.978126	0.501767
C21	C	-0.760028	0.978156	0.576999
C22	C	-0.860758	0.691786	0.369233
C23	C	-0.860781	0.621097	0.369234
C24	C	-0.760084	0.585739	0.325914
C25	C	-0.659370	0.621072	0.282585
C26	C	-0.659357	0.691759	0.282581
C27	C	-0.659422	0.335999	0.282600
C28	C	-0.659440	0.265307	0.282609
C29	C	-0.860846	0.265337	0.369253
C30	C	-0.860833	0.336024	0.369249
C31	C	-0.760125	0.371351	0.325918
C32	C	-0.760105	0.448000	0.325916
C33	C	-0.760096	0.509092	0.325918
C34	C	-0.350204	0.978153	0.325984
C35	C	-0.171561	0.978250	0.325845
C36	C	-0.760136	1.154745	0.325924
C37	C	-0.760159	1.229977	0.325930
C38	C	-0.760195	0.978297	0.149368
C39	C	-0.760243	0.978338	0.074136
C40	C	-0.659246	1.021467	0.612355
C41	C	-0.659281	1.021496	0.683043
C42	C	-0.760091	0.978209	0.718374
C43	C	-0.860884	0.934896	0.683013
C44	C	-0.860856	0.934871	0.612326
C45	C	-0.861001	0.934996	0.968086
C46	C	-0.861018	0.935023	1.038778
C47	C	-0.659426	1.021620	1.038804
C48	C	-0.659398	1.021595	0.968117
C49	C	-0.760196	0.978285	0.932761
C50	C	-0.760159	0.978255	0.856113
C51	C	-0.760121	0.978235	0.795021
H52	H	-0.942752	0.720570	0.404511
H53	H	-0.943121	0.899774	1.067542
H54	H	-0.577388	0.592278	0.247310
H55	H	-0.577149	1.056713	0.583593
H56	H	-0.942853	0.236565	0.404533
O57	O	-0.959039	0.892921	0.717301
C58	C	-1.116296	0.907675	0.699927
H59	H	-1.124370	0.961740	0.680447
H60	H	-1.157441	0.871367	0.658906
C61	C	-1.211668	0.833404	0.786601
C62	C	-1.221588	0.899809	0.762681
H63	H	-1.276620	0.828549	0.825309
H64	H	-1.105722	0.823462	0.798305
H65	H	-1.245953	0.803155	0.752410
H66	H	-1.187284	0.930056	0.796868
H67	H	-1.327531	0.909757	0.750984
H68	H	-0.577357	0.720523	0.247298
H69	H	-0.577213	1.056763	0.711827
H70	H	-0.942787	0.592336	0.404513
O71	O	-0.561422	1.063708	0.933902
C72	C	-0.472448	1.101932	0.980267
H73	H	-0.537087	1.104284	1.030622
H74	H	-0.352580	1.077167	0.987863
C75	C	-0.370476	1.171074	0.890784
C76	C	-0.449872	1.173967	0.952630
H77	H	-0.356542	1.215508	0.873736
H78	H	-0.430414	1.145321	0.859547
H79	H	-0.270594	1.150434	0.897123
H80	H	-0.549759	1.194600	0.946289
H81	H	-0.389950	1.199726	0.983866
O82	O	-0.561694	1.063688	1.073253
C83	C	-0.583317	1.054428	1.143220
H84	H	-0.705008	1.032235	1.152830
H85	H	-0.489654	1.018418	1.163367
C86	C	-0.419612	1.150192	1.167648
C87	C	-0.569081	1.122940	1.179451
H88	H	-0.410824	1.192453	1.189998
H89	H	-0.405039	1.156430	1.120510
H90	H	-0.341577	1.120178	1.184437
H91	H	-0.647113	1.152951	1.162655
H92	H	-0.583668	1.116709	1.226587
O93	O	-0.958920	0.892895	0.577946
C94	C	-1.060850	0.931406	0.536965
H95	H	-1.070715	0.984720	0.558222
H96	H	-1.012055	0.933728	0.483415
C97	C	-1.212665	0.832838	0.509713
C98	C	-1.224791	0.898317	0.535824
H99	H	-1.313790	0.812427	0.509006
H100	H	-1.143990	0.806892	0.537320
H101	H	-1.171997	0.834782	0.465090
H102	H	-1.265440	0.896372	0.580449
H103	H	-1.293477	0.924263	0.508224
O104	O	-0.958799	0.370266	0.411351
C105	C	-1.047669	0.323925	0.449603
H106	H	-1.053258	0.273549	0.421886
H107	H	-0.989685	0.316371	0.500989
C108	C	-1.208661	0.413433	0.493455
C109	C	-1.215536	0.351562	0.459410
H110	H	-1.312207	0.430481	0.499508
H111	H	-1.148784	0.444655	0.467687
H112	H	-1.160334	0.407130	0.536274
H113	H	-1.263844	0.357868	0.416590
H114	H	-1.275425	0.320342	0.485172
O115	O	-0.561452	0.370205	0.240488
C116	C	-0.472610	0.323836	0.202244
H117	H	-0.467031	0.273439	0.229974
H118	H	-0.530613	0.316350	0.150862
C119	C	-0.311600	0.413277	0.158357
C120	C	-0.304737	0.351379	0.192419
H121	H	-0.208050	0.430267	0.152293
H122	H	-0.371458	0.444517	0.184120
H123	H	-0.359943	0.407029	0.115543
H124	H	-0.256413	0.357628	0.235235
H125	H	-0.244867	0.320140	0.166662
H126	H	-0.943071	0.899730	0.939305
H127	H	-0.577441	0.236520	0.247328
