data_functionalizedCrystal
_audit_creation_method	'MofGen! by Chris Wilmer'
_symmetry_space_group_name_H-M	'P1'
_symmetry_Int_Tables_number	1
_symmetry_cell_setting	triclinic
loop_
_symmetry_equiv_pos_as_xyz
  x,y,z
_cell_length_a	10.723023
_cell_length_b	14.044220
_cell_length_c	9.798715
_cell_angle_alpha	90.004380
_cell_angle_beta	90.003315
_cell_angle_gamma	88.828213
loop_
_atom_site_label
_atom_site_type_symbol
_atom_site_fract_x
_atom_site_fract_y
_atom_site_fract_z
O1	O	1.670497	0.133037	0.113492
O2	O	1.308619	0.145772	0.113495
O3	O	1.484126	0.001384	0.113480
O4	O	1.494990	0.277424	0.113507
O5	O	1.484113	0.001383	-0.113502
O6	O	1.308606	0.145771	-0.113487
O7	O	1.670484	0.133035	-0.113491
Zn8	Zn	1.489543	0.139403	-0.149527
Zn9	Zn	1.489560	0.139404	0.149532
O10	O	1.494977	0.277423	-0.113475
C11	C	1.262020	0.144845	0.000005
C12	C	1.123188	0.142072	0.000006
C13	C	0.917803	0.137970	-0.117573
C14	C	1.061293	0.140836	-0.117577
C15	C	1.479364	-0.033962	-0.000012
C16	C	1.465180	-0.139280	-0.000013
C17	C	1.439248	-0.332109	0.000007
C18	C	1.539850	-0.389089	0.000010
C19	C	1.525421	-0.496386	0.000021
C20	C	1.453675	-0.224802	-0.000004
C21	C	1.717083	0.133963	0.000003
C22	C	1.855915	0.136735	0.000011
C23	C	1.499739	0.312769	0.000019
C24	C	1.513923	0.418087	0.000030
N25	N	1.489540	0.139401	-0.353627
C26	C	1.563415	0.078646	-0.578565
C27	C	1.563398	0.078647	-0.421402
N28	N	1.489572	0.139399	0.353632
H29	H	1.069974	0.141008	0.100679
Cl30	Cl	0.835607	0.136337	-0.273001
H31	H	1.114516	0.141894	-0.218245
H32	H	0.909159	0.137804	0.100676
H33	H	1.626652	0.026635	-0.636865
H34	H	1.626613	0.026630	-0.363094
Cl35	Cl	1.391918	0.219707	-0.443635
Cl36	Cl	1.689557	-0.339994	-0.000007
H37	H	1.426345	0.191416	-0.588067
H38	H	1.342291	-0.363909	0.000011
