data_functionalizedCrystal
_audit_creation_method	'MofGen! by Chris Wilmer'
_symmetry_space_group_name_H-M	'P1'
_symmetry_Int_Tables_number	1
_symmetry_cell_setting	triclinic
loop_
_symmetry_equiv_pos_as_xyz
  x,y,z
_cell_length_a	19.288864
_cell_length_b	8.559649
_cell_length_c	18.366186
_cell_angle_alpha	89.994914
_cell_angle_beta	89.977106
_cell_angle_gamma	76.457456
loop_
_atom_site_label
_atom_site_type_symbol
_atom_site_fract_x
_atom_site_fract_y
_atom_site_fract_z
O1	O	0.910987	0.199404	-0.060777
O2	O	0.707328	0.226304	-0.060726
O3	O	0.827100	-0.019877	-0.060756
O4	O	0.791215	0.445585	-0.060748
O5	O	0.827083	-0.019889	0.060344
O6	O	0.707311	0.226292	0.060373
O7	O	0.910970	0.199392	0.060322
Zn8	Zn	0.809137	0.212840	0.079575
Zn9	Zn	0.809160	0.212856	-0.079979
O10	O	0.791198	0.445573	0.060351
C11	C	0.681488	0.225432	-0.000170
C12	C	0.604519	0.222834	-0.000151
C13	C	0.552314	0.367282	-0.000161
C14	C	0.479994	0.364841	-0.000169
C15	C	0.459883	0.217944	-0.000182
C16	C	0.512099	0.073477	-0.000169
C17	C	0.584417	0.075922	-0.000154
C18	C	0.357630	0.102471	-0.042635
C19	C	0.285312	0.100032	-0.042655
C20	C	0.236829	0.210396	-0.000226
C21	C	0.260670	0.323227	0.042213
C22	C	0.332989	0.325672	0.042228
C23	C	0.381467	0.215276	-0.000198
C24	C	0.106205	0.352207	-0.000243
C25	C	0.033884	0.349760	-0.000247
C26	C	0.065991	0.058393	-0.000254
C27	C	0.138310	0.060844	-0.000244
C28	C	0.158412	0.207756	-0.000241
C29	C	0.829811	-0.079432	-0.000208
C30	C	0.837906	-0.256871	-0.000214
C31	C	0.936810	0.200264	-0.000235
C32	C	1.013778	0.202862	-0.000259
C33	C	0.788487	0.505129	-0.000198
C34	C	0.780392	0.682567	-0.000197
N35	N	0.809127	0.212828	0.188466
N36	N	0.809177	0.212855	-0.188870
C37	C	0.862174	0.103873	0.226553
C38	C	0.862179	0.103866	0.302781
C39	C	0.809141	0.212842	0.340919
C40	C	0.756084	0.321805	0.302822
C41	C	0.756077	0.321799	0.226596
C42	C	0.792272	0.358486	0.461683
C43	C	0.792284	0.358494	0.537908
C44	C	0.809160	0.212862	0.576026
C45	C	0.826039	0.067214	0.537910
C46	C	0.826032	0.067207	0.461684
C47	C	0.809143	0.212860	0.423573
C48	C	0.862216	0.103889	0.696769
C49	C	0.862216	0.103880	0.772998
C50	C	0.756124	0.321833	0.773037
C51	C	0.756121	0.321829	0.696809
C52	C	0.809171	0.212858	0.658680
H53	H	0.495719	-0.046127	-0.000190
O54	O	0.704561	0.427837	0.659920
C55	C	0.599310	0.643950	0.668005
C56	C	0.657674	0.524007	0.709873
H57	H	0.561379	0.721712	0.708374
H58	H	0.625000	0.723737	0.632319
H59	H	0.568315	0.575106	0.632319
H60	H	0.688689	0.592721	0.745598
H61	H	0.631941	0.444221	0.745513
H62	H	0.724959	-0.233537	-0.000181
O63	O	0.046430	-0.084266	-0.000397
C64	C	-0.016587	-0.256077	-0.063134
C65	C	0.005533	-0.094471	-0.063075
H66	H	-0.049668	-0.264366	-0.113796
H67	H	0.033130	-0.358964	-0.063177
H68	H	-0.049640	-0.264493	-0.012438
H69	H	0.038571	-0.085898	-0.113762
H70	H	-0.044212	0.008338	-0.062994
H71	H	0.905411	0.015154	0.665722
O72	O	0.913732	-0.001759	0.339867
C73	C	1.010471	-0.036311	0.425842
C74	C	0.952106	0.083484	0.383907
H75	H	1.041522	0.032562	0.461447
H76	H	0.984782	-0.115974	0.461599
H77	H	1.048351	-0.114223	0.385478
H78	H	0.914207	0.161502	0.424219
H79	H	0.977844	0.163036	0.348139
O80	O	0.904058	-0.356890	-0.000099
C81	C	1.016323	-0.441475	0.062587
C82	C	0.941424	-0.328141	0.062557
H83	H	1.046560	-0.418249	0.113231
H84	H	1.011334	-0.571581	0.062640
H85	H	1.046544	-0.418423	0.011874
H86	H	0.911162	-0.351049	0.113261
H87	H	0.946464	-0.198073	0.062466
H88	H	0.905412	0.015147	0.804009
O89	O	0.776011	0.499930	0.574966
C90	C	0.815710	0.672793	0.661035
C91	C	0.834242	0.512583	0.619100
H92	H	0.862772	0.683059	0.696739
H93	H	0.803671	0.776953	0.620736
H94	H	0.766937	0.676924	0.696714
H95	H	0.883024	0.508295	0.583419
H96	H	0.846236	0.408496	0.659438
O97	O	0.571936	0.509878	-0.000068
C98	C	0.634898	0.681778	0.062684
C99	C	0.612733	0.520224	0.062668
H100	H	0.667873	0.690209	0.113408
H101	H	0.668025	0.690196	0.012041
H102	H	0.585154	0.784589	0.062635
H103	H	0.662437	0.417320	0.062742
H104	H	0.579580	0.511945	0.113306
H105	H	0.839773	-0.051384	0.430653
H106	H	0.905369	0.015139	0.195510
H107	H	0.839781	-0.051375	0.568945
O108	O	0.775900	0.500111	0.424771
C109	C	0.742406	0.789021	0.432813
C110	C	0.760945	0.628758	0.474705
H111	H	0.730295	0.893073	0.473166
H112	H	0.789478	0.799489	0.397125
H113	H	0.693666	0.793134	0.397127
H114	H	0.809664	0.624535	0.510431
H115	H	0.713833	0.618356	0.510347
H116	H	0.712937	0.410557	0.804088
H117	H	-0.008622	0.467392	-0.000250
H118	H	0.712899	0.410533	0.333877
H119	H	0.712878	0.410525	0.195584
O120	O	0.188935	-0.079622	-0.000275
C121	C	0.213146	-0.368871	-0.000240
C122	C	0.155739	-0.209906	-0.000225
H123	H	0.186329	-0.474247	-0.000184
H124	H	0.247827	-0.375115	-0.050925
H125	H	0.247787	-0.374926	0.050435
H126	H	0.121049	-0.203744	-0.050865
H127	H	0.121109	-0.203728	0.050494
H128	H	0.437481	0.482471	-0.000174
H129	H	0.397100	0.012595	-0.077190
O130	O	0.356135	0.435104	0.083567
C131	C	0.366948	0.537655	0.204167
C132	C	0.340716	0.413621	0.157435
H133	H	0.354479	0.520352	0.263896
H134	H	0.426971	0.520445	0.196953
H135	H	0.338768	0.664084	0.186234
H136	H	0.368844	0.287141	0.175337
H137	H	0.280688	0.430972	0.164652
H138	H	0.122573	0.471832	-0.000231
O139	O	0.262280	-0.009719	-0.083894
C140	C	0.294350	-0.230801	-0.168090
C141	C	0.320530	-0.106614	-0.121408
H142	H	0.341429	-0.309151	-0.198445
H143	H	0.269036	-0.309506	-0.131416
H144	H	0.253187	-0.165596	-0.209011
H145	H	0.361716	-0.171687	-0.080482
H146	H	0.345801	-0.027915	-0.158128
H147	H	0.626924	-0.041708	-0.000147
H148	H	0.221197	0.413096	0.076763
