data_functionalizedCrystal
_audit_creation_method	'MofGen! by Chris Wilmer'
_symmetry_space_group_name_H-M	'P1'
_symmetry_Int_Tables_number	1
_symmetry_cell_setting	triclinic
loop_
_symmetry_equiv_pos_as_xyz
  x,y,z
_cell_length_a	12.594517
_cell_length_b	12.594516
_cell_length_c	16.625539
_cell_angle_alpha	89.974997
_cell_angle_beta	89.986122
_cell_angle_gamma	90.011773
loop_
_atom_site_label
_atom_site_type_symbol
_atom_site_fract_x
_atom_site_fract_y
_atom_site_fract_z
Zn1	Zn	1.627294	-0.423741	-0.455784
Zn2	Zn	1.627199	-0.601743	-0.320959
Zn3	Zn	1.449299	-0.423779	-0.320980
Zn4	Zn	1.449293	-0.601678	-0.455765
O5	O	1.538271	-0.512735	-0.388372
O6	O	1.776227	-0.447365	-0.437898
O7	O	1.603563	-0.578178	-0.208129
O8	O	1.472952	-0.274828	-0.338879
O9	O	1.776157	-0.578142	-0.338843
O10	O	1.603724	-0.274801	-0.437919
O11	O	1.472861	-0.447428	-0.208145
O12	O	1.300352	-0.447366	-0.338860
O13	O	1.472942	-0.578032	-0.568600
O14	O	1.300348	-0.578068	-0.437886
O15	O	1.603719	-0.447303	-0.568614
O16	O	1.603557	-0.750680	-0.338824
O17	O	1.472850	-0.750633	-0.437865
C18	C	1.261730	-0.512715	-0.388374
C19	C	1.143425	-0.512731	-0.388394
C20	C	1.003437	-0.583949	-0.442154
C21	C	1.074210	-0.609852	-0.368565
C22	C	1.074223	-0.486876	-0.461974
C23	C	1.003412	-0.538719	-0.314742
C24	C	1.003420	-0.415698	-0.408201
C25	C	1.074161	-0.441564	-0.334561
C26	C	1.538222	-0.789276	-0.388358
C27	C	1.538298	-0.907582	-0.388379
C28	C	1.609472	-0.976822	-0.334568
C29	C	1.635482	-1.047523	-0.408160
C30	C	1.512421	-1.047679	-0.314834
C31	C	1.564358	-0.976725	-0.462010
C32	C	1.441252	-0.976874	-0.368633
C33	C	1.467225	-1.047544	-0.442276
C34	C	1.815892	-0.512757	-0.388370
C35	C	1.934197	-0.512766	-0.388370
C36	C	1.538340	-0.512656	-0.598681
C37	C	1.538370	-0.512622	-0.688302
C38	C	1.538350	-0.235114	-0.388404
C39	C	1.538383	-0.116809	-0.388417
C40	C	1.538419	-0.512503	-1.016478
C41	C	1.538402	-0.512540	-0.925169
C42	C	1.538395	-0.512563	-0.852393
C43	C	1.538377	-0.512598	-0.761079
C44	C	1.538263	-0.512737	-0.178881
C45	C	1.538440	-0.512471	-0.089260
H46	H	1.105304	-0.691926	-0.351796
F47	F	1.742804	-1.088070	-0.430029
F48	F	1.333959	-0.936283	-0.346750
F49	F	0.962932	-0.567447	-0.233371
F50	F	1.688153	-0.936230	-0.275141
F51	F	1.114881	-0.458272	-0.543320
F52	F	1.593148	-0.936165	-0.543347
F53	F	1.388600	-1.087880	-0.501844
F54	F	1.114487	-0.362854	-0.275060
F55	F	0.962742	-0.308452	-0.430146
F56	F	1.483767	-1.088417	-0.233519
H57	H	0.972383	-0.644207	-0.487570
