data_functionalizedCrystal
_audit_creation_method	'MofGen! by Chris Wilmer'
_symmetry_space_group_name_H-M	'P1'
_symmetry_Int_Tables_number	1
_symmetry_cell_setting	triclinic
loop_
_symmetry_equiv_pos_as_xyz
  x,y,z
_cell_length_a	13.032891
_cell_length_b	12.759400
_cell_length_c	13.032268
_cell_angle_alpha	82.848512
_cell_angle_beta	89.113158
_cell_angle_gamma	82.819008
loop_
_atom_site_label
_atom_site_type_symbol
_atom_site_fract_x
_atom_site_fract_y
_atom_site_fract_z
Zn1	Zn	1.498524	-0.709517	0.780862
Zn2	Zn	1.520278	-0.866052	0.608887
Zn3	Zn	1.348380	-0.665629	0.587101
Zn4	Zn	1.326527	-0.860374	0.759012
O5	O	1.423427	-0.775393	0.683966
O6	O	1.645331	-0.751025	0.776311
O7	O	1.515725	-0.823475	0.462080
O8	O	1.368338	-0.524438	0.612830
O9	O	1.661313	-0.866031	0.649962
O10	O	1.478648	-0.556682	0.755185
O11	O	1.389432	-0.676224	0.446074
O12	O	1.201560	-0.670719	0.591644
O13	O	1.331093	-0.856354	0.905828
O14	O	1.185504	-0.813797	0.717946
O15	O	1.457458	-0.745519	0.921881
O16	O	1.494535	-1.012311	0.628775
O17	O	1.352187	-1.008140	0.739071
C18	C	1.156215	-0.736880	0.650060
C19	C	1.041897	-0.720432	0.635580
C20	C	0.864871	-0.766985	0.676566
C21	C	0.983025	-0.783990	0.691530
C22	C	1.423375	-1.048351	0.683942
C23	C	1.423443	-1.165141	0.683979
C24	C	1.480841	-1.236714	0.758153
C25	C	1.480886	-1.346448	0.758184
C26	C	1.366132	-1.313024	0.609858
C27	C	1.366082	-1.203292	0.609832
C28	C	1.538202	-1.198562	0.832300
C29	C	1.595607	-1.270137	0.906479
C30	C	1.595651	-1.379871	0.906510
C31	C	1.538292	-1.418030	0.832362
C32	C	1.691683	-0.814057	0.718004
C33	C	1.805997	-0.830533	0.732509
C34	C	1.389411	-0.805199	0.952214
C35	C	1.374916	-0.817900	1.066525
C36	C	1.423504	-0.501376	0.684015
C37	C	1.423537	-0.384606	0.684036
C38	C	1.457370	-0.745636	0.416768
C39	C	1.472064	-0.732667	0.302483
C40	C	1.430976	-0.768724	1.125431
C41	C	1.415996	-0.781850	1.243578
H42	H	0.843065	-0.897524	0.791486
C43	C	1.336168	-0.851859	1.293591
H44	H	1.302933	-0.881003	1.241312
H45	H	1.370219	-0.907924	1.340486
H46	H	1.286088	-0.809826	1.329816
H47	H	1.538175	-1.109214	0.832281
H48	H	1.004834	-0.653428	0.576607
H49	H	0.827802	-0.699986	0.617597
C50	C	1.658695	-1.228165	0.988036
H51	H	1.650456	-1.152562	0.977391
H52	H	1.634838	-1.251633	1.055214
H53	H	1.729722	-1.254397	0.981806
C54	C	1.658788	-1.458603	0.988101
H55	H	1.650597	-1.529421	0.977507
H56	H	1.729795	-1.448865	0.981866
H57	H	1.634909	-1.446106	1.055272
C58	C	1.538291	-1.538733	0.832436
H59	H	1.580679	-1.575897	0.887241
H60	H	1.469656	-1.555959	0.841760
H61	H	1.564548	-1.558810	0.768362
C62	C	1.510800	-0.698722	1.075410
H63	H	1.510402	-0.699089	1.002564
H64	H	1.493564	-0.627902	1.091068
H65	H	1.577691	-0.726004	1.101730
H66	H	1.020088	-0.850985	0.750512
H67	H	1.315823	-0.869711	1.103560
C68	C	1.303051	-1.354998	0.528296
H69	H	1.311310	-1.430602	0.538929
H70	H	1.232027	-1.328774	0.534514
H71	H	1.326921	-1.331527	0.461119
C72	C	1.551890	-0.662658	1.252468
H73	H	1.551494	-0.663024	1.179622
H74	H	1.534651	-0.591840	1.268128
H75	H	1.618782	-0.689938	1.278788
C76	C	1.302945	-1.124558	0.528243
H77	H	1.268801	-1.162994	0.484079
H78	H	1.253101	-1.079681	0.561852
H79	H	1.347987	-1.082435	0.488447
