data_functionalizedCrystal
_audit_creation_method	'MofGen! by Chris Wilmer'
_symmetry_space_group_name_H-M	'P1'
_symmetry_Int_Tables_number	1
_symmetry_cell_setting	triclinic
loop_
_symmetry_equiv_pos_as_xyz
  x,y,z
_cell_length_a	14.853566
_cell_length_b	15.625429
_cell_length_c	13.330367
_cell_angle_alpha	71.918212
_cell_angle_beta	89.995295
_cell_angle_gamma	83.949208
loop_
_atom_site_label
_atom_site_type_symbol
_atom_site_fract_x
_atom_site_fract_y
_atom_site_fract_z
O1	O	1.196370	0.117697	-0.126166
O2	O	0.933911	0.131719	-0.131283
O3	O	1.072150	-0.006520	-0.080987
O4	O	1.058131	0.255936	-0.176462
O5	O	1.072130	-0.006523	0.085861
O6	O	0.933891	0.131716	0.035566
O7	O	1.196350	0.117693	0.040682
Cu8	Cu	1.065119	0.124704	0.053359
Cu9	Cu	1.065143	0.124708	-0.143959
O10	O	1.058111	0.255933	-0.009613
C11	C	0.900312	0.131082	-0.047630
C12	C	0.800228	0.129179	-0.046943
C13	C	0.377054	0.121130	-0.134946
C14	C	0.377054	0.121127	0.046958
C15	C	0.471088	0.122915	0.046305
C16	C	0.518109	0.123811	-0.044976
C17	C	0.471097	0.122920	-0.135603
C18	C	0.518106	0.123815	0.136927
C19	C	0.612146	0.125603	0.136277
C20	C	0.659170	0.126493	0.044998
C21	C	0.612152	0.125601	-0.045633
C22	C	0.659173	0.126498	-0.136914
C23	C	0.612158	0.125599	-0.227543
C24	C	0.518121	0.123810	-0.226883
C25	C	0.753207	0.128282	0.044337
C26	C	0.753216	0.128288	-0.137571
C27	C	1.071505	-0.040110	0.014653
C28	C	1.069600	-0.140192	0.051054
C29	C	1.063365	-0.469343	-0.283937
C30	C	1.061571	-0.563385	-0.249702
C31	C	1.061550	-0.563375	-0.067816
C32	C	1.063348	-0.469331	-0.102035
C33	C	1.064254	-0.422323	-0.210097
C34	C	1.064237	-0.422311	-0.028195
C35	C	1.066031	-0.328275	-0.062413
C36	C	1.066935	-0.281260	-0.170470
C37	C	1.066048	-0.328287	-0.244315
C38	C	1.063324	-0.469321	0.079866
C39	C	1.064214	-0.422300	0.153705
C40	C	1.066013	-0.328264	0.119489
C41	C	1.066917	-0.281248	0.011432
C42	C	1.066900	-0.281237	0.193333
C43	C	1.068694	-0.187201	0.159116
C44	C	1.068711	-0.187213	-0.022786
C45	C	1.229949	0.118330	-0.042973
C46	C	1.330033	0.120233	-0.043666
C47	C	1.058757	0.289522	-0.105256
C48	C	1.060661	0.389605	-0.141663
N49	N	1.065109	0.124701	0.192141
N50	N	1.065160	0.124704	-0.282739
C51	C	1.003927	0.185896	0.642499
C52	C	1.126382	0.063513	0.686994
C53	C	1.126372	0.063510	0.581977
C54	C	1.065139	0.124702	0.507215
C55	C	1.003917	0.185897	0.537471
C56	C	1.187599	0.002322	0.551711
C57	C	1.187592	0.002318	0.446688
C58	C	1.126354	0.063506	0.371925
C59	C	1.065129	0.124703	0.402187
C60	C	1.003897	0.185895	0.327425
C61	C	0.942666	0.247088	0.357686
C62	C	0.942680	0.247086	0.462709
C63	C	1.126341	0.063509	0.266903
C64	C	1.003887	0.185896	0.222397
H65	H	0.338771	0.120395	-0.208733
F66	F	0.327007	0.120182	0.144096
H67	H	1.069457	-0.148936	-0.110780
H68	H	0.892829	0.296908	0.487354
H69	H	1.066794	-0.290011	-0.332309
F70	F	0.938761	0.251017	0.674705
F71	F	1.191508	-0.001608	0.234700
F72	F	1.069644	-0.137156	0.237704
H73	H	0.650419	0.126333	0.210074
F74	F	0.938709	0.251023	0.142838
F75	F	0.468081	0.122826	-0.323318
H76	H	0.479814	0.123091	0.211241
H77	H	0.791482	0.129023	0.118123
H78	H	1.237457	-0.047494	0.612583
F79	F	0.803253	0.129236	-0.234724
H80	H	1.068385	-0.204689	-0.198329
F81	F	0.877506	0.312217	0.278107
H82	H	1.061854	-0.545889	0.107721
F83	F	1.064342	-0.419309	-0.398949
F84	F	0.662211	0.126560	-0.324690
H85	H	1.060839	-0.601665	-0.309840
F86	F	1.060578	-0.613413	0.047188
F87	F	1.063242	-0.472339	0.268709
F88	F	1.065920	-0.331276	0.308336
F89	F	1.191552	-0.001604	0.766558
H90	H	1.237448	-0.047509	0.422057
