data_functionalizedCrystal
_audit_creation_method	'MofGen! by Chris Wilmer'
_symmetry_space_group_name_H-M	'P1'
_symmetry_Int_Tables_number	1
_symmetry_cell_setting	triclinic
loop_
_symmetry_equiv_pos_as_xyz
  x,y,z
_cell_length_a	10.723023
_cell_length_b	10.654549
_cell_length_c	9.198806
_cell_angle_alpha	89.997917
_cell_angle_beta	89.996513
_cell_angle_gamma	84.477233
loop_
_atom_site_label
_atom_site_type_symbol
_atom_site_fract_x
_atom_site_fract_y
_atom_site_fract_z
O1	O	1.657218	0.176142	-0.120874
O2	O	1.294068	0.193004	-0.120880
O3	O	1.483989	0.001832	-0.120871
O4	O	1.467296	0.367313	-0.120883
O5	O	1.483974	0.001832	0.120914
O6	O	1.294053	0.193003	0.120905
O7	O	1.657202	0.176141	0.120911
Cu8	Cu	1.475626	0.184572	0.142985
Cu9	Cu	1.475644	0.184573	-0.142954
O10	O	1.467281	0.367312	0.120903
C11	C	1.247560	0.191776	0.000012
C12	C	1.109006	0.188106	0.000010
C13	C	1.047225	0.186469	0.125261
C14	C	0.904022	0.182675	0.125261
C15	C	1.482755	-0.044966	0.000020
C16	C	1.479084	-0.184408	0.000015
C17	C	1.699295	-0.474426	0.000026
C18	C	1.814574	-0.422907	0.000031
C19	C	1.818028	-0.291890	0.000029
C20	C	1.706189	-0.212387	0.000026
C21	C	1.590910	-0.263906	0.000022
C22	C	1.587469	-0.394928	0.000019
C23	C	1.363804	-0.235927	0.000010
C24	C	1.360348	-0.366945	0.000002
C25	C	1.251966	-0.156425	0.000008
C26	C	1.136684	-0.207944	-0.000008
C27	C	1.133235	-0.338970	-0.000007
C28	C	1.245069	-0.418464	-0.000003
C29	C	1.703710	0.177368	0.000016
C30	C	1.842265	0.181039	0.000009
C31	C	1.468516	0.414110	0.000008
C32	C	1.472187	0.553553	0.000004
N33	N	1.475623	0.184571	0.344099
N34	N	1.475657	0.184564	-0.344068
C35	C	1.555365	0.103950	0.416300
C36	C	1.555384	0.103945	0.583712
H37	H	1.100352	0.187869	0.232492
H38	H	1.696494	-0.581109	0.000009
Br39	Br	1.361841	0.299605	0.447632
H40	H	0.850891	0.181275	0.232493
H41	H	0.895385	0.182454	-0.107228
H42	H	1.055880	0.186695	-0.107221
Br43	Br	1.966347	-0.530806	0.000056
H44	H	1.623660	0.034927	0.645801
Br45	Br	1.974478	-0.221965	0.000063
H46	H	1.709011	-0.105707	0.000043
Br47	Br	1.256650	0.021386	0.000014
H48	H	1.045635	-0.143203	0.000001
H49	H	1.039361	-0.380907	0.000004
Br50	Br	1.240398	-0.596277	0.000011
Br51	Br	1.668818	-0.011412	0.312768
H52	H	1.407388	0.253595	0.593852
