data_functionalizedCrystal
_audit_creation_method	'MofGen! by Chris Wilmer'
_symmetry_space_group_name_H-M	'P1'
_symmetry_Int_Tables_number	1
_symmetry_cell_setting	triclinic
loop_
_symmetry_equiv_pos_as_xyz
  x,y,z
_cell_length_a	23.532407
_cell_length_b	23.532407
_cell_length_c	7.088929
_cell_angle_alpha	96.172553
_cell_angle_beta	83.816429
_cell_angle_gamma	82.848712
loop_
_atom_site_label
_atom_site_type_symbol
_atom_site_fract_x
_atom_site_fract_y
_atom_site_fract_z
O1	O	0.075015	0.749379	-0.158890
O2	O	0.085019	0.583515	-0.158923
O3	O	-0.002916	0.671450	-0.158870
O4	O	0.162950	0.661444	-0.158942
O5	O	-0.014686	0.683210	0.159112
O6	O	0.073250	0.595275	0.159060
O7	O	0.063245	0.761139	0.159093
Cu8	Cu	0.067173	0.679281	0.188110
Cu9	Cu	0.081092	0.665373	-0.187940
O10	O	0.151180	0.673204	0.159040
C11	C	0.078880	0.568179	0.000065
C12	C	0.078114	0.504961	0.000054
C13	C	-0.030017	0.677076	0.000126
C14	C	-0.093234	0.676310	0.000140
C15	C	0.022916	0.238797	0.000130
C16	C	0.023628	0.298197	0.000129
O17	O	-0.020161	0.334944	0.000214
N18	N	0.075905	0.320822	0.000093
C19	C	0.127474	0.284044	0.000078
O20	O	0.172006	0.308742	0.000049
C21	C	0.126761	0.224645	0.000092
C22	C	0.074481	0.202023	0.000109
C23	C	-0.029360	0.216174	0.000148
C24	C	-0.030071	0.156778	0.000145
C25	C	0.021494	0.120004	0.000124
C26	C	0.073770	0.142627	0.000106
C27	C	0.178329	0.187869	0.000091
C28	C	0.177612	0.128467	0.000107
C29	C	0.125332	0.105845	0.000123
C30	C	0.124624	0.046457	0.000082
N31	N	0.072346	0.023832	0.000118
C32	C	0.020781	0.060606	0.000139
C33	C	0.128966	0.408785	0.000051
C34	C	0.129680	0.468182	0.000023
C35	C	0.025833	0.482331	0.000077
C36	C	0.025121	0.422933	0.000092
C37	C	0.076689	0.386160	0.000086
C38	C	0.019292	-0.064131	0.000131
C39	C	0.018586	-0.123534	0.000121
C40	C	0.122432	-0.137678	0.000076
C41	C	0.123139	-0.078281	0.000077
C42	C	0.071564	-0.041508	0.000111
O43	O	0.168390	0.009675	0.000004
O44	O	-0.023744	0.035900	0.000193
C45	C	-0.492334	0.723540	0.000045
C46	C	-0.551734	0.722828	0.000030
O47	O	-0.588476	0.766612	-0.000032
N48	N	-0.574360	0.670551	0.000021
C49	C	-0.537581	0.618983	0.000008
O50	O	-0.562281	0.574452	-0.000003
C51	C	-0.478182	0.619695	0.000009
C52	C	-0.455561	0.671976	0.000037
C53	C	-0.469712	0.775817	0.000071
C54	C	-0.410316	0.776528	0.000089
C55	C	-0.373543	0.724964	0.000081
C56	C	-0.396165	0.672687	0.000055
C57	C	-0.441405	0.568126	-0.000019
C58	C	-0.382002	0.568843	-0.000019
C59	C	-0.359381	0.621124	0.000009
C60	C	-0.299997	0.621835	0.000065
N61	N	-0.277371	0.674111	0.000074
C62	C	-0.314144	0.725676	0.000082
C63	C	-0.662324	0.617491	0.000002
C64	C	-0.721722	0.616779	0.000015
C65	C	-0.735870	0.720624	0.000034
C66	C	-0.676471	0.721337	0.000035
C67	C	-0.639698	0.669768	0.000011
C68	C	-0.189409	0.727167	0.000122
C69	C	-0.130008	0.727875	0.000148
C70	C	-0.115864	0.624029	0.000119
C71	C	-0.175261	0.623322	0.000103
C72	C	-0.212032	0.674895	0.000098
O73	O	-0.263220	0.578074	0.000119
O74	O	-0.289436	0.770199	0.000068
C75	C	0.178282	0.667579	0.000040
C76	C	0.241500	0.668343	0.000013
C77	C	0.069385	0.776475	0.000101
C78	C	0.070151	0.839692	0.000099
N79	N	0.057382	0.689067	0.452604
N80	N	0.090878	0.655592	-0.452434
H81	H	-0.023989	-0.141949	0.000129
C82	C	0.137215	0.609313	0.439021
C83	C	0.166544	0.580023	0.569314
C84	C	0.209237	0.537394	0.469394
H85	H	0.119799	0.582786	0.360941
H86	H	0.163704	0.626797	0.360956
H87	H	0.140058	0.562540	0.647347
H88	H	0.183972	0.606535	0.647399
H89	H	0.235726	0.554877	0.391329
H90	H	0.191816	0.510871	0.391318
H91	H	0.229145	0.517519	0.557783
C92	C	0.011016	0.735292	0.561245
C93	C	-0.043109	0.724564	0.512688
C94	C	-0.085835	0.767138	0.612724
H95	H	0.011609	0.734666	0.694780
H96	H	0.018152	0.772079	0.528476
H97	H	-0.050242	0.687786	0.545470
H98	H	-0.043720	0.725195	0.379170
H99	H	-0.078699	0.803925	0.579955
H100	H	-0.085236	0.766508	0.746254
H101	H	-0.122563	0.759868	0.579779
H102	H	-0.111593	0.770450	0.000177
H103	H	-0.022705	-0.034198	0.000158
C104	C	0.233635	0.088555	-0.000304
C105	C	0.271183	0.092674	-0.163935
C106	C	0.322793	0.055911	-0.164398
H107	H	0.251053	0.099447	0.110445
H108	H	0.225756	0.049925	-0.000405
H109	H	0.279063	0.131295	-0.163817
H110	H	0.253783	0.081777	-0.274711
H111	H	0.314913	0.017282	-0.164499
H112	H	0.340206	0.066807	-0.053642
H113	H	0.348273	0.058697	-0.275428
H114	H	-0.740136	0.574208	0.000025
C115	C	-0.086897	0.132337	0.000291
C116	C	-0.131899	0.177267	0.000368
C117	C	-0.184259	0.154780	0.000539
H118	H	-0.085321	0.105366	-0.110556
H119	H	-0.093470	0.113585	0.111233
H120	H	-0.125327	0.196010	-0.110563
H121	H	-0.133494	0.204242	0.111207
H122	H	-0.190832	0.136028	0.111481
H123	H	-0.182677	0.127809	-0.110310
H124	H	-0.214800	0.185262	0.000609
C125	C	-0.622500	0.561441	0.000104
C126	C	-0.655036	0.515515	0.000148
C127	C	-0.618374	0.463875	0.000264
H128	H	-0.594911	0.555374	-0.110750
H129	H	-0.603154	0.563630	0.111039
H130	H	-0.674373	0.513325	-0.110776
H131	H	-0.682623	0.521563	0.110993
H132	H	-0.599029	0.466064	0.111199
H133	H	-0.590788	0.457813	-0.110592
H134	H	-0.640446	0.432708	0.000311
H135	H	0.170963	0.378847	0.000032
C136	C	-0.229235	0.783226	0.000224
C137	C	-0.196702	0.829156	0.000303
C138	C	-0.233371	0.880806	0.000435
H139	H	-0.248605	0.781095	-0.110636
H140	H	-0.256805	0.789242	0.111153
H141	H	-0.169142	0.823141	-0.110615
H142	H	-0.177332	0.831305	0.111155
H143	H	-0.260940	0.886822	0.111364
H144	H	-0.252739	0.878669	-0.110427
H145	H	-0.211303	0.911976	0.000506
C146	C	-0.085296	0.256149	-0.000141
C147	C	-0.081863	0.284614	-0.163726
C148	C	-0.133381	0.321444	-0.164063
H149	H	-0.116571	0.234228	-0.000227
H150	H	-0.091293	0.283753	0.110679
H151	H	-0.075873	0.257013	-0.274517
H152	H	-0.050599	0.306546	-0.163675
H153	H	-0.139377	0.349049	-0.053243
H154	H	-0.164651	0.299518	-0.164143
H155	H	-0.131056	0.340766	-0.275043
C156	C	-0.031703	0.398489	0.000220
C157	C	-0.076707	0.443416	0.000275
C158	C	-0.129064	0.420925	0.000422
H159	H	-0.030121	0.371517	-0.110628
H160	H	-0.038280	0.379737	0.111162
H161	H	-0.070132	0.462159	-0.110655
H162	H	-0.078308	0.470392	0.111115
H163	H	-0.135641	0.402173	0.111364
H164	H	-0.127476	0.393953	-0.110427
H165	H	-0.159606	0.451405	0.000478
C166	C	0.186498	0.492631	0.000079
C167	C	0.231498	0.447707	0.000105
C168	C	0.283847	0.470207	0.000195
H169	H	0.193122	0.511398	-0.110778
H170	H	0.184862	0.519595	0.111011
H171	H	0.233135	0.420753	-0.110815
H172	H	0.224894	0.428937	0.110955
H173	H	0.282211	0.497171	0.111127
H174	H	0.290465	0.488973	-0.110664
H175	H	0.314385	0.439731	0.000231
H176	H	-0.016154	0.512284	0.000095
H177	H	0.220902	0.206276	0.000069
H178	H	0.165710	-0.059861	0.000061
H179	H	-0.391903	0.819100	0.000105
C180	C	-0.775723	0.776643	-0.000275
C181	C	-0.759472	0.802096	-0.163842
C182	C	-0.796166	0.853701	-0.164179
H183	H	-0.814354	0.768806	-0.000386
H184	H	-0.773000	0.802227	0.110557
H185	H	-0.762201	0.776518	-0.274646
H186	H	-0.720847	0.809947	-0.163766
H187	H	-0.793443	0.879285	-0.053346
H188	H	-0.834795	0.845858	-0.164284
H189	H	-0.785141	0.870980	-0.275147
H190	H	0.164415	-0.167630	0.000049
C191	C	-0.509541	0.831872	0.000187
C192	C	-0.477005	0.877800	0.000258
C193	C	-0.513673	0.929452	0.000407
H194	H	-0.528915	0.829743	-0.110664
H195	H	-0.537107	0.837888	0.111125
H196	H	-0.449449	0.871785	-0.110669
H197	H	-0.457631	0.879947	0.111101
H198	H	-0.541239	0.935468	0.111345
H199	H	-0.533045	0.927317	-0.110446
H200	H	-0.491603	0.960621	0.000473
C201	C	-0.466020	0.511391	-0.000371
C202	C	-0.493652	0.501906	-0.163957
C203	C	-0.516337	0.449647	-0.164342
H204	H	-0.435658	0.480737	-0.000488
H205	H	-0.493037	0.513035	0.110448
H206	H	-0.466636	0.500257	-0.274748
H207	H	-0.524021	0.532547	-0.163875
H208	H	-0.543354	0.451291	-0.053523
H209	H	-0.485972	0.418997	-0.164454
H210	H	-0.535092	0.443207	-0.275323
H211	H	-0.193682	0.580752	0.000133
H212	H	-0.352064	0.526848	-0.000042
C213	C	-0.651823	0.778045	-0.000252
C214	C	-0.612065	0.775435	-0.163826
C215	C	-0.589345	0.827663	-0.164148
H216	H	-0.682173	0.808696	-0.000342
H217	H	-0.633018	0.784588	0.110576
H218	H	-0.630869	0.768898	-0.274625
H219	H	-0.581705	0.744795	-0.163771
H220	H	-0.570541	0.834206	-0.053321
H221	H	-0.619699	0.858310	-0.164233
H222	H	-0.562364	0.825897	-0.275121
H223	H	-0.085913	0.582047	0.000119
