data_functionalizedCrystal
_audit_creation_method	'MofGen! by Chris Wilmer'
_symmetry_space_group_name_H-M	'P1'
_symmetry_Int_Tables_number	1
_symmetry_cell_setting	triclinic
loop_
_symmetry_equiv_pos_as_xyz
  x,y,z
_cell_length_a	10.654562
_cell_length_b	10.540514
_cell_length_c	9.730223
_cell_angle_alpha	90.001795
_cell_angle_beta	89.996961
_cell_angle_gamma	84.502632
loop_
_atom_site_label
_atom_site_type_symbol
_atom_site_fract_x
_atom_site_fract_y
_atom_site_fract_z
O1	O	1.667871	0.178374	-0.114370
O2	O	1.302399	0.195345	-0.114352
O3	O	1.493490	0.002148	-0.114363
O4	O	1.476781	0.371570	-0.114359
O5	O	1.493488	0.002153	0.114217
O6	O	1.302397	0.195349	0.114228
O7	O	1.667869	0.178379	0.114210
Zn8	Zn	1.485133	0.186865	0.150511
Zn9	Zn	1.485136	0.186858	-0.150653
O10	O	1.476779	0.371575	0.114221
C11	C	1.255600	0.194098	-0.000060
C12	C	1.116157	0.190359	-0.000053
C13	C	1.050625	0.188618	0.124535
C14	C	0.919601	0.185116	0.124512
C15	C	0.919654	0.185101	-0.124698
C16	C	1.050676	0.188594	-0.124674
C17	C	1.050593	0.188632	0.268415
C18	C	0.919569	0.185130	0.268392
C19	C	1.492243	-0.045153	-0.000076
C20	C	1.488514	-0.186101	-0.000086
C21	C	1.625179	-0.256850	-0.000090
C22	C	1.621346	-0.403462	0.000439
C23	C	1.414187	-0.378411	0.130205
C24	C	1.418989	-0.231873	0.130304
C25	C	1.416969	-0.231479	-0.129643
C26	C	1.415650	-0.378458	-0.131346
C27	C	1.714668	0.179626	-0.000085
C28	C	1.854112	0.183364	-0.000101
C29	C	1.478026	0.418876	-0.000068
C30	C	1.481755	0.559824	-0.000067
N31	N	1.485140	0.186869	0.356047
N32	N	1.485139	0.186845	-0.356189
C33	C	1.569777	0.101350	0.427969
C34	C	1.569774	0.101335	0.571851
C35	C	1.400493	0.272367	0.571880
C36	C	1.400491	0.272375	0.427999
C37	C	1.667514	0.002610	0.427953
C38	C	1.667511	0.002594	0.571836
H39	H	0.866323	0.183664	-0.226160
N40	N	1.698633	-0.219063	-0.123803
H41	H	1.786039	-0.265525	-0.121814
H42	H	1.653863	-0.242231	-0.210431
N43	N	1.788308	0.043560	0.368829
H44	H	1.830492	-0.027380	0.310383
H45	H	1.768593	0.122180	0.310469
N46	N	1.111841	0.072430	0.341603
H47	H	1.089853	-0.007021	0.292715
H48	H	1.206353	0.075021	0.341645
H49	H	1.080191	0.281218	0.313059
H50	H	0.889956	0.092548	0.313037
N51	N	0.858273	0.301339	0.341549
H52	H	0.925423	0.355728	0.374204
H53	H	0.799428	0.352249	0.276277
N54	N	1.627102	-0.119554	0.630953
H55	H	1.607577	-0.178563	0.553690
H56	H	1.697366	-0.162033	0.689385
H57	H	1.679846	-0.226547	0.093119
H58	H	1.331573	0.341984	0.630478
N59	N	1.639082	-0.126634	0.376209
H60	H	1.553583	-0.145979	0.410774
H61	H	1.639146	-0.126590	0.272413
H62	H	1.764027	0.024349	0.610883
H63	H	1.331562	0.342000	0.369442
H64	H	1.104030	0.189992	-0.226126
N65	N	1.691431	-0.458767	0.124861
H66	H	1.689235	-0.554345	0.125719
H67	H	1.781853	-0.437666	0.121092
H68	H	1.465029	-0.419472	-0.227723
N69	N	1.691774	-0.460019	-0.123203
H70	H	1.725591	-0.389714	-0.178543
H71	H	1.764125	-0.522070	-0.091601
H72	H	1.462461	-0.200000	-0.228416
N73	N	1.286018	-0.168229	0.137663
H74	H	1.224546	-0.235401	0.140834
H75	H	1.276205	-0.113869	0.223174
N76	N	1.484340	-0.194507	0.259793
H77	H	1.572776	-0.238543	0.262340
H78	H	1.488019	-0.099126	0.261092
H79	H	1.311661	-0.400692	0.134686
H80	H	1.460544	-0.420980	0.227519
N81	N	1.280873	-0.410457	-0.142245
H82	H	1.232206	-0.377294	-0.058511
H83	H	1.240958	-0.369554	-0.227512
N84	N	1.283442	-0.168844	-0.131317
H85	H	1.269308	-0.111349	-0.048607
H86	H	1.269194	-0.116794	-0.218029
