data_functionalizedCrystal
_audit_creation_method	'MofGen! by Chris Wilmer'
_symmetry_space_group_name_H-M	'P1'
_symmetry_Int_Tables_number	1
_symmetry_cell_setting	triclinic
loop_
_symmetry_equiv_pos_as_xyz
  x,y,z
_cell_length_a	16.120490
_cell_length_b	17.077402
_cell_length_c	17.077395
_cell_angle_alpha	89.971476
_cell_angle_beta	87.088701
_cell_angle_gamma	87.115173
loop_
_atom_site_label
_atom_site_type_symbol
_atom_site_fract_x
_atom_site_fract_y
_atom_site_fract_z
Zn1	Zn	1.274519	-0.373517	-0.504583
Zn2	Zn	1.607852	-0.040184	-0.171250
Zn3	Zn	1.941185	0.293149	0.162084
Zn4	Zn	1.274430	-0.504785	-0.373310
Zn5	Zn	1.607763	-0.171452	-0.039977
Zn6	Zn	1.941096	0.161882	0.293357
Zn7	Zn	1.135111	-0.366869	-0.366686
Zn8	Zn	1.468445	-0.033536	-0.033353
Zn9	Zn	1.801778	0.299797	0.299980
Zn10	Zn	1.135068	-0.498071	-0.497891
Zn11	Zn	1.468401	-0.164737	-0.164558
Zn12	Zn	1.801735	0.168596	0.168776
O13	O	1.204782	-0.435811	-0.435618
O14	O	1.538115	-0.102477	-0.102284
O15	O	1.871449	0.230856	0.231049
O16	O	1.391173	-0.396522	-0.492742
O17	O	1.724506	-0.063189	-0.159409
O18	O	2.057839	0.270144	0.173925
O19	O	1.255929	-0.486518	-0.262583
O20	O	1.589263	-0.153184	0.070750
O21	O	1.922596	0.180149	0.404083
O22	O	1.153659	-0.257907	-0.385007
O23	O	1.486993	0.075427	-0.051674
O24	O	1.820326	0.408760	0.281659
O25	O	1.391107	-0.492964	-0.396296
O26	O	1.724441	-0.159631	-0.062963
O27	O	2.057774	0.173703	0.270371
O28	O	1.256082	-0.262791	-0.486320
O29	O	1.589415	0.070542	-0.152986
O30	O	1.922748	0.403876	0.180347
O31	O	1.153573	-0.385192	-0.257717
O32	O	1.486906	-0.051858	0.075616
O33	O	1.820240	0.281475	0.408949
O34	O	1.018440	-0.378681	-0.378518
O35	O	1.351773	-0.045348	-0.045185
O36	O	1.685106	0.287985	0.288148
O37	O	1.153586	-0.481521	-0.608627
O38	O	1.486919	-0.148187	-0.275293
O39	O	1.820252	0.185146	0.058040
O40	O	1.018408	-0.475075	-0.474914
O41	O	1.351741	-0.141741	-0.141581
O42	O	1.685074	0.191592	0.191753
O43	O	1.256040	-0.390012	-0.613543
O44	O	1.589373	-0.056679	-0.280210
O45	O	1.922706	0.276655	0.053123
O46	O	1.255887	-0.613739	-0.389807
O47	O	1.589221	-0.280405	-0.056474
O48	O	1.922554	0.052928	0.276860
O49	O	1.153499	-0.608806	-0.481336
O50	O	1.486832	-0.275472	-0.148003
O51	O	1.820166	0.057861	0.185330
C52	C	0.988173	-0.425429	-0.425272
C53	C	1.321507	-0.092095	-0.091938
C54	C	1.654840	0.241238	0.241395
C55	C	0.895507	-0.421006	-0.420864
C56	C	1.228841	-0.087673	-0.087531
C57	C	1.562174	0.245661	0.245802
C58	C	0.684564	-0.458745	-0.458481
C59	C	1.017897	-0.125412	-0.125147
C60	C	1.351231	0.207922	0.208186
C61	C	0.725851	-0.412939	-0.412816
C62	C	1.059184	-0.079605	-0.079483
C63	C	1.392518	0.253728	0.253850
C64	C	0.820257	-0.417429	-0.417296
C65	C	1.153590	-0.084095	-0.083962
C66	C	1.486923	0.249238	0.249371
C67	C	0.590150	-0.454256	-0.454003
C68	C	0.923483	-0.120923	-0.120669
C69	C	1.256816	0.212411	0.212664
C70	C	1.204701	-0.639755	-0.435582
C71	C	1.538035	-0.306421	-0.102249
C72	C	1.871368	0.026912	0.231084
C73	C	1.204743	-0.727006	-0.435597
C74	C	1.538077	-0.393673	-0.102264
C75	C	1.871410	-0.060340	0.231069
C76	C	1.258111	-0.770542	-0.387994
C77	C	1.591445	-0.437208	-0.054661
C78	C	1.924778	-0.103875	0.278672
C79	C	1.258152	-0.852524	-0.388016
C80	C	1.591485	-0.519191	-0.054683
C81	C	1.924819	-0.185857	0.278650
C82	C	1.204820	-0.890969	-0.435638
C83	C	1.538153	-0.557636	-0.102304
C84	C	1.871487	-0.224303	0.231029
C85	C	1.151449	-0.847428	-0.483246
C86	C	1.484783	-0.514095	-0.149912
C87	C	1.818116	-0.180762	0.183421
C88	C	1.151414	-0.765448	-0.483227
C89	C	1.484747	-0.432114	-0.149894
C90	C	1.818080	-0.098781	0.183439
C91	C	1.151527	-1.018302	-0.483279
C92	C	1.484860	-0.684969	-0.149946
C93	C	1.818193	-0.351635	0.183387
C94	C	1.151561	-1.100288	-0.483297
C95	C	1.484895	-0.766955	-0.149963
C96	C	1.818228	-0.433622	0.183370
C97	C	1.258265	-1.105378	-0.388068
C98	C	1.591599	-0.772045	-0.054735
C99	C	1.924932	-0.438712	0.278598
C100	C	1.258229	-1.023398	-0.388050
C101	C	1.591563	-0.690064	-0.054717
C102	C	1.924896	-0.356731	0.278617
C103	C	1.204858	-0.979862	-0.435657
C104	C	1.538191	-0.646529	-0.102324
C105	C	1.871524	-0.313196	0.231009
C106	C	1.422236	-0.446234	-0.446004
C107	C	1.755569	-0.112900	-0.112671
C108	C	2.088903	0.220433	0.220662
C109	C	1.514902	-0.450675	-0.450431
C110	C	1.848235	-0.117342	-0.117097
C111	C	2.181569	0.215991	0.216236
C112	C	1.204885	-0.231071	-0.435671
C113	C	1.538219	0.102262	-0.102338
C114	C	1.871552	0.435595	0.230995
C115	C	1.204929	-0.143823	-0.435694
C116	C	1.538263	0.189510	-0.102361
C117	C	1.871596	0.522843	0.230973
C118	C	1.204818	-0.435759	-0.640364
C119	C	1.538151	-0.102426	-0.307030
C120	C	1.871484	0.230908	0.026303
C121	C	1.204833	-0.435737	-0.727614
C122	C	1.538166	-0.102404	-0.394281
C123	C	1.871500	0.230930	-0.060948
C124	C	1.258273	-0.387986	-1.105995
C125	C	1.591606	-0.054653	-0.772661
C126	C	1.924940	0.278681	-0.439328
C127	C	1.258256	-0.388013	-1.024013
C128	C	1.591589	-0.054679	-0.690680
C129	C	1.924923	0.278654	-0.357347
C130	C	1.204902	-0.435666	-0.980467
C131	C	1.538235	-0.102333	-0.647133
C132	C	1.871568	0.231001	-0.313800
C133	C	1.151567	-0.483301	-1.018906
C134	C	1.484900	-0.149968	-0.685572
C135	C	1.818233	0.183365	-0.352239
C136	C	1.151588	-0.483278	-1.100886
C137	C	1.484922	-0.149945	-0.767552
C138	C	1.818255	0.183388	-0.434219
C139	C	1.151523	-0.483345	-0.848033
C140	C	1.484857	-0.150011	-0.514700
C141	C	1.818190	0.183322	-0.181367
C142	C	1.151500	-0.483367	-0.766048
C143	C	1.484834	-0.150034	-0.432714
C144	C	1.818167	0.183300	-0.099381
C145	C	1.258191	-0.388079	-0.771161
C146	C	1.591524	-0.054746	-0.437828
C147	C	1.924858	0.278587	-0.104494
C148	C	1.258213	-0.388056	-0.853141
C149	C	1.591546	-0.054723	-0.519808
C150	C	1.924880	0.278611	-0.186474
C151	C	1.204877	-0.435691	-0.891574
C152	C	1.538210	-0.102357	-0.558241
C153	C	1.871543	0.230976	-0.224908
C154	C	1.204794	-0.435808	-0.231670
C155	C	1.538128	-0.102474	0.101663
C156	C	1.871461	0.230859	0.434996
C157	C	1.204940	-0.435616	-0.144428
C158	C	1.538274	-0.102283	0.188905
C159	C	1.871607	0.231050	0.522239
H160	H	0.720116	-0.501331	-0.500935
H161	H	1.053449	-0.167997	-0.167602
H162	H	1.386782	0.165336	0.165731
H163	H	1.108035	-0.522151	-0.730593
H164	H	1.441368	-0.188818	-0.397260
H165	H	1.774702	0.144515	-0.063926
C166	C	1.316867	-0.335686	-0.728883
C167	C	1.650200	-0.002352	-0.395550
C168	C	1.983534	0.330981	-0.062217
N169	N	1.361059	-0.296223	-0.697036
N170	N	1.694392	0.037110	-0.363703
N171	N	2.027726	0.370443	-0.030369
C172	C	0.677821	-0.355410	-0.355450
C173	C	1.011154	-0.022076	-0.022117
C174	C	1.344488	0.311257	0.311217
N175	N	0.641641	-0.312084	-0.312240
N176	N	0.974974	0.021249	0.021093
N177	N	1.308308	0.354582	0.354427
H178	H	1.301652	-0.992096	-0.349269
H179	H	1.634985	-0.658762	-0.015936
H180	H	1.968319	-0.325429	0.317397
H181	H	1.301725	-1.140829	-0.349307
H182	H	1.635059	-0.807496	-0.015974
H183	H	1.968392	-0.474162	0.317359
C184	C	1.092848	-0.535744	-0.890308
C185	C	1.426182	-0.202411	-0.556974
C186	C	1.759515	0.130923	-0.223641
N187	N	1.048652	-0.575206	-0.922149
N188	N	1.381985	-0.241873	-0.588815
N189	N	1.715318	0.091460	-0.255482
H190	H	1.108149	-1.131589	-0.522090
H191	H	1.441483	-0.798256	-0.188756
H192	H	1.774816	-0.464922	0.144577
H193	H	1.108029	-0.878737	-0.522023
H194	H	1.441362	-0.545404	-0.188690
H195	H	1.774696	-0.212071	0.144643
C196	C	1.316919	-0.335608	-0.981740
C197	C	1.650252	-0.002275	-0.648407
C198	C	1.983586	0.331058	-0.315074
N199	N	1.361104	-0.296133	-0.949901
N200	N	1.694438	0.037200	-0.616567
N201	N	2.027771	0.370534	-0.283234
C202	C	1.316780	-0.728259	-0.335605
C203	C	1.650113	-0.394926	-0.002271
C204	C	1.983447	-0.061593	0.331062
N205	N	1.360973	-0.696415	-0.296145
N206	N	1.694306	-0.363081	0.037189
N207	N	2.027640	-0.029748	0.370522
H208	H	1.301609	-0.887967	-0.349253
H209	H	1.634942	-0.554634	-0.015920
H210	H	1.968276	-0.221300	0.317414
C211	C	1.092808	-0.970414	-0.535643
C212	C	1.426141	-0.637081	-0.202310
C213	C	1.759474	-0.303748	0.131023
N214	N	1.048576	-0.934345	-0.575077
N215	N	1.381909	-0.601012	-0.241744
N216	N	1.715242	-0.267679	0.091589
C217	C	1.092705	-0.717559	-0.535595
C218	C	1.426038	-0.384226	-0.202261
C219	C	1.759372	-0.050893	0.131072
N220	N	1.048486	-0.681491	-0.575042
N221	N	1.381819	-0.348157	-0.241708
N222	N	1.715152	-0.014824	0.091625
H223	H	1.301715	-0.349176	-1.141445
H224	H	1.635049	-0.015843	-0.808111
H225	H	1.968382	0.317491	-0.474778
C226	C	1.092916	-0.535673	-1.143162
C227	C	1.426250	-0.202340	-0.809828
C228	C	1.759583	0.130993	-0.476495
N229	N	1.048724	-0.575140	-1.175003
N230	N	1.382057	-0.241807	-0.841669
N231	N	1.715390	0.091527	-0.508336
H232	H	1.301655	-0.349249	-0.888595
H233	H	1.634989	-0.015916	-0.555261
H234	H	1.968322	0.317417	-0.221928
H235	H	1.108128	-0.522105	-0.983443
H236	H	1.441461	-0.188772	-0.650110
H237	H	1.774795	0.144562	-0.316777
