data_functionalizedCrystal
_audit_creation_method	'MofGen! by Chris Wilmer'
_symmetry_space_group_name_H-M	'P1'
_symmetry_Int_Tables_number	1
_symmetry_cell_setting	triclinic
loop_
_symmetry_equiv_pos_as_xyz
  x,y,z
_cell_length_a	17.699083
_cell_length_b	22.610064
_cell_length_c	17.699083
_cell_angle_alpha	89.996827
_cell_angle_beta	83.283015
_cell_angle_gamma	90.002185
loop_
_atom_site_label
_atom_site_type_symbol
_atom_site_fract_x
_atom_site_fract_y
_atom_site_fract_z
O1	O	1.004081	0.049103	0.095701
O2	O	0.783703	0.049122	0.108153
O3	O	0.900118	0.049107	-0.008262
O4	O	0.887666	0.049118	0.212116
O5	O	0.900098	-0.049262	-0.008245
O6	O	0.783682	-0.049247	0.108170
O7	O	1.004060	-0.049266	0.095718
Zn8	Zn	0.893868	-0.064875	0.101947
Zn9	Zn	0.893895	0.064731	0.101924
O10	O	0.887645	-0.049251	0.212133
C11	C	0.755495	-0.000060	0.107716
C12	C	0.671477	-0.000053	0.106377
N13	N	0.893855	-0.153327	0.101962
C14	C	0.622856	-0.000049	0.174711
C15	C	0.543913	-0.000057	0.173448
C16	C	0.513592	-0.000064	0.103852
C17	C	0.562219	-0.000069	0.035513
C18	C	0.641161	-0.000065	0.036776
C19	C	0.243856	-0.000084	0.030418
C20	C	0.164908	-0.000085	0.029160
C21	C	0.146608	-0.000075	0.167090
C22	C	0.225550	-0.000072	0.168353
C23	C	0.274170	-0.000080	0.100015
C24	C	0.359769	-0.000073	0.101384
C25	C	0.427995	-0.000067	0.102481
C26	C	0.945446	-0.561976	0.050384
C27	C	0.945450	-0.623895	0.050378
O28	O	0.989282	-0.655920	0.006536
N29	N	0.893895	-0.654864	0.101909
C30	C	0.842327	-0.623910	0.153443
O31	O	0.798475	-0.655938	0.197273
C32	C	0.842320	-0.561992	0.153444
C33	C	0.893884	-0.531026	0.101916
C34	C	0.997005	-0.531010	-0.001142
C35	C	0.997002	-0.469094	-0.001135
C36	C	0.945440	-0.438144	0.050397
C37	C	0.893881	-0.469110	0.101922
C38	C	0.790749	-0.531038	0.204975
C39	C	0.790746	-0.469115	0.204971
C40	C	0.842310	-0.438150	0.153442
C41	C	0.842315	-0.376245	0.153461
N42	N	0.893871	-0.345276	0.101930
C43	C	0.945433	-0.376226	0.050398
C44	C	0.842344	-0.753944	0.153436
C45	C	0.842354	-0.815862	0.153439
C46	C	0.945477	-0.815842	0.050372
C47	C	0.945470	-0.753924	0.050374
C48	C	0.893900	-0.722975	0.101905
C49	C	0.945423	-0.246198	0.050416
C50	C	0.945417	-0.184277	0.050430
C51	C	0.842292	-0.184302	0.153493
C52	C	0.842300	-0.246217	0.153483
C53	C	0.893869	-0.277164	0.101938
O54	O	0.798503	-0.344181	0.197279
O55	O	0.989271	-0.344191	0.006569
C56	C	1.032268	-0.000083	0.096156
C57	C	1.116286	-0.000086	0.097494
C58	C	0.899662	-0.000078	-0.036451
C59	C	0.898323	-0.000078	-0.120469
N60	N	0.893914	0.153183	0.101904
C61	C	0.966656	-0.000085	-0.169090
C62	C	0.965394	-0.000079	-0.248033
C63	C	0.895798	-0.000071	-0.278354
C64	C	0.827459	-0.000063	-0.229727
C65	C	0.828722	-0.000064	-0.150785
C66	C	0.822364	-0.000058	-0.548090
C67	C	0.821106	-0.000058	-0.627038
C68	C	0.959036	-0.000073	-0.645338
C69	C	0.960299	-0.000074	-0.566396
C70	C	0.891961	-0.000062	-0.517776
C71	C	0.893330	-0.000067	-0.432177
C72	C	0.894427	-0.000071	-0.363951
C73	C	0.888102	-0.000065	0.240322
C74	C	0.889440	-0.000061	0.324340
H75	H	0.647537	-0.000043	0.231384
H76	H	0.773078	-0.000058	-0.111198
H77	H	1.014680	-0.000080	-0.684934
O78	O	1.041725	-0.000094	-0.136394
H79	H	1.031126	-0.000099	-0.073332
H80	H	0.800351	-0.728748	0.195405
H81	H	0.283434	-0.000091	-0.025228
H82	H	1.016971	-0.000084	-0.541714
O83	O	0.491469	-0.000053	0.247150
H84	H	0.525815	-0.000041	0.295756
O85	O	1.001051	-0.279566	-0.005173
H86	H	0.969276	-0.307772	-0.041936
H87	H	0.250232	-0.000063	0.225025
O88	O	0.693608	-0.000067	-0.036925
H89	H	0.659264	-0.000067	-0.085533
O90	O	0.752394	-0.000061	-0.262429
H91	H	0.748527	0.040028	-0.297969
O92	O	0.746038	-0.000045	-0.659745
H93	H	0.698730	-0.000031	-0.612675
O94	O	0.748660	-0.000060	-0.495653
H95	H	0.700056	-0.000065	-0.530002
H96	H	0.748761	-0.556242	0.246934
H97	H	0.107012	-0.000072	0.222734
H98	H	0.537526	-0.000083	-0.021154
O99	O	0.132201	-0.000103	-0.045908
H100	H	0.179271	-0.000116	-0.093216
H101	H	1.038988	-0.443885	-0.043096
H102	H	0.987410	-0.159067	0.008469
H103	H	1.038994	-0.556204	-0.043109
O104	O	1.001077	-0.720525	-0.005210
H105	H	1.036926	-0.752455	-0.041044
O106	O	1.039096	-0.000097	-0.300477
H107	H	1.087702	-0.000113	-0.266131
O108	O	1.001087	-0.849229	-0.005219
H109	H	0.992418	-0.897486	0.003436
H110	H	0.800374	-0.841070	0.195406
O111	O	0.735127	-0.435734	0.260556
H112	H	0.699281	-0.467673	0.296387
O113	O	0.786689	-0.279622	0.209059
H114	H	0.750832	-0.247696	0.244891
H115	H	0.800313	-0.159093	0.195452
