data_functionalizedCrystal
_audit_creation_method	'MofGen! by Chris Wilmer'
_symmetry_space_group_name_H-M	'P1'
_symmetry_Int_Tables_number	1
_symmetry_cell_setting	triclinic
loop_
_symmetry_equiv_pos_as_xyz
  x,y,z
_cell_length_a	8.559649
_cell_length_b	7.088929
_cell_length_c	10.654550
_cell_angle_alpha	96.281153
_cell_angle_beta	102.868203
_cell_angle_gamma	95.324331
loop_
_atom_site_label
_atom_site_type_symbol
_atom_site_fract_x
_atom_site_fract_y
_atom_site_fract_z
O1	O	-2.103414	0.158990	-0.028082
O2	O	-1.638928	0.158989	0.036705
O3	O	-1.881850	0.158991	-0.179530
O4	O	-1.860492	0.158988	0.188154
O5	O	-1.914314	-0.158984	-0.208486
O6	O	-1.671391	-0.158986	0.007749
O7	O	-2.135877	-0.158985	-0.057037
Cu8	Cu	-1.906599	-0.188019	-0.027288
Cu9	Cu	-1.868207	0.188023	0.006956
O10	O	-1.892955	-0.158987	0.159198
C11	C	-1.595684	0.000001	0.027137
C12	C	-1.418466	0.000001	0.041751
N13	N	-1.933613	-0.452507	-0.051375
C14	C	-1.179121	0.000003	-0.047469
C15	C	-1.356339	0.000004	-0.062083
C16	C	-1.896513	0.000008	-0.240644
C17	C	-1.891820	0.000021	-0.379601
N18	N	-1.841205	0.452511	0.031032
C19	C	-1.867495	0.173334	-0.559674
C20	C	-1.871919	0.173346	-0.429110
C21	C	-1.907314	-0.173328	-0.460668
C22	C	-1.902902	-0.173337	-0.591232
C23	C	-1.878292	-0.000000	0.220312
C24	C	-1.882984	-0.000001	0.359271
H25	H	-1.438726	0.000015	-0.162160
H26	H	-1.915520	-0.314496	-0.657232
O27	O	-1.856545	0.341802	-0.350392
C28	C	-1.706711	0.447200	-0.345237
H29	H	-1.619438	0.345719	-0.371101
H30	H	-1.724303	0.555225	-0.417445
C31	C	-1.744362	0.678131	-0.175359
C32	C	-1.637166	0.553488	-0.207115
H33	H	-1.701465	0.743703	-0.090162
H34	H	-1.845310	0.607128	-0.178835
H35	H	-1.759012	0.768134	-0.235543
H36	H	-1.622534	0.463474	-0.146942
H37	H	-1.536213	0.624480	-0.203626
O38	O	-1.319961	-0.000078	0.161054
C39	C	-1.159005	-0.000020	0.149588
H40	H	-1.157825	-0.060220	0.046154
H41	H	-1.095342	0.152532	0.172832
C42	C	-1.072228	-0.050773	0.372426
C43	C	-1.070779	-0.124726	0.245389
H44	H	-1.017802	-0.127690	0.431524
H45	H	-1.180666	-0.050805	0.380153
H46	H	-1.019178	0.076352	0.391778
H47	H	-1.123845	-0.251840	0.226034
H48	H	-0.962347	-0.124719	0.237661
H49	H	-1.745435	-0.465844	0.116430
O50	O	-1.926910	-0.341755	-0.412701
C51	C	-2.074560	-0.447258	-0.481752
H52	H	-2.159471	-0.345861	-0.527643
H53	H	-2.051825	-0.555319	-0.561162
C54	C	-2.047565	-0.678042	-0.331554
C55	C	-2.151859	-0.553501	-0.387910
H56	H	-2.095245	-0.743585	-0.273671
H57	H	-1.948087	-0.606967	-0.285035
H58	H	-2.028628	-0.768075	-0.397741
H59	H	-2.170778	-0.463457	-0.321725
H60	H	-2.251342	-0.624564	-0.434416
H61	H	-2.029401	-0.534162	-0.136771
H62	H	-1.851275	0.314476	-0.599970
