data_functionalizedCrystal
_audit_creation_method	'MofGen! by Chris Wilmer'
_symmetry_space_group_name_H-M	'P1'
_symmetry_Int_Tables_number	1
_symmetry_cell_setting	triclinic
loop_
_symmetry_equiv_pos_as_xyz
  x,y,z
_cell_length_a	10.654545
_cell_length_b	10.654550
_cell_length_c	9.730223
_cell_angle_alpha	90.004253
_cell_angle_beta	89.997167
_cell_angle_gamma	95.515995
loop_
_atom_site_label
_atom_site_type_symbol
_atom_site_fract_x
_atom_site_fract_y
_atom_site_fract_z
O1	O	1.667842	-0.176372	-0.114276
O2	O	1.302363	-0.193184	-0.114282
O3	O	1.493506	-0.002038	-0.114270
O4	O	1.476700	-0.367517	-0.114287
O5	O	1.493493	-0.002033	0.114310
O6	O	1.302351	-0.193178	0.114298
O7	O	1.667830	-0.176366	0.114304
Zn8	Zn	1.485088	-0.184771	0.150593
Zn9	Zn	1.485105	-0.184778	-0.150571
O10	O	1.476687	-0.367512	0.114292
C11	C	1.255559	-0.191948	0.000008
C12	C	1.116115	-0.188258	0.000006
C13	C	1.050604	-0.186518	0.124606
C14	C	0.919585	-0.183031	0.124606
C15	C	0.919599	-0.183028	-0.124605
C16	C	1.050617	-0.186507	-0.124603
C17	C	1.714634	-0.177602	0.000012
C18	C	1.854078	-0.181292	0.000005
C19	C	1.492266	0.044762	0.000019
C20	C	1.488574	0.184206	0.000017
C21	C	1.477927	-0.414312	0.000000
C22	C	1.481619	-0.553755	-0.000007
N23	N	1.485086	-0.184766	0.356130
C24	C	1.601115	0.263693	0.000018
C25	C	1.597639	0.394714	0.000002
C26	C	1.369069	0.366747	-0.000012
C27	C	1.372547	0.235729	-0.000005
N28	N	1.485117	-0.184774	-0.356107
C29	C	1.569753	-0.100163	0.428061
C30	C	1.569766	-0.100163	0.571944
C31	C	1.400440	-0.269381	0.571952
C32	C	1.400423	-0.269374	0.428071
H33	H	0.866254	-0.181603	-0.226057
H34	H	1.274604	0.408713	-0.000027
Br35	Br	0.830681	-0.180667	0.293713
H36	H	1.280896	0.171006	-0.000010
H37	H	1.638690	-0.031268	0.369489
Br38	Br	1.750381	0.502586	-0.000005
Br39	Br	1.285500	-0.384190	0.330439
H40	H	1.638708	-0.031270	0.630506
Br41	Br	1.139536	-0.188852	-0.293716
H42	H	1.331511	-0.338269	0.630541
Br43	Br	1.139492	-0.188891	0.293717
Br44	Br	1.758579	0.193772	0.000049
