data_functionalizedCrystal
_audit_creation_method	'MofGen! by Chris Wilmer'
_symmetry_space_group_name_H-M	'P1'
_symmetry_Int_Tables_number	1
_symmetry_cell_setting	triclinic
loop_
_symmetry_equiv_pos_as_xyz
  x,y,z
_cell_length_a	12.759401
_cell_length_b	12.645330
_cell_length_c	12.645324
_cell_angle_alpha	89.966098
_cell_angle_beta	89.980171
_cell_angle_gamma	90.011732
loop_
_atom_site_label
_atom_site_type_symbol
_atom_site_fract_x
_atom_site_fract_y
_atom_site_fract_z
Zn1	Zn	1.606282	-0.421985	-0.599342
Zn2	Zn	1.606179	-0.599294	-0.422075
Zn3	Zn	1.430580	-0.422042	-0.422096
Zn4	Zn	1.430579	-0.599204	-0.599300
O5	O	1.518405	-0.510631	-0.510703
O6	O	1.753289	-0.445519	-0.575836
O7	O	1.582843	-0.575843	-0.273731
O8	O	1.453931	-0.273687	-0.445634
O9	O	1.753214	-0.575787	-0.445599
O10	O	1.583018	-0.273645	-0.575856
O11	O	1.453832	-0.445617	-0.273746
O12	O	1.283559	-0.445529	-0.445594
O13	O	1.453928	-0.575633	-0.747653
O14	O	1.283558	-0.575689	-0.575785
O15	O	1.583016	-0.445431	-0.747684
O16	O	1.582841	-0.747629	-0.445559
O17	O	1.453829	-0.747563	-0.575765
C18	C	1.245437	-0.510606	-0.510688
C19	C	1.128661	-0.510621	-0.510706
C20	C	0.964102	-0.442938	-0.578633
C21	C	1.073826	-0.442917	-0.578626
C22	C	1.073766	-0.578359	-0.442797
C23	C	0.964044	-0.578384	-0.442810
C24	C	1.518352	-0.786061	-0.510678
C25	C	1.518426	-0.903891	-0.510703
C26	C	1.599458	-1.071452	-0.428624
C27	C	1.599721	-0.948892	-0.428825
C28	C	1.548456	-0.948260	-0.622446
C29	C	1.549099	-1.070858	-0.622011
C30	C	1.407333	-1.071220	-0.482140
C31	C	1.407865	-0.948616	-0.479634
C32	C	1.792438	-0.510657	-0.510720
C33	C	1.909215	-0.510668	-0.510727
C34	C	1.518484	-0.510516	-0.787209
C35	C	1.518517	-0.510467	-0.905039
C36	C	1.518486	-0.234126	-0.510752
C37	C	1.518521	-0.116296	-0.510772
C38	C	1.600043	-0.428794	-1.072622
C39	C	1.599781	-0.428499	-0.950062
C40	C	1.407831	-0.480107	-0.949524
C41	C	1.408326	-0.479487	-1.072123
C42	C	1.546779	-0.622619	-1.072231
C43	C	1.549201	-0.622055	-0.949626
C44	C	1.518387	-0.510669	-0.235274
C45	C	1.518557	-0.510420	-0.117444
H46	H	0.919463	-0.387798	-0.633934
H47	H	1.118510	-0.387766	-0.633923
Br48	Br	1.148184	-0.670252	-0.350627
H49	H	0.919354	-0.633544	-0.387512
H50	H	1.682390	-0.447568	-1.102110
H51	H	1.385222	-0.919629	-0.397401
Br52	Br	1.569305	-0.291027	-1.124003
H53	H	1.580933	-0.918899	-0.345969
Br54	Br	1.568542	-1.120728	-0.290115
Br55	Br	1.735986	-1.122664	-0.459830
Br56	Br	1.679008	-0.668637	-1.123774
H57	H	1.682075	-0.919483	-0.447763
Br58	Br	1.306820	-1.119554	-0.581861
Br59	Br	1.684558	-1.118385	-0.662434
Br60	Br	1.453185	-0.899689	-0.727198
H61	H	1.492731	-1.100517	-0.685326
Br62	Br	1.568636	-0.289968	-0.901202
H63	H	1.345545	-0.536353	-1.101772
H64	H	1.628811	-0.917470	-0.647104
Br65	Br	1.361815	-1.122921	-0.348697
Br66	Br	1.301925	-0.897579	-0.572047
H67	H	1.681857	-0.447512	-0.919986
H68	H	1.487434	-0.683439	-1.101225
H69	H	1.494165	-0.686145	-0.918974
H70	H	1.384403	-0.397471	-1.100737
H71	H	1.345464	-0.537733	-0.920359
H72	H	1.383470	-0.399006	-0.918833
H73	H	1.630657	-0.644948	-0.920549
