data_functionalizedCrystal
_audit_creation_method	'MofGen! by Chris Wilmer'
_symmetry_space_group_name_H-M	'P1'
_symmetry_Int_Tables_number	1
_symmetry_cell_setting	triclinic
loop_
_symmetry_equiv_pos_as_xyz
  x,y,z
_cell_length_a	27.732048
_cell_length_b	27.732048
_cell_length_c	26.809956
_cell_angle_alpha	90.000636
_cell_angle_beta	90.003258
_cell_angle_gamma	82.642655
loop_
_atom_site_label
_atom_site_type_symbol
_atom_site_fract_x
_atom_site_fract_y
_atom_site_fract_z
O1	O	-0.640931	-0.057510	-0.041421
O2	O	-0.500138	-0.066256	-0.041436
O3	O	-0.574907	0.008514	-0.041419
O4	O	-0.566162	-0.132280	-0.041439
O5	O	-0.574893	0.008502	0.041541
O6	O	-0.500123	-0.066267	0.041523
O7	O	-0.640917	-0.057522	0.041539
Zn8	Zn	-0.570518	-0.061896	0.054702
Zn9	Zn	-0.570536	-0.061881	-0.054600
O10	O	-0.566147	-0.132291	0.041521
C11	C	-0.574716	0.026515	0.000062
C12	C	-0.574164	0.080170	0.000066
C13	C	-0.482124	-0.066078	0.000041
C14	C	-0.428469	-0.065525	0.000036
C15	C	-0.658931	-0.057699	0.000060
C16	C	-0.712586	-0.058252	0.000062
C17	C	-0.089654	-0.106229	0.000051
C18	C	0.112006	-0.104178	0.000056
O19	O	0.143262	-0.141398	0.000073
N20	N	0.131130	-0.059843	0.000062
C21	C	0.099835	-0.016017	0.000069
O22	O	0.120728	0.021740	0.000079
C23	C	-0.101824	-0.018068	0.000068
C24	C	-0.120944	-0.062407	0.000057
C25	C	-0.108775	-0.150563	0.000042
C26	C	-0.159187	-0.151076	0.000038
C27	C	-0.190477	-0.107253	0.000044
C28	C	-0.171356	-0.062919	0.000054
C29	C	-0.133117	0.025757	0.000079
C30	C	-0.183535	0.025240	0.000080
C31	C	-0.202655	-0.019098	0.000069
C32	C	-0.253059	-0.019609	0.000056
N33	N	-0.272183	-0.063944	0.000050
C34	C	-0.240892	-0.107766	0.000044
C35	C	0.205709	-0.014943	0.000069
C36	C	0.256124	-0.014430	0.000068
C37	C	0.268291	-0.102591	0.000056
C38	C	0.217876	-0.103104	0.000053
C39	C	0.186585	-0.059278	0.000063
C40	C	-0.346761	-0.108839	0.000036
C41	C	-0.397178	-0.109347	0.000030
C42	C	-0.409341	-0.021186	0.000044
C43	C	-0.358929	-0.020678	0.000048
C44	C	-0.327639	-0.064508	0.000045
O45	O	-0.284343	0.017592	0.000045
O46	O	-0.261794	-0.145518	0.000045
C47	C	-0.039242	-0.105716	0.000055
C48	C	-0.020120	-0.061382	0.000065
C49	C	-0.051411	-0.017560	0.000071
C50	C	0.030294	-0.060869	0.000065
C51	C	0.061585	-0.104691	0.000059
C52	C	0.042461	-0.149026	0.000053
C53	C	-0.007951	-0.149539	0.000049
C54	C	-0.032287	0.026775	0.000077
C55	C	0.018125	0.027284	0.000080
C56	C	0.049416	-0.016538	0.000074
C57	C	-0.566338	-0.150292	0.000039
C58	C	-0.566891	-0.203947	0.000031
N59	N	-0.570509	-0.061906	0.129298
C60	C	-0.614867	0.418985	0.000045
C61	C	-0.612816	0.620645	0.000038
O62	O	-0.650037	0.651900	0.000021
N63	N	-0.568481	0.639768	0.000034
C64	C	-0.524656	0.608474	0.000028
O65	O	-0.486899	0.629367	0.000019
C66	C	-0.526707	0.406815	0.000031
C67	C	-0.571045	0.387694	0.000041
C68	C	-0.659202	0.399864	0.000054
C69	C	-0.659714	0.349452	0.000059
C70	C	-0.615892	0.318161	0.000054
C71	C	-0.571557	0.337282	0.000045
C72	C	-0.482882	0.375521	0.000022
C73	C	-0.483399	0.325104	0.000021
C74	C	-0.527737	0.305983	0.000031
C75	C	-0.528247	0.255580	0.000045
N76	N	-0.572583	0.236456	0.000050
C77	C	-0.616405	0.267747	0.000054
C78	C	-0.523582	0.714348	0.000027
C79	C	-0.523069	0.764762	0.000027
C80	C	-0.611230	0.776930	0.000036
C81	C	-0.611742	0.726514	0.000040
C82	C	-0.567917	0.695224	0.000031
C83	C	-0.617477	0.161878	0.000064
C84	C	-0.617986	0.111461	0.000071
C85	C	-0.529825	0.099298	0.000059
C86	C	-0.529316	0.149710	0.000055
C87	C	-0.573147	0.180999	0.000056
O88	O	-0.491047	0.224296	0.000057
O89	O	-0.654156	0.246844	0.000053
C90	C	-0.614355	0.469397	0.000041
C91	C	-0.570021	0.488518	0.000032
C92	C	-0.526198	0.457228	0.000027
C93	C	-0.569508	0.538933	0.000032
C94	C	-0.613330	0.570223	0.000036
C95	C	-0.657665	0.551100	0.000041
C96	C	-0.658177	0.500688	0.000045
C97	C	-0.481863	0.476351	0.000023
C98	C	-0.481355	0.526764	0.000019
C99	C	-0.525177	0.558054	0.000023
N100	N	-0.570549	-0.061867	-0.129196
C101	C	-0.603640	-0.028781	0.473932
C102	C	-0.603652	-0.028774	0.682810
O103	O	-0.631801	-0.000613	0.709820
N104	N	-0.570539	-0.061870	0.708925
C105	C	-0.537419	-0.094969	0.682818
O106	O	-0.509252	-0.123116	0.709824
C107	C	-0.537406	-0.094974	0.473941
C108	C	-0.570524	-0.061878	0.447829
C109	C	-0.636755	0.004312	0.447819
C110	C	-0.636754	0.004308	0.395603
C111	C	-0.603637	-0.028789	0.369500
C112	C	-0.570522	-0.061882	0.395612
C113	C	-0.504284	-0.128070	0.447835
C114	C	-0.504283	-0.128067	0.395613
C115	C	-0.537401	-0.094972	0.369500
C116	C	-0.537405	-0.094983	0.317293
N117	N	-0.570517	-0.061887	0.291177
C118	C	-0.603633	-0.028790	0.317281
C119	C	-0.537429	-0.094965	0.792481
C120	C	-0.537433	-0.094964	0.844700
C121	C	-0.603665	-0.028768	0.844689
C122	C	-0.603663	-0.028772	0.792469
C123	C	-0.570542	-0.061868	0.766366
C124	C	-0.603628	-0.028801	0.207623
C125	C	-0.603625	-0.028809	0.155402
C126	C	-0.537392	-0.095003	0.155418
C127	C	-0.537396	-0.094997	0.207635
C128	C	-0.570516	-0.061892	0.233735
O129	O	-0.509266	-0.123126	0.290250
O130	O	-0.631789	-0.000640	0.290266
C131	C	-0.603642	-0.028777	0.526149
C132	C	-0.570527	-0.061870	0.552261
C133	C	-0.537410	-0.094968	0.526158
C134	C	-0.570531	-0.061870	0.604480
C135	C	-0.603647	-0.028773	0.630584
C136	C	-0.636759	0.004324	0.604468
C137	C	-0.636758	0.004320	0.552252
C138	C	-0.504298	-0.128064	0.552273
C139	C	-0.504303	-0.128058	0.604489
C140	C	-0.537419	-0.094961	0.630593
H141	H	-0.412743	-0.145454	0.000021
H142	H	-0.446777	0.391080	0.000011
H143	H	-0.447710	0.299629	0.000014
N144	N	-0.468583	-0.163766	0.524120
H145	H	-0.447317	-0.145447	0.502454
H146	H	-0.447642	-0.184722	0.548620
H147	H	0.202311	-0.139207	0.000047
N148	N	-0.481496	0.170337	0.000051
H149	H	-0.453813	0.142863	0.000051
H150	H	-0.479369	0.190984	-0.030707
N151	N	-0.217283	0.072510	0.000094
H152	H	-0.197517	0.100672	0.000101
H153	H	-0.238467	0.074226	-0.030660
N154	N	-0.665811	0.090841	0.000083
H155	H	-0.684998	0.102273	-0.030668
H156	H	-0.659450	0.054158	0.000106
N157	N	-0.704931	0.584854	0.000050
H158	H	-0.697874	0.619691	0.000047
H159	H	-0.724276	0.578701	-0.030701
H160	H	-0.653168	0.187348	0.000063
N161	N	-0.482561	0.065544	0.000067
H162	H	-0.489618	0.030706	0.000073
H163	H	-0.463222	0.071690	-0.030687
H164	H	0.293777	-0.138273	0.000051
H165	H	-0.023514	-0.185643	0.000042
N166	N	0.076215	-0.196293	0.000044
H167	H	0.111052	-0.189235	0.000047
H168	H	0.070064	-0.215636	0.030795
N169	N	-0.707536	0.328832	0.000068
H170	H	-0.735215	0.356310	0.000069
H171	H	-0.709676	0.308181	-0.030686
N172	N	-0.658497	0.810682	0.000036
H173	H	-0.677857	0.804574	0.030789
H174	H	-0.651401	0.845506	0.000015
N175	N	0.038748	0.075108	0.000091
H176	H	0.027313	0.094297	-0.030657
H177	H	0.027306	0.094241	0.030869
N178	N	-0.313018	-0.156111	0.000045
H179	H	-0.332788	-0.184271	0.000041
H180	H	-0.291831	-0.157824	-0.030705
N181	N	-0.066033	0.074043	0.000087
H182	H	-0.046264	0.102203	0.000092
H183	H	-0.087216	0.075758	-0.030668
N184	N	0.171963	0.032329	0.000082
H185	H	0.191733	0.060489	0.000085
H186	H	0.150777	0.034045	-0.030671
H187	H	-0.510433	-0.121951	0.228896
H188	H	-0.694889	0.425336	0.000056
H189	H	-0.510430	-0.121952	0.134157
N190	N	-0.433530	0.547384	0.000017
H191	H	-0.405849	0.519907	0.000015
H192	H	-0.431399	0.568033	-0.030739
N193	N	-0.705999	0.480068	0.000057
H194	H	-0.733679	0.507546	0.000059
H195	H	-0.708141	0.459416	-0.030696
H196	H	-0.477310	-0.155018	0.374362
H197	H	-0.647846	0.710950	0.000047
H198	H	-0.174750	-0.187180	0.000029
N199	N	-0.476308	0.680606	0.000023
H200	H	-0.474548	0.659418	0.030776
H201	H	-0.474582	0.659449	-0.030750
N202	N	-0.468579	-0.163755	0.632651
H203	H	-0.447599	-0.184718	0.608186
H204	H	-0.447351	-0.145388	0.654313
N205	N	-0.475247	0.785383	0.000030
H206	H	-0.447566	0.757906	0.000027
H207	H	-0.473115	0.806035	-0.030723
H208	H	-0.663725	0.031269	0.530995
H209	H	0.271687	0.021674	0.000069
N210	N	-0.672481	0.040020	0.632628
H211	H	-0.667453	0.034996	0.669670
H212	H	-0.667155	0.074274	0.623502
H213	H	-0.117558	0.061861	0.000088
N214	N	-0.075030	-0.197833	0.000063
H215	H	-0.094801	-0.225992	0.000067
H216	H	-0.053838	-0.199557	-0.030683
N217	N	-0.338302	0.027142	0.000049
H218	H	-0.365776	0.054825	0.000050
H219	H	-0.317651	0.029272	0.030807
N220	N	-0.639378	0.006935	0.764314
H221	H	-0.621065	0.028212	0.742655
H222	H	-0.660636	-0.011416	0.742671
H223	H	-0.663722	0.031266	0.469068
H224	H	-0.434827	0.014492	0.000047
N225	N	-0.434595	0.442606	0.000018
H226	H	-0.406435	0.462375	0.000014
H227	H	-0.432881	0.421426	0.030774
N228	N	-0.639348	0.006887	0.127237
H229	H	-0.660325	0.027854	0.151701
H230	H	-0.621004	0.028129	0.105571
N231	N	-0.501716	-0.130663	0.872862
H232	H	-0.480737	-0.151626	0.848397
H233	H	-0.480488	-0.112300	0.894528
N234	N	-0.501710	-0.130668	0.764328
H235	H	-0.480442	-0.112347	0.742665
H236	H	-0.480770	-0.151625	0.788829
N237	N	-0.639352	0.006901	0.235770
H238	H	-0.660329	0.027861	0.211298
H239	H	-0.660583	-0.011460	0.257432
H240	H	-0.663720	0.031258	0.374345
N241	N	-0.639386	0.006929	0.872847
H242	H	-0.621076	0.028203	0.894515
H243	H	-0.660354	0.027864	0.848350
N244	N	-0.468555	-0.163759	0.475990
H245	H	-0.473854	-0.198032	0.466900
H246	H	-0.434313	-0.158372	0.466884
