data_functionalizedCrystal
_audit_creation_method	'MofGen! by Chris Wilmer'
_symmetry_space_group_name_H-M	'P1'
_symmetry_Int_Tables_number	1
_symmetry_cell_setting	triclinic
loop_
_symmetry_equiv_pos_as_xyz
  x,y,z
_cell_length_a	16.109318
_cell_length_b	16.109301
_cell_length_c	13.448316
_cell_angle_alpha	89.991973
_cell_angle_beta	89.996821
_cell_angle_gamma	83.465022
loop_
_atom_site_label
_atom_site_type_symbol
_atom_site_fract_x
_atom_site_fract_y
_atom_site_fract_z
O1	O	1.103125	0.106938	-0.082612
O2	O	0.861065	0.120222	-0.082633
O3	O	0.988745	-0.007451	-0.082612
O4	O	0.975446	0.234610	-0.082633
O5	O	0.988729	-0.007459	0.082772
O6	O	0.861049	0.120214	0.082751
O7	O	1.103109	0.106930	0.082772
Cu8	Cu	0.982078	0.113571	0.097862
Cu9	Cu	0.982097	0.113581	-0.097723
O10	O	0.975430	0.234603	0.082751
C11	C	0.830083	0.119677	0.000057
C12	C	0.737788	0.118057	0.000049
C13	C	0.438723	0.112826	-0.090084
C14	C	0.525444	0.114343	-0.090090
C15	C	0.525446	0.114323	0.090221
C16	C	0.438727	0.112800	0.090226
C17	C	0.395367	0.112056	0.000071
C18	C	0.568807	0.115096	0.000059
C19	C	0.662835	0.116742	0.000053
C20	C	0.301334	0.110409	0.000076
C21	C	0.988198	-0.038430	0.000080
C22	C	0.986583	-0.130725	0.000082
C23	C	1.058590	-0.352993	0.000072
C24	C	1.057066	-0.439713	0.000064
C25	C	0.905579	-0.419848	0.000055
C26	C	0.907104	-0.333130	0.000056
C27	C	0.983612	-0.299704	0.000070
C28	C	0.980563	-0.473144	0.000060
C29	C	0.978910	-0.567170	0.000051
C30	C	0.985265	-0.205672	0.000077
C31	C	1.134092	0.107474	0.000080
C32	C	1.226387	0.109095	0.000081
C33	C	0.975976	0.265581	0.000056
C34	C	0.977592	0.357877	0.000048
N35	N	0.982071	0.113564	0.235426
N36	N	0.982111	0.113581	-0.235288
C37	C	1.038625	0.057054	0.287476
C38	C	1.038630	0.057053	0.391579
C39	C	0.982084	0.113567	0.443631
C40	C	0.925524	0.170080	0.391574
C41	C	0.925516	0.170076	0.287473
C42	C	0.925547	0.170086	0.608554
C43	C	0.925557	0.170091	0.712663
C44	C	1.038661	0.057063	0.712661
C45	C	1.038653	0.057059	0.608559
C46	C	0.982094	0.113573	0.556510
H47	H	1.120888	-0.325781	0.000081
H48	H	0.846043	-0.289740	0.000051
H49	H	0.560760	0.114931	0.163622
H50	H	1.084680	0.011038	0.433958
C51	C	0.863337	0.232254	0.551301
H52	H	0.829668	0.265919	0.597209
H53	H	0.828735	0.202336	0.510701
H54	H	0.893238	0.266875	0.510682
H55	H	1.118121	-0.483098	0.000064
C56	C	1.100825	-0.005114	0.230228
H57	H	1.134501	-0.038774	0.276141
H58	H	1.135420	0.024803	0.189603
H59	H	1.070920	-0.039739	0.189635
H60	H	0.843288	-0.447074	0.000046
H61	H	0.403423	0.112219	-0.163494
C62	C	1.100851	-0.005106	0.551304
H63	H	1.134531	-0.038768	0.597210
H64	H	1.135442	0.024814	0.510678
H65	H	1.070944	-0.039729	0.510711
C66	C	0.391032	0.111955	0.189400
H67	H	0.429272	0.112629	0.243093
H68	H	0.363555	0.062907	0.193150
H69	H	0.350850	0.159821	0.193145
H70	H	1.084714	0.011047	0.755046
C71	C	0.863310	0.232241	0.230218
H72	H	0.829639	0.265905	0.276126
H73	H	0.828710	0.202319	0.189621
H74	H	0.893207	0.266863	0.189596
H75	H	0.879511	0.216110	0.755038
H76	H	0.560741	0.114969	-0.163503
H77	H	0.879480	0.216093	0.433961
