data_functionalizedCrystal
_audit_creation_method	'MofGen! by Chris Wilmer'
_symmetry_space_group_name_H-M	'P1'
_symmetry_Int_Tables_number	1
_symmetry_cell_setting	triclinic
loop_
_symmetry_equiv_pos_as_xyz
  x,y,z
_cell_length_a	23.096457
_cell_length_b	23.096457
_cell_length_c	14.628931
_cell_angle_alpha	60.000191
_cell_angle_beta	90.000119
_cell_angle_gamma	60.005779
loop_
_atom_site_label
_atom_site_type_symbol
_atom_site_fract_x
_atom_site_fract_y
_atom_site_fract_z
Zr1	Zr	0.557822	0.633730	-0.119941
O2	O	0.465387	0.754507	-0.265892
O3	O	0.586150	0.512949	-0.075204
O4	O	0.586162	0.633730	-0.265902
O5	O	0.465374	0.633726	0.075238
O6	O	0.681441	0.633734	-0.265905
O7	O	0.465375	0.633726	-0.075194
O8	O	0.681419	0.417678	0.075220
O9	O	0.465396	0.849782	-0.265887
O10	O	0.669347	0.562632	-0.056120
O11	O	0.598241	0.562629	0.056147
O12	O	0.598256	0.704833	-0.168376
O13	O	0.527150	0.704831	-0.056108
Zr14	Zr	0.709781	0.633736	0.119976
Zr15	Zr	0.709781	0.633736	-0.119945
Zr16	Zr	0.557822	0.633730	0.119980
Zr17	Zr	0.557837	0.785682	-0.119932
Zr18	Zr	0.709766	0.481784	0.119968
O19	O	0.681453	0.754517	0.075239
O20	O	0.681454	0.754516	-0.265898
O21	O	0.465386	0.754508	0.075245
O22	O	0.802216	0.512958	0.265927
O23	O	0.802217	0.512958	-0.075210
O24	O	0.586150	0.512950	0.265933
O25	O	0.802229	0.633739	-0.075203
O26	O	0.681441	0.633735	0.265937
O27	O	0.586162	0.633731	0.265940
O28	O	0.802229	0.633740	0.075229
O29	O	0.586184	0.849787	-0.265890
O30	O	0.681419	0.417679	0.265925
O31	O	0.802207	0.417684	0.265922
O32	O	0.802207	0.417683	0.075217
O33	O	0.465396	0.849782	-0.075181
O34	O	0.586184	0.849787	-0.075185
O35	O	0.669347	0.562632	0.168411
O36	O	0.740453	0.562635	0.056143
O37	O	0.669362	0.704837	-0.056112
O38	O	0.598256	0.704834	0.056155
C39	C	0.633783	0.443664	0.000007
C40	C	0.633776	0.379156	0.000003
C41	C	0.686267	0.296373	0.082868
C42	C	0.686272	0.235751	0.082879
C43	C	0.633791	0.257918	0.000007
C44	C	0.581291	0.340715	-0.082865
C45	C	0.581284	0.401334	-0.082867
N46	N	0.617913	0.201807	-0.098268
N47	N	0.617924	0.144218	-0.098262
C48	C	0.633810	0.075279	0.000009
N49	N	0.649697	0.066096	0.098279
N50	N	0.649689	0.123689	0.098273
C51	C	0.633793	0.192192	0.000000
C52	C	0.686309	-0.073241	0.082892
C53	C	0.686309	-0.133862	0.082904
C54	C	0.581331	-0.028895	-0.082850
C55	C	0.581328	0.031723	-0.082852
C56	C	0.633821	0.009545	0.000018
C57	C	0.443723	0.633725	0.000023
C58	C	0.379213	0.633723	0.000025
C59	C	-0.044200	0.559515	0.058617
C60	C	0.016418	0.559511	0.058614
C61	C	0.009623	0.633738	0.000019
C62	C	-0.057799	0.707975	-0.058600
C63	C	-0.118415	0.707978	-0.058605
N64	N	0.077174	0.688986	0.008157
N65	N	0.134760	0.688979	0.008167
C66	C	0.192254	0.633734	0.000027
N67	N	0.189993	0.578485	-0.008102
N68	N	0.132403	0.578490	-0.008106
C69	C	0.075347	0.633743	0.000017
C70	C	0.325395	0.559497	0.058633
C71	C	0.386013	0.559495	0.058622
C72	C	0.311794	0.707961	-0.058585
C73	C	0.251178	0.707961	-0.058581
C74	C	0.257983	0.633726	0.000034
C75	C	0.823880	0.633740	0.000012
C76	C	0.888391	0.633743	0.000010
C77	C	0.633802	0.633732	-0.300087
C78	C	0.633802	0.633732	-0.401940
C79	C	0.633821	0.823802	0.000028
C80	C	0.633827	0.888309	0.000032
C81	C	0.598536	0.704274	-0.503036
C82	C	0.598535	0.704275	-0.608307
C83	C	0.633801	0.633733	0.300122
C84	C	0.633801	0.633734	0.401975
C85	C	0.823861	0.443671	0.000002
C86	C	0.888365	0.379166	-0.000004
C87	C	0.633782	0.443664	0.300112
C88	C	0.633776	0.379157	0.401961
C89	C	0.823860	0.443672	0.300106
C90	C	0.888365	0.379167	0.401954
C91	C	0.443743	0.823794	-0.300071
C92	C	0.379239	0.888299	-0.401919
C93	C	0.443743	0.823794	0.000034
C94	C	0.379238	0.888299	0.000039
C95	C	0.633821	0.823801	-0.300077
C96	C	0.633828	0.888309	-0.401926
C97	C	0.881540	0.348872	-0.058617
C98	C	0.942143	0.288271	-0.058644
C99	C	1.009570	0.257961	-0.000052
C100	C	1.016393	0.288261	0.058563
C101	C	0.955791	0.348865	0.058583
C102	C	0.670889	0.348865	0.508401
C103	C	0.670880	0.288262	0.604108
C104	C	0.633762	0.257947	0.593373
C105	C	0.596644	0.288245	0.486922
C106	C	0.596649	0.348851	0.391217
C107	C	0.955779	0.348876	0.391180
C108	C	1.016394	0.288275	0.486867
C109	C	1.009592	0.257962	0.593327
C110	C	0.942170	0.288259	0.604099
C111	C	0.881557	0.348863	0.508413
C112	C	0.311824	0.918597	-0.391145
C113	C	0.251209	0.979216	-0.486832
C114	C	0.258011	1.009533	-0.593292
C115	C	0.325433	0.979232	-0.604064
C116	C	0.386046	0.918618	-0.508378
C117	C	0.386063	0.918600	0.058642
C118	C	0.325460	0.979217	0.058643
C119	C	0.258033	1.009530	0.000047
C120	C	0.251210	0.979227	-0.058563
C121	C	0.311812	0.918614	-0.058570
C122	C	0.670953	0.918604	-0.391155
C123	C	0.670973	0.979207	-0.486844
C124	C	0.633863	1.009519	-0.593303
C125	C	0.596736	0.979218	-0.604071
C126	C	0.596721	0.918611	-0.508384
H127	H	0.729048	-0.091300	0.150376
H128	H	1.071286	0.263614	0.478077
C129	C	-0.065272	0.789625	-0.123054
N130	N	-0.070903	0.851126	-0.171605
H131	H	0.538561	0.358759	-0.150339
H132	H	0.663996	0.573340	-0.393324
C133	C	0.557745	0.785867	-0.725470
N134	N	0.527021	0.847325	-0.813721
H135	H	0.306272	0.893917	-0.304468
C136	C	0.332904	1.012581	-0.721181
N137	N	0.338528	1.037696	-0.809396
C138	C	0.460201	0.885286	-0.520248
N139	N	0.516054	0.860183	-0.529197
H140	H	0.440960	0.893924	0.106365
H141	H	0.331029	1.003880	0.106375
H142	H	-0.173304	0.768424	-0.106331
H143	H	0.826644	0.373550	-0.106344
H144	H	0.208693	1.058884	0.000062
C145	C	0.177034	1.012568	-0.122997
N146	N	0.121162	1.037676	-0.171517
H147	H	0.566485	0.893952	-0.517169
H148	H	0.936574	0.263609	-0.106375
C149	C	1.076228	0.191289	-0.000076
N150	N	1.126432	0.141069	-0.000095
C151	C	0.304293	0.885281	-0.123027
N152	N	0.298624	0.860177	-0.171578
H153	H	0.701173	0.893934	-0.304479
H154	H	0.729052	-0.201271	0.150389
H155	H	0.826667	0.373518	0.517201
H156	H	0.701205	1.003872	-0.478054
C157	C	0.177052	1.012535	-0.474958
N158	N	0.121199	1.037628	-0.466011
H159	H	0.208651	1.058888	-0.671197
C160	C	0.674632	0.552138	-0.480866
N161	N	0.705401	0.490681	-0.392614
C162	C	1.090569	0.254905	0.123020
N163	N	1.146441	0.229774	0.171576
H164	H	0.566522	1.003907	-0.690763
C165	C	-0.036710	0.477855	0.123071
N166	N	-0.031068	0.416347	0.171611
C167	C	0.460168	0.477834	0.123094
N168	N	0.516023	0.416326	0.171657
C169	C	0.744006	0.271972	0.174035
N170	N	0.787495	0.253593	0.242704
C171	C	0.633886	1.076190	-0.698552
N172	N	0.633904	1.126408	-0.777822
H173	H	0.961358	0.373523	0.106320
H174	H	0.330936	0.499050	0.106356
C175	C	0.523601	-0.004508	-0.174010
N176	N	0.480116	0.013860	-0.242672
H177	H	0.729017	0.168337	0.150361
H178	H	0.538536	0.468743	-0.150345
C179	C	0.711721	0.382204	0.520237
N180	N	0.742473	0.407316	0.529161
C181	C	0.090579	0.477851	0.123096
N182	N	0.146436	0.416345	0.171668
C183	C	0.523590	0.122790	-0.174022
N184	N	0.480099	0.191385	-0.242695
H185	H	0.568347	0.764666	-0.511652
C186	C	0.711722	0.254938	0.721194
N187	N	0.742487	0.229838	0.809380
C188	C	0.555820	0.254886	0.475132
N189	N	0.525075	0.229754	0.466256
C190	C	0.177023	0.789618	-0.123045
N191	N	0.121168	0.851126	-0.171603
H192	H	0.936642	0.263569	0.690792
H193	H	0.633763	0.208598	0.671311
C194	C	1.076275	0.191290	0.698575
N195	N	1.126504	0.141069	0.777844
H196	H	0.566429	0.373507	0.304553
H197	H	0.961331	0.373548	0.304503
H198	H	0.306260	0.768398	-0.106299
