data_functionalizedCrystal
_audit_creation_method	'MofGen! by Chris Wilmer'
_symmetry_space_group_name_H-M	'P1'
_symmetry_Int_Tables_number	1
_symmetry_cell_setting	triclinic
loop_
_symmetry_equiv_pos_as_xyz
  x,y,z
_cell_length_a	10.686285
_cell_length_b	19.805407
_cell_length_c	19.805399
_cell_angle_alpha	89.982197
_cell_angle_beta	85.610534
_cell_angle_gamma	85.628966
loop_
_atom_site_label
_atom_site_type_symbol
_atom_site_fract_x
_atom_site_fract_y
_atom_site_fract_z
Zn1	Zn	-0.502467	1.055504	-0.362074
Zn2	Zn	-0.713478	1.064140	-0.240229
Zn3	Zn	-0.502491	0.942319	-0.248901
Zn4	Zn	-0.713401	0.951000	-0.353382
O5	O	-0.607959	1.003241	-0.301147
O6	O	-0.530479	1.151367	-0.345919
O7	O	-0.685533	1.047962	-0.146661
O8	O	-0.325913	0.950086	-0.271180
O9	O	-0.685509	1.157712	-0.256400
O10	O	-0.325894	1.033242	-0.354328
O11	O	-0.530522	0.958461	-0.153032
O12	O	-0.530447	0.848753	-0.262753
O13	O	-0.685378	0.964881	-0.449254
O14	O	-0.685402	0.855131	-0.339515
O15	O	-0.530405	1.041660	-0.455639
O16	O	-0.890043	1.056379	-0.247972
O17	O	-0.889987	0.973256	-0.331106
C18	C	-0.607920	0.827383	-0.301132
C19	C	-0.607933	0.752152	-0.301140
C20	C	-0.527352	0.713510	-0.347813
C21	C	-0.527359	0.642822	-0.347815
C22	C	-0.607954	0.610777	-0.301148
C23	C	-0.688538	0.649424	-0.254470
C24	C	-0.688524	0.720110	-0.254465
C25	C	-0.688595	0.364353	-0.254489
C26	C	-0.688605	0.293661	-0.254498
C27	C	-0.527430	0.287065	-0.347839
C28	C	-0.527416	0.357751	-0.347834
C29	C	-0.607995	0.396391	-0.301154
C30	C	-0.607985	0.473039	-0.301151
C31	C	-0.607971	0.534131	-0.301153
C32	C	-0.935799	1.016715	-0.287670
C33	C	-1.076050	1.022541	-0.281927
C34	C	-0.278839	0.989732	-0.314691
C35	C	-0.138588	0.983976	-0.320463
C36	C	-0.607880	1.003276	-0.477693
C37	C	-0.607846	1.003290	-0.552926
C38	C	-0.608000	1.179785	-0.301162
C39	C	-0.608017	1.255018	-0.301168
C40	C	-0.527148	1.043270	-0.591597
C41	C	-0.527111	1.043275	-0.662287
C42	C	-0.607780	1.003304	-0.694304
C43	C	-0.688482	0.963321	-0.655629
C44	C	-0.688511	0.963312	-0.584941
C45	C	-0.688364	0.963354	-0.940707
C46	C	-0.688331	0.963367	-1.011401
C47	C	-0.526964	1.043317	-1.018053
C48	C	-0.526993	1.043308	-0.947365
C49	C	-0.607690	1.003322	-0.908696
C50	C	-0.607727	1.003316	-0.832046
C51	C	-0.607750	1.003314	-0.770953
C52	C	-0.607947	1.003242	-0.125291
C53	C	-0.607626	1.003343	-0.050073
H54	H	-0.461726	0.739596	-0.385817
C55	C	-0.847831	0.884319	-0.997729
C56	C	-0.777000	0.919422	-1.046597
H57	H	-0.902561	0.857189	-1.019460
H58	H	-0.896122	0.915782	-0.968176
H59	H	-0.792842	0.856171	-0.972417
H60	H	-0.831989	0.947574	-1.071906
H61	H	-0.728705	0.887956	-1.076161
C62	C	-1.097900	0.867675	-0.354980
C63	C	-1.066030	0.933389	-0.370941
H64	H	-1.053093	0.836445	-0.386142
H65	H	-1.185783	0.865087	-0.357613
H66	H	-1.076417	0.856922	-0.310363
H67	H	-1.087521	0.944144	-0.415556
H68	H	-0.978128	0.935979	-0.368315
C69	C	-0.858136	0.960888	-0.854235
C70	C	-0.777073	0.919401	-0.898214
H71	H	-0.912899	0.933749	-0.828000
H72	H	-0.906391	0.992360	-0.879827
H73	H	-0.810091	0.984682	-0.825045
H74	H	-0.825118	0.895610	-0.927408
H75	H	-0.728814	0.887917	-0.872620
H76	H	-0.754154	0.623327	-0.216470
H77	H	-0.461813	0.255595	-0.385845
H78	H	-0.461791	0.383839	-0.385837
H79	H	-0.754211	0.930749	-0.553456
H80	H	-0.754159	0.930773	-0.681704
C81	C	-1.278168	1.069341	-0.235368
C82	C	-1.148614	1.073157	-0.231473
H83	H	-1.322963	1.100599	-0.204231
H84	H	-1.299796	1.024771	-0.224518
H85	H	-1.299608	1.080076	-0.279997
H86	H	-1.127173	1.062417	-0.186846
H87	H	-1.126978	1.117737	-0.242319
C88	C	-0.705916	0.214833	-0.162738
C89	C	-0.777195	0.258433	-0.203196
H90	H	-0.760608	0.193082	-0.131072
H91	H	-0.650882	0.240132	-0.139157
H92	H	-0.657933	0.181709	-0.190548
H93	H	-0.825171	0.291561	-0.175386
H94	H	-0.832251	0.233133	-0.226779
C95	C	-0.368051	0.643402	-0.440085
C96	C	-0.438785	0.600347	-0.399121
H97	H	-0.313372	0.617179	-0.471762
H98	H	-0.319710	0.668971	-0.412625
H99	H	-0.423105	0.673248	-0.463659
H100	H	-0.383731	0.570504	-0.375543
H101	H	-0.487130	0.574767	-0.426585
C102	C	-0.847919	0.363763	-0.162227
C103	C	-0.777173	0.406820	-0.203183
H104	H	-0.902610	0.389985	-0.130555
H105	H	-0.792883	0.333917	-0.138654
H106	H	-0.896260	0.338195	-0.189699
H107	H	-0.728825	0.432385	-0.175711
H108	H	-0.832216	0.436678	-0.226757
H109	H	-0.754141	0.751572	-0.216459
H110	H	-0.461461	1.075821	-0.565533
C111	C	-0.367626	1.122314	-0.661761
C112	C	-0.438413	1.087227	-0.704793
H113	H	-0.312872	1.149452	-0.688004
H114	H	-0.319361	1.090842	-0.636174
H115	H	-0.422641	1.150453	-0.631930
H116	H	-0.383398	1.059083	-0.734621
H117	H	-0.486681	1.118702	-0.730392
C118	C	-0.367468	1.122333	-0.961043
C119	C	-0.438315	1.087243	-0.912172
H120	H	-0.312714	1.149451	-0.939316
H121	H	-0.422437	1.150485	-0.986353
H122	H	-0.319190	1.090858	-0.990599
H123	H	-0.486601	1.118718	-0.882619
H124	H	-0.383340	1.059088	-0.886851
C125	C	-0.455237	1.078829	-1.129369
C126	C	-0.438243	1.087263	-1.060561
H127	H	-0.400460	1.105956	-1.155609
H128	H	-0.540003	1.092216	-1.137466
H129	H	-0.436750	1.032592	-1.141699
H130	H	-0.456738	1.133499	-1.048231
H131	H	-0.353457	1.073879	-1.052461
