data_functionalizedCrystal
_audit_creation_method	'MofGen! by Chris Wilmer'
_symmetry_space_group_name_H-M	'P1'
_symmetry_Int_Tables_number	1
_symmetry_cell_setting	triclinic
loop_
_symmetry_equiv_pos_as_xyz
  x,y,z
_cell_length_a	21.395362
_cell_length_b	13.897447
_cell_length_c	21.395356
_cell_angle_alpha	89.976474
_cell_angle_beta	89.957023
_cell_angle_gamma	90.035409
loop_
_atom_site_label
_atom_site_type_symbol
_atom_site_fract_x
_atom_site_fract_y
_atom_site_fract_z
Zn1	Zn	0.957902	-0.383630	-0.354604
Zn2	Zn	1.457902	0.116370	0.145396
Zn3	Zn	0.957827	-0.544936	-0.249834
Zn4	Zn	1.457827	-0.044936	0.250166
Zn5	Zn	0.853119	-0.383701	-0.249805
Zn6	Zn	1.353119	0.116299	0.250195
Zn7	Zn	0.853107	-0.544930	-0.354539
Zn8	Zn	1.353107	-0.044930	0.145461
O9	O	0.905489	-0.464299	-0.302195
O10	O	1.405489	0.035701	0.197805
O11	O	1.045570	-0.405001	-0.340745
O12	O	1.545570	0.094999	0.159255
O13	O	0.943911	-0.523580	-0.162152
O14	O	1.443911	-0.023580	0.337848
O15	O	0.867055	-0.248710	-0.263722
O16	O	1.367055	0.251290	0.236278
O17	O	1.045515	-0.523511	-0.263771
O18	O	1.545515	-0.023511	0.236229
O19	O	0.944039	-0.248658	-0.340717
O20	O	1.444039	0.251342	0.159283
O21	O	0.866982	-0.405121	-0.162131
O22	O	1.366982	0.094879	0.337869
O23	O	0.765439	-0.405116	-0.263659
O24	O	1.265439	0.094884	0.236341
O25	O	0.867035	-0.523501	-0.442225
O26	O	1.367035	-0.023501	0.057775
O27	O	0.765430	-0.523570	-0.340606
O28	O	1.265430	-0.023570	0.159394
O29	O	0.944027	-0.404995	-0.442273
O30	O	1.444027	0.095005	0.057727
O31	O	0.943899	-0.679917	-0.263708
O32	O	1.443899	-0.179917	0.236292
O33	O	0.866962	-0.679912	-0.340634
O34	O	1.366962	-0.179912	0.159366
C35	C	0.742701	-0.464350	-0.302123
C36	C	1.242701	0.035650	0.197877
C37	C	0.673060	-0.464395	-0.302106
C38	C	1.173060	0.035605	0.197894
C39	C	0.640358	-0.526156	-0.342113
C40	C	1.140358	-0.026156	0.157887
C41	C	0.574923	-0.526133	-0.342141
C42	C	1.074923	-0.026133	0.157859
C43	C	0.542191	-0.464358	-0.302151
C44	C	1.042191	0.035642	0.197849
C45	C	0.574901	-0.402585	-0.262142
C46	C	1.074901	0.097415	0.237858
C47	C	0.640335	-0.402604	-0.262119
C48	C	1.140335	0.097396	0.237881
C49	C	0.438467	-0.456601	-0.245745
C50	C	0.938467	0.043399	0.254255
C51	C	0.373034	-0.456590	-0.245767
C52	C	0.873034	0.043410	0.254233
C53	C	0.340371	-0.464295	-0.302220
C54	C	0.840371	0.035705	0.197780
C55	C	0.373149	-0.472033	-0.358654
C56	C	0.873149	0.027967	0.141346
C57	C	0.438583	-0.472052	-0.358632
C58	C	0.938583	0.027948	0.141368
C59	C	0.471239	-0.464331	-0.302171
C60	C	0.971239	0.035669	0.197829
C61	C	0.236717	-0.526034	-0.342260
C62	C	0.736717	-0.026034	0.157740
C63	C	0.171280	-0.526003	-0.342289
C64	C	0.671280	-0.026003	0.157711
C65	C	0.171259	-0.402461	-0.262285
C66	C	0.671259	0.097539	0.237715
C67	C	0.236695	-0.402487	-0.262261
C68	C	0.736695	0.097513	0.237739
C69	C	0.269419	-0.464278	-0.302248
C70	C	0.769419	0.035722	0.197752
C71	C	0.905438	-0.714914	-0.302181
C72	C	1.405438	-0.214914	0.197819
C73	C	0.905473	-0.822128	-0.302196
C74	C	1.405473	-0.322128	0.197804
C75	C	0.905504	-0.909197	-0.302210
C76	C	1.405504	-0.409197	0.197790
C77	C	0.905548	-1.018430	-0.302226
C78	C	1.405548	-0.518430	0.197774
C79	C	1.068912	-0.464249	-0.302269
C80	C	1.568912	0.035751	0.197731
C81	C	1.138553	-0.464227	-0.302300
C82	C	1.638553	0.035773	0.197700
C83	C	0.905538	-0.464240	-0.465619
C84	C	1.405538	0.035760	0.034381
C85	C	0.905559	-0.464214	-0.535260
C86	C	1.405559	0.035786	-0.035260
C87	C	0.905557	-0.212706	-0.302224
C88	C	1.405557	0.287294	0.197776
C89	C	0.905586	-0.105492	-0.302236
C90	C	1.405586	0.394508	0.197764
C91	C	0.865513	-0.402526	-0.567952
C92	C	1.365513	0.097474	-0.067952
C93	C	0.865511	-0.402508	-0.633388
C94	C	1.365511	0.097492	-0.133388
C95	C	0.905566	-0.464168	-0.666128
C96	C	1.405566	0.035832	-0.166128
C97	C	0.945615	-0.525868	-0.633428
C98	C	1.445615	-0.025868	-0.133428
C99	C	0.945611	-0.525891	-0.567994
C100	C	1.445611	-0.025891	-0.067994
C101	C	0.962019	-0.471728	-0.769834
C102	C	1.462019	0.028272	-0.269834
C103	C	0.962023	-0.471698	-0.835267
C104	C	1.462023	0.028302	-0.335267
C105	C	0.905576	-0.464103	-0.867949
C106	C	1.405576	0.035897	-0.367949
C107	C	0.849123	-0.456518	-0.835190
C108	C	1.349123	0.043482	-0.335190
C109	C	0.849119	-0.456541	-0.769756
C110	C	1.349119	0.043459	-0.269756
C111	C	0.905574	-0.464151	-0.737081
C112	C	1.405574	0.035849	-0.237081
C113	C	0.865525	-0.402392	-0.971594
C114	C	1.365525	0.097608	-0.471594
C115	C	0.865521	-0.402381	-1.037031
C116	C	1.365521	0.097619	-0.537031
C117	C	0.945631	-0.525736	-1.037070
C118	C	1.445631	-0.025736	-0.537070
C119	C	0.945628	-0.525753	-0.971635
C120	C	1.445628	-0.025753	-0.471635
C121	C	0.905576	-0.464075	-0.938901
C122	C	1.405576	0.035925	-0.438901
C123	C	0.905476	-0.464289	-0.139408
C124	C	1.405476	0.035711	0.360592
C125	C	0.905576	-0.464043	-0.069767
C126	C	1.405576	0.035957	0.430233
H127	H	0.263363	-0.576343	-0.374823
H128	H	0.763363	-0.076343	0.125177
H129	H	0.832911	-0.352172	-0.944940
H130	H	1.332911	0.147828	-0.444940
H131	H	0.832907	-0.352150	-1.063648
H132	H	1.332907	0.147850	-0.563648
N133	N	0.988809	-0.592430	-0.532733
N134	N	1.488809	-0.092430	-0.032733
H135	H	1.033580	-0.577431	-0.544156
H136	H	1.533580	-0.077431	-0.044156
H137	H	0.982678	-0.583057	-0.486325
H138	H	1.482678	-0.083057	0.013675
N139	N	0.988829	-0.592251	-1.072373
N140	N	1.488829	-0.092251	-0.572373
H141	H	0.982754	-0.582879	-1.118787
H142	H	1.482754	-0.082879	-0.618787
H143	H	1.033581	-0.577230	-1.060971
H144	H	1.533581	-0.077230	-0.560971
N145	N	1.022908	-0.479885	-0.870597
N146	N	1.522908	0.020115	-0.370597
H147	H	1.028808	-0.421112	-0.897756
H148	H	1.528808	0.078888	-0.397756
H149	H	1.058627	-0.484745	-0.839926
H150	H	1.558627	0.015255	-0.339926
H151	H	0.548247	-0.352287	-0.229583
H152	H	1.048247	0.147713	0.270417
H153	H	0.263320	-0.352199	-0.229680
H154	H	0.763320	0.147801	0.270320
H155	H	0.666999	-0.576470	-0.374674
H156	H	1.166999	-0.076470	0.125326
N157	N	0.822323	-0.335995	-0.532646
N158	N	1.322323	0.164005	-0.032646
H159	H	0.796956	-0.296909	-0.563290
H160	H	1.296956	0.203091	-0.063290
H161	H	0.793310	-0.375262	-0.505468
H162	H	1.293310	0.124738	-0.005468
N163	N	0.539641	-0.592746	-0.385293
N164	N	1.039641	-0.092746	0.114707
H165	H	0.570302	-0.631891	-0.410622
H166	H	1.070302	-0.131891	0.089378
H167	H	0.512442	-0.637320	-0.359743
H168	H	1.012442	-0.137320	0.140257
N169	N	0.473693	-0.448285	-0.184853
N170	N	0.973693	0.051715	0.315147
H171	H	0.443001	-0.443390	-0.149107
H172	H	0.943001	0.056610	0.350893
H173	H	0.500805	-0.507053	-0.178961
H174	H	1.000805	-0.007053	0.321039
H175	H	0.666960	-0.352308	-0.229541
H176	H	1.166960	0.147692	0.270459
H177	H	1.007989	-0.477904	-0.743230
H178	H	1.507989	0.022096	-0.243230
N179	N	0.337912	-0.480398	-0.419536
N180	N	0.837912	0.019602	0.080464
H181	H	0.349292	-0.542890	-0.440757
H182	H	0.849292	-0.042890	0.059243
H183	H	0.291501	-0.479182	-0.410917
H184	H	0.791501	0.020818	0.089083
H185	H	0.832902	-0.352269	-0.660011
H186	H	1.332902	0.147731	-0.160011
N187	N	0.337683	-0.448252	-0.184902
N188	N	0.837683	0.051748	0.315098
H189	H	0.368302	-0.443361	-0.149136
H190	H	0.868302	0.056639	0.350864
H191	H	0.310564	-0.388814	-0.185883
H192	H	0.810564	0.111186	0.314117
H193	H	0.144610	-0.352159	-0.229727
H194	H	0.644610	0.147841	0.270273
H195	H	0.803158	-0.450326	-0.861799
H196	H	1.303158	0.049674	-0.361799
N197	N	0.473938	-0.480395	-0.419494
N198	N	0.973938	0.019605	0.080506
H199	H	0.443322	-0.485275	-0.455263
H200	H	0.943322	0.014725	0.044737
H201	H	0.501124	-0.421642	-0.425366
H202	H	1.001124	0.078358	0.074634
N203	N	0.788237	-0.448348	-0.734422
N204	N	1.288237	0.051652	-0.234422
H205	H	0.752476	-0.443528	-0.765050
H206	H	1.252476	0.056472	-0.265050
H207	H	0.782398	-0.507127	-0.707258
H208	H	1.282398	-0.007127	-0.207258
N209	N	0.988812	-0.592383	-0.668737
N210	N	1.488812	-0.092383	-0.168737
H211	H	0.982739	-0.583007	-0.715150
H212	H	1.482739	-0.083007	-0.215150
H213	H	1.033564	-0.577367	-0.657332
H214	H	1.533564	-0.077367	-0.157332
H215	H	0.978240	-0.575984	-0.945016
H216	H	1.478240	-0.075984	-0.445016
N217	N	0.136006	-0.592623	-0.385439
N218	N	0.636006	-0.092623	0.114561
H219	H	0.166669	-0.631772	-0.410762
H220	H	0.666669	-0.131772	0.089238
H221	H	0.108807	-0.637194	-0.359886
H222	H	0.608807	-0.137194	0.140114
