data_functionalizedCrystal
_audit_creation_method	'MofGen! by Chris Wilmer'
_symmetry_space_group_name_H-M	'P1'
_symmetry_Int_Tables_number	1
_symmetry_cell_setting	triclinic
loop_
_symmetry_equiv_pos_as_xyz
  x,y,z
_cell_length_a	12.759401
_cell_length_b	12.759400
_cell_length_c	12.759393
_cell_angle_alpha	89.969349
_cell_angle_beta	89.982620
_cell_angle_gamma	90.013326
loop_
_atom_site_label
_atom_site_type_symbol
_atom_site_fract_x
_atom_site_fract_y
_atom_site_fract_z
Zn1	Zn	1.606255	-0.418198	-0.593990
Zn2	Zn	1.606157	-0.593917	-0.418313
Zn3	Zn	1.430560	-0.418253	-0.418329
Zn4	Zn	1.430550	-0.593836	-0.593955
O5	O	1.518381	-0.506051	-0.506147
O6	O	1.753263	-0.441518	-0.570694
O7	O	1.582828	-0.570672	-0.271294
O8	O	1.453912	-0.271225	-0.441652
O9	O	1.753191	-0.570618	-0.441625
O10	O	1.582994	-0.271184	-0.570709
O11	O	1.453817	-0.441613	-0.271306
O12	O	1.283538	-0.441534	-0.441618
O13	O	1.453895	-0.570480	-0.740980
O14	O	1.283531	-0.570533	-0.570649
O15	O	1.582984	-0.441439	-0.741006
O16	O	1.582818	-0.740927	-0.441591
O17	O	1.453800	-0.740868	-0.570634
C18	C	1.245413	-0.506032	-0.506132
C19	C	1.128637	-0.506049	-0.506151
C20	C	1.518326	-0.779018	-0.506130
C21	C	1.518398	-0.895795	-0.506158
C22	C	1.073798	-0.573326	-0.573227
C23	C	0.964074	-0.573340	-0.573238
C24	C	0.964037	-0.438795	-0.439089
C25	C	1.073759	-0.438777	-0.439084
C26	C	1.073819	-0.651008	-0.650673
C27	C	0.964095	-0.651021	-0.650685
C28	C	1.585578	-0.950556	-0.573413
C29	C	1.585627	-1.060280	-0.573439
C30	C	1.451314	-1.060472	-0.438945
C31	C	1.451260	-0.950750	-0.438926
C32	C	1.652716	-0.895601	-0.640645
C33	C	1.719901	-0.950362	-0.707905
C34	C	1.719950	-1.060086	-0.707931
C35	C	1.652813	-1.115049	-0.640697
C36	C	1.792414	-0.506071	-0.506161
C37	C	1.909191	-0.506080	-0.506168
C38	C	1.518449	-0.505944	-0.780180
C39	C	1.518478	-0.505898	-0.896957
C40	C	1.518465	-0.232018	-0.506186
C41	C	1.518501	-0.115241	-0.506203
C42	C	1.451331	-0.438685	-0.951831
C43	C	1.451363	-0.438653	-1.061555
C44	C	1.585698	-0.573052	-1.061521
C45	C	1.585660	-0.573088	-0.951799
C46	C	1.373776	-0.361087	-0.951851
C47	C	1.373808	-0.361056	-1.061575
C48	C	1.518373	-0.506082	-0.233179
C49	C	1.518548	-0.505831	-0.116403
H50	H	0.919342	-0.384024	-0.384487
H51	H	1.396556	-0.906163	-0.384161
H52	H	1.118404	-0.383986	-0.384472
C53	C	1.113368	-0.622000	-0.759270
C54	C	1.027865	-0.604274	-0.825704
C55	C	1.064257	-0.577535	-0.925743
H56	H	1.154709	-0.677660	-0.786343
H57	H	1.154700	-0.560207	-0.754992
H58	H	0.986550	-0.666059	-0.829986
H59	H	0.986515	-0.548609	-0.798664
H60	H	1.105589	-0.515743	-0.921465
H61	H	1.105599	-0.633200	-0.952806
H62	H	1.006250	-0.565496	-0.970829
H63	H	1.402939	-0.283809	-0.917834
H64	H	0.934302	-0.732371	-0.628754
C65	C	1.402780	-0.252464	-1.101172
C66	C	1.329512	-0.179518	-1.064453
C67	C	1.356174	-0.079477	-1.100898
H68	H	1.402783	-0.252292	-1.175619
H69	H	1.470563	-0.234248	-1.076337
H70	H	1.261746	-0.197729	-1.089294
H71	H	1.329498	-0.179657	-0.990011
H72	H	1.423958	-0.061261	-1.076062
H73	H	1.356177	-0.079316	-1.175343
H74	H	1.306472	-0.029970	-1.075981
H75	H	1.652846	-1.204393	-0.640735
C76	C	1.270648	-0.399862	-1.106756
C77	C	1.202275	-0.425613	-1.024842
C78	C	1.107235	-0.461353	-1.066424
H79	H	1.282978	-0.460145	-1.148630
H80	H	1.240217	-0.346341	-1.148642
H81	H	1.232700	-0.479130	-0.982973
H82	H	1.189915	-0.365346	-0.982961
H83	H	1.076803	-0.407832	-1.108310
H84	H	1.119575	-0.521634	-1.108297
H85	H	1.060829	-0.478820	-1.010852
H86	H	1.107836	-0.728260	-0.621390
H87	H	0.930095	-0.621977	-0.728036
H88	H	1.652686	-0.806258	-0.640630
H89	H	1.774556	-0.905605	-0.762651
C90	C	1.793001	-1.119353	-0.780996
C91	C	1.851800	-1.047736	-0.839849
C92	C	1.919121	-1.102292	-0.907155
H93	H	1.752927	-1.162153	-0.826843
H94	H	1.838875	-1.162131	-0.740875
H95	H	1.805932	-1.004976	-0.879966
H96	H	1.891896	-1.004934	-0.794029
H97	H	1.964994	-1.145071	-0.867035
H98	H	1.879037	-1.145090	-0.952996
H99	H	1.959030	-1.053709	-0.947088
H100	H	1.396655	-1.105232	-0.384206
C101	C	1.658674	-0.646108	-0.892410
C102	C	1.717535	-0.704917	-0.963926
C103	C	1.784820	-0.772185	-0.909255
H104	H	1.618570	-0.691985	-0.849594
H105	H	1.704510	-0.605962	-0.849638
H106	H	1.671706	-0.745060	-1.006680
H107	H	1.757661	-0.659068	-1.006744
H108	H	1.830655	-0.732040	-0.866483
H109	H	1.744707	-0.818055	-0.866441
H110	H	1.824772	-0.812088	-0.957770
C111	C	1.658603	-0.645877	-1.121256
C112	C	1.644283	-0.631445	-1.229092
C113	C	1.711437	-0.698502	-1.284150
H114	H	1.643267	-0.716515	-1.103385
H115	H	1.729215	-0.630500	-1.103337
H116	H	1.573686	-0.646829	-1.247004
H117	H	1.659626	-0.560821	-1.246994
H118	H	1.782050	-0.683125	-1.266230
H119	H	1.696096	-0.769135	-1.266270
H120	H	1.701738	-0.688712	-1.357322
H121	H	1.292388	-0.382876	-0.922074
