data_functionalizedCrystal
_audit_creation_method	'MofGen! by Chris Wilmer'
_symmetry_space_group_name_H-M	'P1'
_symmetry_Int_Tables_number	1
_symmetry_cell_setting	triclinic
loop_
_symmetry_equiv_pos_as_xyz
  x,y,z
_cell_length_a	10.654541
_cell_length_b	16.956993
_cell_length_c	16.053802
_cell_angle_alpha	92.393434
_cell_angle_beta	92.590712
_cell_angle_gamma	99.730686
loop_
_atom_site_label
_atom_site_type_symbol
_atom_site_fract_x
_atom_site_fract_y
_atom_site_fract_z
O1	O	0.046381	-1.061661	-0.069514
O2	O	0.090444	-0.829747	-0.069497
O3	O	-0.114953	-0.951037	-0.069500
O4	O	0.251779	-0.940371	-0.069510
O5	O	-0.103691	-0.944360	0.069359
O6	O	0.101706	-0.823070	0.069362
O7	O	0.057643	-1.054985	0.069346
Zn8	Zn	0.081463	-0.937967	0.091401
Zn9	Zn	0.066625	-0.946764	-0.091552
O10	O	0.263040	-0.933694	0.069349
C11	C	0.098331	-0.796713	-0.000065
C12	C	0.105039	-0.708229	-0.000058
C13	C	0.155213	-0.209207	-0.000078
C14	C	0.148901	-0.292347	-0.000079
C15	C	0.030423	-0.342781	-0.000071
C16	C	-0.081752	-0.310070	-0.000070
C17	C	-0.075439	-0.226932	-0.000075
C18	C	-0.000823	-0.592380	-0.000062
C19	C	-0.007127	-0.675524	-0.000055
C20	C	0.223526	-0.657795	-0.000066
C21	C	0.229829	-0.574655	-0.000065
C22	C	0.117654	-0.541952	-0.000069
N23	N	0.023968	-0.427764	-0.000070
N24	N	0.124109	-0.456971	-0.000076
C25	C	-0.156028	-0.946916	-0.000071
C26	C	-0.295197	-0.944574	-0.000073
C27	C	-0.340213	-1.089609	-0.000072
C28	C	-0.428100	-1.161023	-0.000071
C29	C	-0.558859	-1.158818	-0.000073
C30	C	-0.601731	-1.085191	-0.000080
C31	C	-0.513845	-1.013777	-0.000082
C32	C	-0.383085	-1.015990	-0.000077
C33	C	-0.468830	-0.868744	-0.000088
C34	C	-0.338070	-0.870947	-0.000079
C35	C	-0.511703	-0.795117	-0.000094
C36	C	-0.423815	-0.723701	-0.000090
C37	C	-0.293048	-0.725909	-0.000087
C38	C	-0.250183	-0.799533	-0.000081
C39	C	0.304115	-0.937815	-0.000082
C40	C	0.443283	-0.940158	-0.000086
N41	N	0.091588	-0.931970	0.216261
C42	C	0.049756	-0.088018	-0.000082
C43	C	0.043047	-0.176502	-0.000075
N44	N	0.056489	-0.952768	-0.216412
C45	C	0.004218	-0.983598	0.259954
C46	C	0.011312	-0.979410	0.347361
C47	C	0.105782	-0.923597	0.391074
C48	C	0.193156	-0.871964	0.347375
C49	C	0.186056	-0.876148	0.259970
C50	C	0.136762	-0.905318	0.652484
C51	C	0.143858	-0.901139	0.739895
C52	C	-0.037988	-1.008585	0.739875
C53	C	-0.045075	-1.012768	0.652468
C54	C	0.042294	-0.961132	0.608777
N55	N	0.113038	-0.919317	0.480417
N56	N	0.035032	-0.965409	0.519435
H57	H	0.240238	-0.318972	-0.000090
O58	O	-0.386600	-1.232585	0.000046
C59	C	-0.426392	-1.272690	0.071972
H60	H	-0.512986	-1.249310	0.095947
H61	H	-0.452772	-1.339734	0.055797
H62	H	-0.345599	-1.261459	0.122331
H63	H	-0.059832	-1.021450	0.382935
O64	O	-0.109885	-0.560721	-0.000168
C65	C	-0.187412	-0.589887	-0.072087
H66	H	-0.161137	-0.648883	-0.096062
H67	H	-0.291814	-0.600067	-0.055902
H68	H	-0.171977	-0.544294	-0.122450
O69	O	-0.087485	-1.037760	0.217365
C70	C	-0.075067	-1.030355	0.130849
H71	H	0.026833	-1.001738	0.118895
H72	H	-0.098034	-1.092208	0.097595
H73	H	-0.143956	-0.991133	0.106097
H74	H	0.270072	-0.826516	0.382971
H75	H	0.257200	-0.834106	0.224396
H76	H	-0.233743	-1.091411	-0.000059
O77	O	-0.644126	-1.228245	-0.000184
C78	C	-0.631723	-1.276359	-0.072109
H79	H	-0.532325	-1.258503	-0.096085
H80	H	-0.646539	-1.341996	-0.055934
H81	H	-0.706273	-1.267483	-0.122469
H82	H	-0.143714	-0.801338	-0.000073
O83	O	-0.638679	-0.792863	0.000012
C84	C	-0.664194	-0.748896	0.071934
H85	H	-0.573753	-0.706672	0.095911
H86	H	-0.741915	-0.712545	0.055755
H87	H	-0.697546	-0.791917	0.122295
O88	O	-0.465625	-0.652242	-0.000210
C89	C	-0.545706	-0.650085	-0.072143
H90	H	-0.586767	-0.713872	-0.096121
H91	H	-0.626828	-0.617066	-0.055978
H92	H	-0.488281	-0.617571	-0.122498
O93	O	-0.728791	-1.083157	-0.000201
C94	C	-0.790632	-1.125642	-0.072132
H95	H	-0.730357	-1.170412	-0.096103
H96	H	-0.887868	-1.159039	-0.055966
H97	H	-0.803679	-1.081834	-0.122492
H98	H	-0.166777	-0.200305	-0.000074
O99	O	-0.122933	-1.058815	0.782187
C100	C	-0.207862	-1.108955	0.724862
H101	H	-0.161551	-1.113127	0.662553
H102	H	-0.231525	-1.171281	0.750099
H103	H	-0.299183	-1.083003	0.715578
O104	O	0.344941	-0.525711	-0.000225
C105	C	0.407730	-0.544118	-0.072133
H106	H	0.334435	-0.574577	-0.122395
H107	H	0.462238	-0.486588	-0.096278
H108	H	0.477289	-0.586070	-0.055876
O109	O	-0.207548	-0.656584	0.000021
C110	C	-0.124760	-0.650039	0.071951
H111	H	-0.122763	-0.712175	0.095934
H112	H	-0.024596	-0.621677	0.055778
H113	H	-0.159973	-0.610975	0.122304
O114	O	0.221682	-0.855282	0.609963
C115	C	0.290639	-0.900809	0.559402
H116	H	0.233158	-0.963516	0.546283
H117	H	0.308948	-0.870593	0.497951
H118	H	0.385569	-0.905132	0.593085
O119	O	-0.122157	-0.724606	-0.000162
C120	C	-0.138544	-0.776684	-0.072083
H121	H	-0.041301	-0.782592	-0.096060
H122	H	-0.190466	-0.838120	-0.055901
H123	H	-0.197115	-0.751452	-0.122445
O124	O	-0.137360	-1.066703	0.610103
C125	C	-0.214417	-1.025712	0.559851
H126	H	-0.158653	-0.964424	0.546591
H127	H	-0.243474	-1.061784	0.498452
H128	H	-0.303433	-1.017781	0.593872
H129	H	0.314853	-0.684431	-0.000064
H130	H	0.220793	-0.855687	0.775482
O131	O	0.270287	-0.160179	0.000061
C132	C	0.286673	-0.108077	0.071963
H133	H	0.223412	-0.135735	0.122236
H134	H	0.390704	-0.098134	0.096093
H135	H	0.259156	-0.048232	0.055702
O136	O	-0.196736	-0.359171	-0.000026
C137	C	-0.178260	-0.439566	-0.000040
H138	H	-0.077876	-0.442038	0.026243
H139	H	-0.251037	-0.474878	0.040282
H140	H	-0.190928	-0.466793	-0.066656
