data_functionalizedCrystal
_audit_creation_method	'MofGen! by Chris Wilmer'
_symmetry_space_group_name_H-M	'P1'
_symmetry_Int_Tables_number	1
_symmetry_cell_setting	triclinic
loop_
_symmetry_equiv_pos_as_xyz
  x,y,z
_cell_length_a	6.817900
_cell_length_b	7.076028
_cell_length_c	24.998386
_cell_angle_alpha	89.523287
_cell_angle_beta	105.264017
_cell_angle_gamma	117.700652
loop_
_atom_site_label
_atom_site_type_symbol
_atom_site_fract_x
_atom_site_fract_y
_atom_site_fract_z
V1	V	-4.206388	-0.661246	-0.075699
O2	O	-4.183442	-0.652569	0.004545
O3	O	-4.163448	-0.652963	-0.150971
O4	O	-4.233240	-0.951354	-0.074136
O5	O	-4.113167	-0.352112	-0.072821
V6	V	-4.679558	-0.624728	-0.066148
O7	O	-4.490358	-0.741351	-0.096650
O8	O	-4.845786	-0.544623	-0.045197
O9	O	-4.499292	-0.633011	0.009124
O10	O	-4.819901	-0.633405	-0.146392
O11	O	-4.890176	-0.933862	-0.069025
O12	O	-4.429500	-0.334620	-0.067710
C13	C	-4.007342	-0.641561	-0.169333
C14	C	-4.054022	-0.636722	-0.230866
C15	C	-4.261075	-0.644948	-0.262579
C16	C	-4.304930	-0.640414	-0.320397
C17	C	-4.141721	-0.627638	-0.346499
C18	C	-3.934653	-0.619418	-0.314781
C19	C	-3.890808	-0.623968	-0.256966
C20	C	-4.111469	-0.601074	-0.547945
C21	C	-4.155328	-0.596518	-0.605765
C22	C	-4.525591	-0.617520	-0.611376
C23	C	-4.481747	-0.622069	-0.553561
C24	C	-4.274689	-0.613860	-0.521849
C25	C	-4.227141	-0.618781	-0.459157
C26	C	-4.189258	-0.622703	-0.409189
C27	C	-4.318753	-0.644409	0.027483
C28	C	-4.250065	-0.649384	0.090171
C29	C	-4.229697	-0.263777	-0.070525
C30	C	-4.103333	-0.022178	-0.071319
V31	V	-4.392793	-0.637962	0.192122
O32	O	-4.337167	-0.624082	0.273765
O33	O	-4.384680	-0.641302	0.113739
O34	O	-4.453851	-0.939778	0.190551
O35	O	-4.267518	-0.323539	0.196421
V36	V	-4.811011	-0.542936	0.217293
O37	O	-4.668206	-0.690714	0.178467
O38	O	-4.941830	-0.437159	0.245101
O39	O	-4.617716	-0.565885	0.288659
O40	O	-4.972569	-0.542989	0.139341
O41	O	-5.042219	-0.843531	0.216685
O42	O	-4.548545	-0.267409	0.211847
C43	C	-4.448534	-0.597431	0.301641
C44	C	-4.362392	-0.604760	0.362520
C45	C	-4.360286	-0.216693	0.203661
C46	C	-4.215379	0.022453	0.202219
H47	H	-3.801774	-0.609029	-0.336039
Br48	Br	-4.482585	-0.662272	-0.227160
H49	H	-4.473531	-0.647116	-0.346216
Br50	Br	-3.830462	-0.589919	-0.504914
Br51	Br	-3.609807	-0.612825	-0.213926
Br52	Br	-4.703238	-0.639370	-0.518138
H53	H	-4.694193	-0.624207	-0.637203
Br54	Br	-3.933810	-0.579174	-0.641189
