data_functionalizedCrystal
_audit_creation_method	'MofGen! by Chris Wilmer'
_symmetry_space_group_name_H-M	'P1'
_symmetry_Int_Tables_number	1
_symmetry_cell_setting	triclinic
loop_
_symmetry_equiv_pos_as_xyz
  x,y,z
_cell_length_a	6.817900
_cell_length_b	15.301126
_cell_length_c	16.306216
_cell_angle_alpha	95.153173
_cell_angle_beta	103.467292
_cell_angle_gamma	104.177575
loop_
_atom_site_label
_atom_site_type_symbol
_atom_site_fract_x
_atom_site_fract_y
_atom_site_fract_z
V1	V	-4.029912	-0.125465	-0.263284
O2	O	-4.013791	0.005303	-0.258008
O3	O	-3.984845	-0.248078	-0.261737
O4	O	-3.981317	-0.123853	-0.377995
O5	O	-4.017343	-0.119781	-0.140945
V6	V	-4.513133	-0.109786	-0.248620
O7	O	-4.291832	-0.159858	-0.295449
O8	O	-4.701410	-0.075393	-0.216455
O9	O	-4.334994	0.012827	-0.250167
O10	O	-4.646651	-0.240554	-0.253896
O11	O	-4.643098	-0.115470	-0.370959
O12	O	-4.338522	-0.111397	-0.133909
C13	C	-3.830663	-0.277958	-0.257649
C14	C	-3.875101	-0.378198	-0.257149
C15	C	-3.826161	-0.119497	-0.405947
C16	C	-3.867735	-0.118990	-0.499726
C17	C	-4.078208	-0.429894	-0.261131
C18	C	-4.119953	-0.524081	-0.260666
C19	C	-3.958585	-0.566567	-0.256213
C20	C	-3.755462	-0.514864	-0.252233
C21	C	-3.713723	-0.420681	-0.252704
C22	C	-3.842471	-0.711172	-0.251249
C23	C	-3.884211	-0.805362	-0.250776
C24	C	-4.248701	-0.814572	-0.259211
C25	C	-4.206962	-0.720389	-0.259682
C26	C	-4.003840	-0.668692	-0.255701
C27	C	-4.018642	-0.117174	-0.840474
C28	C	-4.223227	-0.123155	-0.810038
C29	C	-4.179962	-0.123336	-0.712447
C30	C	-3.943777	-0.118075	-0.671425
C31	C	-3.805591	-0.028639	-0.691447
C32	C	-3.850203	-0.028083	-0.789045
C33	C	-3.934359	-0.200310	-0.814528
C34	C	-3.895842	-0.202075	-0.717214
C35	C	-3.901453	-0.118582	-0.575885
C36	C	-4.060956	-0.116661	-0.936013
C37	C	-4.152518	0.042703	-0.254253
C38	C	-4.087318	0.142941	-0.254758
C39	C	-4.157019	-0.115757	-0.105953
C40	C	-4.094684	-0.116259	-0.012173
H41	H	-4.209614	-0.395308	-0.264749
C42	C	-4.343382	-0.580943	-0.265044
N43	N	-4.511678	-0.623771	-0.268341
C44	C	-3.706702	-0.852097	-0.245888
N45	N	-3.573000	-0.887299	-0.242210
H46	H	-3.624079	-0.549465	-0.248612
H47	H	-4.414084	-0.856667	-0.262441
C48	C	-3.490290	-0.363814	-0.248320
N49	N	-3.321995	-0.320983	-0.245020
H50	H	-3.998262	-0.268194	-0.705428
C51	C	-3.848823	0.055652	-0.647995
N52	N	-3.881394	0.119138	-0.615266
C53	C	-4.324677	-0.210178	-0.695239
N54	N	-4.433697	-0.275588	-0.682283
H55	H	-4.351990	-0.187228	-0.844731
H56	H	-4.338362	-0.685798	-0.263304
H57	H	-3.782390	-0.196638	-0.833681
C58	C	-4.311219	-0.042478	-0.833574
N59	N	-4.377485	0.018291	-0.851301
H60	H	-3.677075	-0.669084	-0.248013
H61	H	-4.224009	-0.063455	-0.681958
C62	C	-3.923894	0.056873	-0.809353
N63	N	-3.979404	0.120863	-0.824645
H64	H	-3.697065	-0.020024	-0.808254
H65	H	-3.631666	-0.021537	-0.663944
C66	C	-4.089893	-0.291104	-0.863130
N67	N	-4.207061	-0.359486	-0.899737
C68	C	-3.667732	-0.203940	-0.680191
N69	N	-3.495908	-0.205339	-0.652304
