data_functionalizedCrystal
_audit_creation_method	'MofGen! by Chris Wilmer'
_symmetry_space_group_name_H-M	'P1'
_symmetry_Int_Tables_number	1
_symmetry_cell_setting	triclinic
loop_
_symmetry_equiv_pos_as_xyz
  x,y,z
_cell_length_a	11.026607
_cell_length_b	17.699104
_cell_length_c	16.176319
_cell_angle_alpha	89.991696
_cell_angle_beta	89.996049
_cell_angle_gamma	95.938767
loop_
_atom_site_label
_atom_site_type_symbol
_atom_site_fract_x
_atom_site_fract_y
_atom_site_fract_z
O1	O	0.153522	1.025162	-0.068761
O2	O	0.653522	1.525162	0.431239
O3	O	0.173453	0.807524	-0.068759
O4	O	0.673453	1.307524	0.431241
O5	O	-0.013114	0.898305	-0.068757
O6	O	0.486886	1.398305	0.431243
O7	O	0.340090	0.934380	-0.068763
O8	O	0.840090	1.434380	0.431237
O9	O	-0.013126	0.898287	0.068736
O10	O	0.486874	1.398287	0.568736
O11	O	0.173441	0.807506	0.068734
O12	O	0.673441	1.307506	0.568734
O13	O	0.153510	1.025144	0.068732
O14	O	0.653510	1.525144	0.568732
Cu15	Cu	0.163475	0.916323	0.081287
Cu16	Cu	0.663475	1.416323	0.581287
Cu17	Cu	0.163489	0.916344	-0.081314
Cu18	Cu	0.663489	1.416344	0.418686
O19	O	0.340078	0.934363	0.068730
O20	O	0.840078	1.434363	0.568730
C21	C	0.172729	0.779220	-0.000012
C22	C	0.672729	1.279220	0.499988
C23	C	0.170573	0.694906	-0.000011
C24	C	0.670573	1.194906	0.499989
C25	C	-0.058312	0.891641	-0.000011
C26	C	0.441688	1.391641	0.499989
C27	C	-0.192970	0.871801	-0.000014
C28	C	0.307030	1.371801	0.499986
C29	C	0.267929	0.183411	-0.000022
C30	C	0.767929	0.683411	0.499978
C31	C	0.269947	0.262632	-0.000024
C32	C	0.769947	0.762632	0.499976
C33	C	0.160425	0.296202	-0.000022
C34	C	0.660425	0.796202	0.499978
C35	C	0.048877	0.250547	-0.000026
C36	C	0.548877	0.750547	0.499974
C37	C	0.046860	0.171327	-0.000029
C38	C	0.546860	0.671327	0.499971
C39	C	0.057008	0.570030	-0.000013
C40	C	0.557008	1.070030	0.499987
C41	C	0.059033	0.649255	-0.000007
C42	C	0.559033	1.149255	0.499993
C43	C	0.280094	0.661335	-0.000008
C44	C	0.780094	1.161335	0.499992
C45	C	0.278078	0.582115	-0.000011
C46	C	0.778078	1.082115	0.499989
C47	C	0.166531	0.536467	-0.000019
C48	C	0.666531	1.036467	0.499981
C49	C	0.164344	0.450566	-0.000018
C50	C	0.664344	0.950566	0.499982
C51	C	0.162610	0.382101	-0.000017
C52	C	0.662610	0.882101	0.499983
C53	C	-0.266931	0.926582	-0.000016
C54	C	0.233069	1.426582	0.499984
C55	C	-0.406107	0.906078	-0.000019
C56	C	0.093893	1.406078	0.499981
C57	C	0.385276	0.941027	-0.000018
C58	C	0.885276	1.441027	0.499982
C59	C	0.519934	0.960866	-0.000020
C60	C	1.019934	1.460866	0.499980
C61	C	0.154234	1.053448	-0.000017
C62	C	0.654234	1.553448	0.499983
C63	C	0.156390	1.137762	-0.000023
C64	C	0.656390	1.637762	0.499977
N65	N	0.163464	0.916314	0.195652
N66	N	0.663464	1.416314	0.695652
N67	N	0.163490	0.916358	-0.195680
N68	N	0.663490	1.416358	0.304320
C69	C	0.080886	0.956532	0.238917
C70	C	0.580886	1.456532	0.738917
C71	C	0.080884	0.956536	0.325465
C72	C	0.580884	1.456536	0.825465
C73	C	0.163468	0.916326	0.368745
C74	C	0.663468	1.416326	0.868745
C75	C	0.246051	0.876103	0.325474
C76	C	0.746051	1.376103	0.825474
C77	C	0.246045	0.876095	0.238928
C78	C	0.746045	1.376095	0.738928
C79	C	0.246073	0.876132	0.674502
C80	C	0.746073	1.376132	1.174502
C81	C	0.246075	0.876144	0.761054
C82	C	0.746075	1.376144	1.261054
C83	C	0.080912	0.956573	0.761038
C84	C	0.580912	1.456573	1.261038
C85	C	0.080907	0.956565	0.674493
C86	C	0.580907	1.456565	1.174493
C87	C	0.163485	0.916339	0.631229
C88	C	0.663485	1.416339	1.131229
C89	C	0.163483	0.916334	0.537385
C90	C	0.663483	1.416334	1.037385
C91	C	0.163476	0.916334	0.462588
C92	C	0.663476	1.416334	0.962588
H93	H	0.357115	0.156085	-0.000017
H94	H	0.857115	0.656085	0.499983
H95	H	0.013641	0.989280	0.203684
H96	H	0.513641	1.489280	0.703684
F97	F	-0.006979	0.999382	0.807089
F98	F	0.493021	1.499382	1.307089
F99	F	-0.215026	1.007725	-0.000022
F100	F	0.284974	1.507725	0.499978
F101	F	-0.458006	0.824931	-0.000025
F102	F	0.041994	1.324931	0.499975
H103	H	-0.232686	0.809723	-0.000019
H104	H	0.267314	1.309723	0.499981
H105	H	0.313287	0.843344	0.203703
H106	H	0.813287	1.343344	0.703703
H107	H	-0.030159	0.676585	-0.000007
H108	H	0.469841	1.176585	0.499993
H109	H	0.013642	0.989284	0.360691
H110	H	0.513642	1.489284	0.860691
F111	F	0.394646	0.546392	-0.000011
F112	F	0.894646	1.046392	0.499989
F113	F	0.333938	0.833302	0.371537
F114	F	0.833938	1.333302	0.871537
H115	H	0.013664	0.989311	0.639257
H116	H	0.513664	1.489311	1.139257
H117	H	-0.040298	0.277885	-0.000029
H118	H	0.459702	0.777885	0.499971
F119	F	-0.428170	1.042014	-0.000025
F120	F	0.071830	1.542014	0.499975
H121	H	0.360773	0.299797	-0.000031
H122	H	0.860773	0.799797	0.499969
F123	F	0.333960	0.833323	0.628464
F124	F	0.833960	1.333323	1.128464
F125	F	0.398814	0.709924	-0.000004
F126	F	0.898814	1.209924	0.499996
F127	F	-0.061710	0.521457	-0.000037
F128	F	0.438290	1.021457	0.499963
H129	H	0.313327	0.843397	0.796291
H130	H	0.813327	1.343397	1.296291
H131	H	-0.043966	0.134160	-0.000032
H132	H	0.456034	0.634160	0.499968
