data_functionalizedCrystal
_audit_creation_method	'MofGen! by Chris Wilmer'
_symmetry_space_group_name_H-M	'P1'
_symmetry_Int_Tables_number	1
_symmetry_cell_setting	triclinic
loop_
_symmetry_equiv_pos_as_xyz
  x,y,z
_cell_length_a	12.759400
_cell_length_b	12.759401
_cell_length_c	12.759393
_cell_angle_alpha	89.979062
_cell_angle_beta	90.024267
_cell_angle_gamma	89.995429
loop_
_atom_site_label
_atom_site_type_symbol
_atom_site_fract_x
_atom_site_fract_y
_atom_site_fract_z
Zn1	Zn	0.418173	1.606351	-0.594066
Zn2	Zn	0.593888	1.606278	-0.418405
Zn3	Zn	0.418229	1.430650	-0.418401
Zn4	Zn	0.593815	1.430678	-0.594042
O5	O	0.506026	1.518489	-0.506228
O6	O	0.441489	1.753363	-0.570775
O7	O	0.570641	1.582939	-0.271383
O8	O	0.271200	1.453976	-0.441711
O9	O	0.570586	1.753309	-0.441718
O10	O	0.271159	1.583063	-0.570771
O11	O	0.441584	1.453905	-0.271380
O12	O	0.441513	1.283633	-0.441688
O13	O	0.570461	1.454023	-0.741066
O14	O	0.570516	1.283653	-0.570731
O15	O	0.441418	1.583090	-0.741084
O16	O	0.740899	1.582965	-0.441695
O17	O	0.740846	1.453952	-0.570735
C18	C	0.506013	1.245522	-0.506207
C19	C	0.506033	1.128745	-0.506223
C20	C	0.231993	1.518525	-0.506244
C21	C	0.115216	1.518540	-0.506250
C22	C	0.573307	1.073922	-0.573310
C23	C	0.573311	0.964198	-0.573331
C24	C	0.438764	0.964131	-0.439169
C25	C	0.438756	1.073853	-0.439154
C26	C	0.060374	1.451344	-0.439059
C27	C	-0.049350	1.451359	-0.439073
C28	C	-0.049380	1.585774	-0.573473
C29	C	0.060342	1.585753	-0.573463
C30	C	0.115248	1.384131	-0.371846
C31	C	0.060405	1.316931	-0.304648
C32	C	-0.049319	1.316946	-0.304663
C33	C	-0.104200	1.384161	-0.371875
C34	C	0.778993	1.518483	-0.506236
C35	C	0.895770	1.518576	-0.506275
C36	C	0.505925	1.518568	-0.780262
C37	C	0.505882	1.518602	-0.897039
C38	C	0.506040	1.792523	-0.506250
C39	C	0.506046	1.909299	-0.506259
C40	C	0.438678	1.585812	-0.951911
C41	C	0.438633	1.585829	-1.061635
C42	C	0.573004	1.451424	-1.061604
C43	C	0.573044	1.451402	-0.951882
C44	C	0.506051	1.518472	-0.233261
C45	C	0.505798	1.518642	-0.116485
H46	H	0.628086	1.118612	-0.627925
H47	H	0.627768	1.396664	-0.907204
C48	C	0.120678	1.659665	-0.647370
H49	H	0.193883	1.650016	-0.637744
H50	H	0.102714	1.730257	-0.632009
H51	H	0.102671	1.644301	-0.717964
C52	C	0.364799	1.659718	-0.891581
H53	H	0.374452	1.650088	-0.818375
H54	H	0.294202	1.644356	-0.909565
H55	H	0.380180	1.730314	-0.909575
H56	H	0.383908	1.640557	-1.106308
H57	H	-0.193545	1.384165	-0.371884
H58	H	-0.094072	1.640499	-0.628194
C59	C	0.646885	1.377520	-1.121936
H60	H	0.637246	1.387166	-1.195142
H61	H	0.631514	1.306927	-1.103946
H62	H	0.717486	1.392891	-1.103949
H63	H	0.204591	1.384114	-0.371824
C64	C	0.647311	0.903891	-0.647123
H65	H	0.637676	0.830682	-0.637538
H66	H	0.717882	0.921862	-0.631630
H67	H	0.632013	0.921913	-0.717740
C68	C	0.364777	0.903746	-0.365388
H69	H	0.374425	0.830547	-0.374995
H70	H	0.294202	0.921732	-0.380870
H71	H	0.380079	0.921696	-0.294768
C72	C	0.364752	1.134163	-0.365354
H73	H	0.324696	1.085759	-0.325402
H74	H	0.319023	1.176987	-0.405613
H75	H	0.404892	1.176942	-0.319503
H76	H	0.105097	1.262200	-0.249934
C77	C	-0.109643	1.243029	-0.230753
H78	H	-0.061244	1.203005	-0.190719
H79	H	-0.152463	1.197266	-0.270936
H80	H	-0.152425	1.283223	-0.184982
