data_functionalizedCrystal
_audit_creation_method	'MofGen! by Chris Wilmer'
_symmetry_space_group_name_H-M	'P1'
_symmetry_Int_Tables_number	1
_symmetry_cell_setting	triclinic
loop_
_symmetry_equiv_pos_as_xyz
  x,y,z
_cell_length_a	11.169416
_cell_length_b	11.169417
_cell_length_c	11.169409
_cell_angle_alpha	90.019824
_cell_angle_beta	90.030874
_cell_angle_gamma	90.011219
loop_
_atom_site_label
_atom_site_type_symbol
_atom_site_fract_x
_atom_site_fract_y
_atom_site_fract_z
Zn1	Zn	-0.477682	1.834962	0.678555
Zn2	Zn	-0.678422	1.834852	0.477877
Zn3	Zn	-0.477755	1.634248	0.477889
Zn4	Zn	-0.678325	1.634256	0.678522
O5	O	-0.578046	1.734579	0.578211
O6	O	-0.504321	2.002897	0.651943
O7	O	-0.651875	1.808192	0.309929
O8	O	-0.309796	1.660917	0.504527
O9	O	-0.651804	2.002816	0.504506
O10	O	-0.309742	1.808380	0.651955
O11	O	-0.504445	1.660809	0.309938
O12	O	-0.504351	1.466300	0.504495
O13	O	-0.651637	1.660929	0.846476
O14	O	-0.651708	1.466305	0.651899
O15	O	-0.504226	1.808388	0.846500
O16	O	-0.846359	1.808199	0.504474
O17	O	-0.846287	1.660822	0.651887
C18	C	-0.578028	1.422755	0.578195
C19	C	-0.578049	1.289355	0.578217
C20	C	-0.889871	1.734532	0.578202
C21	C	-1.023271	1.734621	0.578238
C22	C	-0.265004	1.734660	0.578246
C23	C	-0.131604	1.734694	0.578261
C24	C	-0.577913	1.734672	0.891253
C25	C	-0.577856	1.734711	1.024653
C26	C	-0.578065	2.047622	0.578227
C27	C	-0.578073	2.181022	0.578234
C28	C	-0.578092	1.734557	0.266386
C29	C	-0.577811	1.734750	0.132987
