data_functionalizedCrystal
_audit_creation_method	'MofGen! by Chris Wilmer'
_symmetry_space_group_name_H-M	'P1'
_symmetry_Int_Tables_number	1
_symmetry_cell_setting	triclinic
loop_
_symmetry_equiv_pos_as_xyz
  x,y,z
_cell_length_a	15.944551
_cell_length_b	16.098538
_cell_length_c	15.944551
_cell_angle_alpha	92.722095
_cell_angle_beta	96.501262
_cell_angle_gamma	92.734390
loop_
_atom_site_label
_atom_site_type_symbol
_atom_site_fract_x
_atom_site_fract_y
_atom_site_fract_z
O1	O	1.118280	0.069171	-0.104583
O2	O	0.873732	0.069192	-0.117938
O3	O	1.002684	0.069173	0.011014
O4	O	0.989328	0.069189	-0.233535
O5	O	0.995151	-0.069339	0.003511
O6	O	0.866199	-0.069320	-0.125441
O7	O	1.110748	-0.069341	-0.112086
Zn8	Zn	0.987277	-0.091322	-0.119955
Zn9	Zn	0.997202	0.091173	-0.110069
O10	O	0.981796	-0.069322	-0.241038
C11	C	0.838672	-0.000062	-0.121135
C12	C	0.745426	-0.000054	-0.119472
N13	N	0.980510	-0.215871	-0.126701
C14	C	0.530568	-0.000075	-0.035569
C15	C	0.473262	0.068221	-0.070832
C16	C	0.574700	-0.000064	-0.116466
C17	C	0.465858	-0.068341	-0.078249
C18	C	0.409786	-0.000077	-0.113556
C19	C	0.518625	0.068289	-0.151748
C20	C	0.511223	-0.068334	-0.159156
C21	C	0.453936	-0.000021	-0.194477
C22	C	0.669702	-0.000055	-0.118140
C23	C	0.314785	-0.000080	-0.111888
C24	C	1.035262	-0.259463	-0.071988
C25	C	1.030536	-0.346652	-0.076716
C26	C	0.971061	-0.390245	-0.136161
C27	C	0.916303	-0.346646	-0.190876
C28	C	0.921026	-0.259460	-0.186144
C29	C	0.953941	-0.653493	-0.153300
C30	C	0.949224	-0.740686	-0.158029
C31	C	1.063456	-0.740685	-0.043867
C32	C	1.068177	-0.653497	-0.039144
C33	C	1.013416	-0.609905	-0.093857
C34	C	0.966231	-0.479366	-0.140996
C35	C	1.018243	-0.520786	-0.089017
C36	C	1.145808	-0.000086	-0.108889
C37	C	1.239054	-0.000088	-0.110552
C38	C	0.998363	-0.000083	0.038556
C39	C	0.996701	-0.000083	0.131802
N40	N	1.003976	0.215721	-0.103316
C41	C	0.986117	-0.000065	-0.268580
C42	C	0.987779	-0.000059	-0.361826
C43	C	0.912797	-0.000064	0.346660
C44	C	0.948045	-0.068363	0.403977
C45	C	0.993694	-0.000076	0.302528
C46	C	0.955491	0.068199	0.411358
C47	C	0.990783	-0.000066	0.467442
C48	C	1.028961	-0.068431	0.358615
C49	C	1.036399	0.068192	0.365993
C50	C	1.071705	-0.000122	0.423292
C51	C	0.995368	-0.000083	0.207526
C52	C	0.989115	-0.000066	0.562443
H53	H	0.563905	0.000005	0.031573
H54	H	0.541756	0.126091	-0.182807
H55	H	1.060005	-0.126235	0.335493
Cl56	Cl	0.402740	0.000041	-0.298234
Cl57	Cl	1.099368	-0.401456	-0.007932
Cl58	Cl	0.430000	-0.157485	-0.030231
Cl59	Cl	1.142948	-0.598693	0.035586
H60	H	0.456292	0.125956	-0.033488
H61	H	0.917806	-0.514867	-0.189399
Cl62	Cl	0.537461	-0.157478	-0.216769
Cl63	Cl	1.132292	-0.795489	0.024913
Cl64	Cl	1.110039	-0.204669	0.002743
H65	H	1.138910	-0.000167	0.456448
H66	H	0.910689	-0.126097	0.420958
H67	H	1.073726	0.125930	0.348990
Cl68	Cl	0.874449	-0.795484	-0.232769
Cl69	Cl	0.852188	-0.204658	-0.254927
Cl70	Cl	0.809122	-0.000155	0.295230
Cl71	Cl	0.907490	0.157340	0.447206
H72	H	0.909353	-0.618008	-0.197850
Cl73	Cl	0.841529	-0.401448	-0.265604
H74	H	1.066665	-0.485290	-0.040614
