data_functionalizedCrystal
_audit_creation_method	'MofGen! by Chris Wilmer'
_symmetry_space_group_name_H-M	'P1'
_symmetry_Int_Tables_number	1
_symmetry_cell_setting	triclinic
loop_
_symmetry_equiv_pos_as_xyz
  x,y,z
_cell_length_a	15.944551
_cell_length_b	10.654550
_cell_length_c	9.130313
_cell_angle_alpha	90.003780
_cell_angle_beta	89.997799
_cell_angle_gamma	96.008180
loop_
_atom_site_label
_atom_site_type_symbol
_atom_site_fract_x
_atom_site_fract_y
_atom_site_fract_z
O1	O	0.117973	-1.666308	-0.121923
O2	O	0.129213	-1.300684	-0.121900
O3	O	0.001376	-1.493480	-0.121899
O4	O	0.245810	-1.473511	-0.121924
O5	O	0.001379	-1.493478	0.121700
O6	O	0.129216	-1.300681	0.121699
O7	O	0.117976	-1.666305	0.121676
Cu8	Cu	0.123596	-1.483493	0.143930
Cu9	Cu	0.123592	-1.483496	-0.144154
O10	O	0.245813	-1.473509	0.121675
C11	C	0.128389	-1.253895	-0.000098
C12	C	0.125920	-1.114484	-0.000088
C13	C	-0.029921	-1.492650	-0.000099
C14	C	-0.123182	-1.490165	-0.000098
N15	N	0.123599	-1.483500	0.346552
C16	C	-0.338765	-1.364720	-0.000111
C17	C	-0.399443	-1.422971	0.119995
C18	C	-0.293934	-1.485668	-0.000109
C19	C	-0.399430	-1.423002	-0.120175
C20	C	-0.458872	-1.481317	-0.000126
C21	C	-0.353384	-1.543953	0.120095
C22	C	-0.353364	-1.543967	-0.120182
C23	C	-0.414024	-1.602306	-0.000048
C24	C	-0.198917	-1.488172	-0.000098
C25	C	-0.553887	-1.478822	-0.000127
C26	C	0.277110	-1.474339	-0.000128
C27	C	0.370371	-1.476824	-0.000139
C28	C	0.118800	-1.713094	-0.000130
C29	C	0.121269	-1.852505	-0.000149
C30	C	0.201188	-1.034024	-0.000117
C31	C	0.198863	-0.903034	-0.000142
C32	C	0.045995	-0.932975	-0.000116
C33	C	0.048321	-1.063963	-0.000080
C34	C	0.289446	-1.016737	-0.000139
C35	C	0.287121	-0.885746	-0.000164
N36	N	0.123583	-1.483499	-0.346777
C37	C	0.067012	-1.568892	0.423205
C38	C	0.067002	-1.568889	0.576542
C39	C	0.180173	-1.398098	0.576560
C40	C	0.180178	-1.398096	0.423226
C41	C	0.001676	-1.667501	0.423195
C42	C	0.001666	-1.667498	0.576532
H43	H	-0.306038	-1.264327	0.000016
H44	H	-0.017184	-0.891824	-0.000131
Br45	Br	0.025642	-1.828043	0.645897
Br46	Br	0.346984	-1.064890	0.169767
H47	H	-0.332939	-1.595080	-0.221733
Br48	Br	0.256954	-1.282194	0.680625
H49	H	-0.062886	-1.646893	0.381583
H50	H	0.022134	-1.758420	0.375629
H51	H	-0.419846	-1.371814	0.221540
H52	H	-0.446602	-1.702787	0.000014
H53	H	-0.333096	-1.595065	0.221746
Br54	Br	-0.433415	-1.337704	-0.289398
Br55	Br	-0.053833	-1.173157	0.000001
Br56	Br	0.336278	-1.075575	-0.175435
Br57	Br	0.331577	-0.809034	0.175110
H58	H	0.226248	-1.328553	0.360817
H59	H	0.320373	-0.843584	-0.102121
Br60	Br	-0.100013	-1.617941	0.655811
