data_functionalizedCrystal
_audit_creation_method	'MofGen! by Chris Wilmer'
_symmetry_space_group_name_H-M	'P1'
_symmetry_Int_Tables_number	1
_symmetry_cell_setting	triclinic
loop_
_symmetry_equiv_pos_as_xyz
  x,y,z
_cell_length_a	27.731993
_cell_length_b	9.730223
_cell_length_c	27.731989
_cell_angle_alpha	89.988885
_cell_angle_beta	97.380453
_cell_angle_gamma	89.989159
loop_
_atom_site_label
_atom_site_type_symbol
_atom_site_fract_x
_atom_site_fract_y
_atom_site_fract_z
O1	O	0.640930	0.113937	-0.057394
O2	O	0.500131	0.114024	-0.066167
O3	O	0.574918	0.113949	0.008619
O4	O	0.566142	0.114013	-0.132180
O5	O	0.574917	-0.114631	0.008623
O6	O	0.500130	-0.114556	-0.066163
O7	O	0.640929	-0.114643	-0.057390
Zn8	Zn	0.570529	-0.150891	-0.061776
Zn9	Zn	0.570530	0.150273	-0.061781
O10	O	0.566141	-0.114567	-0.132176
C11	C	0.482123	-0.000256	-0.065985
C12	C	0.428467	-0.000224	-0.065443
C13	C	0.045308	0.124307	-0.061514
C14	C	0.246965	0.124345	-0.063581
O15	O	0.273038	0.230314	-0.063831
N16	N	0.272184	-0.000251	-0.063838
C17	C	0.246987	-0.124866	-0.063575
O18	O	0.273066	-0.230841	-0.063835
C19	C	0.045332	-0.124902	-0.061504
C20	C	0.020114	-0.000298	-0.061252
C21	C	0.020090	0.248901	-0.061262
C22	C	-0.030322	0.248890	-0.060748
C23	C	-0.055516	0.124285	-0.060486
C24	C	-0.030298	-0.000309	-0.060738
C25	C	0.020136	-0.249515	-0.061237
C26	C	-0.030281	-0.249514	-0.060718
C27	C	-0.055499	-0.124909	-0.060467
C28	C	-0.105903	-0.124925	-0.059962
N29	N	-0.131123	-0.000329	-0.059706
C30	C	-0.105929	0.124276	-0.059967
C31	C	0.352859	-0.124838	-0.064663
C32	C	0.403273	-0.124829	-0.065181
C33	C	0.403247	0.124382	-0.065187
C34	C	0.352832	0.124372	-0.064672
C35	C	0.327639	-0.000242	-0.064406
C36	C	-0.211797	0.124244	-0.058888
C37	C	-0.262213	0.124222	-0.058376
C38	C	-0.262183	-0.124988	-0.058368
C39	C	-0.211771	-0.124967	-0.058883
C40	C	-0.186579	-0.000340	-0.059141
O41	O	-0.132007	-0.230838	-0.059707
O42	O	-0.132015	0.230236	-0.059696
C43	C	0.095719	0.124317	-0.062028
C44	C	0.120937	-0.000277	-0.062280
C45	C	0.095743	-0.124881	-0.062019
C46	C	0.171351	-0.000268	-0.062799
C47	C	0.196544	0.124337	-0.063061
C48	C	0.171325	0.248933	-0.062804
C49	C	0.120913	0.248922	-0.062290
C50	C	0.120963	-0.249477	-0.062275
C51	C	0.171374	-0.249456	-0.062790
C52	C	0.196568	-0.124852	-0.063052
C53	C	0.574738	-0.000346	0.026628
C54	C	0.574196	-0.000359	0.080285
C55	C	0.658937	-0.000360	-0.057572
C56	C	0.712593	-0.000383	-0.058114
N57	N	0.570531	0.355809	-0.061781
N58	N	0.570532	-0.356428	-0.061773
C59	C	0.603707	0.427702	-0.028728
C60	C	0.603709	0.571585	-0.028725
C61	C	0.537354	0.571670	-0.094828
C62	C	0.537355	0.427789	-0.094833
C63	C	0.642015	0.427654	0.009437
C64	C	0.642017	0.571537	0.009440
C65	C	0.570790	0.124310	0.412999
C66	C	0.568733	0.124336	0.614658
O67	O	0.568447	0.230304	0.640727
N68	N	0.568477	-0.000261	0.639877
C69	C	0.568732	-0.124874	0.614678
O70	O	0.568463	-0.230851	0.640755
C71	C	0.570785	-0.124899	0.413020
C72	C	0.571046	-0.000293	0.387804
C73	C	0.571050	0.248906	0.387783
C74	C	0.571567	0.248898	0.337372
C75	C	0.571823	0.124294	0.312177
C76	C	0.571563	-0.000301	0.337393
C77	C	0.571037	-0.249510	0.387822
C78	C	0.571549	-0.249505	0.337404
C79	C	0.571810	-0.124900	0.312188
C80	C	0.572336	-0.124912	0.261786
N81	N	0.572592	-0.000315	0.236567
C82	C	0.572335	0.124289	0.261763
C83	C	0.567656	-0.124852	0.720552
C84	C	0.567143	-0.124846	0.770966
C85	C	0.567143	0.124365	0.770942
C86	C	0.567659	0.124357	0.720527
C87	C	0.567912	-0.000255	0.695332
C88	C	0.573421	0.124263	0.155895
C89	C	0.573940	0.124244	0.105480
C90	C	0.573937	-0.124966	0.105508
C91	C	0.573421	-0.124948	0.155919
C92	C	0.573161	-0.000323	0.181112
O93	O	0.572617	-0.230824	0.235686
O94	O	0.572594	0.230250	0.235675
C95	C	0.570273	0.124318	0.463411
C96	C	0.570013	-0.000278	0.488627
C97	C	0.570269	-0.124881	0.463431
C98	C	0.569500	-0.000272	0.539041
C99	C	0.569244	0.124332	0.564236
C100	C	0.569500	0.248929	0.539017
C101	C	0.570016	0.248921	0.488606
C102	C	0.570013	-0.249478	0.488651
C103	C	0.569497	-0.249460	0.539062
C104	C	0.569241	-0.124857	0.564257
C105	C	0.566328	-0.000269	0.849815
C106	C	0.566887	-0.000243	0.796161
H107	H	-0.282744	0.225694	-0.058173
H108	H	0.510343	0.630291	-0.121739
C109	C	0.500871	0.348711	-0.131199
H110	H	0.481112	0.412190	-0.150881
H111	H	0.518070	0.292601	-0.151234
H112	H	0.480915	0.292571	-0.113918
C113	C	0.631776	0.624264	0.059487
H114	H	0.627558	0.548310	0.080066
H115	H	0.658388	0.678475	0.073616
H116	H	0.603054	0.678519	0.055653
H117	H	0.679010	0.388599	0.001693
C118	C	0.627019	0.367322	0.056648
H119	H	0.620342	0.440018	0.077677
H120	H	0.598741	0.312385	0.049131
H121	H	0.652730	0.312355	0.072270
C122	C	0.571828	-0.386582	0.309692
H123	H	0.571603	-0.460782	0.331934
H124	H	0.543830	-0.391749	0.286120
H125	H	0.600234	-0.391790	0.293934
H126	H	0.676900	0.616154	-0.001822
H127	H	0.573213	-0.226412	0.176452
C128	C	0.430966	0.261444	-0.065473
H129	H	0.464602	0.243592	-0.065815
H130	H	0.418796	0.312666	-0.093587
H131	H	0.426610	0.312620	-0.037184
H132	H	0.574153	0.225717	0.084952
H133	H	-0.191292	0.225727	-0.059099
H134	H	0.569289	-0.350937	0.559589
H135	H	0.191902	-0.350932	-0.062999
C136	C	0.431007	-0.261893	-0.065460
H137	H	0.408778	-0.336097	-0.065224
H138	H	0.446769	-0.267075	-0.093860
H139	H	0.454578	-0.267077	-0.037456
H140	H	-0.191239	-0.226430	-0.059097
H141	H	0.573207	0.225745	0.176401
C142	C	0.571851	0.385961	0.309639
H143	H	0.572198	0.368131	0.276004
H144	H	0.543567	0.437176	0.313994
H145	H	0.599971	0.437133	0.321805
C146	C	0.570773	0.385981	0.415491
H147	H	0.571005	0.460172	0.393247
H148	H	0.542375	0.391209	0.431256
H149	H	0.598779	0.391145	0.439059
H150	H	0.574148	-0.226415	0.084985
C151	C	0.567941	0.261422	0.692794
H152	H	0.567713	0.335625	0.715024
H153	H	0.596340	0.266590	0.677029
H154	H	0.539936	0.266622	0.669225
C155	C	0.566857	0.261425	0.798662
H156	H	0.566510	0.243571	0.832297
H157	H	0.595138	0.312623	0.794304
H158	H	0.538734	0.312625	0.786492
C159	C	0.566861	-0.261912	0.798699
H160	H	0.567082	-0.336115	0.776468
H161	H	0.594860	-0.267121	0.822271
H162	H	0.538456	-0.267072	0.814459
H163	H	0.332352	-0.226319	-0.064445
C164	C	-0.289900	-0.262046	-0.058079
H165	H	-0.267664	-0.336259	-0.058306
H166	H	-0.305660	-0.267227	-0.029677
H167	H	-0.313472	-0.267217	-0.086081
C168	C	0.047864	-0.386582	-0.061515
H169	H	0.025633	-0.460781	-0.061280
H170	H	0.063625	-0.391763	-0.089917
H171	H	0.071437	-0.391778	-0.033513
H172	H	0.100456	-0.350948	-0.062060
C173	C	0.567940	-0.261934	0.692844
H174	H	0.567719	-0.336128	0.715089
H175	H	0.539941	-0.267119	0.669273
H176	H	0.596345	-0.267134	0.677085
H177	H	0.570223	-0.350948	0.468142
C178	C	0.569215	0.385989	0.566738
H179	H	0.568867	0.368134	0.600373
H180	H	0.597498	0.437180	0.562381
H181	H	0.541095	0.437197	0.554567
H182	H	-0.050849	0.350355	-0.060541
H183	H	0.040598	0.350374	-0.061474
H184	H	0.332303	0.225836	-0.064467
H185	H	-0.050791	-0.350991	-0.060506
H186	H	0.100385	0.350388	-0.062085
H187	H	0.191846	0.350391	-0.063020
H188	H	0.570825	-0.350978	0.408344
H189	H	0.570229	0.350388	0.468080
