data_functionalizedCrystal
_audit_creation_method	'MofGen! by Chris Wilmer'
_symmetry_space_group_name_H-M	'P1'
_symmetry_Int_Tables_number	1
_symmetry_cell_setting	triclinic
loop_
_symmetry_equiv_pos_as_xyz
  x,y,z
_cell_length_a	10.908937
_cell_length_b	11.892052
_cell_length_c	11.026607
_cell_angle_alpha	93.417417
_cell_angle_beta	84.335986
_cell_angle_gamma	95.070740
loop_
_atom_site_label
_atom_site_type_symbol
_atom_site_fract_x
_atom_site_fract_y
_atom_site_fract_z
O1	O	1.670978	0.094039	-0.173850
O2	O	1.318045	0.094033	-0.083314
O3	O	1.465260	0.094032	-0.299333
O4	O	1.523763	0.094041	0.042168
O5	O	1.448190	-0.093978	-0.309748
O6	O	1.300974	-0.093976	-0.093729
O7	O	1.653907	-0.093970	-0.184265
Zn8	Zn	1.474730	-0.123824	-0.140651
Zn9	Zn	1.497222	0.123887	-0.126929
O10	O	1.506692	-0.093969	0.031753
C11	C	1.263624	0.000028	-0.080061
C12	C	1.126897	0.000025	-0.054864
N13	N	1.459389	-0.292880	-0.150019
C14	C	0.915321	0.000044	-0.120773
C15	C	1.056634	0.000029	-0.146819
C16	C	1.352652	-0.470430	-0.215190
C17	C	1.363364	-0.352086	-0.208643
C18	C	1.544711	-0.352025	-0.097940
C19	C	1.533999	-0.470368	-0.104487
C20	C	1.437965	-0.529567	-0.163112
C21	C	1.427249	-0.647912	-0.169651
C22	C	1.608600	-0.647849	-0.058956
C23	C	1.619312	-0.529505	-0.052409
C24	C	1.708328	0.000038	-0.187519
C25	C	1.845056	0.000048	-0.212715
C26	C	1.445933	0.000028	-0.347573
C27	C	1.413760	0.000031	-0.475795
N28	N	1.512571	0.292943	-0.117572
C29	C	1.502595	0.000035	-0.567527
C30	C	1.469345	0.000038	-0.700051
C31	C	1.526020	0.000037	0.079994
C32	C	1.558193	0.000041	0.208216
H33	H	0.870861	0.000058	-0.022775
H34	H	1.101091	0.000028	-0.244823
H35	H	1.082443	0.000035	0.043141
H36	H	1.697502	-0.481290	-0.004682
H37	H	1.678061	-0.696010	-0.016540
O38	O	1.622765	0.000091	-0.544397
C39	C	1.835037	0.000038	-0.629010
C40	C	1.698996	-0.000003	-0.655370
H41	H	1.896706	-0.000062	-0.718716
H42	H	1.861759	0.078740	-0.570091
H43	H	1.847349	-0.078623	-0.578698
H44	H	1.686583	0.078604	-0.705721
H45	H	1.672337	-0.078758	-0.714237
H46	H	1.293894	-0.303942	-0.251051
O47	O	0.898281	-0.000010	-0.329560
C48	C	1.087663	0.000042	-0.462048
C49	C	1.027550	0.000079	-0.329663
H50	H	1.192188	0.000138	-0.462174
H51	H	1.050578	-0.078657	-0.515371
H52	H	1.064720	0.078706	-0.506608
H53	H	1.050468	-0.078532	-0.284997
H54	H	1.064637	0.078831	-0.276429
H55	H	1.349051	-0.696109	-0.217381
O56	O	1.293716	-0.000017	-0.499353
C57	C	1.151135	0.000062	-0.652909
C58	C	1.287135	0.000089	-0.626410
H59	H	1.145772	0.000172	-0.755631
H60	H	1.096302	-0.078640	-0.615788
H61	H	1.110652	0.078724	-0.606907
H62	H	1.327728	-0.078519	-0.672406
H63	H	1.341880	0.078843	-0.663504
O64	O	1.637948	-0.294629	-0.040831
C65	C	1.734208	-0.258283	0.146684
C66	C	1.628575	-0.323377	0.082153
H67	H	1.726650	-0.281484	0.246134
H68	H	1.826915	-0.281552	0.099366
H69	H	1.727211	-0.163550	0.142337
H70	H	1.635454	-0.418125	0.086481
H71	H	1.535912	-0.300014	0.129489
O72	O	1.678339	0.000241	-0.768505
C73	C	1.882056	0.097607	-0.788250
C74	C	1.746027	0.097535	-0.814666
H75	H	1.936826	0.176249	-0.825581
H76	H	1.887560	0.097677	-0.685535
H77	H	1.922503	0.018889	-0.834155
H78	H	1.705495	0.176240	-0.768839
H79	H	1.740606	0.097406	-0.917397
H80	H	1.274450	-0.518630	-0.262912
H81	H	1.368669	0.000044	-0.719620
