data_functionalizedCrystal
_audit_creation_method	'MofGen! by Chris Wilmer'
_symmetry_space_group_name_H-M	'P1'
_symmetry_Int_Tables_number	1
_symmetry_cell_setting	triclinic
loop_
_symmetry_equiv_pos_as_xyz
  x,y,z
_cell_length_a	17.038272
_cell_length_b	17.038272
_cell_length_c	15.500227
_cell_angle_alpha	93.043705
_cell_angle_beta	93.033254
_cell_angle_gamma	88.888444
loop_
_atom_site_label
_atom_site_type_symbol
_atom_site_fract_x
_atom_site_fract_y
_atom_site_fract_z
O1	O	0.167139	-1.052160	-0.071836
O2	O	0.667139	-0.552160	0.428164
O3	O	0.164430	-0.824350	-0.071862
O4	O	0.664430	-0.324350	0.428138
O5	O	0.051879	-0.936901	-0.071842
O6	O	0.551879	-0.436901	0.428158
O7	O	0.279690	-0.939609	-0.071856
O8	O	0.779690	-0.439609	0.428144
O9	O	0.058680	-0.930069	0.072045
O10	O	0.558680	-0.430069	0.572045
O11	O	0.171231	-0.817518	0.072026
O12	O	0.671231	-0.317518	0.572026
O13	O	0.173940	-1.045328	0.072051
O14	O	0.673940	-0.545328	0.572051
Cu15	Cu	0.173207	-0.930799	0.085177
Cu16	Cu	0.673207	-0.430799	0.585177
Cu17	Cu	0.165164	-0.938879	-0.084987
Cu18	Cu	0.665164	-0.438879	0.415013
O19	O	0.286491	-0.932777	0.072032
O20	O	0.786491	-0.432777	0.572032
C21	C	0.165368	-0.791641	0.000079
C22	C	0.665368	-0.291641	0.500079
C23	C	0.158019	-0.704358	0.000069
C24	C	0.658019	-0.204358	0.500069
N25	N	0.178864	-0.925122	0.204861
N26	N	0.678864	-0.425122	0.704861
C27	C	0.025987	-0.931022	0.000101
C28	C	0.525987	-0.431022	0.500101
C29	C	-0.061297	-0.923674	0.000100
C30	C	0.438703	-0.423674	0.500100
C31	C	-0.106906	-0.991137	0.000108
C32	C	0.393094	-0.491137	0.500108
C33	C	-0.188918	-0.984229	0.000100
C34	C	0.311082	-0.484229	0.500100
C35	C	-0.225320	-0.909856	0.000088
C36	C	0.274680	-0.409856	0.500088
C37	C	-0.179705	-0.842388	0.000077
C38	C	0.320295	-0.342388	0.500077
C39	C	-0.097694	-0.849297	0.000080
C40	C	0.402306	-0.349297	0.500080
C41	C	-0.472708	-0.885446	0.000074
C42	C	0.027292	-0.385446	0.500074
C43	C	-0.554725	-0.878541	0.000074
C44	C	-0.054725	-0.378541	0.500074
C45	C	-0.563932	-1.020383	0.000094
C46	C	-0.063932	-0.520383	0.500094
C47	C	-0.481919	-1.027286	0.000102
C48	C	0.018081	-0.527286	0.500102
C49	C	-0.436312	-0.959818	0.000087
C50	C	0.063688	-0.459818	0.500087
C51	C	-0.309149	-0.902792	0.000082
C52	C	0.190851	-0.402792	0.500082
C53	C	-0.352484	-0.966882	0.000087
C54	C	0.147516	-0.466882	0.500087
C55	C	0.312383	-0.938656	0.000087
C56	C	0.812383	-0.438656	0.500087
C57	C	0.399667	-0.946004	0.000082
C58	C	0.899667	-0.446004	0.500082
C59	C	0.173003	-1.078037	0.000109
C60	C	0.673003	-0.578037	0.500109
C61	C	0.180351	-1.165320	0.000113
C62	C	0.680351	-0.665320	0.500113
C63	C	0.225482	-0.658749	0.000066
C64	C	0.725482	-0.158749	0.500066
C65	C	0.218574	-0.576737	0.000078
C66	C	0.718574	-0.076737	0.500078
C67	C	0.144201	-0.540335	0.000088
C68	C	0.644201	-0.040335	0.500088
C69	C	0.076733	-0.585950	0.000094
C70	C	0.576733	-0.085950	0.500094
C71	C	0.083642	-0.667961	0.000088
C72	C	0.583642	-0.167961	0.500088
C73	C	0.119792	-0.292946	0.000112
C74	C	0.619792	0.207054	0.500112
C75	C	0.112887	-0.210929	0.000116
C76	C	0.612887	0.289071	0.500116
C77	C	0.254729	-0.201721	0.000102
C78	C	0.754729	0.298279	0.500102
C79	C	0.261632	-0.283734	0.000091
C80	C	0.761632	0.216266	0.500091
C81	C	0.194164	-0.329342	0.000101
C82	C	0.694164	0.170658	0.500101
C83	C	0.137138	-0.456505	0.000098
C84	C	0.637138	0.043495	0.500098
C85	C	0.201228	-0.413170	0.000098
C86	C	0.701228	0.086830	0.500098
N87	N	0.159501	-0.944561	-0.204671
N88	N	0.659501	-0.444561	0.295329
C89	C	0.131192	-0.972833	0.250145
C90	C	0.631192	-0.472833	0.750145
C91	C	0.135478	-0.968547	0.340718
C92	C	0.635478	-0.468547	0.840718
C93	C	0.187440	-0.916555	0.386003
C94	C	0.687440	-0.416555	0.886003
C95	C	0.235114	-0.868839	0.340712
C96	C	0.735114	-0.368839	0.840712
C97	C	0.230823	-0.873121	0.250142
C98	C	0.730823	-0.373121	0.750142
C99	C	0.202884	-0.901128	0.659467
C100	C	0.702884	-0.401128	1.159467
C101	C	0.207172	-0.896851	0.750044
C102	C	0.707172	-0.396851	1.250044
C103	C	0.107535	-0.996559	0.750044
C104	C	0.607535	-0.496559	1.250044
C105	C	0.103252	-1.000840	0.659471
C106	C	0.603252	-0.500840	1.159471
C107	C	0.150923	-0.953121	0.614188
C108	C	0.650923	-0.453121	1.114188
C109	C	0.191824	-0.912174	0.478582
C110	C	0.691824	-0.412174	0.978582
C111	C	0.146534	-0.957498	0.521610
C112	C	0.646534	-0.457498	1.021610
H113	H	-0.077273	-1.051699	0.000123
H114	H	0.422727	-0.551699	0.500123
C115	C	0.343440	-0.323774	0.000077
C116	C	0.843440	0.176226	0.500077
H117	H	0.337892	-0.379150	0.000063
H118	H	0.837892	0.120850	0.500063
H119	H	0.373827	-0.306070	0.050249
H120	H	0.873827	0.193930	0.550249
H121	H	0.369067	-0.310815	-0.050111
H122	H	0.869067	0.189185	0.449889
H123	H	-0.060560	-0.794361	0.000073
H124	H	0.439440	-0.294361	0.500073
H125	H	0.064854	-0.330070	0.000122
H126	H	0.564854	0.169930	0.500122
H127	H	0.261782	-0.442811	0.000095
H128	H	0.761782	0.057189	0.500095
H129	H	-0.338796	-0.842237	0.000075
H130	H	0.161204	-0.342237	0.500075
C131	C	0.328938	-0.151552	0.000102
C132	C	0.828938	0.348448	0.500102
H133	H	0.314175	-0.097495	0.000114
H134	H	0.814175	0.402505	0.500114
H135	H	0.356841	-0.165474	-0.050076
H136	H	0.856841	0.334526	0.449924
H137	H	0.361577	-0.160726	0.050284
H138	H	0.861577	0.339274	0.550284
H139	H	0.286045	-0.688381	0.000058
H140	H	0.786045	-0.188381	0.500058
H141	H	-0.226049	-1.039164	0.000108
H142	H	0.273951	-0.539164	0.500108
C143	C	0.292784	-0.526570	0.000072
C144	C	0.792784	-0.026570	0.500072
H145	H	0.338066	-0.559996	0.000055
H146	H	0.838066	-0.059996	0.500055
H147	H	0.295414	-0.492012	0.050252
H148	H	0.795414	0.007988	0.550252
H149	H	0.290662	-0.496761	-0.050108
H150	H	0.790662	0.003239	0.449892
C151	C	-0.614098	-1.094593	0.000102
C152	C	-0.114098	-0.594593	0.500102
H153	H	-0.580672	-1.139875	0.000114
H154	H	-0.080672	-0.639875	0.500114
H155	H	-0.648651	-1.097229	-0.050075
H156	H	-0.148651	-0.597229	0.449925
H157	H	-0.643912	-1.092465	0.050285
H158	H	-0.143912	-0.592465	0.550285
C159	C	0.283266	-0.820642	0.200328
C160	C	0.783266	-0.320642	0.700328
H161	H	0.314833	-0.789069	0.240269
H162	H	0.814833	-0.289069	0.740269
H163	H	0.251149	-0.787745	0.165006
H164	H	0.751149	-0.287745	0.665006
H165	H	0.316182	-0.852741	0.164988
H166	H	0.816182	-0.352741	0.664988
C167	C	-0.005076	-0.545911	0.000103
C168	C	0.494924	-0.045911	0.500103
H169	H	0.000470	-0.490536	0.000096
H170	H	0.500470	0.009464	0.500096
H171	H	-0.030713	-0.558867	0.050280
H172	H	0.469287	-0.058867	0.550280
H173	H	-0.035452	-0.563621	-0.050080
H174	H	0.464548	-0.063621	0.449920
C175	C	0.055095	-1.049037	0.799857
C176	C	0.555095	-0.549037	1.299857
H177	H	0.065085	-1.039037	0.860283
H178	H	0.565085	-0.539037	1.360283
H179	H	0.066432	-1.102718	0.785005
H180	H	0.566432	-0.602718	1.285005
H181	H	0.001405	-1.037717	0.785022
H182	H	0.501405	-0.537717	1.285022
H183	H	-0.322844	-1.027437	0.000077
H184	H	0.177156	-0.527437	0.500077
H185	H	0.052321	-0.181294	0.000123
H186	H	0.552321	0.318706	0.500123
H187	H	0.028706	-0.705095	0.000090
H188	H	0.528706	-0.205095	0.500090
H189	H	-0.452287	-1.087848	0.000111
H190	H	0.047713	-0.587848	0.500111
C191	C	0.292273	-0.811649	0.390524
C192	C	0.792273	-0.311649	0.890524
H193	H	0.288008	-0.815937	0.450950
H194	H	0.788008	-0.315937	0.950950
H195	H	0.279527	-0.759371	0.375692
H196	H	0.779527	-0.259371	0.875692
H197	H	0.344557	-0.824370	0.375666
H198	H	0.844557	-0.324370	0.875666
C199	C	0.074032	-1.030025	0.200339
C200	C	0.574032	-0.530025	0.700339
H201	H	0.046249	-1.057819	0.240284
H202	H	0.546249	-0.557819	0.740284
H203	H	0.102798	-1.066265	0.164996
H204	H	0.602798	-0.566265	0.664996
H205	H	0.037768	-1.001266	0.165020
H206	H	0.537768	-0.501266	0.665020
C207	C	0.083047	-1.021037	0.390527
C208	C	0.583047	-0.521037	0.890527
H209	H	0.051495	-1.052624	0.350585
H210	H	0.551495	-0.552624	0.850585
H211	H	0.050129	-0.988952	0.425871
H212	H	0.550129	-0.488952	0.925871
H213	H	0.115176	-1.053935	0.425846
H214	H	0.615176	-0.553935	0.925846
H215	H	-0.584359	-0.817974	0.000078
H216	H	-0.084359	-0.317974	0.500078
H217	H	0.076584	-0.426857	0.000130
H218	H	0.576584	0.073143	0.500130
C219	C	0.046089	-1.058027	0.609663
C220	C	0.546089	-0.558027	1.109663
H221	H	0.018305	-1.085824	0.649606
H222	H	0.518305	-0.585824	1.149606
H223	H	0.074857	-1.094266	0.574320
H224	H	0.574857	-0.594266	1.074320
H225	H	0.009826	-1.029267	0.574345
H226	H	0.509826	-0.529267	1.074345
H227	H	0.234135	-0.869842	0.515461
H228	H	0.734135	-0.369842	1.015461
C229	C	-0.422550	-0.811233	0.000072
C230	C	0.077450	-0.311233	0.500072
H231	H	-0.455977	-0.765952	0.000077
H232	H	0.044023	-0.265952	0.500077
H233	H	-0.392732	-0.813355	-0.050102
H234	H	0.107268	-0.313355	0.449898
H235	H	-0.388000	-0.808600	0.050257
H236	H	0.112000	-0.308600	0.550257
H237	H	-0.209350	-0.781832	0.000063
H238	H	0.290650	-0.281832	0.500063
C239	C	0.255327	-0.848646	0.609667
C240	C	0.755327	-0.348646	1.109667
H241	H	0.286893	-0.817076	0.649612
H242	H	0.786893	-0.317076	1.149612
H243	H	0.223213	-0.815745	0.574345
H244	H	0.723213	-0.315745	1.074345
H245	H	0.288243	-0.880744	0.574327
H246	H	0.788243	-0.380744	1.074327
H247	H	0.249490	-0.854510	0.786912
H248	H	0.749490	-0.354510	1.286912
H249	H	0.104223	-0.999827	0.484736
H250	H	0.604223	-0.499827	0.984736
