data_functionalizedCrystal
_audit_creation_method	'MofGen! by Chris Wilmer'
_symmetry_space_group_name_H-M	'P1'
_symmetry_Int_Tables_number	1
_symmetry_cell_setting	triclinic
loop_
_symmetry_equiv_pos_as_xyz
  x,y,z
_cell_length_a	34.571875
_cell_length_b	34.571051
_cell_length_c	34.567439
_cell_angle_alpha	60.004367
_cell_angle_beta	60.008842
_cell_angle_gamma	59.994195
loop_
_atom_site_label
_atom_site_type_symbol
_atom_site_fract_x
_atom_site_fract_y
_atom_site_fract_z
O1	O	0.053721	-0.565181	0.472559
O2	O	0.553721	-0.065181	0.972559
O3	O	0.020283	-0.440038	0.380761
O4	O	0.520283	0.059962	0.880761
O5	O	0.099534	-0.519209	0.380676
O6	O	0.599534	-0.019209	0.880676
O7	O	-0.025530	-0.486010	0.472643
O8	O	0.474470	0.013990	0.972643
O9	O	0.125831	-0.492917	0.406885
O10	O	0.625831	0.007083	0.906885
O11	O	0.046580	-0.413746	0.406969
O12	O	0.546580	0.086254	0.906969
O13	O	0.080018	-0.538889	0.498767
O14	O	0.580018	-0.038889	0.998767
Zn15	Zn	0.067475	-0.472143	0.457030
Zn16	Zn	0.567475	0.027857	0.957030
Zn17	Zn	0.032827	-0.506784	0.422498
Zn18	Zn	0.532827	-0.006784	0.922498
O19	O	0.000767	-0.459718	0.498852
O20	O	0.500767	0.040282	0.998852
N21	N	0.091122	-0.448505	0.480598
N22	N	0.591122	0.051495	0.980598
N23	N	0.009184	-0.530426	0.398930
N24	N	0.509184	-0.030426	0.898930
C25	C	0.124402	-0.415465	0.717633
C26	C	0.624402	0.084535	1.217633
C27	C	0.328327	-0.415388	0.513477
C28	C	0.828327	0.084612	1.013477
C29	C	0.124221	-0.415437	0.513630
C30	C	0.624221	0.084563	1.013630
C31	C	0.124201	-0.211364	0.513624
C32	C	0.624201	0.288636	1.013624
C33	C	0.157075	-0.309853	0.546423
C34	C	0.657075	0.190147	1.046423
C35	C	0.157084	-0.382601	0.546423
C36	C	0.657084	0.117399	1.046423
C37	C	0.175289	-0.364414	0.564591
C38	C	0.675289	0.135586	1.064591
C39	C	0.254624	-0.350722	0.522790
C40	C	0.754624	0.149278	1.022790
C41	C	0.304220	-0.367243	0.506229
C42	C	0.804220	0.132757	1.006229
C43	C	0.304249	-0.447494	0.536832
C44	C	0.804249	0.052506	1.036832
C45	C	0.254655	-0.430972	0.553394
C46	C	0.754655	0.069028	1.053394
C47	C	0.169014	-0.285043	0.497667
C48	C	0.669014	0.214957	0.997667
C49	C	0.152454	-0.235444	0.481153
C50	C	0.652454	0.264556	0.981153
C51	C	0.112020	-0.235469	0.562154
C52	C	0.612020	0.264531	1.062154
C53	C	0.128580	-0.285068	0.578668
C54	C	0.628580	0.214932	1.078668
C55	C	0.108321	-0.370634	0.558439
C56	C	0.608321	0.129366	1.058439
C57	C	0.091776	-0.387168	0.541918
C58	C	0.591776	0.112832	1.041918
C59	C	0.172754	-0.427637	0.501375
C60	C	0.672754	0.072363	1.001375
C61	C	0.189301	-0.411103	0.517891
C62	C	0.689301	0.088897	1.017891
C63	C	0.108399	-0.370649	0.643978
C64	C	0.608399	0.129351	1.143978
C65	C	0.091911	-0.387197	0.693575
C66	C	0.591911	0.112803	1.193575
C67	C	0.172928	-0.427676	0.693511
C68	C	0.672928	0.072324	1.193511
C69	C	0.189415	-0.411128	0.643912
C70	C	0.689415	0.088872	1.143912
C71	C	0.157149	-0.382613	0.619147
C72	C	0.657149	0.117387	1.119147
C73	C	0.229844	-0.382585	0.546371
C74	C	0.729844	0.117415	1.046371
C75	C	0.105624	-0.433333	0.772186
C76	C	0.605624	0.066667	1.272186
C77	C	0.382878	-0.432925	0.495007
C78	C	0.882878	0.067075	0.995007
C79	C	0.105380	-0.433313	0.495792
C80	C	0.605380	0.066687	0.995792
C81	C	0.105683	-0.156808	0.496094
C82	C	0.605683	0.343192	0.996094
C83	C	-0.023527	-0.563458	0.161535
C84	C	0.476473	-0.063458	0.661535
C85	C	-0.023851	-0.767445	0.365663
C86	C	0.476149	-0.267445	0.865663
C87	C	-0.023821	-0.563448	0.365756
C88	C	0.476179	-0.063448	0.865756
C89	C	-0.227785	-0.563229	0.365355
C90	C	0.272215	-0.063229	0.865355
C91	C	-0.129302	-0.596153	0.332678
C92	C	0.370698	-0.096153	0.832678
C93	C	-0.056593	-0.596234	0.332823
C94	C	0.443407	-0.096234	0.832823
C95	C	-0.074746	-0.614396	0.314578
C96	C	0.425254	-0.114396	0.814578
C97	C	-0.088477	-0.693710	0.356299
C98	C	0.411523	-0.193710	0.856299
C99	C	-0.071982	-0.743310	0.372851
C100	C	0.428018	-0.243310	0.872851
C101	C	0.008266	-0.743392	0.342376
C102	C	0.508266	-0.243392	0.842376
C103	C	-0.008230	-0.693794	0.325823
C104	C	0.491770	-0.193794	0.825823
C105	C	-0.154162	-0.608103	0.381422
C106	C	0.345838	-0.108103	0.881422
C107	C	-0.203757	-0.591517	0.397874
C108	C	0.296243	-0.091517	0.897874
C109	C	-0.203630	-0.551037	0.316836
C110	C	0.296370	-0.051037	0.816836
C111	C	-0.154034	-0.567623	0.300384
C112	C	0.345966	-0.067623	0.800384
C113	C	-0.068543	-0.547475	0.320829
C114	C	0.431457	-0.047475	0.820829
C115	C	-0.052041	-0.530969	0.337421
C116	C	0.447959	-0.030969	0.837421
C117	C	-0.011639	-0.611977	0.377990
C118	C	0.488361	-0.111977	0.877990
C119	C	-0.028141	-0.628485	0.361404
C120	C	0.471859	-0.128485	0.861404
C121	C	-0.068417	-0.547482	0.235199
C122	C	0.431583	-0.047482	0.735199
C123	C	-0.051814	-0.530977	0.185602
C124	C	0.448186	-0.030977	0.685602
C125	C	-0.011349	-0.611990	0.185649
C126	C	0.488651	-0.111990	0.685649
C127	C	-0.027951	-0.628493	0.235248
C128	C	0.472049	-0.128493	0.735248
C129	C	-0.056486	-0.596238	0.260022
C130	C	0.443514	-0.096238	0.760022
C131	C	-0.056602	-0.668955	0.332787
C132	C	0.443398	-0.168955	0.832787
C133	C	-0.005599	-0.544662	0.106983
C134	C	0.494401	-0.044662	0.606983
C135	C	-0.006342	-0.821999	0.384121
C136	C	0.493658	-0.321999	0.884121
C137	C	-0.005979	-0.544649	0.383673
C138	C	0.494021	-0.044649	0.883673
C139	C	-0.282336	-0.544682	0.382817
C140	C	0.217664	-0.044682	0.882817
N141	N	0.427518	-0.448428	0.480350
N142	N	0.927518	0.051572	0.980350
O143	O	0.589573	-0.456297	0.363634
O144	O	1.089573	0.043703	0.863634
O145	O	0.589761	-0.548399	0.488643
O146	O	1.089761	-0.048399	0.988643
O147	O	0.589681	-0.548188	0.409364
O148	O	1.089681	-0.048188	0.909364
O149	O	0.589654	-0.456508	0.442913
O150	O	1.089654	0.043492	0.942913
O151	O	0.510890	-0.521988	0.435708
O152	O	1.010890	-0.021988	0.935708
O153	O	0.510970	-0.522199	0.514987
O154	O	1.010970	-0.022199	1.014987
O155	O	0.510782	-0.430098	0.389978
O156	O	1.010782	0.069902	0.889978
Zn157	Zn	0.498366	-0.471989	0.456665
Zn158	Zn	0.998366	0.028011	0.956665
Zn159	Zn	0.602177	-0.506508	0.421956
Zn160	Zn	1.102177	-0.006508	0.921956
O161	O	0.510862	-0.430308	0.469257
O162	O	1.010862	0.069692	0.969257
N163	N	0.673025	-0.530068	0.398267
N164	N	1.173025	-0.030068	0.898267
N165	N	0.091092	-0.112167	0.480590
N166	N	0.591092	0.387833	0.980590
O167	O	-0.025539	0.049976	0.472612
O168	O	0.474461	0.549976	0.972612
O169	O	0.099472	0.050011	0.380491
O170	O	0.599472	0.550011	0.880491
O171	O	0.020155	0.049979	0.380751
O172	O	0.520155	0.549979	0.880751
O173	O	0.053778	0.050009	0.472352
O174	O	0.553778	0.550009	0.972352
O175	O	0.046458	-0.028818	0.407008
O176	O	0.546458	0.471182	0.907008
O177	O	0.125775	-0.028785	0.406748
O178	O	0.625775	0.471215	0.906748
O179	O	0.000764	-0.028821	0.498869
O180	O	0.500764	0.471179	0.998869
Zn181	Zn	0.067445	-0.041314	0.456977
Zn182	Zn	0.567445	0.458686	0.956977
Zn183	Zn	0.032791	0.062504	0.422382
Zn184	Zn	0.532791	0.562504	0.922382
O185	O	0.080081	-0.028788	0.498609
O186	O	0.580081	0.471212	0.998609
N187	N	0.009138	0.133358	0.398771
N188	N	0.509138	0.633358	0.898771
N189	N	0.091421	-0.448552	0.816827
N190	N	0.591421	0.051448	1.316827
O191	O	0.083469	-0.565164	0.978960
O192	O	0.583469	-0.065164	1.478960
O193	O	-0.008614	-0.440110	0.979002
O194	O	0.491386	0.059890	1.479002
O195	O	-0.008399	-0.519410	0.978978
O196	O	0.491601	-0.019410	1.478978
O197	O	0.083253	-0.485863	0.978984
O198	O	0.583253	0.014137	1.478984
O199	O	0.017837	-0.493128	0.900185
O200	O	0.517837	0.006872	1.400185
O201	O	0.017621	-0.413827	0.900208
O202	O	0.517621	0.086173	1.400208
O203	O	0.109704	-0.538881	0.900167
O204	O	0.609704	-0.038881	1.400167
Zn205	Zn	0.067828	-0.472181	0.887677
Zn206	Zn	0.567828	0.027819	1.387677
Zn207	Zn	0.033262	-0.506810	0.991491
Zn208	Zn	0.533262	-0.006810	1.491491
O209	O	0.109489	-0.459581	0.900191
O210	O	0.609489	0.040419	1.400191
N211	N	0.009668	-0.530444	1.062341
N212	N	0.509668	-0.030444	1.562341
C213	C	0.030297	-0.411123	0.381218
C214	C	0.530297	0.088877	0.881218
C215	C	0.128439	-0.509167	0.381113
C216	C	0.628439	-0.009167	0.881113
C217	C	0.070004	-0.567805	0.498310
C218	C	0.570004	-0.067805	0.998310
C219	C	-0.028138	-0.469761	0.498415
C220	C	0.471862	0.030239	0.998415
C221	C	0.550388	-0.547982	0.517564
C222	C	1.050388	-0.047982	1.017564
C223	C	0.550290	-0.547721	0.419387
C224	C	1.050290	-0.047721	0.919387
C225	C	0.550153	-0.430514	0.361058
C226	C	1.050153	0.069486	0.861058
C227	C	0.550253	-0.430775	0.459234
C228	C	1.050253	0.069225	0.959234
C229	C	0.128339	0.010714	0.380902
C230	C	0.628339	0.510714	0.880902
C231	C	0.030148	0.010577	0.381256
C232	C	0.530148	0.510577	0.881256
C233	C	-0.028136	0.010574	0.498426
C234	C	0.471864	0.510574	0.998426
C235	C	0.070089	0.010613	0.498104
C236	C	0.570089	0.510613	0.998104
C237	C	-0.008178	-0.411214	0.939610
C238	C	0.491822	0.088786	1.439610
C239	C	-0.007906	-0.509413	0.939566
C240	C	0.492094	-0.009413	1.439566
C241	C	0.109268	-0.567777	0.939558
C242	C	0.609268	-0.067777	1.439558
C243	C	0.109002	-0.469572	0.939586
C244	C	0.609002	0.030428	1.439586
H245	H	0.082121	-0.347425	0.623816
H246	H	0.582121	0.152575	1.123816
C247	C	0.176137	0.010916	0.342260
C248	C	0.676137	0.510916	0.842260
C249	C	0.197088	-0.029543	0.329490
C250	C	0.697088	0.470457	0.829490
C251	C	0.241124	-0.029380	0.293903
C252	C	0.741124	0.470620	0.793903
H253	H	0.171880	0.038421	0.315386
H254	H	0.671880	0.538421	0.815386
H255	H	0.196057	0.010960	0.353662
H256	H	0.696057	0.510960	0.853662
H257	H	0.177172	-0.029582	0.318087
H258	H	0.677172	0.470418	0.818087
H259	H	0.201356	-0.057054	0.356354
H260	H	0.701356	0.442946	0.856354
H261	H	0.261044	-0.029337	0.305305
H262	H	0.761044	0.470663	0.805305
H263	H	0.236863	-0.001874	0.267031
H264	H	0.736863	0.498126	0.767031
H265	H	0.255346	-0.056833	0.285237
H266	H	0.755346	0.443167	0.785237
C267	C	0.020472	0.010527	0.342955
C268	C	0.520472	0.510527	0.842955
C269	C	-0.025772	0.010492	0.360162
C270	C	0.474228	0.510492	0.860162
C271	C	-0.034697	0.010432	0.324897
C272	C	0.465303	0.510432	0.824897
H273	H	0.023946	0.037994	0.315983
H274	H	0.523946	0.537994	0.815983
H275	H	0.042312	-0.016966	0.334339
H276	H	0.542312	0.483034	0.834339
H277	H	-0.047606	0.037982	0.368771
H278	H	0.452394	0.537982	0.868771
H279	H	-0.029257	-0.016973	0.387130
H280	H	0.470743	0.483027	0.887130
H281	H	-0.012857	-0.017061	0.316282
H282	H	0.487143	0.482939	0.816282
H283	H	-0.031221	0.037900	0.297927
H284	H	0.468779	0.537900	0.797927
H285	H	-0.066073	0.010404	0.336569
H286	H	0.433927	0.510404	0.836569
C287	C	0.026308	-0.666828	0.300264
C288	C	0.526308	-0.166828	0.800264
C289	C	0.001511	-0.618075	0.287245
C290	C	0.501511	-0.118075	0.787245
C291	C	0.033312	-0.593221	0.263692
C292	C	0.533312	-0.093221	0.763692
H293	H	0.041964	-0.674912	0.320676
H294	H	0.541964	-0.174912	0.820676
H295	H	0.049041	-0.674952	0.272699
H296	H	0.549041	-0.174952	0.772699
H297	H	-0.021214	-0.609955	0.314805
H298	H	0.478786	-0.109955	0.814805
H299	H	-0.014144	-0.609978	0.266827
H300	H	0.485856	-0.109978	0.766827
H301	H	0.056046	-0.601344	0.236127
H302	H	0.556046	-0.101344	0.736127
H303	H	0.048967	-0.601308	0.284107
H304	H	0.548967	-0.101308	0.784107
H305	H	0.016493	-0.560139	0.254852
H306	H	0.516493	-0.060139	0.754852
C307	C	-0.075986	-0.460374	0.536992
C308	C	0.424014	0.039626	1.036992
C309	C	-0.069742	-0.465667	0.576603
C310	C	0.430258	0.034333	1.076603
C311	C	-0.113808	-0.457030	0.612152
C312	C	0.386192	0.042970	1.112152
H313	H	-0.095909	-0.429023	0.525577
H314	H	0.404091	0.070977	1.025577
H315	H	-0.090187	-0.482286	0.545660
H316	H	0.409813	0.017714	1.045660
H317	H	-0.055549	-0.443756	0.567936
H318	H	0.444451	0.056244	1.067936
H319	H	-0.049828	-0.497016	0.588032
H320	H	0.450172	0.002984	1.088032
H321	H	-0.128008	-0.478942	0.620820
H322	H	0.371992	0.021058	1.120820
H323	H	-0.133727	-0.425679	0.600732
H324	H	0.366273	0.074321	1.100732
H325	H	-0.109577	-0.460624	0.639034
H326	H	0.390423	0.039376	1.139034
H327	H	-0.036687	-0.516580	0.939532
H328	H	0.463313	-0.016580	1.439532
H329	H	-0.037087	-0.375298	0.939623
H330	H	0.462913	0.124702	1.439623
H331	H	0.077290	0.010621	0.526881
H332	H	0.577290	0.510621	1.026881
C333	C	0.550481	-0.586486	0.565459
C334	C	1.050481	-0.086486	1.065459
C335	C	0.550509	-0.569507	0.594692
C336	C	1.050509	-0.069507	1.094692
C337	C	0.550601	-0.604965	0.638813
C338	C	1.050601	-0.104965	1.138813
H339	H	0.523028	-0.595144	0.579713
H340	H	1.023028	-0.095144	1.079713
H341	H	0.577985	-0.613397	0.561303
H342	H	1.077985	-0.113397	1.061303
H343	H	0.523008	-0.542604	0.598849
H344	H	1.023008	-0.042604	1.098849
H345	H	0.577959	-0.560851	0.580453
H346	H	1.077959	-0.060851	1.080453
H347	H	0.578104	-0.631876	0.634657
H348	H	1.078104	-0.131876	1.134657
H349	H	0.523148	-0.613621	0.653063
H350	H	1.023148	-0.113621	1.153063
H351	H	0.550624	-0.593451	0.658652
H352	H	1.050624	-0.093451	1.158652
H353	H	0.550303	-0.576522	0.412207
H354	H	1.050303	-0.076522	0.912207
C355	C	-0.230544	-0.519998	0.281827
C356	C	0.269456	-0.019998	0.781827
C357	C	-0.259010	-0.476208	0.288923
C358	C	0.240990	0.023792	0.788923
C359	C	-0.283812	-0.447603	0.256684
C360	C	0.216188	0.052397	0.756684
H361	H	-0.208687	-0.515206	0.250420
H362	H	0.291313	-0.015206	0.750420
H363	H	-0.249924	-0.535089	0.286558
H364	H	0.250076	-0.035089	0.786558
H365	H	-0.239632	-0.461119	0.284188
H366	H	0.260368	0.038881	0.784188
H367	H	-0.280876	-0.480985	0.320323
H368	H	0.219124	0.019015	0.820323
H369	H	-0.303192	-0.462694	0.261415
H370	H	0.196808	0.037306	0.761415
H371	H	-0.261952	-0.442815	0.225280
H372	H	0.238048	0.057185	0.725280
H373	H	-0.303133	-0.417890	0.261497
H374	H	0.196867	0.082110	0.761497
H375	H	0.550093	-0.401597	0.325157
H376	H	1.050093	0.098403	0.825157
C377	C	0.550267	-0.392318	0.468701
C378	C	1.050267	0.107682	0.968701
C379	C	0.550213	-0.351733	0.428288
C380	C	1.050213	0.148267	0.928288
C381	C	0.550233	-0.316300	0.436989
C382	C	1.050233	0.183700	0.936989
H383	H	0.522818	-0.384908	0.494542
H384	H	1.022818	0.115092	0.994542
H385	H	0.577774	-0.403223	0.476167
H386	H	1.077774	0.096777	0.976167
H387	H	0.522708	-0.340829	0.420828
H388	H	1.022708	0.159171	0.920828
H389	H	0.577659	-0.359128	0.402442
H390	H	1.077659	0.140872	0.902442
H391	H	0.577740	-0.327204	0.444455
H392	H	1.077740	0.172796	0.944455
H393	H	0.522783	-0.308893	0.462831
H394	H	1.022783	0.191107	0.962831
H395	H	0.550200	-0.288760	0.409570
H396	H	1.050200	0.211240	0.909570
H397	H	0.137795	-0.462392	0.939581
H398	H	0.637795	0.037608	1.439581
H399	H	-0.064037	0.010563	0.527345
H400	H	0.435963	0.510563	1.027345
H401	H	0.138179	-0.603691	0.939539
H402	H	0.638179	-0.103691	1.439539
C403	C	0.176372	-0.518679	0.342671
C404	C	0.676372	-0.018679	0.842671
C405	C	0.205583	-0.564909	0.359716
C406	C	0.705583	-0.064909	0.859716
C407	C	0.249744	-0.573687	0.324319
C408	C	0.749744	-0.073687	0.824319
H409	H	0.172292	-0.515155	0.315737
H410	H	0.672292	-0.015155	0.815737
H411	H	0.190597	-0.496801	0.334039
H412	H	0.690597	0.003199	0.834039
H413	H	0.191362	-0.586781	0.368342
H414	H	0.691362	-0.086781	0.868342
H415	H	0.209677	-0.568445	0.386646
H416	H	0.709677	-0.068445	0.886646
H417	H	0.263969	-0.551809	0.315687
H418	H	0.763969	-0.051809	0.815687
H419	H	0.245659	-0.570160	0.297387
H420	H	0.745659	-0.070160	0.797387
H421	H	0.269571	-0.605053	0.335880
H422	H	0.769571	-0.105053	0.835880
C423	C	-0.230837	-0.604417	0.450782
C424	C	0.269163	-0.104417	0.950782
C425	C	-0.279564	-0.583778	0.458279
C426	C	0.220436	-0.083778	0.958279
C427	C	-0.304524	-0.595647	0.507010
C428	C	0.195476	-0.095647	1.007010
H429	H	-0.222797	-0.637870	0.464775
H430	H	0.277203	-0.137870	0.964775
H431	H	-0.222760	-0.593007	0.464759
H432	H	0.277240	-0.093007	0.964759
H433	H	-0.287638	-0.595191	0.444308
H434	H	0.212362	-0.095191	0.944308
H435	H	-0.287619	-0.550325	0.444297
H436	H	0.212381	-0.050325	0.944297
H437	H	-0.296447	-0.584237	0.520987
H438	H	0.203553	-0.084237	1.020987
H439	H	-0.296480	-0.629100	0.520999
H440	H	0.203520	-0.129100	1.020999
H441	H	-0.337588	-0.581642	0.512103
H442	H	0.162412	-0.081642	1.012103
H443	H	0.199204	-0.450885	0.713670
H444	H	0.699204	0.049115	1.213670
C445	C	0.038960	-0.374126	0.720444
C446	C	0.538960	0.125874	1.220444
C447	C	0.014236	-0.345602	0.688137
C448	C	0.514236	0.154398	1.188137
C449	C	-0.034541	-0.333546	0.712872
C450	C	0.465459	0.166454	1.212872
H451	H	0.030777	-0.402136	0.739796
H452	H	0.530777	0.097864	1.239796
H453	H	0.030825	-0.357279	0.739781
H454	H	0.530825	0.142721	1.239781
H455	H	0.022368	-0.362449	0.668808
H456	H	0.522368	0.137551	1.168808
H457	H	0.022405	-0.317586	0.668784
H458	H	0.522405	0.182414	1.168784
H459	H	-0.042677	-0.316699	0.732209
H460	H	0.457323	0.183301	1.232209
H461	H	-0.042719	-0.361559	0.732224
H462	H	0.457281	0.138441	1.232224
H463	H	-0.051322	-0.314188	0.690956
H464	H	0.448678	0.185812	1.190956
H465	H	0.229113	-0.420876	0.623698
H466	H	0.729113	0.079124	1.123698
H467	H	0.052069	-0.377412	0.551692
H468	H	0.552069	0.122588	1.051692
C469	C	0.207809	-0.458559	0.470387
C470	C	0.707809	0.041441	0.970387
C471	C	0.254054	-0.465490	0.463396
C472	C	0.754054	0.034510	0.963396
C473	C	0.286360	-0.493967	0.434845
C474	C	0.786360	0.006033	0.934845
H475	H	0.203123	-0.488317	0.485491
H476	H	0.703123	0.011683	0.985491
H477	H	0.203045	-0.443410	0.440653
H478	H	0.703045	0.056590	0.940653
H479	H	0.258816	-0.480640	0.493125
H480	H	0.758816	0.019360	0.993125
H481	H	0.258756	-0.435741	0.448287
H482	H	0.758756	0.064259	0.948287
H483	H	0.281596	-0.478818	0.405111
H484	H	0.781596	0.021182	0.905111
H485	H	0.281670	-0.523723	0.449952
H486	H	0.781670	-0.023723	0.949952
H487	H	0.317741	-0.498670	0.430094
H488	H	0.817741	0.001330	0.930094
H489	H	0.082085	-0.347427	0.581670
H490	H	0.582085	0.152573	1.081670
H491	H	0.077150	-0.603753	0.527142
H492	H	0.577150	-0.103753	1.027142
C493	C	0.227774	-0.465578	0.578907
C494	C	0.727774	0.034422	1.078907
C495	C	0.239807	-0.488604	0.548727
C496	C	0.739807	0.011396	1.048727
C497	C	0.215049	-0.520482	0.572211
C498	C	0.715049	-0.020482	1.072211
H499	H	0.235909	-0.488334	0.606456
H500	H	0.735909	0.011666	1.106456
H501	H	0.194678	-0.448824	0.587753
H502	H	0.694678	0.051176	1.087753
H503	H	0.272895	-0.505358	0.539887
H504	H	0.772895	-0.005358	1.039887
H505	H	0.231670	-0.465861	0.521177
H506	H	0.731670	0.034139	1.021177
H507	H	0.181954	-0.503728	0.581057
H508	H	0.681954	-0.003728	1.081057
H509	H	0.223187	-0.543235	0.599760
H510	H	0.723187	-0.043235	1.099760
H511	H	0.223207	-0.536106	0.551736
H512	H	0.723207	-0.036106	1.051736
C513	C	0.331277	-0.500009	0.544385
C514	C	0.831277	-0.000009	1.044385
C515	C	0.380014	-0.507655	0.524823
C516	C	0.880014	-0.007655	1.024823
C517	C	0.404926	-0.556024	0.531769
C518	C	0.904926	-0.056024	1.031769
H519	H	0.323234	-0.517357	0.577352
H520	H	0.823234	-0.017357	1.077352
H521	H	0.323163	-0.510282	0.529390
H522	H	0.823163	-0.010282	1.029390
H523	H	0.388125	-0.497387	0.539820
H524	H	0.888125	0.002613	1.039820
H525	H	0.388072	-0.490319	0.491856
H526	H	0.888072	0.009681	0.991856
H527	H	0.396812	-0.566297	0.516774
H528	H	0.896812	-0.066297	1.016774
H529	H	0.396879	-0.573368	0.564736
H530	H	0.896879	-0.073368	1.064736
H531	H	0.437996	-0.561218	0.518493
H532	H	0.937996	-0.061218	1.018493
C533	C	0.331100	-0.332612	0.480542
C534	C	0.831100	0.167388	0.980542
C535	C	0.319005	-0.299205	0.439956
C536	C	0.819005	0.200795	0.939956
C537	C	0.343762	-0.267299	0.416277
C538	C	0.843762	0.232701	0.916277
H539	H	0.323006	-0.316883	0.500891
H540	H	0.823006	0.183117	1.000891
H541	H	0.364195	-0.349360	0.471653
H542	H	0.864195	0.150640	0.971653
H543	H	0.285917	-0.282459	0.448845
H544	H	0.785917	0.217541	0.948845
H545	H	0.327100	-0.314921	0.419595
H546	H	0.827100	0.185079	0.919595
H547	H	0.376858	-0.284047	0.407388
H548	H	0.876858	0.215953	0.907388
H549	H	0.335667	-0.251573	0.436630
H550	H	0.835667	0.248427	0.936630
H551	H	0.335563	-0.244631	0.388735
H552	H	0.835563	0.255369	0.888735
C553	C	0.227628	-0.298209	0.515264
C554	C	0.727628	0.201791	1.015264
C555	C	0.199176	-0.291568	0.559253
C556	C	0.699176	0.208432	1.059253
C557	C	0.174296	-0.243200	0.552337
C558	C	0.674296	0.256800	1.052337
H559	H	0.249438	-0.281548	0.498872
H560	H	0.749438	0.218452	0.998872
H561	H	0.208232	-0.286567	0.497129
H562	H	0.708232	0.213433	0.997129
H563	H	0.218571	-0.303205	0.577380
H564	H	0.718571	0.196795	1.077380
H565	H	0.177358	-0.308219	0.575651
H566	H	0.677358	0.191781	1.075651
H567	H	0.154900	-0.231558	0.534203
H568	H	0.654900	0.268442	1.034203
H569	H	0.196109	-0.226543	0.535945
H570	H	0.696109	0.273457	1.035945
H571	H	0.154985	-0.238689	0.582182
H572	H	0.654985	0.261311	1.082182
H573	H	0.192214	-0.305222	0.471410
H574	H	0.692214	0.194778	0.971410
C575	C	0.165389	-0.208562	0.428202
C576	C	0.665389	0.291438	0.928202
C577	C	0.148518	-0.220636	0.407806
C578	C	0.648518	0.279364	0.907806
C579	C	0.160431	-0.195887	0.359028
C580	C	0.660431	0.304113	0.859028
H581	H	0.151456	-0.175466	0.422920
H582	H	0.651456	0.324534	0.922920
H583	H	0.198853	-0.216689	0.414229
H584	H	0.698853	0.283311	0.914229
H585	H	0.115061	-0.212506	0.421774
H586	H	0.615061	0.287494	0.921774
H587	H	0.162449	-0.253727	0.413074
H588	H	0.662449	0.246273	0.913074
H589	H	0.193895	-0.204014	0.345056
H590	H	0.693895	0.295986	0.845056
H591	H	0.146497	-0.162793	0.353751
H592	H	0.646497	0.337207	0.853751
H593	H	0.148990	-0.204079	0.345183
H594	H	0.648990	0.295921	0.845183
C595	C	0.081073	-0.208642	0.597236
C596	C	0.581073	0.291358	1.097236
C597	C	0.074160	-0.240986	0.643471
C598	C	0.574160	0.259014	1.143471
C599	C	0.045650	-0.216291	0.675800
C600	C	0.545650	0.283709	1.175800
H601	H	0.096175	-0.189283	0.592517
H602	H	0.596175	0.310717	1.092517
H603	H	0.051314	-0.189313	0.592526
H604	H	0.551314	0.310687	1.092526
H605	H	0.103915	-0.260307	0.648179
H606	H	0.603915	0.239693	1.148179
H607	H	0.059053	-0.260346	0.648205
H608	H	0.559053	0.239654	1.148205
H609	H	0.015890	-0.196962	0.671091
H610	H	0.515890	0.303038	1.171091
H611	H	0.060755	-0.196934	0.671078
H612	H	0.560755	0.303066	1.171078
H613	H	0.040952	-0.238233	0.707175
H614	H	0.540952	0.261767	1.207175
C615	C	-0.064848	-0.478020	0.158742
C616	C	0.435152	0.021980	0.658742
C617	C	-0.093402	-0.453308	0.191057
C618	C	0.406598	0.046692	0.691057
C619	C	-0.105422	-0.404524	0.166330
C620	C	0.394578	0.095476	0.666330
H621	H	-0.036829	-0.469852	0.139435
H622	H	0.463171	0.030148	0.639435
H623	H	-0.081662	-0.469856	0.139361
H624	H	0.418338	0.030144	0.639361
H625	H	-0.076588	-0.461469	0.210430
H626	H	0.423412	0.038531	0.710430
H627	H	-0.121427	-0.461461	0.210365
H628	H	0.378573	0.038539	0.710365
H629	H	-0.122236	-0.396360	0.146949
H630	H	0.377764	0.103640	0.646949
H631	H	-0.077401	-0.396362	0.147024
H632	H	0.422599	0.103638	0.647024
H633	H	-0.124801	-0.387751	0.188252
H634	H	0.375199	0.112249	0.688252
H635	H	0.229008	-0.420842	0.508101
H636	H	0.729008	0.079158	1.008101
H637	H	0.118851	-0.305270	0.618371
H638	H	0.618851	0.194730	1.118371
H639	H	-0.091654	-0.521212	0.255368
H640	H	0.408346	-0.021212	0.755368
H641	H	0.011877	-0.638258	0.165483
H642	H	0.511877	-0.138258	0.665483
H643	H	-0.091707	-0.521211	0.297556
H644	H	0.408293	-0.021211	0.797556
C645	C	-0.015063	-0.681438	0.262172
C646	C	0.484937	-0.181438	0.762172
C647	C	-0.031914	-0.701821	0.250065
C648	C	0.468086	-0.201821	0.750065
C649	C	-0.020057	-0.750590	0.274862
C650	C	0.479943	-0.250590	0.774862
H651	H	0.018388	-0.695462	0.254120
H652	H	0.518388	-0.195462	0.754120
H653	H	-0.029049	-0.686668	0.295263
H654	H	0.470951	-0.186668	0.795263
H655	H	-0.017926	-0.696594	0.216982
H656	H	0.482074	-0.196594	0.716982
H657	H	-0.065364	-0.687810	0.258119
H658	H	0.434636	-0.187810	0.758119
H659	H	-0.034043	-0.755820	0.307953
H660	H	0.465957	-0.255820	0.807953
H661	H	0.013394	-0.764610	0.266808
H662	H	0.513394	-0.264610	0.766808
H663	H	-0.031492	-0.764425	0.266654
H664	H	0.468508	-0.264425	0.766654
C665	C	-0.064934	-0.478026	0.324301
C666	C	0.435066	0.021974	0.824301
C667	C	-0.047981	-0.457655	0.274968
C668	C	0.452019	0.042345	0.774968
C669	C	-0.059838	-0.408888	0.262862
C670	C	0.440162	0.091112	0.762862
H671	H	-0.098389	-0.463989	0.335602
H672	H	0.401611	0.036011	0.835602
H673	H	-0.051012	-0.472801	0.338246
H674	H	0.448988	0.027199	0.838246
H675	H	-0.061905	-0.462876	0.261028
H676	H	0.438095	0.037124	0.761028
H677	H	-0.014528	-0.471678	0.263655
H678	H	0.485472	0.028322	0.763655
H679	H	-0.045916	-0.403663	0.276808
H680	H	0.454084	0.096337	0.776808
H681	H	-0.093292	-0.394855	0.274167
H682	H	0.406708	0.105145	0.774167
H683	H	-0.048333	-0.395060	0.229390
H684	H	0.451667	0.104940	0.729390
C685	C	0.019311	-0.647048	0.408952
C686	C	0.519311	-0.147048	0.908952
C687	C	0.060610	-0.675544	0.384098
C688	C	0.560610	-0.175544	0.884098
C689	C	0.089129	-0.707863	0.412609
C690	C	0.589129	-0.207863	0.912609
H691	H	0.027483	-0.630297	0.417131
H692	H	0.527483	-0.130297	0.917131
H693	H	0.002469	-0.666399	0.436973
H694	H	0.502469	-0.166399	0.936973
H695	H	0.077449	-0.656196	0.356086
H696	H	0.577449	-0.156196	0.856086
H697	H	0.052453	-0.692306	0.375920
H698	H	0.552453	-0.192306	0.875920
H699	H	0.072287	-0.727214	0.440630
H700	H	0.572287	-0.227214	0.940630
H701	H	0.097297	-0.691108	0.420786
H702	H	0.597297	-0.191108	0.920786
H703	H	0.117152	-0.727204	0.395751
H704	H	0.617152	-0.227204	0.895751
C705	C	-0.015191	-0.681434	0.374500
C706	C	0.484809	-0.181434	0.874500
C707	C	-0.032105	-0.701844	0.423830
C708	C	0.467895	-0.201844	0.923830
C709	C	-0.020178	-0.750618	0.435901
C710	C	0.479822	-0.250618	0.935901
H711	H	-0.029088	-0.686694	0.360565
H712	H	0.470912	-0.186694	0.860565
H713	H	0.018276	-0.695415	0.363166
H714	H	0.518276	-0.195415	0.863166
H715	H	-0.065565	-0.687867	0.435158
H716	H	0.434435	-0.187867	0.935158
H717	H	-0.018210	-0.696597	0.437776
H718	H	0.481790	-0.196597	0.937776
H719	H	0.013289	-0.764599	0.424568
H720	H	0.513289	-0.264599	0.924568
H721	H	-0.034076	-0.755874	0.421964
H722	H	0.465924	-0.255874	0.921964
H723	H	-0.031649	-0.764473	0.469373
H724	H	0.468351	-0.264473	0.969373
H725	H	0.047655	-0.763617	0.336709
H726	H	0.547655	-0.263617	0.836709
H727	H	-0.097938	-0.763465	0.391989
H728	H	0.402062	-0.263465	0.891989
C729	C	-0.141008	-0.666830	0.363866
C730	C	0.358992	-0.166830	0.863866
C731	C	-0.165387	-0.699130	0.387983
C732	C	0.334613	-0.199130	0.887983
C733	C	-0.213777	-0.674384	0.394949
C734	C	0.286223	-0.174384	0.894949
H735	H	-0.152735	-0.647465	0.382053
H736	H	0.347265	-0.147465	0.882053
H737	H	-0.145568	-0.647502	0.334041
H738	H	0.354432	-0.147502	0.834041
H739	H	-0.160830	-0.718449	0.417804
H740	H	0.339170	-0.218449	0.917804
H741	H	-0.153674	-0.718495	0.369804
H742	H	0.346326	-0.218495	0.869804
H743	H	-0.218338	-0.655056	0.365123
H744	H	0.281662	-0.155056	0.865123
H745	H	-0.225500	-0.655020	0.413135
H746	H	0.274500	-0.155020	0.913135
H747	H	-0.230324	-0.696295	0.411309
H748	H	0.269676	-0.196295	0.911309
H749	H	0.023152	-0.375173	0.352387
H750	H	0.523152	0.124827	0.852387
C751	C	-0.127394	-0.639053	0.416557
C752	C	0.372606	-0.139053	0.916557
C753	C	-0.159782	-0.645953	0.462768
C754	C	0.340218	-0.145953	0.962768
C755	C	-0.135141	-0.674457	0.495149
C756	C	0.364859	-0.174457	0.995149
H757	H	-0.108053	-0.668819	0.411877
H758	H	0.391947	-0.168819	0.911877
H759	H	-0.108054	-0.623936	0.411860
H760	H	0.391946	-0.123936	0.911860
H761	H	-0.179113	-0.661071	0.467464
H762	H	0.320887	-0.161071	0.967464
H763	H	-0.179124	-0.616196	0.467463
H764	H	0.320876	-0.116196	0.967463
H765	H	-0.115802	-0.659340	0.490451
H766	H	0.384198	-0.159340	0.990451
H767	H	-0.115801	-0.704221	0.490464
H768	H	0.384199	-0.204221	0.990464
H769	H	-0.157113	-0.679139	0.526506
H770	H	0.342887	-0.179139	1.026506
H771	H	-0.133793	-0.557888	0.260690
H772	H	0.366207	-0.057888	0.760690
