data_functionalizedCrystal
_audit_creation_method	'MofGen! by Chris Wilmer'
_symmetry_space_group_name_H-M	'P1'
_symmetry_Int_Tables_number	1
_symmetry_cell_setting	triclinic
loop_
_symmetry_equiv_pos_as_xyz
  x,y,z
_cell_length_a	10.540495
_cell_length_b	9.616153
_cell_length_c	14.971494
_cell_angle_alpha	90.000540
_cell_angle_beta	95.937468
_cell_angle_gamma	89.991527
loop_
_atom_site_label
_atom_site_type_symbol
_atom_site_fract_x
_atom_site_fract_y
_atom_site_fract_z
O1	O	-1.684502	0.115692	0.125862
O2	O	-1.314947	0.115683	0.137780
O3	O	-1.509624	0.115684	0.001676
O4	O	-1.489825	0.115690	0.261966
O5	O	-1.509597	-0.115607	0.001679
O6	O	-1.314920	-0.115609	0.137783
O7	O	-1.684475	-0.115600	0.125865
Zn8	Zn	-1.499693	-0.152327	0.131824
Zn9	Zn	-1.499728	0.152410	0.131821
O10	O	-1.489798	-0.115601	0.261969
C11	C	-1.267640	0.000036	0.136896
C12	C	-1.126719	0.000032	0.134247
N13	N	-1.499679	-0.360301	0.131826
C14	C	-1.054912	0.000036	0.231583
C15	C	-0.908329	0.000565	0.228860
C16	C	-0.934993	0.131857	0.081320
C17	C	-1.081495	0.131964	0.084733
C18	C	-1.081884	-0.131067	0.083296
C19	C	-0.934914	-0.132796	0.082363
C20	C	-1.395227	-0.580672	0.204388
C21	C	-1.395452	-0.419505	0.204660
C22	C	-1.632165	-0.418747	0.153044
C23	C	-1.631594	-0.579965	0.153557
C24	C	-1.472969	-0.580216	0.037809
C25	C	-1.469915	-0.418989	0.038418
C26	C	-0.731780	0.000045	0.126761
C27	C	-0.872694	0.000042	0.129445
C28	C	-1.508723	0.000041	-0.031652
C29	C	-1.506064	0.000047	-0.130963
N30	N	-1.499753	0.360384	0.131811
C31	C	-1.504832	0.126126	-0.177617
C32	C	-1.502325	0.126127	-0.270929
C33	C	-1.501060	0.000049	-0.317588
C34	C	-1.502288	-0.126039	-0.270928
C35	C	-1.504785	-0.126039	-0.177616
C36	C	-1.497085	-0.126030	-0.465420
C37	C	-1.494590	-0.126030	-0.558739
C38	C	-1.494625	0.126137	-0.558733
C39	C	-1.497123	0.126137	-0.465421
C40	C	-1.498353	0.000048	-0.418768
C41	C	-1.490699	0.000045	0.295297
C42	C	-1.493358	0.000048	0.394608
H43	H	-0.865225	-0.093903	0.266713
Br44	Br	-1.104572	0.157355	0.296431
Br45	Br	-1.102599	-0.156810	0.297673
Br46	Br	-1.133747	-0.297644	0.137295
Br47	Br	-1.492949	0.297258	-0.622046
Br48	Br	-0.863512	0.295988	0.136377
H49	H	-0.911547	-0.141149	0.009900
Br50	Br	-1.162865	0.141332	-0.034435
H51	H	-1.296977	-0.379992	0.191896
H52	H	-1.129952	-0.132340	0.011500
Br53	Br	-0.865907	-0.295339	0.140979
Br54	Br	-1.230564	-0.645322	0.183428
H55	H	-0.866181	0.095612	0.266548
H56	H	-1.493548	-0.228695	-0.596725
H57	H	-1.549193	-0.618331	-0.016210
H58	H	-0.913504	0.136384	0.008302
Br59	Br	-1.506563	0.297242	-0.114304
Br60	Br	-1.506450	-0.297153	-0.114299
Br61	Br	-1.423911	-0.355186	0.320914
H62	H	-1.501328	0.228793	-0.308911
H63	H	-1.412110	-0.621168	0.273736
Br64	Br	-1.764906	-0.354837	0.067341
H65	H	-1.378458	-0.620956	0.017612
H66	H	-1.655174	-0.617550	0.222138
Br67	Br	-1.588546	-0.351850	-0.055925
Br68	Br	-1.765009	-0.644956	0.068776
H69	H	-1.656296	-0.378354	0.220850
Br70	Br	-1.307476	-0.355330	0.011609
H71	H	-1.498163	0.228801	-0.427435
H72	H	-1.501249	-0.228694	-0.308925
Br73	Br	-1.127903	0.296824	0.143304
Br74	Br	-1.498757	-0.297152	-0.402105
