data_functionalizedCrystal
_audit_creation_method	'MofGen! by Chris Wilmer'
_symmetry_space_group_name_H-M	'P1'
_symmetry_Int_Tables_number	1
_symmetry_cell_setting	triclinic
loop_
_symmetry_equiv_pos_as_xyz
  x,y,z
_cell_length_a	11.792254
_cell_length_b	15.944551
_cell_length_c	10.868271
_cell_angle_alpha	89.993912
_cell_angle_beta	89.995741
_cell_angle_gamma	83.848668
loop_
_atom_site_label
_atom_site_type_symbol
_atom_site_fract_x
_atom_site_fract_y
_atom_site_fract_z
O1	O	1.505951	0.115179	-0.102324
O2	O	1.175514	0.127033	-0.102327
O3	O	1.349756	-0.001128	-0.102314
O4	O	1.331709	0.243340	-0.102337
O5	O	1.349742	-0.001133	0.102330
O6	O	1.175500	0.127028	0.102318
O7	O	1.505937	0.115174	0.102321
Zn8	Zn	1.340716	0.121100	0.134811
Zn9	Zn	1.340735	0.121107	-0.134817
O10	O	1.331695	0.243335	0.102308
C11	C	1.133222	0.126284	-0.000005
C12	C	1.007228	0.124049	-0.000006
C13	C	0.904906	0.122233	-0.000011
C14	C	0.776538	0.119962	-0.000011
C15	C	1.349000	-0.032428	0.000008
C16	C	1.346753	-0.125684	0.000009
C17	C	1.233381	-0.341056	-0.000009
C18	C	1.286021	-0.401837	0.100894
C19	C	1.342690	-0.296428	-0.000001
C20	C	1.286060	-0.401815	-0.100870
C21	C	1.338757	-0.461359	-0.000015
C22	C	1.395359	-0.355981	0.100985
C23	C	1.395384	-0.355953	-0.100869
C24	C	1.448102	-0.416715	0.000058
C25	C	1.344953	-0.201416	0.000009
C26	C	1.336503	-0.556370	-0.000016
C27	C	1.548228	0.115923	-0.000004
C28	C	1.674223	0.118158	-0.000011
C29	C	1.332451	0.274634	-0.000017
C30	C	1.334697	0.367891	-0.000026
N31	N	1.340711	0.121095	0.318825
N32	N	1.340748	0.121105	-0.318831
C33	C	1.340729	0.121105	0.569831
C34	C	1.340715	0.121102	0.430153
H35	H	1.142650	-0.308161	0.000091
Cl36	Cl	1.214660	-0.433155	-0.232565
Cl37	Cl	1.214635	-0.433211	0.232598
H38	H	1.441547	-0.335782	0.186384
H39	H	1.538913	-0.449461	0.000116
Cl40	Cl	1.466713	-0.324541	-0.232580
