data_functionalizedCrystal
_audit_creation_method	'MofGen! by Chris Wilmer'
_symmetry_space_group_name_H-M	'P1'
_symmetry_Int_Tables_number	1
_symmetry_cell_setting	triclinic
loop_
_symmetry_equiv_pos_as_xyz
  x,y,z
_cell_length_a	25.639243
_cell_length_b	25.639239
_cell_length_c	16.120297
_cell_angle_alpha	92.868703
_cell_angle_beta	92.875565
_cell_angle_gamma	90.041410
loop_
_atom_site_label
_atom_site_type_symbol
_atom_site_fract_x
_atom_site_fract_y
_atom_site_fract_z
Zn1	Zn	0.784262	-0.223118	-0.471425
Zn2	Zn	0.788611	-0.306118	-0.332008
Zn3	Zn	0.701263	-0.218703	-0.332023
Zn4	Zn	0.696786	-0.310527	-0.471367
O5	O	0.742730	-0.264616	-0.401705
O6	O	0.858004	-0.234131	-0.452949
O7	O	0.780718	-0.290830	-0.215348
O8	O	0.712327	-0.146125	-0.350545
O9	O	0.861199	-0.295111	-0.350520
O10	O	0.773306	-0.149368	-0.452963
O11	O	0.716544	-0.226606	-0.215358
O12	O	0.627505	-0.230881	-0.350489
O13	O	0.704696	-0.302624	-0.588037
O14	O	0.624215	-0.298343	-0.452864
O15	O	0.768965	-0.238406	-0.588079
O16	O	0.776376	-0.379867	-0.350464
O17	O	0.708912	-0.383106	-0.452850
C18	C	0.742644	-0.400458	-0.401667
C19	C	0.742654	-0.458572	-0.401679
C20	C	0.606889	-0.264612	-0.401672
C21	C	0.548775	-0.264623	-0.401678
C22	C	0.777943	-0.817240	-0.348484
C23	C	0.777963	-0.871845	-0.348495
O24	O	0.807878	-0.898639	-0.303225
N25	N	0.742821	-0.900857	-0.401761
C26	C	0.707660	-0.875263	-0.455025
O27	O	0.677770	-0.904954	-0.500333
C28	C	0.707643	-0.820659	-0.455017
C29	C	0.742784	-0.791649	-0.401742
C30	C	0.813082	-0.788230	-0.295214
C31	C	0.813061	-0.733629	-0.295202
C32	C	0.777902	-0.708038	-0.348460
C33	C	0.742763	-0.737048	-0.401730
C34	C	0.672484	-0.795066	-0.508285
C35	C	0.672471	-0.740458	-0.508273
C36	C	0.707612	-0.711448	-0.454998
C37	C	0.707583	-0.656856	-0.454976
N38	N	0.742725	-0.627844	-0.401710
C39	C	0.777885	-0.653435	-0.348452
C40	C	0.707699	-0.989934	-0.455038
C41	C	0.707713	-1.044536	-0.455042
C42	C	0.778017	-1.041114	-0.348513
C43	C	0.778000	-0.986511	-0.348505
C44	C	0.742841	-0.960921	-0.401772
C45	C	0.777838	-0.538769	-0.348430
C46	C	0.777813	-0.484163	-0.348421
C47	C	0.707511	-0.487590	-0.454952
C48	C	0.707534	-0.542191	-0.454959
C49	C	0.742702	-0.567779	-0.401696
O50	O	0.677685	-0.630027	-0.500226
O51	O	0.807774	-0.623737	-0.303159
C52	C	0.186739	-0.232920	-0.455129
C53	C	0.132134	-0.232919	-0.455134
O54	O	0.102477	-0.205953	-0.500539
N55	N	0.106491	-0.264616	-0.401728
C56	C	0.135455	-0.296310	-0.348308
O57	O	0.108629	-0.323270	-0.302882
C58	C	0.190058	-0.296307	-0.348299
C59	C	0.215699	-0.264613	-0.401714
C60	C	0.212380	-0.201227	-0.508539
C61	C	0.266980	-0.201229	-0.508535
C62	C	0.295940	-0.232922	-0.455120
C63	C	0.270299	-0.264614	-0.401710
C64	C	0.219021	-0.327999	-0.294875
C65	C	0.273628	-0.327993	-0.294871
C66	C	0.299269	-0.296299	-0.348286
C67	C	0.353860	-0.296309	-0.348291
N68	N	0.379504	-0.264612	-0.401697
C69	C	0.350544	-0.232919	-0.455112
C70	C	0.020783	-0.296313	-0.348329
C71	C	-0.033819	-0.296319	-0.348342
C72	C	-0.037136	-0.232927	-0.455167
C73	C	0.017468	-0.232925	-0.455158
C74	C	0.046427	-0.264617	-0.401735
C75	C	0.465209	-0.232924	-0.455099
C76	C	0.519815	-0.232930	-0.455093
C77	C	0.523127	-0.296319	-0.348264
C78	C	0.468526	-0.296316	-0.348274
C79	C	0.439568	-0.264614	-0.401694
O80	O	0.383552	-0.323260	-0.302907
O81	O	0.377377	-0.205959	-0.500522
C82	C	0.879102	-0.264621	-0.401739
C83	C	0.937216	-0.264624	-0.401753
C84	C	0.735846	-0.271499	-0.619153
C85	C	0.732912	-0.274432	-0.711816
C86	C	0.742831	-0.128245	-0.401762
C87	C	0.742874	-0.070132	-0.401786
C88	C	0.727536	-0.279776	-0.881473
C89	C	0.758028	-0.249301	-0.922790
C90	C	0.755037	-0.252274	-1.017193
C91	C	0.730526	-0.276803	-0.787061
C92	C	0.749619	-0.257723	-0.185104
C93	C	0.752654	-0.254642	-0.092441
H94	H	0.806477	-0.559596	-0.305060
H95	H	0.806429	-0.460544	-0.305035
C96	C	0.843078	-0.712369	-0.154072
C97	C	0.851697	-0.701748	-0.236648
H98	H	0.866935	-0.692692	-0.117925
H99	H	0.808347	-0.703063	-0.141812
H100	H	0.848114	-0.748554	-0.146474
H101	H	0.846657	-0.665563	-0.244247
H102	H	0.886436	-0.711051	-0.248911
C103	C	0.638220	-1.042420	-0.560339
C104	C	0.669081	-1.076420	-0.513599
H105	H	0.614374	-1.062104	-0.596497
H106	H	0.619385	-1.020005	-0.523978
H107	H	0.659973	-1.022099	-0.592253
H108	H	0.647329	-1.096739	-0.481680
H109	H	0.687918	-1.098844	-0.549964
C110	C	0.701170	-0.369144	-0.908445
C111	C	0.689268	-0.318014	-0.929423
H112	H	0.677544	-0.392750	-0.938052
H113	H	0.735849	-0.377228	-0.922680
H114	H	0.698180	-0.372131	-0.850375
H115	H	0.692261	-0.315025	-0.987492
H116	H	0.654580	-0.309927	-0.915194
H117	H	0.841716	-0.809060	-0.251844
C118	C	0.403494	-0.162967	-0.466914
C119	C	0.433386	-0.198080	-0.513823
H120	H	0.383850	-0.141457	-0.503173
H121	H	0.380404	-0.181839	-0.435119
H122	H	0.425958	-0.141787	-0.430648
H123	H	0.410921	-0.219263	-0.550086
H124	H	0.456478	-0.179207	-0.545633
H125	H	0.786379	-0.220977	-0.887264
C126	C	0.641222	-0.658276	-0.555575
C127	C	0.633822	-0.712331	-0.566826
H128	H	0.617363	-0.640913	-0.591726
H129	H	0.635365	-0.647578	-0.499555
H130	H	0.675956	-0.649678	-0.567827
H131	H	0.599089	-0.720929	-0.554568
H132	H	0.639674	-0.723033	-0.622859
H133	H	0.806615	-0.962894	-0.305124
C134	C	0.677511	-0.475232	-0.596078
C135	C	0.668870	-0.459452	-0.513499
H136	H	0.653656	-0.457862	-0.632225
H137	H	0.712243	-0.466634	-0.608312
H138	H	0.672486	-0.511904	-0.603703
H139	H	0.673899	-0.422781	-0.505873
H140	H	0.634130	-0.468047	-0.501262
C141	C	0.608307	-0.324452	-0.300825
C142	C	0.554967	-0.331152	-0.289548
H143	H	0.627964	-0.345952	-0.264567
H144	H	0.615482	-0.333936	-0.356808
H145	H	0.617652	-0.288924	-0.288732
H146	H	0.545621	-0.366680	-0.301646
H147	H	0.547789	-0.321672	-0.233552
C148	C	0.641293	-0.880280	-0.555632
C149	C	0.633860	-0.826945	-0.566855
H150	H	0.617445	-0.899959	-0.591793
H151	H	0.676028	-0.889574	-0.567882
H152	H	0.635437	-0.887478	-0.499611
H153	H	0.639720	-0.819746	-0.622875
H154	H	0.599117	-0.817647	-0.554611
H155	H	0.679064	-0.969101	-0.498411
C156	C	0.809321	-1.123307	-0.301341
C157	C	0.816710	-1.069253	-0.290043
H158	H	0.833221	-1.140679	-0.265270
H159	H	0.774610	-1.131924	-0.289019
H160	H	0.815129	-1.133977	-0.357397
H161	H	0.810898	-1.058583	-0.233988
H162	H	0.851430	-1.060633	-0.302360
H163	H	0.540689	-0.207120	-0.498593
C164	C	0.258201	-0.138562	-0.614111
C165	C	0.295160	-0.166380	-0.567239
H166	H	0.275597	-0.117043	-0.650347
H167	H	0.235889	-0.162382	-0.645940
H168	H	0.238058	-0.117388	-0.577832
H169	H	0.315301	-0.187557	-0.603518
H170	H	0.317481	-0.142558	-0.535408
C171	C	0.127207	-0.173076	-0.556008
C172	C	0.180552	-0.166389	-0.567263
H173	H	0.107562	-0.151566	-0.592265
H174	H	0.117854	-0.208596	-0.568107
H175	H	0.120026	-0.163591	-0.500019
H176	H	0.187733	-0.175877	-0.623250
H177	H	0.189908	-0.130860	-0.555170
C178	C	-0.122316	-0.204782	-0.502595
C179	C	-0.068976	-0.198085	-0.513878
H180	H	-0.141973	-0.183270	-0.538836
H181	H	-0.131666	-0.240302	-0.514699
H182	H	-0.129486	-0.195305	-0.446599
H183	H	-0.061806	-0.207566	-0.569872
H184	H	-0.059623	-0.162556	-0.501780
C185	C	0.008692	-0.170268	-0.560751
C186	C	0.045649	-0.198082	-0.513868
H187	H	0.026090	-0.148754	-0.596993
H188	H	-0.013620	-0.194089	-0.592573
H189	H	-0.011451	-0.149089	-0.524479
H190	H	0.065790	-0.219264	-0.550140
H191	H	0.067971	-0.174257	-0.482043
H192	H	0.678921	-0.565812	-0.498343
H193	H	-0.054692	-0.322134	-0.304855
C194	C	0.082508	-0.366264	-0.336534
C195	C	0.052614	-0.331160	-0.289613
H196	H	0.102159	-0.387773	-0.300283
H197	H	0.060049	-0.387441	-0.372799
H198	H	0.105596	-0.347382	-0.368331
H199	H	0.029523	-0.350041	-0.257820
H200	H	0.075075	-0.309979	-0.253333
C201	C	0.227808	-0.390642	-0.189264
C202	C	0.190847	-0.362834	-0.236150
H203	H	0.210414	-0.412144	-0.153002
H204	H	0.247944	-0.411826	-0.225527
H205	H	0.250127	-0.366812	-0.157455
H206	H	0.168530	-0.386664	-0.267964
H207	H	0.170702	-0.341648	-0.199882
H208	H	0.297204	-0.353801	-0.251365
H209	H	0.447648	-0.322130	-0.304788
