data_functionalizedCrystal
_audit_creation_method	'MofGen! by Chris Wilmer'
_symmetry_space_group_name_H-M	'P1'
_symmetry_Int_Tables_number	1
_symmetry_cell_setting	triclinic
loop_
_symmetry_equiv_pos_as_xyz
  x,y,z
_cell_length_a	29.839131
_cell_length_b	18.050591
_cell_length_c	29.839111
_cell_angle_alpha	90.067377
_cell_angle_beta	89.880971
_cell_angle_gamma	89.962574
loop_
_atom_site_label
_atom_site_type_symbol
_atom_site_fract_x
_atom_site_fract_y
_atom_site_fract_z
Zn1	Zn	-0.178515	-1.135565	-0.254081
Zn2	Zn	0.321485	-0.635565	0.245919
Zn3	Zn	-0.253760	-1.135347	-0.178951
Zn4	Zn	0.246240	-0.635347	0.321049
Zn5	Zn	-0.178639	-1.011284	-0.178955
Zn6	Zn	0.321361	-0.511284	0.321045
Zn7	Zn	-0.253613	-1.011304	-0.254045
Zn8	Zn	0.246387	-0.511304	0.245955
O9	O	-0.216132	-1.073375	-0.216508
O10	O	0.283868	-0.573375	0.283492
O11	O	-0.188505	-1.239461	-0.244129
O12	O	0.311495	-0.739461	0.255871
O13	O	-0.243908	-1.118789	-0.116084
O14	O	0.256092	-0.618789	0.383916
O15	O	-0.115756	-1.027853	-0.188938
O16	O	0.384244	-0.527853	0.311062
O17	O	-0.243787	-1.239300	-0.188931
O18	O	0.256213	-0.739300	0.311069
O19	O	-0.115664	-1.119162	-0.244133
O20	O	0.384336	-0.619162	0.255867
O21	O	-0.188717	-1.027641	-0.116088
O22	O	0.311283	-0.527641	0.383912
O23	O	-0.188576	-0.907362	-0.188903
O24	O	0.311424	-0.407362	0.311097
O25	O	-0.243538	-1.027887	-0.316917
O26	O	0.256462	-0.527887	0.183083
O27	O	-0.243659	-0.907377	-0.244070
O28	O	0.256341	-0.407377	0.255930
O29	O	-0.188363	-1.119182	-0.316944
O30	O	0.311637	-0.619182	0.183056
O31	O	-0.316607	-1.118809	-0.188895
O32	O	0.183393	-0.618809	0.311105
O33	O	-0.316500	-1.027675	-0.244066
O34	O	0.183500	-0.527675	0.255934
C35	C	-0.216115	-0.880423	-0.216483
C36	C	0.283885	-0.380423	0.283517
C37	C	-0.216119	-0.797877	-0.216483
C38	C	0.283881	-0.297877	0.283517
C39	C	-0.332854	-1.073241	-0.216486
C40	C	0.167146	-0.573241	0.283514
C41	C	-0.382789	-1.073251	-0.216491
C42	C	0.117211	-0.573251	0.283509
C43	C	-0.215920	-1.073561	-0.333687
C44	C	0.284080	-0.573561	0.166313
C45	C	-0.215830	-1.073641	-0.383621
C46	C	0.284170	-0.573641	0.116379
C47	C	-0.692475	-1.120915	-0.187823
C48	C	-0.192475	-0.620915	0.312177
C49	C	-0.880148	-1.121006	-0.187840
C50	C	-0.380148	-0.621006	0.312160
O51	O	-0.904450	-1.161425	-0.163448
O52	O	-0.404450	-0.661425	0.336552
N53	N	-0.903574	-1.073529	-0.216542
N54	N	-0.403574	-0.573529	0.283458
C55	C	-0.880078	-1.026029	-0.245244
C56	C	-0.380078	-0.526029	0.254756
O57	O	-0.904309	-0.985654	-0.269660
O58	O	-0.404309	-0.485654	0.230340
C59	C	-0.692406	-1.025941	-0.245228
C60	C	-0.192406	-0.525941	0.254772
C61	C	-0.668983	-1.073416	-0.216521
C62	C	-0.168983	-0.573416	0.283479
C63	C	-0.669052	-1.168386	-0.159118
C64	C	-0.169052	-0.668386	0.340882
C65	C	-0.622137	-1.168360	-0.159112
C66	C	-0.122137	-0.668360	0.340888
C67	C	-0.598645	-1.120862	-0.187811
C68	C	-0.098645	-0.620862	0.312189
C69	C	-0.622067	-1.073390	-0.216515
C70	C	-0.122067	-0.573390	0.283485
C71	C	-0.668911	-0.978445	-0.273932
C72	C	-0.168911	-0.478445	0.226068
C73	C	-0.621990	-0.978429	-0.273926
C74	C	-0.121990	-0.478429	0.226074
C75	C	-0.598567	-1.025904	-0.245219
C76	C	-0.098567	-0.525904	0.254781
C77	C	-0.551659	-1.025866	-0.245208
C78	C	-0.051659	-0.525866	0.254792
N79	N	-0.528234	-1.073343	-0.216506
N80	N	-0.028234	-0.573343	0.283494
C81	C	-0.551727	-1.120841	-0.187808
C82	C	-0.051727	-0.620841	0.312192
C83	C	-0.978608	-1.026077	-0.245249
C84	C	-0.478608	-0.526077	0.254751
C85	C	-1.025526	-1.026098	-0.245253
C86	C	-0.525526	-0.526098	0.254747
C87	C	-1.025594	-1.121076	-0.187849
C88	C	-0.525594	-0.621076	0.312151
C89	C	-0.978675	-1.121051	-0.187844
C90	C	-0.478675	-0.621051	0.312156
C91	C	-0.955183	-1.073554	-0.216547
C92	C	-0.455183	-0.573554	0.283453
C93	C	-0.453201	-1.120782	-0.187797
C94	C	0.046799	-0.620782	0.312203
C95	C	-0.406281	-1.120749	-0.187793
C96	C	0.093719	-0.620749	0.312207
C97	C	-0.406218	-1.025774	-0.245197
C98	C	0.093782	-0.525774	0.254803
C99	C	-0.453134	-1.025803	-0.245200
C100	C	0.046866	-0.525803	0.254800
C101	C	-0.476624	-1.073314	-0.216499
C102	C	0.023376	-0.573314	0.283501
O103	O	-0.527329	-0.985474	-0.269591
O104	O	-0.027329	-0.485474	0.230409
O105	O	-0.527488	-1.161222	-0.163402
O106	O	-0.027488	-0.661222	0.336598
C107	C	-0.739391	-1.120941	-0.187828
C108	C	-0.239391	-0.620941	0.312172
C109	C	-0.762814	-1.073469	-0.216533
C110	C	-0.262814	-0.573469	0.283467
C111	C	-0.739321	-1.025971	-0.245231
C112	C	-0.239321	-0.525971	0.254769
C113	C	-0.809732	-1.073490	-0.216536
C114	C	-0.309732	-0.573490	0.283464
C115	C	-0.833224	-1.120988	-0.187838
C116	C	-0.333224	-0.620988	0.312162
C117	C	-0.809799	-1.168465	-0.159136
C118	C	-0.309799	-0.668465	0.340864
C119	C	-0.762883	-1.168439	-0.159130
C120	C	-0.262883	-0.668439	0.340870
C121	C	-0.762747	-0.978494	-0.273933
C122	C	-0.262747	-0.478494	0.226067
C123	C	-0.809662	-0.978523	-0.273936
C124	C	-0.309662	-0.478523	0.226064
C125	C	-0.833155	-1.026021	-0.245238
C126	C	-0.333155	-0.526021	0.254762
C127	C	-0.098953	-1.073530	-0.216540
C128	C	0.401047	-0.573530	0.283460
C129	C	-0.049019	-1.073596	-0.216554
C130	C	0.450981	-0.573596	0.283446
C131	C	-0.216149	-1.267081	-0.216533
C132	C	0.283851	-0.767081	0.283467
C133	C	-0.216156	-1.349626	-0.216544
C134	C	0.283844	-0.849626	0.283456
C135	C	-0.186130	-0.598397	-0.186552
C136	C	0.313870	-0.098397	0.313448
C137	C	-0.227123	-0.548947	-0.175494
C138	C	0.272877	-0.048947	0.324506
C139	C	-0.216132	-0.646747	-0.216504
C140	C	0.283868	-0.146747	0.283496
C141	C	-0.175153	-0.549115	-0.227560
C142	C	0.324847	-0.049115	0.272440
C143	C	-0.216142	-0.500762	-0.216522
C144	C	0.283858	-0.000762	0.283478
C145	C	-0.257147	-0.598384	-0.205424
C146	C	0.242853	-0.098384	0.294576
C147	C	-0.205150	-0.598556	-0.257509
C148	C	0.294850	-0.098556	0.242491
C149	C	-0.246171	-0.549129	-0.246467
C150	C	0.253829	-0.049129	0.253533
C151	C	-0.216126	-0.730845	-0.216492
C152	C	0.283874	-0.230845	0.283508
C153	C	-0.216153	-0.416665	-0.216534
C154	C	0.283847	0.083335	0.283466
C155	C	-0.216310	-1.073232	-0.099785
C156	C	0.283690	-0.573232	0.400215
C157	C	-0.216273	-1.073297	-0.049851
C158	C	0.283727	-0.573297	0.450149
C159	C	-0.187093	-1.120663	0.306605
C160	C	0.312907	-0.620663	0.806605
C161	C	-0.187221	-1.120567	0.118932
C162	C	0.312779	-0.620567	0.618932
O163	O	-0.162619	-1.160662	0.094556
O164	O	0.337381	-0.660662	0.594556
N165	N	-0.216172	-1.073369	0.095594
N166	N	0.283828	-0.573369	0.595594
C167	C	-0.245090	-1.026188	0.119177
C168	C	0.254910	-0.526188	0.619177
O169	O	-0.269714	-0.986036	0.095020
O170	O	0.230286	-0.486036	0.595020
C171	C	-0.244959	-1.026282	0.306849
C172	C	0.255041	-0.526282	0.806849
C173	C	-0.216010	-1.073488	0.330185
C174	C	0.283990	-0.573488	0.830185
C175	C	-0.158146	-1.167865	0.329941
C176	C	0.341854	-0.667865	0.829941
C177	C	-0.158116	-1.167892	0.376856
C178	C	0.341884	-0.667892	0.876856
C179	C	-0.187033	-1.120716	0.400436
C180	C	0.312967	-0.620716	0.900436
C181	C	-0.215980	-1.073515	0.377100
C182	C	0.284020	-0.573515	0.877100
C183	C	-0.273875	-0.979098	0.330431
C184	C	0.226125	-0.479098	0.830431
C185	C	-0.273839	-0.979124	0.377352
C186	C	0.226161	-0.479124	0.877352
C187	C	-0.244890	-1.026330	0.400688
C188	C	0.255110	-0.526330	0.900688
C189	C	-0.244867	-1.026366	0.447595
C190	C	0.255133	-0.526366	0.947595
N191	N	-0.215917	-1.073564	0.470933
N192	N	0.284083	-0.573564	0.970933
C193	C	-0.187000	-1.120739	0.447354
C194	C	0.313000	-0.620739	0.947354
C195	C	-0.245157	-1.026144	0.020647
C196	C	0.254843	-0.526144	0.520647
C197	C	-0.245190	-1.026121	-0.026271
C198	C	0.254810	-0.526121	0.473729
C199	C	-0.187321	-1.120499	-0.026513
C200	C	0.312679	-0.620499	0.473487
C201	C	-0.187290	-1.120525	0.020406
C202	C	0.312710	-0.620525	0.520406
C203	C	-0.216207	-1.073342	0.043985
C204	C	0.283793	-0.573342	0.543985
C205	C	-0.186939	-1.120792	0.545879
C206	C	0.313061	-0.620792	1.045879
C207	C	-0.186913	-1.120816	0.592799
C208	C	0.313087	-0.620816	1.092799
C209	C	-0.244781	-1.026436	0.593036
C210	C	0.255219	-0.526436	1.093036
C211	C	-0.244809	-1.026414	0.546121
C212	C	0.255191	-0.526414	1.046121
C213	C	-0.215884	-1.073594	0.522544
C214	C	0.284116	-0.573594	1.022544
O215	O	-0.269453	-0.986286	0.472000
O216	O	0.230547	-0.486286	0.972000
O217	O	-0.162373	-1.160874	0.471518
O218	O	0.337627	-0.660874	0.971518
C219	C	-0.187123	-1.120637	0.259690
C220	C	0.312877	-0.620637	0.759690
C221	C	-0.216070	-1.073435	0.236354
C222	C	0.283930	-0.573435	0.736354
C223	C	-0.244987	-1.026259	0.259934
C224	C	0.255013	-0.526259	0.759934
C225	C	-0.216104	-1.073412	0.189436
C226	C	0.283896	-0.573412	0.689436
C227	C	-0.187187	-1.120588	0.165856
C228	C	0.312813	-0.620588	0.665856
C229	C	-0.158236	-1.167786	0.189194
C230	C	0.341764	-0.667786	0.689194
C231	C	-0.158206	-1.167812	0.236110
C232	C	0.341794	-0.667812	0.736110
C233	C	-0.273938	-0.979062	0.236596
C234	C	0.226062	-0.479062	0.736596
C235	C	-0.273966	-0.979039	0.189680
C236	C	0.226034	-0.479039	0.689680
C237	C	-0.245049	-1.026215	0.166100
C238	C	0.254951	-0.526215	0.666100
H239	H	-0.387212	-1.159409	-0.164414
H240	H	0.112788	-0.659409	0.335586
H241	H	-0.603069	-1.207021	-0.135738
H242	H	-0.103069	-0.707021	0.364262
Cl243	Cl	-0.310193	-0.919803	0.406991
Cl244	Cl	0.189807	-0.419803	0.906991
H245	H	-0.268707	-0.987722	0.039840
H246	H	0.231293	-0.487722	0.539840
H247	H	-0.472321	-1.159471	-0.164427
H248	H	0.027679	-0.659471	0.335573
H249	H	-0.297448	-0.940657	0.311439
H250	H	0.202552	-0.440657	0.811439
Cl251	Cl	-0.281130	-0.967130	0.622688
Cl252	Cl	0.218870	-0.467130	1.122688
H253	H	-0.959607	-1.159710	-0.164469
H254	H	-0.459607	-0.659710	0.335531
Cl255	Cl	-0.150895	-1.179870	0.049737
Cl256	Cl	0.349105	-0.679870	0.549737
Cl257	Cl	-0.281204	-0.967072	0.516784
Cl258	Cl	0.218796	-0.467072	1.016784
H259	H	-0.297544	-0.940600	0.170684
H260	H	0.202456	-0.440600	0.670684
Cl261	Cl	-0.121810	-1.227160	0.265439
Cl262	Cl	0.378190	-0.727160	0.765439
Cl263	Cl	-0.733444	-1.228129	-0.123041
Cl264	Cl	-0.233444	-0.728129	0.376959
H265	H	-0.268768	-0.987689	-0.045267
H266	H	0.231232	-0.487689	0.454733
Cl267	Cl	-0.698578	-1.228107	-0.123035
Cl268	Cl	-0.198578	-0.728107	0.376965
H269	H	-0.160785	-0.620030	-0.161196
H270	H	0.339215	-0.120030	0.338804
Cl271	Cl	-1.055136	-1.180787	-0.151771
Cl272	Cl	-0.555136	-0.680787	0.348229
H273	H	-0.602865	-0.939752	-0.297301
H274	H	-0.102865	-0.439752	0.202699
Cl275	Cl	-0.839102	-0.918833	-0.310029
Cl276	Cl	-0.339102	-0.418833	0.189971
Cl277	Cl	-1.054966	-0.966403	-0.281338
Cl278	Cl	-0.554966	-0.466403	0.218662
H279	H	-0.828935	-1.207138	-0.135767
H280	H	-0.328935	-0.707138	0.364233
Cl281	Cl	-0.310675	-0.631655	-0.190935
Cl282	Cl	0.189325	-0.131655	0.309065
Cl283	Cl	-0.121642	-0.515694	-0.241986
Cl284	Cl	0.378358	-0.015694	0.258014
Cl285	Cl	-0.190778	-0.632223	-0.311022
Cl286	Cl	0.309222	-0.132223	0.188978
H287	H	-0.236420	-0.527159	-0.140825
H288	H	0.263580	-0.027159	0.359175
Cl289	Cl	-0.698345	-0.918767	-0.310028
Cl290	Cl	-0.198345	-0.418767	0.189972
H291	H	-0.959485	-0.987397	-0.268623
H292	H	-0.459485	-0.487397	0.231377
H293	H	-0.472205	-0.987148	-0.268577
H294	H	0.027795	-0.487148	0.231423
Cl295	Cl	-0.376676	-0.966069	-0.281276
Cl296	Cl	0.123324	-0.466069	0.218724
Cl297	Cl	-0.285394	-0.515935	-0.285586
Cl298	Cl	0.214606	-0.015935	0.214414
Cl299	Cl	-0.121885	-1.227093	0.159542
Cl300	Cl	0.378115	-0.727093	0.659542
H301	H	-0.163339	-1.159260	0.611797
H302	H	0.336661	-0.659260	1.111797
H303	H	-0.297486	-0.940646	0.255790
H304	H	0.202514	-0.440646	0.755790
Cl305	Cl	-0.733220	-0.918775	-0.310015
Cl306	Cl	-0.233220	-0.418775	0.189985
H307	H	-0.163385	-1.159208	0.526688
H308	H	0.336615	-0.659208	1.026688
Cl309	Cl	-0.121718	-1.227235	0.406185
Cl310	Cl	0.378282	-0.727235	0.906185
Cl311	Cl	-0.121794	-1.227190	0.300306
Cl312	Cl	0.378206	-0.727190	0.800306
H313	H	-0.163776	-1.158912	-0.045720
H314	H	0.336224	-0.658912	0.454280
