data_functionalizedCrystal
_audit_creation_method	'MofGen! by Chris Wilmer'
_symmetry_space_group_name_H-M	'P1'
_symmetry_Int_Tables_number	1
_symmetry_cell_setting	triclinic
loop_
_symmetry_equiv_pos_as_xyz
  x,y,z
_cell_length_a	13.635800
_cell_length_b	13.167930
_cell_length_c	11.102300
_cell_angle_alpha	82.075380
_cell_angle_beta	108.605850
_cell_angle_gamma	74.245432
loop_
_atom_site_label
_atom_site_type_symbol
_atom_site_fract_x
_atom_site_fract_y
_atom_site_fract_z
V1	V	2.053688	-0.148894	0.413815
O2	O	2.035381	0.007155	0.387869
O3	O	2.040036	-0.295232	0.428363
O4	O	2.042111	-0.146603	0.586366
O5	O	2.033292	-0.142502	0.228772
V6	V	2.292500	-0.130229	0.389572
O7	O	2.190788	-0.189838	0.466996
O8	O	2.380499	-0.089285	0.336391
O9	O	2.194549	0.016109	0.375024
O10	O	2.369506	-0.286278	0.415518
O11	O	2.371595	-0.136621	0.574615
O12	O	2.192474	-0.132519	0.217021
V13	V	2.553688	-0.148894	0.413815
O14	O	2.535381	0.007155	0.387869
O15	O	2.540036	-0.295232	0.428363
O16	O	2.542111	-0.146603	0.586366
O17	O	2.533292	-0.142502	0.228772
V18	V	2.792500	-0.130229	0.389572
O19	O	2.690788	-0.189838	0.466996
O20	O	2.880499	-0.089285	0.336391
O21	O	2.694549	0.016109	0.375024
O22	O	2.869506	-0.286278	0.415518
O23	O	2.871595	-0.136621	0.574615
O24	O	2.692474	-0.132519	0.217021
C25	C	1.964694	-0.330906	0.426319
C26	C	1.994258	-0.450539	0.439363
C27	C	1.990085	-0.644607	0.227454
C28	C	2.017863	-0.757012	0.239705
C29	C	2.077598	-0.787757	0.476113
C30	C	2.049821	-0.675352	0.463863
C31	C	2.006063	-0.603780	0.339529
C32	C	1.978278	-0.491372	0.327280
C33	C	2.038021	-0.522120	0.563688
C34	C	2.065798	-0.634525	0.575938
C35	C	1.967340	-0.141314	0.627866
C36	C	1.998585	-0.140410	0.769042
C37	C	2.101563	0.051778	0.377066
C38	C	2.061618	0.171410	0.364030
C39	C	2.098916	-0.137812	0.175515
C40	C	2.057289	-0.138711	0.034337
C41	C	2.464694	-0.330906	0.426319
C42	C	2.494258	-0.450539	0.439363
C43	C	2.467340	-0.141314	0.627866
C44	C	2.498585	-0.140410	0.769042
C45	C	2.105195	-0.145360	0.842474
C46	C	2.134547	-0.144506	0.975122
C47	C	1.950669	-0.133757	0.960894
C48	C	1.921317	-0.134603	0.828246
C49	C	2.601563	0.051778	0.377066
C50	C	2.561618	0.171410	0.364030
C51	C	2.598916	-0.137812	0.175515
C52	C	2.557289	-0.138711	0.034337
C53	C	2.600083	-0.512207	0.452486
C54	C	2.627882	-0.624619	0.464762
C55	C	2.549852	-0.675358	0.463907
C56	C	2.444019	-0.613682	0.450786
C57	C	2.416224	-0.501274	0.438519
C58	C	2.628287	0.233077	0.350910
C59	C	2.590761	0.345488	0.338640
C60	C	2.486568	0.396227	0.339499
C61	C	2.419894	0.334552	0.352616
C62	C	2.457417	0.222145	0.364876
C63	C	2.605195	-0.145360	0.842474
C64	C	2.634547	-0.144506	0.975122
C65	C	2.450669	-0.133757	0.960894
C66	C	2.421317	-0.134603	0.828246
H67	H	1.942642	-0.433099	0.226041
H68	H	2.721356	-0.148536	1.034905
O69	O	1.806324	-0.129259	0.749020
H70	H	1.789330	-0.200213	0.793307
H71	H	2.330049	-0.451071	0.427828
H72	H	1.954442	-0.586331	0.126216
H73	H	2.714060	-0.674820	0.475441
O74	O	2.579820	-0.796592	0.477076
H75	H	2.666511	-0.830937	0.486312
O76	O	2.688527	-0.151613	0.778611
H77	H	2.658078	-0.078570	0.696251
O78	O	2.359862	-0.668414	0.449866
H79	H	2.396977	-0.756936	0.460590
H80	H	2.387765	-0.129032	1.009115
O81	O	2.684269	-0.457509	0.453429
H82	H	2.653699	-0.395077	0.359797
O83	O	2.385506	0.155636	0.379044
H84	H	2.428129	0.092674	0.473344
O85	O	2.000621	-0.801052	0.118826
H86	H	1.965518	-0.732395	0.030316
H87	H	2.335056	0.375882	0.353311
O88	O	2.188531	-0.151612	0.778619
H89	H	2.150217	-0.151379	0.674045
O90	O	2.124819	-0.864966	0.610205
H91	H	2.070174	-0.912824	0.616225
O92	O	2.446112	0.517468	0.326281
H93	H	2.362457	0.542401	0.329074
O94	O	2.306325	-0.129270	0.749030
H95	H	2.257531	-0.125107	0.812486
H96	H	2.645066	0.395689	0.327963
H97	H	2.101433	-0.692813	0.677167
H98	H	2.051025	-0.488867	0.654947
H99	H	2.221356	-0.148536	1.034905
O100	O	2.740660	0.178365	0.349958
H101	H	2.804041	0.191081	0.432615
O102	O	1.867336	-0.127512	1.024753
H103	H	1.905659	-0.127769	1.129333
