data_functionalizedCrystal
_audit_creation_method	'MofGen! by Chris Wilmer'
_symmetry_space_group_name_H-M	'P1'
_symmetry_Int_Tables_number	1
_symmetry_cell_setting	triclinic
loop_
_symmetry_equiv_pos_as_xyz
  x,y,z
_cell_length_a	19.805407
_cell_length_b	19.077068
_cell_length_c	19.077314
_cell_angle_alpha	89.878373
_cell_angle_beta	92.280666
_cell_angle_gamma	92.327086
loop_
_atom_site_label
_atom_site_type_symbol
_atom_site_fract_x
_atom_site_fract_y
_atom_site_fract_z
Zn1	Zn	1.008751	-0.263811	-0.408556
Zn2	Zn	1.342084	0.069522	-0.075223
Zn3	Zn	1.675417	0.402856	0.258111
Zn4	Zn	1.008299	-0.386040	-0.295763
Zn5	Zn	1.341633	-0.052707	0.037571
Zn6	Zn	1.674966	0.280627	0.370904
Zn7	Zn	0.899922	-0.268549	-0.291061
Zn8	Zn	1.233256	0.064784	0.042272
Zn9	Zn	1.566589	0.398118	0.375605
Zn10	Zn	0.890807	-0.381285	-0.413227
Zn11	Zn	1.224141	-0.047952	-0.079894
Zn12	Zn	1.557474	0.285381	0.253440
O13	O	0.951945	-0.324921	-0.352152
O14	O	1.285278	0.008412	-0.018818
O15	O	1.618612	0.341745	0.314515
O16	O	1.103407	-0.280032	-0.393606
O17	O	1.436740	0.053301	-0.060273
O18	O	1.770073	0.386635	0.273060
O19	O	0.997549	-0.374427	-0.196808
O20	O	1.330882	-0.041094	0.136526
O21	O	1.664215	0.292240	0.469859
O22	O	0.918362	-0.169587	-0.302725
O23	O	1.251696	0.163747	0.030609
O24	O	1.585029	0.497080	0.363942
O25	O	1.103075	-0.369833	-0.310738
O26	O	1.436408	-0.036500	0.022596
O27	O	1.769742	0.296834	0.355929
O28	O	0.998318	-0.166106	-0.389048
O29	O	1.331651	0.167227	-0.055714
O30	O	1.664984	0.500561	0.277619
O31	O	0.917925	-0.288107	-0.193354
O32	O	1.251258	0.045226	0.139980
O33	O	1.584591	0.378560	0.473313
O34	O	0.803997	-0.283497	-0.307254
O35	O	1.137331	0.049837	0.026079
O36	O	1.470664	0.383170	0.359413
O37	O	0.902827	-0.361730	-0.510939
O38	O	1.236160	-0.028396	-0.177605
O39	O	1.569494	0.304937	0.155728
O40	O	0.797301	-0.366324	-0.397009
O41	O	1.130634	-0.032990	-0.063675
O42	O	1.463967	0.300343	0.269658
O43	O	0.989479	-0.275422	-0.507507
O44	O	1.322813	0.057912	-0.174173
O45	O	1.656146	0.391245	0.159160
O46	O	0.988710	-0.483743	-0.315267
O47	O	1.322044	-0.150409	0.018066
O48	O	1.655377	0.182924	0.351400
O49	O	0.902389	-0.480250	-0.401568
O50	O	1.235723	-0.146916	-0.068234
O51	O	1.569056	0.186417	0.265099
C52	C	0.776090	-0.324909	-0.352128
C53	C	1.109424	0.008425	-0.018795
C54	C	1.442757	0.341758	0.314538
C55	C	0.700858	-0.324920	-0.352136
C56	C	1.034191	0.008414	-0.018803
C57	C	1.367524	0.341747	0.314531
C58	C	0.662044	-0.368118	-0.398801
C59	C	0.995377	-0.034785	-0.065468
C60	C	1.328711	0.298548	0.267866
C61	C	0.591355	-0.368119	-0.398811
C62	C	0.924689	-0.034786	-0.065478
C63	C	1.258022	0.298548	0.267856
C64	C	0.559481	-0.324925	-0.352152
C65	C	0.892815	0.008409	-0.018818
C66	C	1.226148	0.341742	0.314515
C67	C	0.598300	-0.281721	-0.305484
C68	C	0.931633	0.051612	0.027849
C69	C	1.264967	0.384946	0.361182
C70	C	0.668987	-0.281717	-0.305478
C71	C	1.002321	0.051616	0.027855
C72	C	1.335654	0.384950	0.361188
C73	C	0.313225	-0.281736	-0.305508
C74	C	0.646558	0.051598	0.027825
C75	C	0.979892	0.384931	0.361158
C76	C	0.242532	-0.281745	-0.305516
C77	C	0.575866	0.051589	0.027817
C78	C	0.909199	0.384922	0.361150
C79	C	0.235593	-0.368138	-0.398841
C80	C	0.568926	-0.034804	-0.065508
C81	C	0.902260	0.298529	0.267826
C82	C	0.306280	-0.368134	-0.398835
C83	C	0.639614	-0.034800	-0.065502
C84	C	0.972947	0.298533	0.267832
C85	C	0.345093	-0.324928	-0.352170
C86	C	0.678426	0.008405	-0.018837
C87	C	1.011760	0.341739	0.314496
C88	C	0.421742	-0.324926	-0.352161
C89	C	0.755075	0.008407	-0.018828
C90	C	1.088409	0.341740	0.314506
C91	C	0.482834	-0.324929	-0.352157
C92	C	0.816167	0.008404	-0.018824
C93	C	1.149500	0.341738	0.314509
C94	C	0.944530	-0.507492	-0.359450
C95	C	1.277863	-0.174159	-0.026116
C96	C	1.611196	0.159174	0.307217
C97	C	0.941418	-0.585596	-0.362595
C98	C	1.274752	-0.252263	-0.029262
C99	C	1.608085	0.081070	0.304071
C100	C	0.984931	-0.624083	-0.319178
C101	C	1.318265	-0.290750	0.014155
C102	C	1.651598	0.042583	0.347488
C103	C	0.982009	-0.697470	-0.322141
C104	C	1.315342	-0.364137	0.011192
C105	C	1.648676	-0.030803	0.344526
C106	C	0.935570	-0.732368	-0.368518
C107	C	1.268903	-0.399035	-0.035184
C108	C	1.602236	-0.065701	0.298149
C109	C	0.892055	-0.693875	-0.411939
C110	C	1.225388	-0.360542	-0.078606
C111	C	1.558721	-0.027209	0.254727
C112	C	0.894981	-0.620490	-0.408980
C113	C	1.228314	-0.287157	-0.075646
C114	C	1.561647	0.046176	0.257687
C115	C	0.921998	-0.951654	-0.382187
C116	C	1.255332	-0.618321	-0.048854
C117	C	1.588665	-0.284987	0.284480
C118	C	0.919074	-1.025044	-0.385142
C119	C	1.252407	-0.691711	-0.051809
C120	C	1.585741	-0.358378	0.281525
C121	C	1.009030	-1.028634	-0.295344
C122	C	1.342363	-0.695300	0.037989
C123	C	1.675696	-0.361967	0.371322
C124	C	1.011949	-0.955247	-0.292386
C125	C	1.345282	-0.621914	0.040948
C126	C	1.678616	-0.288580	0.374281
C127	C	0.968436	-0.916761	-0.335810
C128	C	1.301770	-0.583428	-0.002477
C129	C	1.635103	-0.250094	0.330857
N130	N	0.932580	-0.807381	-0.371546
N131	N	1.265913	-0.474047	-0.038212
N132	N	1.599247	-0.140714	0.295121
N133	N	0.971430	-0.841749	-0.332785
N134	N	1.304763	-0.508416	0.000548
N135	N	1.638097	-0.175083	0.333882
C136	C	1.128486	-0.324934	-0.352175
C137	C	1.461820	0.008399	-0.018842
C138	C	1.795153	0.341732	0.314491
C139	C	1.203718	-0.324940	-0.352186
C140	C	1.537051	0.008393	-0.018852
C141	C	1.870384	0.341727	0.314481
C142	C	0.945187	-0.317517	-0.535432
C143	C	1.278520	0.015817	-0.202098
C144	C	1.611853	0.349150	0.131235
C145	C	0.942307	-0.314361	-0.613535
C146	C	1.275640	0.018972	-0.280202
C147	C	1.608973	0.352305	0.053132
C148	C	0.959407	-0.141637	-0.344841
C149	C	1.292740	0.191697	-0.011507
C150	C	1.626074	0.525030	0.321826
C151	C	0.962587	-0.063532	-0.341725
C152	C	1.295920	0.269802	-0.008392
C153	C	1.629254	0.603135	0.324942
C154	C	0.982407	-0.357819	-0.652029
C155	C	1.315740	-0.024486	-0.318696
C156	C	1.649073	0.308848	0.014638
C157	C	0.979701	-0.354846	-0.725415
C158	C	1.313034	-0.021512	-0.392081
C159	C	1.646367	0.311821	-0.058748
C160	C	0.936891	-0.308418	-0.760305
C161	C	1.270225	0.024916	-0.426972
C162	C	1.603558	0.358249	-0.093638
C163	C	0.896790	-0.264956	-0.721806
C164	C	1.230123	0.068378	-0.388472
C165	C	1.563457	0.401711	-0.055139
C166	C	0.899500	-0.267926	-0.648421
C167	C	1.232833	0.065407	-0.315088
C168	C	1.566166	0.398741	0.018245
C169	C	0.924345	-0.294712	-0.979588
C170	C	1.257679	0.038622	-0.646255
C171	C	1.591012	0.371955	-0.312921
C172	C	0.921637	-0.291746	-1.052978
C173	C	1.254970	0.041587	-0.719645
C174	C	1.588304	0.374920	-0.386311
C175	C	1.004549	-0.381636	-1.056582
C176	C	1.337882	-0.048302	-0.723249
C177	C	1.671216	0.285031	-0.389915
C178	C	1.007252	-0.384605	-0.983196
C179	C	1.340585	-0.051272	-0.649863
C180	C	1.673919	0.282062	-0.316529
C181	C	0.967153	-0.341140	-0.944703
C182	C	1.300487	-0.007807	-0.611369
C183	C	1.633820	0.325527	-0.278036
N184	N	0.934123	-0.305379	-0.835317
N185	N	1.267456	0.027954	-0.501984
N186	N	1.600790	0.361288	-0.168651
N187	N	0.969926	-0.344176	-0.869692
N188	N	1.303259	-0.010843	-0.536359
N189	N	1.636592	0.322491	-0.203025
C190	C	0.958718	-0.332246	-0.169583
C191	C	1.292051	0.001087	0.163751
C192	C	1.625384	0.334420	0.497084
C193	C	0.961737	-0.335204	-0.091472
C194	C	1.295070	-0.001870	0.241861
C195	C	1.628404	0.331463	0.575195
H196	H	0.332229	-0.403310	-0.436827
H197	H	0.665562	-0.069976	-0.103494
H198	H	0.998895	0.263357	0.229839
H199	H	0.886567	-0.920324	-0.417544
H200	H	1.219901	-0.586991	-0.084210
H201	H	1.553234	-0.253657	0.249123
N202	N	1.035018	-0.586446	-0.269155
N203	N	1.368351	-0.253112	0.064178
N204	N	1.701685	0.080221	0.397512
H205	H	1.062141	-0.621966	-0.242102
H206	H	1.395474	-0.288632	0.091231
H207	H	1.728807	0.044701	0.424564
H208	H	1.066478	-0.554802	-0.296560
H209	H	1.399811	-0.221469	0.036773
H210	H	1.733145	0.111864	0.370106
N211	N	0.881100	-0.247822	-0.938088
N212	N	1.214433	0.085511	-0.604754
N213	N	1.547766	0.418845	-0.271421
H214	H	0.831823	-0.258210	-0.951286
H215	H	1.165156	0.075123	-0.617952
H216	H	1.498489	0.408457	-0.284619
H217	H	0.889364	-0.256754	-0.886315
H218	H	1.222697	0.076579	-0.552982
H219	H	1.556030	0.409912	-0.219649
N220	N	0.848051	-0.578975	-0.455810
N221	N	1.181385	-0.245642	-0.122477
N222	N	1.514718	0.087691	0.210857
H223	H	0.818187	-0.612217	-0.485638
H224	H	1.151520	-0.278884	-0.152305
H225	H	1.484854	0.054449	0.181029
H226	H	0.819019	-0.549721	-0.425952
H227	H	1.152352	-0.216388	-0.092618
H228	H	1.485686	0.116945	0.240715
H229	H	0.854245	-0.722295	-0.449703
H230	H	1.187579	-0.388962	-0.116370
H231	H	1.520912	-0.055629	0.216963
N232	N	0.563925	-0.235145	-0.255145
N233	N	0.897259	0.098188	0.078188
N234	N	1.230592	0.431521	0.411521
H235	H	0.513255	-0.241709	-0.262222
H236	H	0.846589	0.091624	0.071111
H237	H	1.179922	0.424957	0.404445
H238	H	0.577692	-0.248048	-0.205383
H239	H	0.911025	0.085285	0.127950
H240	H	1.244358	0.418618	0.461284
H241	H	1.042101	-0.422422	-0.954794
H242	H	1.375434	-0.089089	-0.621460
H243	H	1.708768	0.244244	-0.288127
H244	H	0.861937	-0.227150	-0.750219
H245	H	1.195270	0.106183	-0.416886
H246	H	1.528603	0.439517	-0.083553
H247	H	1.044456	-1.059977	-0.259992
H248	H	1.377789	-0.726644	0.073342
H249	H	1.711123	-0.393310	0.406675
H250	H	1.012354	-0.390233	-0.756754
H251	H	1.345688	-0.056900	-0.423420
H252	H	1.679021	0.276434	-0.090087
N253	N	1.028938	-0.738979	-0.275308
N254	N	1.362272	-0.405646	0.058025
N255	N	1.695605	-0.072313	0.391359
H256	H	1.020043	-0.790764	-0.284222
H257	H	1.353376	-0.457431	0.049112
H258	H	1.686709	-0.124097	0.382445
H259	H	1.077378	-0.725659	-0.285771
H260	H	1.410711	-0.392326	0.047563
H261	H	1.744045	-0.058992	0.380896
N262	N	0.868983	-1.062687	-0.435164
N263	N	1.202316	-0.729354	-0.101831
N264	N	1.535650	-0.396021	0.231502
H265	H	0.841863	-1.027171	-0.462226
H266	H	1.175196	-0.693838	-0.128892
H267	H	1.508529	-0.360505	0.204441
H268	H	0.894100	-1.091786	-0.468931
H269	H	1.227433	-0.758453	-0.135597
H270	H	1.560767	-0.425119	0.197736
H271	H	0.559756	-0.403296	-0.436810
H272	H	0.893089	-0.069963	-0.103477
H273	H	1.226423	0.263370	0.229857
H274	H	0.203983	-0.403315	-0.436840
H275	H	0.537316	-0.069982	-0.103507
H276	H	0.870650	0.263351	0.229827
N277	N	1.047805	-0.428503	-1.098101
N278	N	1.381138	-0.095169	-0.764767
N279	N	1.714471	0.238164	-0.431434
H280	H	1.075336	-0.458363	-1.064862
H281	H	1.408669	-0.125030	-0.731528
H282	H	1.742003	0.208303	-0.398195
H283	H	1.017808	-0.459789	-1.129844
H284	H	1.351141	-0.126456	-0.796511
H285	H	1.684475	0.206877	-0.463177
N286	N	0.875460	-0.241670	-1.090613
N287	N	1.208794	0.091663	-0.757279
N288	N	1.542127	0.424996	-0.423946
H289	H	0.850469	-0.214585	-1.055092
H290	H	1.183803	0.118748	-0.721759
H291	H	1.517136	0.452082	-0.388426
H292	H	0.903213	-0.207926	-1.119770
H293	H	1.236546	0.125408	-0.786436
H294	H	1.569880	0.458741	-0.453103
N295	N	0.208154	-0.235152	-0.255189
N296	N	0.541487	0.098181	0.078145
N297	N	0.874821	0.431514	0.411478
H298	H	0.157484	-0.241717	-0.262272
H299	H	0.490818	0.091616	0.071062
H300	H	0.824151	0.424950	0.404395
H301	H	0.221913	-0.248039	-0.205420
H302	H	0.555247	0.085295	0.127913
H303	H	0.888580	0.418628	0.461247
H304	H	0.344818	-0.246560	-0.267506
H305	H	0.678151	0.086773	0.065827
H306	H	1.011485	0.420106	0.399161
H307	H	1.049764	-0.926835	-0.254622
H308	H	1.383097	-0.593501	0.078711
H309	H	1.716430	-0.260168	0.412045
H310	H	1.017269	-0.395623	-0.623627
H311	H	1.350602	-0.062290	-0.290293
H312	H	1.683936	0.271043	0.043040
N313	N	0.710848	-0.235119	-0.255147
N314	N	1.044182	0.098214	0.078186
N315	N	1.377515	0.431548	0.411519
H316	H	0.699951	-0.247982	-0.205356
H317	H	1.033284	0.085352	0.127977
H318	H	1.366618	0.418685	0.461310
H319	H	0.760450	-0.241685	-0.262284
H320	H	1.093784	0.091648	0.071049
H321	H	1.427117	0.424981	0.404383
N322	N	0.696420	-0.414712	-0.449122
N323	N	1.029753	-0.081379	-0.115789
N324	N	1.363087	0.251955	0.217544
H325	H	0.661103	-0.442077	-0.478686
H326	H	0.994436	-0.108744	-0.145353
H327	H	1.327769	0.224589	0.187980
H328	H	0.725714	-0.384843	-0.480544
H329	H	1.059048	-0.051510	-0.147211
H330	H	1.392381	0.281823	0.186122
N331	N	0.856255	-0.221049	-0.606899
N332	N	1.189588	0.112284	-0.273565
N333	N	1.522921	0.445617	0.059768
H334	H	0.828724	-0.191186	-0.640136
H335	H	1.162057	0.142147	-0.306802
H336	H	1.495390	0.475480	0.026531
H337	H	0.824891	-0.250879	-0.577585
H338	H	1.158224	0.082455	-0.244251
H339	H	1.491557	0.415788	0.089082
