data_functionalizedCrystal
_audit_creation_method	'MofGen! by Chris Wilmer'
_symmetry_space_group_name_H-M	'P1'
_symmetry_Int_Tables_number	1
_symmetry_cell_setting	triclinic
loop_
_symmetry_equiv_pos_as_xyz
  x,y,z
_cell_length_a	13.897449
_cell_length_b	18.101397
_cell_length_c	18.101389
_cell_angle_alpha	89.978953
_cell_angle_beta	89.982153
_cell_angle_gamma	90.021745
loop_
_atom_site_label
_atom_site_type_symbol
_atom_site_fract_x
_atom_site_fract_y
_atom_site_fract_z
Zn1	Zn	1.474656	-0.294882	-0.418697
Zn2	Zn	1.974656	0.205118	0.081303
Zn3	Zn	1.474551	-0.418708	-0.294850
Zn4	Zn	1.974551	0.081292	0.205150
Zn5	Zn	1.313354	-0.294887	-0.294872
Zn6	Zn	1.813354	0.205113	0.205128
Zn7	Zn	1.313320	-0.418689	-0.418653
Zn8	Zn	1.813320	0.081311	0.081347
O9	O	1.393970	-0.356791	-0.356768
O10	O	1.893970	0.143209	0.143232
O11	O	1.609624	-0.311313	-0.402278
O12	O	2.109624	0.188687	0.097722
O13	O	1.453138	-0.402293	-0.191220
O14	O	1.953138	0.097707	0.308780
O15	O	1.334809	-0.191254	-0.311326
O16	O	1.834809	0.308746	0.188674
O17	O	1.609546	-0.402288	-0.311288
O18	O	2.109546	0.097712	0.188712
O19	O	1.453318	-0.191250	-0.402300
O20	O	1.953318	0.308750	0.097700
O21	O	1.334707	-0.311322	-0.191236
O22	O	1.834707	0.188678	0.308764
O23	O	1.178368	-0.311304	-0.311283
O24	O	1.678368	0.188696	0.188717
O25	O	1.334751	-0.402256	-0.522291
O26	O	1.834751	0.097744	-0.022291
O27	O	1.178342	-0.402261	-0.402224
O28	O	1.678342	0.097739	0.097776
O29	O	1.453285	-0.311295	-0.522324
O30	O	1.953285	0.188705	-0.022324
O31	O	1.453105	-0.522338	-0.311245
O32	O	1.953105	-0.022338	0.188755
O33	O	1.334649	-0.522324	-0.402202
O34	O	1.834649	-0.022324	0.097798
C35	C	1.143356	-0.356782	-0.356751
C36	C	1.643356	0.143218	0.143249
C37	C	1.036142	-0.356795	-0.356761
C38	C	1.536142	0.143205	0.143239
C39	C	1.393888	-0.549202	-0.356732
C40	C	1.893888	-0.049202	0.143268
C41	C	1.393941	-0.631516	-0.356742
C42	C	1.893941	-0.131516	0.143258
C43	C	0.839847	-0.356798	-0.356781
C44	C	1.339847	0.143202	0.143219
C45	C	0.949079	-0.356794	-0.356768
C46	C	1.449079	0.143206	0.143232
C47	C	1.394064	-0.930607	-0.356809
C48	C	1.894064	-0.430607	0.143191
C49	C	1.468385	-0.899260	-0.299428
C50	C	1.968385	-0.399260	0.200572
C51	C	1.468643	-0.813641	-0.299577
C52	C	1.968643	-0.313641	0.200423
C53	C	1.394003	-0.782225	-0.356775
C54	C	1.894003	-0.282225	0.143225
C55	C	1.421558	-0.813244	-0.434835
C56	C	1.921558	-0.313244	0.065165
C57	C	1.422133	-0.898889	-0.434523
C58	C	1.922133	-0.398889	0.065477
C59	C	1.291988	-0.899114	-0.336806
C60	C	1.791988	-0.399114	0.163194
C61	C	1.292493	-0.813465	-0.335063
C62	C	1.792493	-0.313465	0.164937
C63	C	1.393966	-0.698365	-0.356760
C64	C	1.893966	-0.198365	0.143240
C65	C	1.394102	-1.014466	-0.356829
C66	C	1.894102	-0.514466	0.143171
C67	C	1.645563	-0.356802	-0.356785
C68	C	2.145563	0.143198	0.143215
C69	C	1.752777	-0.356806	-0.356793
C70	C	2.252777	0.143194	0.143207
C71	C	1.394026	-0.356773	-0.549930
C72	C	1.894026	0.143227	-0.049930
C73	C	1.394050	-0.356765	-0.632244
C74	C	1.894050	0.143235	-0.132244
C75	C	1.394079	-0.163630	-0.356820
C76	C	1.894079	0.336370	0.143180
C77	C	1.394126	-0.081315	-0.356843
C78	C	1.894126	0.418685	0.143157
C79	C	1.394106	-0.356626	-0.931335
C80	C	1.894106	0.143374	-0.431335
C81	C	1.319271	-0.413674	-0.899989
C82	C	1.819271	0.086326	-0.399989
C83	C	1.319473	-0.413938	-0.814371
C84	C	1.819473	0.086062	-0.314371
C85	C	1.394077	-0.356695	-0.782953
C86	C	1.894077	0.143305	-0.282953
C87	C	1.495710	-0.377877	-0.814049
C88	C	1.995710	0.122123	-0.314049
C89	C	1.495293	-0.378252	-0.899694
C90	C	1.995293	0.121748	-0.399694
C91	C	1.368191	-0.278269	-0.899765
C92	C	1.868191	0.221731	-0.399765
C93	C	1.365930	-0.278722	-0.814115
C94	C	1.865930	0.221278	-0.314115
C95	C	1.394067	-0.356732	-0.699093
C96	C	1.894067	0.143268	-0.199093
C97	C	1.394123	-0.356590	-1.015195
C98	C	1.894123	0.143410	-0.515195
C99	C	1.393970	-0.356757	-0.164358
C100	C	1.893970	0.143243	0.335642
C101	C	1.394133	-0.356556	-0.082044
C102	C	1.894133	0.143444	0.417956
H103	H	1.451403	-0.792670	-0.241696
H104	H	1.951403	-0.292670	0.258304
Br105	Br	1.594666	-0.779395	-0.321639
Br106	Br	2.094666	-0.279395	0.178361
Br107	Br	1.440007	-0.933653	-0.202663
Br108	Br	1.940007	-0.433653	0.297337
H109	H	1.369081	-0.792893	-0.478738
H110	H	1.869081	-0.292893	0.021262
H111	H	1.336584	-0.472019	-0.793885
H112	H	1.836584	0.027981	-0.293885
Br113	Br	1.199692	-0.932905	-0.406461
Br114	Br	1.699692	-0.432905	0.093539
Br115	Br	1.593724	-0.935039	-0.321230
Br116	Br	2.093724	-0.435039	0.178770
H117	H	1.517260	-0.435531	-0.919672
H118	H	2.017260	0.064469	-0.419672
H119	H	1.336211	-0.471400	-0.921511
H120	H	1.836211	0.028600	-0.421511
H121	H	1.295368	-0.258970	-0.921359
H122	H	1.795368	0.241030	-0.421359
Br123	Br	1.546491	-0.932096	-0.462765
Br124	Br	2.046491	-0.432096	0.037235
Br125	Br	1.544525	-0.777403	-0.463559
Br126	Br	2.044525	-0.277403	0.036441
H127	H	1.518056	-0.434548	-0.792602
H128	H	2.018056	0.065452	-0.292602
H129	H	1.370372	-0.919624	-0.478749
H130	H	1.870372	-0.419624	0.021251
Br131	Br	1.195227	-0.777835	-0.399620
Br132	Br	1.695227	-0.277835	0.100380
H133	H	1.266920	-0.920766	-0.280871
H134	H	1.766920	-0.420766	0.219129
Br135	Br	1.257853	-0.779681	-0.239318
Br136	Br	1.757853	-0.279681	0.260682
H137	H	1.416458	-0.233962	-0.792728
H138	H	1.916458	0.266038	-0.292728
H139	H	1.244109	-0.400683	-0.793346
H140	H	1.744109	0.099317	-0.293346
Br141	Br	1.193272	-0.391805	-0.934302
Br142	Br	1.693272	0.108195	-0.434302
Br143	Br	1.591318	-0.311956	-0.934262
Br144	Br	2.091318	0.188044	-0.434262
Br145	Br	1.591146	-0.310799	-0.780138
Br146	Br	2.091146	0.189201	-0.280138
Br147	Br	1.241262	-0.252099	-0.780252
Br148	Br	1.741262	0.247901	-0.280252
H149	H	1.422698	-0.235765	-0.920039
H150	H	1.922698	0.264235	-0.420039
