data_functionalizedCrystal
_audit_creation_method	'MofGen! by Chris Wilmer'
_symmetry_space_group_name_H-M	'P1'
_symmetry_Int_Tables_number	1
_symmetry_cell_setting	triclinic
loop_
_symmetry_equiv_pos_as_xyz
  x,y,z
_cell_length_a	17.699083
_cell_length_b	14.044220
_cell_length_c	16.776229
_cell_angle_alpha	89.992645
_cell_angle_beta	89.998886
_cell_angle_gamma	88.235946
loop_
_atom_site_label
_atom_site_type_symbol
_atom_site_fract_x
_atom_site_fract_y
_atom_site_fract_z
O1	O	1.012346	0.119850	-0.066178
O2	O	1.512346	0.619850	0.433822
O3	O	0.793043	0.135443	-0.066204
O4	O	1.293043	0.635443	0.433796
O5	O	0.899403	-0.010330	-0.066183
O6	O	1.399403	0.489670	0.433817
O7	O	0.905986	0.265624	-0.066198
O8	O	1.405986	0.765624	0.433802
O9	O	0.899387	-0.010339	0.066393
O10	O	1.399387	0.489661	0.566393
O11	O	0.793027	0.135434	0.066372
O12	O	1.293027	0.635434	0.566372
O13	O	1.012330	0.119841	0.066399
O14	O	1.512330	0.619841	0.566399
Zn15	Zn	0.902676	0.127636	0.087435
Zn16	Zn	1.402676	0.627636	0.587435
Zn17	Zn	0.902697	0.127648	-0.087240
Zn18	Zn	1.402697	0.627648	0.412760
O19	O	0.905970	0.265615	0.066378
O20	O	1.405970	0.765615	0.566378
C21	C	0.764800	0.134880	0.000081
C22	C	1.264800	0.634880	0.500081
C23	C	0.680666	0.133204	0.000071
C24	C	1.180666	0.633204	0.500071
C25	C	0.637948	0.218769	0.000067
C26	C	1.137948	0.718769	0.500067
C27	C	0.558895	0.217189	0.000077
C28	C	1.058895	0.717189	0.500077
C29	C	0.522563	0.130041	0.000086
C30	C	1.022563	0.630041	0.500086
C31	C	0.565287	0.044469	0.000093
C32	C	1.065287	0.544469	0.500093
C33	C	0.644338	0.046050	0.000088
C34	C	1.144338	0.546050	0.500088
C35	C	0.246484	0.038089	0.000113
C36	C	0.746484	0.538089	0.500113
C37	C	0.167427	0.036514	0.000115
C38	C	0.667427	0.536514	0.500115
C39	C	0.161041	0.209227	0.000102
C40	C	0.661041	0.709227	0.500102
C41	C	0.240092	0.210809	0.000097
C42	C	0.740092	0.710809	0.500097
C43	C	0.282809	0.125237	0.000108
C44	C	0.782809	0.625237	0.500108
C45	C	0.368527	0.126952	0.000098
C46	C	0.868527	0.626952	0.500098
C47	C	0.436847	0.128325	0.000090
C48	C	0.936847	0.628325	0.500090
C49	C	0.896513	-0.045643	0.000105
C50	C	1.396513	0.454357	0.500105
C51	C	0.887917	-0.150849	0.000105
C52	C	1.387917	0.349151	0.500105
C53	C	0.872202	-0.343474	0.000091
C54	C	1.372202	0.156526	0.500091
C55	C	0.933168	-0.401248	0.000096
C56	C	1.433168	0.098752	0.500096
C57	C	0.924424	-0.508431	0.000089
C58	C	1.424424	-0.008431	0.500089
C59	C	0.880945	-0.236281	0.000099
C60	C	1.380945	0.263719	0.500099
C61	C	1.040574	0.120404	0.000112
C62	C	1.540574	0.620404	0.500112
C63	C	1.124707	0.122081	0.000117
C64	C	1.624707	0.622081	0.500117
C65	C	0.908860	0.300927	0.000088
C66	C	1.408860	0.800927	0.500088
C67	C	0.917456	0.406133	0.000083
C68	C	1.417456	0.906133	0.500083
N69	N	0.902667	0.127628	0.206646
N70	N	1.402667	0.627628	0.706646
N71	N	0.902712	0.127649	-0.206452
N72	N	1.402712	0.627649	0.293548
C73	C	0.949781	0.063106	0.248372
C74	C	1.449781	0.563106	0.748372
C75	C	0.949785	0.063105	0.331825
C76	C	1.449785	0.563105	0.831825
C77	C	0.902679	0.127631	0.373549
C78	C	1.402679	0.627631	0.873549
C79	C	0.855560	0.192156	0.331817
C80	C	1.355560	0.692156	0.831817
C81	C	0.855552	0.192152	0.248366
C82	C	1.355552	0.692152	0.748366
C83	C	0.855589	0.192175	0.668364
C84	C	1.355589	0.692175	1.168364
C85	C	0.855601	0.192176	0.751821
C86	C	1.355601	0.692176	1.251821
C87	C	0.949821	0.063128	0.751822
C88	C	1.449821	0.563128	1.251822
C89	C	0.949813	0.063123	0.668372
C90	C	1.449813	0.563123	1.168372
C91	C	0.902692	0.127645	0.626647
C92	C	1.402692	0.627645	1.126647
C93	C	0.902687	0.127644	0.536159
C94	C	1.402687	0.627644	1.036159
C95	C	0.902687	0.127638	0.464036
C96	C	1.402687	0.627638	0.964036
H97	H	0.281255	-0.031590	0.000123
H98	H	0.781255	0.468410	0.500123
C99	C	0.792822	-0.385400	0.000092
C100	C	1.292822	0.114600	0.500092
N101	N	0.733034	-0.416990	0.000100
N102	N	1.233034	0.083010	0.500100
C103	C	0.803730	0.263139	0.202468
C104	C	1.303730	0.763139	0.702468
N105	N	0.764697	0.316609	0.167898
N106	N	1.264697	0.816609	0.667898
H107	H	0.988143	0.010565	0.214406
H108	H	1.488143	0.510565	0.714406
H109	H	0.988148	0.010565	0.365798
H110	H	1.488148	0.510565	0.865798
C111	C	0.114045	0.303359	0.000100
C112	C	0.614045	0.803359	0.500100
N113	N	0.078649	0.374257	0.000099
N114	N	0.578649	0.874257	0.500099
H115	H	0.817201	0.244692	0.365794
H116	H	1.317201	0.744692	0.865794
H117	H	0.137848	-0.034456	0.000124
H118	H	0.637848	0.465544	0.500124
H119	H	0.988174	0.010583	0.634402
H120	H	1.488174	0.510583	1.134402
C121	C	0.525318	-0.051395	0.000104
C122	C	1.025318	0.448605	0.500104
N123	N	0.495215	-0.123601	0.000110
N124	N	0.995215	0.376399	0.500110
C125	C	0.691328	-0.048079	0.000091
C126	C	1.191328	0.451921	0.500091
N127	N	0.726720	-0.118980	0.000094
N128	N	1.226720	0.381020	0.500094
C129	C	1.001649	-0.007856	0.797727
C130	C	1.501649	0.492144	1.297727
N131	N	1.040685	-0.061319	0.832301
N132	N	1.540685	0.438681	1.332301
C133	C	0.803773	0.263158	0.797716
C134	C	1.303773	0.763158	1.297716
N135	N	0.764738	0.316618	0.832284
N136	N	1.264738	0.816618	1.332284
H137	H	0.817222	0.244712	0.634398
H138	H	1.317222	0.744712	1.134398
C139	C	0.677906	0.314640	0.000058
C140	C	1.177906	0.814640	0.500058
N141	N	0.708000	0.386853	0.000055
N142	N	1.208000	0.886853	0.500055
C143	C	0.280053	0.306677	0.000092
C144	C	0.780053	0.806677	0.500092
N145	N	0.310151	0.378888	0.000094
N146	N	0.810151	0.878888	0.500094
C147	C	1.012553	-0.359322	0.000117
C148	C	1.512553	0.140678	0.500117
N149	N	1.072343	-0.327739	0.000137
N150	N	1.572343	0.172261	0.500137
C151	C	0.511908	0.311318	0.000086
C152	C	1.011908	0.811318	0.500086
N153	N	0.476518	0.382221	0.000099
N154	N	0.976518	0.882221	0.500099
