data_functionalizedCrystal
_audit_creation_method	'MofGen! by Chris Wilmer'
_symmetry_space_group_name_H-M	'P1'
_symmetry_Int_Tables_number	1
_symmetry_cell_setting	triclinic
loop_
_symmetry_equiv_pos_as_xyz
  x,y,z
_cell_length_a	10.540514
_cell_length_b	10.540514
_cell_length_c	9.616153
_cell_angle_alpha	89.997380
_cell_angle_beta	89.996671
_cell_angle_gamma	84.515160
loop_
_atom_site_label
_atom_site_type_symbol
_atom_site_fract_x
_atom_site_fract_y
_atom_site_fract_z
O1	O	1.685886	0.178752	-0.115652
O2	O	1.316468	0.195641	-0.115650
O3	O	1.509622	0.002487	-0.115653
O4	O	1.492732	0.371906	-0.115650
O5	O	1.509612	0.002477	0.115638
O6	O	1.316457	0.195631	0.115641
O7	O	1.685876	0.178741	0.115639
Zn8	Zn	1.501165	0.187184	0.152362
Zn9	Zn	1.501179	0.187198	-0.152374
O10	O	1.492722	0.371895	0.115642
C11	C	1.269159	0.194376	-0.000005
C12	C	1.128210	0.190607	-0.000004
C13	C	1.508357	-0.044821	-0.000011
C14	C	1.504588	-0.185771	-0.000021
C15	C	1.057492	0.328749	-0.000006
C16	C	0.910879	0.324874	-0.000538
C17	C	0.935885	0.115485	-0.131835
C18	C	1.082424	0.120339	-0.131938
C19	C	1.082815	0.118283	0.131093
C20	C	0.935836	0.116950	0.132818
C21	C	1.642729	-0.256489	-0.000019
C22	C	1.638855	-0.403102	0.000516
C23	C	1.429454	-0.378105	0.131812
C24	C	1.434308	-0.231566	0.131913
C25	C	1.432275	-0.231156	-0.131118
C26	C	1.430942	-0.378134	-0.132841
C27	C	1.733185	0.180006	-0.000010
C28	C	1.874134	0.183776	-0.000019
C29	C	1.493987	0.419204	-0.000003
C30	C	1.497756	0.560153	-0.000002
N31	N	1.501165	0.187174	0.360337
N32	N	1.501189	0.187199	-0.360348
C33	C	1.604548	0.083862	0.419334
C34	C	1.604933	0.084149	0.580501
C35	C	1.530755	0.320074	0.581117
C36	C	1.531485	0.319455	0.419900
C37	C	1.367916	0.158804	0.419772
C38	C	1.368795	0.155817	0.581000
H39	H	0.868206	0.378588	0.093931
Br40	Br	1.161616	-0.051537	0.133233
H41	H	1.587139	-0.015182	0.380549
H42	H	1.692338	-0.444841	0.095563
Br43	Br	1.734767	-0.206123	0.157292
Br44	Br	1.265183	-0.151531	0.141292
H45	H	1.114301	0.164262	0.231035
H46	H	1.478261	-0.199659	-0.231061
H47	H	1.346374	0.058060	0.619258
Br48	Br	1.728387	-0.474231	-0.156938
H49	H	0.894832	0.166857	0.230337
H50	H	1.480858	-0.419131	-0.230359
H51	H	1.330375	-0.183906	-0.132378
H52	H	1.087719	0.383972	-0.094392
H53	H	0.911660	0.014102	0.141169
Br54	Br	1.736145	-0.208938	-0.157554
H55	H	1.626851	0.345382	0.621484
Br56	Br	1.256721	-0.415272	0.139370
H57	H	1.110648	0.170225	-0.230848
H58	H	1.457490	0.398882	0.619429
H59	H	1.328099	-0.402319	-0.141198
H60	H	1.086022	0.384783	0.094506
Br61	Br	1.507531	-0.449056	0.295943
Br62	Br	1.517431	-0.184528	0.296773
Br63	Br	1.575417	-0.080382	0.646475
Br64	Br	1.768410	0.113941	0.351798
Br65	Br	1.769726	0.114676	0.644781
Br66	Br	1.693485	0.360695	0.357200
H67	H	1.458873	0.398542	0.380870
Br68	Br	1.320820	0.000595	0.352033
Br69	Br	0.841311	0.414030	-0.158956
Br70	Br	1.234476	0.272907	0.648089
Br71	Br	1.239675	0.284344	0.356183
H72	H	1.130439	0.018865	-0.137567
H73	H	0.913580	0.011852	-0.136365
H74	H	0.893278	0.162305	-0.230305
