data_functionalizedCrystal
_audit_creation_method	'MofGen! by Chris Wilmer'
_symmetry_space_group_name_H-M	'P1'
_symmetry_Int_Tables_number	1
_symmetry_cell_setting	triclinic
loop_
_symmetry_equiv_pos_as_xyz
  x,y,z
_cell_length_a	17.699077
_cell_length_b	14.044220
_cell_length_c	16.176319
_cell_angle_alpha	90.004229
_cell_angle_beta	90.005422
_cell_angle_gamma	88.234727
loop_
_atom_site_label
_atom_site_type_symbol
_atom_site_fract_x
_atom_site_fract_y
_atom_site_fract_z
O1	O	1.012346	0.119819	0.068738
O2	O	1.512346	0.619819	0.568738
O3	O	0.793043	0.135417	0.068742
O4	O	1.293043	0.635417	0.568742
O5	O	0.899403	-0.010359	0.068732
O6	O	1.399403	0.489641	0.568732
O7	O	0.905986	0.265595	0.068748
O8	O	1.405986	0.765595	0.568748
O9	O	0.899389	-0.010359	-0.068761
O10	O	1.399389	0.489641	0.431239
O11	O	0.793029	0.135417	-0.068751
O12	O	1.293029	0.635417	0.431249
O13	O	1.012332	0.119818	-0.068755
O14	O	1.512332	0.619818	0.431245
Cu15	Cu	0.902679	0.127618	-0.081307
Cu16	Cu	1.402679	0.627618	0.418693
Cu17	Cu	0.902696	0.127618	0.081294
Cu18	Cu	1.402696	0.627618	0.581294
O19	O	0.905972	0.265595	-0.068745
O20	O	1.405972	0.765595	0.431255
C21	C	0.764800	0.134859	-0.000004
C22	C	1.264800	0.634859	0.499996
C23	C	0.680667	0.133185	-0.000003
C24	C	1.180667	0.633185	0.499997
C25	C	0.641137	0.132396	-0.074951
C26	C	1.141137	0.632396	0.425049
C27	C	0.562085	0.130808	-0.074952
C28	C	1.062085	0.630808	0.425048
C29	C	0.522564	0.130016	-0.000004
C30	C	1.022564	0.630016	0.499996
C31	C	0.562099	0.130802	0.074951
C32	C	1.062099	0.630802	0.574951
C33	C	0.641149	0.132384	0.074951
C34	C	1.141149	0.632384	0.574951
C35	C	0.243295	0.124425	0.074952
C36	C	0.743295	0.624425	0.574952
C37	C	0.164239	0.122846	0.074946
C38	C	0.664239	0.622846	0.574946
C39	C	0.164231	0.122849	-0.074951
C40	C	0.664231	0.622849	0.425049
C41	C	0.243282	0.124431	-0.074951
C42	C	0.743282	0.624431	0.425049
C43	C	0.282810	0.125212	0.000003
C44	C	0.782810	0.625212	0.500003
C45	C	0.368528	0.126932	0.000003
C46	C	0.868528	0.626932	0.500003
C47	C	0.436848	0.128303	-0.000003
C48	C	0.936848	0.628303	0.499997
C49	C	0.896514	-0.045667	-0.000015
C50	C	1.396514	0.454333	0.499985
C51	C	0.887918	-0.150873	-0.000016
C52	C	1.387918	0.349127	0.499984
C53	C	0.872203	-0.343497	-0.000004
C54	C	1.372203	0.156503	0.499996
C55	C	0.933169	-0.401273	-0.000002
C56	C	1.433169	0.098727	0.499998
C57	C	0.924425	-0.508456	0.000004
C58	C	1.424425	-0.008456	0.500004
C59	C	0.880946	-0.236304	-0.000010
C60	C	1.380946	0.263696	0.499990
C61	C	1.040575	0.120376	-0.000007
C62	C	1.540575	0.620376	0.499993
C63	C	1.124708	0.122050	-0.000003
C64	C	1.624708	0.622050	0.499997
C65	C	0.908861	0.300903	0.000004
C66	C	1.408861	0.800903	0.500004
C67	C	0.917457	0.406108	0.000010
C68	C	1.417457	0.906108	0.500010
N69	N	0.902674	0.127617	-0.195673
N70	N	1.402674	0.627617	0.304327
C71	C	0.952449	0.185026	-0.238931
C72	C	1.452449	0.685026	0.261069
C73	C	0.952457	0.185023	-0.325478
C74	C	1.452457	0.685023	0.174522
C75	C	0.902685	0.127614	-0.368765
C76	C	1.402685	0.627614	0.131235
C77	C	0.852907	0.070198	-0.325501
C78	C	1.352907	0.570198	0.174499
C79	C	0.852904	0.070197	-0.238956
C80	C	1.352904	0.570197	0.261044
C81	C	0.852922	0.070199	-0.674529
C82	C	1.352922	0.570199	-0.174529
C83	C	0.852927	0.070206	-0.761081
C84	C	1.352927	0.570206	-0.261081
C85	C	0.952474	0.185025	-0.761051
C86	C	1.452474	0.685025	-0.261051
C87	C	0.952471	0.185024	-0.674506
C88	C	1.452471	0.685024	-0.174506
C89	C	0.902696	0.127604	-0.631249
C90	C	1.402696	0.627604	-0.131249
C91	C	0.902689	0.127608	-0.537405
C92	C	1.402689	0.627608	-0.037405
C93	C	0.902688	0.127615	-0.462608
C94	C	1.402688	0.627615	0.037392
N95	N	0.902707	0.127611	0.195659
N96	N	1.402707	0.627611	0.695659
H97	H	0.132038	0.122209	-0.135982
H98	H	0.632038	0.622209	0.364018
H99	H	0.673310	0.133049	-0.135983
H100	H	1.173310	0.633049	0.364017
H101	H	0.529905	0.130150	-0.135983
H102	H	1.029905	0.630150	0.364017
H103	H	0.813446	-0.374530	-0.000000
H104	H	1.313446	0.125470	0.500000
C105	C	1.050855	0.298516	-0.247604
C106	C	1.550855	0.798516	0.252396
C107	C	1.007161	0.248132	-0.191353
C108	C	1.507161	0.748132	0.308647
H109	H	1.084636	0.337469	-0.218231
H110	H	1.584636	0.837469	0.281769
H111	H	1.018651	0.337407	-0.281359
H112	H	1.518651	0.837407	0.218641
H113	H	1.078919	0.254840	-0.281360
H114	H	1.578919	0.754840	0.218640
H115	H	0.979093	0.291809	-0.157600
H116	H	1.479093	0.791809	0.342400
H117	H	1.039369	0.209238	-0.157583
H118	H	1.539369	0.709238	0.342417
H119	H	0.991931	-0.370238	0.000052
H120	H	1.491931	0.129762	0.500052
H121	H	0.275457	0.125080	-0.135982
H122	H	0.775457	0.625080	0.364018
C123	C	0.172183	0.122981	0.223126
C124	C	0.672183	0.622981	0.723126
C125	C	0.120795	0.121967	0.157336
C126	C	0.620795	0.621967	0.657336
H127	H	0.145361	0.122433	0.273985
H128	H	0.645361	0.622433	0.773985
H129	H	0.200971	0.178838	0.220020
H130	H	0.700971	0.678838	0.720020
H131	H	0.205061	0.068347	0.219996
H132	H	0.705061	0.568347	0.719996
H133	H	0.087921	0.176604	0.160462
H134	H	0.587921	0.676604	0.660462
H135	H	0.091995	0.066104	0.160443
H136	H	0.591995	0.566104	0.660443
H137	H	0.993005	0.231776	-0.796281
H138	H	1.493005	0.731776	-0.296281
H139	H	0.812395	0.023454	-0.796323
H140	H	1.312395	0.523454	-0.296323
H141	H	0.275470	0.125058	0.135984
H142	H	0.775470	0.625058	0.635984
C143	C	0.440924	0.128387	0.141511
C144	C	0.940924	0.628387	0.641511
C145	C	0.518658	0.129934	0.157336
C146	C	1.018658	0.629934	0.657336
H147	H	0.414108	0.127859	0.192375
H148	H	0.914108	0.627859	0.692375
H149	H	0.430014	0.072886	0.110719
H150	H	0.930014	0.572886	0.610719
H151	H	0.425931	0.183377	0.110717
H152	H	0.925931	0.683377	0.610717
H153	H	0.533652	0.074940	0.188125
H154	H	1.033652	0.574940	0.688125
H155	H	0.529573	0.185440	0.188142
H156	H	1.029573	0.685440	0.688142
H157	H	0.812392	0.023444	-0.639320
H158	H	1.312392	0.523444	-0.139320
H159	H	0.812386	0.023450	-0.360753
H160	H	1.312386	0.523450	0.139247
H161	H	0.673333	0.133028	0.135982
H162	H	1.173333	0.633028	0.635982
C163	C	1.054651	0.190785	-0.422772
C164	C	1.554651	0.690785	0.077228
C165	C	1.007175	0.248129	-0.373022
C166	C	1.507175	0.748129	0.126978
H167	H	1.088437	0.229747	-0.452118
H168	H	1.588437	0.729747	0.047882
H169	H	1.025013	0.156606	-0.460938
H170	H	1.525013	0.656606	0.039062
H171	H	1.082709	0.147123	-0.388996
H172	H	1.582709	0.647123	0.111004
H173	H	0.979112	0.291787	-0.406799
H174	H	1.479112	0.791787	0.093201
H175	H	1.036816	0.282325	-0.334851
H176	H	1.536816	0.782325	0.165149
C177	C	1.050879	0.298512	-0.683172
C178	C	1.550879	0.798512	-0.183172
C179	C	1.007184	0.248126	-0.626925
C180	C	1.507184	0.748126	-0.126925
H181	H	1.084662	0.337462	-0.653797
H182	H	1.584662	0.837462	-0.153797
H183	H	1.018677	0.337406	-0.716926
H184	H	1.518677	0.837406	-0.216926
H185	H	1.078943	0.254837	-0.716930
H186	H	1.578943	0.754837	-0.216930
H187	H	0.979115	0.291801	-0.593171
H188	H	1.479115	0.791801	-0.093171
H189	H	1.039390	0.209229	-0.593157
H190	H	1.539390	0.709229	-0.093157
H191	H	0.812372	0.023448	-0.203736
H192	H	1.312372	0.523448	0.296264
