data_functionalizedCrystal
_audit_creation_method	'MofGen! by Chris Wilmer'
_symmetry_space_group_name_H-M	'P1'
_symmetry_Int_Tables_number	1
_symmetry_cell_setting	triclinic
loop_
_symmetry_equiv_pos_as_xyz
  x,y,z
_cell_length_a	13.032831
_cell_length_b	13.032423
_cell_length_c	13.032268
_cell_angle_alpha	89.069225
_cell_angle_beta	89.113023
_cell_angle_gamma	90.886572
loop_
_atom_site_label
_atom_site_type_symbol
_atom_site_fract_x
_atom_site_fract_y
_atom_site_fract_z
Zn1	Zn	1.423768	0.684117	0.684422
Zn2	Zn	1.923768	1.184117	1.184422
Zn3	Zn	1.429028	0.835045	0.491171
Zn4	Zn	1.929028	1.335045	0.991171
Zn5	Zn	1.278248	0.641799	0.496627
Zn6	Zn	1.778248	1.141799	0.996627
Zn7	Zn	1.235874	0.829568	0.642068
Zn8	Zn	1.735874	1.329568	1.142068
O9	O	1.341729	0.747632	0.578572
O10	O	1.841729	1.247632	1.078572
O11	O	1.566202	0.724140	0.674229
O12	O	2.066202	1.224140	1.174229
O13	O	1.428961	0.793993	0.350151
O14	O	1.928961	1.293993	0.850151
O15	O	1.313084	0.505667	0.541546
O16	O	1.813084	1.005667	1.041546
O17	O	1.570066	0.835026	0.532248
O18	O	2.070066	1.335026	1.032248
O19	O	1.419997	0.536758	0.679518
O20	O	1.919997	1.036758	1.179518
O21	O	1.318184	0.652016	0.354159
O22	O	1.818184	1.152016	0.854159
O23	O	1.130891	0.646705	0.500478
O24	O	1.630891	1.146705	1.000478
O25	O	1.240864	0.825691	0.789431
O26	O	1.740864	1.325691	1.289431
O27	O	1.099759	0.784658	0.607333
O28	O	1.599759	1.284658	1.107333
O29	O	1.378909	0.718829	0.820547
O30	O	1.878909	1.218829	1.320547
O31	O	1.387873	0.976064	0.491180
O32	O	1.887873	1.476064	0.991180
O33	O	1.245964	0.972040	0.602044
O34	O	1.745964	1.472040	1.102044
C35	C	1.078574	0.710496	0.549902
C36	C	1.578574	1.210496	1.049902
C37	C	0.965989	0.694636	0.537658
C38	C	1.465989	1.194636	1.037658
C39	C	0.900421	0.755910	0.584962
C40	C	1.400421	1.255910	1.084962
C41	C	0.784058	0.739519	0.572308
C42	C	1.284058	1.239519	1.072308
C43	C	1.312915	1.010811	0.541449
C44	C	1.812915	1.510811	1.041449
C45	C	1.300677	1.123417	0.525612
C46	C	1.800677	1.623417	1.025612
C47	C	1.335415	1.305309	0.570506
C48	C	1.835415	1.805309	1.070506
C49	C	1.348072	1.188926	0.586878
C50	C	1.848072	1.688926	1.086878
C51	C	1.605912	0.784914	0.607354
C52	C	2.105912	1.284914	1.107354
C53	C	1.718491	0.800802	0.619620
C54	C	2.218491	1.300802	1.119620
C55	C	1.304573	0.776370	0.842769
C56	C	1.804573	1.276370	1.342769
C57	C	1.288739	0.788616	0.955354
C58	C	1.788739	1.288616	1.455354
C59	C	1.370627	1.483425	0.615867
C60	C	1.870627	1.983425	1.115867
C61	C	1.382804	1.370819	0.631764
C62	C	1.882804	1.870819	1.131764
C63	C	1.378808	0.718942	0.315419
C64	C	1.878808	1.218942	0.815419
C65	C	1.394869	0.706438	0.202896
C66	C	1.894869	1.206438	0.702896
C67	C	1.349981	0.741202	1.020944
C68	C	1.849981	1.241202	1.520944
C69	C	1.333618	0.753858	1.137307
C70	C	1.833618	1.253858	1.637307
H71	H	0.754051	0.674918	0.522442
H72	H	1.254051	1.174918	1.022442
H73	H	0.748497	0.865395	0.669498
H74	H	1.248497	1.365395	1.169498
O75	O	0.926252	0.609085	0.471578
O76	O	1.426252	1.109085	0.971578
H77	H	0.841092	0.609649	0.471993
H78	H	1.341092	1.109649	0.971993
H79	H	0.930433	0.820500	0.634834
H80	H	1.430433	1.320500	1.134834
H81	H	1.398013	1.158857	0.651453
H82	H	1.898013	1.658857	1.151453
O83	O	1.480379	0.640256	1.163182
O84	O	1.980379	1.140256	1.663182
H85	H	1.522747	0.607447	1.228931
H86	H	2.022747	1.107447	1.728931
H87	H	1.250724	1.153486	0.461046
H88	H	1.750724	1.653486	0.961046
H89	H	1.285469	1.335385	0.505943
H90	H	1.785469	1.835385	1.005943
O91	O	1.248106	0.820043	1.177014
O92	O	1.748106	1.320043	1.677014
H93	H	1.248675	0.819601	1.262179
H94	H	1.748675	1.319601	1.762179
H95	H	1.432741	1.340745	0.696334
H96	H	1.932741	1.840745	1.196334
H97	H	1.414525	0.691236	0.990952
H98	H	1.914525	1.191236	1.490952
O99	O	1.203232	0.854797	0.995067
O100	O	1.703232	1.354797	1.495067
H101	H	1.203800	0.854355	1.080231
H102	H	1.703800	1.354355	1.580231
