data_functionalizedCrystal
_audit_creation_method	'MofGen! by Chris Wilmer'
_symmetry_space_group_name_H-M	'P1'
_symmetry_Int_Tables_number	1
_symmetry_cell_setting	triclinic
loop_
_symmetry_equiv_pos_as_xyz
  x,y,z
_cell_length_a	12.645331
_cell_length_b	18.101397
_cell_length_c	12.645324
_cell_angle_alpha	89.960630
_cell_angle_beta	89.977038
_cell_angle_gamma	90.019444
loop_
_atom_site_label
_atom_site_type_symbol
_atom_site_fract_x
_atom_site_fract_y
_atom_site_fract_z
Zn1	Zn	1.620714	-0.294793	-0.599390
Zn2	Zn	2.120714	0.205207	-0.099390
Zn3	Zn	1.620586	-0.418659	-0.422107
Zn4	Zn	2.120586	0.081341	0.077893
Zn5	Zn	1.443428	-0.294833	-0.422135
Zn6	Zn	1.943428	0.205167	0.077865
Zn7	Zn	1.443402	-0.418596	-0.599322
Zn8	Zn	1.943402	0.081404	-0.099322
O9	O	1.532032	-0.356720	-0.510738
O10	O	2.032032	0.143280	-0.010738
O11	O	1.769044	-0.311234	-0.575890
O12	O	2.269044	0.188766	-0.075890
O13	O	1.597043	-0.402276	-0.273763
O14	O	2.097043	0.097724	0.226237
O15	O	1.467009	-0.191195	-0.445688
O16	O	1.967009	0.308805	0.054312
O17	O	1.768950	-0.402238	-0.445641
O18	O	2.268950	0.097762	0.054359
O19	O	1.597261	-0.191166	-0.575917
O20	O	2.097261	0.308834	-0.075917
O21	O	1.466885	-0.311302	-0.273784
O22	O	1.966885	0.188698	0.226216
O23	O	1.295077	-0.311241	-0.445622
O24	O	1.795077	0.188759	0.054378
O25	O	1.466965	-0.402130	-0.747679
O26	O	1.966965	0.097870	-0.247679
O27	O	1.295058	-0.402168	-0.575801
O28	O	1.795058	0.097832	-0.075801
O29	O	1.597236	-0.311173	-0.747729
O30	O	2.097236	0.188827	-0.247729
O31	O	1.597018	-0.522283	-0.445575
O32	O	2.097018	-0.022283	0.054425
O33	O	1.466841	-0.522237	-0.575774
O34	O	1.966841	-0.022237	-0.075774
C35	C	1.256603	-0.356703	-0.510708
C36	C	1.756603	0.143297	-0.010708
C37	C	1.138772	-0.356713	-0.510720
C38	C	1.638772	0.143287	-0.010720
C39	C	0.971185	-0.299247	-0.429276
C40	C	1.471185	0.200753	0.070724
C41	C	1.093745	-0.299396	-0.428917
C42	C	1.593745	0.200604	0.071083
C43	C	1.094247	-0.434729	-0.480190
C44	C	1.594247	0.065271	0.019810
C45	C	0.971648	-0.434415	-0.479635
C46	C	1.471648	0.065585	0.020365
C47	C	0.971625	-0.336905	-0.623008
C48	C	1.471625	0.163095	-0.123008
C49	C	1.094231	-0.335162	-0.622384
C50	C	1.594231	0.164838	-0.122384
C51	C	1.531942	-0.549131	-0.510687
C52	C	2.031942	-0.049131	-0.010687
C53	C	1.532000	-0.631445	-0.510701
C54	C	2.032000	-0.131445	-0.010701
C55	C	1.532135	-0.930536	-0.510797
C56	C	2.032135	-0.430536	-0.010797
C57	C	1.613810	-0.899209	-0.428660
C58	C	2.113810	-0.399209	0.071340
C59	C	1.614093	-0.813591	-0.428873
C60	C	2.114093	-0.313591	0.071127
C61	C	1.532068	-0.782153	-0.510748
C62	C	2.032068	-0.282153	-0.010748
C63	C	1.562359	-0.813149	-0.622490
C64	C	2.062359	-0.313149	-0.122490
C65	C	1.562991	-0.898794	-0.622043
C66	C	2.062991	-0.398794	-0.122043
C67	C	1.419951	-0.899046	-0.482160
C68	C	1.919951	-0.399046	0.017840
C69	C	1.420505	-0.813397	-0.479666
C70	C	1.920505	-0.313397	0.020334
C71	C	1.532028	-0.698294	-0.510728
C72	C	2.032028	-0.198294	-0.010728
C73	C	1.532177	-1.014395	-0.510826
C74	C	2.032177	-0.514395	-0.010826
C75	C	1.808537	-0.356739	-0.510770
C76	C	2.308537	0.143261	-0.010770
C77	C	1.926367	-0.356746	-0.510783
C78	C	2.426367	0.143254	-0.010783
C79	C	1.532112	-0.356640	-0.787244
C80	C	2.032112	0.143360	-0.287244
C81	C	1.532146	-0.356605	-0.905074
C82	C	2.032146	0.143395	-0.405074
C83	C	1.532152	-0.163558	-0.510813
C84	C	2.032152	0.336442	-0.010813
C85	C	1.532203	-0.081244	-0.510845
C86	C	2.032203	0.418756	-0.010845
C87	C	1.614418	-0.299550	-1.072670
C88	C	2.114418	0.200450	-0.572670
C89	C	1.614154	-0.299344	-0.950110
C90	C	2.114154	0.200656	-0.450110
C91	C	1.420465	-0.335397	-0.949556
C92	C	1.920465	0.164603	-0.449556
C93	C	1.420964	-0.334963	-1.072155
C94	C	1.920964	0.165037	-0.572155
C95	C	1.560648	-0.434953	-1.072257
C96	C	2.060648	0.065047	-0.572257
C97	C	1.563091	-0.434559	-0.949652
C98	C	2.063091	0.065441	-0.449652
C99	C	1.532014	-0.356747	-0.235309
C100	C	2.032014	0.143253	0.264691
C101	C	1.532186	-0.356573	-0.117479
C102	C	2.032186	0.143427	0.382521
H103	H	0.942001	-0.478707	-0.536411
H104	H	1.442001	0.021293	-0.036411
Cl105	Cl	1.323292	-0.397552	-0.904527
Cl106	Cl	1.823292	0.102448	-0.404527
Cl107	Cl	1.689986	-0.459251	-0.904774
Cl108	Cl	2.189986	0.040749	-0.404774
H109	H	1.504690	-0.792782	-0.685334
H110	H	2.004690	-0.292782	-0.185334
Cl111	Cl	1.382532	-0.247920	-0.902195
Cl112	Cl	1.882532	0.252080	-0.402195
Cl113	Cl	1.477333	-0.503686	-0.902327
Cl114	Cl	1.977333	-0.003686	-0.402327
Cl115	Cl	1.475126	-0.930787	-0.719740
Cl116	Cl	1.975126	-0.430787	-0.219740
Cl117	Cl	1.325995	-0.930326	-0.574520
Cl118	Cl	1.825995	-0.430326	-0.074520
H119	H	1.124886	-0.373986	-0.686362
H120	H	1.624886	0.126014	-0.186362
H121	H	1.643443	-0.791640	-0.647158
H122	H	2.143443	-0.291640	-0.147158
H123	H	1.640662	-0.454261	-1.103239
H124	H	2.140662	0.045739	-0.603239
Cl125	Cl	1.139262	-0.502643	-0.568974
Cl126	Cl	1.639262	-0.002643	-0.068974
H127	H	1.644993	-0.918711	-0.646300
H128	H	2.144993	-0.418711	-0.146300
H129	H	0.941725	-0.241222	-0.448208
H130	H	1.441725	0.258778	0.051792
Cl131	Cl	1.141566	-0.461154	-0.354881
Cl132	Cl	1.641566	0.038846	0.145119
Cl133	Cl	0.923936	-0.250602	-0.665869
Cl134	Cl	1.423936	0.249398	-0.165869
Cl135	Cl	1.139190	-0.246531	-0.657942
Cl136	Cl	1.639190	0.253469	-0.157942
H137	H	1.696967	-0.312627	-0.920036
H138	H	2.196967	0.187373	-0.420036
H139	H	0.942644	-0.378785	-0.683738
H140	H	1.442644	0.121215	-0.183738
Cl141	Cl	1.323137	-0.396283	-1.117922
Cl142	Cl	1.823137	0.103717	-0.617922
H143	H	1.595141	-0.792638	-0.346018
H144	H	2.095141	-0.292638	0.153982
Cl145	Cl	1.377405	-0.932501	-0.358540
Cl146	Cl	1.877405	-0.432501	0.141460
H147	H	1.696456	-0.920676	-0.447390
H148	H	2.196456	-0.420676	0.052610
H149	H	1.595087	-0.919861	-0.345557
H150	H	2.095087	-0.419861	0.154443
H151	H	1.697193	-0.793046	-0.447820
H152	H	2.197193	-0.293046	0.052180
H153	H	1.123850	-0.241544	-0.448055
H154	H	1.623850	0.258456	0.051945
Cl155	Cl	0.923537	-0.319256	-0.301637
Cl156	Cl	1.423537	0.180744	0.198363
Cl157	Cl	1.468174	-0.500549	-1.116989
Cl158	Cl	1.968174	-0.000549	-0.616989
H159	H	1.397664	-0.793147	-0.397433
H160	H	1.897664	-0.293147	0.102567
H161	H	1.356376	-0.792005	-0.535110
H162	H	1.856376	-0.292005	-0.035110
H163	H	1.123021	-0.312511	-0.345755
H164	H	1.623021	0.187489	0.154245
Cl165	Cl	1.742703	-0.319793	-1.118206
Cl166	Cl	2.242703	0.180207	-0.618206
Cl167	Cl	1.585703	-0.210400	-1.120273
Cl168	Cl	2.085703	0.289600	-0.620273
H169	H	0.943001	-0.451240	-0.397592
H170	H	1.443001	0.048760	0.102408
Cl171	Cl	1.585058	-0.209700	-0.904861
Cl172	Cl	2.085058	0.290300	-0.404861
H173	H	1.396837	-0.277668	-1.100775
H174	H	1.896837	0.222332	-0.600775
