data_functionalizedCrystal
_audit_creation_method	'MofGen! by Chris Wilmer'
_symmetry_space_group_name_H-M	'P1'
_symmetry_Int_Tables_number	1
_symmetry_cell_setting	triclinic
loop_
_symmetry_equiv_pos_as_xyz
  x,y,z
_cell_length_a	14.853567
_cell_length_b	15.944551
_cell_length_c	13.930277
_cell_angle_alpha	89.994493
_cell_angle_beta	89.995755
_cell_angle_gamma	83.566834
loop_
_atom_site_label
_atom_site_type_symbol
_atom_site_fract_x
_atom_site_fract_y
_atom_site_fract_z
O1	O	1.196228	0.109664	-0.079767
O2	O	1.696228	0.609664	0.420233
O3	O	0.933751	0.122728	-0.079783
O4	O	1.433751	0.622728	0.420217
O5	O	1.072157	-0.006071	-0.079766
O6	O	1.572157	0.493929	0.420234
O7	O	1.057822	0.238463	-0.079784
O8	O	1.557822	0.738463	0.420216
O9	O	1.072138	-0.006073	0.079896
O10	O	1.572138	0.493927	0.579896
O11	O	0.933732	0.122725	0.079878
O12	O	1.433732	0.622725	0.579878
O13	O	1.196208	0.109662	0.079895
O14	O	1.696208	0.609662	0.579895
Zn15	Zn	1.064967	0.116193	0.105236
Zn16	Zn	1.564967	0.616193	0.605236
Zn17	Zn	1.064993	0.116197	-0.105125
Zn18	Zn	1.564993	0.616197	0.394875
O19	O	1.057803	0.238460	0.079878
O20	O	1.557803	0.738460	0.579878
C21	C	0.900154	0.122135	0.000045
C22	C	1.400154	0.622135	0.500045
C23	C	0.800072	0.120361	0.000039
C24	C	1.300072	0.620361	0.500039
C25	C	1.071552	-0.037367	0.000065
C26	C	1.571552	0.462633	0.500065
C27	C	1.069768	-0.130615	0.000065
C28	C	1.569768	0.369385	0.500065
C29	C	0.387646	0.036354	0.000067
C30	C	0.887646	0.536354	0.500067
C31	C	0.366169	0.189369	0.000055
C32	C	0.866169	0.689369	0.500055
C33	C	0.460201	0.191037	0.000051
C34	C	0.960201	0.691037	0.500051
C35	C	0.517960	0.115362	0.000055
C36	C	1.017960	0.615362	0.500055
C37	C	0.481687	0.038019	0.000061
C38	C	0.981687	0.538019	0.500061
C39	C	0.496480	0.268379	0.000035
C40	C	0.996480	0.768379	0.500035
C41	C	0.590517	0.270050	0.000031
C42	C	1.090517	0.770050	0.500031
C43	C	0.648278	0.194374	0.000041
C44	C	1.148278	0.694374	0.500041
C45	C	0.612000	0.117028	0.000049
C46	C	1.112000	0.617028	0.500049
C47	C	0.669759	0.041353	0.000052
C48	C	1.169759	0.541353	0.500052
C49	C	0.633483	-0.035994	0.000066
C50	C	1.133483	0.464006	0.500066
C51	C	0.539448	-0.037657	0.000071
C52	C	1.039448	0.462343	0.500071
C53	C	0.742313	0.196036	0.000036
C54	C	1.242313	0.696036	0.500036
C55	C	0.763800	0.043018	0.000046
C56	C	1.263800	0.543018	0.500046
C57	C	0.979713	-0.345572	0.000047
C58	C	1.479713	0.154428	0.500047
C59	C	1.021522	-0.406544	0.078772
C60	C	1.521522	0.093456	0.578772
C61	C	1.066541	-0.301344	0.000058
C62	C	1.566541	0.198656	0.500058
C63	C	1.021562	-0.406524	-0.078642
C64	C	1.521562	0.093476	0.421358
C65	C	1.063416	-0.466260	0.000046
C66	C	1.563416	0.033740	0.500046
C67	C	1.108373	-0.361088	0.078848
C68	C	1.608373	0.138912	0.578848
C69	C	1.108401	-0.361062	-0.078636
C70	C	1.608401	0.138938	0.421364
C71	C	1.150273	-0.422017	0.000109
C72	C	1.650273	0.077983	0.500109
C73	C	1.068338	-0.206340	0.000065
C74	C	1.568338	0.293660	0.500065
C75	C	1.061626	-0.561263	0.000046
C76	C	1.561626	-0.061263	0.500046
C77	C	1.229806	0.110255	0.000064
C78	C	1.729806	0.610255	0.500064
C79	C	1.329887	0.112029	0.000064
C80	C	1.829887	0.612029	0.500064
C81	C	1.058407	0.269756	0.000044
C82	C	1.558407	0.769756	0.500044
C83	C	1.060191	0.363004	0.000038
C84	C	1.560191	0.863004	0.500038
N85	N	1.064957	0.116190	0.248803
N86	N	1.564957	0.616190	0.748803
N87	N	1.065010	0.116193	-0.248691
N88	N	1.565010	0.616193	0.251309
C89	C	1.003704	0.173206	0.701064
C90	C	1.503704	0.673206	1.201064
C91	C	1.126306	0.059181	0.701049
C92	C	1.626306	0.559181	1.201049
C93	C	1.126295	0.059178	0.600553
C94	C	1.626295	0.559178	1.100553
C95	C	1.064989	0.116191	0.550308
C96	C	1.564989	0.616191	1.050308
C97	C	1.003693	0.173207	0.600559
C98	C	1.503693	0.673207	1.100559
C99	C	1.187596	0.002169	0.550295
C100	C	1.687596	0.502169	1.050295
C101	C	1.187588	0.002164	0.449793
C102	C	1.687588	0.502164	0.949793
C103	C	1.126277	0.059174	0.399546
C104	C	1.626277	0.559174	0.899546
C105	C	1.064978	0.116192	0.449803
C106	C	1.564978	0.616192	0.949803
C107	C	1.003672	0.173205	0.399558
C108	C	1.503672	0.673205	0.899558
C109	C	0.942368	0.230220	0.449814
C110	C	1.442368	0.730220	0.949814
C111	C	0.942382	0.230217	0.550312
C112	C	1.442382	0.730217	1.050312
C113	C	1.126263	0.059177	0.299047
C114	C	1.626263	0.559177	0.799047
C115	C	1.003661	0.173206	0.299053
C116	C	1.503661	0.673206	0.799053
H117	H	0.810822	-0.018607	0.000052
H118	H	1.310822	0.481393	0.500052
N119	N	1.157010	-0.334335	-0.166797
N120	N	1.657010	0.165665	0.333203
H121	H	1.158362	-0.271150	-0.165803
H122	H	1.658362	0.228850	0.334197
H123	H	1.221048	-0.363328	-0.167376
H124	H	1.721048	0.136672	0.332624
N125	N	1.245814	-0.465849	0.000167
N126	N	1.745814	0.034151	0.500167
H127	H	1.278885	-0.448579	-0.058714
H128	H	1.778885	0.051421	0.441286
H129	H	1.278402	-0.449327	0.059695
H130	H	1.778402	0.050673	0.559695
N131	N	0.348528	-0.047068	0.000095
N132	N	0.848528	0.452932	0.500095
H133	H	0.280193	-0.036645	0.000104
H134	H	0.780193	0.463355	0.500104
H135	H	0.369653	-0.080190	-0.059089
H136	H	0.869653	0.419810	0.440911
N137	N	0.629648	0.353465	0.000030
N138	N	1.129648	0.853465	0.500030
H139	H	0.668189	0.357568	-0.059156
H140	H	1.168189	0.857568	0.440844
H141	H	0.578743	0.401105	0.000065
H142	H	1.078743	0.901105	0.500065
N143	N	0.303875	0.270985	0.000042
N144	N	0.803875	0.770985	0.500042
H145	H	0.315538	0.304726	0.059223
H146	H	0.815538	0.804726	0.559223
H147	H	0.315581	0.304652	-0.059190
H148	H	0.815581	0.804652	0.440810
N149	N	0.695779	-0.117617	0.000068
N150	N	1.195779	0.382383	0.500068
H151	H	0.735271	-0.120333	-0.059123
H152	H	1.235271	0.379667	0.440877
H153	H	0.735217	-0.120283	0.059289
H154	H	1.235217	0.379717	0.559289
H155	H	0.892471	0.276637	0.591236
H156	H	1.392471	0.776637	1.091236
H157	H	0.509903	-0.100629	0.000105
H158	H	1.009903	0.399371	0.500105
N159	N	0.781442	0.279449	0.000010
N160	N	1.281442	0.779449	0.500010
H161	H	0.730583	0.327135	0.000003
H162	H	1.230583	0.827135	0.500003
H163	H	0.819988	0.283478	0.059196
H164	H	1.319988	0.783478	0.559196
N165	N	0.434187	0.349995	0.000022
N166	N	0.934187	0.849995	0.500022
H167	H	0.369113	0.337202	0.000033
H168	H	0.869113	0.837202	0.500033
H169	H	0.445933	0.383699	0.059204
H170	H	0.945933	0.883699	0.559204
N171	N	0.884250	-0.301557	0.000132
N172	N	1.384250	0.198443	0.500132
H173	H	0.851562	-0.317973	0.059652
H174	H	1.351562	0.182027	0.559652
H175	H	0.886199	-0.238447	-0.000514
H176	H	1.386199	0.261553	0.499486
H177	H	0.953734	0.219631	0.258150
H178	H	1.453734	0.719631	0.758150
N179	N	0.937585	0.234692	0.755266
N180	N	1.437585	0.734692	1.255266
H181	H	0.972034	0.271944	0.796955
H182	H	1.472034	0.771944	1.296955
H183	H	0.898763	0.270752	0.708125
H184	H	1.398763	0.770752	1.208125
H185	H	0.984834	-0.426641	-0.145203
H186	H	1.484834	0.073359	0.354797
H187	H	0.892456	0.276644	0.408893
H188	H	1.392456	0.776644	0.908893
H189	H	1.176224	0.012766	0.741962
H190	H	1.676224	0.512766	1.241962
H191	H	1.237514	-0.044246	0.591208
H192	H	1.737514	0.455754	1.091208
H193	H	0.984790	-0.426694	0.145324
H194	H	1.484790	0.073306	0.645324
H195	H	1.145059	-0.341058	0.145478
H196	H	1.645059	0.158942	0.645478
N197	N	1.253703	-0.059326	0.395593
N198	N	1.753703	0.440674	0.895593
H199	H	1.292541	-0.095443	0.442674
H200	H	1.792541	0.404557	0.942674
H201	H	1.219183	-0.096521	0.353910
H202	H	1.719183	0.403479	0.853910
H203	H	1.176179	0.012760	0.258134
H204	H	1.676179	0.512760	0.758134
