data_functionalizedCrystal
_audit_creation_method	'MofGen! by Chris Wilmer'
_symmetry_space_group_name_H-M	'P1'
_symmetry_Int_Tables_number	1
_symmetry_cell_setting	triclinic
loop_
_symmetry_equiv_pos_as_xyz
  x,y,z
_cell_length_a	6.817900
_cell_length_b	11.102210
_cell_length_c	17.110486
_cell_angle_alpha	95.183589
_cell_angle_beta	99.060439
_cell_angle_gamma	108.604261
loop_
_atom_site_label
_atom_site_type_symbol
_atom_site_fract_x
_atom_site_fract_y
_atom_site_fract_z
V1	V	-4.002955	-0.175460	-0.246718
O2	O	-3.964063	0.008821	-0.242024
O3	O	-3.980467	-0.348282	-0.245029
O4	O	-3.932387	-0.172590	-0.354322
O5	O	-4.012476	-0.168087	-0.131975
V6	V	-4.486098	-0.153438	-0.232994
O7	O	-4.265047	-0.223767	-0.276823
O8	O	-4.674204	-0.105131	-0.202890
O9	O	-4.285381	0.019384	-0.234683
O10	O	-4.642387	-0.337719	-0.237689
O11	O	-4.593975	-0.160811	-0.347738
O12	O	-4.333460	-0.156308	-0.125391
C13	C	-3.832488	-0.390418	-0.241137
C14	C	-3.895240	-0.531701	-0.240473
C15	C	-3.955427	-0.712808	-0.167085
C16	C	-3.896446	-0.580054	-0.167699
C17	C	-3.953001	-0.616109	-0.312636
C18	C	-4.011967	-0.748859	-0.312021
C19	C	-3.771157	-0.166304	-0.380549
C20	C	-3.794914	-0.165101	-0.468515
C21	C	-3.988313	-0.170879	-0.513873
C22	C	-4.010624	-0.169747	-0.596526
C23	C	-3.839537	-0.162848	-0.633821
C24	C	-3.646121	-0.157066	-0.588457
C25	C	-3.623808	-0.158188	-0.505804
C26	C	-3.897785	-0.159135	-0.883176
C27	C	-3.920115	-0.158017	-0.965835
C28	C	-4.284616	-0.170697	-0.973898
C29	C	-4.262290	-0.171826	-0.891245
C30	C	-4.068874	-0.166037	-0.845887
C31	C	-3.862340	-0.161696	-0.718306
C32	C	-4.046069	-0.167180	-0.761402
C33	C	-4.096702	0.061513	-0.238574
C34	C	-4.013188	0.202795	-0.239243
C35	C	-4.158034	-0.162599	-0.099160
C36	C	-4.113514	-0.163795	-0.011193
H37	H	-3.956411	-0.752165	-0.107824
Br38	Br	-4.494496	-0.181200	-0.840637
Br39	Br	-4.273112	-0.177604	-0.658082
Br40	Br	-3.818043	-0.465518	-0.069766
Br41	Br	-3.951334	-0.550488	-0.411402
Br42	Br	-4.090296	-0.863407	-0.409955
H43	H	-4.185364	-0.172794	-0.731033
H44	H	-4.127640	-0.176506	-0.483515
Br45	Br	-3.361319	-0.150328	-0.444244
H46	H	-4.442089	-0.175408	-1.010837
Br47	Br	-3.687911	-0.148657	-1.016449
H48	H	-3.740318	-0.154466	-0.846260
Br49	Br	-3.413926	-0.147699	-0.639070
H50	H	-3.723047	-0.156083	-0.748681
