data_functionalizedCrystal
_audit_creation_method	'MofGen! by Chris Wilmer'
_symmetry_space_group_name_H-M	'P1'
_symmetry_Int_Tables_number	1
_symmetry_cell_setting	triclinic
loop_
_symmetry_equiv_pos_as_xyz
  x,y,z
_cell_length_a	19.188930
_cell_length_b	9.616153
_cell_length_c	10.540539
_cell_angle_alpha	89.999906
_cell_angle_beta	83.835136
_cell_angle_gamma	89.979265
loop_
_atom_site_label
_atom_site_type_symbol
_atom_site_fract_x
_atom_site_fract_y
_atom_site_fract_z
O1	O	0.927204	-0.116087	0.158464
O2	O	0.724035	-0.115991	0.179797
O3	O	0.830255	-0.116039	-0.015678
O4	O	0.820984	-0.116038	0.353939
O5	O	0.830240	0.115252	-0.015674
O6	O	0.724020	0.115301	0.179801
O7	O	0.927189	0.115205	0.158469
Zn8	Zn	0.825602	0.151975	0.169136
Zn9	Zn	0.825622	-0.152761	0.169130
O10	O	0.820969	0.115253	0.353944
C11	C	0.698012	-0.000333	0.179108
C12	C	0.620493	-0.000296	0.177035
C13	C	0.829552	-0.000396	-0.062963
C14	C	0.827472	-0.000402	-0.203866
N15	N	0.825594	0.359950	0.169139
C16	C	0.576334	-0.000318	0.291733
C17	C	0.503497	-0.000333	0.289785
C18	C	0.474823	-0.000355	0.173132
C19	C	0.518992	-0.000325	0.058418
C20	C	0.591827	-0.000296	0.060370
N21	N	0.366254	-0.079130	0.083963
N22	N	0.297063	-0.079160	0.082117
C23	C	0.255375	-0.000440	0.167245
N24	N	0.285491	0.078295	0.254307
N25	N	0.354688	0.078320	0.256157
C26	C	0.395846	-0.000386	0.171003
C27	C	0.132237	-0.000476	0.279839
C28	C	0.059400	-0.000483	0.277885
C29	C	0.074896	-0.000489	0.046516
C30	C	0.147732	-0.000468	0.048472
C31	C	0.176398	-0.000468	0.165137
C32	C	0.953212	-0.000456	0.159157
C33	C	1.030731	-0.000502	0.161231
N34	N	0.825635	-0.360736	0.169117
C35	C	0.768600	0.580346	0.273362
C36	C	0.768726	0.419178	0.273745
C37	C	0.898589	0.418364	0.197664
C38	C	0.898279	0.579582	0.198400
C39	C	0.810320	0.579870	0.036037
C40	C	0.808645	0.418644	0.036939
C41	C	0.747771	-0.000884	-0.385536
C42	C	0.749879	-0.000364	-0.238965
C43	C	0.864805	0.131659	-0.266344
C44	C	0.862157	0.131771	-0.412830
C45	C	0.863751	-0.131251	-0.413388
C46	C	0.864466	-0.132998	-0.266422
C47	C	0.821672	-0.000393	0.401229
C48	C	0.823752	-0.000396	0.542131
H49	H	0.599669	-0.000321	0.386731
H50	H	0.495641	-0.000362	-0.036562
C51	C	0.640405	-0.000289	-0.065804
H52	H	0.612899	-0.000312	-0.135561
H53	H	0.669122	0.080372	-0.069853
H54	H	0.669157	-0.080951	-0.069847
H55	H	0.467536	-0.000347	0.383189
C56	C	0.940891	-0.143811	-0.235397
H57	H	0.951285	-0.067254	-0.183663
H58	H	0.947033	-0.228112	-0.190946
H59	H	0.971509	-0.142703	-0.312453
C60	C	0.043363	-0.000521	-0.081801
H61	H	-0.006340	-0.000551	-0.066538
H62	H	0.058460	0.080134	-0.129019
H63	H	0.058506	-0.081189	-0.129004
C64	C	0.957329	0.366522	0.097816
H65	H	0.937811	0.308648	0.037705
H66	H	0.979820	0.443899	0.054955
H67	H	0.990588	0.315006	0.139194
C68	C	0.010821	-0.000508	0.404057
H69	H	-0.036664	-0.000509	0.386189
H70	H	0.019595	-0.081164	0.451899
H71	H	0.019553	0.080159	0.451915
C72	C	0.861039	0.364192	-0.072732
H73	H	0.849538	0.401299	-0.151384
H74	H	0.907123	0.392109	-0.059061
H75	H	0.858772	0.265563	-0.075422
C76	C	0.163774	-0.000462	0.408162
H77	H	0.127039	-0.000457	0.476195
H78	H	0.191885	-0.081110	0.413732
H79	H	0.191844	0.080213	0.413731
H80	H	0.919796	-0.132166	-0.461849
C81	C	0.824859	0.265153	-0.450106
H82	H	0.811463	0.318755	-0.375757
H83	H	0.855759	0.317948	-0.507840
H84	H	0.784333	0.241035	-0.489696
C85	C	0.829834	-0.266472	-0.455256
H86	H	0.790956	-0.244384	-0.500259
H87	H	0.863255	-0.318061	-0.509222
H88	H	0.814347	-0.320381	-0.382102
C89	C	0.196310	-0.000466	-0.077698
H90	H	0.168803	-0.000493	-0.147453
H91	H	0.225024	0.080199	-0.081748
H92	H	0.225065	-0.081124	-0.081742
H93	H	0.714489	0.379689	0.256809
H94	H	0.714194	0.619183	0.256708
C95	C	0.866490	0.631344	-0.068759
H96	H	0.899120	0.688754	-0.031660
H97	H	0.890287	0.553801	-0.108970
H98	H	0.844714	0.683267	-0.130283
H99	H	0.838859	0.229960	-0.223171
C100	C	0.782038	0.367035	0.407158
H101	H	0.782158	0.268243	0.407850
H102	H	0.826117	0.400400	0.427326
H103	H	0.746045	0.400279	0.468608
H104	H	0.917960	0.137737	-0.462028
H105	H	0.720503	-0.095029	-0.195716
C106	C	0.916364	0.630359	0.329497
H107	H	0.923828	0.552457	0.381806
H108	H	0.957695	0.685329	0.318572
H109	H	0.878714	0.684595	0.369006
C110	C	0.781725	0.635033	0.406037
H111	H	0.821814	0.693612	0.398177
H112	H	0.742049	0.686379	0.441597
H113	H	0.789425	0.558836	0.460186
C114	C	0.957376	0.632234	0.099704
H115	H	0.981472	0.555090	0.059346
H116	H	0.937873	0.687150	0.037433
H117	H	0.989253	0.686925	0.141459
H118	H	0.912282	0.377966	0.293600
H119	H	0.758217	0.620632	0.008505
H120	H	0.754946	0.380469	0.015281
H121	H	0.717126	-0.095585	-0.413463
H122	H	0.717239	0.093316	-0.415069
H123	H	0.720285	0.094487	-0.196555
C124	C	0.941780	0.138273	-0.237837
H125	H	0.951856	0.060370	-0.187453
H126	H	0.971665	0.137036	-0.315755
H127	H	0.949302	0.221490	-0.192690
H128	H	0.837150	-0.230693	-0.224963
