data_functionalizedCrystal
_audit_creation_method	'MofGen! by Chris Wilmer'
_symmetry_space_group_name_H-M	'P1'
_symmetry_Int_Tables_number	1
_symmetry_cell_setting	triclinic
loop_
_symmetry_equiv_pos_as_xyz
  x,y,z
_cell_length_a	10.654562
_cell_length_b	9.065218
_cell_length_c	9.130313
_cell_angle_alpha	90.000552
_cell_angle_beta	89.996930
_cell_angle_gamma	84.752995
loop_
_atom_site_label
_atom_site_type_symbol
_atom_site_fract_x
_atom_site_fract_y
_atom_site_fract_z
O1	O	1.668646	0.207317	-0.121889
O2	O	1.303248	0.227042	-0.121871
O3	O	1.493499	0.002496	-0.121877
O4	O	1.478394	0.431863	-0.121883
O5	O	1.493497	0.002502	0.121721
O6	O	1.303245	0.227048	0.121728
O7	O	1.668644	0.207324	0.121709
Cu8	Cu	1.485944	0.217186	0.143961
Cu9	Cu	1.485947	0.217179	-0.144122
O10	O	1.478392	0.431869	0.121716
C11	C	1.256443	0.225593	-0.000069
C12	C	1.116983	0.221248	-0.000062
C13	C	1.051443	0.219225	0.132713
C14	C	0.920405	0.215154	0.132688
C15	C	0.920457	0.215137	-0.132897
C16	C	1.051494	0.219196	-0.132871
C17	C	1.051411	0.219241	0.286046
C18	C	0.920373	0.215171	0.286022
C19	C	1.492047	-0.052479	-0.000080
C20	C	1.487706	-0.216299	-0.000087
C21	C	1.715448	0.208773	-0.000096
C22	C	1.854908	0.213117	-0.000112
C23	C	1.479845	0.486845	-0.000084
C24	C	1.484185	0.650664	-0.000087
N25	N	1.485951	0.217190	0.346584
N26	N	1.485950	0.217163	-0.346745
C27	C	1.570217	0.117796	0.423233
C28	C	1.570213	0.117778	0.576570
C29	C	1.401675	0.316563	0.576595
C30	C	1.401673	0.316572	0.423261
C31	C	1.667525	0.003033	0.423220
C32	C	1.667522	0.003016	0.576556
H33	H	0.874490	0.317142	0.344885
H34	H	1.645633	-0.110375	0.381602
F35	F	1.311974	0.422342	0.341686
H36	H	1.758851	0.038974	0.375656
F37	F	1.627076	-0.137056	0.638716
F38	F	1.311984	0.422325	0.658212
F39	F	1.793799	0.036053	0.630952
H40	H	1.104854	0.220821	-0.240988
F41	F	0.850750	0.212939	-0.274233
F42	F	1.111353	0.085970	0.363012
H43	H	1.081411	0.326850	0.333621
H44	H	0.890358	0.107566	0.333602
