data_functionalizedCrystal
_audit_creation_method	'MofGen! by Chris Wilmer'
_symmetry_space_group_name_H-M	'P1'
_symmetry_Int_Tables_number	1
_symmetry_cell_setting	triclinic
loop_
_symmetry_equiv_pos_as_xyz
  x,y,z
_cell_length_a	10.654541
_cell_length_b	10.723023
_cell_length_c	9.730217
_cell_angle_alpha	89.997098
_cell_angle_beta	89.993309
_cell_angle_gamma	84.475738
loop_
_atom_site_label
_atom_site_type_symbol
_atom_site_fract_x
_atom_site_fract_y
_atom_site_fract_z
O1	O	0.176149	1.657211	-0.114275
O2	O	0.193011	1.294061	-0.114281
O3	O	0.001839	1.483987	-0.114270
O4	O	0.367321	1.467285	-0.114287
O5	O	0.001825	1.483976	0.114310
O6	O	0.192997	1.294049	0.114299
O7	O	0.176135	1.657200	0.114305
Zn8	Zn	0.184563	1.475623	0.150594
Zn9	Zn	0.184583	1.475638	-0.150570
O10	O	0.367307	1.467273	0.114293
C11	C	0.191777	1.247555	0.000008
C12	C	0.188106	1.109001	0.000006
C13	C	0.182684	0.904038	-0.118405
C14	C	0.186478	1.047242	-0.118406
C15	C	-0.044966	1.482756	0.000020
C16	C	-0.184409	1.479089	0.000017
C17	C	-0.212414	1.706197	0.000038
C18	C	-0.291926	1.818023	0.000051
C19	C	-0.422943	1.814569	0.000047
C20	C	-0.474451	1.699278	0.000025
C21	C	-0.394939	1.587452	0.000012
C22	C	-0.263920	1.590917	0.000021
C23	C	-0.366934	1.360346	-0.000019
C24	C	-0.235916	1.363797	-0.000005
C25	C	-0.418442	1.245054	-0.000041
C26	C	-0.338930	1.133225	-0.000044
C27	C	-0.207905	1.136684	-0.000038
C28	C	-0.156405	1.251971	-0.000018
C29	C	0.414112	1.468505	0.000001
C30	C	0.553555	1.472172	-0.000006
C31	C	0.177369	1.703705	0.000012
C32	C	0.181040	1.842260	0.000005
N33	N	0.184586	1.475649	-0.356107
C34	C	0.030502	1.323251	-0.643794
C35	C	-0.046519	1.247078	-0.571816
C36	C	-0.046509	1.247093	-0.427936
C37	C	0.030534	1.323287	-0.356031
C38	C	0.107555	1.399461	-0.428009
C39	C	0.107533	1.399440	-0.571892
C40	C	0.261608	1.551823	-0.428085
C41	C	0.261592	1.551815	-0.571964
C42	C	0.338650	1.628017	-0.356179
C43	C	0.415667	1.704198	-0.428157
C44	C	0.415652	1.704181	-0.572046
C45	C	0.338613	1.627989	-0.643942
N46	N	0.184550	1.475621	0.356130
H47	H	0.187899	1.100369	-0.219781
H48	H	0.182435	0.895388	0.101380
H49	H	-0.380879	1.039364	-0.000071
C50	C	0.500401	1.788001	-0.349062
H51	H	0.489375	1.777100	-0.253065
H52	H	0.586091	1.765405	-0.372663
H53	H	0.477990	1.873210	-0.372645
C54	C	0.500376	1.787969	-0.651217
H55	H	0.489344	1.777046	-0.747206
H56	H	0.477991	1.873177	-0.627645
H57	H	0.586075	1.765356	-0.627654
H58	H	-0.049725	1.254797	-0.000005
H59	H	-0.249974	1.911891	0.000081
C60	C	-0.618566	1.695481	0.000010
H61	H	-0.658543	1.778591	0.000024
H62	H	-0.643022	1.652767	-0.079705
H63	H	-0.643046	1.652754	0.079727
H64	H	-0.487682	1.905628	0.000047
H65	H	0.186700	1.055880	0.101387
C66	C	0.338597	1.627962	-0.802206
H67	H	0.281692	1.571668	-0.834715
H68	H	0.313004	1.709995	-0.834776
H69	H	0.421091	1.602176	-0.834764
C70	C	0.180794	0.832280	-0.255359
H71	H	0.178501	0.745443	-0.237392
H72	H	0.108253	0.862441	-0.306588
H73	H	0.254483	0.844673	-0.306584
C74	C	-0.120446	1.013676	-0.000059
H75	H	-0.035038	1.032239	-0.000061
H76	H	-0.136177	0.966433	0.079640
H77	H	-0.136158	0.966473	-0.079792
H78	H	-0.109244	1.185040	-0.630377
H79	H	0.338659	1.628018	-0.239025
H80	H	-0.525124	1.242250	-0.000052
C81	C	-0.068299	1.709994	0.000060
H82	H	-0.028322	1.626883	0.000060
H83	H	-0.043811	1.752731	-0.079637
H84	H	-0.043851	1.752697	0.079795
C85	C	0.030487	1.323239	-0.802057
H86	H	0.087386	1.379523	-0.834626
H87	H	0.056073	1.241196	-0.834599
H88	H	-0.052014	1.349016	-0.834585
C89	C	-0.131215	1.163292	-0.348757
H90	H	-0.177101	1.117912	-0.412181
H91	H	-0.080356	1.106237	-0.292634
H92	H	-0.188464	1.214035	-0.292623
H93	H	0.030547	1.323282	-0.238876
