data_functionalizedCrystal
_audit_creation_method	'MofGen! by Chris Wilmer'
_symmetry_space_group_name_H-M	'P1'
_symmetry_Int_Tables_number	1
_symmetry_cell_setting	triclinic
loop_
_symmetry_equiv_pos_as_xyz
  x,y,z
_cell_length_a	11.026607
_cell_length_b	15.995350
_cell_length_c	10.065875
_cell_angle_alpha	98.791555
_cell_angle_beta	79.302338
_cell_angle_gamma	96.039196
loop_
_atom_site_label
_atom_site_type_symbol
_atom_site_fract_x
_atom_site_fract_y
_atom_site_fract_z
O1	O	1.627917	0.340991	-0.113481
O2	O	1.274611	0.301065	-0.113484
O3	O	1.460922	0.200596	-0.113481
O4	O	1.441606	0.441460	-0.113484
O5	O	1.425395	0.219853	0.113507
O6	O	1.239084	0.320322	0.113504
O7	O	1.592390	0.360247	0.113508
Zn8	Zn	1.410096	0.343342	0.149545
Zn9	Zn	1.456905	0.317971	-0.149522
O10	O	1.406079	0.460716	0.113504
C11	C	1.211637	0.303328	0.000010
C12	C	1.076923	0.281371	0.000008
C13	C	1.003118	0.341997	0.000007
C14	C	0.863884	0.319305	0.000005
C15	C	1.442360	0.178909	0.000011
C16	C	1.439967	0.085597	0.000003
C17	C	1.431369	-0.253446	0.000007
C18	C	1.298762	-0.226055	-0.000503
C19	C	1.301076	-0.128960	0.000009
C20	C	1.435634	-0.085243	0.000004
C21	C	1.480793	-0.105459	0.129624
C22	C	1.477442	-0.202588	0.129732
C23	C	1.520584	-0.224432	-0.128396
C24	C	1.520821	-0.127636	-0.130109
C25	C	1.438051	0.009819	0.000007
C26	C	1.428955	-0.348507	0.000014
C27	C	1.655365	0.357984	0.000011
C28	C	1.790080	0.379940	0.000003
C29	C	1.424641	0.482403	0.000010
C30	C	1.427036	0.575714	0.000009
N31	N	1.378160	0.360658	0.353650
N32	N	1.488851	0.300649	-0.353627
C33	C	1.445785	0.323989	0.421430
C34	C	1.421215	0.337324	0.578597
H35	H	1.260276	-0.260465	-0.093456
C36	C	1.613315	-0.065684	0.136139
C37	C	1.641511	0.031095	0.143181
C38	C	1.774032	0.070876	0.149689
C39	C	1.878357	0.013879	0.149154
C40	C	1.850164	-0.082905	0.142111
C41	C	1.717643	-0.122687	0.135604
H42	H	1.564281	0.073293	0.143578
H43	H	1.794902	0.142523	0.154903
H44	H	1.976456	0.043328	0.153972
H45	H	1.927394	-0.125103	0.141715
H46	H	1.696773	-0.194334	0.130390
H47	H	1.302069	0.401920	0.411975
C48	C	1.482752	-0.272265	-0.261122
C49	C	1.557301	-0.254068	-0.400359
C50	C	1.519452	-0.301901	-0.533077
C51	C	1.407054	-0.367931	-0.526557
C52	C	1.332498	-0.386130	-0.387314
C53	C	1.370347	-0.338297	-0.254597
H54	H	1.640512	-0.205187	-0.405190
H55	H	1.574644	-0.288429	-0.636153
H56	H	1.379036	-0.403340	-0.624802
H57	H	1.249288	-0.435012	-0.382483
H58	H	1.315155	-0.351770	-0.151521
H59	H	1.043008	0.410702	0.000014
H60	H	1.037037	0.212664	-0.000026
C61	C	1.251197	-0.111680	-0.125495
C62	C	1.208978	-0.186341	-0.226889
C63	C	1.159081	-0.169067	-0.352389
C64	C	1.151404	-0.077132	-0.376494
C65	C	1.193625	-0.002465	-0.275097
C66	C	1.243521	-0.019739	-0.149598
H67	H	1.214659	-0.254402	-0.209047
H68	H	1.127827	-0.224340	-0.427449
H69	H	1.114468	-0.064344	-0.469396
H70	H	1.187943	0.065596	-0.292939
H71	H	1.274776	0.035535	-0.074537
C72	C	1.207882	-0.252676	0.124368
C73	C	1.253573	-0.299133	0.226656
C74	C	1.162696	-0.325757	0.351527
C75	C	1.026128	-0.305923	0.374111
C76	C	0.980431	-0.259463	0.271820
C77	C	1.071307	-0.232839	0.146948
H78	H	1.354675	-0.313818	0.209941
H79	H	1.196526	-0.360150	0.427249
H80	H	0.958856	-0.325631	0.466548
H81	H	0.879329	-0.244778	0.288535
H82	H	1.037478	-0.198446	0.071226
C83	C	1.318419	0.393076	0.657372
C84	C	1.323868	0.487109	0.637858
C85	C	1.221074	0.542859	0.716633
C86	C	1.112831	0.504577	0.814923
C87	C	1.107378	0.410539	0.834442
C88	C	1.210172	0.354789	0.755666
H89	H	1.404000	0.515452	0.565094
H90	H	1.225111	0.612473	0.702184
H91	H	1.036736	0.545847	0.873238
H92	H	1.027246	0.382196	0.907205
H93	H	1.206134	0.285176	0.770115
H94	H	0.824003	0.250594	-0.000029
C95	C	0.843952	0.472763	0.000006
C96	C	0.833182	0.521094	-0.117862
C97	C	0.887056	0.613913	-0.117858
C98	C	0.951701	0.658402	0.000013
C99	C	0.962475	0.610071	0.117890
C100	C	0.908600	0.517251	0.117886
H101	H	0.785325	0.488160	-0.205125
H102	H	0.879081	0.649691	-0.205119
H103	H	0.991583	0.727113	0.000016
H104	H	1.010331	0.643004	0.205153
H105	H	0.916575	0.481474	0.205147
C106	C	1.476438	-0.111517	-0.259617
C107	C	1.435277	-0.186916	-0.360397
C108	C	1.390838	-0.170810	-0.489882
C109	C	1.387560	-0.079304	-0.518587
C110	C	1.428722	-0.003899	-0.417804
C111	C	1.473162	-0.020005	-0.288319
H112	H	1.437703	-0.254660	-0.339151
H113	H	1.360367	-0.226631	-0.564488
H114	H	1.354663	-0.067381	-0.614440
H115	H	1.426297	0.063845	-0.439051
H116	H	1.503633	0.035816	-0.213713
C117	C	1.211666	-0.091155	0.125928
C118	C	1.196102	0.004835	0.151542
C119	C	1.106798	0.042654	0.277555
C120	C	1.033057	-0.015517	0.377953
C121	C	1.048619	-0.111513	0.352341
C122	C	1.137923	-0.149332	0.226328
H123	H	1.250691	0.047902	0.077219
H124	H	1.095278	0.113717	0.296514
H125	H	0.966949	0.012479	0.471235
H126	H	0.994030	-0.154580	0.426664
H127	H	1.149443	-0.220395	0.207369
H128	H	1.414554	-0.219863	0.226628
C129	C	1.655041	-0.087805	-0.140686
C130	C	1.761035	-0.143366	-0.141109
C131	C	1.895259	-0.103533	-0.151669
C132	C	1.923487	-0.008139	-0.161807
C133	C	1.817490	0.047427	-0.161384
C134	C	1.683266	0.007594	-0.150823
H135	H	1.740141	-0.213987	-0.133604
H136	H	1.973725	-0.144667	-0.151982
H137	H	2.022847	0.021347	-0.169624
H138	H	1.838383	0.118048	-0.168889
H139	H	1.604800	0.048729	-0.150510
C140	C	1.652933	-0.247512	-0.129582
C141	C	1.679989	-0.292462	-0.014668
C142	C	1.812331	-0.315543	-0.015838
C143	C	1.917617	-0.293675	-0.131923
C144	C	1.890564	-0.248723	-0.246846
C145	C	1.758222	-0.225642	-0.245675
H146	H	1.602048	-0.308652	0.071272
H147	H	1.832357	-0.348819	0.069236
H148	H	2.015585	-0.310761	-0.132789
H149	H	1.968506	-0.232532	-0.332786
H150	H	1.738196	-0.192365	-0.330749
H151	H	1.573939	-0.219655	0.135610
H152	H	1.521868	0.282719	0.363107
H153	H	1.564938	0.259377	0.588054
H154	H	1.420240	-0.075746	0.226085
