data_functionalizedCrystal
_audit_creation_method	'MofGen! by Chris Wilmer'
_symmetry_space_group_name_H-M	'P1'
_symmetry_Int_Tables_number	1
_symmetry_cell_setting	triclinic
loop_
_symmetry_equiv_pos_as_xyz
  x,y,z
_cell_length_a	17.917603
_cell_length_b	14.628931
_cell_length_c	14.628931
_cell_angle_alpha	60.000000
_cell_angle_beta	90.000192
_cell_angle_gamma	57.011537
loop_
_atom_site_label
_atom_site_type_symbol
_atom_site_fract_x
_atom_site_fract_y
_atom_site_fract_z
Zr1	Zr	0.754908	0.916420	-0.077880
O2	O	0.629784	1.121074	-0.230816
O3	O	0.793265	0.721438	-0.030997
O4	O	0.793265	0.912143	-0.221702
O5	O	0.629783	0.930370	0.110321
O6	O	0.922222	0.897767	-0.214514
O7	O	0.629783	0.930369	-0.040110
O8	O	0.922221	0.556631	0.126624
O9	O	0.629784	1.271506	-0.230816
O10	O	0.905863	0.787326	-0.005637
O11	O	0.809623	0.798055	0.101264
O12	O	0.809624	1.022586	-0.123268
O13	O	0.713385	1.033315	-0.016367
Zr14	Zr	0.960579	0.893492	0.173506
Zr15	Zr	0.960579	0.893491	-0.066415
Zr16	Zr	0.754907	0.916421	0.162041
Zr17	Zr	0.754908	1.156342	-0.077880
Zr18	Zr	0.960579	0.653571	0.173507
O19	O	0.922222	1.088474	0.126623
O20	O	0.922222	1.088473	-0.214514
O21	O	0.629783	1.121075	0.110321
O22	O	1.085703	0.688838	0.326442
O23	O	1.085703	0.688837	-0.014695
O24	O	0.793264	0.721439	0.310140
O25	O	1.085704	0.879543	-0.014695
O26	O	0.922222	0.897769	0.317329
O27	O	0.793264	0.912145	0.310140
O28	O	1.085703	0.879543	0.135737
O29	O	0.793265	1.253281	-0.221703
O30	O	0.922221	0.556631	0.317329
O31	O	1.085703	0.538406	0.326442
O32	O	1.085703	0.538406	0.135737
O33	O	0.629784	1.271507	-0.040111
O34	O	0.793265	1.253281	-0.030997
O35	O	0.905863	0.787327	0.218894
O36	O	1.002102	0.776597	0.111993
O37	O	0.905863	1.011857	-0.005637
O38	O	0.809624	1.022586	0.101263
C39	C	0.857743	0.604851	0.047814
C40	C	0.857743	0.502998	0.047814
C41	C	0.905484	0.452266	-0.005216
C42	C	0.905485	0.346996	-0.005217
C43	C	0.600479	0.933636	0.033472
C44	C	0.513166	0.943370	0.028605
C45	C	0.353322	0.961150	0.019716
C46	C	0.362157	0.848768	0.075908
C47	C	0.273215	0.858661	0.070962
C48	C	0.442271	0.951260	0.024660
C49	C	1.115007	0.876276	0.062154
C50	C	1.202320	0.866542	0.067022
C51	C	0.857744	0.904955	-0.252292
C52	C	0.857744	0.904955	-0.354144
C53	C	0.857744	1.205061	0.047813
C54	C	0.857744	1.306914	0.047813
C55	C	0.810003	1.021660	-0.457906
C56	C	0.810002	1.021662	-0.563178
C57	C	0.857743	0.904957	0.347918
C58	C	0.857743	0.904957	0.449771
C59	C	1.115007	0.576171	0.062155
C60	C	1.202320	0.464584	0.067022
C61	C	0.857743	0.604852	0.347918
C62	C	0.857742	0.502999	0.449771
C63	C	1.115007	0.576172	0.362260
C64	C	1.202319	0.464585	0.468980
C65	C	0.600480	1.233741	-0.266633
C66	C	0.513167	1.345327	-0.373353
C67	C	0.600480	1.233741	0.033472
C68	C	0.513167	1.345328	0.028604
C69	C	0.857744	1.205060	-0.252292
C70	C	0.857744	1.306913	-0.354145
C71	C	1.193087	0.417782	0.007896
C72	C	1.275119	0.312948	0.012447
C73	C	1.366383	0.254912	0.076130
C74	C	1.375614	0.301724	0.135258
C75	C	1.293583	0.406562	0.130700
C76	C	1.293567	0.406582	0.463296
C77	C	1.375615	0.301747	0.563562
C78	C	1.366412	0.254911	0.669511
C79	C	1.275155	0.312925	0.675192
C80	C	1.193110	0.417765	0.574927
C81	C	0.421920	1.403342	-0.367670
C82	C	0.339872	1.508207	-0.467936
C83	C	0.349074	1.555048	-0.573885
C84	C	0.440331	1.497027	-0.579565
C85	C	0.522377	1.392171	-0.479300
C86	C	0.522399	1.392140	0.087720
C87	C	0.440367	1.497000	0.083143
C88	C	0.349104	1.555040	0.019456
C89	C	0.339873	1.508223	-0.039667
C90	C	0.421904	1.403372	-0.035096
C91	C	0.905483	0.452268	0.553533
C92	C	0.905484	0.346998	0.658805
H93	H	0.436520	0.745125	0.127729
N94	N	0.260053	1.091176	-0.045298
N95	N	0.235484	1.172431	-0.021845
H96	H	0.169606	1.264262	-0.067765
H97	H	0.282317	1.640416	0.015744
N98	N	1.468848	0.242418	0.200303
N99	N	1.542073	0.148807	0.204361
H100	H	1.607923	0.106912	0.250305
H101	H	0.898619	0.805041	-0.343245
N102	N	0.806468	0.361581	0.104790
N103	N	0.761588	0.323939	0.154650
H104	H	0.725374	0.362551	0.194893
H105	H	0.414373	1.365262	-0.083233
H106	H	0.265575	1.555430	-0.463288
N107	N	0.265252	1.662160	-0.676287
N108	N	0.183788	1.713938	-0.671183
H109	H	0.124585	1.789586	-0.743501
H110	H	1.118815	0.464979	0.579570
H111	H	0.946351	0.486775	0.564432
N112	N	0.758740	1.146994	-0.471571
N113	N	0.758817	1.146815	-0.386036
H114	H	0.722612	1.235336	-0.395689
N115	N	0.412522	1.355509	-0.259445
N116	N	0.485773	1.261894	-0.169921
H117	H	0.479131	1.228121	-0.093488
H118	H	0.816873	0.468493	0.093217
N119	N	1.468816	0.242515	0.557723
N120	N	1.477010	0.284342	0.463115
H121	H	1.542831	0.242514	0.458986
N122	N	0.449827	1.544793	0.143545
N123	N	0.531321	1.492943	0.200411
H124	H	0.538006	1.526693	0.243071
H125	H	1.433227	0.169543	0.751145
H126	H	0.946354	0.303395	-0.050624
N127	N	0.246639	1.567535	-0.104717
N128	N	0.173413	1.661145	-0.108775
H129	H	0.107564	1.703034	-0.154712
N130	N	0.449742	1.544863	-0.687783
N131	N	0.492541	1.593493	-0.713969
H132	H	0.499188	1.627272	-0.790398
H133	H	0.596704	1.344892	0.139589
H134	H	1.301114	0.444655	0.178855
H135	H	1.118783	0.465034	-0.043976
N136	N	0.758716	1.147002	-0.674843
N137	N	0.758781	1.146827	-0.760201
H138	H	0.722557	1.235352	-0.839070
N139	N	0.909026	0.779617	-0.438565
N140	N	0.975128	0.746205	-0.368432
H141	H	1.011348	0.657684	-0.289561
N142	N	0.615575	1.332929	-0.485136
N143	N	0.623767	1.374772	-0.579746
H144	H	0.689588	1.332938	-0.583876
N145	N	1.265781	0.265055	0.783429
N146	N	1.339051	0.171438	0.872934
H147	H	1.332434	0.137617	0.949380
N148	N	1.450161	0.147715	0.080877
N149	N	1.441893	0.105873	0.028151
H150	H	1.501058	0.030120	0.031543
N151	N	0.956776	0.292303	0.770453
N152	N	1.045360	0.228963	0.804016
H153	H	1.081589	0.190332	0.882871
N154	N	1.302999	0.454386	0.355090
N155	N	1.384485	0.402572	0.350053
H156	H	1.391155	0.436330	0.273635
N157	N	0.806489	0.361588	0.534199
N158	N	0.850278	0.346030	0.470204
H159	H	0.814085	0.384646	0.391337
N160	N	0.956765	0.495541	-0.062157
N161	N	0.956696	0.580989	-0.062070
H162	H	0.992916	0.611551	-0.102285
N163	N	0.806451	0.459754	0.436063
N164	N	0.717867	0.544339	0.381254
H165	H	0.681639	0.513803	0.371566
H166	H	1.267584	0.274848	-0.035703
