data_functionalizedCrystal
_audit_creation_method	'MofGen! by Chris Wilmer'
_symmetry_space_group_name_H-M	'P1'
_symmetry_Int_Tables_number	1
_symmetry_cell_setting	triclinic
loop_
_symmetry_equiv_pos_as_xyz
  x,y,z
_cell_length_a	14.519731
_cell_length_b	11.792241
_cell_length_c	10.868271
_cell_angle_alpha	90.005281
_cell_angle_beta	89.995592
_cell_angle_gamma	96.058866
loop_
_atom_site_label
_atom_site_type_symbol
_atom_site_fract_x
_atom_site_fract_y
_atom_site_fract_z
O1	O	1.224400	-0.148896	-0.102325
O2	O	1.474400	0.101104	0.147675
O3	O	1.724400	0.351104	0.397675
O4	O	1.974400	0.601104	0.647675
O5	O	0.955990	-0.166392	-0.102327
O6	O	1.205990	0.083608	0.147673
O7	O	1.455990	0.333608	0.397673
O8	O	1.705990	0.583608	0.647673
O9	O	1.096709	0.007562	-0.102318
O10	O	1.346709	0.257562	0.147682
O11	O	1.596709	0.507562	0.397682
O12	O	1.846709	0.757562	0.647682
O13	O	1.083681	-0.322850	-0.102335
O14	O	1.333681	-0.072850	0.147665
O15	O	1.583681	0.177150	0.397665
O16	O	1.833681	0.427150	0.647665
O17	O	1.096697	0.007569	0.102327
O18	O	1.346697	0.257569	0.352327
O19	O	1.596697	0.507569	0.602327
O20	O	1.846697	0.757569	0.852327
O21	O	0.955978	-0.166385	0.102317
O22	O	1.205978	0.083615	0.352317
O23	O	1.455978	0.333615	0.602317
O24	O	1.705978	0.583615	0.852317
O25	O	1.224388	-0.148889	0.102319
O26	O	1.474388	0.101111	0.352319
O27	O	1.724388	0.351111	0.602319
O28	O	1.974388	0.601111	0.852319
Zn29	Zn	1.090181	-0.157636	0.134810
Zn30	Zn	1.340181	0.092364	0.384810
Zn31	Zn	1.590181	0.342364	0.634810
Zn32	Zn	1.840181	0.592364	0.884810
Zn33	Zn	1.090197	-0.157645	-0.134818
Zn34	Zn	1.340197	0.092355	0.115182
Zn35	Zn	1.590197	0.342355	0.365182
Zn36	Zn	1.840197	0.592355	0.615182
O37	O	1.083670	-0.322843	0.102310
O38	O	1.333670	-0.072843	0.352310
O39	O	1.583670	0.177157	0.602310
O40	O	1.833670	0.427157	0.852310
C41	C	0.921622	-0.165569	-0.000005
C42	C	1.171622	0.084431	0.249995
C43	C	1.421622	0.334431	0.499995
C44	C	1.671622	0.584431	0.749995
C45	C	0.819232	-0.163112	-0.000006
C46	C	1.069232	0.086888	0.249994
C47	C	1.319232	0.336888	0.499994
C48	C	1.569232	0.586888	0.749994
C49	C	0.736081	-0.161116	-0.000011
C50	C	0.986081	0.088884	0.249989
C51	C	1.236081	0.338884	0.499989
C52	C	1.486081	0.588884	0.749989
C53	C	0.631763	-0.158622	-0.000011
C54	C	0.881763	0.091378	0.249989
C55	C	1.131763	0.341378	0.499989
C56	C	1.381763	0.591378	0.749989
C57	C	0.548617	-0.156642	-0.000011
C58	C	0.798617	0.093358	0.249989
C59	C	1.048617	0.343358	0.499989
C60	C	1.298617	0.593358	0.749989
C61	C	0.444292	-0.154149	-0.000013
C62	C	0.694292	0.095851	0.249987
C63	C	0.944292	0.345851	0.499987
C64	C	1.194292	0.595851	0.749987
C65	C	1.095884	0.049852	0.000004
C66	C	1.345884	0.299852	0.250004
C67	C	1.595884	0.549852	0.500004
C68	C	1.845884	0.799852	0.750004
C69	C	1.093435	0.175852	0.000003
C70	C	1.343435	0.425852	0.250003
C71	C	1.593435	0.675852	0.500003
C72	C	1.843435	0.925852	0.750003
C73	C	1.258757	-0.149713	-0.000006
C74	C	1.508757	0.100287	0.249994
C75	C	1.758757	0.350287	0.499994
C76	C	2.008757	0.600287	0.749994
C77	C	1.361146	-0.152169	-0.000013
C78	C	1.611146	0.097831	0.249987
C79	C	1.861146	0.347831	0.499987
C80	C	2.111146	0.597831	0.749987
C81	C	1.084494	-0.365133	-0.000015
C82	C	1.334494	-0.115133	0.249985
C83	C	1.584494	0.134867	0.499985
C84	C	1.834494	0.384867	0.749985
C85	C	1.086943	-0.491133	-0.000022
C86	C	1.336943	-0.241133	0.249978
C87	C	1.586943	0.008867	0.499978
C88	C	1.836943	0.258867	0.749978
N89	N	1.090178	-0.157629	0.318824
N90	N	1.340178	0.092371	0.568824
N91	N	1.590178	0.342371	0.818824
N92	N	1.840178	0.592371	1.068824
C93	C	1.088931	0.406540	-0.000018
C94	C	1.338931	0.656540	0.249982
C95	C	1.588931	0.906540	0.499982
C96	C	1.838931	1.156540	0.749982
C97	C	1.091434	0.278168	-0.000006
C98	C	1.341434	0.528168	0.249994
C99	C	1.591434	0.778168	0.499994
C100	C	1.841434	1.028168	0.749994
N101	N	1.090208	-0.157643	-0.318832
N102	N	1.340208	0.092357	-0.068832
N103	N	1.590208	0.342357	0.181168
N104	N	1.840208	0.592357	0.431168
C105	C	1.090192	-0.157643	0.569830
C106	C	1.340192	0.092357	0.819830
C107	C	1.590192	0.342357	1.069830
C108	C	1.840192	0.592357	1.319830
C109	C	1.090181	-0.157639	0.430153
C110	C	1.340181	0.092361	0.680153
C111	C	1.590181	0.342361	0.930153
C112	C	1.840181	0.592361	1.180153
