data_functionalizedCrystal
_audit_creation_method	'MofGen! by Chris Wilmer'
_symmetry_space_group_name_H-M	'P1'
_symmetry_Int_Tables_number	1
_symmetry_cell_setting	triclinic
loop_
_symmetry_equiv_pos_as_xyz
  x,y,z
_cell_length_a	18.101398
_cell_length_b	29.839131
_cell_length_c	18.101389
_cell_angle_alpha	90.021287
_cell_angle_beta	90.024327
_cell_angle_gamma	90.036686
loop_
_atom_site_label
_atom_site_type_symbol
_atom_site_fract_x
_atom_site_fract_y
_atom_site_fract_z
Zn1	Zn	1.132068	-0.178957	0.418824
Zn2	Zn	1.131941	-0.254074	0.294976
Zn3	Zn	1.008227	-0.178952	0.294985
Zn4	Zn	1.008155	-0.254055	0.418765
O5	O	1.070098	-0.216510	0.356887
O6	O	1.235684	-0.188932	0.402416
O7	O	1.115507	-0.244115	0.191344
O8	O	1.024737	-0.116086	0.311441
O9	O	1.235591	-0.244119	0.311426
O10	O	1.115723	-0.116089	0.402425
O11	O	1.024615	-0.188924	0.191351
O12	O	0.904584	-0.188905	0.311384
O13	O	1.024615	-0.244087	0.522406
O14	O	0.904532	-0.244082	0.402324
O15	O	1.115654	-0.188913	0.522449
O16	O	1.115438	-0.316938	0.311369
O17	O	1.024493	-0.316924	0.402315
C18	C	0.877687	-0.216491	0.356849
C19	C	0.795373	-0.216494	0.356850
C20	C	0.496282	-0.216522	0.356912
C21	C	0.527616	-0.181633	0.299974
C22	C	0.613234	-0.181726	0.299731
C23	C	0.644665	-0.216508	0.356881
C24	C	0.613533	-0.263830	0.335553
C25	C	0.527888	-0.263636	0.335157
C26	C	0.527900	-0.204501	0.435313
C27	C	0.613552	-0.203447	0.434885
C28	C	0.728524	-0.216503	0.356865
C29	C	0.412423	-0.216531	0.356926
C30	C	1.069964	-0.333232	0.356851
C31	C	1.069975	-0.383167	0.356860
C32	C	1.117539	-0.692805	0.309601
C33	C	1.117631	-0.880478	0.309629
O34	O	1.157965	-0.904738	0.269420
N35	N	1.070251	-0.903952	0.356943
C36	C	1.022849	-0.880504	0.404257
O37	O	0.982558	-0.904777	0.444506
C38	C	1.022762	-0.692832	0.404231
C39	C	1.070139	-0.669361	0.356909
C40	C	1.164913	-0.669333	0.262283
C41	C	1.164887	-0.622418	0.262273
C42	C	1.117487	-0.598974	0.309582
C43	C	1.070113	-0.622445	0.356899
C44	C	0.975365	-0.669386	0.451548
C45	C	0.975348	-0.622465	0.451539
C46	C	1.022725	-0.598993	0.404217
C47	C	1.022687	-0.552086	0.404198
N48	N	1.070066	-0.528612	0.356884
C49	C	1.117466	-0.552056	0.309576
C50	C	1.022898	-0.979035	0.404266
C51	C	1.022918	-1.025953	0.404272
C52	C	1.117700	-1.025923	0.309645
C53	C	1.117675	-0.979004	0.309636
C54	C	1.070277	-0.955561	0.356952
C55	C	1.117407	-0.453530	0.309559
C56	C	1.117374	-0.406610	0.309551
C57	C	1.022595	-0.406645	0.404181
C58	C	1.022625	-0.453560	0.404186
C59	C	1.070037	-0.477002	0.356872
O60	O	0.982379	-0.527797	0.444393
O61	O	1.157763	-0.527776	0.269344
C62	C	1.117565	-0.739720	0.309610
C63	C	1.070192	-0.763192	0.356928
C64	C	1.022792	-0.739748	0.404236
C65	C	1.070212	-0.810109	0.356934
C66	C	1.117612	-0.833553	0.309625
C67	C	1.164991	-0.810079	0.262311
C68	C	1.164965	-0.763164	0.262302
C69	C	0.975413	-0.763222	0.451550
C70	C	0.975442	-0.810137	0.451556
C71	C	1.022842	-0.833581	0.404247
C72	C	1.263260	-0.216528	0.356927
C73	C	1.345574	-0.216536	0.356943
C74	C	1.070141	-0.216498	0.550049
C75	C	1.070159	-0.216493	0.632364
C76	C	1.070252	-0.099331	0.356941
C77	C	1.070318	-0.049397	0.356963
C78	C	1.070098	-0.216488	0.164477
C79	C	1.070223	-0.216367	0.082163
C80	C	1.070202	-0.216409	0.931455
C81	C	1.012726	-0.251013	0.900102
C82	C	1.012881	-0.251173	0.814484
C83	C	1.070180	-0.216451	0.783072
C84	C	1.148202	-0.229306	0.814177
C85	C	1.147881	-0.229533	0.899822
C86	C	1.050335	-0.168874	0.899883
C87	C	1.048599	-0.169148	0.814232
C88	C	1.070172	-0.216474	0.699213
C89	C	1.070215	-0.216387	1.015314
H90	H	0.507056	-0.146434	0.313196
H91	H	0.634944	-0.274203	0.278857
H92	H	0.936856	-0.829244	0.490090
C93	C	0.934720	-0.240304	0.786069
N94	N	0.875845	-0.232119	0.764670
C95	C	0.498778	-0.158693	0.461505
N96	N	0.476846	-0.124187	0.481224
H97	H	0.954696	-0.243050	0.920689
H98	H	0.633889	-0.290522	0.375726
C99	C	0.641040	-0.156399	0.456608
N100	N	0.661746	-0.120961	0.472967
C101	C	1.207705	-0.196970	0.927846
N102	N	1.252768	-0.172448	0.948950
C103	C	0.500847	-0.277405	0.257725
N104	N	0.480483	-0.287773	0.199400
C105	C	1.101018	-0.132467	0.785333
N106	N	1.140502	-0.104838	0.763561
H107	H	0.991182	-0.159454	0.793901
C108	C	0.499880	-0.299945	0.388734
N109	N	0.478788	-0.327294	0.429084
C110	C	0.970793	-1.051766	0.456323
N111	N	0.931533	-1.071207	0.495533
C112	C	0.641675	-0.134317	0.317782
N113	N	0.663093	-0.098606	0.331374
C114	C	0.498489	-0.192240	0.221950
N115	N	0.476549	-0.200230	0.163183
H116	H	1.092198	-0.143093	0.920161
H117	H	0.507636	-0.229913	0.477737
H118	H	1.164725	-0.264282	0.919802
H119	H	0.634950	-0.227008	0.479581
C120	C	0.923286	-0.737440	0.503616
N121	N	0.884026	-0.718023	0.542841
C122	C	1.169491	-0.380795	0.257487
N123	N	1.208744	-0.361352	0.218273
H124	H	1.203467	-0.603310	0.223741
H125	H	1.025997	-0.286408	0.793999
C126	C	1.207611	-0.196330	0.786690
N127	N	1.252357	-0.171492	0.765984
C128	C	0.640866	-0.192464	0.221249
N129	N	0.661677	-0.200554	0.162134
H130	H	1.156016	-0.472611	0.271034
C131	C	1.030274	-0.298324	0.929167
N132	N	1.043497	-0.333960	0.951055
H133	H	1.156295	-1.045019	0.271125
H134	H	1.203515	-0.688416	0.223758
C135	C	1.169796	-0.953190	0.257581
N136	N	1.209056	-0.933749	0.218371
C137	C	0.970771	-0.953253	0.456340
N138	N	0.931515	-0.933837	0.495569
C139	C	1.171350	-0.275753	0.785211
N140	N	1.188781	-0.310738	0.763397
C141	C	1.217081	-0.737352	0.210240
N142	N	1.256338	-0.717912	0.171024
C143	C	0.923205	-0.596680	0.503592
N144	N	0.883929	-0.577260	0.542797
H145	H	0.994431	-0.157163	0.921470
H146	H	0.984049	-0.472671	0.442722
C147	C	0.970461	-0.380847	0.456220
N148	N	0.931198	-0.361415	0.495421
C149	C	1.217130	-0.835877	0.210271
N150	N	1.256402	-0.855310	0.171079
H151	H	0.936782	-0.688488	0.490080
