data_functionalizedCrystal
_audit_creation_method	'MofGen! by Chris Wilmer'
_symmetry_space_group_name_H-M	'P1'
_symmetry_Int_Tables_number	1
_symmetry_cell_setting	triclinic
loop_
_symmetry_equiv_pos_as_xyz
  x,y,z
_cell_length_a	19.077105
_cell_length_b	13.032721
_cell_length_c	19.076919
_cell_angle_alpha	99.138159
_cell_angle_beta	90.076224
_cell_angle_gamma	95.201395
loop_
_atom_site_label
_atom_site_type_symbol
_atom_site_fract_x
_atom_site_fract_y
_atom_site_fract_z
Zn1	Zn	1.013397	-0.505360	-0.481832
Zn2	Zn	1.003124	-0.673317	-0.378090
Zn3	Zn	0.901858	-0.491366	-0.358479
Zn4	Zn	0.881001	-0.672687	-0.490791
O5	O	0.949845	-0.585683	-0.427298
O6	O	1.109823	-0.533760	-0.472529
O7	O	0.994119	-0.643588	-0.276699
O8	O	0.929682	-0.347048	-0.362886
O9	O	1.102275	-0.657157	-0.396309
O10	O	1.011630	-0.357329	-0.453513
O11	O	0.919720	-0.509909	-0.262291
O12	O	0.801303	-0.509299	-0.371572
O13	O	0.894135	-0.656084	-0.588392
O14	O	0.785980	-0.642515	-0.468781
O15	O	0.991406	-0.533149	-0.581810
O16	O	0.973896	-0.819408	-0.404996
O17	O	0.884173	-0.818945	-0.487797
C18	C	0.768286	-0.574321	-0.419021
C19	C	0.690611	-0.569486	-0.415499
C20	C	0.925675	-0.857080	-0.449513
C21	C	0.915397	-0.973191	-0.459043
C22	C	0.646154	-0.636670	-0.464393
C23	C	0.573171	-0.632114	-0.461086
C24	C	0.544646	-0.560378	-0.408881
C25	C	0.589109	-0.493187	-0.359985
C26	C	0.662091	-0.497739	-0.363296
C27	C	0.327230	-0.539312	-0.393562
C28	C	0.254242	-0.534767	-0.390254
C29	C	0.238309	-0.673693	-0.491357
C30	C	0.311292	-0.678243	-0.494660
C31	C	0.355749	-0.611048	-0.445766
N32	N	0.470046	-0.555721	-0.405499
N33	N	0.430348	-0.615700	-0.449153
C34	C	0.955245	-1.025155	-0.422357
C35	C	0.944623	-1.145161	-0.432206
C36	C	1.132113	-0.597090	-0.435607
C37	C	1.209785	-0.601951	-0.439148
C38	C	0.941590	-0.596107	-0.611432
C39	C	0.938072	-0.600549	-0.689899
C40	C	0.974128	-0.313227	-0.405012
C41	C	0.984476	-0.197123	-0.395516
C42	C	0.987061	-0.538633	-0.723338
C43	C	0.983747	-0.542803	-0.797065
C44	C	0.931448	-0.608894	-0.837354
C45	C	0.882454	-0.670812	-0.803910
C46	C	0.885765	-0.666637	-0.730183
C47	C	0.916112	-0.628240	-1.058220
C48	C	0.912806	-0.632414	-1.131952
C49	C	1.014098	-0.504402	-1.125102
C50	C	1.017407	-0.500237	-1.051375
C51	C	0.968412	-0.562151	-1.017937
N52	N	0.928061	-0.613160	-0.912715
N53	N	0.971796	-0.557879	-0.942576
C54	C	0.958115	-0.575226	-0.243875
C55	C	0.961794	-0.570498	-0.165391
H56	H	0.669372	-0.695088	-0.506902
H57	H	0.870215	-0.686236	-1.164753
C58	C	0.380428	-0.824432	-0.519544
C59	C	0.342648	-0.757087	-0.552049
H60	H	0.399783	-0.873110	-0.554975
H61	H	0.417344	-0.785069	-0.490901
H62	H	0.349773	-0.860802	-0.490721
H63	H	0.373304	-0.720711	-0.580868
H64	H	0.305727	-0.796455	-0.580704
H65	H	1.026460	-1.152773	-0.356816
H66	H	0.873422	-1.017547	-0.497745
C67	C	1.086845	-0.412511	-0.723980
C68	C	1.044549	-0.465980	-0.679056
H69	H	1.122333	-0.367651	-0.696641
H70	H	1.108227	-0.461323	-0.757676
H71	H	1.058659	-0.372283	-0.748079
H72	H	1.072735	-0.506214	-0.654960
H73	H	1.023166	-0.417161	-0.645347
C74	C	0.564751	-0.769919	-0.561335
C75	C	0.524303	-0.705981	-0.514822
H76	H	0.534579	-0.815530	-0.594505
H77	H	0.596050	-0.727785	-0.585968
H78	H	0.591046	-0.809818	-0.535073
H79	H	0.498011	-0.666076	-0.541084
H80	H	0.492991	-0.748120	-0.490187
C81	C	1.002253	-0.407574	-0.868906
C82	C	1.037595	-0.474729	-0.833813
H83	H	1.035498	-0.365538	-0.891586
H84	H	0.970643	-0.447529	-0.903454
H85	H	0.976658	-0.364101	-0.835475
H86	H	1.063186	-0.518208	-0.867245
H87	H	1.069218	-0.434770	-0.799262
H88	H	0.202105	-0.728397	-0.531164
H89	H	0.565879	-0.434774	-0.317481
C90	C	0.919791	-1.272715	-0.536719
C91	C	0.887950	-1.205026	-0.484454
H92	H	0.884802	-1.309677	-0.568971
H93	H	0.952741	-1.233524	-0.561659
H94	H	0.943413	-1.320861	-0.514971
H95	H	0.864332	-1.156875	-0.506202
H96	H	0.854988	-1.244220	-0.459511
C97	C	0.670514	-0.359976	-0.263019
C98	C	0.710961	-0.423897	-0.309544
H99	H	0.700685	-0.314393	-0.229832
H100	H	0.644228	-0.320057	-0.289264
H101	H	0.639205	-0.402132	-0.238399
H102	H	0.742266	-0.381742	-0.334168
H103	H	0.737258	-0.463820	-0.283296
C104	C	0.177699	-0.509496	-0.290391
C105	C	0.222877	-0.455891	-0.332885
H106	H	0.158336	-0.460800	-0.254979
H107	H	0.140789	-0.548869	-0.319038
H108	H	0.203336	-0.555164	-0.268328
H109	H	0.197238	-0.410229	-0.354953
H110	H	0.259793	-0.416501	-0.304234
H111	H	1.059997	-0.446421	-1.018577
H112	H	0.997225	-0.980802	-0.383660
C113	C	1.053996	-0.453952	-1.235077
C114	C	1.067946	-0.436338	-1.161858
H115	H	1.087238	-0.411921	-1.257766
H116	H	1.057431	-0.525450	-1.253364
H117	H	1.007862	-0.436411	-1.243758
H118	H	1.114079	-0.453886	-1.153177
H119	H	1.064517	-0.364824	-1.143565
H120	H	0.876225	-0.678671	-1.031006
H121	H	0.839869	-0.724621	-0.836718
H122	H	0.363418	-0.484604	-0.353745
C123	C	0.785327	-0.793619	-0.744358
C124	C	0.831926	-0.734715	-0.693427
H125	H	0.752093	-0.835655	-0.721666
H126	H	0.761355	-0.748067	-0.768165
H127	H	0.810933	-0.837096	-0.777777
H128	H	0.806321	-0.691232	-0.660010
H129	H	0.855900	-0.780272	-0.669608
