data_functionalizedCrystal
_audit_creation_method	'MofGen! by Chris Wilmer'
_symmetry_space_group_name_H-M	'P1'
_symmetry_Int_Tables_number	1
_symmetry_cell_setting	triclinic
loop_
_symmetry_equiv_pos_as_xyz
  x,y,z
_cell_length_a	14.044191
_cell_length_b	10.654550
_cell_length_c	9.130313
_cell_angle_alpha	89.996220
_cell_angle_beta	89.997857
_cell_angle_gamma	91.161660
loop_
_atom_site_label
_atom_site_type_symbol
_atom_site_fract_x
_atom_site_fract_y
_atom_site_fract_z
O1	O	-0.133228	1.681227	-0.121909
O2	O	-0.145921	1.317024	-0.121884
O3	O	-0.001554	1.493654	-0.121899
O4	O	-0.277595	1.504597	-0.121894
O5	O	-0.001557	1.493652	0.121700
O6	O	-0.145925	1.317022	0.121715
O7	O	-0.133231	1.681225	0.121690
Cu8	Cu	-0.139579	1.499123	0.143945
Cu9	Cu	-0.139574	1.499125	-0.144139
O10	O	-0.277599	1.504595	0.121705
C11	C	-0.144991	1.270131	-0.000082
C12	C	-0.142203	1.130408	-0.000073
C13	C	-0.227204	1.059467	-0.000093
C14	C	-0.224578	0.928182	-0.000118
C15	C	-0.051942	0.938791	-0.000110
C16	C	-0.054569	1.070074	-0.000074
C17	C	-0.314837	1.119801	-0.000092
C18	C	-0.399846	1.048859	-0.000113
C19	C	-0.397220	0.917574	-0.000139
C20	C	-0.309586	0.857231	-0.000142
C21	C	-0.312943	1.509383	-0.000094
C22	C	-0.418263	1.523662	-0.000094
C23	C	-0.668055	1.448496	-0.000101
C24	C	-0.611092	1.549747	-0.000106
C25	C	-0.503792	1.535230	-0.000099
C26	C	-0.775365	1.463012	-0.000108
C27	C	0.033790	1.488866	-0.000103
C28	C	0.139110	1.474587	-0.000113
C29	C	-0.134161	1.728117	-0.000116
C30	C	-0.136950	1.867841	-0.000134
N31	N	-0.139581	1.499131	0.346567
N32	N	-0.139564	1.499127	-0.346762
C33	C	-0.075677	1.577367	0.423213
C34	C	-0.075666	1.577362	0.576550
C35	C	-0.203471	1.420882	0.576582
C36	C	-0.203477	1.420881	0.423248
C37	C	-0.011782	1.655616	0.346532
C38	C	0.052127	1.733859	0.423178
C39	C	0.052138	1.733854	0.576515
C40	C	-0.011759	1.655607	0.653206
H41	H	-0.471194	1.097999	-0.000098
Br42	Br	-0.664116	1.712398	-0.000116
H43	H	-0.316985	1.226699	-0.000078
Br44	Br	-0.512585	0.821299	-0.000148
Br45	Br	-0.615028	1.285855	-0.000091
H46	H	-0.011738	1.655600	0.778063
Br47	Br	-0.306024	0.679057	-0.000149
Br48	Br	-0.011801	1.655634	0.138433
Br49	Br	0.138852	1.840031	0.319104
Br50	Br	0.138878	1.840024	0.680534
H51	H	-0.255494	1.357177	0.639034
H52	H	-0.255513	1.357173	0.360843
H53	H	0.014647	1.127836	-0.000062
Br54	Br	0.066982	0.856897	-0.000119
