data_functionalizedCrystal
_audit_creation_method	'MofGen! by Chris Wilmer'
_symmetry_space_group_name_H-M	'P1'
_symmetry_Int_Tables_number	1
_symmetry_cell_setting	triclinic
loop_
_symmetry_equiv_pos_as_xyz
  x,y,z
_cell_length_a	21.295418
_cell_length_b	11.169416
_cell_length_c	11.169409
_cell_angle_alpha	89.968635
_cell_angle_beta	89.957636
_cell_angle_gamma	90.025965
loop_
_atom_site_label
_atom_site_type_symbol
_atom_site_fract_x
_atom_site_fract_y
_atom_site_fract_z
Zn1	Zn	0.962436	-0.477203	-0.679273
Zn2	Zn	0.962379	-0.677944	-0.478593
Zn3	Zn	0.857162	-0.477329	-0.478528
Zn4	Zn	0.857166	-0.677898	-0.679159
O5	O	0.909786	-0.577593	-0.578888
O6	O	1.050518	-0.503798	-0.652727
O7	O	0.948395	-0.651403	-0.310635
O8	O	0.871149	-0.309362	-0.505178
O9	O	1.050476	-0.651281	-0.505289
O10	O	0.948494	-0.309270	-0.652664
O11	O	0.871093	-0.504012	-0.310587
O12	O	0.769073	-0.503968	-0.505068
O13	O	0.871156	-0.651204	-0.847124
O14	O	0.769076	-0.651326	-0.652470
O15	O	0.948498	-0.503754	-0.847208
O16	O	0.948400	-0.845887	-0.505178
O17	O	0.871101	-0.845854	-0.652533
C18	C	0.909761	-0.889418	-0.578877
C19	C	0.909809	-1.022818	-0.578912
C20	C	0.746234	-0.577657	-0.578750
C21	C	0.676266	-0.577712	-0.578720
C22	C	0.643417	-0.654543	-0.655357
C23	C	0.577675	-0.654514	-0.655411
C24	C	0.544784	-0.577666	-0.578806
C25	C	0.577640	-0.500820	-0.502163
C26	C	0.643381	-0.500843	-0.502120
N27	N	0.441507	-0.568308	-0.473832
N28	N	0.379056	-0.568293	-0.473877
C29	C	0.346709	-0.577589	-0.578933
N30	N	0.379173	-0.586925	-0.683946
N31	N	0.441630	-0.586946	-0.683900
C32	C	0.473498	-0.577632	-0.578845
C33	C	0.242575	-0.654392	-0.655636
C34	C	0.176831	-0.654354	-0.655692
C35	C	0.176797	-0.500667	-0.502433
C36	C	0.242540	-0.500699	-0.502387
C37	C	0.275425	-0.577568	-0.578987
C38	C	1.073976	-0.577531	-0.579028
C39	C	1.143944	-0.577504	-0.579087
C40	C	0.909834	-0.577460	-0.891931
C41	C	0.909855	-0.577403	-1.025331
C42	C	0.909827	-0.264551	-0.578927
C43	C	0.909845	-0.131151	-0.578943
C44	C	0.909774	-0.577640	-0.267064
C45	C	0.909875	-0.577358	-0.133664
H46	H	0.670188	-0.717134	-0.717733
Cl47	Cl	0.536292	-0.404206	-0.405865
Cl48	Cl	0.536371	-0.751109	-0.751763
Cl49	Cl	0.135535	-0.750944	-0.752053
H50	H	0.670126	-0.438275	-0.439712
Cl51	Cl	0.283919	-0.751018	-0.751938
Cl52	Cl	0.135454	-0.404050	-0.406135
H53	H	0.269285	-0.438141	-0.439975
