data_functionalizedCrystal
_audit_creation_method	'MofGen! by Chris Wilmer'
_symmetry_space_group_name_H-M	'P1'
_symmetry_Int_Tables_number	1
_symmetry_cell_setting	triclinic
loop_
_symmetry_equiv_pos_as_xyz
  x,y,z
_cell_length_a	13.339070
_cell_length_b	23.532357
_cell_length_c	11.804365
_cell_angle_alpha	101.747256
_cell_angle_beta	74.875130
_cell_angle_gamma	99.228793
loop_
_atom_site_label
_atom_site_type_symbol
_atom_site_fract_x
_atom_site_fract_y
_atom_site_fract_z
O1	O	1.359871	0.276782	-0.099126
O2	O	1.065729	0.239369	-0.099112
O3	O	1.221691	0.176578	-0.099095
O4	O	1.203909	0.339573	-0.099143
O5	O	1.180632	0.193086	0.098957
O6	O	1.024670	0.255877	0.098940
O7	O	1.318812	0.293290	0.098925
Cu8	Cu	1.167992	0.276090	0.117016
Cu9	Cu	1.216549	0.256569	-0.117203
O10	O	1.162850	0.356081	0.098909
C11	C	1.007575	0.241303	-0.000084
C12	C	0.895467	0.222465	-0.000077
C13	C	1.200716	0.163544	-0.000065
C14	C	1.199376	0.100111	-0.000054
C15	C	0.529169	0.368937	-0.000139
C16	C	0.634500	0.386638	-0.000149
C17	C	0.699747	0.345596	-0.000131
C18	C	0.659652	0.286851	-0.000103
C19	C	0.554313	0.269148	-0.000102
C20	C	0.724891	0.245807	-0.000094
C21	C	0.684796	0.187062	-0.000066
C22	C	0.579467	0.169362	-0.000065
C23	C	0.514220	0.210403	-0.000083
C24	C	0.830231	0.263510	-0.000095
C25	C	0.855375	0.163721	-0.000058
C26	C	0.750043	0.146020	-0.000048
C27	C	1.213370	-0.302258	-0.108076
C28	C	1.212099	-0.361863	-0.108083
O29	O	1.230441	-0.400344	-0.199897
N30	N	1.189088	-0.382678	-0.000126
C31	C	1.167335	-0.343885	0.107844
O32	O	1.147644	-0.367063	0.199669
C33	C	1.168599	-0.284282	0.107849
C34	C	1.191622	-0.263470	-0.000114
C35	C	1.236390	-0.281446	-0.216031
C36	C	1.237662	-0.221844	-0.216023
C37	C	1.215914	-0.183056	-0.108062
C38	C	1.192894	-0.203869	-0.000107
C39	C	1.146839	-0.245491	0.215818
C40	C	1.148104	-0.185884	0.215815
C41	C	1.171127	-0.165072	0.107851
C42	C	1.172418	-0.105479	0.107862
N43	N	1.195430	-0.084664	-0.000094
C44	C	1.217178	-0.123453	-0.108056
C45	C	1.164682	-0.469057	0.107824
C46	C	1.163425	-0.528658	0.107820
C47	C	1.208188	-0.546633	-0.108107
C48	C	1.209451	-0.487029	-0.108102
C49	C	1.187693	-0.448242	-0.000132
C50	C	1.219849	0.001715	-0.108033
C51	C	1.221123	0.061322	-0.108016
C52	C	1.176356	0.079291	0.107910
C53	C	1.175086	0.019689	0.107894
C54	C	1.196832	-0.019099	-0.000087
O55	O	1.154083	-0.066965	0.199629
O56	O	1.236852	-0.100268	-0.199865
C57	C	1.376966	0.291356	-0.000105
C58	C	1.489076	0.310193	-0.000120
C59	C	1.183826	0.369115	-0.000124
C60	C	1.185168	0.432548	-0.000143
N61	N	1.133848	0.289822	0.281753
N62	N	1.250702	0.242834	-0.281940
C63	C	1.332696	0.209849	0.655723
C64	C	1.358525	0.199458	0.531064
C65	C	1.302358	0.222048	0.468730
C66	C	1.220357	0.255031	0.531068
C67	C	1.194530	0.265426	0.655739
C68	C	1.164192	0.277625	0.468746
C69	C	1.082192	0.310608	0.531083
C70	C	1.056369	0.321001	0.655742
C71	C	1.112536	0.298411	0.718076
C72	C	1.190019	0.267230	0.344075
C73	C	1.051853	0.322807	0.344090
C74	C	1.026024	0.333197	0.468749
H75	H	0.862864	0.311341	-0.000112
C76	C	0.927141	0.118572	-0.000034
N77	N	0.981202	0.084569	-0.000017
H78	H	0.959258	0.360053	0.519520
H79	H	0.785512	0.360011	-0.000142
H80	H	1.091504	0.306869	0.819584
C81	C	1.121498	-0.268371	0.334589
N82	N	1.102404	-0.285603	0.424055
C83	C	1.152424	0.121968	0.226663
N84	N	1.134388	0.154114	0.316108
C85	C	1.234769	-0.464143	-0.226869
N86	N	1.253836	-0.446909	-0.316329
H87	H	1.146966	-0.437478	0.195751
H88	H	0.717385	0.098188	-0.000035
C89	C	1.232100	-0.589312	-0.226868
N90	N	1.250109	-0.621460	-0.316313
C91	C	0.398347	0.190936	-0.000071
N92	N	0.311070	0.176274	-0.000063
C93	C	1.138108	-0.551543	0.226588
N94	N	1.119031	-0.568778	0.316049
C95	C	0.535366	0.104741	-0.000033
N96	N	0.502150	0.056068	-0.000003
H97	H	1.130370	-0.154307	0.303739
C98	C	0.966170	0.357285	0.724310
N99	N	0.898230	0.384614	0.775953
H100	H	1.239875	0.078263	-0.195937
C101	C	1.243787	-0.040942	-0.226818
N102	N	1.261829	-0.073070	-0.316287
H103	H	1.006119	0.341203	0.293339
C104	C	1.262978	-0.198961	-0.334793
N105	N	1.282043	-0.181729	-0.424257
C106	C	1.260360	-0.324101	-0.334808
N107	N	1.278439	-0.356225	-0.424279
C108	C	1.149770	-0.003204	0.226659
N109	N	1.130691	-0.020444	0.316115
H110	H	1.256784	0.240376	0.293331
H111	H	1.323392	0.213587	0.367227
H112	H	0.476039	0.402346	-0.000164
C113	C	0.678593	0.451256	-0.000163
N114	N	0.711802	0.499931	-0.000167
C115	C	1.448717	0.163175	0.462503
N116	N	1.516653	0.135843	0.410861
C117	C	1.394471	0.185005	0.724298
N118	N	1.441005	0.166291	0.775951
