data_functionalizedCrystal
_audit_creation_method	'MofGen! by Chris Wilmer'
_symmetry_space_group_name_H-M	'P1'
_symmetry_Int_Tables_number	1
_symmetry_cell_setting	triclinic
loop_
_symmetry_equiv_pos_as_xyz
  x,y,z
_cell_length_a	19.377625
_cell_length_b	19.375551
_cell_length_c	12.477989
_cell_angle_alpha	64.087952
_cell_angle_beta	75.572722
_cell_angle_gamma	64.080744
loop_
_atom_site_label
_atom_site_type_symbol
_atom_site_fract_x
_atom_site_fract_y
_atom_site_fract_z
Zr1	Zr	0.841091	0.636221	-0.236561
O2	O	0.755408	0.761005	-0.332562
O3	O	0.845524	0.517718	-0.231543
O4	O	0.871100	0.649396	-0.427503
O5	O	0.734493	0.616743	0.045743
O6	O	0.987195	0.652643	-0.474625
O7	O	0.729832	0.629327	-0.136602
O8	O	0.941444	0.417095	-0.124088
O9	O	0.780244	0.852292	-0.304793
O10	O	0.960433	0.566556	-0.235076
O11	O	0.877271	0.554742	-0.063827
O12	O	0.907384	0.709776	-0.294545
O13	O	0.824221	0.697961	-0.123296
Zr14	Zr	1.033683	0.621329	-0.020896
Zr15	Zr	1.026250	0.641399	-0.311715
Zr16	Zr	0.848524	0.616150	0.054259
Zr17	Zr	0.880701	0.781811	-0.192273
Zr18	Zr	0.994073	0.475738	-0.065184
O19	O	1.029250	0.739831	-0.025914
O20	O	1.018680	0.768369	-0.439422
O21	O	0.765978	0.732468	0.080946
O22	O	1.119366	0.496544	0.075105
O23	O	1.108796	0.525081	-0.338403
O24	O	0.856094	0.489181	0.181965
O25	O	1.140281	0.640806	-0.303200
O26	O	1.003674	0.608153	0.170046
O27	O	0.887579	0.604906	0.217168
O28	O	1.144942	0.628222	-0.120855
O29	O	0.927421	0.856408	-0.364531
O30	O	0.947353	0.401142	0.107074
O31	O	1.094530	0.405258	0.047336
O32	O	1.088621	0.421211	-0.183826
O33	O	0.786153	0.836338	-0.073630
O34	O	0.933329	0.840455	-0.133368
O35	O	0.967390	0.547773	0.037088
O36	O	1.050553	0.559588	-0.134161
O37	O	0.997503	0.702808	-0.193629
O38	O	0.914341	0.690993	-0.022380
C39	C	0.887840	0.446663	-0.184126
C40	C	0.871025	0.384856	-0.202927
C41	C	1.080208	-0.095556	0.031211
C42	C	1.064461	-0.153654	0.013509
C43	C	0.958762	-0.042843	-0.104899
C44	C	0.974502	0.015266	-0.087212
C45	C	1.035226	-0.011098	-0.019154
C46	C	0.929520	0.099724	-0.137578
C47	C	0.945257	0.157827	-0.119886
C48	C	1.005976	0.131472	-0.051829
C49	C	1.050963	0.047005	-0.001463
C50	C	0.868793	0.126085	-0.205628
C51	C	0.823811	0.210544	-0.255994
C52	C	0.839551	0.268649	-0.238310
C53	C	0.900270	0.242294	-0.170253
C54	C	0.794564	0.353116	-0.288676
C55	C	0.810301	0.411219	-0.270985
C56	C	0.916007	0.300397	-0.152561
C57	C	0.705781	0.622297	-0.034721
C58	C	0.627177	0.620099	-0.002816
C59	C	0.355802	0.647496	-0.400095
C60	C	0.281944	0.645421	-0.370077
C61	C	0.287100	0.631556	-0.169179
C62	C	0.360958	0.633634	-0.199182
C63	C	0.395304	0.641603	-0.314642
C64	C	0.400460	0.627741	-0.113729
C65	C	0.474313	0.629814	-0.143729
C66	C	0.508665	0.637780	-0.259182
C67	C	0.469157	0.643676	-0.344642
C68	C	0.366115	0.619766	0.001732
C69	C	0.405617	0.613874	0.087186
C70	C	0.479470	0.615953	0.057184
C71	C	0.513821	0.623918	-0.058269
C72	C	0.518978	0.610057	0.142644
C73	C	0.592831	0.612130	0.112644
C74	C	0.587675	0.625992	-0.088269
C75	C	1.168993	0.635252	-0.222735
C76	C	1.247597	0.637451	-0.254640
C77	C	0.928088	0.653879	-0.492499
C78	C	0.924933	0.662400	-0.615960
C79	C	0.986933	0.810887	-0.073331
C80	C	1.003749	0.872694	-0.054530
C81	C	0.946686	0.603670	0.235043
C82	C	0.949841	0.595150	0.358503
C83	C	1.119446	0.453140	-0.278133
C84	C	1.181235	0.393532	-0.328839
C85	C	0.897139	0.421558	0.179645
C86	C	0.883479	0.351231	0.284304
C87	C	1.128745	0.428036	0.085638
C88	C	1.193690	0.359907	0.158392
C89	C	0.746029	0.829514	-0.343095
C90	C	0.681084	0.897643	-0.415849
C91	C	0.755328	0.804409	0.020676
C92	C	0.693539	0.864018	0.071382
C93	C	0.977635	0.835991	-0.437102
C94	C	0.991295	0.906319	-0.541761
C95	C	1.163211	0.369177	-0.405340
C96	C	1.221262	0.313178	-0.453006
C97	C	1.297338	0.281530	-0.424163
C98	C	1.315362	0.305890	-0.347657
C99	C	1.257312	0.361893	-0.299999
C100	C	0.924106	0.314566	0.386143
C101	C	0.911271	0.248493	0.484496
C102	C	0.857812	0.219082	0.481005
C103	C	0.817181	0.255754	0.379158
C104	C	0.830013	0.321829	0.280810
C105	C	1.267606	0.334080	0.103165
C106	C	1.328638	0.270074	0.171514
C107	C	1.315751	0.231893	0.295088
C108	C	1.241827	0.257725	0.350318
C109	C	1.180798	0.321734	0.281971
C110	C	0.607170	0.923477	-0.360620
C111	C	0.546143	0.987500	-0.428963
C112	C	0.559031	1.025685	-0.552536
C113	C	0.632954	0.999848	-0.607767
C114	C	0.693980	0.935830	-0.539423
C115	C	0.711565	0.888379	0.147873
C116	C	0.653516	0.944397	0.195512
C117	C	0.577442	0.976047	0.166665
C118	C	0.559416	0.951683	0.090164
C119	C	0.617465	0.895672	0.042520
C120	C	1.044758	0.935708	-0.538237
C121	C	1.057608	1.001780	-0.636573
C122	C	1.016990	1.038466	-0.738430
C123	C	0.963523	1.009070	-0.741953
C124	C	0.950678	0.942995	-0.643621
H125	H	0.909319	-0.021389	-0.160307
O126	O	0.893012	0.911298	-0.647427
H127	H	0.847318	0.917631	-0.574298
H128	H	1.231345	0.226629	0.450940
H129	H	0.249785	0.650219	-0.439672
O130	O	0.250054	0.622966	-0.044652
H131	H	0.192060	0.622519	-0.038147
O132	O	0.466418	1.015342	-0.369370
H133	H	0.446765	1.081808	-0.384755
O134	O	0.759544	0.224000	0.375402
H135	H	0.713858	0.230316	0.448545
O136	O	0.588323	0.640014	-0.291541
H137	H	0.605570	0.646538	-0.386178
O138	O	1.381580	0.162847	0.368789
H139	H	1.360207	0.140631	0.464001
H140	H	0.855981	0.078770	-0.220025
O141	O	1.101071	0.349582	0.341541
H142	H	1.060966	0.340843	0.303234
O143	O	0.368573	0.605273	0.211716
H144	H	0.363279	0.658244	0.230919
O145	O	0.793613	0.854254	0.178998
H146	H	0.830958	0.811206	0.133033
O147	O	0.786246	0.361246	0.170944
H148	H	0.723617	0.386551	0.195323
H149	H	0.930455	1.038949	-0.824898
O150	O	0.635441	0.605770	0.204813
H151	H	0.692570	0.608539	0.164557
H152	H	1.206571	0.293351	-0.515296
H153	H	0.530182	1.021654	0.205468
O154	O	1.281518	0.375264	-0.030116
H155	H	1.343176	0.346552	-0.057015
O156	O	0.477361	0.985821	0.059064
H157	H	0.474243	1.019612	-0.039012
H158	H	0.491007	0.603561	0.236654
O159	O	0.981299	0.510237	-0.545374
H160	H	1.041837	0.477248	-0.572126
H161	H	0.965457	0.278928	-0.097148
H162	H	1.018784	0.178785	-0.037418
O163	O	1.276756	0.388142	-0.217463
H164	H	1.318776	0.418427	-0.265009
H165	H	1.100413	0.025536	0.053950
O166	O	1.030837	1.109742	-0.844479
H167	H	1.074832	1.124017	-0.824898
H168	H	0.901184	0.726498	-0.688552
O169	O	1.081162	0.403314	-0.436471
H170	H	1.078395	0.376973	-0.497690
O171	O	0.598017	0.869389	-0.039970
H172	H	0.535363	0.900805	-0.052007
O173	O	1.088581	0.896139	-0.428390
H174	H	1.127923	0.927676	-0.442485
O175	O	0.493209	1.094742	-0.626244
H176	H	0.439648	1.106284	-0.567068
O177	O	1.408363	0.242210	0.111932
H178	H	1.407061	0.279505	0.014519
O179	O	0.506206	0.652286	-0.469180
H180	H	0.560444	0.597669	-0.464449
O181	O	1.115274	1.033481	-0.632760
H182	H	1.141347	0.996876	-0.545402
H183	H	0.596660	0.892390	-0.260002
O184	O	0.646849	1.041030	-0.741053
H185	H	0.591989	1.089877	-0.779286
O186	O	1.359946	0.221121	-0.475559
H187	H	1.334623	0.209500	-0.533590
H188	H	1.129659	-0.117025	0.086624
O189	O	1.397415	0.271746	-0.316539
H190	H	1.434743	0.228705	-0.362524
O191	O	0.773700	0.907958	-0.599002
H192	H	0.772400	0.945262	-0.696412
H193	H	1.101094	-0.222428	0.054531
O194	O	0.955111	0.208945	0.594323
H195	H	0.913936	0.214942	0.672505
H196	H	0.774368	0.231998	-0.311402
O197	O	0.729076	0.381547	-0.362087
H198	H	0.725694	0.326955	-0.365933
O199	O	0.981764	0.346284	0.389923
H200	H	1.007845	0.309686	0.477274
O201	O	0.843987	0.147802	0.587074
H202	H	0.881232	0.127244	0.658463
H203	H	0.668207	0.964223	0.257803
H204	H	0.383764	0.653993	-0.494118
H205	H	0.773661	0.479989	-0.311974
H206	H	0.615637	0.632489	-0.182292
H207	H	0.305980	0.618075	0.026154
