data_functionalizedCrystal
_audit_creation_method	'MofGen! by Chris Wilmer'
_symmetry_space_group_name_H-M	'P1'
_symmetry_Int_Tables_number	1
_symmetry_cell_setting	triclinic
loop_
_symmetry_equiv_pos_as_xyz
  x,y,z
_cell_length_a	11.792254
_cell_length_b	27.731996
_cell_length_c	10.868271
_cell_angle_alpha	89.988908
_cell_angle_beta	89.995741
_cell_angle_gamma	83.409992
loop_
_atom_site_label
_atom_site_type_symbol
_atom_site_fract_x
_atom_site_fract_y
_atom_site_fract_z
O1	O	1.504751	0.066279	-0.102339
O2	O	1.174190	0.073100	-0.102343
O3	O	1.349768	-0.000649	-0.102314
O4	O	1.329173	0.140028	-0.102368
O5	O	1.349753	-0.000652	0.102330
O6	O	1.174176	0.073097	0.102301
O7	O	1.504736	0.066276	0.102306
Zn8	Zn	1.339454	0.069686	0.134795
Zn9	Zn	1.339473	0.069690	-0.134833
O10	O	1.329159	0.140025	0.102277
C11	C	1.131906	0.072669	-0.000021
C12	C	1.005935	0.071383	-0.000022
C13	C	0.903632	0.070338	-0.000026
C14	C	0.775288	0.069031	-0.000027
C15	C	1.349337	-0.018660	0.000012
C16	C	1.348063	-0.072324	0.000025
C17	C	1.340054	-0.405085	-0.111587
C18	C	1.335215	-0.606772	-0.111609
O19	O	1.334547	-0.632845	-0.206480
N20	N	1.334606	-0.631994	-0.000058
C21	C	1.335200	-0.606791	0.111506
O22	O	1.334559	-0.632871	0.206386
C23	C	1.340030	-0.405105	0.111526
C24	C	1.340651	-0.379886	-0.000032
C25	C	1.340673	-0.379866	-0.223136
C26	C	1.341889	-0.329448	-0.223130
C27	C	1.342486	-0.304249	-0.111574
C28	C	1.341867	-0.329468	-0.000025
C29	C	1.340616	-0.379903	0.223089
C30	C	1.341821	-0.329478	0.223084
C31	C	1.342441	-0.304259	0.111526
C32	C	1.343679	-0.253851	0.111537
N33	N	1.344288	-0.228628	-0.000014
C34	C	1.343691	-0.253828	-0.111569
C35	C	1.332666	-0.712679	0.111487
C36	C	1.331460	-0.763101	0.111483
C37	C	1.331473	-0.763078	-0.111633
C38	C	1.332687	-0.712656	-0.111627
C39	C	1.333275	-0.687457	-0.000063
C40	C	1.346246	-0.147946	-0.111547
C41	C	1.347466	-0.097523	-0.111531
C42	C	1.347447	-0.097550	0.111584
C43	C	1.346232	-0.147969	0.111568
C44	C	1.345628	-0.173165	-0.000007
O45	O	1.344335	-0.227746	0.206358
O46	O	1.344307	-0.227737	-0.206435
C47	C	1.338838	-0.455504	-0.111594
C48	C	1.338219	-0.480723	-0.000045
C49	C	1.338816	-0.455524	0.111511
C50	C	1.337013	-0.531144	-0.000050
C51	C	1.336416	-0.556343	-0.111605
C52	C	1.337025	-0.531121	-0.223156
C53	C	1.338241	-0.480703	-0.223149
C54	C	1.338207	-0.480746	0.223061
C55	C	1.336993	-0.531164	0.223046
C56	C	1.336396	-0.556363	0.111490
C57	C	1.547020	0.066707	-0.000019
C58	C	1.672992	0.067993	-0.000027
C59	C	1.329589	0.158037	-0.000052
C60	C	1.330863	0.211700	-0.000073
N61	N	1.339449	0.069683	0.318809
N62	N	1.339486	0.069689	-0.318847
C63	C	1.339467	0.069689	0.569816
C64	C	1.339453	0.069687	0.430138
H65	H	1.347974	-0.076992	-0.202379
C66	C	1.345600	-0.175655	-0.234286
N67	N	1.345127	-0.196527	-0.326733
H68	H	1.333190	-0.692126	-0.202467
C69	C	1.342558	-0.301713	-0.345854
N70	N	1.343057	-0.280826	-0.438296
H71	H	1.338745	-0.460174	-0.313991
C72	C	1.340065	-0.407580	-0.345867
N73	N	1.339633	-0.428452	-0.438316
C74	C	1.339919	-0.407632	0.345814
N75	N	1.339388	-0.428516	0.438258
H76	H	1.330988	-0.783603	-0.202466
H77	H	1.333150	-0.692167	0.202341
H78	H	1.330972	-0.783631	0.202324
H79	H	1.342282	-0.308963	0.313935
H80	H	1.345738	-0.168504	0.202408
H81	H	1.347938	-0.077024	0.202409
C82	C	1.336365	-0.558850	-0.345867
N83	N	1.335860	-0.579737	-0.438288
H84	H	1.336496	-0.551694	0.313897
H85	H	1.338695	-0.460234	0.313905
