data_functionalizedCrystal
_audit_creation_method	'MofGen! by Chris Wilmer'
_symmetry_space_group_name_H-M	'P1'
_symmetry_Int_Tables_number	1
_symmetry_cell_setting	triclinic
loop_
_symmetry_equiv_pos_as_xyz
  x,y,z
_cell_length_a	13.032831
_cell_length_b	18.050589
_cell_length_c	13.033109
_cell_angle_alpha	97.157170
_cell_angle_beta	76.665514
_cell_angle_gamma	82.833186
loop_
_atom_site_label
_atom_site_type_symbol
_atom_site_fract_x
_atom_site_fract_y
_atom_site_fract_z
Zn1	Zn	1.699980	-0.522075	-0.806419
Zn2	Zn	2.199980	-0.022075	-0.306419
Zn3	Zn	1.677285	-0.628196	-0.628804
Zn4	Zn	2.177285	-0.128196	-0.128804
Zn5	Zn	1.499814	-0.485953	-0.606311
Zn6	Zn	1.999814	0.014047	-0.106311
Zn7	Zn	1.522300	-0.628131	-0.783848
Zn8	Zn	2.022300	-0.128131	-0.283848
O9	O	1.599845	-0.566089	-0.706346
O10	O	2.099845	-0.066089	-0.206346
O11	O	1.845602	-0.551296	-0.801717
O12	O	2.345602	-0.051296	-0.301717
O13	O	1.634835	-0.594238	-0.477188
O14	O	2.134835	-0.094238	0.022812
O15	O	1.526454	-0.386831	-0.632889
O16	O	2.026454	0.113169	-0.132889
O17	O	1.828928	-0.629263	-0.671224
O18	O	2.328928	-0.129263	-0.171224
O19	O	1.673515	-0.413369	-0.779907
O20	O	2.173515	0.086631	-0.279907
O21	O	1.504447	-0.489733	-0.460663
O22	O	2.004447	0.010267	0.039337
O23	O	1.354164	-0.489669	-0.611003
O24	O	1.854164	0.010331	-0.111003
O25	O	1.564778	-0.629151	-0.935474
O26	O	2.064778	-0.129151	-0.435474
O27	O	1.370685	-0.594126	-0.741438
O28	O	1.870685	-0.094126	-0.241438
O29	O	1.695319	-0.551232	-0.952057
O30	O	2.195319	-0.051232	-0.452057
O31	O	1.656639	-0.732101	-0.649338
O32	O	2.156639	-0.232101	-0.149338
O33	O	1.542772	-0.732053	-0.763249
O34	O	2.042772	-0.232053	-0.263249
C35	C	1.323886	-0.537972	-0.671331
C36	C	1.823886	-0.037972	-0.171331
C37	C	1.205833	-0.525964	-0.656377
C38	C	1.705833	-0.025964	-0.156377
C39	C	1.161390	-0.572356	-0.714150
C40	C	1.661390	-0.072356	-0.214150
C41	C	1.039376	-0.559946	-0.698696
C42	C	1.539376	-0.059946	-0.198696
C43	C	1.599714	-0.759026	-0.706312
C44	C	2.099714	-0.259026	-0.206312
C45	C	1.599760	-0.841579	-0.706345
C46	C	2.099760	-0.341579	-0.206345
C47	C	1.537906	-1.041035	-0.768274
C48	C	2.037906	-0.541035	-0.268274
C49	C	1.499708	-1.077984	-0.668074
C50	C	1.999708	-0.577984	-0.168074
C51	C	1.599866	-0.992721	-0.706372
C52	C	2.099866	-0.492721	-0.206372
C53	C	1.638118	-1.102861	-0.806590
C54	C	2.138118	-0.602861	-0.306590
C55	C	1.599968	-1.138719	-0.706407
C56	C	2.099968	-0.638719	-0.206407
C57	C	1.561610	-1.028572	-0.606115
C58	C	2.061610	-0.528572	-0.106115
C59	C	1.700075	-1.053456	-0.744702
C60	C	2.200075	-0.553456	-0.244702
C61	C	1.661905	-1.090380	-0.644440
C62	C	2.161905	-0.590380	-0.144440
C63	C	1.599805	-0.908616	-0.706353
C64	C	2.099805	-0.408616	-0.206353
C65	C	1.600028	-1.222821	-0.706415
C66	C	2.100028	-0.722821	-0.206415
C67	C	1.876881	-0.594316	-0.741498
C68	C	2.376881	-0.094316	-0.241498
C69	C	1.994938	-0.606345	-0.756477
C70	C	2.494938	-0.106345	-0.256477
C71	C	1.635089	-0.594214	-0.983382
C72	C	2.135089	-0.094214	-0.483382
C73	C	1.650108	-0.606199	-1.101438
C74	C	2.150108	-0.106199	-0.601438
C75	C	1.600008	-0.372403	-0.706407
C76	C	2.100008	0.127597	-0.206407
C77	C	1.600077	-0.289866	-0.706433
C78	C	2.100077	0.210134	-0.206433
C79	C	1.592290	-0.559836	-1.145895
C80	C	2.092290	-0.059836	-0.645895
C81	C	1.607812	-0.572222	-1.267912
C82	C	2.107812	-0.072222	-0.767912
C83	C	1.564799	-0.538025	-0.430395
C84	C	2.064799	-0.038025	0.069605
C85	C	1.549986	-0.525852	-0.312365
C86	C	2.049986	-0.025852	0.187635
H87	H	1.047215	-0.655250	-0.817391
H88	H	1.547215	-0.155250	-0.317391
H89	H	1.153552	-0.477056	-0.595478
H90	H	1.653552	0.022944	-0.095478
H91	H	1.213673	-0.621259	-0.775057
H92	H	1.713673	-0.121259	-0.275057
H93	H	1.415013	-1.089188	-0.635682
H94	H	1.915013	-0.589188	-0.135682
H95	H	0.987099	-0.511035	-0.637793
H96	H	1.487099	-0.011035	-0.137793
H97	H	1.485409	-1.019352	-0.820525
H98	H	1.985409	-0.519352	-0.320525
H99	H	1.711097	-0.655063	-1.153710
H100	H	2.211097	-0.155063	-0.653710
H101	H	1.529201	-0.996435	-0.521341
H102	H	2.029201	-0.496435	-0.021341
H103	H	1.714337	-1.111905	-0.592037
H104	H	2.214337	-0.611905	-0.092037
H105	H	1.488989	-0.476986	-1.260098
H106	H	1.988989	0.023014	-0.760098
H107	H	1.784757	-1.042257	-0.777138
H108	H	2.284757	-0.542257	-0.277138
H109	H	1.531296	-0.510975	-1.093623
H110	H	2.031296	-0.010975	-0.593623
H111	H	1.670430	-1.135076	-0.891329
H112	H	2.170430	-0.635076	-0.391329
H113	H	1.668805	-0.621089	-1.320180
H114	H	2.168805	-0.121089	-0.820180
