data_functionalizedCrystal
_audit_creation_method	'MofGen! by Chris Wilmer'
_symmetry_space_group_name_H-M	'P1'
_symmetry_Int_Tables_number	1
_symmetry_cell_setting	triclinic
loop_
_symmetry_equiv_pos_as_xyz
  x,y,z
_cell_length_a	16.109301
_cell_length_b	16.992695
_cell_length_c	15.186229
_cell_angle_alpha	89.995943
_cell_angle_beta	89.999362
_cell_angle_gamma	87.064852
loop_
_atom_site_label
_atom_site_type_symbol
_atom_site_fract_x
_atom_site_fract_y
_atom_site_fract_z
O1	O	1.109856	0.100784	-0.073174
O2	O	0.868631	0.113326	-0.073188
O3	O	0.988276	-0.007088	-0.073174
O4	O	0.990210	0.221197	-0.073188
O5	O	0.988268	-0.007089	0.073284
O6	O	0.868622	0.113324	0.073270
O7	O	1.109847	0.100782	0.073284
Zn8	Zn	0.989233	0.107053	0.096530
Zn9	Zn	0.989245	0.107055	-0.096434
O10	O	0.990202	0.221196	0.073270
C11	C	0.837618	0.112817	0.000039
C12	C	0.745221	0.111294	0.000034
C13	C	0.527480	0.179203	0.000040
C14	C	0.440664	0.177766	0.000046
C15	C	0.451005	0.034899	0.000051
C16	C	0.537819	0.036337	0.000051
C17	C	0.576055	0.108492	0.000042
C18	C	0.402424	0.105616	0.000047
C19	C	0.308294	0.104057	0.000053
C20	C	0.670191	0.110051	0.000037
C21	C	0.985784	-0.036300	0.000055
C22	C	0.978361	-0.123343	0.000054
C23	C	1.049987	-0.173601	0.000059
C24	C	1.043007	-0.255386	0.000050
C25	C	0.964400	-0.286911	0.000043
C26	C	0.892768	-0.236645	0.000035
C27	C	0.899749	-0.154862	0.000038
C28	C	0.935467	-0.530501	0.000029
C29	C	0.928491	-0.612291	0.000029
C30	C	1.078731	-0.631026	0.000043
C31	C	1.085704	-0.549240	0.000051
C32	C	1.014073	-0.498982	0.000038
N33	N	0.957263	-0.370508	0.000037
N34	N	1.021210	-0.415387	0.000038
C35	C	1.140860	0.101291	0.000055
C36	C	1.233257	0.102814	0.000054
C37	C	0.992694	0.250408	0.000039
C38	C	1.000118	0.337451	0.000034
N39	N	0.989232	0.107051	0.228223
N40	N	0.989253	0.107051	-0.228127
C41	C	1.042231	0.053750	0.453952
C42	C	1.042234	0.053748	0.546141
C43	C	0.936247	0.160355	0.546138
C44	C	0.936241	0.160352	0.453950
C45	C	0.989238	0.107051	0.407859
C46	C	0.989246	0.107051	0.592237
C47	C	0.989249	0.107050	0.692193
C48	C	0.989235	0.107051	0.307897
H49	H	0.419863	-0.023846	0.000064
H50	H	1.101332	-0.296304	0.000056
N51	N	1.134770	-0.139603	0.000076
H52	H	1.179085	-0.183855	0.000076
H53	H	1.140944	-0.106073	-0.054216
H54	H	0.828765	-0.262319	0.000023
N55	N	0.843702	-0.646289	0.000016
H56	H	0.837468	-0.679804	-0.054275
H57	H	0.837506	-0.679766	0.054345
N58	N	0.568722	0.257023	0.000029
H59	H	0.524773	0.301599	0.000029
H60	H	0.604518	0.260730	0.054321
N61	N	0.388272	0.254033	0.000093
H62	H	0.425670	0.299957	0.000103
H63	H	0.352005	0.256579	-0.054183
N64	N	1.099402	-0.003730	0.595856
H65	H	1.132976	-0.037490	0.552666
H66	H	1.138146	0.026313	0.634093
N67	N	0.858211	-0.476300	0.000019
H68	H	0.807357	-0.508684	0.000019
H69	H	0.857830	-0.441963	0.054313
H70	H	1.137048	-0.671954	0.000051
H71	H	0.577371	-0.021248	0.000055
H72	H	1.149714	-0.523580	0.000057
N73	N	0.879087	0.217845	0.404223
H74	H	0.840286	0.187867	0.365983
H75	H	0.845573	0.251604	0.447460
N76	N	0.822496	-0.100650	0.000027
H77	H	0.771639	-0.133029	0.000023
H78	H	0.822114	-0.066311	0.054319
N79	N	1.099387	-0.003738	0.404237
H80	H	1.132957	-0.037505	0.447429
H81	H	1.065254	-0.038411	0.365994
H82	H	0.893100	0.203753	0.583674
