data_functionalizedCrystal
_audit_creation_method	'MofGen! by Chris Wilmer'
_symmetry_space_group_name_H-M	'P1'
_symmetry_Int_Tables_number	1
_symmetry_cell_setting	triclinic
loop_
_symmetry_equiv_pos_as_xyz
  x,y,z
_cell_length_a	9.065218
_cell_length_b	14.586319
_cell_length_c	16.109301
_cell_angle_alpha	90.005214
_cell_angle_beta	84.238683
_cell_angle_gamma	90.003583
loop_
_atom_site_label
_atom_site_type_symbol
_atom_site_fract_x
_atom_site_fract_y
_atom_site_fract_z
O1	O	1.957450	0.076246	0.121905
O2	O	1.527923	0.076248	0.131905
O3	O	1.754486	0.076238	0.005965
O4	O	1.730887	0.076256	0.247845
O5	O	1.754470	-0.076243	0.005963
O6	O	1.527907	-0.076233	0.131903
O7	O	1.957434	-0.076235	0.121903
Cu8	Cu	1.742669	-0.090157	0.126903
Cu9	Cu	1.742688	0.090170	0.126905
O10	O	1.730871	-0.076224	0.247843
C11	C	1.472952	0.000007	0.130943
C12	C	1.309179	0.000008	0.128069
N13	N	1.742667	-0.216988	0.126901
C14	C	1.843022	-0.451999	0.071154
C15	C	1.843027	-0.547980	0.071152
C16	C	1.642336	-0.547981	0.182650
C17	C	1.642326	-0.452001	0.182648
C18	C	1.742677	-0.404013	0.126900
C19	C	1.742692	-0.595974	0.126901
C20	C	1.742696	-0.700041	0.126899
C21	C	1.742672	-0.299939	0.126901
C22	C	2.012405	0.000008	0.122865
C23	C	2.176179	0.000013	0.125739
C24	C	1.753522	-0.000003	-0.025019
C25	C	1.750656	-0.000005	-0.117336
N26	N	1.742702	0.217001	0.126901
C27	C	1.878430	0.000009	-0.338627
C28	C	1.875726	0.000017	-0.425368
C29	C	1.606917	0.000014	-0.407559
C30	C	1.609623	0.000013	-0.320819
C31	C	1.745384	0.000006	-0.286356
C32	C	1.739974	0.000015	-0.459836
C33	C	1.737040	0.000023	-0.553885
C34	C	1.748318	-0.000000	-0.192301
C35	C	1.731835	0.000018	0.278826
C36	C	1.734701	0.000026	0.371144
H37	H	1.924732	-0.412929	0.025760
O38	O	1.940363	-0.594736	0.017031
C39	C	2.029383	-0.742595	-0.032351
C40	C	1.919045	-0.689760	0.028974
H41	H	2.012207	-0.819431	-0.022705
H42	H	2.010198	-0.723799	-0.099113
H43	H	2.147516	-0.723659	-0.020597
H44	H	1.800869	-0.708668	0.017296
H45	H	1.938360	-0.708560	0.095716
H46	H	1.560634	-0.587063	0.228040
O47	O	2.010431	0.000054	-0.305285
C48	C	2.276767	0.000017	-0.332108
C49	C	2.127377	-0.000018	-0.369974
H50	H	2.371356	-0.000060	-0.384391
H51	H	2.284851	0.063846	-0.291969
H52	H	2.284681	-0.063780	-0.291921
H53	H	2.119362	0.063736	-0.410199
H54	H	2.119356	-0.063889	-0.410065
O55	O	1.545050	-0.405282	0.236843
C56	C	1.513588	-0.296945	0.350173
C57	C	1.623910	-0.349780	0.288838
H58	H	1.577303	-0.252073	0.392238
H59	H	1.439925	-0.251959	0.313743
H60	H	1.441848	-0.347748	0.389984
H61	H	1.695748	-0.299043	0.249012
H62	H	1.697470	-0.394780	0.325317
O63	O	2.004929	0.000181	-0.476177
C64	C	2.157854	0.079157	-0.584464
C65	C	2.011485	0.079094	-0.526959
H66	H	2.163188	0.142942	-0.625548
H67	H	2.255399	0.079213	-0.544969
H68	H	2.163287	0.015319	-0.625490
H69	H	2.005908	0.142921	-0.485922
H70	H	1.914009	0.078991	-0.566503
H71	H	1.496385	0.000018	-0.435630
H72	H	1.501274	0.000014	-0.278258
