data_functionalizedCrystal
_audit_creation_method	'MofGen! by Chris Wilmer'
_symmetry_space_group_name_H-M	'P1'
_symmetry_Int_Tables_number	1
_symmetry_cell_setting	triclinic
loop_
_symmetry_equiv_pos_as_xyz
  x,y,z
_cell_length_a	18.050590
_cell_length_b	18.050590
_cell_length_c	12.759393
_cell_angle_alpha	90.035753
_cell_angle_beta	90.006011
_cell_angle_gamma	90.007719
loop_
_atom_site_label
_atom_site_type_symbol
_atom_site_fract_x
_atom_site_fract_y
_atom_site_fract_z
Zn1	Zn	1.135392	-0.295830	0.593601
Zn2	Zn	1.635392	0.204170	1.093601
Zn3	Zn	1.135309	-0.420041	0.417908
Zn4	Zn	1.635309	0.079959	0.917908
Zn5	Zn	1.011197	-0.295846	0.417978
Zn6	Zn	1.511197	0.204154	0.917978
Zn7	Zn	1.011180	-0.419960	0.593588
Zn8	Zn	1.511180	0.080040	1.093588
O9	O	1.073269	-0.357919	0.505769
O10	O	1.573269	0.142081	1.005769
O11	O	1.239306	-0.312335	0.570270
O12	O	1.739306	0.187665	1.070270
O13	O	1.118817	-0.403606	0.270896
O14	O	1.618817	0.096394	0.770896
O15	O	1.027713	-0.191919	0.441310
O16	O	1.527713	0.308081	0.941310
O17	O	1.239245	-0.403592	0.441190
O18	O	1.739245	0.096408	0.941190
O19	O	1.118959	-0.191908	0.570339
O20	O	1.618959	0.308092	1.070339
O21	O	1.027632	-0.312360	0.270948
O22	O	1.527632	0.187640	0.770948
O23	O	0.907270	-0.312282	0.441297
O24	O	1.407270	0.187718	0.941297
O25	O	1.027685	-0.403453	0.740610
O26	O	1.527685	0.096547	1.240610
O27	O	0.907258	-0.403468	0.570317
O28	O	1.407258	0.096532	1.070317
O29	O	1.118943	-0.312256	0.740620
O30	O	1.618943	0.187744	1.240620
O31	O	1.118801	-0.523955	0.441177
O32	O	1.618801	-0.023955	0.941177
O33	O	1.027605	-0.523895	0.570248
O34	O	1.527605	-0.023895	1.070248
C35	C	0.880317	-0.357868	0.505814
C36	C	1.380317	0.142132	1.005814
C37	C	0.797772	-0.357865	0.505858
C38	C	1.297772	0.142135	1.005858
C39	C	0.598336	-0.407594	0.575852
C40	C	1.098336	0.092406	1.075852
C41	C	0.548933	-0.339875	0.601707
C42	C	1.048933	0.160125	1.101707
C43	C	0.646641	-0.357906	0.505807
C44	C	1.146641	0.142094	1.005807
C45	C	0.548962	-0.425664	0.479951
C46	C	1.048962	0.074336	0.979951
C47	C	0.500656	-0.357952	0.505759
C48	C	1.000656	0.142048	1.005759
C49	C	0.598326	-0.290151	0.531712
C50	C	1.098326	0.209849	1.031712
C51	C	0.598359	-0.375986	0.409911
C52	C	1.098359	0.124014	0.909911
C53	C	0.548979	-0.308220	0.435729
C54	C	1.048979	0.191780	0.935729
C55	C	0.730739	-0.357880	0.505837
C56	C	1.230739	0.142120	1.005837
C57	C	0.416560	-0.357970	0.505729
C58	C	0.916560	0.142030	1.005729
C59	C	1.073212	-0.550871	0.505727
C60	C	1.573212	-0.050871	1.005727
C61	C	1.073256	-0.633417	0.505744
C62	C	1.573256	-0.133417	1.005744
C63	C	1.122952	-0.832873	0.435653
C64	C	1.622952	-0.332873	0.935653
C65	C	1.141095	-0.882200	0.531534
C66	C	1.641095	-0.382200	1.031534
C67	C	1.073298	-0.784547	0.505786
C68	C	1.573298	-0.284547	1.005786
C69	C	1.055230	-0.882302	0.409948
C70	C	1.555230	-0.382302	0.909948
C71	C	1.073340	-0.930532	0.505818
C72	C	1.573340	-0.430532	1.005818
C73	C	1.091476	-0.832787	0.601717
C74	C	1.591476	-0.332787	1.101717
C75	C	1.005579	-0.832884	0.480067
C76	C	1.505579	-0.332884	0.980067
C77	C	1.023697	-0.882189	0.576014
C78	C	1.523697	-0.382189	1.076014
C79	C	1.073276	-0.700449	0.505766
C80	C	1.573276	-0.200449	1.005766
C81	C	1.073362	-1.014629	0.505848
C82	C	1.573362	-0.514629	1.005848
C83	C	1.266975	-0.357971	0.505724
C84	C	1.766975	0.142029	1.005724
C85	C	1.349521	-0.357992	0.505705
C86	C	1.849521	0.142008	1.005705
C87	C	1.073321	-0.357844	0.779802
C88	C	1.573321	0.142156	1.279802
C89	C	1.073344	-0.357812	0.896579
C90	C	1.573344	0.142188	1.396579
C91	C	1.073347	-0.164213	0.505834
C92	C	1.573347	0.335787	1.005834
C93	C	1.073380	-0.081668	0.505861
C94	C	1.573380	0.418332	1.005861
C95	C	1.073260	-0.357940	0.232801
C96	C	1.573260	0.142060	0.732801
C97	C	1.073382	-0.357763	0.116025
C98	C	1.573382	0.142237	0.616025
C99	C	1.120868	-0.310321	0.951447
C100	C	1.620868	0.189679	1.451447
C101	C	1.120886	-0.310295	1.061172
C102	C	1.620886	0.189705	1.561172
C103	C	1.025852	-0.405256	1.061149
C104	C	1.525852	0.094744	1.561149
C105	C	1.025831	-0.405278	0.951427
C106	C	1.525831	0.094722	1.451427
C107	C	1.168380	-0.262855	0.896600
C108	C	1.668380	0.237145	1.396600
C109	C	1.215909	-0.215361	0.951468
C110	C	1.715909	0.284639	1.451468
C111	C	1.215927	-0.215334	1.061193
C112	C	1.715927	0.284666	1.561193
C113	C	1.168416	-0.262802	1.116048
C114	C	1.668416	0.237198	1.616048
H115	H	1.164957	-0.811218	0.376405
H116	H	1.664957	-0.311218	0.876405
N117	N	0.521762	-0.497518	0.452509
N118	N	1.021762	0.002482	0.952509
N119	N	0.482170	-0.505576	0.372933
N120	N	0.982170	-0.005576	0.872933
H121	H	0.462962	-0.556324	0.353556
H122	H	0.962962	-0.056324	0.853556
H123	H	0.981725	-0.903707	0.635405
H124	H	1.481725	-0.403707	1.135405
H125	H	0.987121	-0.443938	0.906751
H126	H	1.487121	0.056062	1.406751
H127	H	1.039931	-0.904050	0.328886
H128	H	1.539931	-0.404050	0.828886
H129	H	1.198382	-0.903864	0.553308
H130	H	1.698382	-0.403864	1.053308
H131	H	0.527223	-0.324597	0.682784
H132	H	1.027223	0.175403	1.182784
N133	N	0.521942	-0.255485	0.361392
N134	N	1.021942	0.244515	0.861392
N135	N	0.482352	-0.276424	0.286646
N136	N	0.982352	0.223576	0.786646
H137	H	0.463254	-0.239179	0.234148
H138	H	0.963254	0.260821	0.734148
N139	N	1.168356	-0.262895	0.784521
N140	N	1.668356	0.237105	1.284521
N141	N	1.183838	-0.320846	0.735524
N142	N	1.683838	0.179154	1.235524
H143	H	1.183820	-0.320877	0.656368
H144	H	1.683820	0.179123	1.156368
H145	H	0.619919	-0.232852	0.553652
H146	H	1.119919	0.267148	1.053652
N147	N	0.625518	-0.460213	0.650249
N148	N	1.125518	0.039787	1.150249
N149	N	0.609659	-0.453471	0.745136
N150	N	1.109659	0.046529	1.245136
H151	H	0.628857	-0.490631	0.797682
H152	H	1.128857	0.009369	1.297682
N153	N	1.110754	-0.805614	0.703433
N154	N	1.610754	-0.305614	1.203433
N155	N	1.113873	-0.737406	0.719825
N156	N	1.613873	-0.237406	1.219825
H157	H	1.127490	-0.718212	0.791659
H158	H	1.627490	-0.218212	1.291659
N159	N	0.933734	-0.805692	0.452708
N160	N	1.433734	-0.305692	0.952708
N161	N	0.906119	-0.821549	0.365696
N162	N	1.406119	-0.321549	0.865696
H163	H	0.855377	-0.802344	0.346362
H164	H	1.355377	-0.302344	0.846362
N165	N	0.625609	-0.395182	0.308229
N166	N	1.125609	0.104818	0.808229
N167	N	0.609826	-0.456645	0.268946
N168	N	1.109826	0.043355	0.768946
H169	H	0.629072	-0.470210	0.197131
H170	H	1.129072	0.029790	0.697131
H171	H	1.254587	-0.176710	0.906798
H172	H	1.754587	0.323290	1.406798
N173	N	1.264470	-0.166810	1.117225
N174	N	1.764470	0.333190	1.617225
N175	N	1.306882	-0.124433	1.068237
N176	N	1.806882	0.375567	1.568237
H177	H	1.341169	-0.090162	1.107807
H178	H	1.841169	0.409838	1.607807
H179	H	1.168425	-0.262767	1.205393
H180	H	1.668425	0.237233	1.705393
H181	H	0.987171	-0.443901	1.105821
H182	H	1.487171	0.056099	1.605821
