data_functionalizedCrystal
_audit_creation_method	'MofGen! by Chris Wilmer'
_symmetry_space_group_name_H-M	'P1'
_symmetry_Int_Tables_number	1
_symmetry_cell_setting	triclinic
loop_
_symmetry_equiv_pos_as_xyz
  x,y,z
_cell_length_a	10.654550
_cell_length_b	15.944551
_cell_length_c	9.130313
_cell_angle_alpha	89.997799
_cell_angle_beta	89.996220
_cell_angle_gamma	83.991820
loop_
_atom_site_label
_atom_site_type_symbol
_atom_site_fract_x
_atom_site_fract_y
_atom_site_fract_z
O1	O	1.666308	0.117973	-0.121923
O2	O	2.166308	0.617973	0.378077
O3	O	1.300684	0.129213	-0.121900
O4	O	1.800684	0.629213	0.378100
O5	O	1.493480	0.001376	-0.121899
O6	O	1.993480	0.501376	0.378101
O7	O	1.473511	0.245810	-0.121924
O8	O	1.973511	0.745810	0.378076
O9	O	1.493478	0.001379	0.121700
O10	O	1.993478	0.501379	0.621700
O11	O	1.300681	0.129216	0.121699
O12	O	1.800681	0.629216	0.621699
O13	O	1.666305	0.117976	0.121676
O14	O	2.166305	0.617976	0.621676
Cu15	Cu	1.483493	0.123596	0.143930
Cu16	Cu	1.983493	0.623596	0.643930
Cu17	Cu	1.483496	0.123592	-0.144154
Cu18	Cu	1.983496	0.623592	0.355846
O19	O	1.473509	0.245813	0.121675
O20	O	1.973509	0.745813	0.621675
C21	C	1.253895	0.128389	-0.000098
C22	C	1.753895	0.628389	0.499902
C23	C	1.114484	0.125920	-0.000088
C24	C	1.614484	0.625920	0.499912
C25	C	1.034024	0.201188	-0.000117
C26	C	1.534024	0.701188	0.499883
C27	C	0.903034	0.198863	-0.000142
C28	C	1.403034	0.698863	0.499858
C29	C	0.932975	0.045995	-0.000116
C30	C	1.432975	0.545995	0.499884
C31	C	1.063963	0.048321	-0.000080
C32	C	1.563963	0.548321	0.499920
C33	C	1.084545	0.278788	-0.000126
C34	C	1.584545	0.778788	0.499874
C35	C	1.004084	0.354062	-0.000156
C36	C	1.504084	0.854062	0.499844
C37	C	0.873094	0.351737	-0.000182
C38	C	1.373094	0.851737	0.499818
C39	C	0.822564	0.274137	-0.000176
C40	C	1.322564	0.774137	0.499824
C41	C	1.492650	-0.029921	-0.000099
C42	C	1.992650	0.470079	0.499901
C43	C	1.490165	-0.123182	-0.000098
C44	C	1.990165	0.376818	0.499902
C45	C	1.364720	-0.338765	-0.000111
C46	C	1.864720	0.161235	0.499889
C47	C	1.422971	-0.399443	0.119995
C48	C	1.922971	0.100557	0.619995
C49	C	1.485668	-0.293934	-0.000109
C50	C	1.985668	0.206066	0.499891
C51	C	1.423002	-0.399430	-0.120175
C52	C	1.923002	0.100570	0.379825
C53	C	1.481317	-0.458872	-0.000126
C54	C	1.981317	0.041128	0.499874
C55	C	1.543953	-0.353384	0.120095
C56	C	2.043953	0.146616	0.620095
C57	C	1.543967	-0.353364	-0.120182
C58	C	2.043967	0.146636	0.379818
C59	C	1.602306	-0.414024	-0.000048
C60	C	2.102306	0.085976	0.499952
C61	C	1.488172	-0.198917	-0.000098
C62	C	1.988172	0.301083	0.499902
C63	C	1.478822	-0.553887	-0.000127
C64	C	1.978822	-0.053887	0.499873
C65	C	1.713094	0.118800	-0.000130
C66	C	2.213094	0.618800	0.499870
C67	C	1.852505	0.121269	-0.000149
C68	C	2.352505	0.621269	0.499851
C69	C	1.474339	0.277110	-0.000128
C70	C	1.974339	0.777110	0.499872
C71	C	1.476824	0.370371	-0.000139
C72	C	1.976824	0.870371	0.499861
N73	N	1.483500	0.123599	0.346552
N74	N	1.983500	0.623599	0.846552
N75	N	1.483499	0.123583	-0.346777
N76	N	1.983499	0.623583	0.153223
C77	C	1.568892	0.067012	0.423205
C78	C	2.068892	0.567012	0.923205
C79	C	1.568889	0.067002	0.576542
C80	C	2.068889	0.567002	1.076542
C81	C	1.398098	0.180173	0.576560
C82	C	1.898098	0.680173	1.076560
C83	C	1.398096	0.180178	0.423226
C84	C	1.898096	0.680178	0.923226
C85	C	1.654296	0.010433	0.346531
C86	C	2.154296	0.510433	0.846531
C87	C	1.739696	-0.046158	0.423184
C88	C	2.239696	0.453842	0.923184
C89	C	1.739693	-0.046168	0.576520
C90	C	2.239693	0.453832	1.076520
C91	C	1.654290	0.010412	0.653205
C92	C	2.154290	0.510412	1.153205
H93	H	1.129476	-0.012970	-0.000060
H94	H	1.629476	0.487030	0.499940
O95	O	1.355224	-0.426471	0.254513
O96	O	1.855224	0.073529	0.754513
H97	H	1.256635	-0.396053	0.254278
H98	H	1.756635	0.103947	0.754278
H99	H	1.809220	-0.092252	0.638929
H100	H	2.309220	0.407748	1.138929
O101	O	0.786309	0.432921	-0.000194
O102	O	1.286309	0.932921	0.499806
H103	H	0.725926	0.435514	-0.099485
H104	H	1.225926	0.935514	0.400515
H105	H	1.045235	0.417241	-0.000149
H106	H	1.545235	0.917241	0.499851
O107	O	0.681280	0.271624	-0.000200
O108	O	1.181280	0.771624	0.499800
H109	H	0.633816	0.337001	-0.000226
H110	H	1.133816	0.837001	0.499774
O111	O	1.611652	-0.326522	0.254754
O112	O	2.111652	0.173478	0.754754
H113	H	1.612915	-0.257005	0.253734
H114	H	2.112915	0.242995	0.753734
H115	H	1.595080	-0.332939	-0.221733
H116	H	2.095080	0.167061	0.278267
O117	O	0.878484	-0.037699	-0.000122
O118	O	1.378484	0.462301	0.499878
H119	H	0.773882	-0.026671	-0.000165
H120	H	1.273882	0.473329	0.499835
O121	O	1.831773	-0.107198	0.340471
O122	O	2.331773	0.392802	0.840471
H123	H	1.892817	-0.071467	0.270606
H124	H	2.392817	0.428533	0.770606
O125	O	1.735397	-0.457187	-0.000057
O126	O	2.235397	0.042813	0.499943
H127	H	1.750024	-0.497600	0.098731
H128	H	2.250024	0.002400	0.598731
H129	H	1.371831	-0.419804	-0.221721
H130	H	1.871831	0.080196	0.278279
H131	H	1.654309	0.010437	0.221677
H132	H	2.154309	0.510437	0.721677
O133	O	1.231747	-0.295402	0.000046
O134	O	1.731747	0.204598	0.500046
H135	H	1.181840	-0.313738	0.099906
H136	H	1.681840	0.186262	0.599906
O137	O	1.654291	0.010401	0.818591
O138	O	2.154291	0.510401	1.318591
H139	H	1.580563	0.059250	0.859031
H140	H	2.080563	0.559250	1.359031
O141	O	1.306001	0.241206	0.659259
O142	O	1.806001	0.741206	1.159259
H143	H	1.320359	0.231702	0.778760
H144	H	1.820359	0.731702	1.278760
O145	O	1.306005	0.241214	0.340533
O146	O	1.806005	0.741214	0.840533
H147	H	1.246633	0.280566	0.419607
H148	H	1.746633	0.780566	0.919607
H149	H	1.191203	0.280689	-0.000112
H150	H	1.691203	0.780689	0.499888
