data_functionalizedCrystal
_audit_creation_method	'MofGen! by Chris Wilmer'
_symmetry_space_group_name_H-M	'P1'
_symmetry_Int_Tables_number	1
_symmetry_cell_setting	triclinic
loop_
_symmetry_equiv_pos_as_xyz
  x,y,z
_cell_length_a	12.811438
_cell_length_b	22.610064
_cell_length_c	12.837942
_cell_angle_alpha	89.997258
_cell_angle_beta	90.586849
_cell_angle_gamma	84.582613
loop_
_atom_site_label
_atom_site_type_symbol
_atom_site_fract_x
_atom_site_fract_y
_atom_site_fract_z
O1	O	1.406622	-0.026275	-0.139704
O2	O	1.102566	-0.009963	-0.154888
O3	O	1.247852	-0.017761	0.003636
O4	O	1.261336	-0.018477	-0.298228
O5	O	1.247805	-0.116127	0.003636
O6	O	1.102518	-0.108329	-0.154888
O7	O	1.406575	-0.124642	-0.139704
Zn8	Zn	1.254539	-0.132103	-0.147296
Zn9	Zn	1.254602	-0.002501	-0.147296
O10	O	1.261289	-0.116844	-0.298228
C11	C	1.063354	-0.057043	-0.154036
C12	C	0.946585	-0.050779	-0.151486
N13	N	1.254504	-0.220554	-0.147295
C14	C	0.782026	0.011664	-0.147891
C15	C	0.891741	0.005783	-0.150287
C16	C	0.891705	-0.101463	-0.150286
C17	C	0.781989	-0.095582	-0.147890
C18	C	0.727154	-0.039017	-0.146695
C19	C	0.617436	-0.033136	-0.144306
C20	C	0.617402	-0.140381	-0.144298
C21	C	0.727117	-0.146262	-0.146694
C22	C	1.324577	-0.632953	-0.210497
C23	C	1.324589	-0.694874	-0.210494
O24	O	1.384125	-0.730085	-0.264224
N25	N	1.254621	-0.722097	-0.147285
C26	C	1.184641	-0.687397	-0.084066
O27	O	1.125129	-0.716239	-0.030300
C28	C	1.184634	-0.625478	-0.084063
C29	C	1.254601	-0.598257	-0.147285
C30	C	1.394538	-0.605732	-0.273712
C31	C	1.394523	-0.543816	-0.273716
C32	C	1.324547	-0.509120	-0.210504
C33	C	1.254586	-0.536341	-0.147289
C34	C	1.114661	-0.590779	-0.020839
C35	C	1.114661	-0.528856	-0.020842
C36	C	1.184627	-0.501636	-0.084064
C37	C	1.184596	-0.439729	-0.084080
N38	N	1.254564	-0.412505	-0.147290
C39	C	1.324540	-0.447201	-0.210502
C40	C	1.184663	-0.817432	-0.084074
C41	C	1.184664	-0.879350	-0.084081
C42	C	1.324614	-0.886822	-0.210509
C43	C	1.324607	-0.824903	-0.210506
C44	C	1.254632	-0.790208	-0.147284
C45	C	1.324504	-0.317172	-0.210505
C46	C	1.324480	-0.255249	-0.210507
C47	C	1.184535	-0.247783	-0.084076
C48	C	1.184554	-0.309699	-0.084078
C49	C	1.254547	-0.344393	-0.147296
O50	O	1.125093	-0.404480	-0.030375
O51	O	1.384052	-0.418352	-0.264248
C52	C	1.445787	-0.077559	-0.140556
C53	C	1.562556	-0.083820	-0.143106
C54	C	1.243273	-0.066699	0.042276
C55	C	1.229687	-0.065970	0.157412
N56	N	1.254644	0.085949	-0.147289
C57	C	1.265868	-0.067904	-0.336868
C58	C	1.279453	-0.068630	-0.452004
C59	C	1.393013	-0.074719	0.397663
C60	C	1.380252	-0.074034	0.505844
C61	C	1.191408	-0.063909	0.481957
C62	C	1.204168	-0.064594	0.373776
C63	C	1.304974	-0.070001	0.331634
C64	C	1.317733	-0.070690	0.223450
C65	C	1.128889	-0.060561	0.199565
C66	C	1.116129	-0.059875	0.307746
H67	H	0.737378	0.057721	-0.146929
H68	H	0.572713	-0.181649	-0.143328
O69	O	1.462536	-0.517313	-0.334977
C70	C	1.527880	-0.485002	-0.272095
H71	H	1.487511	-0.473565	-0.194986
H72	H	1.605224	-0.513001	-0.256604
C73	C	1.598892	-0.441379	-0.423204
C74	C	1.549306	-0.427328	-0.328499
H75	H	1.612113	-0.405804	-0.457997
H76	H	1.554872	-0.463149	-0.465569
H77	H	1.663340	-0.464713	-0.410281
H78	H	1.484854	-0.404001	-0.341424
H79	H	1.593316	-0.405552	-0.286137
O80	O	1.392676	-0.798561	-0.271942
C81	C	1.454413	-0.842468	-0.327753
H82	H	1.456247	-0.886704	-0.284849
H83	H	1.419291	-0.847172	-0.408945
C84	C	1.564568	-0.769986	-0.389694
C85	C	1.566827	-0.824318	-0.336993
H86	H	1.633909	-0.758790	-0.395398
H87	H	1.522972	-0.740405	-0.352096
H88	H	1.535294	-0.773914	-0.457348
H89	H	1.596087	-0.820387	-0.269336
H90	H	1.608430	-0.853899	-0.374580
H91	H	1.399814	-0.075095	0.189140
O92	O	1.093568	-0.058686	0.523077
C93	C	1.101191	-0.059074	0.632719
H94	H	1.180590	-0.081954	0.657757
H95	H	1.093116	-0.011447	0.662842
C96	C	0.915654	-0.064828	0.647223
C97	C	1.013169	-0.092934	0.677974
H98	H	0.861356	-0.085711	0.675140
H99	H	0.910516	-0.064564	0.573355
H100	H	0.908939	-0.025140	0.672327
H101	H	1.019888	-0.132618	0.652859
H102	H	1.018306	-0.093205	0.751839
O103	O	1.465885	-0.078651	0.569838
C104	C	1.557589	-0.083554	0.509438
H105	H	1.538997	-0.101181	0.428824
H106	H	1.587995	-0.037991	0.501599
C107	C	1.664638	-0.104994	0.661958
C108	C	1.641805	-0.126649	0.562949
H109	H	1.716589	-0.131575	0.694967
H110	H	1.602856	-0.101689	0.702652
H111	H	1.689970	-0.067025	0.655412
H112	H	1.616460	-0.164614	0.569497
H113	H	1.703584	-0.129961	0.522257
H114	H	1.034056	-0.055471	0.342074
H115	H	1.057201	-0.056723	0.145791
O116	O	0.944992	0.055031	-0.151639
C117	C	0.915259	0.089254	-0.240750
H118	H	0.883049	0.059606	-0.302791
H119	H	0.852244	0.126067	-0.219077
C120	C	1.050971	0.153373	-0.207359
C121	C	1.011419	0.116957	-0.283562
H122	H	1.110285	0.170464	-0.233766
H123	H	1.071001	0.130318	-0.147321
H124	H	0.998449	0.184045	-0.189305
H125	H	1.063936	0.086281	-0.301605
H126	H	0.991400	0.140008	-0.343605
H127	H	1.381455	-0.233090	-0.261994
H128	H	0.936371	-0.147516	-0.151248
H129	H	0.771779	-0.192316	-0.147664
H130	H	1.381500	-0.345412	-0.261983
H131	H	1.451526	-0.633976	-0.325187
H132	H	1.381591	-0.915083	-0.261981
O133	O	1.116654	-0.905695	-0.022581
C134	C	1.054872	-0.861787	0.033186
H135	H	1.097731	-0.819940	0.039018
H136	H	0.976722	-0.851025	-0.009135
C137	C	0.982421	-0.936287	0.136231
C138	C	1.035064	-0.884892	0.143402
H139	H	0.970197	-0.950540	0.204216
H140	H	1.024041	-0.965869	0.098658
H141	H	0.917301	-0.927312	0.100959
H142	H	1.100188	-0.893870	0.178661
H143	H	0.993455	-0.855312	0.180984
H144	H	1.127671	-0.789186	-0.032594
O145	O	1.046664	-0.617121	0.040676
C146	C	0.984894	-0.573211	0.096450
H147	H	1.027755	-0.531365	0.102271
H148	H	0.906737	-0.562448	0.054141
C149	C	0.912457	-0.647708	0.199513
C150	C	0.965104	-0.596314	0.206671
H151	H	0.900244	-0.661960	0.267501
H152	H	0.954069	-0.677292	0.161935
H153	H	0.847332	-0.638732	0.164252
H154	H	1.030233	-0.605292	0.241920
H155	H	0.923502	-0.566732	0.244258
O156	O	1.046635	-0.495088	0.040423
C157	C	0.981276	-0.455791	-0.022461
H158	H	1.021640	-0.448666	-0.099572
H159	H	0.903941	-0.475525	-0.037949
C160	C	0.910247	-0.404582	0.128643
C161	C	0.959827	-0.395827	0.033937
H162	H	0.897012	-0.367594	0.163433
H163	H	0.954278	-0.431058	0.171011
H164	H	0.845807	-0.421029	0.115723
H165	H	1.024272	-0.379388	0.046859
H166	H	0.915807	-0.369347	-0.008427
H167	H	0.572791	0.012922	-0.143337
O168	O	1.116670	-0.213987	-0.022696
C169	C	1.131658	-0.153500	-0.036276
H170	H	1.214138	-0.149458	-0.066250
H171	H	1.071696	-0.132719	-0.095026
C172	C	1.016309	-0.125923	0.105554
C173	C	1.117616	-0.120958	0.068748
H174	H	1.007643	-0.105848	0.170336
H175	H	1.006208	-0.166674	0.114701
H176	H	0.966352	-0.108606	0.056586
H177	H	1.167570	-0.138282	0.117709
H178	H	1.127725	-0.080209	0.059611
O179	O	1.490875	-0.079892	0.356594
C180	C	1.503938	-0.029640	0.294748
H181	H	1.423877	-0.008358	0.268176
H182	H	1.545637	0.003797	0.342328
C183	C	1.668358	-0.074800	0.231449
C184	C	1.570027	-0.048665	0.198805
H185	H	1.709129	-0.086535	0.172269
H186	H	1.659560	-0.108656	0.273119
H187	H	1.703094	-0.046932	0.271100
H188	H	1.535287	-0.076536	0.159166
H189	H	1.578821	-0.014815	0.157126
H190	H	1.127570	-0.331863	-0.032611
