data_functionalizedCrystal
_audit_creation_method	'MofGen! by Chris Wilmer'
_symmetry_space_group_name_H-M	'P1'
_symmetry_Int_Tables_number	1
_symmetry_cell_setting	triclinic
loop_
_symmetry_equiv_pos_as_xyz
  x,y,z
_cell_length_a	21.295419
_cell_length_b	13.897449
_cell_length_c	13.897441
_cell_angle_alpha	89.979267
_cell_angle_beta	90.020000
_cell_angle_gamma	89.997004
loop_
_atom_site_label
_atom_site_type_symbol
_atom_site_fract_x
_atom_site_fract_y
_atom_site_fract_z
Zn1	Zn	0.250568	1.474810	-0.545452
Zn2	Zn	0.355847	1.474749	-0.384183
Zn3	Zn	0.250598	1.313499	-0.384171
Zn4	Zn	0.355805	1.313526	-0.545436
O5	O	0.303204	1.394146	-0.464811
O6	O	0.264538	1.609783	-0.524072
O7	O	0.341915	1.453322	-0.249200
O8	O	0.162504	1.334911	-0.405566
O9	O	0.341886	1.609738	-0.405588
O10	O	0.162482	1.453426	-0.524059
O11	O	0.264589	1.334852	-0.249191
O12	O	0.264549	1.178521	-0.405551
O13	O	0.341815	1.334957	-0.680420
O14	O	0.341844	1.178540	-0.524032
O15	O	0.264498	1.453452	-0.680432
O16	O	0.443930	1.453348	-0.405573
O17	O	0.443900	1.334898	-0.524044
C18	C	0.303196	1.143531	-0.464789
C19	C	0.303207	1.036317	-0.464802
C20	C	0.139014	1.394172	-0.464813
C21	C	0.069046	1.394184	-0.464814
C22	C	0.303210	0.840022	-0.464827
C23	C	0.303206	0.949255	-0.464811
C24	C	0.036168	1.332514	-0.526491
C25	C	-0.029575	1.332523	-0.526505
C26	C	-0.062437	1.394192	-0.464824
C27	C	-0.029551	1.455874	-0.403143
C28	C	0.036190	1.455870	-0.403138
N29	N	-0.165640	1.401572	-0.380398
N30	N	-0.228092	1.401570	-0.380406
C31	C	-0.260511	1.394210	-0.464837
N32	N	-0.228121	1.386832	-0.549263
N33	N	-0.165663	1.386829	-0.549254
C34	C	-0.133722	1.394204	-0.464823
C35	C	-0.364675	1.332546	-0.526534
C36	C	-0.430419	1.332562	-0.526549
C37	C	-0.430394	1.455909	-0.403179
C38	C	-0.364651	1.455898	-0.403172
C39	C	-0.331796	1.394211	-0.464848
C40	C	0.466756	1.394145	-0.464829
C41	C	0.536724	1.394233	-0.464869
C42	C	0.303149	1.394214	-0.716404
C43	C	0.303125	1.394243	-0.823618
C44	C	0.303213	1.645739	-0.464833
C45	C	0.303217	1.752953	-0.464843
C46	C	0.303082	1.394269	-1.019913
C47	C	0.303108	1.394252	-0.910680
C48	C	0.303214	1.394133	-0.214196
C49	C	0.303061	1.394291	-0.106983
H50	H	0.062915	1.282281	-0.576710
H51	H	-0.056349	1.282302	-0.576731
H52	H	-0.457188	1.282346	-0.576779
C53	C	-0.328484	1.523730	-0.335311
N54	N	-0.301243	1.574824	-0.284195
C55	C	-0.065700	1.523709	-0.335292
N56	N	-0.092928	1.574805	-0.284186
H57	H	0.062959	1.506092	-0.352912
C58	C	-0.328532	1.264701	-0.594389
N59	N	-0.301311	1.213602	-0.645500
H60	H	-0.457149	1.506125	-0.352962
