data_functionalizedCrystal
_audit_creation_method	'MofGen! by Chris Wilmer'
_symmetry_space_group_name_H-M	'P1'
_symmetry_Int_Tables_number	1
_symmetry_cell_setting	triclinic
loop_
_symmetry_equiv_pos_as_xyz
  x,y,z
_cell_length_a	13.897448
_cell_length_b	10.686154
_cell_length_c	10.685314
_cell_angle_alpha	81.644047
_cell_angle_beta	94.334330
_cell_angle_gamma	85.603301
loop_
_atom_site_label
_atom_site_type_symbol
_atom_site_fract_x
_atom_site_fract_y
_atom_site_fract_z
Zn1	Zn	-0.306655	-1.885470	-0.569063
Zn2	Zn	0.026679	-1.552136	-0.235730
Zn3	Zn	0.360012	-1.218803	0.097604
Zn4	Zn	-0.454606	-1.901604	-0.356827
Zn5	Zn	-0.121273	-1.568271	-0.023494
Zn6	Zn	0.212060	-1.234938	0.309839
Zn7	Zn	-0.306726	-1.689480	-0.373092
Zn8	Zn	0.026607	-1.356147	-0.039759
Zn9	Zn	0.359940	-1.022814	0.293575
Zn10	Zn	-0.481314	-1.673188	-0.585257
Zn11	Zn	-0.147981	-1.339855	-0.251924
Zn12	Zn	0.185353	-1.006522	0.081410
O13	O	-0.387325	-1.787436	-0.471060
O14	O	-0.053992	-1.454102	-0.137727
O15	O	0.279341	-1.120769	0.195607
O16	O	-0.315073	-2.065225	-0.527326
O17	O	0.018260	-1.731892	-0.193992
O18	O	0.351593	-1.398558	0.139341
O19	O	-0.423843	-1.887036	-0.181372
O20	O	-0.090509	-1.553703	0.151962
O21	O	0.242824	-1.220370	0.485295
O22	O	-0.171733	-1.715544	-0.399117
O23	O	0.161600	-1.382211	-0.065784
O24	O	0.494934	-1.048878	0.267549
O25	O	-0.423773	-2.077079	-0.371397
O26	O	-0.090440	-1.743746	-0.038064
O27	O	0.242894	-1.410412	0.295270
O28	O	-0.171680	-1.859537	-0.543097
O29	O	0.161653	-1.526204	-0.209763
O30	O	0.494986	-1.192870	0.123570
O31	O	-0.315196	-1.731190	-0.193321
O32	O	0.018137	-1.397856	0.140012
O33	O	0.351471	-1.064523	0.473346
O34	O	-0.341093	-1.509704	-0.414820
O35	O	-0.007760	-1.176371	-0.081487
O36	O	0.325574	-0.843037	0.251847
O37	O	-0.469292	-1.687777	-0.760722
O38	O	-0.135959	-1.354444	-0.427389
O39	O	0.197375	-1.021111	-0.094056
O40	O	-0.469362	-1.497734	-0.570697
O41	O	-0.136028	-1.164401	-0.237364
O42	O	0.197305	-0.831068	0.095970
O43	O	-0.340971	-1.843739	-0.748825
O44	O	-0.007637	-1.510406	-0.415491
O45	O	0.325696	-1.177073	-0.082158
O46	O	-0.593133	-1.871239	-0.387100
O47	O	-0.259800	-1.537905	-0.053766
O48	O	0.073534	-1.204572	0.279567
O49	O	-0.612755	-1.703422	-0.554926
O50	O	-0.279422	-1.370089	-0.221593
O51	O	0.053912	-1.036756	0.111741
C52	C	-0.408134	-1.457666	-0.496281
C53	C	-0.074801	-1.124332	-0.162948
C54	C	0.258533	-0.790999	0.170385
C55	C	-0.417061	-1.316586	-0.507101
C56	C	-0.083728	-0.983253	-0.173768
C57	C	0.249605	-0.649919	0.159565
C58	C	-0.637943	-1.787346	-0.471030
C59	C	-0.304610	-1.454012	-0.137697
C60	C	0.028723	-1.120679	0.195636
C61	C	-0.745154	-1.787420	-0.471051
C62	C	-0.411821	-1.454087	-0.137718
C63	C	-0.078487	-1.120754	0.195616
C64	C	-0.941446	-1.787547	-0.471121
C65	C	-0.608112	-1.454214	-0.137787
C66	C	-0.274779	-1.120881	0.195546
C67	C	-0.832216	-1.787473	-0.471086
C68	C	-0.498882	-1.454139	-0.137753
C69	C	-0.165549	-1.120806	0.195581
C70	C	-0.135728	-1.787558	-0.471115
C71	C	0.197605	-1.454225	-0.137781
C72	C	0.530938	-1.120892	0.195552
C73	C	-0.028513	-1.787610	-0.471138
C74	C	0.304821	-1.454277	-0.137805
C75	C	0.638154	-1.120944	0.195528
C76	C	-0.408102	-1.762141	-0.802114
C77	C	-0.074769	-1.428808	-0.468781
C78	C	0.258564	-1.095475	-0.135448
C79	C	-0.416956	-1.751362	-0.943190
C80	C	-0.083623	-1.418029	-0.609857
C81	C	0.249710	-1.084696	-0.276523
C82	C	-0.366426	-1.118494	-0.445732
C83	C	-0.033093	-0.785161	-0.112399
C84	C	0.300241	-0.451827	0.220934
C85	C	-0.357495	-1.259573	-0.434918
C86	C	-0.024162	-0.926240	-0.101585
C87	C	0.309172	-0.592906	0.231748
C88	C	-0.366555	-1.812705	-0.141288
C89	C	-0.033221	-1.479371	0.192045
C90	C	0.300112	-1.146038	0.525379
C91	C	-0.357414	-1.823729	-0.000194
C92	C	-0.024080	-1.490396	0.333139
C93	C	0.309253	-1.157063	0.666472
H94	H	-0.474897	-1.257461	-0.577175
H95	H	-0.141564	-0.924128	-0.243842
H96	H	0.191770	-0.590795	0.089491
H97	H	-0.299669	-1.318691	-0.364841
H98	H	0.033665	-0.985358	-0.031507
H99	H	0.366998	-0.652025	0.301826
H100	H	-0.299654	-1.893920	-0.941072
H101	H	0.033679	-1.560587	-0.607739
H102	H	0.367012	-1.227254	-0.274405
H103	H	-0.474710	-1.681153	-1.002320
H104	H	-0.141376	-1.347819	-0.668987
H105	H	0.191957	-1.014486	-0.335653
