data_functionalizedCrystal
_audit_creation_method	'MofGen! by Chris Wilmer'
_symmetry_space_group_name_H-M	'P1'
_symmetry_Int_Tables_number	1
_symmetry_cell_setting	triclinic
loop_
_symmetry_equiv_pos_as_xyz
  x,y,z
_cell_length_a	14.044191
_cell_length_b	19.188924
_cell_length_c	12.503572
_cell_angle_alpha	93.516552
_cell_angle_beta	86.155253
_cell_angle_gamma	88.166870
loop_
_atom_site_label
_atom_site_type_symbol
_atom_site_fract_x
_atom_site_fract_y
_atom_site_fract_z
O1	O	1.251511	0.171996	0.089279
O2	O	1.751511	0.671996	0.589279
O3	O	0.975566	0.165919	0.089292
O4	O	1.475566	0.665919	0.589292
O5	O	1.121506	0.067816	0.089272
O6	O	1.621506	0.567816	0.589272
O7	O	1.105571	0.270100	0.089299
O8	O	1.605571	0.770100	0.589299
O9	O	1.132486	0.060428	-0.089371
O10	O	1.632486	0.560428	0.410629
O11	O	0.986547	0.158532	-0.089351
O12	O	1.486547	0.658532	0.410649
O13	O	1.262492	0.164609	-0.089365
O14	O	1.762492	0.664609	0.410635
Cu15	Cu	1.125522	0.160896	-0.105669
Cu16	Cu	1.625522	0.660896	0.394331
Cu17	Cu	1.112536	0.169632	0.105597
Cu18	Cu	1.612536	0.669632	0.605597
O19	O	1.116552	0.262713	-0.089345
O20	O	1.616552	0.762713	0.410655
C21	C	0.945753	0.159567	-0.000028
C22	C	1.445753	0.659567	0.499972
C23	C	0.840560	0.151636	-0.000023
C24	C	1.340560	0.651636	0.499977
C25	C	0.590099	0.193384	-0.000029
C26	C	1.090099	0.693384	0.499971
C27	C	0.647964	0.137148	-0.000034
C28	C	1.147964	0.637148	0.499966
C29	C	0.755134	0.145211	-0.000028
C30	C	1.255134	0.645211	0.499972
C31	C	0.482919	0.185322	-0.000035
C32	C	0.982919	0.685322	0.499965
C33	C	1.126481	0.038077	-0.000050
C34	C	1.626481	0.538077	0.499950
C35	C	1.124936	-0.039527	-0.000053
C36	C	1.624936	0.460473	0.499947
C37	C	1.118229	-0.071946	0.097326
C38	C	1.618229	0.428054	0.597326
C39	C	1.116763	-0.144863	0.097334
C40	C	1.616763	0.355137	0.597334
C41	C	1.122023	-0.185359	-0.000042
C42	C	1.622023	0.314641	0.499958
C43	C	1.128725	-0.152932	-0.097434
C44	C	1.628725	0.347068	0.402566
C45	C	1.130182	-0.080016	-0.097439
C46	C	1.630182	0.419984	0.402561
N47	N	1.178118	-0.304686	-0.072519
N48	N	1.678118	0.195314	0.427481
N49	N	1.176736	-0.373953	-0.072508
N50	N	1.676736	0.126047	0.427492
C51	C	1.117633	-0.405051	-0.000032
C52	C	1.617633	0.094949	0.499968
N53	N	1.059975	-0.364265	0.072449
N54	N	1.559975	0.135735	0.572449
N55	N	1.061361	-0.294992	0.072440
N56	N	1.561361	0.205008	0.572440
C57	C	1.120444	-0.264425	-0.000047
C58	C	1.620444	0.235575	0.499953
C59	C	1.109335	-0.516534	0.097363
C60	C	1.609335	-0.016534	0.597363
C61	C	1.107863	-0.589453	0.097367
C62	C	1.607863	-0.089453	0.597367
C63	C	1.119835	-0.597521	-0.097403
C64	C	1.619835	-0.097521	0.402597
C65	C	1.121297	-0.524604	-0.097405
C66	C	1.621297	-0.024604	0.402595
C67	C	1.116051	-0.484115	-0.000019
C68	C	1.616051	0.015885	0.499981
C69	C	1.292305	0.170961	-0.000042
C70	C	1.792305	0.670961	0.499958
C71	C	1.397497	0.178892	-0.000040
C72	C	1.897497	0.678892	0.499960
C73	C	1.111576	0.292451	-0.000020
C74	C	1.611576	0.792451	0.499980
C75	C	1.113121	0.370056	-0.000010
C76	C	1.613121	0.870056	0.499990
N77	N	1.134662	0.154751	-0.254263
N78	N	1.634662	0.654751	0.245737
N79	N	1.103403	0.175772	0.254191
N80	N	1.603403	0.675772	0.754191
C81	C	1.089961	0.184804	0.473308
C82	C	1.589961	0.684804	0.973308
C83	C	1.148101	0.145721	0.526627
C84	C	1.648101	0.645721	1.026627
C85	C	1.140622	0.150747	0.648551
C86	C	1.640622	0.650747	1.148551
C87	C	1.097439	0.179779	0.351372
C88	C	1.597439	0.679779	0.851372
H89	H	0.621046	0.247581	-0.000019
H90	H	1.121046	0.747581	0.499981
H91	H	1.203493	0.108488	0.480706
H92	H	1.703493	0.608488	0.980706
O93	O	0.606984	0.065348	-0.000041
O94	O	1.106984	0.565348	0.499959
H95	H	0.558018	0.062009	0.072776
H96	H	1.058018	0.562009	0.572776
O97	O	1.103655	-0.472857	0.202395
O98	O	1.603655	0.027143	0.702395
H99	H	1.165070	-0.487123	0.249100
H100	H	1.665070	0.012877	0.749100
O101	O	1.100595	-0.624413	0.202411
O102	O	1.600595	-0.124413	0.702411
H103	H	1.162577	-0.610695	0.249112
H104	H	1.662577	-0.110695	0.749112
O105	O	1.137421	-0.045045	-0.202474
O106	O	1.637421	0.454955	0.297526
H107	H	1.202944	-0.014218	-0.207131
H108	H	1.702944	0.485782	0.292869
O109	O	1.016564	0.234103	0.534120
O110	O	1.516564	0.734103	1.034120
H111	H	1.022118	0.230348	0.621727
H112	H	1.522118	0.730348	1.121727
O113	O	1.112548	-0.028273	0.202358
O114	O	1.612548	0.471727	0.702358
H115	H	1.107625	-0.063070	0.270074
H116	H	1.607625	0.436930	0.770074
H117	H	1.133005	-0.185909	-0.176718
H118	H	1.633005	0.314091	0.323282
O119	O	1.109531	-0.179842	0.202367
O120	O	1.609531	0.320158	0.702367
H121	H	1.106132	-0.139438	0.270083
H122	H	1.606132	0.360562	0.770083
O123	O	1.125515	-0.641188	-0.202436
O124	O	1.625515	-0.141188	0.297564
H125	H	1.123383	-0.697339	-0.186075
H126	H	1.623383	-0.197339	0.313925
H127	H	1.126766	-0.498209	-0.176701
H128	H	1.626766	0.001791	0.323299
