data_functionalizedCrystal
_audit_creation_method	'MofGen! by Chris Wilmer'
_symmetry_space_group_name_H-M	'P1'
_symmetry_Int_Tables_number	1
_symmetry_cell_setting	triclinic
loop_
_symmetry_equiv_pos_as_xyz
  x,y,z
_cell_length_a	13.032891
_cell_length_b	25.639239
_cell_length_c	13.033255
_cell_angle_alpha	97.151592
_cell_angle_beta	76.666394
_cell_angle_gamma	82.843494
loop_
_atom_site_label
_atom_site_type_symbol
_atom_site_fract_x
_atom_site_fract_y
_atom_site_fract_z
Zn1	Zn	1.699806	-0.367520	-0.806305
Zn2	Zn	1.677085	-0.442230	-0.628673
Zn3	Zn	1.499655	-0.342094	-0.606208
Zn4	Zn	1.522098	-0.442184	-0.783714
O5	O	1.599661	-0.398507	-0.706225
O6	O	1.845419	-0.388091	-0.801598
O7	O	1.634648	-0.418325	-0.477066
O8	O	1.526322	-0.272312	-0.632804
O9	O	1.828726	-0.442980	-0.671092
O10	O	1.673373	-0.290993	-0.779815
O11	O	1.504291	-0.344755	-0.460561
O12	O	1.354006	-0.344711	-0.610898
O13	O	1.564572	-0.442901	-0.935337
O14	O	1.370494	-0.418247	-0.741311
O15	O	1.695134	-0.388046	-0.951935
O16	O	1.656409	-0.515378	-0.649187
O17	O	1.542541	-0.515345	-0.763095
C18	C	1.323713	-0.378715	-0.671216
C19	C	1.205664	-0.370262	-0.656265
C20	C	1.599476	-0.534333	-0.706154
C21	C	1.599499	-0.592450	-0.706171
C22	C	1.039199	-0.394186	-0.698585
C23	C	1.161208	-0.402925	-0.714036
C24	C	1.659144	-0.952853	-0.647051
C25	C	1.659187	-1.007461	-0.647071
O26	O	1.709708	-1.035714	-0.596728
N27	N	1.599857	-1.034764	-0.706319
C28	C	1.540488	-1.007458	-0.765560
O29	O	1.490027	-1.035696	-0.815958
C30	C	1.540452	-0.952851	-0.765546
C31	C	1.599778	-0.925550	-0.706286
C32	C	1.718467	-0.925551	-0.587796
C33	C	1.718422	-0.870946	-0.587775
C34	C	1.659055	-0.843643	-0.647010
C35	C	1.599733	-0.870945	-0.706265
C36	C	1.481090	-0.925547	-0.824793
C37	C	1.481059	-0.870937	-0.824775
C38	C	1.540385	-0.843635	-0.765514
C39	C	1.540321	-0.789037	-0.765478
N40	N	1.599652	-0.761734	-0.706230
C41	C	1.659019	-0.789037	-0.646996
C42	C	1.540570	-1.122135	-0.765587
C43	C	1.540600	-1.176740	-0.765596
C44	C	1.659301	-1.176740	-0.647107
C45	C	1.659265	-1.122133	-0.647093
C46	C	1.599901	-1.094832	-0.706339
C47	C	1.658919	-0.674363	-0.646956
C48	C	1.658866	-0.619753	-0.646937
C49	C	1.540169	-0.619759	-0.765429
C50	C	1.540218	-0.674363	-0.765444
C51	C	1.599601	-0.701664	-0.706205
O52	O	1.489830	-0.760750	-0.815799
O53	O	1.709482	-0.760793	-0.596617
C54	C	1.876687	-0.418377	-0.741371
C55	C	1.994739	-0.426844	-0.756348
C56	C	1.634891	-0.418305	-0.983251
C57	C	1.649904	-0.426742	-1.101303
C58	C	1.599879	-0.262154	-0.706323
C59	C	1.599971	-0.204048	-0.706365
C60	C	1.607622	-0.402821	-1.267786
C61	C	1.592097	-0.394099	-1.145772
C62	C	1.564629	-0.378753	-0.430284
C63	C	1.549822	-0.370183	-0.312259
H64	H	0.986936	-0.359755	-0.637697
N65	N	1.063958	-0.472454	-0.837001
H66	H	1.017525	-0.493048	-0.873425
H67	H	1.116276	-0.458004	-0.892024
N68	N	1.511314	-0.348528	-1.076579
H69	H	1.456244	-0.362975	-1.024300
H70	H	1.548781	-0.324147	-1.036120
N71	N	1.230421	-0.448533	-0.794705
H72	H	1.307769	-0.448311	-0.794308
H73	H	1.208921	-0.483292	-0.775597
N74	N	1.469056	-0.324615	-1.243043
H75	H	1.488048	-0.289814	-1.264411
H76	H	1.395618	-0.328702	-1.252683
N77	N	1.722948	-0.703805	-0.583050
H78	H	1.777651	-0.733043	-0.632488
H79	H	1.760445	-0.678182	-0.545513
N80	N	1.688385	-0.448394	-1.336989
H81	H	1.688023	-0.448167	-1.414342
H82	H	1.761812	-0.444330	-1.327287
N83	N	1.136460	-0.324650	-0.575598
H84	H	1.095981	-0.300273	-0.613067
H85	H	1.084197	-0.339102	-0.520528
N86	N	1.730677	-0.472313	-1.170508
H87	H	1.785746	-0.457866	-1.222788
H88	H	1.767037	-0.492879	-1.123990
N89	N	1.722861	-0.590305	-0.583026
H90	H	1.696788	-0.593231	-0.505045
H91	H	1.800828	-0.606407	-0.609306
N92	N	1.782427	-0.841505	-0.523876
H93	H	1.820044	-0.867095	-0.486367
H94	H	1.837031	-0.825435	-0.573385
H95	H	1.766816	-0.947776	-0.539561
N96	N	1.417117	-0.954990	-0.888721
H97	H	1.362447	-0.971068	-0.839299
H98	H	1.379582	-0.929375	-0.926241
N99	N	1.723255	-1.092689	-0.583182
H100	H	1.760865	-1.118276	-0.545661
H101	H	1.777863	-1.076617	-0.632681
N102	N	1.476154	-0.590305	-0.829326
H103	H	1.438576	-0.615884	-0.866874
H104	H	1.421518	-0.561065	-0.779819
N105	N	1.723334	-1.206193	-0.583216
H106	H	1.714353	-1.244928	-0.592224
H107	H	1.801279	-1.203232	-0.609428
N108	N	1.476592	-1.206177	-0.829498
H109	H	1.502669	-1.203251	-0.907478
H110	H	1.485638	-1.244902	-0.820444
N111	N	1.476525	-1.092686	-0.829474
H112	H	1.502612	-1.108772	-0.907461
H113	H	1.398573	-1.095617	-0.803199
N114	N	1.417029	-0.841487	-0.888671
H115	H	1.443125	-0.857570	-0.966658
H116	H	1.339076	-0.844418	-0.862407
N117	N	1.476220	-0.703813	-0.829346
H118	H	1.438602	-0.678227	-0.866863
H119	H	1.525690	-0.733047	-0.884024
