data_functionalizedCrystal
_audit_creation_method	'MofGen! by Chris Wilmer'
_symmetry_space_group_name_H-M	'P1'
_symmetry_Int_Tables_number	1
_symmetry_cell_setting	triclinic
loop_
_symmetry_equiv_pos_as_xyz
  x,y,z
_cell_length_a	16.120530
_cell_length_b	14.908932
_cell_length_c	14.908308
_cell_angle_alpha	90.209830
_cell_angle_beta	89.451626
_cell_angle_gamma	90.229812
loop_
_atom_site_label
_atom_site_type_symbol
_atom_site_fract_x
_atom_site_fract_y
_atom_site_fract_z
Zn1	Zn	1.220888	-0.457999	0.550637
Zn2	Zn	1.221756	-0.599750	0.391669
Zn3	Zn	1.090708	-0.441820	0.393592
Zn4	Zn	1.074782	-0.599854	0.534417
O5	O	1.152034	-0.524856	0.467579
O6	O	1.336993	-0.483531	0.535533
O7	O	1.211400	-0.571986	0.266461
O8	O	1.114279	-0.318505	0.422017
O9	O	1.337631	-0.587674	0.418740
O10	O	1.209922	-0.330392	0.537397
O11	O	1.115120	-0.455955	0.267873
O12	O	0.972606	-0.456056	0.406290
O13	O	1.087135	-0.587851	0.662032
O14	O	0.960905	-0.572162	0.509753
O15	O	1.194479	-0.483631	0.673949
O16	O	1.195957	-0.725225	0.403012
O17	O	1.087976	-0.725301	0.507888
C18	C	1.140354	-0.757796	0.453502
C19	C	1.135432	-0.857454	0.447514
C20	C	0.936680	-0.512365	0.456470
C21	C	0.844549	-0.507045	0.451738
C22	C	1.138934	-0.537557	0.701432
C23	C	1.133351	-0.542970	0.801086
C24	C	0.675864	-0.497310	0.443107
C25	C	0.629037	-0.552471	0.492112
C26	C	0.535175	-0.547055	0.487309
C27	C	0.769735	-0.502725	0.447908
C28	C	1.368228	-0.537396	0.478731
C29	C	1.460357	-0.542739	0.483483
C30	C	1.163780	-0.291009	0.481731
C31	C	1.168786	-0.191357	0.487762
C32	C	1.078580	0.008280	0.378951
C33	C	1.083281	0.101912	0.384615
C34	C	1.182883	0.089541	0.504756
C35	C	1.178183	-0.004091	0.499093
C36	C	1.126030	-0.044718	0.436187
C37	C	1.121335	-0.138352	0.430520
C38	C	1.220932	-0.150721	0.550665
C39	C	1.225633	-0.057089	0.556329
C40	C	1.165134	-0.512142	0.234642
C41	C	1.170889	-0.506486	0.135012
C42	C	1.234637	-0.444596	1.000758
C43	C	1.229395	-0.449678	1.094392
C44	C	1.117621	-0.558213	1.081990
C45	C	1.122863	-0.553130	0.988356
C46	C	1.181374	-0.496321	0.947743
C47	C	1.186620	-0.491243	0.854107
C48	C	1.074843	-0.599772	0.841707
C49	C	1.069600	-0.604855	0.935342
H50	H	0.659440	-0.603763	0.537674
Cl51	Cl	1.308200	-0.373191	0.949699
Cl52	Cl	1.248419	0.140631	0.583851
Cl53	Cl	0.628926	-0.418124	0.372767
H54	H	1.272765	-0.407556	1.137554
H55	H	1.031474	-0.641893	0.798532
Cl56	Cl	1.023625	0.168535	0.312660
Cl57	Cl	1.044065	-0.629617	1.133062
H58	H	1.078871	-0.171429	0.379298
H59	H	1.036121	-0.024799	0.327726
H60	H	1.268092	-0.024000	0.607547
Cl61	Cl	1.280593	-0.217353	0.622617
Cl62	Cl	1.260177	-0.419829	0.803052
H63	H	1.021961	-0.651105	0.968421
