data_functionalizedCrystal
_audit_creation_method	'MofGen! by Chris Wilmer'
_symmetry_space_group_name_H-M	'P1'
_symmetry_Int_Tables_number	1
_symmetry_cell_setting	triclinic
loop_
_symmetry_equiv_pos_as_xyz
  x,y,z
_cell_length_a	14.519731
_cell_length_b	14.519709
_cell_length_c	9.130313
_cell_angle_alpha	89.997798
_cell_angle_beta	89.999669
_cell_angle_gamma	83.684499
loop_
_atom_site_label
_atom_site_type_symbol
_atom_site_fract_x
_atom_site_fract_y
_atom_site_fract_z
O1	O	1.223850	0.120981	-0.121806
O2	O	1.557183	0.454314	0.211528
O3	O	1.890517	0.787647	0.544861
O4	O	0.955376	0.135197	-0.121808
O5	O	1.288709	0.468530	0.211525
O6	O	1.622043	0.801863	0.544858
O7	O	1.096731	-0.006149	-0.121794
O8	O	1.430065	0.327184	0.211540
O9	O	1.763398	0.660517	0.544873
O10	O	1.082495	0.262327	-0.121820
O11	O	1.415828	0.595660	0.211513
O12	O	1.749161	0.928993	0.544846
O13	O	1.096729	-0.006145	0.121805
O14	O	1.430063	0.327188	0.455138
O15	O	1.763396	0.660521	0.788472
O16	O	0.955374	0.135201	0.121791
O17	O	1.288707	0.468534	0.455124
O18	O	1.622041	0.801867	0.788457
O19	O	1.223848	0.120984	0.121793
O20	O	1.557182	0.454318	0.455126
O21	O	1.890515	0.787651	0.788460
Cu22	Cu	1.089611	0.128093	0.144034
Cu23	Cu	1.422944	0.461426	0.477368
Cu24	Cu	1.756278	0.794759	0.810701
Cu25	Cu	1.089613	0.128088	-0.144050
Cu26	Cu	1.422947	0.461422	0.189284
Cu27	Cu	1.756280	0.794755	0.522617
O28	O	1.082493	0.262330	0.121779
O29	O	1.415826	0.595664	0.455112
O30	O	1.749160	0.928997	0.788445
C31	C	0.921016	0.134532	-0.000009
C32	C	1.254349	0.467866	0.333324
C33	C	1.587682	0.801199	0.666658
C34	C	0.818635	0.132536	-0.000010
C35	C	1.151969	0.465870	0.333324
C36	C	1.485302	0.799203	0.666657
C37	C	1.096067	-0.040507	0.000006
C38	C	1.429400	0.292826	0.333339
C39	C	1.762734	0.626160	0.666673
C40	C	1.094079	-0.142889	0.000007
C41	C	1.427412	0.190445	0.333340
C42	C	1.760745	0.523778	0.666673
C43	C	0.735491	0.130915	-0.000015
C44	C	1.068825	0.464248	0.333318
C45	C	1.402158	0.797581	0.666651
C46	C	0.631182	0.128888	-0.000016
C47	C	0.964516	0.462221	0.333318
C48	C	1.297849	0.795555	0.666651
C49	C	0.548043	0.127280	-0.000016
C50	C	0.881377	0.460613	0.333318
C51	C	1.214710	0.793946	0.666651
C52	C	0.443728	0.125253	-0.000019
C53	C	0.777061	0.458586	0.333315
C54	C	1.110395	0.791920	0.666648
C55	C	1.086759	-0.517785	-0.000031
C56	C	1.420093	-0.184452	0.333302
C57	C	1.753426	0.148882	0.666635
C58	C	1.088792	-0.413477	-0.000020
C59	C	1.422125	-0.080143	0.333313
C60	C	1.755459	0.253190	0.666646
C61	C	1.090419	-0.330340	-0.000011
C62	C	1.423752	0.002993	0.333322
C63	C	1.757085	0.336327	0.666656
C64	C	1.092452	-0.226025	-0.000003
C65	C	1.425785	0.107308	0.333331
C66	C	1.759118	0.440641	0.666664
C67	C	1.258209	0.121649	-0.000009
C68	C	1.591542	0.454982	0.333324
C69	C	1.924875	0.788315	0.666657
C70	C	1.360589	0.123645	-0.000018
C71	C	1.693922	0.456978	0.333315
C72	C	2.027256	0.790311	0.666648
C73	C	1.083157	0.296688	-0.000024
C74	C	1.416491	0.630022	0.333309
C75	C	1.749824	0.963355	0.666642
C76	C	1.085146	0.399070	-0.000035
C77	C	1.418479	0.732403	0.333299
C78	C	1.751812	1.065736	0.666632
N79	N	1.089616	0.128095	0.346657
N80	N	1.422950	0.461429	0.679990
N81	N	1.756283	0.794762	1.013324
N82	N	1.089615	0.128078	-0.346672
N83	N	1.422949	0.461412	-0.013339
N84	N	1.756282	0.794745	0.319995
C85	C	1.152224	0.065529	0.423315
C86	C	1.485558	0.398862	0.756649
C87	C	1.818891	0.732195	1.089982
C88	C	1.152222	0.065518	0.576652
C89	C	1.485555	0.398851	0.909986
C90	C	1.818889	0.732184	1.243319
C91	C	1.027000	0.190648	0.576659
C92	C	1.360334	0.523982	0.909992
C93	C	1.693667	0.857315	1.243325
C94	C	1.026999	0.190654	0.423325
C95	C	1.360333	0.523987	0.756658
C96	C	1.693666	0.857321	1.089991
C97	C	1.224523	-0.006712	0.423313
C98	C	1.557856	0.326621	0.756646
C99	C	1.891190	0.659955	1.089980
C100	C	1.224521	-0.006723	0.576650
C101	C	1.557854	0.326610	0.909983
C102	C	1.891187	0.659944	1.243316
H103	H	0.976011	0.241593	0.360911
H104	H	1.309344	0.574926	0.694244
H105	H	1.642678	0.908260	1.027577
O106	O	1.313012	0.022402	0.360291
O107	O	1.646346	0.355735	0.693625
O108	O	1.979679	0.689068	1.026958
H109	H	1.359929	0.037830	0.450883
H110	H	1.693262	0.371163	0.784216
H111	H	2.026596	0.704496	1.117550
O112	O	1.318240	0.013566	0.631802
O113	O	1.651573	0.346899	0.965135
O114	O	1.984906	0.680232	1.298468
H115	H	1.372247	-0.040450	0.591228
H116	H	1.705580	0.292883	0.924561
H117	H	2.038914	0.626217	1.257895
H118	H	1.202586	-0.073556	0.624203
H119	H	1.535920	0.259777	0.957536
H120	H	1.869253	0.593111	1.290870
H121	H	0.976019	0.241581	0.639098
H122	H	1.309352	0.574915	0.972431
H123	H	1.642685	0.908248	1.305765
H124	H	1.209277	-0.077491	0.381700
H125	H	1.542610	0.255843	0.715033
H126	H	1.875944	0.589176	1.048366
