data_functionalizedCrystal
_audit_creation_method	'MofGen! by Chris Wilmer'
_symmetry_space_group_name_H-M	'P1'
_symmetry_Int_Tables_number	1
_symmetry_cell_setting	triclinic
loop_
_symmetry_equiv_pos_as_xyz
  x,y,z
_cell_length_a	27.732048
_cell_length_b	26.210047
_cell_length_c	27.732048
_cell_angle_alpha	89.975290
_cell_angle_beta	97.357345
_cell_angle_gamma	90.015477
loop_
_atom_site_label
_atom_site_type_symbol
_atom_site_fract_x
_atom_site_fract_y
_atom_site_fract_z
O1	O	0.640937	0.042369	-0.057526
O2	O	1.140937	0.542369	0.442474
O3	O	0.500144	0.042385	-0.066272
O4	O	1.000144	0.542385	0.433728
O5	O	0.574913	0.042367	0.008498
O6	O	1.074913	0.542367	0.508498
O7	O	0.566168	0.042387	-0.132296
O8	O	1.066168	0.542387	0.367704
O9	O	0.574886	-0.042491	0.008518
O10	O	1.074886	0.457509	0.508518
O11	O	0.500117	-0.042473	-0.066251
O12	O	1.000117	0.457527	0.433749
O13	O	0.640910	-0.042489	-0.057506
O14	O	1.140910	0.457511	0.442494
Cu15	Cu	0.570511	-0.050229	-0.061876
Cu16	Cu	1.070511	0.449771	0.438124
Cu17	Cu	0.570543	0.050125	-0.061901
Cu18	Cu	1.070543	0.550125	0.438099
O19	O	0.566141	-0.042471	-0.132275
O20	O	1.066141	0.457529	0.367725
C21	C	0.482124	-0.000042	-0.066078
C22	C	0.982124	0.499958	0.433922
C23	C	0.428469	-0.000036	-0.065525
C24	C	0.928469	0.499964	0.434475
N25	N	0.570492	-0.120813	-0.061859
N26	N	1.070492	0.379187	0.438141
C27	C	0.574716	-0.000064	0.026515
C28	C	1.074716	0.499936	0.526515
C29	C	0.574164	-0.000068	0.080170
C30	C	1.074164	0.499932	0.580170
C31	C	0.089654	-0.000053	-0.106229
C32	C	0.589654	0.499947	0.393771
C33	C	-0.112006	-0.000057	-0.104178
C34	C	0.387994	0.499943	0.395822
O35	O	-0.143262	-0.000074	-0.141398
O36	O	0.356738	0.499926	0.358602
N37	N	-0.131130	-0.000063	-0.059843
N38	N	0.368870	0.499937	0.440157
C39	C	-0.099835	-0.000071	-0.016017
C40	C	0.400165	0.499929	0.483983
O41	O	-0.120728	-0.000081	0.021740
O42	O	0.379272	0.499919	0.521740
C43	C	0.101824	-0.000069	-0.018068
C44	C	0.601824	0.499931	0.481932
C45	C	0.120944	-0.000059	-0.062407
C46	C	0.620944	0.499941	0.437593
C47	C	0.108775	-0.000043	-0.150563
C48	C	0.608775	0.499957	0.349437
C49	C	0.159187	-0.000039	-0.151075
C50	C	0.659187	0.499961	0.348925
C51	C	0.190477	-0.000045	-0.107253
C52	C	0.690477	0.499955	0.392747
C53	C	0.171356	-0.000055	-0.062919
C54	C	0.671356	0.499945	0.437081
C55	C	0.133117	-0.000081	0.025757
C56	C	0.633117	0.499919	0.525757
C57	C	0.183534	-0.000082	0.025240
C58	C	0.683534	0.499918	0.525240
C59	C	0.202655	-0.000071	-0.019098
C60	C	0.702655	0.499929	0.480902
C61	C	0.253059	-0.000057	-0.019609
C62	C	0.753059	0.499943	0.480391
N63	N	0.272183	-0.000051	-0.063944
N64	N	0.772183	0.499949	0.436056
C65	C	0.240892	-0.000045	-0.107766
C66	C	0.740892	0.499955	0.392234
C67	C	-0.205709	-0.000070	-0.014943
C68	C	0.294291	0.499930	0.485057
C69	C	-0.256124	-0.000070	-0.014430
C70	C	0.243876	0.499930	0.485570
C71	C	-0.268291	-0.000057	-0.102591
C72	C	0.231709	0.499943	0.397409
C73	C	-0.217876	-0.000054	-0.103103
C74	C	0.282124	0.499946	0.396897
C75	C	-0.186585	-0.000065	-0.059278
C76	C	0.313415	0.499935	0.440722
C77	C	0.346761	-0.000036	-0.108839
C78	C	0.846761	0.499964	0.391161
C79	C	0.397178	-0.000030	-0.109347
C80	C	0.897178	0.499970	0.390653
C81	C	0.409341	-0.000045	-0.021186
C82	C	0.909341	0.499955	0.478814
C83	C	0.358929	-0.000049	-0.020678
C84	C	0.858929	0.499951	0.479322
C85	C	0.327639	-0.000046	-0.064508
C86	C	0.827639	0.499954	0.435492
O87	O	0.284343	-0.000046	0.017592
O88	O	0.784343	0.499954	0.517592
O89	O	0.261794	-0.000047	-0.145518
O90	O	0.761794	0.499953	0.354482
C91	C	0.039242	-0.000057	-0.105716
C92	C	0.539242	0.499943	0.394284
C93	C	0.020120	-0.000067	-0.061382
C94	C	0.520120	0.499933	0.438618
C95	C	0.051411	-0.000073	-0.017560
C96	C	0.551411	0.499927	0.482440
C97	C	-0.030294	-0.000066	-0.060869
C98	C	0.469706	0.499934	0.439131
C99	C	-0.061585	-0.000060	-0.104691
C100	C	0.438415	0.499940	0.395309
C101	C	-0.042461	-0.000054	-0.149026
C102	C	0.457539	0.499946	0.350974
C103	C	0.007951	-0.000050	-0.149539
C104	C	0.507951	0.499950	0.350461
C105	C	0.032287	-0.000078	0.026775
C106	C	0.532287	0.499922	0.526775
C107	C	-0.018125	-0.000082	0.027284
C108	C	0.481875	0.499918	0.527284
C109	C	-0.049416	-0.000076	-0.016538
C110	C	0.450584	0.499924	0.483462
C111	C	0.658931	-0.000061	-0.057699
C112	C	1.158931	0.499939	0.442301
C113	C	0.712586	-0.000064	-0.058252
C114	C	1.212586	0.499936	0.441748
C115	C	0.541439	-0.526792	-0.032762
C116	C	1.041439	-0.026792	0.467238
C117	C	0.541418	-0.313133	-0.032750
C118	C	1.041418	0.186867	0.467250
O119	O	0.516686	-0.285524	-0.007973
O120	O	1.016686	0.214476	0.492027
N121	N	0.570510	-0.286397	-0.061865
N122	N	1.070510	0.213603	0.438135
C123	C	0.599613	-0.313079	-0.090983
C124	C	1.099613	0.186921	0.409017
O125	O	0.624361	-0.285436	-0.115743
O126	O	1.124361	0.214564	0.384257
C127	C	0.599636	-0.526737	-0.090992
C128	C	1.099636	-0.026737	0.409008
C129	C	0.570538	-0.553470	-0.061879
C130	C	1.070538	-0.053470	0.438121
C131	C	0.512344	-0.553525	-0.003651
C132	C	1.012344	-0.053525	0.496349
C133	C	0.512348	-0.606937	-0.003656
C134	C	1.012348	-0.106937	0.496344
C135	C	0.541446	-0.633615	-0.032773
C136	C	1.041446	-0.133615	0.467227
C137	C	0.570542	-0.606881	-0.061884
C138	C	1.070542	-0.106881	0.438116
C139	C	0.628741	-0.553418	-0.120107
C140	C	1.128741	-0.053418	0.379893
C141	C	0.628745	-0.606835	-0.120106
C142	C	1.128745	-0.106835	0.379894
C143	C	0.599647	-0.633569	-0.090993
C144	C	1.099647	-0.133569	0.409007
C145	C	0.599644	-0.686971	-0.091006
C146	C	1.099644	-0.186971	0.408994
N147	N	0.570552	-0.713707	-0.061891
N148	N	1.070552	-0.213707	0.438109
C149	C	0.541453	-0.687029	-0.032775
C150	C	1.041453	-0.187029	0.467225
C151	C	0.599598	-0.200906	-0.090977
C152	C	1.099598	0.299094	0.409023
C153	C	0.599591	-0.147492	-0.090976
C154	C	1.099591	0.352508	0.409024
C155	C	0.541397	-0.147549	-0.032742
C156	C	1.041397	0.352451	0.467258
C157	C	0.541401	-0.200965	-0.032746
C158	C	1.041401	0.299035	0.467254
C159	C	0.570505	-0.227642	-0.061862
C160	C	1.070505	0.272358	0.438138
C161	C	0.541462	-0.799197	-0.032788
C162	C	1.041462	-0.299197	0.467212
C163	C	0.541467	-0.852613	-0.032798
C164	C	1.041467	-0.352613	0.467202
C165	C	0.599663	-0.852550	-0.091029
C166	C	1.099663	-0.352550	0.408971
C167	C	0.599657	-0.799139	-0.091022
C168	C	1.099657	-0.299139	0.408978
C169	C	0.570555	-0.772463	-0.061898
C170	C	1.070555	-0.272463	0.438102
O171	O	0.624367	-0.714613	-0.115767
O172	O	1.124367	-0.214613	0.384233
O173	O	0.516717	-0.714681	-0.008010
O174	O	1.016717	-0.214681	0.491990
C175	C	0.541436	-0.473380	-0.032757
C176	C	1.041436	0.026620	0.467243
C177	C	0.570531	-0.446647	-0.061869
C178	C	1.070531	0.053353	0.438131
C179	C	0.599630	-0.473325	-0.090985
C180	C	1.099630	0.026675	0.409015
C181	C	0.570524	-0.393233	-0.061867
C182	C	1.070524	0.106767	0.438133
C183	C	0.541426	-0.366555	-0.032750
C184	C	1.041426	0.133445	0.467250
C185	C	0.512333	-0.393291	-0.003635
C186	C	1.012333	0.106709	0.496365
C187	C	0.512337	-0.446702	-0.003640
C188	C	1.012337	0.053298	0.496360
C189	C	0.628722	-0.446589	-0.120100
C190	C	1.128722	0.053411	0.379900
C191	C	0.628716	-0.393178	-0.120093
C192	C	1.128716	0.106822	0.379907
C193	C	0.599617	-0.366499	-0.090976
C194	C	1.099617	0.133501	0.409024
N195	N	0.570566	0.120709	-0.061914
N196	N	1.070566	0.620709	0.438086
C197	C	0.566338	-0.000040	-0.150292
C198	C	1.066338	0.499960	0.349708
C199	C	0.566891	-0.000032	-0.203947
C200	C	1.066891	0.499968	0.296053
C201	C	0.614867	-0.000046	0.418985
C202	C	1.114867	0.499954	0.918985
C203	C	0.612816	-0.000039	0.620645
C204	C	1.112816	0.499961	1.120645
O205	O	0.650037	-0.000021	0.651900
O206	O	1.150037	0.499979	1.151900
N207	N	0.568481	-0.000034	0.639768
N208	N	1.068481	0.499966	1.139768
C209	C	0.524656	-0.000028	0.608474
C210	C	1.024656	0.499972	1.108474
O211	O	0.486899	-0.000019	0.629367
O212	O	0.986899	0.499981	1.129367
C213	C	0.526707	-0.000032	0.406815
C214	C	1.026707	0.499968	0.906815
C215	C	0.571045	-0.000042	0.387694
C216	C	1.071045	0.499958	0.887694
C217	C	0.659202	-0.000056	0.399864
C218	C	1.159202	0.499944	0.899864
C219	C	0.659714	-0.000060	0.349452
C220	C	1.159714	0.499940	0.849452
C221	C	0.615892	-0.000056	0.318161
C222	C	1.115892	0.499944	0.818161
C223	C	0.571557	-0.000046	0.337282
C224	C	1.071557	0.499954	0.837282
C225	C	0.482882	-0.000022	0.375521
C226	C	0.982882	0.499978	0.875521
C227	C	0.483399	-0.000022	0.325104
C228	C	0.983399	0.499978	0.825104
C229	C	0.527737	-0.000032	0.305983
C230	C	1.027737	0.499968	0.805983
C231	C	0.528247	-0.000046	0.255580
C232	C	1.028247	0.499954	0.755580
N233	N	0.572583	-0.000051	0.236456
N234	N	1.072583	0.499949	0.736456
C235	C	0.616405	-0.000056	0.267747
C236	C	1.116405	0.499944	0.767747
C237	C	0.523582	-0.000027	0.714348
C238	C	1.023582	0.499973	1.214348
C239	C	0.523069	-0.000027	0.764762
C240	C	1.023069	0.499973	1.264762
C241	C	0.611230	-0.000037	0.776930
C242	C	1.111230	0.499963	1.276930
C243	C	0.611742	-0.000041	0.726514
C244	C	1.111742	0.499959	1.226514
C245	C	0.567917	-0.000032	0.695224
C246	C	1.067917	0.499968	1.195224
C247	C	0.617477	-0.000066	0.161878
C248	C	1.117477	0.499934	0.661878
C249	C	0.617986	-0.000073	0.111461
C250	C	1.117986	0.499927	0.611461
C251	C	0.529825	-0.000060	0.099298
C252	C	1.029825	0.499940	0.599298
C253	C	0.529316	-0.000056	0.149710
C254	C	1.029316	0.499944	0.649710
C255	C	0.573146	-0.000057	0.180999
C256	C	1.073146	0.499943	0.680999
O257	O	0.491047	-0.000059	0.224296
O258	O	0.991047	0.499941	0.724296
O259	O	0.654156	-0.000054	0.246844
O260	O	1.154156	0.499946	0.746844
C261	C	0.614355	-0.000042	0.469397
C262	C	1.114355	0.499958	0.969397
C263	C	0.570021	-0.000033	0.488518
C264	C	1.070021	0.499967	0.988518
C265	C	0.526198	-0.000028	0.457228
C266	C	1.026198	0.499972	0.957228
C267	C	0.569508	-0.000033	0.538933
C268	C	1.069508	0.499967	1.038933
C269	C	0.613330	-0.000037	0.570223
C270	C	1.113330	0.499963	1.070223
C271	C	0.657665	-0.000042	0.551100
C272	C	1.157665	0.499958	1.051100
C273	C	0.658177	-0.000046	0.500688
C274	C	1.158177	0.499954	1.000688
C275	C	0.481863	-0.000023	0.476351
C276	C	0.981863	0.499977	0.976351
C277	C	0.481355	-0.000019	0.526764
C278	C	0.981355	0.499981	1.026764
C279	C	0.525177	-0.000024	0.558054
C280	C	1.025177	0.499976	1.058054
H281	H	0.412743	-0.000021	-0.145454
H282	H	0.912743	0.499979	0.354546
Br283	Br	0.718683	-0.000062	0.442321
Br284	Br	1.218683	0.499938	0.942321
H285	H	0.653168	-0.000065	0.187348
H286	H	1.153168	0.499935	0.687348
Br287	Br	0.066317	-0.000034	-0.210045
Br288	Br	0.566317	0.499966	0.289955
Br289	Br	0.225997	-0.000098	0.084721
Br290	Br	0.725997	0.499902	0.584721
Br291	Br	0.462893	-0.000026	0.790705
Br292	Br	0.962893	0.499974	1.290705
Br293	Br	-0.163250	-0.000084	0.044540
Br294	Br	0.336750	0.499916	0.544540
Br295	Br	0.107181	-0.000084	0.085934
Br296	Br	0.607181	0.499916	0.585934
H297	H	0.343360	-0.000050	0.015426
H298	H	0.843360	0.499950	0.515426
Br299	Br	0.670702	-0.000042	0.819405
Br300	Br	1.170702	0.499958	1.319405
Br301	Br	0.501910	-0.237240	0.006766
Br302	Br	1.001910	0.262760	0.506766
H303	H	-0.202311	-0.000049	-0.139207
H304	H	0.297689	0.499951	0.360793
Br305	Br	-0.282067	-0.000069	0.045745
Br306	Br	0.217933	0.499931	0.545745
Br307	Br	0.717137	-0.000052	0.593575
Br308	Br	1.217137	0.499948	1.093575
H309	H	-0.067947	-0.000047	-0.184708
H310	H	0.432053	0.499953	0.315292
Br311	Br	0.421176	-0.000010	0.552706
Br312	Br	0.921176	0.499990	1.052706
Br313	Br	-0.044068	-0.000088	0.087463
Br314	Br	0.455932	0.499912	0.587463
Br315	Br	0.422384	-0.000015	0.433892
Br316	Br	0.922384	0.499985	0.933892
H317	H	0.487892	-0.000020	0.688875
H318	H	0.987892	0.499980	1.188875
H319	H	0.174750	-0.000030	-0.187180
H320	H	0.674750	0.499970	0.312820
Br321	Br	0.423918	-0.000008	0.282641
Br322	Br	0.923918	0.499992	0.782641
Br323	Br	0.668218	-0.482787	-0.159620
Br324	Br	1.168218	0.017213	0.340380
H325	H	0.517765	-0.777484	-0.009073
H326	H	1.017765	-0.277484	0.490927
H327	H	0.488648	-0.531809	0.020062
H328	H	0.988648	-0.031809	0.520062
H329	H	-0.293777	-0.000053	-0.138273
H330	H	0.206223	0.499947	0.361727
Br331	Br	0.472857	-0.643209	0.035858
Br332	Br	0.972857	-0.143209	0.535858
H333	H	0.517702	-0.125819	-0.009035
H334	H	1.017702	0.374181	0.490965
H335	H	0.434827	-0.000048	0.014492
H336	H	0.934827	0.499952	0.514492
Br337	Br	0.639071	-0.111217	-0.130500
Br338	Br	1.139071	0.388783	0.369500
H339	H	0.647846	-0.000048	0.710950
H340	H	1.147846	0.499952	1.210950
H341	H	0.694282	-0.000054	0.485125
H342	H	1.194282	0.499946	0.985125
Br343	Br	0.501972	-0.888891	0.006713
Br344	Br	1.001972	-0.388891	0.506713
Br345	Br	0.472839	-0.357074	0.035877
Br346	Br	0.972839	0.142926	0.535877
Br347	Br	0.639098	-0.237103	-0.130497
Br348	Br	1.139098	0.262897	0.369503
H349	H	0.446777	-0.000011	0.391080
H350	H	0.946777	0.499989	0.891080
Br351	Br	0.668248	-0.643037	-0.159620
Br352	Br	1.168248	-0.143037	0.340380
Br353	Br	0.639153	-0.762857	-0.130527
Br354	Br	1.139153	-0.262857	0.369473
H355	H	0.623354	-0.874281	-0.114737
H356	H	1.123354	-0.374281	0.385263
H357	H	0.023514	-0.000042	-0.185643
H358	H	0.523514	0.499958	0.314357
Br359	Br	0.719890	-0.000059	0.323510
Br360	Br	1.219890	0.499941	0.823510
H361	H	0.493213	-0.000062	0.165279
H362	H	0.993213	0.499938	0.665279
Br363	Br	0.668202	-0.356903	-0.159616
Br364	Br	1.168202	0.143097	0.340384
Br365	Br	0.472843	-0.482975	0.035872
Br366	Br	0.972843	0.017025	0.535872
H367	H	0.654093	-0.000082	0.095896
H368	H	1.154093	0.499918	0.595896
Br369	Br	0.470355	-0.000054	0.056822
Br370	Br	0.970355	0.499946	0.556822
H371	H	0.321291	-0.000036	-0.144529
H372	H	0.821291	0.499964	0.355471
H373	H	0.057760	-0.000085	0.062462
H374	H	0.557760	0.499915	0.562462
H375	H	0.652437	-0.531660	-0.143814
H376	H	1.152437	-0.031660	0.356186
