data_functionalizedCrystal
_audit_creation_method	'MofGen! by Chris Wilmer'
_symmetry_space_group_name_H-M	'P1'
_symmetry_Int_Tables_number	1
_symmetry_cell_setting	triclinic
loop_
_symmetry_equiv_pos_as_xyz
  x,y,z
_cell_length_a	10.654558
_cell_length_b	10.654562
_cell_length_c	9.730223
_cell_angle_alpha	89.996961
_cell_angle_beta	89.999578
_cell_angle_gamma	84.489165
loop_
_atom_site_label
_atom_site_type_symbol
_atom_site_fract_x
_atom_site_fract_y
_atom_site_fract_z
O1	O	0.176469	1.667830	-0.114377
O2	O	0.193258	1.302354	-0.114360
O3	O	0.002125	1.493490	-0.114363
O4	O	0.367602	1.476694	-0.114374
O5	O	0.002130	1.493487	0.114217
O6	O	0.193263	1.302352	0.114220
O7	O	0.176473	1.667828	0.114203
Zn8	Zn	0.184869	1.485089	0.150503
Zn9	Zn	0.184863	1.485092	-0.150661
O10	O	0.367606	1.476692	0.114206
C11	C	0.192024	1.255555	-0.000068
C12	C	0.188326	1.116112	-0.000061
C13	C	0.186604	1.050580	0.124527
C14	C	0.183139	0.919558	0.124504
C15	C	0.183124	0.919611	-0.124706
C16	C	0.186580	1.050632	-0.124682
C17	C	0.188350	1.116061	0.249148
C18	C	0.186629	1.050529	0.373746
C19	C	0.183164	0.919507	0.373723
C20	C	0.181420	0.854017	0.249102
C21	C	-0.044670	1.492253	-0.000075
C22	C	-0.184113	1.488557	-0.000079
C23	C	-0.249624	1.486817	0.124518
C24	C	-0.380647	1.483355	0.124513
C25	C	-0.380636	1.483369	-0.124697
C26	C	-0.249616	1.486839	-0.124691
C27	C	-0.184121	1.488535	0.249130
C28	C	-0.249632	1.486793	0.373737
C29	C	-0.380655	1.483331	0.373732
C30	C	-0.446167	1.481611	0.249120
C31	C	0.414402	1.477928	-0.000086
C32	C	0.553845	1.481624	-0.000091
C33	C	0.177707	1.714626	-0.000093
C34	C	0.181405	1.854069	-0.000108
N35	N	0.184873	1.485096	0.356040
N36	N	0.184849	1.485095	-0.356197
C37	C	0.100268	1.569753	0.427964
C38	C	0.100253	1.569750	0.571847
C39	C	0.269458	1.400429	0.571868
C40	C	0.269466	1.400427	0.427988
C41	C	0.015674	1.654423	0.356016
C42	C	-0.068936	1.739087	0.427941
C43	C	-0.068952	1.739084	0.571824
C44	C	0.015644	1.654416	0.643782
H45	H	0.188039	1.103861	0.475208
H46	H	0.338333	1.331497	0.630466
N47	N	0.192094	1.257375	0.249171
H48	H	0.192940	1.288916	0.347019
H49	H	0.115202	1.298342	0.200202
H50	H	0.015616	1.654412	0.760941
N51	N	-0.178861	1.488578	-0.259030
H52	H	-0.133939	1.567694	-0.264631
H53	H	-0.240242	1.486861	-0.337949
H54	H	-0.137853	1.808012	0.630383
N55	N	0.360722	1.309120	0.350410
H56	H	0.416781	1.357590	0.290710
H57	H	0.312115	1.253122	0.290797
H58	H	0.015681	1.654435	0.238859
H59	H	0.178596	0.747330	0.249094
N60	N	0.181291	0.848824	0.508101
H61	H	0.182920	0.910191	0.587046
H62	H	0.257573	0.784967	0.513515
N63	N	-0.160171	1.830389	0.350317
H64	H	-0.144880	1.919649	0.375349
H65	H	-0.249409	1.815043	0.375370
N66	N	0.181242	0.848982	-0.259111
H67	H	0.178793	0.756036	-0.240221
H68	H	0.259561	0.862404	-0.313526
N69	N	-0.451312	1.481451	0.508123
H70	H	-0.544253	1.478997	0.489216
H71	H	-0.437905	1.559771	0.562537
H72	H	0.187989	1.103988	-0.226133
N73	N	-0.042806	1.492271	0.249157
H74	H	-0.020732	1.570825	0.200244
H75	H	-0.001843	1.415339	0.200263
N76	N	-0.178985	1.488669	0.508135
H77	H	-0.086043	1.491126	0.489236
H78	H	-0.192394	1.410345	0.562552
H79	H	-0.552856	1.478802	0.249125
H80	H	-0.433986	1.481966	-0.226151
