data_functionalizedCrystal
_audit_creation_method	'MofGen! by Chris Wilmer'
_symmetry_space_group_name_H-M	'P1'
_symmetry_Int_Tables_number	1
_symmetry_cell_setting	triclinic
loop_
_symmetry_equiv_pos_as_xyz
  x,y,z
_cell_length_a	15.995355
_cell_length_b	10.723024
_cell_length_c	9.198806
_cell_angle_alpha	90.005661
_cell_angle_beta	89.996155
_cell_angle_gamma	83.981038
loop_
_atom_site_label
_atom_site_type_symbol
_atom_site_fract_x
_atom_site_fract_y
_atom_site_fract_z
O1	O	-1.111902	-0.160873	-0.120748
O2	O	-0.868241	-0.180729	-0.120781
O3	O	-0.995692	0.010847	-0.120758
O4	O	-0.984451	-0.352449	-0.120770
O5	O	-0.995692	0.010862	0.121027
O6	O	-0.868241	-0.180714	0.121004
O7	O	-1.111901	-0.160858	0.121037
Cu8	Cu	-0.990071	-0.170785	0.143098
Cu9	Cu	-0.990072	-0.170803	-0.142841
O10	O	-0.984451	-0.352434	0.121015
C11	C	-0.837042	-0.179900	0.000107
C12	C	-0.744077	-0.177436	0.000094
N13	N	-0.990072	-0.170806	-0.343955
C14	C	-0.994874	0.057343	0.000133
C15	C	-0.992426	0.195866	0.000127
C16	C	-0.573866	-0.172963	0.000115
C17	C	-0.549726	-0.034667	0.000119
C18	C	-0.453034	-0.032059	0.000677
C19	C	-0.406282	-0.168558	0.000133
C20	C	-0.435772	-0.238088	0.137927
C21	C	-0.532574	-0.239735	0.138034
C22	C	-0.532496	-0.241777	-0.136931
C23	C	-0.435973	-0.236665	-0.138733
C24	C	-0.311570	-0.166076	0.000148
C25	C	-0.668578	-0.175450	0.000109
C26	C	-0.143102	-0.161671	0.000147
C27	C	-0.236071	-0.164086	0.000154
C28	C	-0.985269	-0.398931	0.000121
C29	C	-0.987716	-0.537454	0.000117
C30	C	-1.063741	0.271757	0.000135
C31	C	-1.061213	0.414928	0.000129
C32	C	-1.043702	-0.090189	-0.416143
C33	C	-1.043705	-0.090170	-0.583555
N34	N	-0.990077	-0.170771	0.344212
H35	H	-0.433702	0.022369	-0.098079
H36	H	-1.089617	-0.021146	-0.645633
N37	N	-0.408813	-0.174872	0.274287
H38	H	-0.428083	-0.220290	0.362360
H39	H	-0.345537	-0.177120	0.275721
H40	H	-0.929500	0.236887	0.000109
N41	N	-1.104515	0.001228	-0.333848
H42	H	-1.140305	0.055031	-0.405022
H43	H	-1.141779	-0.046617	-0.270702
H44	H	-0.578408	0.018068	0.098789
N45	N	-1.142083	0.501304	0.000138
H46	H	-1.175813	0.485214	-0.089486
H47	H	-1.175745	0.485191	0.089833
N48	N	-0.551832	-0.376612	-0.138723
H49	H	-0.528653	-0.420375	-0.047848
H50	H	-0.614715	-0.379345	-0.142564
N51	N	-0.428187	0.039699	0.132293
H52	H	-0.399220	0.114245	0.099909
H53	H	-0.480112	0.069670	0.190121
N54	N	-0.929252	-0.262198	-0.573574
H55	H	-0.939401	-0.350784	-0.600005
H56	H	-0.869755	-0.247706	-0.600027
N57	N	-0.929250	-0.262221	-0.426236
H58	H	-0.961607	-0.317426	-0.489398
H59	H	-0.891945	-0.214373	-0.489296
N60	N	-0.569593	-0.184004	-0.275339
H61	H	-0.632057	-0.191033	-0.277320
H62	H	-0.559364	-0.092715	-0.279456
N63	N	-0.586429	0.036342	-0.130733
H64	H	-0.563985	-0.006848	-0.222444
H65	H	-0.649699	0.038584	-0.128661
N66	N	-0.567700	-0.176693	0.274995
H67	H	-0.520281	-0.148096	0.334731
H68	H	-0.608499	-0.101845	0.248422
N69	N	-0.552659	-0.374064	0.145815
H70	H	-0.498650	-0.431948	0.149167
H71	H	-0.586685	-0.386133	0.236268
H72	H	-0.404504	-0.338547	0.142661
H73	H	-0.417125	-0.186031	-0.240675
H74	H	-0.926662	0.397344	0.000120
H75	H	-0.403588	-0.336263	-0.147483
N76	N	-1.147100	0.217438	0.000164
H77	H	-1.137090	0.122861	0.000173
H78	H	-1.179980	0.246638	0.089809
