data_functionalizedCrystal
_audit_creation_method	'MofGen! by Chris Wilmer'
_symmetry_space_group_name_H-M	'P1'
_symmetry_Int_Tables_number	1
_symmetry_cell_setting	triclinic
loop_
_symmetry_equiv_pos_as_xyz
  x,y,z
_cell_length_a	11.169417
_cell_length_b	13.032721
_cell_length_c	11.169409
_cell_angle_alpha	97.146003
_cell_angle_beta	89.980176
_cell_angle_gamma	97.204996
loop_
_atom_site_label
_atom_site_type_symbol
_atom_site_fract_x
_atom_site_fract_y
_atom_site_fract_z
Zn1	Zn	1.774209	-0.415926	-0.739163
Zn2	Zn	1.748568	-0.590714	-0.563955
Zn3	Zn	1.573486	-0.415989	-0.538507
Zn4	Zn	1.547984	-0.590629	-0.764588
O5	O	1.661062	-0.503314	-0.651553
O6	O	1.938756	-0.439121	-0.715931
O7	O	1.725284	-0.567598	-0.392639
O8	O	1.621516	-0.269744	-0.543834
O9	O	1.919918	-0.567537	-0.587207
O10	O	1.768986	-0.269697	-0.691255
O11	O	1.596652	-0.439229	-0.373942
O12	O	1.402155	-0.439147	-0.568487
O13	O	1.578052	-0.567392	-0.929156
O14	O	1.383419	-0.567453	-0.734588
O15	O	1.744259	-0.439038	-0.910477
O16	O	1.700556	-0.736939	-0.611860
O17	O	1.553189	-0.736877	-0.759264
C18	C	1.349239	-0.503298	-0.651535
C19	C	1.215837	-0.503317	-0.651560
C20	C	1.621355	-0.774825	-0.691108
C21	C	1.604479	-0.890979	-0.708070
C22	C	1.669934	-0.942760	-0.642755
C23	C	1.652492	-1.062811	-0.660284
C24	C	1.974102	-0.503331	-0.651572
C25	C	2.107501	-0.503338	-0.651580
C26	C	1.661171	-0.503198	-0.964579
C27	C	1.661217	-0.503149	-1.097972
C28	C	1.700956	-0.230743	-0.611870
C29	C	1.717956	-0.114589	-0.594959
C30	C	1.661033	-0.503355	-0.339734
C31	C	1.661262	-0.503110	-0.206299
H32	H	1.583541	-1.107352	-0.729190
C33	C	1.763089	-0.882591	-0.549680
C34	C	1.721948	-0.807631	-0.444543
C35	C	1.815107	-0.747464	-0.351468
C36	C	1.949406	-0.762257	-0.363530
C37	C	1.990553	-0.837221	-0.468671
C38	C	1.897394	-0.897388	-0.561746
H39	H	1.622526	-0.796677	-0.435610
H40	H	1.784647	-0.691970	-0.273635
H41	H	2.018368	-0.717718	-0.294630
H42	H	2.089975	-0.848175	-0.477604
H43	H	1.927855	-0.952881	-0.639579
C44	C	1.811112	-1.054432	-0.501870
C45	C	1.769965	-0.979480	-0.396729
C46	C	1.863116	-0.919324	-0.303639
C47	C	1.997415	-0.934122	-0.315691
C48	C	2.038569	-1.009077	-0.420836
C49	C	1.945417	-1.069233	-0.513926
H50	H	1.670543	-0.968523	-0.387804
H51	H	1.832651	-0.863837	-0.225803
H52	H	2.066372	-0.889591	-0.246780
H53	H	2.137991	-1.020034	-0.429761
H54	H	1.975882	-1.124720	-0.591761
C55	C	1.511326	-0.951145	-0.801150
C56	C	1.406285	-1.026315	-0.759960
C57	C	1.313130	-1.086478	-0.853042
C58	C	1.325017	-1.071471	-0.987313
C59	C	1.430063	-0.996297	-1.028509
C60	C	1.523218	-0.936134	-0.935427
H61	H	1.397481	-1.037428	-0.660559
H62	H	1.235368	-1.142127	-0.822546
H63	H	1.256058	-1.116007	-1.056218
H64	H	1.438866	-0.985185	-1.127910
H65	H	1.600980	-0.880485	-0.965924
