data_functionalizedCrystal
_audit_creation_method	'MofGen! by Chris Wilmer'
_symmetry_space_group_name_H-M	'P1'
_symmetry_Int_Tables_number	1
_symmetry_cell_setting	triclinic
loop_
_symmetry_equiv_pos_as_xyz
  x,y,z
_cell_length_a	8.497374
_cell_length_b	12.759401
_cell_length_c	12.759399
_cell_angle_alpha	90.016641
_cell_angle_beta	89.991562
_cell_angle_gamma	89.998247
loop_
_atom_site_label
_atom_site_type_symbol
_atom_site_fract_x
_atom_site_fract_y
_atom_site_fract_z
Zn1	Zn	0.891958	-1.606064	0.418406
Zn2	Zn	0.628160	-1.606013	0.594052
Zn3	Zn	0.628185	-1.430422	0.418393
Zn4	Zn	0.891892	-1.430354	0.594048
O5	O	0.760048	-1.518213	0.506225
O6	O	0.856982	-1.753079	0.441713
O7	O	0.407401	-1.582728	0.570747
O8	O	0.663213	-1.453771	0.271373
O9	O	0.663171	-1.753041	0.570760
O10	O	0.857005	-1.582815	0.271383
O11	O	0.407419	-1.453722	0.441691
O12	O	0.663149	-1.283392	0.441686
O13	O	1.112663	-1.453655	0.570752
O14	O	0.856893	-1.283342	0.570739
O15	O	1.112711	-1.582749	0.441709
O16	O	0.663107	-1.582661	0.741073
O17	O	0.856869	-1.453605	0.741069
C18	C	0.760017	-1.245246	0.506212
C19	C	0.760041	-1.128469	0.506232
C20	C	0.760013	-1.518149	0.779192
C21	C	0.760050	-1.518217	0.895969
C22	C	0.760081	-1.792246	0.506238
C23	C	0.760095	-1.909023	0.506244
C24	C	1.171529	-1.518205	0.506226
C25	C	1.350173	-1.518208	0.506237
C26	C	0.760119	-1.518307	0.232191
C27	C	0.760149	-1.518346	0.115415
C28	C	0.860765	-1.073609	0.573532
C29	C	0.860796	-0.963885	0.573536
C30	C	0.659366	-0.963891	0.438937
C31	C	0.659344	-1.073613	0.438928
C32	C	0.659273	-1.585494	0.950797
C33	C	0.659326	-1.585561	1.060521
C34	C	0.860938	-1.451067	1.060578
C35	C	0.860891	-1.451006	0.950856
H36	H	0.942818	-0.919222	0.628337
C37	C	0.550099	-0.904141	0.365984
C38	C	0.571645	-0.796308	0.380413
C39	C	0.470999	-0.741237	0.313236
H40	H	0.573275	-0.922015	0.295375
H41	H	0.444022	-0.922047	0.381252
H42	H	0.677698	-0.778410	0.365138
H43	H	0.548458	-0.778404	0.451008
H44	H	0.364922	-0.759143	0.328504
H45	H	0.494183	-0.759119	0.242631
H46	H	0.485594	-0.668067	0.323024
C47	C	0.549805	-1.132995	0.365816
C48	C	0.461584	-1.061473	0.306902
C49	C	0.360657	-1.116137	0.239551
H50	H	0.610092	-1.175818	0.320008
H51	H	0.480872	-1.175760	0.405907
H52	H	0.530509	-1.018726	0.266814
H53	H	0.401265	-1.018648	0.352681
H54	H	0.291724	-1.158902	0.279643
H55	H	0.420956	-1.158958	0.193751
H56	H	0.300777	-1.067618	0.199577
C57	C	0.549740	-1.658584	0.891393
C58	C	0.461525	-1.717535	0.962901
C59	C	0.360622	-1.784890	0.908220
H60	H	0.480790	-1.618527	0.848642
H61	H	0.610093	-1.704360	0.848556
H62	H	0.401176	-1.671765	1.005720
H63	H	0.530433	-1.757614	1.005655
H64	H	0.420976	-1.830666	0.865383
H65	H	0.291683	-1.744824	0.865470
H66	H	0.300767	-1.824903	0.956729
H67	H	0.942964	-1.396221	0.906212
C68	C	0.970276	-1.132978	0.646632
C69	C	1.058524	-1.061443	0.705550
C70	C	1.159444	-1.116092	0.772889
H71	H	0.909982	-1.175769	0.692438
H72	H	1.039193	-1.175773	0.606533
H73	H	0.989616	-1.018666	0.745646
H74	H	1.118850	-1.018650	0.659772
H75	H	1.228360	-1.158887	0.732790
H76	H	1.099137	-1.158881	0.818688
H77	H	1.219342	-1.067564	0.812866
C78	C	0.970233	-1.378129	1.120363
C79	C	0.948673	-1.392558	1.228189
C80	C	1.049311	-1.325371	1.283292
H81	H	1.076308	-1.393366	1.102467
H82	H	0.947025	-1.307519	1.102505
H83	H	0.971891	-1.463151	1.246039
H84	H	0.842619	-1.377313	1.246115
H85	H	1.026104	-1.254762	1.265434
H86	H	1.155380	-1.340614	1.265387
H87	H	1.034687	-1.335145	1.356457
H88	H	0.577265	-1.640346	1.105158
