data_functionalizedCrystal
_audit_creation_method	'MofGen! by Chris Wilmer'
_symmetry_space_group_name_H-M	'P1'
_symmetry_Int_Tables_number	1
_symmetry_cell_setting	triclinic
loop_
_symmetry_equiv_pos_as_xyz
  x,y,z
_cell_length_a	14.044220
_cell_length_b	19.288865
_cell_length_c	17.766277
_cell_angle_alpha	90.011603
_cell_angle_beta	90.004280
_cell_angle_gamma	88.162563
loop_
_atom_site_label
_atom_site_type_symbol
_atom_site_fract_x
_atom_site_fract_y
_atom_site_fract_z
O1	O	-1.256998	-0.167413	-0.062531
O2	O	-0.981055	-0.161372	-0.062549
O3	O	-1.127000	-0.063774	-0.062525
O4	O	-1.111053	-0.265010	-0.062556
O5	O	-1.126975	-0.063767	0.062664
O6	O	-0.981029	-0.161365	0.062639
O7	O	-1.256973	-0.167406	0.062658
Cu8	Cu	-1.118999	-0.164385	0.074079
Cu9	Cu	-1.119029	-0.164393	-0.073971
O10	O	-1.111028	-0.265003	0.062633
C11	C	-1.126474	-0.037862	0.000072
C12	C	-1.124934	0.039341	0.000078
C13	C	-0.945739	-0.158724	0.000043
C14	C	-0.840547	-0.150836	0.000036
C15	C	-1.292289	-0.170054	0.000064
C16	C	-1.397481	-0.177942	0.000065
C17	C	-0.647947	-0.136416	0.000053
C18	C	-0.590075	-0.192359	0.000048
C19	C	-0.482906	-0.184335	0.000058
C20	C	-0.755126	-0.144438	0.000044
C21	C	-1.111554	-0.290916	0.000035
C22	C	-1.113094	-0.368119	0.000023
N23	N	-1.118984	-0.164379	0.178209
C24	C	-1.210568	0.078535	0.000088
C25	C	-1.209121	0.151075	0.000076
C26	C	-1.122035	0.184418	0.000069
C27	C	-1.036390	0.145215	0.000056
C28	C	-1.037839	0.072676	0.000060
C29	C	-1.053566	0.297107	0.043916
C30	C	-1.052120	0.369644	0.043916
C31	C	-1.117560	0.408151	0.000052
C32	C	-1.184463	0.374113	-0.043802
C33	C	-1.185912	0.301574	-0.043797
C34	C	-1.120453	0.263074	0.000064
C35	C	-1.201631	0.526002	0.000048
C36	C	-1.200181	0.598543	0.000031
C37	C	-1.027447	0.592681	0.000019
C38	C	-1.028900	0.520142	0.000028
C39	C	-1.115995	0.486806	0.000046
N40	N	-1.119051	-0.164394	-0.178101
C41	C	-1.183630	-0.121187	0.217607
C42	C	-1.183635	-0.121184	0.296409
C43	C	-1.119004	-0.164386	0.335810
C44	C	-1.054347	-0.207580	0.296403
C45	C	-1.054337	-0.207577	0.217602
C46	C	-1.106318	-0.226858	0.460638
C47	C	-1.106335	-0.226863	0.539437
C48	C	-1.119030	-0.164396	0.578856
C49	C	-1.131728	-0.101922	0.539467
C50	C	-1.131718	-0.101919	0.460667
C51	C	-1.119008	-0.164394	0.421256
C52	C	-1.183684	-0.121197	0.703700
C53	C	-1.183683	-0.121193	0.782503
C54	C	-1.054400	-0.207595	0.782495
C55	C	-1.054396	-0.207593	0.703694
C56	C	-1.119044	-0.164395	0.664301
H57	H	-0.617008	-0.082499	0.000066
H58	H	-0.959167	0.488229	0.000024
N59	N	-0.628879	-0.260005	0.000044
N60	N	-0.681491	-0.278041	0.052806
H61	H	-0.708900	-0.325815	0.052803
N62	N	-1.299538	0.044496	0.000104
N63	N	-1.375993	0.079506	0.000110
H64	H	-1.438830	0.055465	0.000120
H65	H	-1.278856	0.182993	0.000080
H66	H	-1.240385	0.273863	-0.079506
N67	N	-0.938481	0.626720	0.000003
N68	N	-0.880830	0.616641	-0.052772
H69	H	-0.817994	0.640683	-0.052787
H70	H	-1.237750	0.405464	-0.079520
N71	N	-1.290600	0.491956	0.000068
N72	N	-1.367056	0.526964	0.000072
H73	H	-1.429891	0.502922	0.000087
H74	H	-1.236323	-0.086017	0.814582
N75	N	-1.287668	0.638571	0.000030
N76	N	-1.365418	0.608795	0.000043
H77	H	-1.427208	0.637065	0.000042
H78	H	-0.965484	0.172367	0.000049
H79	H	-0.997640	0.397352	0.079620
N80	N	-0.986699	0.257787	0.088720
N81	N	-0.926975	0.288183	0.127872
H82	H	-0.879749	0.260415	0.159512
N83	N	-0.950353	0.032647	0.000047
N84	N	-0.872601	0.062422	0.000033
H85	H	-0.810812	0.034150	0.000024
H86	H	-1.001694	-0.242749	0.185524
H87	H	-1.236267	-0.086011	0.185536
H88	H	-1.236279	-0.086011	0.328493
H89	H	-1.142055	-0.051051	0.428600
N90	N	-1.144683	-0.038113	0.579734
N91	N	-1.144672	-0.038120	0.650091
H92	H	-1.153817	0.006944	0.678533
H93	H	-1.236322	-0.086020	0.671625
N94	N	-0.988377	-0.251714	0.822744
N95	N	-0.988388	-0.251708	0.893101
H96	H	-0.941755	-0.282865	0.921531
N97	N	-0.988356	-0.251718	0.663457
N98	N	-0.930649	-0.290285	0.698642
H99	H	-0.884002	-0.321449	0.670225
N100	N	-1.093376	-0.290682	0.579656
N101	N	-1.082033	-0.346451	0.544454
H102	H	-1.072882	-0.391525	0.572856
H103	H	-1.095964	-0.277729	0.428549
N104	N	-0.988328	-0.251701	0.336657
N105	N	-0.988346	-0.251698	0.407014
H106	H	-0.941715	-0.282857	0.435445
