data_functionalizedCrystal
_audit_creation_method	'MofGen! by Chris Wilmer'
_symmetry_space_group_name_H-M	'P1'
_symmetry_Int_Tables_number	1
_symmetry_cell_setting	triclinic
loop_
_symmetry_equiv_pos_as_xyz
  x,y,z
_cell_length_a	19.077105
_cell_length_b	12.645330
_cell_length_c	19.077314
_cell_angle_alpha	87.679807
_cell_angle_beta	89.892247
_cell_angle_gamma	87.714233
loop_
_atom_site_label
_atom_site_type_symbol
_atom_site_fract_x
_atom_site_fract_y
_atom_site_fract_z
Zn1	Zn	1.058315	-0.459569	-0.440449
Zn2	Zn	1.062966	-0.644236	-0.322950
Zn3	Zn	0.945530	-0.460154	-0.318240
Zn4	Zn	0.940789	-0.629955	-0.435703
O5	O	1.001900	-0.548479	-0.379335
O6	O	1.157264	-0.489798	-0.428819
O7	O	1.051319	-0.626039	-0.223992
O8	O	0.960529	-0.311731	-0.334466
O9	O	1.160682	-0.625472	-0.342493
O10	O	1.043391	-0.311301	-0.424253
O11	O	0.965039	-0.490795	-0.220532
O12	O	0.846569	-0.476946	-0.329865
O13	O	0.952449	-0.601131	-0.534665
O14	O	0.843086	-0.601698	-0.416165
O15	O	1.038794	-0.475949	-0.538152
O16	O	1.046722	-0.790688	-0.337892
O17	O	0.956959	-0.780195	-0.420731
C18	C	0.819331	-0.537837	-0.371989
C19	C	0.741226	-0.533309	-0.368863
C20	C	0.702741	-0.596239	-0.412256
C21	C	0.629353	-0.591971	-0.409322
C22	C	0.594453	-0.524776	-0.362991
C23	C	0.632944	-0.461838	-0.319597
C24	C	0.706330	-0.466102	-0.322535
C25	C	0.375163	-0.505042	-0.349398
C26	C	0.301772	-0.500785	-0.346461
C27	C	0.298186	-0.630916	-0.436187
C28	C	0.371574	-0.635179	-0.439118
C29	C	0.410059	-0.572237	-0.395726
N30	N	0.519439	-0.520413	-0.359990
N31	N	0.485071	-0.576595	-0.398732
C32	C	1.001849	-0.823906	-0.379324
C33	C	1.001891	-0.941737	-0.379345
C34	C	0.945638	-1.102747	-0.431635
C35	C	0.945369	-0.980182	-0.431449
C36	C	0.984824	-0.989819	-0.304486
C37	C	0.984480	-1.112377	-0.304803
C38	C	1.075566	-1.111964	-0.401325
C39	C	1.075044	-0.989229	-0.402926
C40	C	1.185182	-0.559163	-0.386711
C41	C	1.263286	-0.563716	-0.389854
C42	C	0.994574	-0.536882	-0.562618
C43	C	0.991452	-0.531940	-0.640722
C44	C	1.001970	-0.271976	-0.379364
C45	C	1.001999	-0.154147	-0.379376
C46	C	1.034903	-0.600029	-0.679220
C47	C	1.031969	-0.595372	-0.752607
C48	C	0.985581	-0.522631	-0.787495
C49	C	0.942128	-0.454535	-0.748992
C50	C	0.945065	-0.459187	-0.675606
C51	C	0.971981	-0.501163	-1.006781
C52	C	0.969046	-0.496518	-1.080172
C53	C	1.058888	-0.637355	-1.083782
C54	C	1.061819	-0.642005	-1.010394
C55	C	1.018369	-0.573905	-0.971898
N56	N	0.982579	-0.517872	-0.862508
N57	N	1.021374	-0.578659	-0.896886
C58	C	1.009238	-0.559956	-0.196768
C59	C	1.012497	-0.564607	-0.118669
H60	H	0.399985	-0.689899	-0.476843
H61	H	1.117520	-1.145792	-0.363299
Cl62	Cl	0.249802	-0.710040	-0.490732
Cl63	Cl	1.100502	-1.156074	-0.484415
H64	H	0.931272	-0.437276	-1.108575
H65	H	1.094265	-0.692796	-1.115133
Cl66	Cl	1.093219	-0.691485	-0.635368
H67	H	0.936598	-0.445715	-0.975446
H68	H	0.604522	-0.407122	-0.281877
H69	H	1.067352	-0.650818	-0.783949
Cl70	Cl	0.883813	-0.363084	-0.792852
H71	H	0.909685	-0.403739	-0.644263
Cl72	Cl	0.746608	-0.680723	-0.470499
H73	H	1.087969	-0.957533	-0.458033
Cl74	Cl	0.580974	-0.671088	-0.463875
H75	H	0.931713	-0.957107	-0.285970
H76	H	0.273358	-0.446054	-0.308738
H77	H	1.099582	-0.701254	-0.981993
H78	H	1.119009	-0.963361	-0.367872
H79	H	0.891377	-1.131241	-0.417033
Cl80	Cl	0.861071	-0.931307	-0.408637
H81	H	0.737664	-0.414851	-0.287204
Cl82	Cl	0.423534	-0.425911	-0.294850
Cl83	Cl	0.961397	-1.143931	-0.517464
Cl84	Cl	0.961318	-0.929421	-0.517005
H85	H	1.024705	-0.965501	-0.264353
H86	H	1.023912	-1.146866	-0.264377
Cl87	Cl	0.901589	-1.153357	-0.276631
