data_functionalizedCrystal
_audit_creation_method	'MofGen! by Chris Wilmer'
_symmetry_space_group_name_H-M	'P1'
_symmetry_Int_Tables_number	1
_symmetry_cell_setting	triclinic
loop_
_symmetry_equiv_pos_as_xyz
  x,y,z
_cell_length_a	15.944499
_cell_length_b	23.532357
_cell_length_c	15.021413
_cell_angle_alpha	90.004069
_cell_angle_beta	89.995782
_cell_angle_gamma	83.152950
loop_
_atom_site_label
_atom_site_type_symbol
_atom_site_fract_x
_atom_site_fract_y
_atom_site_fract_z
O1	O	1.113901	0.073307	0.074096
O2	O	0.869266	0.082394	0.074088
O3	O	0.998983	-0.005055	0.074074
O4	O	0.984185	0.160757	0.074110
O5	O	0.998998	-0.005050	-0.073990
O6	O	0.869281	0.082399	-0.073976
O7	O	1.113916	0.073313	-0.073968
Zn8	Zn	0.991601	0.077857	-0.097480
Zn9	Zn	0.991581	0.077850	0.097601
O10	O	0.984200	0.160762	-0.073954
C11	C	0.837982	0.082025	0.000054
C12	C	0.744744	0.080909	0.000050
C13	C	0.452766	0.131715	0.000075
C14	C	0.514018	0.105302	0.073074
C15	C	0.409143	0.076857	0.000070
C16	C	0.514018	0.105293	-0.072906
C17	C	0.574034	0.078851	0.000059
C18	C	0.469166	0.050429	0.073130
C19	C	0.469160	0.050428	-0.072916
C20	C	0.530394	0.023975	0.000101
C21	C	0.314152	0.075710	0.000077
C22	C	0.669023	0.079994	0.000058
C23	C	0.998620	-0.026271	0.000039
C24	C	0.997507	-0.089493	0.000031
C25	C	0.990513	-0.481534	0.080788
C26	C	0.989455	-0.540937	0.080793
O27	O	0.988872	-0.571658	0.149434
N28	N	0.988938	-0.570647	0.000085
C29	C	0.989471	-0.540950	-0.080634
O30	O	0.988934	-0.571676	-0.149283
C31	C	0.990523	-0.481547	-0.080638
C32	C	0.991048	-0.451841	0.000076
C33	C	0.991037	-0.451827	0.161496
C34	C	0.992096	-0.392428	0.161490
C35	C	0.992631	-0.362735	0.080778
C36	C	0.992107	-0.392442	0.000070
C37	C	0.991050	-0.451851	-0.161356
C38	C	0.992101	-0.392444	-0.161354
C39	C	0.992626	-0.362738	-0.080640
C40	C	0.993702	-0.303350	-0.080648
N41	N	0.994219	-0.273640	0.000061
C42	C	0.993683	-0.303333	0.080774
C43	C	0.987261	-0.665700	-0.080619
C44	C	0.986215	-0.725103	-0.080616
C45	C	0.986197	-0.725085	0.080812
C46	C	0.987249	-0.665682	0.080808
C47	C	0.987777	-0.635990	0.000089
C48	C	0.995909	-0.178590	0.080756
C49	C	0.996972	-0.119186	0.080744
C50	C	0.996985	-0.119208	-0.080684
C51	C	0.995927	-0.178608	-0.080672
C52	C	0.995386	-0.208297	0.000055
O53	O	0.994282	-0.272591	-0.149253
O54	O	0.994209	-0.272599	0.149411
C55	C	1.145200	0.073682	0.000068
C56	C	1.238439	0.074797	0.000078
C57	C	0.984562	0.181977	0.000083
C58	C	0.985675	0.245200	0.000097
N59	N	0.991621	0.077861	-0.230618
C60	C	1.051613	0.037416	-0.470284
C61	C	0.975808	0.026362	-0.529618
C62	C	0.991601	0.077854	-0.412225
C63	C	1.067388	0.088875	-0.529632
C64	C	0.991589	0.077846	-0.587649
C65	C	0.915758	0.066775	-0.470253
C66	C	1.007388	0.129310	-0.470262
C67	C	0.931528	0.118278	-0.529569
C68	C	0.991609	0.077858	-0.311168
C69	C	0.991572	0.077843	-0.688704
N70	N	0.991568	0.077841	0.230738
H71	H	0.449382	0.027246	0.134914
N72	N	1.024172	0.183891	-0.437535
N73	N	1.036789	0.222733	-0.490899
H74	H	1.048650	0.261281	-0.467785
H75	H	0.533898	0.128507	-0.134618
N76	N	0.992654	-0.362108	-0.243801
N77	N	0.993601	-0.309071	-0.243801
H78	H	0.993994	-0.287646	-0.302029
N79	N	0.410463	0.188828	0.000180
N80	N	0.421723	0.221945	0.062969
H81	H	0.391846	0.262281	0.063048
N82	N	0.997514	-0.088852	0.163203
N83	N	0.997036	-0.115375	0.235260
H84	H	0.997419	-0.093954	0.293496
N85	N	1.147799	0.100566	-0.562354
N86	N	1.212869	0.067776	-0.543355
H87	H	1.269662	0.076028	-0.566463
H88	H	0.880717	0.152474	-0.555436
H89	H	0.533908	0.128505	0.134795
N90	N	0.995353	-0.208902	0.163223
N91	N	0.995821	-0.182362	0.235272
H92	H	0.995432	-0.203769	0.293515
H93	H	0.563968	-0.021592	0.000130
N94	N	0.444190	0.021349	-0.150357
N95	N	0.458302	0.040048	-0.226101
H96	H	0.440666	0.019516	-0.280802
N97	N	0.992629	-0.362097	0.243947
N98	N	0.992147	-0.388625	0.315999
H99	H	0.992521	-0.367207	0.374239
N100	N	0.995404	-0.208963	-0.163111
N101	N	1.054027	-0.247375	-0.181121
H102	H	1.053652	-0.268810	-0.239346
N103	N	0.990484	-0.482142	0.243957
N104	N	0.990950	-0.455600	0.316004
H105	H	0.990564	-0.477006	0.374249
H106	H	1.102311	0.003199	-0.444252
N107	N	0.987789	-0.635350	0.163262
N108	N	0.987317	-0.661876	0.235317
H109	H	0.987698	-0.640457	0.293555
H110	H	0.985758	-0.749271	0.146533
H111	H	0.962444	-0.017157	-0.555692
N112	N	0.985698	-0.755436	-0.163072
N113	N	0.986180	-0.728911	-0.235127
H114	H	0.985812	-0.750331	-0.293365
H115	H	0.987694	-0.641529	-0.146354
H116	H	0.990624	-0.476028	-0.227083
N117	N	0.997540	-0.088863	-0.163118
N118	N	0.998483	-0.035826	-0.163101
H119	H	0.998871	-0.014392	-0.221321
N120	N	0.835333	0.055017	-0.437664
N121	N	0.822368	0.053104	-0.355711
H122	H	0.765569	0.044800	-0.332692
