data_functionalizedCrystal
_audit_creation_method	'MofGen! by Chris Wilmer'
_symmetry_space_group_name_H-M	'P1'
_symmetry_Int_Tables_number	1
_symmetry_cell_setting	triclinic
loop_
_symmetry_equiv_pos_as_xyz
  x,y,z
_cell_length_a	19.805405
_cell_length_b	18.101398
_cell_length_c	19.805399
_cell_angle_alpha	90.009370
_cell_angle_beta	90.029301
_cell_angle_gamma	90.021968
loop_
_atom_site_label
_atom_site_type_symbol
_atom_site_fract_x
_atom_site_fract_y
_atom_site_fract_z
Zn1	Zn	-0.269559	1.132142	0.382527
Zn2	Zn	0.230441	1.632142	0.882527
Zn3	Zn	-0.382748	1.132049	0.269336
Zn4	Zn	0.117252	1.632049	0.769336
Zn5	Zn	-0.269569	1.008302	0.269372
Zn6	Zn	0.230431	1.508302	0.769372
Zn7	Zn	-0.382703	1.008262	0.382503
Zn8	Zn	0.117297	1.508262	0.882503
O9	O	-0.326145	1.070189	0.325934
O10	O	0.173855	1.570189	0.825934
O11	O	-0.284588	1.235763	0.367507
O12	O	0.215412	1.735763	0.867507
O13	O	-0.367757	1.115612	0.174624
O14	O	0.132243	1.615612	0.674624
O15	O	-0.174851	1.024785	0.284408
O16	O	0.325149	1.524785	0.784408
O17	O	-0.367747	1.235694	0.284346
O18	O	0.132253	1.735694	0.784346
O19	O	-0.174844	1.115770	0.367543
O20	O	0.325156	1.615770	0.867543
O21	O	-0.284605	1.024695	0.174651
O22	O	0.215395	1.524695	0.674651
O23	O	-0.284562	0.904664	0.284384
O24	O	0.215438	1.404664	0.784384
O25	O	-0.367671	1.024717	0.477222
O26	O	0.132329	1.524717	0.977222
O27	O	-0.367681	0.904635	0.367500
O28	O	0.132319	1.404635	0.867500
O29	O	-0.284545	1.115732	0.477241
O30	O	0.215455	1.615732	0.977241
O31	O	-0.477458	1.115573	0.284322
O32	O	0.022542	1.615573	0.784322
O33	O	-0.477425	1.024627	0.367465
O34	O	0.022575	1.524627	0.867465
C35	C	-0.326118	0.877778	0.325944
C36	C	0.173882	1.377778	0.825944
C37	C	-0.326123	0.795464	0.325964
C38	C	0.173877	1.295464	0.825964
C39	C	-0.326163	0.496373	0.325936
C40	C	0.173837	0.996373	0.825936
C41	C	-0.378712	0.527705	0.377972
C42	C	0.121288	1.027705	0.877972
C43	C	-0.378547	0.613323	0.378186
C44	C	0.121453	1.113323	0.878186
C45	C	-0.326144	0.644756	0.325950
C46	C	0.173856	1.144756	0.825950
C47	C	-0.254853	0.613695	0.345446
C48	C	0.245147	1.113695	0.845446
C49	C	-0.255169	0.528050	0.345816
C50	C	0.244831	1.028050	0.845816
C51	C	-0.344276	0.527923	0.254278
C52	C	0.155724	1.027923	0.754278
C53	C	-0.345840	0.613573	0.254660
C54	C	0.154160	1.113573	0.754660
C55	C	-0.326128	0.728615	0.325956
C56	C	0.173872	1.228615	0.825956
C57	C	-0.326173	0.412514	0.325930
C58	C	0.173827	0.912514	0.825930
C59	C	-0.502001	1.070106	0.325902
C60	C	-0.002001	1.570106	0.825902
C61	C	-0.577233	1.070138	0.325910
C62	C	-0.077233	1.570138	0.825910
C63	C	-0.612571	1.117539	0.282663
C64	C	-0.112571	1.617539	0.782663
C65	C	-0.683260	1.117571	0.282678
C66	C	-0.183260	1.617571	0.782678
C67	C	-0.718608	1.070196	0.325937
C68	C	-0.218608	1.570196	0.825937
C69	C	-0.683264	1.022793	0.369189
C70	C	-0.183264	1.522793	0.869189
C71	C	-0.612577	1.022766	0.369177
C72	C	-0.112577	1.522766	0.869177
C73	C	-0.968338	1.022902	0.369240
C74	C	-0.468338	1.522902	0.869240
C75	C	-1.039030	1.022931	0.369247
C76	C	-0.539030	1.522931	0.869247
C77	C	-1.039020	1.117707	0.282740
C78	C	-0.539020	1.617707	0.782740
C79	C	-0.968333	1.117680	0.282728
C80	C	-0.468333	1.617680	0.782728
C81	C	-0.932996	1.070279	0.325982
C82	C	-0.432996	1.570279	0.825982
C83	C	-0.856347	1.070247	0.325966
C84	C	-0.356347	1.570247	0.825966
C85	C	-0.795255	1.070225	0.325950
C86	C	-0.295255	1.570225	0.825950
C87	C	-0.149602	1.070293	0.325982
C88	C	0.350398	1.570293	0.825982
C89	C	-0.074370	1.070337	0.326002
C90	C	0.425630	1.570337	0.826002
C91	C	-0.326102	1.070230	0.502477
C92	C	0.173898	1.570230	1.002477
C93	C	-0.326084	1.070248	0.577709
C94	C	0.173916	1.570248	1.077709
C95	C	-0.326172	1.263351	0.325925
C96	C	0.173828	1.763351	0.825925
C97	C	-0.326183	1.345665	0.325921
C98	C	0.173817	1.845665	0.825921
C99	C	-0.326138	1.070190	0.150078
C100	C	0.173862	1.570190	0.650078
C101	C	-0.325966	1.070316	0.074847
C102	C	0.174034	1.570316	0.574847
C103	C	-0.282798	1.117640	0.613064
C104	C	0.217202	1.617640	1.113064
C105	C	-0.282778	1.117648	0.683752
C106	C	0.217222	1.617648	1.183752
C107	C	-0.326049	1.070267	0.719085
C108	C	0.173951	1.570267	1.219085
C109	C	-0.369336	1.022869	0.683725
C110	C	0.130664	1.522869	1.183725
C111	C	-0.369352	1.022858	0.613038
C112	C	0.130648	1.522858	1.113038
C113	C	-0.369273	1.022911	0.968799
C114	C	0.130727	1.522911	1.468799
C115	C	-0.369256	1.022927	1.039491
C116	C	0.130744	1.522927	1.539491
C117	C	-0.282699	1.117701	1.039513
C118	C	0.217301	1.617701	1.539513
C119	C	-0.282715	1.117690	0.968826
C120	C	0.217285	1.617690	1.468826
C121	C	-0.326000	1.070290	0.933472
C122	C	0.174000	1.570290	1.433472
C123	C	-0.326020	1.070281	0.856824
C124	C	0.173980	1.570281	1.356824
C125	C	-0.326033	1.070278	0.795732
C126	C	0.173967	1.570278	1.295732
H127	H	-0.214639	0.634056	0.308727
H128	H	0.285361	1.134056	0.808727
H129	H	-0.247452	1.156293	1.068306
H130	H	0.252548	1.656293	1.568306
F131	F	-0.415341	0.972464	0.931182
F132	F	0.084659	1.472464	1.431182
F133	F	-0.415312	0.972494	1.077093
F134	F	0.084688	1.472494	1.577093
F135	F	-0.574957	1.167958	0.236615
F136	F	-0.074957	1.667958	0.736615
H137	H	-0.398300	0.633882	0.239957
H138	H	0.101700	1.133882	0.739957
F139	F	-0.202259	0.500958	0.298439
F140	F	0.297741	1.000958	0.798439
F141	F	-0.294248	0.501438	0.203599
F142	F	0.205752	1.001438	0.703599
F143	F	-0.415385	0.972439	0.721330
F144	F	0.084615	1.472439	1.221330
F145	F	-0.448038	0.500762	0.362184
F146	F	0.051962	1.000762	0.862184
F147	F	-0.236664	1.168122	0.931226
F148	F	0.263336	1.668122	1.431226
H149	H	-0.431413	0.634323	0.365967
H150	H	0.068587	1.134323	0.865967
F151	F	-0.363258	0.499575	0.446967
F152	F	0.136742	0.999575	0.946967
F153	F	-0.720867	1.168024	0.236650
F154	F	-0.220867	1.668024	0.736650
F155	F	-0.720887	0.972377	0.415233
F156	F	-0.220887	1.472377	0.915233
F157	F	-0.574968	0.972316	0.415209
F158	F	-0.074968	1.472316	0.915209
F159	F	-0.236746	1.168075	0.575467
F160	F	0.263254	1.668075	1.075467
H161	H	-0.247532	1.156241	0.712535
H162	H	0.252468	1.656241	1.212535
F163	F	-0.415421	0.972415	0.575411
F164	F	0.084579	1.472415	1.075411
F165	F	-0.234408	0.641746	0.413173
F166	F	0.265592	1.141746	0.913173
F167	F	-0.362882	0.640123	0.447583
F168	F	0.137118	1.140123	0.947583
H169	H	-0.239805	0.508087	0.398201
H170	H	0.260195	1.008087	0.898201
H171	H	-0.395372	0.506314	0.236561
H172	H	0.104628	1.006314	0.736561
F173	F	-0.930717	1.168101	0.236685
F174	F	-0.430717	1.668101	0.736685
F175	F	-1.076635	1.168159	0.236707
F176	F	-0.576635	1.668159	0.736707
F177	F	-0.299443	0.641536	0.201260
F178	F	0.200557	1.141536	0.701260
F179	F	-1.076649	0.972508	0.415293
F180	F	-0.576649	1.472508	0.915293
F181	F	-0.930738	0.972453	0.415274
F182	F	-0.430738	1.472453	0.915274
