data_functionalizedCrystal
_audit_creation_method	'MofGen! by Chris Wilmer'
_symmetry_space_group_name_H-M	'P1'
_symmetry_Int_Tables_number	1
_symmetry_cell_setting	triclinic
loop_
_symmetry_equiv_pos_as_xyz
  x,y,z
_cell_length_a	14.044220
_cell_length_b	14.044220
_cell_length_c	13.101039
_cell_angle_alpha	93.671451
_cell_angle_beta	86.328313
_cell_angle_gamma	93.188878
loop_
_atom_site_label
_atom_site_type_symbol
_atom_site_fract_x
_atom_site_fract_y
_atom_site_fract_z
O1	O	1.272352	0.234978	0.085101
O2	O	1.605686	0.568312	0.418435
O3	O	1.939019	0.901645	0.751768
O4	O	0.995679	0.226674	0.085127
O5	O	1.329013	0.560007	0.418461
O6	O	1.662346	0.893341	0.751794
O7	O	1.129863	0.092490	0.085110
O8	O	1.463197	0.425824	0.418444
O9	O	1.796530	0.759157	0.751777
O10	O	1.138169	0.369162	0.085118
O11	O	1.471502	0.702495	0.418452
O12	O	1.804835	1.035829	0.751785
O13	O	1.139494	0.082850	-0.085321
O14	O	1.472828	0.416183	0.248012
O15	O	1.806161	0.749517	0.581346
O16	O	1.005310	0.217034	-0.085304
O17	O	1.338644	0.550367	0.248030
O18	O	1.671977	0.883701	0.581363
O19	O	1.281983	0.225338	-0.085330
O20	O	1.615317	0.558672	0.248004
O21	O	1.948650	0.892005	0.581337
Zn22	Zn	1.145176	0.219656	-0.112376
Zn23	Zn	1.478509	0.552989	0.220957
Zn24	Zn	1.811843	0.886322	0.554290
Zn25	Zn	1.132487	0.232357	0.112174
Zn26	Zn	1.465820	0.565690	0.445507
Zn27	Zn	1.799153	0.899023	0.778841
O28	O	1.147800	0.359522	-0.085313
O29	O	1.481133	0.692855	0.248021
O30	O	1.814466	1.026189	0.581354
C31	C	0.964873	0.218219	-0.000085
C32	C	1.298206	0.551552	0.333249
C33	C	1.631540	0.884885	0.666582
C34	C	0.858730	0.207375	-0.000075
C35	C	1.192063	0.540708	0.333259
C36	C	1.525396	0.874041	0.666592
C37	C	1.131043	0.052048	-0.000104
C38	C	1.464376	0.385382	0.333229
C39	C	1.797710	0.718715	0.666563
C40	C	1.120198	-0.054094	-0.000100
C41	C	1.453532	0.279239	0.333233
C42	C	1.786865	0.612573	0.666567
N43	N	1.123827	0.241018	0.265424
N44	N	1.457160	0.574351	0.598757
N45	N	1.790493	0.907685	0.932090
C46	C	0.664393	0.187547	-0.000096
C47	C	0.997726	0.520880	0.333238
C48	C	1.331060	0.854214	0.666571
C49	C	0.613263	0.264461	-0.000098
C50	C	0.946597	0.597795	0.333236
C51	C	1.279930	0.931128	0.666569
C52	C	0.505128	0.253429	-0.000109
C53	C	0.838461	0.586762	0.333224
C54	C	1.171794	0.920096	0.666557
C55	C	0.772538	0.198578	-0.000084
C56	C	1.105872	0.531911	0.333249
C57	C	1.439205	0.865245	0.666583
C58	C	1.312790	0.233794	-0.000115
C59	C	1.646123	0.567127	0.333218
C60	C	1.979456	0.900461	0.666551
C61	C	1.418933	0.244638	-0.000119
C62	C	1.752266	0.577972	0.333215
C63	C	2.085599	0.911305	0.666548
C64	C	1.146620	0.399964	-0.000096
C65	C	1.479953	0.733297	0.333237
C66	C	1.813286	1.066631	0.666571
C67	C	1.157464	0.506107	-0.000093
C68	C	1.490797	0.839440	0.333240
C69	C	1.824131	1.172774	0.666573
C70	C	1.177291	0.700444	-0.000100
C71	C	1.510624	1.033778	0.333233
C72	C	1.843957	1.367111	0.666567
C73	C	1.100376	0.751574	-0.000094
C74	C	1.433709	1.084908	0.333240
C75	C	1.767043	1.418241	0.666573
C76	C	1.111408	0.859710	-0.000097
C77	C	1.444741	1.193044	0.333236
C78	C	1.778074	1.526377	0.666570
C79	C	1.166260	0.592298	-0.000096
C80	C	1.499594	0.925632	0.333237
C81	C	1.832927	1.258965	0.666570
N82	N	1.153843	0.210987	-0.265626
N83	N	1.487176	0.544321	0.067707
N84	N	1.820510	0.877654	0.401041
C85	C	1.112036	0.252801	0.474468
C86	C	1.445369	0.586135	0.807801
C87	C	1.778702	0.919468	1.141134
C88	C	1.165631	0.199207	0.525336
C89	C	1.498965	0.532540	0.858670
C90	C	1.832298	0.865874	1.192003
C91	C	1.159071	0.205763	0.641656
C92	C	1.492404	0.539097	0.974989
C93	C	1.825737	0.872430	1.308322
C94	C	1.118595	0.246246	0.358138
C95	C	1.451929	0.579579	0.691471
C96	C	1.785262	0.912913	1.024805
H97	H	0.650702	0.338595	-0.000091
H98	H	0.984035	0.671929	0.333243
H99	H	1.317369	1.005262	0.666576
C100	C	1.000228	0.701004	-0.000092
C101	C	1.333561	1.034338	0.333241
C102	C	1.666894	1.367671	0.666575
H103	H	1.005853	0.633904	-0.000101
H104	H	1.339186	0.967238	0.333233
H105	H	1.672519	1.300571	0.666566
H106	H	0.963160	0.722311	0.059339
H107	H	1.296493	1.055644	0.392673
H108	H	1.629827	1.388978	0.726006
H109	H	0.969894	0.715585	-0.059534
H110	H	1.303227	1.048918	0.273799
H111	H	1.636560	1.382252	0.607132
H112	H	0.626957	0.113419	-0.000104
H113	H	0.960290	0.446753	0.333230
H114	H	1.293623	0.780086	0.666563
H115	H	1.251419	0.737881	-0.000111
H116	H	1.584752	1.071214	0.333222
H117	H	1.918085	1.404547	0.666556
H118	H	1.216442	0.148399	0.481528
H119	H	1.549776	0.481732	0.814861
H120	H	1.883109	0.815065	1.148194
C121	C	1.043389	0.321425	0.533642
C122	C	1.376722	0.654758	0.866975
C123	C	1.710056	0.988091	1.200308
H124	H	1.047923	0.316874	0.605191
H125	H	1.381257	0.650207	0.938524
H126	H	1.714590	0.983540	1.271857
H127	H	1.060119	0.385054	0.516135
H128	H	1.393453	0.718388	0.849469
H129	H	1.726786	1.051721	1.182802
H130	H	0.979763	0.304664	0.516125
H131	H	1.313096	0.637997	0.849458
H132	H	1.646429	0.971330	1.182791
