data_functionalizedCrystal
_audit_creation_method	'MofGen! by Chris Wilmer'
_symmetry_space_group_name_H-M	'P1'
_symmetry_Int_Tables_number	1
_symmetry_cell_setting	triclinic
loop_
_symmetry_equiv_pos_as_xyz
  x,y,z
_cell_length_a	12.759401
_cell_length_b	12.594516
_cell_length_c	12.759393
_cell_angle_alpha	90.029472
_cell_angle_beta	89.981433
_cell_angle_gamma	89.974225
loop_
_atom_site_label
_atom_site_type_symbol
_atom_site_fract_x
_atom_site_fract_y
_atom_site_fract_z
Zn1	Zn	1.606168	0.423707	-0.593999
Zn2	Zn	1.606025	0.601726	-0.418325
Zn3	Zn	1.430470	0.423759	-0.418338
Zn4	Zn	1.430421	0.601640	-0.593966
O5	O	1.518271	0.512708	-0.506157
O6	O	1.753170	0.447335	-0.570703
O7	O	1.582698	0.578176	-0.271306
O8	O	1.453856	0.274806	-0.441658
O9	O	1.753065	0.578125	-0.441637
O10	O	1.582941	0.274768	-0.570716
O11	O	1.453718	0.447424	-0.271315
O12	O	1.283442	0.447341	-0.441627
O13	O	1.453774	0.577980	-0.740992
O14	O	1.283407	0.578030	-0.570661
O15	O	1.582894	0.447252	-0.741015
O16	O	1.582651	0.750660	-0.441606
O17	O	1.453636	0.750598	-0.570648
C18	C	1.245303	0.512683	-0.506142
C19	C	1.128527	0.512698	-0.506161
C20	C	1.073712	0.444724	-0.573470
C21	C	0.963988	0.444744	-0.573477
C22	C	0.963903	0.580722	-0.438862
C23	C	1.073625	0.580695	-0.438851
C24	C	1.073761	0.366222	-0.651192
C25	C	0.964037	0.366242	-0.651199
C26	C	1.518151	0.789249	-0.506145
C27	C	1.518196	0.907554	-0.506175
C28	C	1.448005	0.976812	-0.576312
C29	C	1.422393	1.047682	-0.480445
C30	C	1.543865	1.047483	-0.602057
C31	C	1.492533	0.976866	-0.410257
C32	C	1.614051	0.976661	-0.531934
C33	C	1.588475	1.047499	-0.436001
C34	C	1.792304	0.512734	-0.506172
C35	C	1.909081	0.512745	-0.506179
C36	C	1.518344	0.512601	-0.780190
C37	C	1.518376	0.512555	-0.896967
C38	C	1.518373	1.235087	-0.506190
C39	C	1.518299	1.116782	-0.506201
C40	C	1.585618	0.444479	-0.951843
C41	C	1.585643	0.444440	-1.061567
C42	C	1.451181	0.580563	-1.061530
C43	C	1.451151	0.580595	-0.951808
C44	C	1.663252	0.365892	-0.951866
C45	C	1.663277	0.365854	-1.061590
C46	C	1.518258	0.512738	-0.233190
C47	C	1.518430	0.512484	-0.116413
H48	H	0.934287	0.388424	-0.732535
C49	C	1.436533	0.723699	-1.184887
C50	C	1.377297	0.655361	-1.121811
H51	H	1.390918	0.769881	-1.222093
H52	H	1.476570	0.683149	-1.233271
H53	H	1.482273	0.764426	-1.142067
H54	H	1.331562	0.614628	-1.164632
H55	H	1.337242	0.695915	-1.073421
H56	H	1.107820	0.395837	-0.728431
C57	C	0.808493	0.265796	-0.614150
C58	C	0.918091	0.260460	-0.612133
H59	H	0.780129	0.200485	-0.590051
H60	H	0.785563	0.278659	-0.683812
H61	H	0.785458	0.321855	-0.569937
H62	H	0.941126	0.204405	-0.656352
H63	H	0.941030	0.247584	-0.542460
H64	H	1.470769	0.945974	-0.329159
C65	C	1.267483	0.970756	-0.629041
C66	C	1.367759	0.934898	-0.656264
H67	H	1.217943	0.944872	-0.678393
H68	H	1.266532	1.046166	-0.629161
H69	H	1.249964	0.945532	-0.561109
H70	H	1.385282	0.960129	-0.724193
H71	H	1.368714	0.859473	-0.656154
C72	C	1.641587	1.053309	-0.255582
C73	C	1.668664	1.089149	-0.355860
H74	H	1.691087	1.079031	-0.206106
H75	H	1.641581	0.977899	-0.254743
H76	H	1.573736	1.078708	-0.237883
H77	H	1.736513	1.063743	-0.373562
H78	H	1.668681	1.164575	-0.356702
C79	C	1.573787	1.200529	-0.710116
C80	C	1.573124	1.089361	-0.711504
H81	H	1.591838	1.226377	-0.777687
H82	H	1.623760	1.224723	-0.660392
H83	H	1.506206	1.225878	-0.691343
H84	H	1.640708	1.064012	-0.730269
H85	H	1.523150	1.065157	-0.761244
H86	H	1.103545	0.283753	-0.629535
C87	C	1.314505	1.200969	-0.450438
C88	C	1.313027	1.089802	-0.451035
H89	H	1.246987	1.226967	-0.432281
H90	H	1.333180	1.226177	-0.518056
H91	H	1.364340	1.225152	-0.400557
H92	H	1.263197	1.065619	-0.500922
H93	H	1.294338	1.064583	-0.383407
H94	H	1.118251	0.636036	-0.384032
C95	C	0.795668	0.641140	-0.379107
C96	C	0.903551	0.655469	-0.364885
H97	H	0.758413	0.687294	-0.333440
H98	H	0.777703	0.569619	-0.363848
H99	H	0.777722	0.656806	-0.449676
H100	H	0.921498	0.639795	-0.294317
H101	H	0.921523	0.727006	-0.380136
H102	H	1.695045	0.945445	-0.553746
C103	C	1.318224	0.715119	-0.962796
C104	C	1.377220	0.655410	-0.891487
H105	H	1.272582	0.761309	-0.925554
H106	H	1.278091	0.668720	-1.005603
H107	H	1.363992	0.755839	-1.005582
H108	H	1.331453	0.614684	-0.848706
H109	H	1.417356	0.701815	-0.848662
C110	C	1.521286	0.241409	-1.073637
C111	C	1.624009	0.260119	-1.107551
H112	H	1.497046	0.176132	-1.102006
H113	H	1.477205	0.297545	-1.096619
H114	H	1.519949	0.237845	-0.999283
H115	H	1.625345	0.263691	-1.181905
H116	H	1.668102	0.203969	-1.084575
H117	H	1.641500	0.283462	-0.922107
H118	H	1.740517	0.395444	-0.917831
H119	H	1.744643	0.387933	-1.091369
