data_functionalizedCrystal
_audit_creation_method	'MofGen! by Chris Wilmer'
_symmetry_space_group_name_H-M	'P1'
_symmetry_Int_Tables_number	1
_symmetry_cell_setting	triclinic
loop_
_symmetry_equiv_pos_as_xyz
  x,y,z
_cell_length_a	12.827893
_cell_length_b	16.625546
_cell_length_c	16.625539
_cell_angle_alpha	90.030397
_cell_angle_beta	90.018604
_cell_angle_gamma	90.022439
loop_
_atom_site_label
_atom_site_type_symbol
_atom_site_fract_x
_atom_site_fract_y
_atom_site_fract_z
Zn1	Zn	1.597611	-0.321001	0.455855
Zn2	Zn	2.097611	0.178999	0.955855
Zn3	Zn	1.597486	-0.455844	0.321018
Zn4	Zn	2.097486	0.044156	0.821018
Zn5	Zn	1.422855	-0.321029	0.321040
Zn6	Zn	1.922855	0.178971	0.821040
Zn7	Zn	1.422816	-0.455795	0.455812
Zn8	Zn	1.922816	0.044205	0.955812
O9	O	1.510192	-0.388417	0.388431
O10	O	2.010192	0.111583	0.888431
O11	O	1.743831	-0.338897	0.437977
O12	O	2.243831	0.161103	0.937977
O13	O	1.574284	-0.437993	0.208188
O14	O	2.074284	0.062007	0.708188
O15	O	1.446105	-0.208193	0.338952
O16	O	1.946105	0.291807	0.838952
O17	O	1.743739	-0.437965	0.338913
O18	O	2.243739	0.062035	0.838913
O19	O	1.574498	-0.208172	0.438000
O20	O	2.074498	0.291828	0.938000
O21	O	1.445983	-0.338945	0.208205
O22	O	1.945983	0.161055	0.708205
O23	O	1.276614	-0.338897	0.338910
O24	O	1.776614	0.161103	0.838910
O25	O	1.446040	-0.437882	0.568650
O26	O	1.946040	0.062118	1.068650
O27	O	1.276585	-0.437909	0.437926
O28	O	1.776585	0.062091	0.937926
O29	O	1.574461	-0.338849	0.568682
O30	O	2.074461	0.161151	1.068682
O31	O	1.574247	-0.568670	0.338871
O32	O	2.074247	-0.068670	0.838871
O33	O	1.445918	-0.568634	0.437904
O34	O	1.945918	-0.068634	0.937904
C35	C	1.238682	-0.388402	0.388416
C36	C	1.738682	0.111598	0.888416
C37	C	1.122529	-0.388414	0.388429
C38	C	1.622529	0.111586	0.888429
C39	C	1.070758	-0.437485	0.437349
C40	C	1.570758	0.062515	0.937349
C41	C	0.950708	-0.437500	0.437363
C42	C	1.450708	0.062500	0.937363
C43	C	1.510093	-0.597908	0.388398
C44	C	2.010093	-0.097908	0.888398
C45	C	1.510146	-0.687529	0.388410
C46	C	2.010146	-0.187529	0.888410
C47	C	1.510329	-1.015705	0.388494
C48	C	2.010329	-0.515705	0.888494
C49	C	1.510275	-0.924396	0.388473
C50	C	2.010275	-0.424396	0.888473
C51	C	1.510237	-0.851620	0.388452
C52	C	2.010237	-0.351620	0.888452
C53	C	1.510184	-0.760306	0.388431
C54	C	2.010184	-0.260306	0.888431
C55	C	1.782762	-0.388433	0.388447
C56	C	2.282762	0.111567	0.888447
C57	C	1.898915	-0.388440	0.388454
C58	C	2.398915	0.111560	0.888454
C59	C	1.510260	-0.388357	0.598740
C60	C	2.010260	0.111643	1.098740
C61	C	1.510289	-0.388332	0.688362
C62	C	2.010289	0.111668	1.188362
C63	C	1.510320	-0.178108	0.388483
C64	C	2.010320	0.321892	0.888483
C65	C	1.510374	-0.088487	0.388505
C66	C	2.010374	0.411513	0.888505
C67	C	1.510185	-0.388419	0.178941
C68	C	2.010185	0.111581	0.678941
C69	C	1.510358	-0.388217	0.089320
C70	C	2.010358	0.111783	0.589320
C71	C	1.510337	-0.388241	1.016537
C72	C	2.010337	0.111759	1.516537
C73	C	1.510321	-0.388269	0.925229
C74	C	2.010321	0.111731	1.425229
C75	C	1.510314	-0.388287	0.852452
C76	C	2.010314	0.111713	1.352452
C77	C	1.510296	-0.388313	0.761138
C78	C	2.010296	0.111687	1.261138
H79	H	1.115312	-0.479483	0.479225
H80	H	1.615312	0.020517	0.979225
O81	O	0.897441	-0.487546	0.487307
O82	O	1.397441	0.012454	0.987307
C83	C	0.729218	-0.533250	0.532799
C84	C	1.229218	-0.033250	1.032799
C85	C	0.789414	-0.476517	0.476209
C86	C	1.289414	0.023483	0.976209
H87	H	0.641868	-0.524364	0.523834
H88	H	1.141868	-0.024364	1.023834
H89	H	0.750581	-0.519183	0.597871
H90	H	1.250581	-0.019183	1.097871
H91	H	0.750652	-0.598251	0.518545
H92	H	1.250652	-0.098251	1.018545
H93	H	0.768013	-0.411496	0.490390
H94	H	1.268013	0.088504	0.990390
H95	H	0.768046	-0.490653	0.411154
H96	H	1.268046	0.009347	0.911154
H97	H	1.077975	-0.346410	0.346560
H98	H	1.577975	0.153590	0.846560
O99	O	0.951968	-0.338403	0.338366
O100	O	1.451968	0.161597	0.838366
C101	C	0.985446	-0.299080	0.201303
C102	C	1.485446	0.200920	0.701303
C103	C	0.925308	-0.355808	0.257935
C104	C	1.425308	0.144192	0.757935
H105	H	0.963897	-0.313120	0.136264
H106	H	1.463897	0.186880	0.636264
H107	H	1.072816	-0.308004	0.210124
H108	H	1.572816	0.191996	0.710124
H109	H	0.964092	-0.234074	0.215608
H110	H	1.464092	0.265926	0.715608
H111	H	0.946574	-0.420836	0.243665
H112	H	1.446574	0.079164	0.743665
H113	H	0.837952	-0.346815	0.249104
H114	H	1.337952	0.153185	0.749104
