data_functionalizedCrystal
_audit_creation_method	'MofGen! by Chris Wilmer'
_symmetry_space_group_name_H-M	'P1'
_symmetry_Int_Tables_number	1
_symmetry_cell_setting	triclinic
loop_
_symmetry_equiv_pos_as_xyz
  x,y,z
_cell_length_a	15.944499
_cell_length_b	14.853567
_cell_length_c	13.330367
_cell_angle_alpha	90.000844
_cell_angle_beta	89.989856
_cell_angle_gamma	96.443730
loop_
_atom_site_label
_atom_site_type_symbol
_atom_site_fract_x
_atom_site_fract_y
_atom_site_fract_z
O1	O	1.114684	-0.116051	-0.083475
O2	O	1.614684	0.383949	0.416525
O3	O	0.870145	-0.130435	-0.083463
O4	O	1.370145	0.369565	0.416537
O5	O	0.998947	0.007997	-0.083472
O6	O	1.498947	0.507997	0.416528
O7	O	0.985883	-0.254482	-0.083466
O8	O	1.485883	0.245518	0.416534
O9	O	0.998928	0.008000	0.083375
O10	O	1.498928	0.508000	0.583375
O11	O	0.870126	-0.130432	0.083384
O12	O	1.370126	0.369568	0.583384
O13	O	1.114666	-0.116048	0.083372
O14	O	1.614666	0.383952	0.583372
Cu15	Cu	0.992394	-0.123239	0.098613
Cu16	Cu	1.492394	0.376761	0.598613
Cu17	Cu	0.992416	-0.123243	-0.098703
Cu18	Cu	1.492416	0.376757	0.401297
O19	O	0.985864	-0.254479	0.083382
O20	O	1.485864	0.245521	0.583382
C21	C	0.838840	-0.129844	-0.000038
C22	C	1.338840	0.370156	0.499962
C23	C	0.745590	-0.128079	-0.000034
C24	C	1.245590	0.371921	0.499966
N25	N	0.992385	-0.123236	0.237394
N26	N	1.492385	0.376764	0.737394
C27	C	0.998345	0.041586	-0.000052
C28	C	1.498345	0.541586	0.499948
C29	C	0.996571	0.141667	-0.000060
C30	C	1.496571	0.641667	0.499940
C31	C	0.454143	-0.208504	-0.000046
C32	C	0.954143	0.291496	0.499954
C33	C	0.515135	-0.166698	-0.082314
C34	C	1.015135	0.333302	0.417686
C35	C	0.409946	-0.121664	-0.000057
C36	C	0.909946	0.378336	0.499943
C37	C	0.515103	-0.166672	0.082184
C38	C	1.015103	0.333328	0.582184
C39	C	0.574858	-0.124821	-0.000044
C40	C	1.074858	0.375179	0.499956
C41	C	0.469710	-0.079835	-0.082392
C42	C	0.969710	0.420165	0.417608
C43	C	0.469671	-0.079821	0.082180
C44	C	0.969671	0.420179	0.582180
C45	C	0.530645	-0.037952	-0.000107
C46	C	1.030645	0.462048	0.499893
C47	C	0.314944	-0.119849	-0.000065
C48	C	0.814944	0.380151	0.499935
C49	C	0.669859	-0.126630	-0.000043
C50	C	1.169859	0.373370	0.499957
C51	C	1.145970	-0.116638	-0.000055
C52	C	1.645970	0.383362	0.499945
C53	C	1.239221	-0.118404	-0.000066
C54	C	1.739221	0.381596	0.499934
C55	C	0.986465	-0.288068	-0.000041
C56	C	1.486465	0.211932	0.499959
C57	C	0.988239	-0.388149	-0.000039
C58	C	1.488239	0.111851	0.499961
C59	C	0.912562	0.554076	-0.000037
C60	C	1.412562	1.054076	0.499963
C61	C	1.065582	0.575584	-0.000045
C62	C	1.565582	1.075584	0.499955
C63	C	1.067249	0.481553	-0.000051
C64	C	1.567249	0.981553	0.499949
C65	C	0.991572	0.423779	-0.000048
C66	C	1.491572	0.923779	0.499952
C67	C	0.914228	0.460036	-0.000040
C68	C	1.414228	0.960036	0.499960
C69	C	1.144593	0.445289	-0.000049
C70	C	1.644593	0.945289	0.499951
C71	C	1.146264	0.351252	-0.000054
C72	C	1.646264	0.851252	0.499946
C73	C	1.070586	0.293476	-0.000059
C74	C	1.570586	0.793476	0.499941
C75	C	0.993238	0.329739	-0.000051
C76	C	1.493238	0.829739	0.499949
C77	C	0.917561	0.271965	-0.000049
C78	C	1.417561	0.771965	0.499951
C79	C	0.840212	0.308225	-0.000049
C80	C	1.340212	0.808225	0.499951
C81	C	0.838550	0.402260	-0.000045
C82	C	1.338550	0.902260	0.499955
C83	C	1.072248	0.199441	-0.000063
C84	C	1.572248	0.699441	0.499937
C85	C	0.919227	0.177924	-0.000052
C86	C	1.419227	0.677924	0.499948
N87	N	0.992432	-0.123239	-0.237485
N88	N	1.492432	0.376761	0.262515
C89	C	0.935380	-0.184516	0.710021
C90	C	1.435380	0.315484	1.210021
C91	C	1.049475	-0.061963	0.709981
C92	C	1.549475	0.438037	1.209981
C93	C	1.049465	-0.061960	0.604962
C94	C	1.549465	0.438040	1.104962
C95	C	0.992413	-0.123237	0.552469
C96	C	1.492413	0.376763	1.052469
C97	C	0.935371	-0.184517	0.604993
C98	C	1.435371	0.315483	1.104993
C99	C	1.106512	-0.000687	0.552430
C100	C	1.606512	0.499313	1.052430
C101	C	1.106506	-0.000682	0.447405
C102	C	1.606506	0.499318	0.947405
C103	C	1.049449	-0.061956	0.394910
C104	C	1.549449	0.438044	0.894910
C105	C	0.992404	-0.123238	0.447441
C106	C	1.492404	0.376762	0.947441
C107	C	0.935352	-0.184515	0.394947
C108	C	1.435352	0.315485	0.894947
C109	C	0.878302	-0.245794	0.447476
C110	C	1.378302	0.254206	0.947476
C111	C	0.878314	-0.245791	0.552497
C112	C	1.378314	0.254209	1.052497
C113	C	1.049437	-0.061959	0.289888
C114	C	1.549437	0.438041	0.789888
C115	C	0.935342	-0.184516	0.289919
C116	C	1.435342	0.315484	0.789919
H117	H	0.420894	-0.280572	-0.000124
H118	H	0.920894	0.219428	0.499876
H119	H	1.095890	-0.012071	0.247124
H120	H	1.595890	0.487929	0.747124
C121	C	0.542360	-0.216325	-0.176261
C122	C	1.042360	0.283675	0.323739
N123	N	0.562866	-0.253712	-0.247015
N124	N	1.062866	0.246288	0.252985
H125	H	0.449698	-0.043141	-0.152021
H126	H	0.949698	0.456859	0.347979
C127	C	0.815547	-0.313198	0.389719
C128	C	1.315547	0.186802	0.889719
N129	N	0.768281	-0.363964	0.346212
N130	N	1.268281	0.136036	0.846212
C131	C	1.227831	0.508845	-0.000044
C132	C	1.727831	1.008845	0.499956
N133	N	1.290530	0.556720	-0.000042
N134	N	1.790530	1.056720	0.499958
C135	C	0.872622	-0.251913	0.767803
C136	C	1.372622	0.248087	1.267803
N137	N	0.825351	-0.302675	0.811326
N138	N	1.325351	0.197325	1.311326
C139	C	0.542266	-0.216308	0.176143
C140	C	1.042266	0.283692	0.676143
N141	N	0.562721	-0.253699	0.246909
N142	N	1.062721	0.246301	0.746909
C143	C	0.756970	0.244662	-0.000046
C144	C	1.256970	0.744662	0.499954
N145	N	0.694275	0.196783	-0.000046
N146	N	1.194275	0.696783	0.499954
C147	C	0.575367	0.059492	-0.000172
C148	C	1.075367	0.559492	0.499828
N149	N	0.609053	0.132886	-0.000225
N150	N	1.109053	0.632886	0.499775
H151	H	0.449505	-0.043120	0.151731
H152	H	0.949505	0.456880	0.651731
C153	C	0.835974	0.114379	-0.000052
C154	C	1.335974	0.614379	0.499948
N155	N	0.773267	0.066518	-0.000052
N156	N	1.273267	0.566518	0.499948
C157	C	0.753474	0.442155	-0.000024
C158	C	1.253474	0.942155	0.499976
N159	N	0.689395	0.472207	0.000001
N160	N	1.189395	0.972207	0.500001
H161	H	0.849586	0.583604	-0.000041
H162	H	1.349586	1.083604	0.499959
C163	C	1.231348	0.311374	-0.000061
C164	C	1.731348	0.811374	0.499939
N165	N	1.295435	0.281337	-0.000071
N166	N	1.795435	0.781337	0.499929
C167	C	1.148821	0.639138	-0.000042
C168	C	1.648821	1.139138	0.499958
N169	N	1.211521	0.687011	-0.000042
N170	N	1.711521	1.187011	0.499958
C171	C	1.157327	0.159558	-0.000062
C172	C	1.657327	0.659558	0.499938
N173	N	1.221412	0.129520	-0.000065
N174	N	1.721412	0.629520	0.499935
H175	H	1.095929	-0.012076	0.752725
H176	H	1.595929	0.487924	1.252725
H177	H	0.888880	-0.234413	0.247184
H178	H	1.388880	0.265587	0.747184
H179	H	0.831867	-0.295682	0.595273
H180	H	1.331867	0.204318	1.095273
H181	H	1.152967	0.049199	0.595174
H182	H	1.652967	0.549199	1.095174
H183	H	1.152958	0.049214	0.404643
H184	H	1.652958	0.549214	0.904643
