data_functionalizedCrystal
_audit_creation_method	'MofGen! by Chris Wilmer'
_symmetry_space_group_name_H-M	'P1'
_symmetry_Int_Tables_number	1
_symmetry_cell_setting	triclinic
loop_
_symmetry_equiv_pos_as_xyz
  x,y,z
_cell_length_a	14.971486
_cell_length_b	15.995350
_cell_length_c	13.448316
_cell_angle_alpha	89.995627
_cell_angle_beta	89.998199
_cell_angle_gamma	83.553252
loop_
_atom_site_label
_atom_site_type_symbol
_atom_site_fract_x
_atom_site_fract_y
_atom_site_fract_z
O1	O	1.186823	0.109116	-0.082572
O2	O	0.926408	0.122183	-0.082599
O3	O	1.063734	-0.006231	-0.082584
O4	O	1.049497	0.237530	-0.082587
O5	O	1.063717	-0.006239	0.082800
O6	O	0.926390	0.122175	0.082785
O7	O	1.186805	0.109109	0.082811
Cu8	Cu	1.056596	0.115641	0.097899
Cu9	Cu	1.056617	0.115651	-0.097687
O10	O	1.049479	0.237523	0.082796
C11	C	0.893075	0.121595	0.000090
C12	C	0.793780	0.119844	0.000079
C13	C	0.736468	0.195284	0.000080
C14	C	0.643171	0.193633	0.000095
C15	C	0.607187	0.116542	0.000102
C16	C	0.664505	0.041097	0.000104
C17	C	0.757801	0.042748	0.000097
C18	C	0.470047	0.037660	0.000118
C19	C	0.376745	0.036008	0.000124
C20	C	0.355417	0.188545	0.000116
C21	C	0.448712	0.190197	0.000108
C22	C	0.506025	0.114751	0.000109
C23	C	1.063137	-0.037430	0.000106
C24	C	1.061372	-0.130382	0.000100
C25	C	1.055035	-0.468136	0.000103
C26	C	0.957234	-0.420800	-0.000278
C27	C	0.958999	-0.324108	0.000095
C28	C	1.058178	-0.300572	0.000101
C29	C	1.106407	-0.341606	0.094546
C30	C	1.103951	-0.438244	0.094625
C31	C	1.105990	-0.438591	-0.093447
C32	C	1.105967	-0.341646	-0.094695
C33	C	1.059960	-0.205873	0.000103
C34	C	1.053256	-0.562835	0.000107
C35	C	1.220138	0.109697	0.000121
C36	C	1.319433	0.111448	0.000124
C37	C	1.050077	0.268722	0.000104
C38	C	1.051841	0.361674	0.000104
N39	N	1.056589	0.115634	0.235463
N40	N	1.056632	0.115651	-0.235251
C41	C	1.117415	0.058796	0.287510
C42	C	1.117421	0.058795	0.391613
C43	C	1.056603	0.115637	0.443668
C44	C	0.995770	0.172478	0.391614
C45	C	0.995761	0.172474	0.287512
C46	C	0.995795	0.172484	0.608594
C47	C	0.995805	0.172489	0.712702
C48	C	1.117455	0.058805	0.712695
C49	C	1.117446	0.058801	0.608594
C50	C	1.056613	0.115643	0.556546
H51	H	0.478007	0.252971	0.000093
H52	H	1.166944	0.012512	0.245134
H53	H	0.347450	-0.026766	0.000131
N54	N	0.816359	-0.034304	0.000082
N55	N	0.899657	-0.032820	0.000075
H56	H	0.941015	-0.087240	0.000067
N57	N	0.911434	-0.288503	-0.084838
N58	N	0.876698	-0.335059	-0.144803
H59	H	0.843098	-0.309917	-0.204788
H60	H	0.946255	0.218769	0.566220
N61	N	0.908213	-0.444090	-0.085252
N62	N	0.944779	-0.495851	-0.146524
H63	H	0.910160	-0.512303	-0.206542
H64	H	1.166972	0.012520	0.566211
N65	N	1.065893	-0.464373	-0.183261
N66	N	1.097473	-0.446425	-0.265598
H67	H	1.069146	-0.464631	-0.329026
N68	N	1.061836	-0.307418	-0.182362
N69	N	1.089690	-0.331935	-0.266208
H70	H	1.058530	-0.307749	-0.328123
N71	N	1.179557	0.000727	0.444762
N72	N	1.233856	-0.050018	0.398274
H73	H	1.277742	-0.091033	0.435809
N74	N	0.528579	-0.039413	0.000132
N75	N	0.496441	-0.108240	0.000140
H76	H	0.537779	-0.162672	0.000148
H77	H	1.178099	-0.470280	-0.094077
N78	N	1.196694	-0.322264	-0.101847
N79	N	1.227749	-0.277670	-0.036901
H80	H	1.291826	-0.263977	-0.041948
N81	N	1.194026	-0.478605	0.100038
N82	N	1.242570	-0.465341	0.172686
H83	H	1.306185	-0.493842	0.176518
H84	H	1.166986	0.012522	0.755078
N85	N	0.933632	0.230528	0.444785
N86	N	0.878123	0.203873	0.502886
H87	H	0.834237	0.244871	0.540439
N88	N	0.908410	-0.445439	0.084204
N89	N	0.945329	-0.497710	0.144693
H90	H	0.910850	-0.515114	0.204360
H91	H	0.946280	0.218775	0.755080
H92	H	0.946228	0.218757	0.245137
H93	H	0.596511	0.255064	0.000094
N94	N	0.773206	0.274039	0.000063
N95	N	0.722020	0.341390	0.000065
H96	H	0.747963	0.397014	0.000056
H97	H	0.308748	0.249976	0.000120
H98	H	0.920818	-0.296284	0.067905
N99	N	0.627751	-0.037651	0.000133
N100	N	0.578075	-0.055591	0.069852
H101	H	0.552118	-0.111209	0.069872
H102	H	1.068767	-0.456584	0.165220
H103	H	1.179272	-0.327407	0.098063
H104	H	1.072896	-0.313261	0.164825
