data_functionalizedCrystal
_audit_creation_method	'MofGen! by Chris Wilmer'
_symmetry_space_group_name_H-M	'P1'
_symmetry_Int_Tables_number	1
_symmetry_cell_setting	triclinic
loop_
_symmetry_equiv_pos_as_xyz
  x,y,z
_cell_length_a	19.188905
_cell_length_b	19.188925
_cell_length_c	9.130313
_cell_angle_alpha	89.999117
_cell_angle_beta	89.992651
_cell_angle_gamma	83.138552
loop_
_atom_site_label
_atom_site_type_symbol
_atom_site_fract_x
_atom_site_fract_y
_atom_site_fract_z
O1	O	0.926150	0.087082	-0.122040
O2	O	0.722836	0.098834	-0.121989
O3	O	0.830362	-0.008699	-0.122008
O4	O	0.818624	0.194614	-0.122021
O5	O	0.830361	-0.008696	0.121591
O6	O	0.722835	0.098837	0.121610
O7	O	0.926149	0.087084	0.121559
Cu8	Cu	0.824492	0.092961	0.143827
Cu9	Cu	0.824493	0.092958	-0.144257
O10	O	0.818623	0.194617	0.121578
C11	C	0.696824	0.098458	-0.000183
C12	C	0.619319	0.097324	-0.000164
C13	C	0.829982	-0.034708	-0.000209
C14	C	0.828843	-0.112213	-0.000212
C15	C	0.884308	-0.673988	-0.000263
C16	C	0.885384	-0.601165	-0.000249
C17	C	0.822291	-0.556225	-0.000234
C18	C	0.758117	-0.584113	-0.000195
C19	C	0.757043	-0.656935	-0.000193
N20	N	0.776615	-0.435541	-0.083138
N21	N	0.777640	-0.366364	-0.083142
C22	C	0.825525	-0.336816	-0.000236
N23	N	0.872357	-0.379060	0.082657
N24	N	0.871334	-0.448244	0.082655
C25	C	0.823450	-0.477261	-0.000235
C26	C	0.890863	-0.229973	-0.000251
C27	C	0.891937	-0.157148	-0.000229
C28	C	0.764668	-0.140097	-0.000189
C29	C	0.763596	-0.212921	-0.000197
C30	C	0.826695	-0.257855	-0.000235
C31	C	0.582928	0.096778	-0.132954
C32	C	0.510104	0.095705	-0.132972
C33	C	0.473676	0.095164	-0.000193
C34	C	0.510076	0.095714	0.132614
C35	C	0.582897	0.096794	0.132629
N36	N	0.364656	0.053736	0.098624
N37	N	0.295479	0.052709	0.098602
C38	C	0.254270	0.091911	-0.000228
N39	N	0.284852	0.132171	-0.099057
N40	N	0.354035	0.133196	-0.099038
C41	C	0.394714	0.093993	-0.000194
C42	C	0.138915	0.090203	-0.133046
C43	C	0.066089	0.089134	-0.133059
C44	C	0.066063	0.089136	0.132531
C45	C	0.138886	0.090212	0.132540
C46	C	0.175308	0.090742	-0.000253
C47	C	0.952161	0.087461	-0.000250
C48	C	1.029666	0.088594	-0.000279
C49	C	0.819003	0.220627	-0.000224
C50	C	0.820142	0.298131	-0.000231
N51	N	0.824496	0.092963	0.346450
N52	N	0.824495	0.092950	-0.346880
C53	C	0.872120	0.045363	0.423093
C54	C	0.872119	0.045355	0.576430
C55	C	0.776865	0.140552	0.576466
C56	C	0.776864	0.140556	0.423132
C57	C	0.927116	-0.009596	0.423074
C58	C	0.927114	-0.009604	0.576411
H59	H	0.937637	-0.578460	-0.000275
N60	N	0.958920	-0.278435	-0.000264
H61	H	0.961310	-0.309031	0.090036
H62	H	0.961275	-0.308982	-0.090628
N63	N	0.994005	0.012126	0.360038
H64	H	0.982576	0.055488	0.297768
H65	H	1.026293	0.022582	0.442441
N66	N	0.622215	0.097363	-0.276167
H67	H	0.658232	0.054540	-0.282077
H68	H	0.588063	0.096882	-0.360216
H69	H	0.480469	0.095261	-0.241108
N70	N	0.690067	-0.535645	-0.000195
H71	H	0.649254	-0.564360	-0.000176
H72	H	0.687742	-0.505057	0.090107
N73	N	0.725498	0.191891	0.340452
H74	H	0.694674	0.165284	0.276842
H75	H	0.695373	0.222030	0.412384
N76	N	0.694383	-0.242989	-0.000163
H77	H	0.666748	-0.226588	-0.090454
H78	H	0.703329	-0.295936	-0.000105
N79	N	0.952362	-0.722452	-0.000274
H80	H	0.954755	-0.753048	-0.090574
H81	H	0.993134	-0.693686	-0.000232
H82	H	0.910747	-0.060122	0.623966
N83	N	0.687833	-0.687011	-0.000148
H84	H	0.648025	-0.647494	-0.000128
H85	H	0.684610	-0.716853	-0.090451
N86	N	0.725492	0.191881	0.659173
H87	H	0.732716	0.184655	0.767941
H88	H	0.733399	0.241395	0.632379
N89	N	0.912165	-0.080498	0.367935
H90	H	0.905488	-0.112142	0.453927
H91	H	0.868103	-0.074701	0.306451
N92	N	0.961147	-0.127073	-0.000246
H93	H	1.000954	-0.166591	-0.000271
H94	H	0.964361	-0.097226	-0.090548
N95	N	0.998003	0.005401	0.631528
H96	H	1.008037	0.052824	0.594698
H97	H	0.997982	0.005361	0.742144
H98	H	0.480411	0.095275	0.240724
H99	H	0.036404	0.088700	0.240642
H100	H	0.713296	-0.103508	-0.000164
N101	N	0.622152	0.097386	0.275857
H102	H	0.588028	0.096884	0.359974
H103	H	0.658166	0.054560	0.281654
H104	H	0.168570	0.090642	-0.241174
H105	H	0.168517	0.090652	0.240672
N106	N	0.026835	0.088540	-0.276288
H107	H	-0.009177	0.131365	-0.282230
H108	H	0.061008	0.089011	-0.360319
