data_functionalizedCrystal
_audit_creation_method	'MofGen! by Chris Wilmer'
_symmetry_space_group_name_H-M	'P1'
_symmetry_Int_Tables_number	1
_symmetry_cell_setting	triclinic
loop_
_symmetry_equiv_pos_as_xyz
  x,y,z
_cell_length_a	16.120484
_cell_length_b	12.759395
_cell_length_c	12.759387
_cell_angle_alpha	89.980605
_cell_angle_beta	92.863576
_cell_angle_gamma	92.926846
loop_
_atom_site_label
_atom_site_type_symbol
_atom_site_fract_x
_atom_site_fract_y
_atom_site_fract_z
Zn1	Zn	-0.331830	1.584987	-0.615136
Zn2	Zn	-0.471266	1.575935	-0.448349
Zn3	Zn	-0.331875	1.409282	-0.439479
Zn4	Zn	-0.471207	1.400339	-0.623987
O5	O	-0.401544	1.492636	-0.531738
O6	O	-0.350332	1.730807	-0.593019
O7	O	-0.452819	1.553783	-0.300154
O8	O	-0.215204	1.440121	-0.455364
O9	O	-0.452776	1.724156	-0.470481
O10	O	-0.215170	1.569211	-0.584418
O11	O	-0.350409	1.431344	-0.293637
O12	O	-0.350352	1.261075	-0.463947
O13	O	-0.452674	1.424878	-0.769832
O14	O	-0.452718	1.254504	-0.599504
O15	O	-0.350275	1.560538	-0.763328
O16	O	-0.587924	1.545111	-0.479064
O17	O	-0.587880	1.416101	-0.608105
C18	C	-0.618152	1.478681	-0.545530
C19	C	-0.710817	1.472808	-0.551466
C20	C	-0.401534	1.219669	-0.531724
C21	C	-0.401550	1.102891	-0.531745
C22	C	-0.401463	1.492720	-0.805766
C23	C	-0.401428	1.492756	-0.922541
C24	C	-0.880479	1.462090	-0.562325
C25	C	-0.921770	1.523370	-0.501168
C26	C	-1.016175	1.517406	-0.507210
C27	C	-0.786065	1.468052	-0.556284
C28	C	-0.184091	1.506673	-0.517914
C29	C	-0.091426	1.512655	-0.512024
C30	C	-0.401556	1.766668	-0.531752
C31	C	-0.401560	1.883445	-0.531758
C32	C	-0.294868	2.109814	-0.659334
C33	C	-0.241533	2.058415	-0.723137
C34	C	-0.241539	1.948693	-0.723150
C35	C	-0.294884	1.890368	-0.659351
C36	C	-0.348219	1.941767	-0.595548
C37	C	-0.348209	2.051492	-0.595544
C38	C	-0.454895	1.934844	-0.467955
C39	C	-0.454895	2.044566	-0.467946
C40	C	-0.508240	1.876519	-0.404155
C41	C	-0.561581	1.927918	-0.340356
C42	C	-0.561573	2.037647	-0.340347
C43	C	-0.508230	2.095966	-0.404142
C44	C	-0.294806	1.634028	-0.915789
C45	C	-0.241483	1.704679	-0.967273
C46	C	-0.241452	1.704707	-1.076993
C47	C	-0.294749	1.634073	-1.135231
C48	C	-0.348073	1.563422	-1.083747
C49	C	-0.348099	1.563404	-0.974025
C50	C	-0.454689	1.422147	-1.090498
C51	C	-0.454725	1.422123	-0.980779
C52	C	-0.507986	1.351513	-1.148737
C53	C	-0.561315	1.280866	-1.097253
C54	C	-0.561344	1.280842	-0.987526
C55	C	-0.508048	1.351472	-0.929295
C56	C	-0.401566	1.492616	-0.258772
C57	C	-0.401366	1.492798	-0.141983
H58	H	-0.886219	1.580310	-0.444273
H59	H	-0.916026	1.405152	-0.619214
C60	C	-0.182872	1.892147	-0.793333
C61	C	-0.124193	1.956291	-0.863507
C62	C	-0.065527	1.899744	-0.933689
C63	C	-0.065538	1.779053	-0.933697
C64	C	-0.124219	1.714902	-0.863521
C65	C	-0.182886	1.771449	-0.793339
H66	H	-0.124183	2.045640	-0.863503
H67	H	-0.022087	1.947234	-0.985638
H68	H	-0.022110	1.737194	-0.985650
H69	H	-0.124230	1.625554	-0.863525
H70	H	-0.226325	1.723959	-0.741389
C71	C	-0.182853	2.122578	-0.793307
C72	C	-0.218942	2.195725	-0.878080
C73	C	-0.160259	2.259886	-0.948244
C74	C	-0.065487	2.250900	-0.933634
C75	C	-0.029394	2.177750	-0.848857
C76	C	-0.088076	2.113589	-0.778694
H77	H	-0.289102	2.202379	-0.888899
H78	H	-0.186979	2.314036	-1.011001
H79	H	-0.022047	2.298396	-0.985573
H80	H	0.040767	2.171096	-0.838039
H81	H	-0.061357	2.059439	-0.715936
H82	H	-0.294854	2.199156	-0.659325
H83	H	-0.604757	1.223298	-0.945614
C84	C	-0.182799	1.782424	-1.133633
C85	C	-0.124174	1.860116	-1.069584
C86	C	-0.065522	1.937833	-1.126224
C87	C	-0.065494	1.937857	-1.246912
C88	C	-0.124121	1.860161	-1.310968
C89	C	-0.182774	1.782445	-1.254328
H90	H	-0.124193	1.860101	-0.980237
H91	H	-0.022122	1.995348	-1.078805
H92	H	-0.022077	1.995387	-1.288840
H93	H	-0.124103	1.860177	-1.400315
H94	H	-0.226173	1.724930	-1.301747
C95	C	-0.620255	1.863762	-0.270184
C96	C	-0.620257	1.743072	-0.270190
C97	C	-0.678934	1.678911	-0.200018
C98	C	-0.737607	1.735440	-0.129840
C99	C	-0.737607	1.856137	-0.129832
C100	C	-0.678931	1.920298	-0.200004
H101	H	-0.576822	1.701220	-0.322142
H102	H	-0.678934	1.589563	-0.200025
H103	H	-0.781043	1.687945	-0.077895
H104	H	-0.781043	1.897990	-0.077880
H105	H	-0.678931	2.009646	-0.199997
C106	C	-0.620244	2.094183	-0.270160
C107	C	-0.613477	2.079480	-0.150295
C108	C	-0.672148	2.136011	-0.080107
C109	C	-0.737586	2.207247	-0.129783
C110	C	-0.744355	2.221953	-0.249655
C111	C	-0.685684	2.165422	-0.319843
H112	H	-0.565034	2.026744	-0.113516
H113	H	-0.667137	2.125124	0.008630
H114	H	-0.781018	2.249095	-0.077826
H115	H	-0.792798	2.274689	-0.286434
H116	H	-0.690695	2.176309	-0.408579
H117	H	-0.294878	1.801027	-0.659359
H118	H	-0.508214	2.185308	-0.404135
H119	H	-0.508239	1.787178	-0.404168
H120	H	-0.294833	1.634022	-0.826450
H121	H	-0.198088	1.762186	-0.919844
H122	H	-0.294713	1.634094	-1.224570
H123	H	-0.507954	1.351537	-1.238076
H124	H	-0.604700	1.223356	-1.144678
H125	H	-0.508070	1.351463	-0.839955
