data_functionalizedCrystal
_audit_creation_method	'MofGen! by Chris Wilmer'
_symmetry_space_group_name_H-M	'P1'
_symmetry_Int_Tables_number	1
_symmetry_cell_setting	triclinic
loop_
_symmetry_equiv_pos_as_xyz
  x,y,z
_cell_length_a	10.723022
_cell_length_b	14.519709
_cell_length_c	9.198806
_cell_angle_alpha	90.011869
_cell_angle_beta	89.996339
_cell_angle_gamma	95.926314
loop_
_atom_site_label
_atom_site_type_symbol
_atom_site_fract_x
_atom_site_fract_y
_atom_site_fract_z
O1	O	1.655979	-0.129341	-0.120913
O2	O	2.155979	0.370659	0.379087
O3	O	1.292711	-0.141723	-0.120921
O4	O	1.792711	0.358277	0.379079
O5	O	1.483977	-0.001343	-0.120876
O6	O	1.983977	0.498657	0.379124
O7	O	1.464714	-0.269721	-0.120958
O8	O	1.964714	0.230279	0.379042
O9	O	1.483962	-0.001342	0.120909
O10	O	1.983962	0.498658	0.620909
O11	O	1.292696	-0.141722	0.120864
O12	O	1.792696	0.358278	0.620864
O13	O	1.655964	-0.129340	0.120872
O14	O	2.155964	0.370660	0.620872
Cu15	Cu	1.474329	-0.135531	0.142945
Cu16	Cu	1.974329	0.364469	0.642945
Cu17	Cu	1.474347	-0.135532	-0.142994
Cu18	Cu	1.974347	0.364468	0.357006
O19	O	1.464699	-0.269720	0.120827
O20	O	1.964699	0.230280	0.620827
C21	C	1.246212	-0.140822	-0.000029
C22	C	1.746212	0.359178	0.499971
C23	C	1.107683	-0.138127	-0.000030
C24	C	1.607683	0.361873	0.499970
C25	C	1.059879	-0.057174	-0.000006
C26	C	1.559879	0.442826	0.499994
C27	C	0.916702	-0.054387	-0.000007
C28	C	1.416702	0.445613	0.499993
C29	C	1.483071	0.033022	0.000024
C30	C	1.983071	0.533022	0.500024
C31	C	1.480381	0.135417	0.000045
C32	C	1.980381	0.635417	0.500045
C33	C	1.470477	0.510363	0.000085
C34	C	1.970477	1.010363	0.500085
C35	C	1.473228	0.406041	0.000074
C36	C	1.973228	0.906041	0.500074
C37	C	1.475429	0.322894	0.000067
C38	C	1.975429	0.822894	0.500067
C39	C	1.478180	0.218565	0.000053
C40	C	1.978180	0.718565	0.500053
C41	C	1.702463	-0.130241	-0.000023
C42	C	2.202463	0.369759	0.499977
C43	C	1.840992	-0.132936	-0.000032
C44	C	2.340992	0.367064	0.499968
C45	C	1.465604	0.695915	-0.000024
C46	C	1.965604	1.195915	0.499976
C47	C	1.468294	0.593520	0.000099
C48	C	1.968294	1.093520	0.500099
N49	N	1.474325	-0.135529	0.344059
N50	N	1.974325	0.364471	0.844059
N51	N	1.474360	-0.135526	-0.344108
N52	N	1.974360	0.364474	0.155892
C53	C	1.546590	-0.189006	0.416241
C54	C	2.046590	0.310994	0.916241
C55	C	1.546609	-0.189005	0.583654
C56	C	2.046609	0.310995	1.083654
H57	H	0.875538	0.014924	-0.000023
H58	H	1.375538	0.514924	0.499977
O59	O	1.146058	0.031904	0.000017
O60	O	1.646058	0.531904	0.500017
H61	H	1.128178	0.072657	0.098573
H62	H	1.628178	0.572657	0.598573
H63	H	1.412482	-0.089745	0.593826
H64	H	1.912482	0.410255	1.093826
H65	H	1.608449	-0.234786	0.354099
H66	H	2.108449	0.265214	0.854099
H67	H	1.412474	-0.089743	0.406201
H68	H	1.912474	0.410257	0.906201
H69	H	1.608471	-0.234793	0.645729
H70	H	2.108471	0.265207	1.145729
H71	H	0.882147	-0.202251	-0.000044
H72	H	1.382147	0.297749	0.499956
H73	H	1.042612	-0.205370	-0.000057
H74	H	1.542612	0.294630	0.499943
