data_functionalizedCrystal
_audit_creation_method	'MofGen! by Chris Wilmer'
_symmetry_space_group_name_H-M	'P1'
_symmetry_Int_Tables_number	1
_symmetry_cell_setting	triclinic
loop_
_symmetry_equiv_pos_as_xyz
  x,y,z
_cell_length_a	10.268362
_cell_length_b	19.288864
_cell_length_c	19.288865
_cell_angle_alpha	83.136245
_cell_angle_beta	90.010511
_cell_angle_gamma	90.018431
loop_
_atom_site_label
_atom_site_type_symbol
_atom_site_fract_x
_atom_site_fract_y
_atom_site_fract_z
O1	O	-0.108733	-0.921348	-0.086648
O2	O	0.391267	-0.421348	0.413352
O3	O	-0.108646	-0.719088	-0.098337
O4	O	0.391354	-0.219088	0.401663
O5	O	-0.108666	-0.826062	0.008638
O6	O	0.391334	-0.326062	0.508638
O7	O	-0.108712	-0.814374	-0.193623
O8	O	0.391288	-0.314374	0.306377
O9	O	0.107935	-0.826053	0.008642
O10	O	0.607935	-0.326053	0.508642
O11	O	0.107955	-0.719078	-0.098333
O12	O	0.607955	-0.219078	0.401667
O13	O	0.107868	-0.921339	-0.086644
O14	O	0.607868	-0.421339	0.413356
Cu15	Cu	0.127689	-0.820208	-0.092488
Cu16	Cu	0.627689	-0.320208	0.407512
Cu17	Cu	-0.128467	-0.820219	-0.092493
Cu18	Cu	0.371533	-0.320219	0.407507
O19	O	0.107888	-0.814364	-0.193619
O20	O	0.607888	-0.314364	0.306381
C21	C	-0.000334	-0.693207	-0.097959
C22	C	0.499666	-0.193207	0.402041
C23	C	-0.000299	-0.616103	-0.096830
C24	C	0.499701	-0.116103	0.403170
N25	N	0.307855	-0.820205	-0.092484
N26	N	0.807855	-0.320205	0.407516
N27	N	-0.308632	-0.820227	-0.092492
N28	N	0.191368	-0.320227	0.407508
C29	C	0.573525	-0.820215	-0.092492
C30	C	1.073525	-0.320215	0.407508
C31	C	0.425687	-0.820207	-0.092489
C32	C	0.925687	-0.320207	0.407511
C33	C	-0.000362	-0.825682	0.034516
C34	C	0.499638	-0.325682	0.534516
C35	C	-0.000350	-0.824553	0.111620
C36	C	0.499650	-0.324553	0.611620
C37	C	-0.000447	-0.947220	-0.087022
C38	C	0.499553	-0.447220	0.412978
C39	C	-0.000490	-1.024324	-0.088151
C40	C	0.499510	-0.524324	0.411849
C41	C	-0.000334	-0.571407	-0.159598
C42	C	0.499666	-0.071407	0.340402
C43	C	-0.000349	-0.498960	-0.158537
C44	C	0.499651	0.001040	0.341463
C45	C	-0.000354	-0.471212	-0.094705
C46	C	0.499646	0.028788	0.405295
C47	C	-0.000312	-0.515918	-0.031929
C48	C	0.499688	-0.015918	0.468071
C49	C	-0.000284	-0.588364	-0.032991
C50	C	0.499716	-0.088364	0.467009
C51	C	-0.076271	-0.362953	-0.044527
C52	C	0.423729	0.137047	0.455473
C53	C	-0.076306	-0.290509	-0.043467
C54	C	0.423694	0.209491	0.456533
C55	C	-0.000432	-0.247767	-0.091425
C56	C	0.499568	0.252233	0.408575
C57	C	0.075461	-0.277476	-0.140455
C58	C	0.575461	0.222524	0.359545
C59	C	0.075488	-0.349921	-0.141517
C60	C	0.575488	0.150079	0.358483
C61	C	-0.000383	-0.392658	-0.093546
C62	C	0.499617	0.107342	0.406454
C63	C	-0.000480	-0.124514	-0.153047
C64	C	0.499520	0.375486	0.346953
C65	C	-0.000486	-0.052066	-0.151984
C66	C	0.499514	0.447934	0.348016
C67	C	-0.000463	-0.069026	-0.025374
C68	C	0.499537	0.430974	0.474626
C69	C	-0.000443	-0.141473	-0.026439
C70	C	0.499557	0.358527	0.473561
C71	C	-0.000459	-0.169212	-0.090278
C72	C	0.499541	0.330788	0.409722
C73	C	-0.000419	-0.814745	-0.219497
C74	C	0.499581	-0.314745	0.280503
C75	C	-0.000440	-0.815874	-0.296601
C76	C	0.499560	-0.315874	0.203399
C77	C	-0.000370	-0.887321	0.156316
C78	C	0.499630	-0.387321	0.656316
C79	C	-0.000390	-0.886260	0.228763
C80	C	0.499610	-0.386260	0.728763
C81	C	-0.000364	-0.822428	0.256511
C82	C	0.499636	-0.322428	0.756511
C83	C	-0.000350	-0.759652	0.211805
C84	C	0.499650	-0.259652	0.711805
C85	C	-0.000343	-0.760714	0.139359
C86	C	0.499657	-0.260714	0.639359
C87	C	0.075528	-0.772245	0.364800
C88	C	0.575528	-0.272245	0.864800
C89	C	0.075529	-0.771185	0.437244
C90	C	0.575529	-0.271185	0.937244
C91	C	-0.000391	-0.819148	0.479956
C92	C	0.499609	-0.319148	0.979956
C93	C	-0.076296	-0.868183	0.450217
C94	C	0.423704	-0.368183	0.950217
C95	C	-0.076289	-0.869245	0.377771
C96	C	0.423711	-0.369245	0.877771
C97	C	-0.000372	-0.821269	0.335065
C98	C	0.499628	-0.321269	0.835065
C99	C	-0.000436	-0.880770	0.603209
C100	C	0.499564	-0.380770	1.103209
C101	C	-0.000464	-0.879707	0.675657
C102	C	0.499536	-0.379707	1.175657
C103	C	-0.000411	-0.753097	0.658697
C104	C	0.499589	-0.253097	1.158697
C105	C	-0.000396	-0.754162	0.586250
C106	C	0.499604	-0.254162	1.086250
C107	C	-0.000402	-0.818000	0.558511
C108	C	0.499598	-0.318000	1.058511
H109	H	-0.000349	-0.593987	-0.211580
H110	H	0.499651	-0.093987	0.288420
Cl111	Cl	-0.171717	-0.930881	0.340386
Cl112	Cl	0.328283	-0.430881	0.840386
H113	H	-0.000507	-0.015674	-0.203099
H114	H	0.499493	0.484326	0.296901
H115	H	-0.000334	-0.493322	0.020044
H116	H	0.499666	0.006678	0.520044
Cl117	Cl	-0.000317	-0.681799	0.083166
Cl118	Cl	0.499683	-0.181799	0.583166
Cl119	Cl	-0.000454	-0.034151	0.054873
Cl120	Cl	0.499546	0.465849	0.554873
H121	H	-0.000422	-0.177866	0.024674
H122	H	0.499578	0.322134	0.524674
H123	H	0.137328	-0.731255	0.461452
H124	H	0.637328	-0.231255	0.961452
Cl125	Cl	-0.171749	-0.928483	0.503904
Cl126	Cl	0.328251	-0.428483	1.003904
Cl127	Cl	0.170985	-0.711944	0.311112
Cl128	Cl	0.670985	-0.211944	0.811112
Cl129	Cl	-0.000436	-0.961023	0.568333
Cl130	Cl	0.499564	-0.461023	1.068333
Cl131	Cl	0.170852	-0.223751	-0.200749
Cl132	Cl	0.670852	0.276249	0.299251
Cl133	Cl	-0.000486	-0.159390	-0.233300
Cl134	Cl	0.499514	0.340610	0.266700
Cl135	Cl	-0.171726	-0.253166	0.018162
Cl136	Cl	0.328274	0.246834	0.518162
Cl137	Cl	-0.171665	-0.416680	0.015769
Cl138	Cl	0.328335	0.083320	0.515769
H139	H	-0.000373	-0.462561	-0.209652
H140	H	0.499627	0.037439	0.290348
Cl141	Cl	-0.000415	-0.967575	0.121448
Cl142	Cl	0.499585	-0.467575	0.621448
Cl143	Cl	-0.000417	-0.965174	0.284963
Cl144	Cl	0.499583	-0.465174	0.784963
H145	H	-0.000488	-0.930822	0.712049
H146	H	0.499512	-0.430822	1.212049
H147	H	-0.000396	-0.701123	0.681288
H148	H	0.499604	-0.201123	1.181288
H149	H	-0.000257	-0.624756	0.018124
H150	H	0.499743	-0.124756	0.518124
H151	H	0.137286	-0.374108	-0.181436
H152	H	0.637286	0.125892	0.318564
H153	H	-0.000372	-0.703049	0.549857
H154	H	0.499628	-0.203049	1.049857
H155	H	-0.000332	-0.707679	0.234401
H156	H	0.499668	-0.207679	0.734401
