data_functionalizedCrystal
_audit_creation_method	'MofGen! by Chris Wilmer'
_symmetry_space_group_name_H-M	'P1'
_symmetry_Int_Tables_number	1
_symmetry_cell_setting	triclinic
loop_
_symmetry_equiv_pos_as_xyz
  x,y,z
_cell_length_a	6.817900
_cell_length_b	12.000032
_cell_length_c	10.992410
_cell_angle_alpha	88.749610
_cell_angle_beta	108.764651
_cell_angle_gamma	119.142083
loop_
_atom_site_label
_atom_site_type_symbol
_atom_site_fract_x
_atom_site_fract_y
_atom_site_fract_z
V1	V	-4.174781	-0.176866	-0.402760
O2	O	-4.069467	0.008499	-0.392863
O3	O	-4.211853	-0.350695	-0.402149
O4	O	-4.151442	-0.174145	-0.577439
O5	O	-4.130296	-0.169273	-0.216360
V6	V	-4.644086	-0.154694	-0.380204
O7	O	-4.467226	-0.225501	-0.452236
O8	O	-4.801837	-0.106058	-0.330727
O9	O	-4.383807	0.019135	-0.380815
O10	O	-4.866796	-0.340059	-0.390100
O11	O	-4.805967	-0.162287	-0.566604
O12	O	-4.444218	-0.157414	-0.205525
C13	C	-4.076836	-0.393071	-0.396348
C14	C	-4.188600	-0.535178	-0.397014
C15	C	-4.061379	-0.592348	-0.391141
C16	C	-4.176890	-0.739224	-0.391828
C17	C	-3.999773	-0.167862	-0.619946
C18	C	-4.062540	-0.166788	-0.762761
C19	C	-3.926313	-0.157001	-0.957765
C20	C	-3.861327	-0.158648	-0.809302
C21	C	-4.303694	-0.292830	-0.841409
C22	C	-4.367626	-0.291716	-0.989962
C23	C	-4.161861	-0.047652	-0.948941
C24	C	-4.090948	-0.047055	-0.799921
C25	C	-4.182169	0.061504	-0.386612
C26	C	-4.049645	0.203611	-0.385955
C27	C	-4.259230	-0.163701	-0.163011
C28	C	-4.175698	-0.164769	-0.020194
H29	H	-4.383027	-0.594967	-0.402537
N30	N	-3.858915	0.076448	-0.729052
H31	H	-3.888555	0.127117	-0.672102
H32	H	-3.796922	0.129936	-0.794530
H33	H	-3.866941	-0.532556	-0.385597
N34	N	-3.792081	-0.717223	-0.378618
H35	H	-3.694704	-0.649117	-0.297905
H36	H	-3.786120	-0.674031	-0.458298
H37	H	-3.930176	-0.241150	-1.006788
H38	H	-4.232554	-0.045574	-0.767391
H39	H	-4.382414	-0.380394	-1.037319
N40	N	-4.401007	-0.053707	-1.003107
H41	H	-4.517791	-0.131889	-1.073452
H42	H	-4.379012	0.027218	-1.041030
H43	H	-4.371325	-0.799008	-0.397352
H44	H	-4.288357	-0.381727	-0.816893
H45	H	-3.681853	-0.068018	-0.754851
N46	N	-3.824153	-0.271624	-0.777792
H47	H	-3.849993	-0.320557	-0.860405
H48	H	-3.942549	-0.331069	-0.736972
H49	H	-4.553379	-0.302676	-1.032728
N50	N	-3.982165	0.079136	-0.974355
H51	H	-3.817942	0.088079	-0.941347
H52	H	-3.976368	0.152883	-0.927739
N53	N	-3.729676	-0.036134	-0.981227
H54	H	-3.800334	0.014762	-1.032555
H55	H	-3.652708	-0.060858	-1.031865
H56	H	-4.457666	-0.303339	-0.812735
