data_functionalizedCrystal
_audit_creation_method	'MofGen! by Chris Wilmer'
_symmetry_space_group_name_H-M	'P1'
_symmetry_Int_Tables_number	1
_symmetry_cell_setting	triclinic
loop_
_symmetry_equiv_pos_as_xyz
  x,y,z
_cell_length_a	13.262390
_cell_length_b	14.472311
_cell_length_c	13.339070
_cell_angle_alpha	90.006936
_cell_angle_beta	99.429367
_cell_angle_gamma	105.921399
loop_
_atom_site_label
_atom_site_type_symbol
_atom_site_fract_x
_atom_site_fract_y
_atom_site_fract_z
O1	O	1.432438	0.436840	0.136471
O2	O	1.131167	0.361126	0.151297
O3	O	1.247226	0.390291	-0.003526
O4	O	1.316379	0.407676	0.291294
O5	O	1.247209	0.236605	-0.003545
O6	O	1.131150	0.207440	0.151278
O7	O	1.432421	0.283154	0.136452
Cu8	Cu	1.281784	0.231264	0.143863
Cu9	Cu	1.281804	0.413016	0.143886
O10	O	1.316362	0.253989	0.291275
C11	C	1.091811	0.274394	0.150455
C12	C	0.974566	0.244929	0.147963
N13	N	1.281778	0.103432	0.143846
C14	C	0.644111	0.496980	0.140966
C15	C	0.754269	0.524666	0.143303
C16	C	0.809348	0.454734	0.144468
C17	C	0.754260	0.357112	0.143296
C18	C	0.644091	0.329423	0.140951
C19	C	0.809328	0.287177	0.144453
C20	C	0.754240	0.189554	0.143281
C21	C	0.644081	0.161870	0.140937
C22	C	0.589002	0.231802	0.139771
C23	C	0.919497	0.314865	0.146798
C24	C	0.919477	0.147308	0.146783
C25	C	0.809319	0.119622	0.144446
C26	C	1.281803	-0.270653	0.143879
C27	C	1.344265	-0.215762	0.061315
C28	C	1.343950	-0.108753	0.061009
C29	C	1.281791	-0.085065	0.143862
C30	C	1.165426	-0.153201	0.120316
C31	C	1.165768	-0.260237	0.119732
C32	C	1.334789	-0.217840	0.250229
C33	C	1.337071	-0.110138	0.249528
C34	C	1.281778	0.019820	0.143855
C35	C	1.281808	-0.375540	0.143884
C36	C	1.471777	0.369888	0.137294
C37	C	1.589022	0.399360	0.139786
C38	C	1.235537	0.310513	-0.041274
C39	C	1.200718	0.301767	-0.153723
N40	N	1.281816	0.540850	0.143895
C41	C	1.471451	0.369806	-0.517369
C42	C	1.504168	0.378019	-0.411718
C43	C	1.428308	0.358957	-0.347214
C44	C	1.319726	0.331679	-0.388372
C45	C	1.287005	0.323457	-0.494034
C46	C	1.243862	0.312609	-0.323879
C47	C	1.135280	0.285331	-0.365036
C48	C	1.102565	0.277111	-0.470688
C49	C	1.178425	0.296173	-0.535192
C50	C	1.276583	0.320831	-0.218217
C51	C	1.092137	0.274483	-0.194881
C52	C	1.059420	0.266269	-0.300533
C53	C	1.328051	0.333769	0.329023
C54	C	1.362870	0.342522	0.441473
H55	H	0.964340	0.394350	0.147755
H56	H	0.899044	0.477282	0.146372
H57	H	0.764451	0.040136	0.143491
H58	H	1.014150	0.254893	-0.504195
H59	H	1.454953	0.365646	-0.261189
H60	H	1.151791	0.289491	-0.621223
H61	H	1.307553	-0.251920	-0.017151
H62	H	1.592576	0.400228	-0.378215
H63	H	1.296888	-0.093475	0.313881
H64	H	1.533204	0.385315	-0.569897
H65	H	0.799113	0.604150	0.144252
H66	H	1.306903	-0.092448	-0.017905
H67	H	1.422830	-0.063166	0.267384
H68	H	1.289602	-0.254547	0.311677
H69	H	1.364991	0.343040	-0.184717
H70	H	0.971010	0.244058	-0.334059
H71	H	0.964322	0.090363	0.147731
H72	H	1.429456	-0.060969	0.075098
H73	H	1.123773	-0.295787	0.042157
H74	H	0.599254	0.553908	0.140007
H75	H	0.599229	0.082379	0.139964
H76	H	0.499303	0.209265	0.137872
H77	H	1.116302	-0.298596	0.177557
H78	H	1.116543	-0.140025	0.178831
H79	H	1.429979	-0.219975	0.075184
H80	H	1.123211	-0.136992	0.043622
H81	H	1.419493	-0.223561	0.272745
H82	H	1.030366	0.258956	-0.142362
