data_functionalizedCrystal
_audit_creation_method	'MofGen! by Chris Wilmer'
_symmetry_space_group_name_H-M	'P1'
_symmetry_Int_Tables_number	1
_symmetry_cell_setting	triclinic
loop_
_symmetry_equiv_pos_as_xyz
  x,y,z
_cell_length_a	11.792254
_cell_length_b	15.995292
_cell_length_c	10.868271
_cell_angle_alpha	89.998057
_cell_angle_beta	89.995741
_cell_angle_gamma	83.833607
loop_
_atom_site_label
_atom_site_type_symbol
_atom_site_fract_x
_atom_site_fract_y
_atom_site_fract_z
O1	O	1.505910	0.114817	-0.102312
O2	O	2.005910	0.614817	0.397688
O3	O	1.175469	0.126633	-0.102314
O4	O	1.675469	0.626633	0.397686
O5	O	1.349756	-0.001124	-0.102315
O6	O	1.849756	0.498876	0.397685
O7	O	1.331622	0.242575	-0.102311
O8	O	1.831622	0.742575	0.397689
O9	O	1.349742	-0.001129	0.102330
O10	O	1.849742	0.498871	0.602330
O11	O	1.175454	0.126628	0.102331
O12	O	1.675454	0.626628	0.602331
O13	O	1.505895	0.114812	0.102333
O14	O	2.005895	0.614812	0.602333
Zn15	Zn	1.340673	0.120719	0.134824
Zn16	Zn	1.840673	0.620719	0.634824
Zn17	Zn	1.340691	0.120726	-0.134804
Zn18	Zn	1.840691	0.620726	0.365196
O19	O	1.331608	0.242570	0.102334
O20	O	1.831608	0.742570	0.602334
C21	C	1.133177	0.125887	0.000008
C22	C	1.633177	0.625887	0.500008
C23	C	1.007183	0.123658	0.000007
C24	C	1.507183	0.623658	0.500007
C25	C	0.904862	0.121848	0.000002
C26	C	1.404862	0.621848	0.500002
C27	C	0.776495	0.119585	0.000001
C28	C	1.276495	0.619585	0.500001
C29	C	1.349011	-0.032326	0.000005
C30	C	1.849011	0.467674	0.500005
C31	C	1.346798	-0.125289	-0.000005
C32	C	1.846798	0.374711	0.499995
C33	C	1.338664	-0.463065	0.000007
C34	C	1.838664	0.036935	0.500007
C35	C	1.464460	-0.439177	0.000465
C36	C	1.964460	0.060823	0.500465
C37	C	1.466851	-0.342491	-0.000001
C38	C	1.966851	0.157509	0.499999
C39	C	1.342700	-0.295490	0.000002
C40	C	1.842700	0.204510	0.500002
C41	C	1.279816	-0.324876	-0.116857
C42	C	1.779816	0.175124	0.383143
C43	C	1.278302	-0.421673	-0.116950
C44	C	1.778302	0.078327	0.383050
C45	C	1.275717	-0.421548	0.115769
C46	C	1.775717	0.078452	0.615769
C47	C	1.280378	-0.325034	0.117309
C48	C	1.780378	0.174966	0.617309
C49	C	1.344975	-0.200784	-0.000005
C50	C	1.844975	0.299216	0.499995
C51	C	1.336385	-0.557771	0.000005
C52	C	1.836385	-0.057771	0.500005
C53	C	1.548187	0.115559	0.000008
C54	C	2.048187	0.615559	0.500008
C55	C	1.674181	0.117787	0.000001
C56	C	2.174181	0.617787	0.500001
C57	C	1.332353	0.273771	0.000012
C58	C	1.832353	0.773771	0.500012
C59	C	1.334566	0.366734	0.000013
C60	C	1.834566	0.866734	0.500013
N61	N	1.340668	0.120714	0.318838
N62	N	1.840668	0.620714	0.818838
N63	N	1.340705	0.120724	-0.318819
N64	N	1.840705	0.620724	0.181181
C65	C	1.340685	0.120724	0.569844
C66	C	1.840685	0.620724	1.069844
C67	C	1.340672	0.120721	0.430166
C68	C	1.840672	0.620721	0.930166
H69	H	1.516100	-0.323242	0.083766
H70	H	2.016100	0.176758	0.583766
H71	H	1.326168	-0.306262	0.203760
H72	H	1.826168	0.193738	0.703760
H73	H	1.188458	-0.293426	-0.121199
H74	H	1.688458	0.206574	0.378801
H75	H	1.189760	-0.292479	0.124369
H76	H	1.689760	0.207521	0.624369
H77	H	1.323496	-0.304614	-0.203824
H78	H	1.823496	0.195386	0.296176
C79	C	1.328942	-0.459476	0.235426
C80	C	1.828942	0.040524	0.735426
H81	H	1.390059	-0.500990	0.215899
H82	H	1.890059	-0.000990	0.715899
H83	H	1.272734	-0.484497	0.281057
H84	H	1.772734	0.015503	0.781057
H85	H	1.356898	-0.416338	0.283130
H86	H	1.856898	0.083662	0.783130
H87	H	1.183121	-0.435962	0.116558
H88	H	1.683121	0.064038	0.616558
C89	C	1.529970	-0.476705	0.113666
C90	C	2.029970	0.023295	0.613666
H91	H	1.605685	-0.461561	0.112223
H92	H	2.105685	0.038439	0.612223
H93	H	1.531884	-0.536218	0.112115
H94	H	2.031884	-0.036218	0.612115
H95	H	1.492762	-0.455475	0.186507
H96	H	1.992762	0.044525	0.686507
C97	C	1.529609	-0.478065	-0.112115
C98	C	2.029609	0.021935	0.387885
H99	H	1.480477	-0.508794	-0.159398
H100	H	1.980477	-0.008794	0.340602
H101	H	1.593467	-0.514789	-0.085246
H102	H	2.093467	-0.014789	0.414754
H103	H	1.555056	-0.434598	-0.161173
H104	H	2.055056	0.065402	0.338827
H105	H	1.321864	-0.448288	-0.204306
H106	H	1.821864	0.051712	0.295694
C107	C	1.533777	-0.317311	-0.113368
C108	C	2.033777	0.182689	0.386632
H109	H	1.559599	-0.366201	-0.159324
H110	H	2.059599	0.133799	0.340676
H111	H	1.597464	-0.290192	-0.087318
H112	H	2.097464	0.209808	0.412682
H113	H	1.485542	-0.280015	-0.163423
H114	H	1.985542	0.219985	0.336577
C115	C	1.153710	-0.441905	-0.124148
C116	C	1.653710	0.058095	0.375852
H117	H	1.104244	-0.390984	-0.127011
H118	H	1.604244	0.109016	0.372989
H119	H	1.136459	-0.473329	-0.053687
H120	H	1.636459	0.026671	0.446313
H121	H	1.143560	-0.473872	-0.196219
H122	H	1.643560	0.026128	0.303781
