data_functionalizedCrystal
_audit_creation_method	'MofGen! by Chris Wilmer'
_symmetry_space_group_name_H-M	'P1'
_symmetry_Int_Tables_number	1
_symmetry_cell_setting	triclinic
loop_
_symmetry_equiv_pos_as_xyz
  x,y,z
_cell_length_a	20.875444
_cell_length_b	20.875641
_cell_length_c	20.875641
_cell_angle_alpha	90.154292
_cell_angle_beta	64.273268
_cell_angle_gamma	59.247712
loop_
_atom_site_label
_atom_site_type_symbol
_atom_site_fract_x
_atom_site_fract_y
_atom_site_fract_z
Zr1	Zr	0.618426	0.675806	-0.026179
O2	O	0.745631	0.579985	-0.121967
O3	O	0.491221	0.700601	-0.001414
O4	O	0.609090	0.711627	-0.124178
O5	O	0.635125	0.565470	0.102867
O6	O	0.601726	0.820678	-0.120690
O7	O	0.627761	0.568959	0.000797
O8	O	0.390879	0.800954	0.098911
O9	O	0.845972	0.585194	-0.116735
O10	O	0.538046	0.798091	0.017307
O11	O	0.549037	0.714105	0.090878
O12	O	0.687813	0.727087	-0.053661
O13	O	0.698805	0.643100	0.019910
Zr14	Zr	0.618425	0.844165	0.142173
Zr15	Zr	0.606680	0.849729	-0.020617
Zr16	Zr	0.630170	0.670242	0.136611
Zr17	Zr	0.778458	0.684114	-0.017835
Zr18	Zr	0.458392	0.835857	0.133829
O19	O	0.745630	0.819371	0.117408
O20	O	0.728931	0.827282	-0.114058
O21	O	0.762330	0.572074	0.109499
O22	O	0.491220	0.939986	0.237961
O23	O	0.474521	0.947897	0.006495
O24	O	0.507920	0.692689	0.230052
O25	O	0.601725	0.954501	0.013127
O26	O	0.627761	0.808344	0.240172
O27	O	0.635125	0.699293	0.236684
O28	O	0.609089	0.951013	0.115197
O29	O	0.836636	0.723440	-0.112314
O30	O	0.400214	0.796531	0.228308
O31	O	0.390879	0.934777	0.232729
O32	O	0.381543	0.939199	0.103333
O33	O	0.855307	0.580772	0.012661
O34	O	0.845972	0.719018	0.017082
O35	O	0.549037	0.792884	0.169654
O36	O	0.538046	0.876871	0.096084
O37	O	0.687813	0.805867	0.025116
O38	O	0.698805	0.721880	0.098687
C39	C	0.418249	0.749593	0.047560
C40	C	0.350310	0.746066	0.044017
C41	C	-0.026272	0.720274	0.018353
C42	C	0.037578	0.723588	0.021650
C43	C	0.014238	0.780535	0.078568
C44	C	-0.072959	0.834169	0.132197
C45	C	-0.136807	0.830851	0.128902
C46	C	0.199266	0.796382	0.094351
C47	C	0.263122	0.799697	0.097641
C48	C	0.373655	0.689114	-0.012906
C49	C	0.309801	0.685805	-0.016198
C50	C	0.222610	0.739436	0.037433
N51	N	0.079501	0.783925	0.081938
N52	N	0.157349	0.736042	0.034065
C53	C	0.633117	0.542434	0.051039
C54	C	0.638103	0.468599	0.048678
C55	C	0.562270	0.470973	0.084609
C56	C	0.566960	0.401595	0.082388
C57	C	0.647484	0.329843	0.044232
C58	C	0.723322	0.327471	0.008300
C59	C	0.718632	0.396849	0.010525
C60	C	0.669896	0.118378	0.033609
C61	C	0.674581	0.048998	0.031385
C62	C	0.518218	0.123126	0.105475
C63	C	0.513534	0.192502	0.107693
C64	C	0.589373	0.190124	0.071764
N65	N	0.652280	0.258927	0.041960
N66	N	0.584576	0.261039	0.074041
C67	C	0.818602	0.770378	0.068434
C68	C	0.886540	0.773905	0.071976
C69	C	0.603735	0.766945	-0.145628
C70	C	0.598749	0.769307	-0.214737
C71	C	0.603734	0.977537	0.064955
C72	C	0.598748	1.051372	0.067316
C73	C	0.674581	0.733355	-0.284249
C74	C	0.669891	0.735584	-0.349181
C75	C	0.589367	0.773762	-0.344600
C76	C	0.513529	0.809720	-0.275080
C77	C	0.518220	0.807494	-0.210150
C78	C	0.566954	0.784396	-0.534820
C79	C	0.562269	0.786617	-0.599758
C80	C	0.718632	0.712482	-0.673854
C81	C	0.723316	0.710256	-0.608918
C82	C	0.647477	0.746217	-0.539405
N83	N	0.584571	0.776040	-0.410970
N84	N	0.652274	0.743944	-0.473036
C85	C	0.633116	0.753026	0.261622
C86	C	0.638102	0.750664	0.330731
C87	C	0.403557	0.967145	0.054517
C88	C	0.330633	1.037453	0.053337
C89	C	0.432939	0.742634	0.251185
C90	C	0.369987	0.736745	0.316751
C91	C	0.418248	0.960185	0.258143
C92	C	0.350310	1.028131	0.326070
C93	C	0.818603	0.559786	-0.142149
C94	C	0.886541	0.491840	-0.210076
C95	C	0.833293	0.552826	0.061476
C96	C	0.906218	0.482518	0.062657
C97	C	0.803911	0.777338	-0.135191
C98	C	0.866864	0.783227	-0.200757
C99	C	0.296387	1.029348	0.011655
C100	C	0.227875	1.095404	0.010530
C101	C	0.193606	1.169564	0.051092
C102	C	0.227859	1.177667	0.092776
C103	C	0.296374	1.111612	0.093895
C104	C	0.340424	0.775101	0.388669
C105	C	0.281284	0.769565	0.450282
C106	C	0.251702	0.725676	0.439975
C107	C	0.281271	0.687315	0.368050
C108	C	0.340415	0.692847	0.306439
C109	C	0.312667	1.103887	0.319567
C110	C	0.248840	1.167737	0.383386
C111	C	0.222652	1.155829	0.453709
C112	C	0.260301	1.080065	0.460211
C113	C	0.324132	1.016217	0.396392
C114	C	0.924191	0.416085	-0.203573
C115	C	0.988038	0.352236	-0.267391
C116	C	1.014230	0.364144	-0.337713
C117	C	0.976576	0.439907	-0.344216
C118	C	0.912735	0.503755	-0.280397
C119	C	0.940470	0.490624	0.104333
C120	C	1.008998	0.424569	0.105440
C121	C	1.043269	0.350409	0.064876
C122	C	1.009013	0.342306	0.023195
C123	C	0.940490	0.408360	0.022084
C124	C	0.896426	0.827122	-0.190427
C125	C	0.955567	0.832670	-0.252027
C126	C	0.985150	0.794319	-0.323957
C127	C	0.955581	0.750422	-0.334286
C128	C	0.896436	0.744879	-0.272686
H129	H	-0.007257	0.673904	-0.027999
N130	N	0.333309	1.120360	0.138854
H131	H	0.326902	1.091532	0.177433
H132	H	0.396557	1.098057	0.104816
N133	N	0.800430	0.673702	-0.748822
H134	H	0.804734	0.632115	-0.778726
H135	H	0.799162	0.713880	-0.776044
N136	N	0.895955	0.403222	-0.127734
H137	H	0.947167	0.374902	-0.120093
H138	H	0.849779	0.455185	-0.088329
H139	H	0.170676	1.207825	0.505668
N140	N	0.131615	0.665749	-0.036194
H141	H	0.168523	0.676488	-0.025470
H142	H	0.148506	0.611211	-0.034791
N143	N	1.045936	0.433319	0.150398
H144	H	1.013818	0.490322	0.175930
H145	H	1.039535	0.404441	0.188931
N146	N	0.249384	0.810953	0.527853
H147	H	0.265200	0.771595	0.555907
H148	H	0.277102	0.839604	0.524966
N149	N	0.485170	0.404154	0.121142
H150	H	0.433447	0.460135	0.145647
H151	H	0.480955	0.378290	0.083589
N152	N	0.333335	0.949368	-0.032096
H153	H	0.396600	0.923380	-0.069746
H154	H	0.326860	0.916933	0.002865
N155	N	0.426683	0.269890	0.148836
H156	H	0.379353	0.260866	0.171260
H157	H	0.424081	0.298989	0.189616
H158	H	0.199948	1.238057	0.125799
H159	H	0.872350	0.858353	-0.131864
N160	N	0.903553	0.399604	-0.022868
H161	H	0.880655	0.366863	-0.004366
H162	H	0.854975	0.452723	-0.017409
N163	N	1.004829	0.452745	-0.420065
H164	H	1.050982	0.400798	-0.459500
H165	H	0.953576	0.481088	-0.427647
H166	H	0.203543	0.721178	0.490150
H167	H	0.912573	0.551002	0.137370
N168	N	0.232051	1.067228	0.536060
H169	H	0.185900	1.119175	0.575496
H170	H	0.208109	1.034980	0.539720
H171	H	0.456474	0.125053	0.134726
N172	N	0.872126	0.585461	-0.287418
H173	H	0.898408	0.583309	-0.341652
H174	H	0.807798	0.611904	-0.264579
H175	H	0.354773	0.954535	0.401697
H176	H	0.199995	1.088791	-0.023413
H177	H	1.033309	0.798839	-0.374109
N178	N	0.751684	0.696796	-0.424153
H179	H	0.736497	0.704000	-0.464593
H180	H	0.783891	0.721073	-0.427676
H181	H	1.018686	0.290552	-0.262083
H182	H	0.979676	0.719198	-0.392859
N183	N	0.372330	0.822432	0.399799
H184	H	0.414285	0.820123	0.349861
H185	H	0.321639	0.878329	0.427878
H186	H	1.099065	0.296630	0.065787
H187	H	0.128280	0.840054	0.138020
N188	N	1.045967	0.262316	-0.020540
H189	H	1.094565	0.221707	-0.013500
H190	H	0.999149	0.252653	-0.002394
H191	H	0.788887	0.679170	-0.612657
N192	N	0.987450	0.880019	-0.240877
H193	H	0.959738	0.903464	-0.185962
H194	H	1.052345	0.845207	-0.263994
H195	H	0.731648	0.116431	0.004340
N196	N	1.083080	0.295271	-0.406538
H197	H	1.058615	0.295145	-0.438952
H198	H	1.133783	0.299085	-0.434978
H199	H	0.218191	1.229421	0.378079
N200	N	0.864562	0.697528	-0.283841
H201	H	0.915220	0.641612	-0.311892
H202	H	0.822590	0.699889	-0.233883
N203	N	0.334975	0.624391	-0.077595
H204	H	0.399899	0.590919	-0.111068
H205	H	0.314807	0.590790	-0.055258
N206	N	0.475416	0.827784	-0.594818
H207	H	0.428084	0.850225	-0.540929
H208	H	0.467302	0.871176	-0.618841
H209	H	0.444650	0.645451	-0.056568
H210	H	-0.091958	0.880534	0.178544
N211	N	0.761430	-0.028399	-0.009768
H212	H	0.792040	-0.031223	-0.063818
H213	H	0.797485	-0.033799	0.012725
H214	H	0.244108	0.846071	0.143995
N215	N	0.340897	1.116741	0.243724
H216	H	0.307359	1.174425	0.249300
H217	H	0.404728	1.094111	0.217525
N218	N	-0.230848	0.888693	0.186740
H219	H	-0.235947	0.925274	0.223298
H220	H	-0.263663	0.919538	0.161663
H221	H	0.496699	0.529392	0.115683
N222	N	0.810170	0.250081	-0.032847
H223	H	0.812844	0.220954	-0.073664
H224	H	0.857452	0.259167	-0.055222
N225	N	0.800422	0.394292	-0.028227
H226	H	0.852145	0.338312	-0.052738
H227	H	0.799123	0.422773	-0.067159
N228	N	0.249355	0.639987	0.356937
H229	H	0.265161	0.596956	0.381320
H230	H	0.184466	0.674832	0.380012
H231	H	0.505201	0.813678	-0.478227
H232	H	0.456469	0.836771	-0.153550
N233	N	0.761433	0.692173	-0.289192
H234	H	0.808760	0.669737	-0.343083
H235	H	0.764025	0.730493	-0.262558
H236	H	0.447964	0.840809	-0.271355
H237	H	0.364477	0.661615	0.247882
H238	H	0.137817	1.223344	0.050175
