data_functionalizedCrystal
_audit_creation_method	'MofGen! by Chris Wilmer'
_symmetry_space_group_name_H-M	'P1'
_symmetry_Int_Tables_number	1
_symmetry_cell_setting	triclinic
loop_
_symmetry_equiv_pos_as_xyz
  x,y,z
_cell_length_a	29.839134
_cell_length_b	29.839131
_cell_length_c	29.839125
_cell_angle_alpha	89.982291
_cell_angle_beta	90.012189
_cell_angle_gamma	89.978008
loop_
_atom_site_label
_atom_site_type_symbol
_atom_site_fract_x
_atom_site_fract_y
_atom_site_fract_z
Zn1	Zn	0.686719	0.179149	0.254008
Zn2	Zn	0.686652	0.254261	0.178878
Zn3	Zn	0.611602	0.179121	0.178890
Zn4	Zn	0.611550	0.254227	0.253979
O5	O	0.649131	0.216690	0.216439
O6	O	0.749578	0.189139	0.244048
O7	O	0.676690	0.244296	0.116012
O8	O	0.621617	0.116257	0.188872
O9	O	0.749528	0.244324	0.188851
O10	O	0.676805	0.116278	0.244060
O11	O	0.621551	0.189090	0.116021
O12	O	0.548728	0.189058	0.188844
O13	O	0.621528	0.244266	0.316850
O14	O	0.548690	0.244238	0.244011
O15	O	0.676755	0.189106	0.316871
O16	O	0.676639	0.317124	0.188823
O17	O	0.621462	0.317099	0.243999
C18	C	0.532408	0.216641	0.216426
C19	C	0.482474	0.216632	0.216431
C20	C	0.125909	0.188015	0.245237
C21	C	0.313582	0.187979	0.245226
O22	O	0.337865	0.163591	0.269715
N23	N	0.337029	0.216661	0.216442
C24	C	0.313555	0.245357	0.187660
O25	O	0.337804	0.269755	0.163181
C26	C	0.125883	0.245395	0.187673
C27	C	0.102438	0.216707	0.216456
C28	C	0.102464	0.159330	0.274017
C29	C	0.055548	0.159338	0.274018
C30	C	0.032078	0.188030	0.245238
C31	C	0.055522	0.216715	0.216457
C32	C	0.102409	0.274092	0.158894
C33	C	0.055488	0.274100	0.158901
C34	C	0.032044	0.245412	0.187684
C35	C	-0.014864	0.245415	0.187677
N36	N	-0.038311	0.216732	0.216461
C37	C	-0.014840	0.188040	0.245242
C38	C	0.412085	0.245334	0.187655
C39	C	0.459003	0.245324	0.187651
C40	C	0.459027	0.187947	0.245218
C41	C	0.412108	0.187955	0.245219
C42	C	0.388638	0.216652	0.216439
C43	C	-0.113366	0.188058	0.245240
C44	C	-0.160286	0.188067	0.245237
C45	C	-0.160305	0.245445	0.187672
C46	C	-0.113390	0.245435	0.187674
C47	C	-0.089921	0.216740	0.216461
O48	O	-0.039176	0.269794	0.163204
O49	O	-0.039098	0.163652	0.269725
C50	C	0.172824	0.188007	0.245236
C51	C	0.196269	0.216692	0.216455
C52	C	0.172798	0.245384	0.187675
C53	C	0.243187	0.216682	0.216451
C54	C	0.266657	0.187990	0.245231
C55	C	0.243210	0.159308	0.274016
C56	C	0.196295	0.159315	0.274016
C57	C	0.196245	0.274067	0.158891
C58	C	0.243161	0.274056	0.158892
C59	C	0.266631	0.245364	0.187672
C60	C	0.649050	0.333412	0.216416
C61	C	0.649056	0.383347	0.216422
C62	C	0.649143	0.216686	0.333617
C63	C	0.649148	0.216684	0.383551
C64	C	0.766309	0.216738	0.216451
C65	C	0.816244	0.216759	0.216457
C66	C	0.649225	0.099511	0.216471
C67	C	0.649264	0.049577	0.216484
C68	C	0.677914	0.692990	0.187750
C69	C	0.677969	0.880663	0.187767
O70	O	0.702440	0.904928	0.163373
N71	N	0.649224	0.904132	0.216472
C72	C	0.620465	0.880679	0.245177
O73	O	0.596020	0.904946	0.269596
C74	C	0.620412	0.693007	0.245162
C75	C	0.649156	0.669541	0.216452
C76	C	0.706655	0.669524	0.159043
C77	C	0.706640	0.622609	0.159037
C78	C	0.677882	0.599159	0.187738
C79	C	0.649140	0.622625	0.216446
C80	C	0.591656	0.669555	0.273868
C81	C	0.591646	0.622634	0.273863
C82	C	0.620390	0.599168	0.245153
C83	C	0.620367	0.552260	0.245141
N84	N	0.649112	0.528792	0.216437
C85	C	0.677869	0.552242	0.187735
C86	C	0.620494	0.979209	0.245183
C87	C	0.620507	1.026127	0.245186
C88	C	0.678012	1.026109	0.187777
C89	C	0.677996	0.979190	0.187772
C90	C	0.649239	0.955741	0.216478
C91	C	0.677834	0.453716	0.187725
C92	C	0.677814	0.406796	0.187720
C93	C	0.620311	0.406819	0.245131
C94	C	0.620329	0.453734	0.245134
C95	C	0.649094	0.477182	0.216429
O96	O	0.595912	0.527966	0.269527
O97	O	0.702318	0.527966	0.163327
C98	C	0.677930	0.739906	0.187756
C99	C	0.649188	0.763372	0.216463
C100	C	0.620430	0.739922	0.245165
C101	C	0.649200	0.810289	0.216467
C102	C	0.677958	0.833739	0.187765
C103	C	0.706703	0.810271	0.159060
C104	C	0.706687	0.763355	0.159054
C105	C	0.591685	0.763390	0.273870
C106	C	0.591703	0.810306	0.273873
C107	C	0.620461	0.833755	0.245171
C108	C	0.649145	0.216661	0.099716
C109	C	0.649227	0.216536	0.049782
C110	C	0.677935	0.187887	0.693209
C111	C	0.677957	0.187849	0.880882
O112	O	0.702399	0.163407	0.905159
N113	N	0.649208	0.216564	0.904337
C114	C	0.620449	0.245288	0.880870
O115	O	0.595993	0.269708	0.905126
C116	C	0.620424	0.245324	0.693198
C117	C	0.649179	0.216610	0.669746
C118	C	0.706687	0.159175	0.669757
C119	C	0.706683	0.159187	0.622841
C120	C	0.677927	0.187910	0.599378
C121	C	0.649175	0.216622	0.622830
C122	C	0.591663	0.274045	0.669732
C123	C	0.591659	0.274051	0.622811
C124	C	0.620414	0.245337	0.599359
C125	C	0.620415	0.245356	0.552451
N126	N	0.649164	0.216642	0.528997
C127	C	0.677920	0.187918	0.552460
C128	C	0.620464	0.245268	0.979401
C129	C	0.620471	0.245260	1.026319
C130	C	0.677979	0.187820	1.026327
C131	C	0.677974	0.187830	0.979409
C132	C	0.649213	0.216553	0.955946
C133	C	0.677910	0.187945	0.453934
C134	C	0.677904	0.187961	0.407015
C135	C	0.620395	0.245399	0.407010
C136	C	0.620401	0.245385	0.453926
C137	C	0.649160	0.216655	0.477386
O138	O	0.595982	0.269782	0.528146
O139	O	0.702365	0.163495	0.528196
C140	C	0.677939	0.187875	0.740124
C141	C	0.649187	0.216587	0.763577
C142	C	0.620431	0.245310	0.740113
C143	C	0.649194	0.216579	0.810494
C144	C	0.677950	0.187856	0.833958
C145	C	0.706699	0.159141	0.810503
C146	C	0.706695	0.159152	0.763588
C147	C	0.591682	0.274025	0.763568
C148	C	0.591689	0.274011	0.810483
C149	C	0.620445	0.245288	0.833947
H150	H	-0.179424	0.268804	0.164238
H151	H	0.730097	0.135805	0.603751
H152	H	0.596984	0.268786	0.387898
H153	H	0.121490	0.297452	0.135456
C154	C	0.709618	0.953381	0.156195
H155	H	0.726747	0.974071	0.139105
H156	H	0.692445	0.935096	0.136602
H157	H	0.729179	0.935062	0.173399
C158	C	0.738335	0.836071	0.127489
H159	H	0.734226	0.867374	0.131609
H160	H	0.731782	0.828402	0.097296
H161	H	0.768515	0.828361	0.134094
H162	H	0.596895	0.387719	0.268498
H163	H	0.701321	0.164578	0.387922
C164	C	0.560060	0.305601	0.836278
H165	H	0.564180	0.301486	0.867582
H166	H	0.529881	0.299015	0.828583
H167	H	0.566614	0.335791	0.828586
H168	H	0.597076	0.960121	0.268559
H169	H	0.701393	0.164432	1.045439
H170	H	0.597061	0.268646	1.045409
C171	C	0.738322	0.127563	0.737796
H172	H	0.755443	0.110455	0.758495
H173	H	0.757883	0.144756	0.719492
H174	H	0.721148	0.107982	0.719496
C175	C	0.029765	0.127786	0.305684
H176	H	0.050468	0.110703	0.322825
H177	H	0.011460	0.108187	0.288540
H178	H	0.011467	0.145007	0.325232
C179	C	0.268945	0.305616	0.127230
H180	H	0.248243	0.322707	0.110094
H181	H	0.287249	0.288405	0.107683
H182	H	0.287244	0.325215	0.144385
C183	C	-0.186072	0.156512	0.276902
H184	H	-0.165372	0.139427	0.294045
H185	H	-0.204376	0.136914	0.259755
H186	H	-0.204373	0.173733	0.296448
H187	H	0.568265	0.297416	0.744469
C188	C	0.269032	0.127747	0.305675
H189	H	0.248353	0.110661	0.322818
H190	H	0.287336	0.144961	0.325215
H191	H	0.287334	0.108143	0.288520
C192	C	0.709435	0.380986	0.156140
H193	H	0.726567	0.401674	0.139052
H194	H	0.692260	0.362703	0.136546
H195	H	0.728994	0.362663	0.173344
H196	H	0.597044	0.268660	0.960302
H197	H	0.596925	0.472841	0.268513
H198	H	0.701258	0.472801	0.164352
C199	C	0.738263	0.596802	0.127461
H200	H	0.755394	0.617493	0.110374
H201	H	0.721093	0.578517	0.107866
H202	H	0.757823	0.578482	0.144667
H203	H	0.478145	0.164583	0.268651
H204	H	0.177210	0.135955	0.297454
C205	C	0.029674	0.305666	0.127241
H206	H	0.050359	0.322745	0.110098
H207	H	0.011371	0.325269	0.144391
H208	H	0.011372	0.288453	0.107694
C209	C	0.738289	0.695312	0.127466
H210	H	0.755399	0.674610	0.110369
H211	H	0.757860	0.713597	0.144663
H212	H	0.721119	0.713630	0.107873
H213	H	0.568248	0.297427	0.688819
C214	C	0.128274	0.127763	0.305676
H215	H	0.107586	0.110682	0.322812
H216	H	0.146582	0.144967	0.325222
H217	H	0.146572	0.108156	0.288521
C218	C	0.560083	0.836113	0.305457
H219	H	0.542959	0.815424	0.322551
H220	H	0.540524	0.854440	0.288262
H221	H	0.577266	0.854392	0.325052
H222	H	0.568233	0.297436	0.603710
C223	C	0.738330	0.127547	0.836319
H224	H	0.734210	0.131654	0.867619
H225	H	0.768510	0.134133	0.828635
H226	H	0.731776	0.097358	0.828634
C227	C	0.170434	0.305627	0.127227
H228	H	0.191121	0.322703	0.110084
H229	H	0.152129	0.325233	0.144372
H230	H	0.152133	0.288411	0.107681
C231	C	0.588775	0.276972	0.479724
H232	H	0.571648	0.294079	0.459028
H233	H	0.605944	0.296548	0.498030
H234	H	0.569213	0.259770	0.498022
C235	C	0.560046	0.737602	0.305439
H236	H	0.542928	0.758302	0.322531
H237	H	0.577205	0.719277	0.325031
H238	H	0.540475	0.719324	0.288229
C239	C	0.560013	0.596843	0.305440
H240	H	0.542896	0.617541	0.322536
H241	H	0.577179	0.578520	0.325028
H242	H	0.540440	0.578562	0.288235
C243	C	0.709643	1.051909	0.156205
H244	H	0.705533	1.083211	0.160323
H245	H	0.703090	1.044237	0.126012
H246	H	0.739824	1.044201	0.162810
C247	C	-0.087557	0.156492	0.276903
H248	H	-0.108245	0.139409	0.294039
H249	H	-0.069253	0.173698	0.296450
H250	H	-0.069257	0.136886	0.259750
C251	C	-0.087600	0.276992	0.156016
H252	H	-0.108299	0.294084	0.138878
H253	H	-0.069292	0.259782	0.136471
H254	H	-0.069303	0.296591	0.173175
H255	H	0.701326	0.164549	0.473031
C256	C	0.386323	0.156404	0.276884
H257	H	0.407025	0.139318	0.294025
H258	H	0.368016	0.136806	0.259740
H259	H	0.368026	0.173626	0.296433
H260	H	0.568247	0.688653	0.297245
H261	H	0.478088	0.268679	0.164208
C262	C	0.386274	0.276898	0.155991
H263	H	0.406962	0.293973	0.138847
H264	H	0.367972	0.296505	0.173137
H265	H	0.367971	0.259685	0.136446
H266	H	0.597097	1.045229	0.268560
H267	H	0.730093	0.744253	0.135676
C268	C	0.709599	0.156241	0.953615
H269	H	0.726722	0.139133	0.974313
H270	H	0.729158	0.173433	0.935309
H271	H	0.692423	0.136659	0.935317
H272	H	0.730104	0.135783	0.688855
