data_functionalizedCrystal
_audit_creation_method	'MofGen! by Chris Wilmer'
_symmetry_space_group_name_H-M	'P1'
_symmetry_Int_Tables_number	1
_symmetry_cell_setting	triclinic
loop_
_symmetry_equiv_pos_as_xyz
  x,y,z
_cell_length_a	10.654541
_cell_length_b	19.288864
_cell_length_c	18.366186
_cell_angle_alpha	90.022894
_cell_angle_beta	89.994034
_cell_angle_gamma	96.189913
loop_
_atom_site_label
_atom_site_type_symbol
_atom_site_fract_x
_atom_site_fract_y
_atom_site_fract_z
O1	O	0.156657	-0.922378	-0.060783
O2	O	0.177790	-0.720255	-0.060733
O3	O	-0.015616	-0.825965	-0.060755
O4	O	0.350062	-0.816669	-0.060761
O5	O	-0.015625	-0.825946	0.060344
O6	O	0.177780	-0.720237	0.060366
O7	O	0.156647	-0.922360	0.060316
Zn8	Zn	0.167212	-0.821296	0.079568
Zn9	Zn	0.167225	-0.821319	-0.079985
O10	O	0.350053	-0.816650	0.060338
C11	C	0.177105	-0.694365	-0.000177
C12	C	0.175064	-0.617248	-0.000158
C13	C	-0.062404	-0.825273	-0.000205
C14	C	-0.201804	-0.823232	-0.000206
C15	C	0.157332	-0.948250	-0.000241
C16	C	0.159373	-1.025367	-0.000265
C17	C	-0.232480	-0.949636	-0.000228
C18	C	-0.313307	-1.011877	-0.000237
C19	C	-0.444284	-1.009955	-0.000239
C20	C	-0.494436	-0.945785	-0.000234
C21	C	-0.413609	-0.883545	-0.000225
C22	C	-0.282631	-0.885474	-0.000221
C23	C	-0.382933	-0.757142	-0.000208
C24	C	-0.251955	-0.759063	-0.000201
C25	C	-0.433084	-0.692973	-0.000203
C26	C	-0.352257	-0.630732	-0.000188
C27	C	-0.221273	-0.632656	-0.000186
C28	C	-0.171129	-0.696823	-0.000192
C29	C	0.396841	-0.817342	-0.000213
C30	C	0.536241	-0.819383	-0.000217
N31	N	0.167203	-0.821284	0.188459
C32	C	0.288545	-0.573295	-0.000172
C33	C	0.286627	-0.500835	-0.000180
C34	C	0.171222	-0.472332	-0.000189
C35	C	0.057725	-0.516296	-0.000171
C36	C	0.059646	-0.588754	-0.000156
C37	C	0.080504	-0.363483	-0.042638
C38	C	0.078587	-0.291026	-0.042658
C39	C	0.165292	-0.248848	-0.000233
C40	C	0.253935	-0.279134	0.042203
C41	C	0.255856	-0.351592	0.042218
C42	C	0.169126	-0.393765	-0.000205
C43	C	0.276702	-0.126325	-0.000254
C44	C	0.274780	-0.053864	-0.000257
C45	C	0.045875	-0.069327	-0.000256
C46	C	0.047800	-0.141786	-0.000245
C47	C	0.163218	-0.170280	-0.000248
N48	N	0.167224	-0.821336	-0.188876
C49	C	0.081605	-0.868108	0.226550
C50	C	0.081599	-0.868112	0.302778
C51	C	0.167213	-0.821300	0.340912
C52	C	0.252818	-0.774467	0.302812
C53	C	0.252813	-0.774459	0.226586
C54	C	0.281635	-0.812750	0.461672
C55	C	0.281642	-0.812763	0.537897
C56	C	0.167229	-0.821320	0.576020
C57	C	0.052805	-0.829878	0.537908
C58	C	0.052799	-0.829871	0.461682
C59	C	0.167228	-0.821303	0.423567
C60	C	0.081618	-0.868151	0.696765
C61	C	0.081611	-0.868150	0.772995
C62	C	0.252840	-0.774508	0.773027
C63	C	0.252836	-0.774505	0.696800
C64	C	0.167227	-0.821330	0.658673
H65	H	-0.125834	-0.951208	-0.000217
H66	H	0.324538	-0.244794	0.076750
H67	H	0.374813	-0.805798	0.568921
C68	C	-0.258136	-1.082460	-0.000241
C69	C	-0.172326	-1.101148	0.062644
C70	C	-0.117159	-1.171730	0.062638
C71	C	-0.147802	-1.223624	-0.000252
C72	C	-0.233617	-1.204937	-0.063142
C73	C	-0.288784	-1.134355	-0.063136
H74	H	-0.149638	-1.062732	0.109203
H75	H	-0.053633	-1.185563	0.109194
H76	H	-0.106965	-1.275873	-0.000256
H77	H	-0.256306	-1.243353	-0.109702
H78	H	-0.352310	-1.120522	-0.109692
H79	H	-0.064483	-0.698396	-0.000185
H80	H	0.011894	-0.906234	0.195510
C81	C	-0.012558	-0.919626	0.344688
C82	C	-0.106685	-0.971150	0.302749
C83	C	-0.200840	-1.022664	0.344656
C84	C	-0.200870	-1.022654	0.428502
C85	C	-0.106740	-0.971128	0.470446
C86	C	-0.012585	-0.919614	0.428539
H87	H	-0.106666	-0.971159	0.240677
H88	H	-0.270521	-1.060807	0.313605
H89	H	-0.270570	-1.060788	0.459523
H90	H	-0.106759	-0.971119	0.532518
H91	H	0.057096	-0.881471	0.459589
H92	H	-0.032767	-0.624542	-0.000145
C93	C	0.411464	-0.452474	-0.000203
C94	C	0.538415	-0.483816	-0.000208
C95	C	0.663251	-0.435458	-0.000235
C96	C	0.661134	-0.355757	-0.000257
C97	C	0.534178	-0.324411	-0.000252
C98	C	0.409343	-0.372769	-0.000225
H99	H	0.539986	-0.542819	-0.000192
H100	H	0.757232	-0.458663	-0.000239
H101	H	0.753545	-0.319959	-0.000276
H102	H	0.532607	-0.265408	-0.000268
H103	H	0.315361	-0.349564	-0.000221
H104	H	0.322544	-0.736390	0.804076
H105	H	-0.539734	-0.691413	-0.000209
H106	H	0.328028	-0.376249	0.076773
H107	H	-0.048091	-0.046121	-0.000309
H108	H	-0.040369	-0.836838	0.430655
C109	C	0.403652	-0.157678	-0.000248
C110	C	0.497801	-0.141312	0.062635
C111	C	0.624749	-0.172665	0.062641
C112	C	0.657549	-0.220384	-0.000237
C113	C	0.563399	-0.236752	-0.063125
C114	C	0.436450	-0.205400	-0.063130
H115	H	0.473522	-0.105986	0.109185
H116	H	0.694445	-0.160548	0.109195
H117	H	0.751524	-0.243593	-0.000233
H118	H	0.587678	-0.272079	-0.109675
H119	H	0.366754	-0.217517	-0.109684
C120	C	-0.018908	-0.257714	-0.089340
C121	C	-0.114294	-0.304105	-0.135999
C122	C	-0.211788	-0.270795	-0.182685
C123	C	-0.213896	-0.191093	-0.182711
C124	C	-0.118507	-0.144698	-0.136051
C125	C	-0.021012	-0.178008	-0.089365
H126	H	-0.112736	-0.363109	-0.135981
H127	H	-0.282402	-0.305140	-0.217226
H128	H	-0.286068	-0.166435	-0.217271
H129	H	-0.120064	-0.085694	-0.136069
H130	H	0.049601	-0.143662	-0.054824
H131	H	0.011905	-0.906276	0.665722
C132	C	-0.014876	-0.409878	-0.089310
C133	C	-0.157551	-0.409530	-0.076149
C134	C	-0.252927	-0.455925	-0.122817
C135	C	-0.205628	-0.502669	-0.182646
C136	C	-0.062946	-0.503019	-0.195809
C137	C	0.032429	-0.456624	-0.149141
H138	H	-0.192570	-0.374926	-0.031858
H139	H	-0.358549	-0.455665	-0.113073
H140	H	-0.276231	-0.537013	-0.217192
H141	H	-0.027927	-0.537623	-0.240100
H142	H	0.138052	-0.456884	-0.158885
C143	C	-0.073059	-0.839344	0.579832
C144	C	-0.073063	-0.839386	0.663678
C145	C	-0.198920	-0.848879	0.705606
C146	C	-0.324774	-0.858331	0.663688
C147	C	-0.324775	-0.858290	0.579837
C148	C	-0.198918	-0.848796	0.537909
H149	H	0.020106	-0.832388	0.694713
H150	H	-0.198918	-0.848910	0.767678
H151	H	-0.417940	-0.865359	0.694725
H152	H	-0.417944	-0.865287	0.548802
H153	H	-0.198919	-0.848766	0.475837
H154	H	0.322524	-0.736350	0.333865
H155	H	-0.044609	-0.177574	-0.000238
C156	C	0.347008	-0.723005	0.654893
C157	C	0.441220	-0.671529	0.696832
C158	C	0.535393	-0.620024	0.654924
C159	C	0.535353	-0.619996	0.571078
C160	C	0.441137	-0.671474	0.529135
C161	C	0.346964	-0.722979	0.571042
H162	H	0.441253	-0.671548	0.758904
H163	H	0.605138	-0.581917	0.685974
H164	H	0.605065	-0.581870	0.540056
H165	H	0.441104	-0.671455	0.467063
H166	H	0.277219	-0.761086	0.539992
H167	H	-0.036239	-0.493085	-0.000189
C168	C	0.407499	-0.803340	0.419741
C169	C	0.533358	-0.793939	0.461657
C170	C	0.659217	-0.784530	0.419727
C171	C	0.659217	-0.784522	0.335881
C172	C	0.533354	-0.793923	0.293960
C173	C	0.407495	-0.803333	0.335890
H174	H	0.533362	-0.793945	0.523729
H175	H	0.752390	-0.777570	0.450760
H176	H	0.752386	-0.777556	0.304841
H177	H	0.533350	-0.793918	0.231888
H178	H	0.314323	-0.810292	0.304857
H179	H	0.011900	-0.906278	0.804009
H180	H	0.367194	-0.018077	-0.000264
H181	H	0.322518	-0.736329	0.195572
H182	H	-0.510094	-1.060636	-0.000252
H183	H	-0.601085	-0.944226	-0.000244
H184	H	-0.393102	-0.578490	-0.000189
H185	H	-0.155470	-0.581972	-0.000181
H186	H	0.382527	-0.596490	-0.000175
