data_functionalizedCrystal
_audit_creation_method	'MofGen! by Chris Wilmer'
_symmetry_space_group_name_H-M	'P1'
_symmetry_Int_Tables_number	1
_symmetry_cell_setting	triclinic
loop_
_symmetry_equiv_pos_as_xyz
  x,y,z
_cell_length_a	16.994747
_cell_length_b	12.759401
_cell_length_c	12.759393
_cell_angle_alpha	90.020938
_cell_angle_beta	89.989617
_cell_angle_gamma	89.987953
loop_
_atom_site_label
_atom_site_type_symbol
_atom_site_fract_x
_atom_site_fract_y
_atom_site_fract_z
Zn1	Zn	0.313958	1.606297	0.594167
Zn2	Zn	0.445882	1.606201	0.418549
Zn3	Zn	0.314000	1.430596	0.418502
Zn4	Zn	0.445827	1.430600	0.594186
O5	O	0.379917	1.518423	0.506351
O6	O	0.331463	1.753305	0.570882
O7	O	0.428428	1.582864	0.271521
O8	O	0.203613	1.453941	0.441777
O9	O	0.428388	1.753235	0.441856
O10	O	0.203582	1.583028	0.570837
O11	O	0.331535	1.453848	0.271487
O12	O	0.331481	1.283575	0.441795
O13	O	0.428294	1.453949	0.741205
O14	O	0.428334	1.283579	0.570870
O15	O	0.331410	1.583033	0.741191
O16	O	0.556256	1.582869	0.441875
O17	O	0.556216	1.453856	0.570915
C18	C	0.379907	1.245456	0.506330
C19	C	0.379922	1.128679	0.506346
C20	C	0.430430	1.073847	0.573449
C21	C	0.430433	0.964123	0.573470
C22	C	0.329418	0.964074	0.439276
C23	C	0.329411	1.073796	0.439261
C24	C	0.584857	1.518365	0.506399
C25	C	0.674179	1.518374	0.506396
C26	C	0.084857	1.518531	0.506264
C27	C	0.174179	1.518502	0.506295
Zn28	Zn	0.945086	1.430634	0.418474
Zn29	Zn	0.945023	1.606352	0.594122
Zn30	Zn	0.813219	1.430641	0.594169
Zn31	Zn	0.813137	1.606225	0.418515
O32	O	0.879116	1.518463	0.506320
O33	O	1.055459	1.453993	0.441737
O34	O	0.927546	1.583099	0.741149
O35	O	0.830773	1.283619	0.570865
O36	O	1.055412	1.583092	0.570785
O37	O	0.927655	1.283614	0.441783
O38	O	0.830711	1.454005	0.741184
O39	O	0.702827	1.453882	0.570905
O40	O	0.830633	1.582876	0.271489
O41	O	0.702767	1.582883	0.441853
O42	O	0.927575	1.453870	0.271458
O43	O	0.927467	1.753356	0.570825
O44	O	0.830571	1.753262	0.441807
C45	C	0.379841	1.518502	0.780384
C46	C	0.379809	1.518536	0.897161
C47	C	0.379927	1.792457	0.506372
C48	C	0.379931	1.909233	0.506382
C49	C	0.379935	1.518406	0.233384
C50	C	0.379745	1.518576	0.116607
C51	C	0.329353	1.585754	0.952017
C52	C	0.329319	1.585772	1.061742
C53	C	0.430203	1.451349	1.061743
C54	C	0.430232	1.451327	0.952021
C55	C	0.879005	1.791430	0.506318
C56	C	0.878981	1.908207	0.506348
C57	C	0.879102	1.518358	0.232287
C58	C	0.879096	1.518313	0.115510
C59	C	0.879230	1.244429	0.506325
C60	C	0.879278	1.127653	0.506326
C61	C	0.879176	1.518492	0.779287
C62	C	0.879333	1.518243	0.896064
C63	C	0.929454	1.963082	0.573480
C64	C	0.929429	2.072806	0.573502
C65	C	0.828451	2.072769	0.439257
C66	C	0.828481	1.963047	0.439231
C67	C	0.929565	1.451131	0.060630
C68	C	0.929553	1.451090	-0.049094
C69	C	0.828601	1.585422	-0.049049
C70	C	0.828610	1.585457	0.060673
H71	H	0.288295	0.919374	0.384655
H72	H	0.787498	1.640090	-0.093711
O73	O	0.978584	1.909972	0.638706
C74	C	1.023112	1.981941	0.697982
H75	H	1.025797	2.060147	0.654960
H76	H	0.994272	1.993620	0.777815
C77	C	1.103784	1.843081	0.765848
C78	C	1.107088	1.939133	0.713002
H79	H	1.155584	1.816675	0.775118
H80	H	1.073783	1.794593	0.725916
H81	H	1.079747	1.852827	0.832369
H82	H	1.131115	1.929384	0.646477
H83	H	1.137095	1.987619	0.752924
O84	O	0.479386	0.910812	0.638764
C85	C	0.434545	0.847371	0.706701
H86	H	0.372425	0.880452	0.713303
H87	H	0.431802	0.764197	0.674238
C88	C	0.549482	0.805107	0.807738
C89	C	0.473186	0.845743	0.815854
H90	H	0.573318	0.804098	0.875068
H91	H	0.579693	0.847845	0.761966
H92	H	0.547185	0.735799	0.780682
H93	H	0.475484	0.915054	0.842898
H94	H	0.442976	0.803016	0.861634
H95	H	0.471557	1.118530	0.628077
H96	H	0.288232	1.640507	1.106401
O97	O	0.779556	1.650822	0.113827
C98	C	0.734985	1.710065	0.041901
H99	H	0.767284	1.713700	-0.036325
H100	H	0.675094	1.671557	0.030253
C101	C	0.683899	1.817423	0.180820
C102	C	0.723572	1.821895	0.084743
H103	H	0.676855	1.886404	0.207247
H104	H	0.713925	1.777508	0.229279
H105	H	0.633994	1.785329	0.171100
H106	H	0.773480	1.853977	0.094467
H107	H	0.693554	1.861818	0.036286
H108	H	0.288277	1.118442	0.384617
H109	H	0.288293	1.640477	0.907354
O110	O	0.479161	1.386171	1.115199
C111	C	0.468304	1.400585	1.223806
H112	H	0.442472	1.481678	1.238799
H113	H	0.426286	1.338290	1.254924
C114	C	0.579826	1.291337	1.261740
C115	C	0.548105	1.390941	1.280156
H116	H	0.629050	1.285384	1.296501
H117	H	0.587139	1.281622	1.188570
H118	H	0.544804	1.239436	1.287672
H119	H	0.583122	1.442839	1.254212
H120	H	0.540799	1.400665	1.353324
H121	H	0.970648	1.396381	-0.093772
H122	H	0.787334	2.117434	0.384614
H123	H	0.787378	1.918366	0.384559
H124	H	0.970673	1.396457	0.105276
H125	H	0.471319	1.396582	0.907356
H126	H	0.970530	2.117481	0.628166
