data_functionalizedCrystal
_audit_creation_method	'MofGen! by Chris Wilmer'
_symmetry_space_group_name_H-M	'P1'
_symmetry_Int_Tables_number	1
_symmetry_cell_setting	triclinic
loop_
_symmetry_equiv_pos_as_xyz
  x,y,z
_cell_length_a	18.215405
_cell_length_b	12.827893
_cell_length_c	18.215399
_cell_angle_alpha	89.982296
_cell_angle_beta	89.972459
_cell_angle_gamma	90.022702
loop_
_atom_site_label
_atom_site_type_symbol
_atom_site_fract_x
_atom_site_fract_y
_atom_site_fract_z
Zn1	Zn	-0.292992	1.597600	-0.416076
Zn2	Zn	0.040341	1.930933	-0.082743
Zn3	Zn	0.373674	2.264267	0.250591
Zn4	Zn	-0.416064	1.597477	-0.293011
Zn5	Zn	-0.082730	1.930810	0.040323
Zn6	Zn	0.250603	2.264143	0.373656
Zn7	Zn	-0.293015	1.422846	-0.293028
Zn8	Zn	0.040318	1.756180	0.040305
Zn9	Zn	0.373651	2.089513	0.373639
Zn10	Zn	-0.416022	1.422804	-0.416040
Zn11	Zn	-0.082688	1.756138	-0.082707
Zn12	Zn	0.250645	2.089471	0.250626
O13	O	-0.354523	1.510182	-0.354539
O14	O	-0.021190	1.843515	-0.021205
O15	O	0.312143	2.176849	0.312128
O16	O	-0.309326	1.743820	-0.399759
O17	O	0.024007	2.077153	-0.066426
O18	O	0.357341	2.410486	0.266908
O19	O	-0.399768	1.574277	-0.190029
O20	O	-0.066435	1.907611	0.143305
O21	O	0.266898	2.240944	0.476638
O22	O	-0.190028	1.446097	-0.309373
O23	O	0.143305	1.779430	0.023960
O24	O	0.476639	2.112764	0.357294
O25	O	-0.399746	1.743729	-0.309343
O26	O	-0.066413	2.077062	0.023990
O27	O	0.266921	2.410396	0.357323
O28	O	-0.190011	1.574488	-0.399776
O29	O	0.143322	1.907821	-0.066443
O30	O	0.476655	2.241155	0.266891
O31	O	-0.309365	1.445977	-0.190041
O32	O	0.023968	1.779311	0.143292
O33	O	0.357301	2.112644	0.476625
O34	O	-0.309325	1.276605	-0.309338
O35	O	0.024009	1.609938	0.023995
O36	O	0.357342	1.943271	0.357329
O37	O	-0.399674	1.446026	-0.519029
O38	O	-0.066341	1.779359	-0.185696
O39	O	0.266992	2.112692	0.147637
O40	O	-0.399697	1.276574	-0.399715
O41	O	-0.066363	1.609907	-0.066381
O42	O	0.266970	1.943241	0.266952
O43	O	-0.309285	1.574447	-0.519056
O44	O	0.024048	1.907781	-0.185722
O45	O	0.357381	2.241114	0.147611
O46	O	-0.519042	1.574237	-0.309309
O47	O	-0.185709	1.907570	0.024025
O48	O	0.147624	2.240903	0.357358
O49	O	-0.519012	1.445906	-0.399698
O50	O	-0.185678	1.779239	-0.066364
O51	O	0.147655	2.112573	0.266969
C52	C	-0.354509	1.238672	-0.354525
C53	C	-0.021176	1.572005	-0.021191
C54	C	0.312158	1.905339	0.312142
C55	C	-0.354521	1.122519	-0.354536
C56	C	-0.021187	1.455852	-0.021203
C57	C	0.312146	1.789185	0.312130
C58	C	-0.399310	1.070746	-0.399188
C59	C	-0.065976	1.404080	-0.065855
C60	C	0.267357	1.737413	0.267478
C61	C	-0.399323	0.950696	-0.399201
C62	C	-0.065989	1.284029	-0.065868
C63	C	0.267344	1.617363	0.267465
C64	C	-0.545730	1.510082	-0.354513
C65	C	-0.212396	1.843415	-0.021180
C66	C	0.120937	2.176748	0.312153
C67	C	-0.627528	1.510134	-0.354527
C68	C	-0.294195	1.843468	-0.021194
C69	C	0.039138	2.176801	0.312139
C70	C	-0.815653	1.577019	-0.401664
C71	C	-0.482319	1.910353	-0.068330
C72	C	-0.148986	2.243686	0.265003
C73	C	-0.892511	1.577057	-0.401678
C74	C	-0.559178	1.910391	-0.068344
C75	C	-0.225845	2.243724	0.264989
C76	C	-0.892642	1.443474	-0.307460
C77	C	-0.559309	1.776807	0.025874
C78	C	-0.225975	2.110140	0.359207
C79	C	-0.815785	1.443431	-0.307450
C80	C	-0.482451	1.776764	0.025883
C81	C	-0.149118	2.110098	0.359217
C82	C	-0.777292	1.510210	-0.354551
C83	C	-0.443959	1.843543	-0.021218
C84	C	-0.110625	2.176877	0.312116
C85	C	-0.931008	1.510290	-0.354574
C86	C	-0.597675	1.843624	-0.021241
C87	C	-0.264341	2.176957	0.312092
C88	C	-1.014342	1.510331	-0.354589
C89	C	-0.681008	1.843664	-0.021256
C90	C	-0.347675	2.176998	0.312078
C91	C	-0.693953	1.510168	-0.354538
C92	C	-0.360620	1.843502	-0.021204
C93	C	-0.027286	2.176835	0.312129
C94	C	-0.162570	1.510311	-0.354580
C95	C	0.170763	1.843644	-0.021247
C96	C	0.504096	2.176978	0.312086
C97	C	-0.080771	1.510366	-0.354598
C98	C	0.252562	1.843699	-0.021265
C99	C	0.585895	2.177033	0.312069
C100	C	-0.354473	1.510246	-0.546492
C101	C	-0.021139	1.843579	-0.213158
C102	C	0.312194	2.176912	0.120175
C103	C	-0.354451	1.510273	-0.628291
C104	C	-0.021118	1.843606	-0.294957
C105	C	0.312216	2.176939	0.038376
C106	C	-0.354538	1.782752	-0.354553
C107	C	-0.021205	2.116085	-0.021220
C108	C	0.312129	2.449419	0.312113
C109	C	-0.354544	1.898905	-0.354559
C110	C	-0.021211	2.232238	-0.021226
C111	C	0.312122	2.565572	0.312107
C112	C	-0.307341	1.577166	-0.816500
C113	C	0.025992	1.910499	-0.483166
C114	C	0.359325	2.243833	-0.149833
C115	C	-0.307320	1.577178	-0.893358
C116	C	0.026013	1.910512	-0.560025
C117	C	0.359347	2.243845	-0.226692
C118	C	-0.401447	1.443453	-0.893320
C119	C	-0.068113	1.776787	-0.559986
C120	C	0.265220	2.110120	-0.226653
C121	C	-0.401464	1.443436	-0.816462
C122	C	-0.068131	1.776770	-0.483129
C123	C	0.265203	2.110103	-0.149796
C124	C	-0.354412	1.510299	-0.778054
C125	C	-0.021079	1.843632	-0.444721
C126	C	0.312254	2.176965	-0.111388
C127	C	-0.354374	1.510328	-0.931771
C128	C	-0.021040	1.843661	-0.598437
C129	C	0.312293	2.176995	-0.265104
C130	C	-0.354351	1.510341	-1.015104
C131	C	-0.021017	1.843674	-0.681771
C132	C	0.312316	2.177008	-0.348438
C133	C	-0.354434	1.510284	-0.694715
C134	C	-0.021101	1.843618	-0.361382
C135	C	0.312233	2.176951	-0.028049
C136	C	-0.354521	1.510179	-0.163333
C137	C	-0.021187	1.843512	0.170001
C138	C	0.312146	2.176845	0.503334
C139	C	-0.354335	1.510354	-0.081534
C140	C	-0.021002	1.843687	0.251799
C141	C	0.312332	2.177021	0.585133
H142	H	-0.316182	1.077966	-0.316320
H143	H	0.017151	1.411300	0.017013
H144	H	0.350485	1.744633	0.350346
H145	H	-0.923741	1.631458	-0.440043
H146	H	-0.590408	1.964791	-0.106710
H147	H	-0.257074	2.298125	0.226624
Br148	Br	-0.944887	1.352846	-0.243542
Br149	Br	-0.611553	1.686179	0.089791
Br150	Br	-0.278220	2.019513	0.423124
Br151	Br	-0.763414	1.667645	-0.465587
Br152	Br	-0.430081	2.000979	-0.132254
Br153	Br	-0.096748	2.334312	0.201079
Br154	Br	-0.463211	1.144992	-0.462891
Br155	Br	-0.129878	1.478326	-0.129558
Br156	Br	0.203456	1.811659	0.203776
H157	H	-0.316200	0.943421	-0.316327
H158	H	0.017134	1.276755	0.017007
H159	H	0.350467	1.610088	0.350340
Br160	Br	-0.763719	1.352743	-0.243515
Br161	Br	-0.430385	1.686076	0.089819
Br162	Br	-0.097052	2.019409	0.423152
H163	H	-0.268989	1.631627	-0.924657
H164	H	0.064345	1.964960	-0.591324
H165	H	0.397678	2.298293	-0.257991
Br166	Br	-0.465302	1.352720	-0.945449
Br167	Br	-0.131969	1.686053	-0.612116
Br168	Br	0.201365	2.019387	-0.278783
H169	H	-0.269027	1.631606	-0.785230
H170	H	0.064306	1.964940	-0.451897
H171	H	0.397640	2.298273	-0.118563
H172	H	-0.439794	1.388978	-0.785159
H173	H	-0.106461	1.722311	-0.451826
H174	H	0.226872	2.055644	-0.118493
H175	H	-0.437670	0.906173	-0.437428
H176	H	-0.104337	1.239506	-0.104094
H177	H	0.228996	1.572840	0.229239
