data_functionalizedCrystal
_audit_creation_method	'MofGen! by Chris Wilmer'
_symmetry_space_group_name_H-M	'P1'
_symmetry_Int_Tables_number	1
_symmetry_cell_setting	triclinic
loop_
_symmetry_equiv_pos_as_xyz
  x,y,z
_cell_length_a	15.995292
_cell_length_b	15.995350
_cell_length_c	26.210047
_cell_angle_alpha	89.990744
_cell_angle_beta	89.993431
_cell_angle_gamma	96.519505
loop_
_atom_site_label
_atom_site_type_symbol
_atom_site_fract_x
_atom_site_fract_y
_atom_site_fract_z
O1	O	1.111000	-0.107705	0.042440
O2	O	1.611000	0.392295	0.542440
O3	O	0.867218	-0.121083	0.042438
O4	O	1.367218	0.378917	0.542438
O5	O	0.995773	0.007495	0.042439
O6	O	1.495773	0.507495	0.542439
O7	O	0.982445	-0.236283	0.042439
O8	O	1.482445	0.263717	0.542439
O9	O	0.995794	0.007519	-0.042419
O10	O	1.495794	0.507519	0.457581
O11	O	0.867239	-0.121059	-0.042420
O12	O	1.367239	0.378941	0.457580
O13	O	1.111021	-0.107681	-0.042418
O14	O	1.611021	0.392319	0.457582
Cu15	Cu	0.989132	-0.114368	-0.050167
Cu16	Cu	1.489132	0.385632	0.449833
Cu17	Cu	0.989107	-0.114396	0.050187
Cu18	Cu	1.489107	0.385604	0.550187
O19	O	0.982466	-0.236259	-0.042419
O20	O	1.482466	0.263741	0.457581
C21	C	0.836033	-0.120527	0.000009
C22	C	1.336033	0.379473	0.500009
C23	C	0.743080	-0.118894	0.000008
C24	C	1.243080	0.381106	0.500008
C25	C	0.405341	-0.112893	0.000014
C26	C	0.905341	0.387107	0.500014
C27	C	0.428654	-0.205697	0.000203
C28	C	0.928654	0.294303	0.500203
C29	C	0.525329	-0.207461	0.000010
C30	C	1.025329	0.292539	0.500010
C31	C	0.572897	-0.115871	0.000011
C32	C	1.072897	0.384129	0.500011
C33	C	0.543807	-0.069459	-0.048446
C34	C	1.043807	0.430541	0.451554
C35	C	0.447017	-0.068342	-0.048484
C36	C	0.947017	0.431658	0.451516
C37	C	0.447138	-0.066474	0.048016
C38	C	0.947138	0.433526	0.548016
C39	C	0.543630	-0.069914	0.048654
C40	C	1.043630	0.430086	0.548654
C41	C	0.667593	-0.117549	0.000008
C42	C	1.167593	0.382451	0.500008
C43	C	0.310646	-0.111212	0.000013
C44	C	0.810646	0.388788	0.500013
C45	C	0.995232	0.038702	0.000011
C46	C	1.495232	0.538702	0.500011
C47	C	0.993580	0.131652	0.000013
C48	C	1.493580	0.631652	0.500013
C49	C	1.142206	-0.108237	0.000013
C50	C	1.642206	0.391763	0.500013
C51	C	1.235159	-0.109870	0.000017
C52	C	1.735159	0.390130	0.500017
N53	N	0.989090	-0.114410	0.120771
N54	N	1.489090	0.385590	0.620771
C55	C	0.983006	-0.267466	0.000011
C56	C	1.483006	0.232534	0.500011
C57	C	0.984658	-0.360416	0.000011
C58	C	1.484658	0.139584	0.500011
C59	C	0.987648	0.469398	0.000012
C60	C	1.487648	0.969398	0.500012
C61	C	0.896094	0.421945	0.000201
C62	C	1.396094	0.921945	0.500201
C63	C	0.897746	0.325255	0.000010
C64	C	1.397746	0.825255	0.500010
C65	C	0.990591	0.301838	0.000013
C66	C	1.490591	0.801838	0.500013
C67	C	1.035760	0.342939	-0.048444
C68	C	1.535760	0.842939	0.451556
C69	C	1.033461	0.439574	-0.048485
C70	C	1.533461	0.939574	0.451515
C71	C	1.035328	0.439905	0.048015
C72	C	1.535328	0.939905	0.548015
C73	C	1.035306	0.342960	0.048655
C74	C	1.535306	0.842960	0.548655
C75	C	0.992259	0.207141	0.000012
C76	C	1.492259	0.707141	0.500012
C77	C	0.985983	0.564095	0.000009
C78	C	1.485983	1.064095	0.500009
N79	N	0.989155	-0.114347	-0.120751
N80	N	1.489155	0.385653	0.379249
C81	C	1.046170	-0.057567	0.473286
C82	C	1.546170	0.442433	0.973286
C83	C	1.046183	-0.057549	0.686944
C84	C	1.546183	0.442451	1.186944
O85	O	1.094710	-0.009250	0.714566
O86	O	1.594710	0.490750	1.214566
N87	N	0.989150	-0.114364	0.713665
N88	N	1.489150	0.385636	1.213665
C89	C	0.932114	-0.171190	0.686968
C90	C	1.432114	0.328810	1.186968
O91	O	0.883611	-0.219520	0.714598
O92	O	1.383611	0.280480	1.214598
C93	C	0.932107	-0.171211	0.473311
C94	C	1.432107	0.328789	0.973311
C95	C	0.989137	-0.114387	0.446592
C96	C	1.489137	0.385613	0.946592
C97	C	1.103197	-0.000748	0.446567
C98	C	1.603197	0.499252	0.946567
C99	C	1.103190	-0.000750	0.393156
C100	C	1.603190	0.499250	0.893156
C101	C	1.046157	-0.057571	0.366463
C102	C	1.546157	0.442429	0.866463
C103	C	0.989131	-0.114389	0.393181
C104	C	1.489131	0.385611	0.893181
C105	C	0.875076	-0.228041	0.446615
C106	C	1.375076	0.271959	0.946615
C107	C	0.875080	-0.228043	0.393197
C108	C	1.375080	0.271957	0.893197
C109	C	0.932111	-0.171219	0.366479
C110	C	1.432111	0.328781	0.866479
C111	C	0.932091	-0.171212	0.313076
C112	C	1.432091	0.328788	0.813076
N113	N	0.989123	-0.114397	0.286355
N114	N	1.489123	0.385603	0.786355
C115	C	1.046156	-0.057577	0.313049
C116	C	1.546156	0.442423	0.813049
C117	C	0.932121	-0.171174	0.799141
C118	C	1.432121	0.328826	1.299141
C119	C	0.932122	-0.171168	0.852556
C120	C	1.432122	0.328832	1.352556
C121	C	1.046192	-0.057528	0.852528
C122	C	1.546192	0.442472	1.352528
C123	C	1.046186	-0.057530	0.799113
C124	C	1.546186	0.442470	1.299113
C125	C	0.989154	-0.114360	0.772421
C126	C	1.489154	0.385640	1.272421
C127	C	1.046137	-0.057585	0.200881
C128	C	1.546137	0.442415	0.700881
C129	C	1.046123	-0.057589	0.147464
C130	C	1.546123	0.442411	0.647464
C131	C	0.932057	-0.171232	0.147497
C132	C	1.432057	0.328768	0.647497
C133	C	0.932068	-0.171225	0.200908
C134	C	1.432068	0.328775	0.700908
C135	C	0.989115	-0.114398	0.227599
C136	C	1.489115	0.385602	0.727599
O137	O	0.883595	-0.219491	0.285421
O138	O	1.383595	0.280509	0.785421
O139	O	1.094665	-0.009267	0.285409
O140	O	1.594665	0.490733	0.785409
C141	C	1.046177	-0.057565	0.526697
C142	C	1.546177	0.442435	1.026697
C143	C	0.989151	-0.114384	0.553415
C144	C	1.489151	0.385616	1.053415
C145	C	0.932118	-0.171204	0.526722
C146	C	1.432118	0.328796	1.026722
C147	C	0.989151	-0.114377	0.606829
C148	C	1.489151	0.385623	1.106829
C149	C	1.046184	-0.057557	0.633523
C150	C	1.546184	0.442443	1.133523
C151	C	1.103217	-0.000742	0.606802
C152	C	1.603217	0.499258	1.106802
C153	C	1.103210	-0.000744	0.553390
C154	C	1.603210	0.499256	1.053390
C155	C	0.875085	-0.228019	0.553443
C156	C	1.375085	0.271981	1.053443
C157	C	0.875096	-0.228011	0.606854
C158	C	1.375096	0.271989	1.106854
C159	C	0.932129	-0.171191	0.633548
C160	C	1.432129	0.328809	1.133548
H161	H	0.420209	-0.100465	-0.084707
H162	H	0.920209	0.399535	0.415293
H163	H	0.862019	0.297393	-0.034786
H164	H	1.362019	0.797393	0.465214
O165	O	0.427732	0.021785	-0.051406
O166	O	0.927732	0.521785	0.448594
H167	H	0.487516	0.064380	-0.052790
H168	H	0.987516	0.564380	0.447210
O169	O	0.870628	-0.232495	0.770354
O170	O	1.370628	0.267505	1.270354
H171	H	0.830980	-0.272000	0.797913
H172	H	1.330980	0.228000	1.297913
O173	O	1.107708	0.003745	0.770296
O174	O	1.607708	0.503745	1.270296
H175	H	1.147368	0.043249	0.797836
H176	H	1.647368	0.543249	1.297836
O177	O	1.122493	0.482320	-0.051406
O178	O	1.622493	0.982320	0.448594
H179	H	1.166998	0.433942	-0.052788
H180	H	1.666998	0.933942	0.447212
O181	O	0.570388	-0.112116	-0.096218
O182	O	1.070388	0.387884	0.403782
H183	H	0.513824	-0.134661	-0.119022
H184	H	1.013824	0.365339	0.380978
O185	O	0.995697	0.467084	0.096676
O186	O	1.495697	0.967084	0.596676
H187	H	0.929059	0.438926	0.098398
H188	H	1.429059	0.938926	0.598398
H189	H	1.092629	-0.011261	0.874271
H190	H	1.592629	0.488739	1.374271
H191	H	0.885619	-0.217493	0.125755
H192	H	1.385619	0.282507	0.625755
O193	O	0.813573	-0.289295	0.635671
O194	O	1.313573	0.210705	1.135671
H195	H	0.848732	-0.330075	0.660010
H196	H	1.348732	0.169925	1.160010
H197	H	1.102831	0.471680	0.048343
H198	H	1.602831	0.971680	0.548343
O199	O	0.847608	0.446479	0.046228
O200	O	1.347608	0.946479	0.546228
H201	H	0.827963	0.389677	0.069523
H202	H	1.327963	0.889677	0.569523
H203	H	0.544347	-0.243803	0.034747
H204	H	1.044347	0.256197	0.534747
O205	O	0.870607	-0.232451	0.881372
O206	O	1.370607	0.267549	1.381372
H207	H	0.830958	-0.271966	0.853831
H208	H	1.330958	0.228034	1.353831
H209	H	1.149644	0.045522	0.468296
H210	H	1.649644	0.545522	0.968296
H211	H	1.002281	0.315694	0.084502
H212	H	1.502281	0.815694	0.584502
H213	H	1.103972	0.328828	-0.050244
H214	H	1.603972	0.828828	0.449756
H215	H	1.149653	0.045526	0.628544
H216	H	1.649653	0.545526	1.128544
H217	H	1.092564	-0.011314	0.125712
H218	H	1.592564	0.488686	0.625712
O219	O	0.847845	0.447897	-0.045573
O220	O	1.347845	0.947897	0.454427
H221	H	0.783312	0.414042	-0.045069
H222	H	1.283312	0.914042	0.454931
O223	O	0.994236	0.305355	-0.096216
O224	O	1.494236	0.805355	0.403784
H225	H	0.941434	0.257416	-0.085569
H226	H	1.441434	0.757416	0.414431
H227	H	1.149631	0.045518	0.371405
H228	H	1.649631	0.545518	0.871405
O229	O	0.390237	-0.252800	-0.045573
O230	O	0.890237	0.247200	0.454427
H231	H	0.346990	-0.307832	-0.032521
H232	H	0.846990	0.192168	0.467479
H233	H	1.103012	0.327611	0.051583
H234	H	1.603012	0.827611	0.551583
H235	H	0.543741	-0.244008	-0.034785
H236	H	1.043741	0.255992	0.465215
O237	O	0.850712	0.287580	0.046020
O238	O	1.350712	0.787580	0.546020
H239	H	0.851850	0.218327	0.045931
H240	H	1.351850	0.718327	0.545931
H241	H	1.000540	0.457879	-0.084709
H242	H	1.500540	0.957879	0.415291
H243	H	1.092591	-0.011312	0.222606
H244	H	1.592591	0.488688	0.722606
H245	H	0.828637	-0.274313	0.468361
H246	H	1.328637	0.225687	0.968361
O247	O	0.813575	-0.289348	0.364406
O248	O	1.313575	0.210652	0.864406
H249	H	0.773924	-0.328855	0.391962
H250	H	1.273924	0.171145	0.891962
O251	O	0.870557	-0.232509	0.229731
O252	O	1.370557	0.267491	0.729731
H253	H	0.830901	-0.272022	0.202193
H254	H	1.330901	0.227978	0.702193
O255	O	0.586030	0.019813	-0.050844
O256	O	1.086030	0.519813	0.449156
H257	H	0.628299	0.032078	-0.017445
H258	H	1.128299	0.532078	0.482555
H259	H	0.433144	0.001836	0.048344
H260	H	0.933144	0.501836	0.548344
H261	H	0.828643	-0.274290	0.531713
H262	H	1.328643	0.225710	1.031713
O263	O	0.391547	-0.253110	0.046227
O264	O	0.891547	0.246890	0.546227
H265	H	0.356087	-0.211041	0.069458
H266	H	0.856087	0.288959	0.569458
O267	O	0.409705	-0.104986	0.096671
O268	O	0.909705	0.395014	0.596671
H269	H	0.420327	-0.172307	0.098381
H270	H	0.920327	0.327693	0.598381
H271	H	1.149650	0.045527	0.531640
H272	H	1.649650	0.545527	1.031640
H273	H	0.562191	-0.103706	0.084502
H274	H	1.062191	0.396294	0.584502
H275	H	0.576599	-0.003063	0.051581
H276	H	1.076599	0.496937	0.551581
