data_functionalizedCrystal
_audit_creation_method	'MofGen! by Chris Wilmer'
_symmetry_space_group_name_H-M	'P1'
_symmetry_Int_Tables_number	1
_symmetry_cell_setting	triclinic
loop_
_symmetry_equiv_pos_as_xyz
  x,y,z
_cell_length_a	14.908780
_cell_length_b	14.908520
_cell_length_c	14.910698
_cell_angle_alpha	83.660167
_cell_angle_beta	90.267033
_cell_angle_gamma	96.789949
loop_
_atom_site_label
_atom_site_type_symbol
_atom_site_fract_x
_atom_site_fract_y
_atom_site_fract_z
Zn1	Zn	-1.326584	0.317392	-0.604941
Zn2	Zn	-0.826584	0.817392	-0.104941
Zn3	Zn	-1.326338	0.460112	-0.462335
Zn4	Zn	-0.826338	0.960112	0.037665
Zn5	Zn	-1.184797	0.316482	-0.445888
Zn6	Zn	-0.684797	0.816482	0.054112
Zn7	Zn	-1.166449	0.477428	-0.604864
Zn8	Zn	-0.666449	0.977428	-0.104864
O9	O	-1.251042	0.392854	-0.529507
O10	O	-0.751042	0.892854	-0.029507
O11	O	-1.452804	0.329458	-0.592939
O12	O	-0.952804	0.829458	-0.092939
O13	O	-1.315138	0.433432	-0.333941
O14	O	-0.815138	0.933432	0.166059
O15	O	-1.211388	0.189518	-0.460136
O16	O	-0.711388	0.689518	0.039864
O17	O	-1.452623	0.434314	-0.488168
O18	O	-0.952623	0.934314	0.011832
O19	O	-1.315557	0.190186	-0.576991
O20	O	-0.815557	0.690186	-0.076991
O21	O	-1.211149	0.327908	-0.321857
O22	O	-0.711149	0.827908	0.178143
O23	O	-1.056111	0.344698	-0.460062
O24	O	-0.556111	0.844698	0.039938
O25	O	-1.180115	0.463827	-0.731087
O26	O	-0.680115	0.963827	-0.231087
O27	O	-1.042631	0.462944	-0.576861
O28	O	-0.542631	0.962944	-0.076861
O29	O	-1.297766	0.346249	-0.731144
O30	O	-0.797766	0.846249	-0.231144
O31	O	-1.297347	0.589495	-0.488093
O32	O	-0.797347	1.089495	0.011907
O33	O	-1.179877	0.602217	-0.592809
O34	O	-0.679877	1.102217	-0.092809
C35	C	-1.016635	0.405602	-0.516669
C36	C	-0.516635	0.905602	-0.016669
C37	C	-0.916352	0.411079	-0.511199
C38	C	-0.416352	0.911079	-0.011199
C39	C	-0.728076	0.312354	-0.610204
C40	C	-0.228076	0.812354	-0.110204
C41	C	-0.633851	0.317497	-0.605067
C42	C	-0.133851	0.817497	-0.105067
C43	C	-0.633677	0.426503	-0.495785
C44	C	-0.133677	0.926503	0.004215
C45	C	-0.727901	0.421360	-0.500922
C46	C	-0.227901	0.921360	-0.000922
C47	C	-0.775098	0.364285	-0.558134
C48	C	-0.275098	0.864285	-0.058134
C49	C	-0.869323	0.359147	-0.563275
C50	C	-0.369323	0.859147	-0.063275
C51	C	-0.869148	0.468147	-0.453988
C52	C	-0.369148	0.968147	0.046012
C53	C	-0.774923	0.473290	-0.448851
C54	C	-0.274923	0.973290	0.051149
C55	C	-1.236617	0.628807	-0.542249
C56	C	-0.736617	1.128807	-0.042249
C57	C	-1.230527	0.729747	-0.547734
C58	C	-0.730527	1.229747	-0.047734
C59	C	-1.236921	0.407071	-0.764756
C60	C	-0.736921	0.907071	-0.264756
C61	C	-1.230904	0.413129	-0.865005
C62	C	-0.730904	0.913129	-0.365005
C63	C	-0.486365	0.380048	-0.542389
C64	C	0.013635	0.880048	-0.042389
C65	C	-0.586648	0.374571	-0.547861
C66	C	-0.086648	0.874571	-0.047861
C67	C	-1.265547	0.155979	-0.516737
C68	C	-0.765547	0.655979	-0.016737
C69	C	-1.271728	0.055037	-0.511295
C70	C	-0.771728	0.555037	-0.011295
C71	C	-1.341517	0.906113	-0.449101
C72	C	-0.841517	1.406113	0.050899
C73	C	-1.335798	1.000954	-0.454253
C74	C	-0.835798	1.500954	0.045747
C75	C	-1.213374	1.014272	-0.563192
C76	C	-0.713374	1.514272	-0.063192
C77	C	-1.219093	0.919431	-0.558041
C78	C	-0.719093	1.419431	-0.058041
C79	C	-1.283166	0.865354	-0.500993
C80	C	-0.783166	1.365354	-0.000993
C81	C	-1.288880	0.770512	-0.495837
C82	C	-0.788880	1.270512	0.004163
C83	C	-1.166462	0.783831	-0.604781
C84	C	-0.666462	1.283831	-0.104781
C85	C	-1.160743	0.878672	-0.609932
C86	C	-0.660743	1.378672	-0.109932
C87	C	-1.265164	0.378624	-0.295173
C88	C	-0.765164	0.878624	0.204827
C89	C	-1.271372	0.372300	-0.194920
C90	C	-0.771372	0.872300	0.305080
C91	C	-1.340949	0.301796	-0.053843
C92	C	-0.840949	0.801796	0.446157
C93	C	-1.335127	0.307732	-0.148040
C94	C	-0.835127	0.807732	0.351960
C95	C	-1.213433	0.430934	-0.147597
C96	C	-0.713433	0.930934	0.352403
C97	C	-1.219255	0.424997	-0.053400
C98	C	-0.719255	0.924997	0.446600
C99	C	-1.283017	0.360427	-0.006527
C100	C	-0.783017	0.860427	0.493473
C101	C	-1.288843	0.354495	0.087671
C102	C	-0.788843	0.854495	0.587671
C103	C	-1.167145	0.477692	0.088114
C104	C	-0.667145	0.977692	0.588114
C105	C	-1.161322	0.483628	-0.006083
C106	C	-0.661322	0.983628	0.493917
H107	H	-0.907442	0.510441	-0.411596
H108	H	-0.407442	1.010441	0.088404
H109	H	-0.907749	0.312674	-0.609861
H110	H	-0.407749	0.812674	-0.109861
Br111	Br	-1.073796	0.952068	-0.687357
Br112	Br	-0.573796	1.452068	-0.187357
H113	H	-0.736484	0.519757	-0.402268
H114	H	-0.236484	1.019757	0.097732
Br115	Br	-0.570038	0.247013	-0.675732
Br116	Br	-0.070038	0.747013	-0.175732
H117	H	-1.118946	0.750635	-0.647032
H118	H	-0.618946	1.250635	-0.147032
Br119	Br	-1.413750	0.228155	-0.212253
Br120	Br	-0.913750	0.728155	0.287747
Br121	Br	-1.375378	0.266870	0.151285
Br122	Br	-0.875378	0.766870	0.651285
H123	H	-1.119974	0.525436	0.126648
H124	H	-0.619974	1.025436	0.626648
H125	H	-1.161521	0.483503	-0.185777
H126	H	-0.661521	0.983503	0.314223
Br127	Br	-1.427491	0.214180	0.009774
Br128	Br	-0.927491	0.714180	0.509774
H129	H	-1.341049	0.726483	-0.449383
H130	H	-0.841049	1.226483	0.050617
H131	H	-0.595235	0.472960	-0.449195
H132	H	-0.095235	0.972960	0.050805
Br133	Br	-1.126440	1.087675	-0.640625
Br134	Br	-0.626440	1.587675	-0.140625
H135	H	-1.109408	0.536198	-0.044260
H136	H	-0.609408	1.036198	0.455740
Br137	Br	-1.414996	1.056268	-0.383831
Br138	Br	-0.914996	1.556268	0.116169
Br139	Br	-0.792131	0.234910	-0.687858
Br140	Br	-0.292131	0.734910	-0.187858
Br141	Br	-1.428453	0.832720	-0.371663
Br142	Br	-0.928453	1.332720	0.128337
