data_functionalizedCrystal
_audit_creation_method	'MofGen! by Chris Wilmer'
_symmetry_space_group_name_H-M	'P1'
_symmetry_Int_Tables_number	1
_symmetry_cell_setting	triclinic
loop_
_symmetry_equiv_pos_as_xyz
  x,y,z
_cell_length_a	16.109301
_cell_length_b	16.109301
_cell_length_c	8.140239
_cell_angle_alpha	90.004566
_cell_angle_beta	89.998749
_cell_angle_gamma	83.461481
loop_
_atom_site_label
_atom_site_type_symbol
_atom_site_fract_x
_atom_site_fract_y
_atom_site_fract_z
O1	O	1.103128	0.106866	0.136515
O2	O	1.603128	0.606866	0.636515
O3	O	0.861066	0.120165	0.136542
O4	O	1.361066	0.620165	0.636542
O5	O	0.988747	-0.007516	0.136511
O6	O	1.488747	0.492484	0.636511
O7	O	0.975448	0.234546	0.136546
O8	O	1.475448	0.734546	0.636546
O9	O	0.988743	-0.007517	-0.136716
O10	O	1.488743	0.492483	0.363284
O11	O	0.861062	0.120164	-0.136686
O12	O	1.361062	0.620164	0.363314
O13	O	1.103124	0.106865	-0.136712
O14	O	1.603124	0.606865	0.363288
Zn15	Zn	0.982093	0.113514	-0.180080
Zn16	Zn	1.482093	0.613514	0.319920
Zn17	Zn	0.982098	0.113515	0.179909
Zn18	Zn	1.482098	0.613515	0.679909
O19	O	0.975444	0.234545	-0.136681
O20	O	1.475444	0.734545	0.363319
C21	C	0.830090	0.119626	-0.000069
C22	C	1.330090	0.619626	0.499931
C23	C	0.737794	0.118011	-0.000059
C24	C	1.237794	0.618011	0.499941
C25	C	0.515522	0.190018	-0.000068
C26	C	1.015522	0.690018	0.499932
C27	C	0.428801	0.188494	-0.000078
C28	C	0.928801	0.688494	0.499922
C29	C	0.448676	0.037006	-0.000094
C30	C	0.948676	0.537006	0.499906
C31	C	0.535394	0.038530	-0.000094
C32	C	1.035394	0.538530	0.499906
C33	C	0.568815	0.115039	-0.000073
C34	C	1.068815	0.615039	0.499927
C35	C	0.395376	0.111990	-0.000083
C36	C	0.895376	0.611990	0.499917
C37	C	0.301350	0.110337	-0.000095
C38	C	0.801350	0.610337	0.499905
C39	C	0.662847	0.116693	-0.000065
C40	C	1.162847	0.616693	0.499935
C41	C	0.988206	-0.038491	-0.000104
C42	C	1.488206	0.461509	0.499896
C43	C	0.986591	-0.130786	-0.000106
C44	C	1.486591	0.369214	0.499894
C45	C	1.058599	-0.353059	-0.000088
C46	C	1.558599	0.146941	0.499912
C47	C	1.057075	-0.439779	-0.000074
C48	C	1.557075	0.060221	0.499926
C49	C	0.905586	-0.419905	-0.000064
C50	C	1.405586	0.080095	0.499936
C51	C	0.907111	-0.333186	-0.000066
C52	C	1.407111	0.166814	0.499934
C53	C	0.983620	-0.299766	-0.000086
C54	C	1.483620	0.200234	0.499914
C55	C	0.980571	-0.473205	-0.000070
C56	C	1.480571	0.026795	0.499930
C57	C	0.978918	-0.567231	-0.000056
C58	C	1.478918	-0.067231	0.499944
C59	C	0.985273	-0.205734	-0.000098
C60	C	1.485273	0.294266	0.499902
C61	C	1.134101	0.107404	-0.000098
C62	C	1.634101	0.607404	0.499902
C63	C	1.226397	0.109019	-0.000097
C64	C	1.726397	0.609019	0.499903
C65	C	0.975984	0.265521	-0.000064
C66	C	1.475984	0.765521	0.499936
C67	C	0.977600	0.357816	-0.000051
C68	C	1.477600	0.857816	0.499949
N69	N	0.982095	0.113513	-0.425762
N70	N	1.482095	0.613513	0.074238
N71	N	0.982102	0.113510	0.425591
N72	N	1.482102	0.613510	0.925591
H73	H	0.542730	0.252317	-0.000063
H74	H	1.042730	0.752317	0.499937
F75	F	0.372086	0.268298	-0.000075
F76	F	0.872086	0.768298	0.499925
H77	H	0.421454	-0.025285	-0.000121
H78	H	0.921454	0.474715	0.499879
F79	F	0.827304	-0.276464	-0.000052
F80	F	1.327304	0.223536	0.499948
H81	H	0.578788	-0.022530	-0.000104
H82	H	1.078788	0.477470	0.499896
H83	H	1.120897	-0.325851	-0.000101
H84	H	1.620897	0.174149	0.499899
H85	H	0.843295	-0.447127	-0.000050
H86	H	1.343295	0.052873	0.499950
H87	H	1.118130	-0.483168	-0.000072
H88	H	1.618130	0.016832	0.499928
