data_functionalizedCrystal
_audit_creation_method	'MofGen! by Chris Wilmer'
_symmetry_space_group_name_H-M	'P1'
_symmetry_Int_Tables_number	1
_symmetry_cell_setting	triclinic
loop_
_symmetry_equiv_pos_as_xyz
  x,y,z
_cell_length_a	19.288867
_cell_length_b	9.130313
_cell_length_c	10.654550
_cell_angle_alpha	90.003751
_cell_angle_beta	83.811000
_cell_angle_gamma	90.001289
loop_
_atom_site_label
_atom_site_type_symbol
_atom_site_fract_x
_atom_site_fract_y
_atom_site_fract_z
O1	O	0.922372	0.121748	0.156666
O2	O	0.720249	0.121762	0.177796
O3	O	0.825958	0.121745	-0.015608
O4	O	0.816663	0.121764	0.350069
O5	O	0.825952	-0.121854	-0.015612
O6	O	0.720244	-0.121837	0.177792
O7	O	0.922366	-0.121851	0.156662
Cu8	Cu	0.821304	-0.144087	0.167227
Cu9	Cu	0.821311	0.143997	0.167231
O10	O	0.816657	-0.121835	0.350066
C11	C	0.694366	-0.000036	0.177114
C12	C	0.617249	-0.000031	0.175071
C13	C	0.825272	-0.000053	-0.062393
C14	C	0.823230	-0.000051	-0.201793
C15	C	0.061590	0.132737	0.160363
C16	C	0.134050	0.132743	0.162275
C17	C	0.170282	-0.000042	0.163234
C18	C	0.134050	-0.132843	0.162250
C19	C	0.061592	-0.132845	0.160326
C20	C	0.280108	-0.101769	0.239831
C21	C	0.352564	-0.101762	0.241763
C22	C	0.393766	-0.000042	0.169163
C23	C	0.362503	0.101694	0.094647
C24	C	0.290045	0.101693	0.092723
C25	C	0.248850	-0.000055	0.165320
C26	C	0.508560	0.132756	0.172210
C27	C	0.581022	0.132756	0.174114
C28	C	0.581019	-0.132834	0.174102
C29	C	0.508559	-0.132830	0.172186
C30	C	0.472334	-0.000031	0.171246
C31	C	0.948249	-0.000050	0.157344
C32	C	1.025366	-0.000046	0.159386
N33	N	0.821304	-0.346709	0.167223
C34	C	0.868131	-0.576715	0.081615
C35	C	0.868127	-0.423378	0.081617
C36	C	0.774487	-0.423385	0.252842
C37	C	0.774495	-0.576719	0.252845
N38	N	0.821316	0.346620	0.167225
C39	C	0.885470	-0.000055	-0.282610
C40	C	0.883547	-0.000037	-0.413589
C41	C	0.757140	-0.000017	-0.382922
C42	C	0.759064	-0.000025	-0.251945
C43	C	0.817343	-0.000033	0.396851
C44	C	0.819385	-0.000026	0.536250
H45	H	0.163549	0.240874	0.163077
H46	H	0.736373	-0.639144	0.322564
H47	H	0.906248	-0.360962	0.011908
N48	N	0.723987	-0.340700	0.345180
H49	H	0.731083	-0.231930	0.332186
H50	H	0.674650	-0.367523	0.330895
H51	H	0.937718	-0.000073	-0.241781
N52	N	0.235672	-0.211487	0.318143
H53	H	0.209416	-0.274069	0.260999
H54	H	0.266515	-0.275824	0.365636
N55	N	0.469491	0.275989	0.171173
H56	H	0.444683	0.281902	0.092548
H57	H	0.434210	0.281835	0.248259
H58	H	0.934229	-0.000037	-0.479387
H59	H	0.708378	-0.000017	-0.186140
N60	N	0.687935	0.000004	-0.437016
H61	H	0.696159	0.000003	-0.532253
H62	H	0.660669	-0.090299	-0.407431
H63	H	0.032100	0.240873	0.159593
H64	H	0.264593	0.184528	0.032047
H65	H	0.396048	0.184528	0.035532
N66	N	0.620090	0.275988	0.175153
H67	H	0.602226	0.334036	0.252654
H68	H	0.671481	0.255730	0.176456
N69	N	0.620088	-0.276057	0.175123
H70	H	0.671487	-0.255909	0.176486
H71	H	0.602167	-0.334047	0.252614
H72	H	0.479065	-0.240957	0.171395
N73	N	0.386272	-0.211489	0.322139
H74	H	0.375517	-0.314000	0.294325
H75	H	0.438415	-0.195931	0.312326
N76	N	0.173120	-0.276066	0.163298
H77	H	0.165770	-0.334122	0.085131
H78	H	0.224503	-0.255800	0.164719
N79	N	0.022518	-0.276068	0.159271
H80	H	0.056520	-0.360186	0.159296
H81	H	-0.012472	-0.282292	0.236746
N82	N	0.918634	-0.659403	-0.010716
H83	H	0.948292	-0.587563	-0.064943
H84	H	0.949569	-0.723003	0.037233
