data_functionalizedCrystal
_audit_creation_method	'MofGen! by Chris Wilmer'
_symmetry_space_group_name_H-M	'P1'
_symmetry_Int_Tables_number	1
_symmetry_cell_setting	triclinic
loop_
_symmetry_equiv_pos_as_xyz
  x,y,z
_cell_length_a	12.759401
_cell_length_b	12.594516
_cell_length_c	12.759393
_cell_angle_alpha	90.029124
_cell_angle_beta	90.018496
_cell_angle_gamma	90.016214
loop_
_atom_site_label
_atom_site_type_symbol
_atom_site_fract_x
_atom_site_fract_y
_atom_site_fract_z
Zn1	Zn	1.606246	-0.423675	0.593999
Zn2	Zn	1.606136	-0.601694	0.418327
Zn3	Zn	1.430547	-0.423730	0.418339
Zn4	Zn	1.430532	-0.601612	0.593968
O5	O	1.518365	-0.512678	0.506158
O6	O	1.753252	-0.447300	0.570704
O7	O	1.582804	-0.578144	0.271307
O8	O	1.453907	-0.274777	0.441658
O9	O	1.753171	-0.578090	0.441638
O10	O	1.582991	-0.274736	0.570715
O11	O	1.453800	-0.447395	0.271316
O12	O	1.283524	-0.447316	0.441628
O13	O	1.453880	-0.577951	0.740993
O14	O	1.283513	-0.578005	0.570663
O15	O	1.582976	-0.447221	0.741016
O16	O	1.582789	-0.750629	0.441608
O17	O	1.453774	-0.750569	0.570651
C18	C	1.245398	-0.512658	0.506144
C19	C	1.128621	-0.512676	0.506163
C20	C	1.073781	-0.580834	0.573240
C21	C	0.964057	-0.580848	0.573251
C22	C	0.964023	-0.444541	0.439099
C23	C	1.073745	-0.444523	0.439094
C24	C	1.128657	-0.648987	0.640308
C25	C	1.073816	-0.717152	0.707390
C26	C	0.964092	-0.717165	0.707402
C27	C	0.909209	-0.649014	0.640331
C28	C	1.518296	-0.789219	0.506148
C29	C	1.518363	-0.907524	0.506179
C30	C	1.448185	-0.976783	0.576316
C31	C	1.422585	-1.047654	0.480449
C32	C	1.544058	-1.047453	0.602062
C33	C	1.492713	-0.976836	0.410261
C34	C	1.614230	-0.976629	0.531938
C35	C	1.588667	-1.047468	0.436006
C36	C	1.792398	-0.512698	0.506173
C37	C	1.909175	-0.512707	0.506179
C38	C	1.518439	-0.512570	0.780192
C39	C	1.518470	-0.512525	0.896968
C40	C	1.518463	-0.235057	0.506192
C41	C	1.518505	-0.116752	0.506206
C42	C	1.518352	-0.512708	0.233191
C43	C	1.518525	-0.512454	0.116415
C44	C	1.585700	-0.444447	0.951844
C45	C	1.585725	-0.444409	1.061568
C46	C	1.451288	-0.580534	1.061531
C47	C	1.451258	-0.580567	0.951809
C48	C	1.652912	-0.376405	0.897003
C49	C	1.720147	-0.308323	0.951879
C50	C	1.720172	-0.308284	1.061603
C51	C	1.652962	-0.376328	1.116451
H52	H	0.919328	-0.389056	0.384493
H53	H	1.388731	-0.945746	0.635542
F54	F	1.316698	-1.088428	0.451975
H55	H	1.118397	-0.389014	0.384482
H56	H	1.565734	-1.078472	0.683138
H57	H	1.470943	-0.945945	0.329163
F58	F	0.905730	-0.789703	0.778802
H59	H	1.652975	-0.376279	1.205796
F60	F	1.379704	-0.653021	0.893403
F61	F	1.666321	-1.087780	0.358409
H62	H	1.217999	-0.648985	0.640305
H63	H	1.396567	-0.635932	1.106198
F64	F	1.720089	-0.935823	0.560447
H65	H	1.118509	-0.772632	0.762003
F66	F	0.792429	-0.649024	0.640355
F67	F	1.791660	-0.235896	0.893504
F68	F	1.791730	-0.235828	1.120003
F69	F	1.652894	-0.376444	0.780225
