data_functionalizedCrystal
_audit_creation_method	'MofGen! by Chris Wilmer'
_symmetry_space_group_name_H-M	'P1'
_symmetry_Int_Tables_number	1
_symmetry_cell_setting	triclinic
loop_
_symmetry_equiv_pos_as_xyz
  x,y,z
_cell_length_a	6.817900
_cell_length_b	17.982959
_cell_length_c	11.102193
_cell_angle_alpha	94.235331
_cell_angle_beta	108.604059
_cell_angle_gamma	102.451857
loop_
_atom_site_label
_atom_site_type_symbol
_atom_site_fract_x
_atom_site_fract_y
_atom_site_fract_z
V1	V	-4.080382	-0.105418	-0.396788
O2	O	-4.072042	0.005060	-0.388689
O3	O	-4.026563	-0.209021	-0.394600
O4	O	-4.057634	-0.103799	-0.569602
O5	O	-4.040755	-0.100890	-0.212475
V6	V	-4.561388	-0.092203	-0.374679
O7	O	-4.347161	-0.134406	-0.445286
O8	O	-4.744806	-0.063216	-0.326181
O9	O	-4.392001	0.011399	-0.376868
O10	O	-4.687125	-0.202681	-0.382778
O11	O	-4.718412	-0.096731	-0.558992
O12	O	-4.360929	-0.093822	-0.201866
C13	C	-3.869415	-0.234277	-0.388476
C14	C	-3.906869	-0.318973	-0.387838
C15	C	-4.107326	-0.362645	-0.393898
C16	C	-4.142510	-0.442227	-0.393306
C17	C	-3.977230	-0.478135	-0.386646
C18	C	-3.776759	-0.434458	-0.380590
C19	C	-3.741582	-0.354879	-0.381191
C20	C	-3.918620	-0.755394	-0.378169
C21	C	-3.953811	-0.834979	-0.377565
C22	C	-4.319548	-0.842742	-0.390285
C23	C	-4.284371	-0.763162	-0.390885
C24	C	-4.083907	-0.719493	-0.384836
C25	C	-4.045760	-0.633202	-0.385480
C26	C	-4.015370	-0.564424	-0.385993
C27	C	-3.909049	-0.100055	-0.611706
C28	C	-3.971698	-0.099417	-0.752986
C29	C	-4.050815	-0.238963	-0.790015
C30	C	-4.119798	-0.308434	-0.874901
C31	C	-4.178663	-0.307830	-1.007644
C32	C	-4.168547	-0.237748	-1.055502
C33	C	-4.099564	-0.168277	-0.970617
C34	C	-4.040696	-0.168889	-0.837873
C35	C	-4.020462	-0.028733	-0.933588
C36	C	-3.961582	-0.029335	-0.800844
C37	C	-4.010347	0.041349	-0.981446
C38	C	-3.941348	0.110821	-0.896560
C39	C	-3.882479	0.110214	-0.763809
C40	C	-3.892599	0.040135	-0.715958
C41	C	-4.212490	0.036652	-0.382988
C42	C	-4.154275	0.121347	-0.383634
C43	C	-4.172856	-0.097569	-0.159754
C44	C	-4.089445	-0.098203	-0.018474
H45	H	-4.241915	-0.333413	-0.399309
C46	C	-3.422129	-0.442071	-0.259751
C47	C	-3.595072	-0.473926	-0.373266
H48	H	-3.309957	-0.466433	-0.255232
H49	H	-3.466609	-0.449751	-0.187789
H50	H	-3.372513	-0.388427	-0.259260
H51	H	-3.644699	-0.527569	-0.373752
H52	H	-3.550589	-0.466253	-0.445247
H53	H	-3.755391	-0.719847	-0.373236
H54	H	-4.002857	-0.239461	-0.681930
C55	C	-3.525262	-0.229440	-0.376471
C56	C	-3.521233	-0.306871	-0.374529
H57	H	-3.389228	-0.199805	-0.372370
H58	H	-3.558186	-0.211035	-0.304694
H59	H	-3.631084	-0.224966	-0.453680
H60	H	-3.415421	-0.311346	-0.297316
H61	H	-3.488283	-0.325280	-0.446312
H62	H	-3.819212	-0.864214	-0.372150
H63	H	-4.305740	-0.477781	-0.398242
C64	C	-3.959233	0.073666	-0.521854
C65	C	-3.827898	0.039472	-0.570045
H66	H	-3.919283	0.073259	-0.431772
H67	H	-4.104135	0.045592	-0.562873
H68	H	-3.943319	0.125342	-0.538217
H69	H	-3.843824	-0.012206	-0.553690
H70	H	-3.682961	0.067545	-0.529012
H71	H	-4.418959	-0.733929	-0.396302
H72	H	-4.128034	-0.365493	-0.835920
C73	C	-4.250951	-0.445832	-1.030928
C74	C	-4.254494	-0.384191	-1.100958
H75	H	-4.297756	-0.492972	-1.088539
H76	H	-4.343346	-0.445605	-0.982540
H77	H	-4.109332	-0.440727	-0.974227
H78	H	-4.396116	-0.389293	-1.157653
H79	H	-4.162098	-0.384419	-1.149368
H80	H	-4.216508	-0.237263	-1.163591
C81	C	-4.245640	0.076605	-1.167640
C82	C	-4.075067	0.042011	-1.127360
H83	H	-4.285599	0.077009	-1.257723
H84	H	-4.203099	0.128002	-1.123943
H85	H	-4.363915	0.048253	-1.148589
H86	H	-3.956786	0.070367	-1.146402
H87	H	-4.117600	-0.009395	-1.171072
H88	H	-3.826322	0.166785	-0.694701
C89	C	-4.064555	0.226353	-0.911996
C90	C	-3.930254	0.187846	-0.949174
H91	H	-4.057716	0.273903	-0.944490
H92	H	-4.019594	0.235939	-0.820802
H93	H	-4.207447	0.195335	-0.945503
H94	H	-3.787359	0.218861	-0.915658
H95	H	-3.975205	0.178262	-1.040386
H96	H	-4.482780	-0.878307	-0.395212
