data_functionalizedCrystal
_audit_creation_method	'MofGen! by Chris Wilmer'
_symmetry_space_group_name_H-M	'P1'
_symmetry_Int_Tables_number	1
_symmetry_cell_setting	triclinic
loop_
_symmetry_equiv_pos_as_xyz
  x,y,z
_cell_length_a	14.044191
_cell_length_b	14.044220
_cell_length_c	13.596369
_cell_angle_alpha	89.993157
_cell_angle_beta	89.997249
_cell_angle_gamma	93.190327
loop_
_atom_site_label
_atom_site_type_symbol
_atom_site_fract_x
_atom_site_fract_y
_atom_site_fract_z
O1	O	1.277174	0.230202	-0.081748
O2	O	1.777174	0.730202	0.418252
O3	O	1.000501	0.221889	-0.081761
O4	O	1.500501	0.721889	0.418239
O5	O	1.134685	0.087709	-0.081745
O6	O	1.634685	0.587709	0.418255
O7	O	1.142990	0.364381	-0.081764
O8	O	1.642990	0.864381	0.418236
O9	O	1.134669	0.087700	0.081838
O10	O	1.634669	0.587700	0.581838
O11	O	1.000486	0.221880	0.081822
O12	O	1.500486	0.721880	0.581822
O13	O	1.277158	0.230193	0.081835
O14	O	1.777158	0.730193	0.581835
Zn15	Zn	1.138820	0.226035	0.107801
Zn16	Zn	1.638820	0.726035	0.607801
Zn17	Zn	1.138840	0.226047	-0.107727
Zn18	Zn	1.638840	0.726047	0.392273
O19	O	1.142975	0.364372	0.081819
O20	O	1.642975	0.864372	0.581819
C21	C	0.964872	0.218248	0.000029
C22	C	1.464872	0.718248	0.500029
C23	C	0.858728	0.207401	0.000025
C24	C	1.358728	0.707401	0.500025
C25	C	0.613270	0.264501	0.000031
C26	C	1.113270	0.764501	0.500031
C27	C	0.664395	0.187585	0.000035
C28	C	1.164395	0.687585	0.500035
C29	C	0.772532	0.198613	0.000029
C30	C	1.272532	0.698613	0.500029
C31	C	0.505123	0.253474	0.000036
C32	C	1.005123	0.753474	0.500036
C33	C	1.131041	0.052083	0.000047
C34	C	1.631041	0.552083	0.500047
C35	C	1.120197	-0.054060	0.000048
C36	C	1.620197	0.445940	0.500048
C37	C	1.100370	-0.248398	0.000033
C38	C	1.600370	0.251602	0.500033
C39	C	1.177285	-0.299526	0.000033
C40	C	1.677285	0.200474	0.500033
C41	C	1.166253	-0.407663	0.000025
C42	C	1.666253	0.092337	0.500025
C43	C	1.111400	-0.140252	0.000041
C44	C	1.611400	0.359748	0.500041
C45	C	1.312788	0.233834	0.000043
C46	C	1.812788	0.733834	0.500043
C47	C	1.418931	0.244681	0.000040
C48	C	1.918931	0.744681	0.500040
C49	C	1.146618	0.399998	0.000025
C50	C	1.646618	0.899998	0.500025
C51	C	1.157463	0.506142	0.000018
C52	C	1.657463	1.006142	0.500018
N53	N	1.138813	0.226027	0.254893
N54	N	1.638813	0.726027	0.754893
N55	N	1.138853	0.226048	-0.254819
N56	N	1.638853	0.726048	0.245181
C57	C	1.138839	0.226048	0.656184
C58	C	1.638839	0.726048	1.156184
C59	C	1.138829	0.226045	0.544532
C60	C	1.638829	0.726045	1.044532
C61	C	1.138826	0.226038	0.455542
C62	C	1.638826	0.726038	0.955542
C63	C	1.138816	0.226034	0.343883
C64	C	1.638816	0.726034	0.843883
H65	H	0.626952	0.113452	-0.000030
H66	H	1.126952	0.613452	0.499970
C67	C	0.663845	0.364645	0.000004
C68	C	1.163845	0.864645	0.500004
C69	C	0.773554	0.375674	-0.000015
C70	C	1.273554	0.875674	0.499985
C71	C	0.824143	0.475817	-0.000050
C72	C	1.324143	0.975817	0.499950
C73	C	0.765023	0.564931	-0.000068
C74	C	1.265023	1.064931	0.499932
C75	C	0.655309	0.553905	-0.000049
C76	C	1.155309	1.053905	0.499951
C77	C	0.604720	0.453762	-0.000014
C78	C	1.104720	0.953762	0.499986
H79	H	0.817323	0.309703	-0.000002
H80	H	1.317323	0.809703	0.499998
H81	H	0.905361	0.483978	-0.000064
H82	H	1.405361	0.983978	0.499936
H83	H	0.802472	0.639062	-0.000094
H84	H	1.302472	1.139062	0.499906
H85	H	0.611539	0.619875	-0.000062
H86	H	1.111539	1.119875	0.499938
H87	H	0.523501	0.445601	0.000000
H88	H	1.023501	0.945601	0.500000
C89	C	1.277438	-0.248954	0.000053
C90	C	1.777438	0.251046	0.500053
C91	C	1.288480	-0.139246	0.000071
C92	C	1.788480	0.360754	0.500071
C93	C	1.388628	-0.088669	0.000097
C94	C	1.888628	0.411331	0.500097
C95	C	1.477735	-0.147800	0.000106
C96	C	1.977735	0.352200	0.500106
C97	C	1.466696	-0.257514	0.000089
C98	C	1.966696	0.242486	0.500089
C99	C	1.366547	-0.308091	0.000063
C100	C	1.866547	0.191909	0.500063
H101	H	1.222515	-0.095469	0.000064
H102	H	1.722515	0.404531	0.500064
H103	H	1.396800	-0.007452	0.000109
H104	H	1.896800	0.492548	0.500109
H105	H	1.551871	-0.110360	0.000125
H106	H	2.051871	0.389640	0.500125
H107	H	1.532660	-0.301292	0.000095
H108	H	2.032660	0.198708	0.500095
H109	H	1.358376	-0.389309	0.000050
H110	H	1.858376	0.110691	0.500050
H111	H	1.026242	-0.285837	0.000027
H112	H	1.526242	0.214163	0.500027
