data_functionalizedCrystal
_audit_creation_method	'MofGen! by Chris Wilmer'
_symmetry_space_group_name_H-M	'P1'
_symmetry_Int_Tables_number	1
_symmetry_cell_setting	triclinic
loop_
_symmetry_equiv_pos_as_xyz
  x,y,z
_cell_length_a	27.731994
_cell_length_b	27.732048
_cell_length_c	22.010155
_cell_angle_alpha	89.999275
_cell_angle_beta	89.997700
_cell_angle_gamma	82.631595
loop_
_atom_site_label
_atom_site_type_symbol
_atom_site_fract_x
_atom_site_fract_y
_atom_site_fract_z
O1	O	0.640948	0.057385	-0.050445
O2	O	1.140948	0.557385	0.449555
O3	O	0.500151	0.066158	-0.050466
O4	O	1.000151	0.566158	0.449534
O5	O	0.574922	-0.008626	-0.050443
O6	O	1.074922	0.491374	0.449557
O7	O	0.566176	0.132170	-0.050468
O8	O	1.066176	0.632170	0.449532
O9	O	0.574909	-0.008614	0.050607
O10	O	1.074909	0.491386	0.550607
O11	O	0.500137	0.066170	0.050584
O12	O	1.000137	0.566170	0.550584
O13	O	0.640934	0.057397	0.050605
O14	O	1.140934	0.557397	0.550605
Cu15	Cu	0.570535	0.061784	0.059822
Cu16	Cu	1.070535	0.561784	0.559822
Cu17	Cu	0.570551	0.061771	-0.059682
Cu18	Cu	1.070551	0.561771	0.440318
O19	O	0.566163	0.132181	0.050583
O20	O	1.066163	0.632181	0.550583
C21	C	0.482137	0.065984	0.000057
C22	C	0.982137	0.565984	0.500057
C23	C	0.428480	0.065442	0.000049
C24	C	0.928480	0.565442	0.500049
C25	C	0.095754	0.062032	0.055156
C26	C	0.595754	0.562032	0.555156
C27	C	-0.105904	0.059970	0.055163
C28	C	0.394096	0.559970	0.555163
O29	O	-0.131983	0.059688	0.102008
O30	O	0.368017	0.559688	0.602008
N31	N	-0.131111	0.059708	0.000080
N32	N	0.368889	0.559708	0.500080
C33	C	-0.105901	0.059958	-0.055008
C34	C	0.394099	0.559958	0.444992
O35	O	-0.131968	0.059683	-0.101859
O36	O	0.368032	0.559683	0.398141
C37	C	0.095757	0.062016	-0.055014
C38	C	0.595757	0.562016	0.444986
C39	C	0.120961	0.062283	0.000072
C40	C	0.620961	0.562283	0.500072
C41	C	0.120959	0.062298	0.110237
C42	C	0.620959	0.562298	0.610237
C43	C	0.171370	0.062816	0.110235
C44	C	0.671370	0.562816	0.610235
C45	C	0.196577	0.063068	0.055151
C46	C	0.696577	0.563068	0.555151
C47	C	0.171372	0.062802	0.000069
C48	C	0.671372	0.562802	0.500069
C49	C	0.120967	0.062263	-0.110102
C50	C	0.620967	0.562263	0.389898
C51	C	0.171385	0.062776	-0.110099
C52	C	0.671385	0.562776	0.389901
C53	C	0.196589	0.063043	-0.055013
C54	C	0.696589	0.563043	0.444987
C55	C	0.246990	0.063571	-0.055017
C56	C	0.746990	0.563571	0.444983
N57	N	0.272198	0.063833	0.000065
N58	N	0.772198	0.563833	0.500065
C59	C	0.246991	0.063582	0.055149
C60	C	0.746991	0.563582	0.555149
C61	C	-0.211774	0.058879	-0.055000
C62	C	0.288226	0.558879	0.445000
C63	C	-0.262188	0.058365	-0.054999
C64	C	0.237812	0.558365	0.445001
C65	C	-0.262188	0.058376	0.055172
C66	C	0.237812	0.558376	0.555172
C67	C	-0.211773	0.058893	0.055170
C68	C	0.288227	0.558893	0.555170
C69	C	-0.186566	0.059141	0.000082
C70	C	0.313434	0.559141	0.500082
C71	C	0.352858	0.064670	0.055140
C72	C	0.852858	0.564670	0.555140
C73	C	0.403273	0.065190	0.055133
C74	C	0.903273	0.565190	0.555133
C75	C	0.403269	0.065176	-0.055038
C76	C	0.903269	0.565176	0.444962
C77	C	0.352858	0.064659	-0.055031
C78	C	0.852858	0.564659	0.444969
C79	C	0.327654	0.064404	0.000063
C80	C	0.827654	0.564404	0.500063
O81	O	0.273101	0.063848	-0.101838
O82	O	0.773101	0.563848	0.398162
O83	O	0.273068	0.063846	0.101993
O84	O	0.773068	0.563846	0.601993
C85	C	0.045343	0.061514	0.055158
C86	C	0.545343	0.561514	0.555158
C87	C	0.020139	0.061247	0.000076
C88	C	0.520139	0.561247	0.500076
C89	C	0.045346	0.061499	-0.055008
C90	C	0.545346	0.561499	0.444992
C91	C	-0.030275	0.060734	0.000078
C92	C	0.469725	0.560734	0.500078
C93	C	-0.055482	0.060482	0.055162
C94	C	0.444518	0.560482	0.555162
C95	C	-0.030275	0.060744	0.110244
C96	C	0.469725	0.560744	0.610244
C97	C	0.020136	0.061262	0.110242
C98	C	0.520136	0.561262	0.610242
C99	C	0.020138	0.061237	-0.110090
C100	C	0.520138	0.561237	0.389910
C101	C	-0.030273	0.060719	-0.110083
C102	C	0.469727	0.560719	0.389917
C103	C	-0.055480	0.060468	-0.054999
C104	C	0.444520	0.560468	0.445001
C105	C	0.574732	-0.026627	0.000084
C106	C	1.074732	0.473373	0.500084
C107	C	0.574179	-0.080282	0.000088
C108	C	1.074179	0.419718	0.500088
C109	C	0.614884	-0.419105	0.000063
C110	C	1.114884	0.080895	0.500063
C111	C	0.612833	-0.620764	0.000055
C112	C	1.112833	-0.120764	0.500055
O113	O	0.650055	-0.652027	0.000034
O114	O	1.150055	-0.152027	0.500034
N115	N	0.568496	-0.639879	0.000048
N116	N	1.068496	-0.139879	0.500048
C117	C	0.524670	-0.608576	0.000041
C118	C	1.024670	-0.108576	0.500041
O119	O	0.486912	-0.629462	0.000029
O120	O	0.986912	-0.129462	0.500029
C121	C	0.526721	-0.406918	0.000045
C122	C	1.026721	0.093082	0.500045
C123	C	0.571061	-0.387805	0.000057
C124	C	1.071061	0.112195	0.500057
C125	C	0.659220	-0.399992	0.000075
C126	C	1.159220	0.100008	0.500075
C127	C	0.659732	-0.349580	0.000080
C128	C	1.159732	0.150420	0.500080
C129	C	0.615908	-0.318281	0.000074
C130	C	1.115908	0.181719	0.500074
C131	C	0.571573	-0.337394	0.000063
C132	C	1.071573	0.162606	0.500063
C133	C	0.482895	-0.375615	0.000033
C134	C	0.982895	0.124385	0.500033
C135	C	0.483412	-0.325198	0.000032
C136	C	0.983412	0.174802	0.500032
C137	C	0.527751	-0.306086	0.000045
C138	C	1.027751	0.193914	0.500045
C139	C	0.528262	-0.255683	0.000062
C140	C	1.028262	0.244317	0.500062
N141	N	0.572598	-0.236567	0.000068
N142	N	1.072598	0.263433	0.500068
C143	C	0.616421	-0.267867	0.000074
C144	C	1.116421	0.232133	0.500074
C145	C	0.523596	-0.714450	0.000039
C146	C	1.023596	-0.214450	0.500039
C147	C	0.523083	-0.764864	0.000039
C148	C	1.023083	-0.264864	0.500039
C149	C	0.611246	-0.777049	0.000052
C150	C	1.111246	-0.277049	0.500052
C151	C	0.611759	-0.726633	0.000057
C152	C	1.111759	-0.226633	0.500057
C153	C	0.567932	-0.695335	0.000046
C154	C	1.067932	-0.195335	0.500046
C155	C	0.617494	-0.161998	0.000086
C156	C	1.117494	0.338002	0.500086
C157	C	0.618002	-0.111581	0.000094
C158	C	1.118002	0.388419	0.500094
C159	C	0.529839	-0.099401	0.000078
C160	C	1.029839	0.400599	0.500078
C161	C	0.529331	-0.149813	0.000074
C162	C	1.029331	0.350187	0.500074
C163	C	0.573162	-0.181111	0.000076
C164	C	1.073162	0.318889	0.500076
O165	O	0.491060	-0.224391	0.000076
O166	O	0.991060	0.275609	0.500076
O167	O	0.654174	-0.246971	0.000073
O168	O	1.154174	0.253029	0.500073
C169	C	0.614372	-0.469517	0.000058
C170	C	1.114372	0.030483	0.500058
C171	C	0.570036	-0.488629	0.000046
C172	C	1.070036	0.011371	0.500046
C173	C	0.526213	-0.457330	0.000040
C174	C	1.026213	0.042670	0.500040
C175	C	0.569523	-0.539043	0.000046
C176	C	1.069523	-0.039043	0.500046
C177	C	0.613346	-0.570343	0.000052
C178	C	1.113346	-0.070343	0.500052
C179	C	0.657683	-0.551228	0.000058
C180	C	1.157683	-0.051228	0.500058
C181	C	0.658195	-0.500816	0.000064
C182	C	1.158195	-0.000816	0.500064
C183	C	0.481876	-0.476445	0.000034
C184	C	0.981876	0.023555	0.500034
C185	C	0.481367	-0.526857	0.000029
C186	C	0.981367	-0.026857	0.500029
C187	C	0.525191	-0.558157	0.000035
C188	C	1.025191	-0.058157	0.500035
C189	C	0.658949	0.057571	0.000081
C190	C	1.158949	0.557571	0.500081
C191	C	0.712605	0.058114	0.000085
C192	C	1.212605	0.558114	0.500085
C193	C	0.566353	0.150182	0.000054
C194	C	1.066353	0.650182	0.500054
C195	C	0.566906	0.203837	0.000046
C196	C	1.066906	0.703837	0.500046
N197	N	0.570527	0.061793	0.143874
N198	N	1.070527	0.561793	0.643874
N199	N	0.570562	0.061758	-0.143735
N200	N	1.070562	0.561758	0.356265
C201	C	0.603661	0.028661	0.563663
C202	C	1.103661	0.528661	1.063663
C203	C	0.603664	0.028658	0.627271
C204	C	1.103664	0.528658	1.127271
O205	O	0.631816	0.000494	0.660171
O206	O	1.131816	0.500494	1.160171
N207	N	0.570550	0.061761	0.659081
N208	N	1.070550	0.561761	1.159081
C209	C	0.537429	0.094866	0.627280
C210	C	1.037429	0.594866	1.127280
O211	O	0.509264	0.123022	0.660178
O212	O	1.009264	0.623022	1.160178
C213	C	0.537425	0.094867	0.563674
C214	C	1.037425	0.594867	1.063674
C215	C	0.570544	0.061765	0.531867
C216	C	1.070544	0.561765	1.031867
C217	C	0.636777	-0.004438	0.531857
C218	C	1.136777	0.495562	1.031857
C219	C	0.636775	-0.004434	0.468253
C220	C	1.136775	0.495566	0.968253
C221	C	0.603658	0.028669	0.436457
C222	C	1.103658	0.528669	0.936457
C223	C	0.570542	0.061769	0.468264
C224	C	1.070542	0.561769	0.968264
C225	C	0.504303	0.127969	0.531874
C226	C	1.004303	0.627969	1.031874
C227	C	0.504301	0.127967	0.468263
C228	C	1.004301	0.627967	0.968263
C229	C	0.537420	0.094865	0.436457
C230	C	1.037420	0.594865	0.936457
C231	C	0.537423	0.094876	0.372864
C232	C	1.037423	0.594876	0.872864
N233	N	0.570536	0.061774	0.341054
N234	N	1.070536	0.561774	0.841054
C235	C	0.603654	0.028670	0.372851
C236	C	1.103654	0.528670	0.872851
C237	C	0.537440	0.094862	0.760858
C238	C	1.037440	0.594862	1.260858
C239	C	0.537446	0.094864	0.824463
C240	C	1.037446	0.594864	1.324463
C241	C	0.603680	0.028655	0.824450
C242	C	1.103680	0.528655	1.324450
C243	C	0.603676	0.028655	0.760843
C244	C	1.103676	0.528655	1.260843
C245	C	0.570553	0.061759	0.729048
C246	C	1.070553	0.561759	1.229048
C247	C	0.603648	0.028681	0.239279
C248	C	1.103648	0.528681	0.739279
C249	C	0.603644	0.028690	0.175670
C250	C	1.103644	0.528690	0.675670
C251	C	0.537409	0.094897	0.175690
C252	C	1.037409	0.594897	0.675690
C253	C	0.537414	0.094890	0.239293
C254	C	1.037414	0.594890	0.739293
C255	C	0.570535	0.061778	0.271086
C256	C	1.070535	0.561778	0.771086
O257	O	0.509283	0.123024	0.339924
O258	O	1.009283	0.623024	0.839924
O259	O	0.631810	0.000514	0.339945
O260	O	1.131810	0.500514	0.839945
H261	H	0.100455	0.062045	-0.154959
H262	H	0.600455	0.562045	0.345041
H263	H	-0.191255	0.059080	-0.099862
H264	H	0.308745	0.559080	0.400138
H265	H	-0.191255	0.059111	0.100026
H266	H	0.308745	0.559111	0.600026
H267	H	0.694908	-0.425472	0.000078
H268	H	1.194908	0.074528	0.500078
O269	O	0.635842	-0.003416	0.270223
O270	O	1.135842	0.496584	0.770223
C271	C	0.701967	-0.014182	0.341986
C272	C	1.201967	0.485818	0.841986
C273	C	0.665524	0.022218	0.306993
C274	C	1.165524	0.522218	0.806993
H275	H	0.725981	0.006528	0.371713
H276	H	1.225981	0.506528	0.871713
H277	H	0.681312	-0.038184	0.371807
H278	H	1.181312	0.461816	0.871807
H279	H	0.725610	-0.037844	0.308305
H280	H	1.225610	0.462156	0.808305
H281	H	0.641872	0.045911	0.340630
H282	H	1.141872	0.545911	0.840630
H283	H	0.686209	0.046186	0.277163
H284	H	1.186209	0.546186	0.777163
H285	H	0.693365	-0.576720	0.000066
H286	H	1.193365	-0.076720	0.500066
H287	H	0.332334	0.064449	-0.099886
H288	H	0.832334	0.564449	0.400114
O289	O	0.505334	0.127046	0.729908
O290	O	1.005334	0.627046	1.229908
C291	C	0.494545	0.193168	0.658138
C292	C	0.994545	0.693168	1.158138
C293	C	0.530956	0.156739	0.693135
C294	C	1.030956	0.656739	1.193135
H295	H	0.515246	0.217191	0.628408
H296	H	1.015246	0.717191	1.128408
H297	H	0.470554	0.172502	0.628320
H298	H	0.970554	0.672502	1.128320
H299	H	0.470873	0.216803	0.691817
H300	H	0.970873	0.716803	1.191817
H301	H	0.554660	0.133094	0.659500
H302	H	1.054660	0.633094	1.159500
H303	H	0.554913	0.177435	0.722962
H304	H	1.054913	0.677435	1.222962
O305	O	0.668816	-0.036732	0.437379
O306	O	1.168816	0.463268	0.937379
C307	C	0.679379	-0.103048	0.365879
C308	C	1.179379	0.396952	0.865879
C309	C	0.643079	-0.066409	0.400734
C310	C	1.143079	0.433591	0.900734
H311	H	0.658585	-0.127059	0.336253
H312	H	1.158585	0.372941	0.836253
H313	H	0.703467	-0.082560	0.335971
H314	H	1.203467	0.417440	0.835971
H315	H	0.702964	-0.126674	0.399650
H316	H	1.202964	0.373326	0.899650
H317	H	0.619462	-0.042774	0.367007
H318	H	1.119462	0.457226	0.867007
H319	H	0.619025	-0.086927	0.430652
H320	H	1.119025	0.413073	0.930652
O321	O	0.654872	-0.708150	0.000035
O322	O	1.154872	-0.208150	0.500035
C323	C	0.742263	-0.725571	0.000083
C324	C	1.242263	-0.225571	0.500083
C325	C	0.693469	-0.746563	0.000096
C326	C	1.193469	-0.246563	0.500096
H327	H	0.773482	-0.756617	0.000144
H328	H	1.273482	-0.256617	0.500144
H329	H	0.744748	-0.702294	-0.042218
H330	H	1.244748	-0.202294	0.457782
H331	H	0.744679	-0.702254	0.042361
H332	H	1.244679	-0.202254	0.542361
H333	H	0.691021	-0.769902	-0.042154
H334	H	1.191021	-0.269902	0.457846
H335	H	0.691005	-0.769813	0.042425
H336	H	1.191005	-0.269813	0.542425
O337	O	0.328451	0.064447	0.108712
O338	O	0.828451	0.564447	0.608712
C339	C	0.333788	0.064491	0.217984
C340	C	0.833788	0.564491	0.717984
C341	C	0.361488	0.064751	0.157360
C342	C	0.861488	0.564751	0.657360
H343	H	0.360488	0.064726	0.257332
H344	H	0.860488	0.564726	0.757332
H345	H	0.305518	0.098099	0.220778
H346	H	0.805518	0.598099	0.720778
H347	H	0.314852	0.030416	0.220721
H348	H	0.814852	0.530416	0.720721
H349	H	0.380453	0.098804	0.154583
H350	H	0.880453	0.598804	0.654583
H351	H	0.389731	0.031120	0.154593
H352	H	0.889731	0.531120	0.654593
O353	O	0.427818	0.065383	0.108608
O354	O	0.927818	0.565383	0.608608
C355	C	0.490506	0.024063	0.172572
C356	C	0.990506	0.524063	0.672572
C357	C	0.462758	0.023792	0.111987
C358	C	0.962758	0.523792	0.611987
H359	H	0.518754	-0.009564	0.175329
H360	H	1.018754	0.490436	0.675329
H361	H	0.509463	0.058124	0.175332
H362	H	1.009463	0.558124	0.675332
H363	H	0.463814	0.023815	0.211930
H364	H	0.963814	0.523815	0.711930
H365	H	0.489417	0.024022	0.072594
H366	H	0.989417	0.524022	0.572594
H367	H	0.443793	-0.010266	0.109279
H368	H	0.943793	0.489734	0.609279
O369	O	0.195779	0.063049	0.163800
O370	O	0.695779	0.563049	0.663800
C371	C	0.190436	0.063030	0.273073
C372	C	0.690436	0.563030	0.773073
C373	C	0.162739	0.062757	0.212451
C374	C	0.662739	0.562757	0.712451
H375	H	0.163734	0.062805	0.312423
H376	H	0.663734	0.562805	0.812423
H377	H	0.218705	0.029421	0.275877
H378	H	0.718705	0.529421	0.775877
H379	H	0.209373	0.097105	0.275795
H380	H	0.709373	0.597105	0.775795
H381	H	0.143772	0.028705	0.209689
H382	H	0.643772	0.528705	0.709689
H383	H	0.134497	0.096389	0.209673
H384	H	0.634497	0.596389	0.709673
H385	H	0.630645	0.001699	0.850350
H386	H	1.130645	0.501699	1.350350
O387	O	0.479969	-0.783346	0.000007
O388	O	0.979969	-0.283346	0.500007
C389	C	0.392578	-0.765926	0.000027
C390	C	0.892578	-0.265926	0.500027
C391	C	0.441371	-0.744933	0.000054
C392	C	0.941371	-0.244933	0.500054
H393	H	0.361359	-0.734879	0.000077
H394	H	0.861359	-0.234879	0.500077
H395	H	0.390104	-0.789205	-0.042274
H396	H	0.890104	-0.289205	0.457726
H397	H	0.390151	-0.789240	0.042305
H398	H	0.890151	-0.289240	0.542305
H399	H	0.443831	-0.721597	-0.042196
H400	H	0.943831	-0.221597	0.457804
H401	H	0.443824	-0.721682	0.042382
H402	H	0.943824	-0.221682	0.542382
H403	H	0.447722	-0.299716	0.000022
H404	H	0.947722	0.200284	0.500022
O405	O	0.505311	0.127095	0.270218
O406	O	1.005311	0.627095	0.770218
C407	C	0.494515	0.193163	0.342064
C408	C	0.994515	0.693163	0.842064
C409	C	0.530929	0.156729	0.307076
C410	C	1.030929	0.656729	0.807076
H411	H	0.515213	0.217125	0.371881
H412	H	1.015213	0.717125	0.871881
H413	H	0.470854	0.216858	0.308434
H414	H	0.970854	0.716858	0.808434
H415	H	0.470514	0.172451	0.371811
H416	H	0.970514	0.672451	0.871811
H417	H	0.554962	0.177402	0.277327
H418	H	1.054962	0.677402	0.777327
H419	H	0.554556	0.133034	0.340739
H420	H	1.054556	0.633034	0.840739
H421	H	0.663745	-0.031397	0.557740
H422	H	1.163745	0.468603	1.057740
H423	H	0.445258	-0.542413	0.000025
H424	H	0.945258	-0.042413	0.500025
H425	H	0.630615	0.001734	0.149775
H426	H	1.130615	0.501734	0.649775
O427	O	0.653804	-0.807477	-0.000054
O428	O	1.153804	-0.307477	0.499946
C429	C	0.704370	-0.871492	-0.052395
C430	C	1.204370	-0.371492	0.447605
C431	C	0.656164	-0.837050	-0.052350
C432	C	1.156164	-0.337050	0.447650
H433	H	0.706289	-0.895417	-0.094666
H434	H	1.206289	-0.395417	0.405334
H435	H	0.736169	-0.849199	-0.052434
H436	H	1.236169	-0.349199	0.447566
H437	H	0.706325	-0.895379	-0.010089
H438	H	1.206325	-0.395379	0.489911
H439	H	0.654161	-0.813155	-0.094650
H440	H	1.154161	-0.313155	0.405350
H441	H	0.624387	-0.859371	-0.052280
H442	H	1.124387	-0.359371	0.447720
H443	H	0.510483	0.121823	0.850356
H444	H	1.010483	0.621823	1.350356
O445	O	0.635863	-0.003549	0.730043
O446	O	1.135863	0.496451	1.230043
C447	C	0.701578	-0.069198	0.736760
C448	C	1.201578	0.430802	1.236760
C449	C	0.665144	-0.032758	0.771713
C450	C	1.165144	0.467242	1.271713
H451	H	0.725268	-0.092816	0.770435
H452	H	1.225268	0.407184	1.270435
H453	H	0.680915	-0.093235	0.707004
H454	H	1.180915	0.406765	1.207004
H455	H	0.725546	-0.048491	0.706959
H456	H	1.225546	0.451509	1.206959
H457	H	0.641167	-0.053425	0.801547
H458	H	1.141167	0.446575	1.301547
H459	H	0.685837	-0.008721	0.801431
H460	H	1.185837	0.491279	1.301431
H461	H	0.423801	0.065383	-0.099885
H462	H	0.923801	0.565383	0.400115
H463	H	0.191906	0.062978	-0.154959
H464	H	0.691906	0.562978	0.345041
O465	O	0.481032	-0.684030	-0.000075
O466	O	0.981032	-0.184030	0.499925
C467	C	0.430450	-0.620026	-0.052412
C468	C	0.930450	-0.120026	0.447588
C469	C	0.478666	-0.654453	-0.052368
C470	C	0.978666	-0.154453	0.447632
H471	H	0.428527	-0.596097	-0.094680
H472	H	0.928527	-0.096097	0.405320
H473	H	0.398660	-0.642331	-0.052454
H474	H	0.898660	-0.142331	0.447546
H475	H	0.428484	-0.596141	-0.010103
H476	H	0.928484	-0.096141	0.489897
H477	H	0.480680	-0.678345	-0.094670
H478	H	0.980680	-0.178345	0.405330
H479	H	0.510434	-0.632119	-0.052295
H480	H	1.010434	-0.132119	0.447705
H481	H	0.040653	0.061480	0.155099
H482	H	0.540653	0.561480	0.655099
H483	H	0.694301	-0.485260	0.000074
H484	H	1.194301	0.014740	0.500074
O485	O	0.472083	0.160142	0.562667
O486	O	0.972083	0.660142	1.062667
C487	C	0.406402	0.225824	0.555939
C488	C	0.906402	0.725824	1.055939
C489	C	0.442859	0.189405	0.520993
C490	C	0.942859	0.689405	1.020993
H491	H	0.382772	0.249500	0.522261
H492	H	0.882772	0.749500	1.022261
H493	H	0.382377	0.205150	0.585702
H494	H	0.882377	0.705150	1.085702
H495	H	0.427093	0.249809	0.585734
H496	H	0.927093	0.749809	1.085734
H497	H	0.422207	0.165412	0.491166
H498	H	0.922207	0.665412	0.991166
H499	H	0.466883	0.210110	0.491268
H500	H	0.966883	0.710110	0.991268
O501	O	0.439260	-0.446113	0.000059
O502	O	0.939260	0.053887	0.500059
C503	C	0.351760	-0.439361	0.000018
C504	C	0.851760	0.060639	0.500018
C505	C	0.399991	-0.473764	-0.000001
C506	C	0.899991	0.026236	0.499999
H507	H	0.320000	-0.461702	-0.000043
H508	H	0.820000	0.038298	0.499957
H509	H	0.349756	-0.415466	0.042321
H510	H	0.849756	0.084534	0.542321
H511	H	0.349822	-0.415439	-0.042258
H512	H	0.849822	0.084561	0.457742
H513	H	0.401963	-0.497716	0.042246
H514	H	0.901963	0.002284	0.542246
H515	H	0.401975	-0.497625	-0.042332
H516	H	0.901975	0.002375	0.457668
O517	O	0.096469	0.061967	0.163736
O518	O	0.596469	0.561967	0.663736
C519	C	0.045329	0.019519	0.227689
C520	C	0.545329	0.519519	0.727689
C521	C	0.073046	0.019823	0.167082
C522	C	0.573046	0.519823	0.667082
H523	H	0.026376	-0.014546	0.230409
H524	H	0.526376	0.485454	0.730409
H525	H	0.071996	0.019765	0.267073
H526	H	0.571996	0.519765	0.767073
H527	H	0.017068	0.053136	0.230436
H528	H	0.517068	0.553136	0.730436
H529	H	0.101307	-0.013788	0.164276
H530	H	0.601307	0.486212	0.664276
H531	H	0.046350	0.019602	0.127727
H532	H	0.546350	0.519602	0.627727
O533	O	-0.054837	0.060476	0.163699
O534	O	0.445163	0.560476	0.663699
C535	C	-0.132513	0.059707	0.212512
C536	C	0.367487	0.559707	0.712512
C537	C	-0.104753	0.060004	0.151936
C538	C	0.395247	0.560004	0.651936
H539	H	-0.172876	0.059336	0.203023
H540	H	0.327124	0.559336	0.703023
H541	H	-0.117957	0.025960	0.239689
H542	H	0.382043	0.525960	0.739689
H543	H	-0.127257	0.093644	0.239676
H544	H	0.372743	0.593644	0.739676
H545	H	-0.109997	0.026090	0.124724
H546	H	0.390003	0.526090	0.624724
H547	H	-0.119314	0.093773	0.124806
H548	H	0.380686	0.593773	0.624806
H549	H	0.477327	0.154923	0.442379
H550	H	0.977327	0.654923	0.942379
O551	O	-0.054676	0.060440	-0.163653
O552	O	0.445324	0.560440	0.336347
C553	C	-0.049344	0.060503	-0.272926
C554	C	0.450656	0.560503	0.227074
C555	C	-0.021650	0.060814	-0.212306
C556	C	0.478350	0.560814	0.287694
H557	H	-0.022656	0.060816	-0.312278
H558	H	0.477344	0.560816	0.187722
H559	H	-0.068248	0.026409	-0.275714
H560	H	0.431752	0.526409	0.224286
H561	H	-0.077642	0.094092	-0.275660
H562	H	0.422358	0.594092	0.224340
H563	H	0.006671	0.027248	-0.209531
H564	H	0.506671	0.527248	0.290469
H565	H	-0.002779	0.094930	-0.209543
H566	H	0.497221	0.594930	0.290457
H567	H	0.510447	0.121851	0.149791
H568	H	1.010447	0.621851	0.649791
O569	O	0.044663	0.061550	-0.163563
O570	O	0.544663	0.561550	0.336437
C571	C	0.095751	0.104043	-0.227536
C572	C	0.595751	0.604043	0.272464
C573	C	0.068011	0.103740	-0.166945
C574	C	0.568011	0.603740	0.333055
H575	H	0.114626	0.138156	-0.230296
H576	H	0.614626	0.638156	0.269704
H577	H	0.124065	0.070468	-0.230304
H578	H	0.624065	0.570468	0.269696
H579	H	0.069063	0.103743	-0.266888
H580	H	0.569063	0.603743	0.233112
H581	H	0.094661	0.104057	-0.127558
H582	H	0.594661	0.604057	0.372442
H583	H	0.039690	0.137312	-0.164230
H584	H	0.539690	0.637312	0.335770
H585	H	-0.282720	0.058173	0.100023
H586	H	0.217280	0.558173	0.600023
O587	O	0.661088	-0.093040	-0.000004
O588	O	1.161088	0.406960	0.499996
C589	C	0.736617	-0.088057	-0.052326
C590	C	1.236617	0.411943	0.447674
C591	C	0.687838	-0.109076	-0.052295
C592	C	1.187838	0.390924	0.447705
H593	H	0.758262	-0.101023	-0.094592
H594	H	1.258262	0.398977	0.405408
H595	H	0.729488	-0.046646	-0.052361
H596	H	1.229488	0.453354	0.447639
H597	H	0.758228	-0.100970	-0.010015
H598	H	1.258228	0.399030	0.489985
H599	H	0.666202	-0.096200	-0.094598
H600	H	1.166202	0.403800	0.405402
H601	H	0.695001	-0.150485	-0.052228
H602	H	1.195001	0.349515	0.447772
O603	O	-0.286592	0.058091	-0.108564
O604	O	0.213408	0.558091	0.391436
C605	C	-0.281261	0.058161	-0.217837
C606	C	0.218739	0.558161	0.282163
C607	C	-0.253566	0.058464	-0.157217
C608	C	0.246434	0.558464	0.342783
H609	H	-0.254573	0.058474	-0.257189
H610	H	0.245427	0.558474	0.242811
H611	H	-0.300170	0.024071	-0.220630
H612	H	0.199830	0.524071	0.279370
H613	H	-0.309555	0.091754	-0.220568
H614	H	0.190445	0.591754	0.279432
H615	H	-0.225249	0.024895	-0.154446
H616	H	0.274751	0.524895	0.345554
H617	H	-0.234691	0.092577	-0.154451
H618	H	0.265309	0.592577	0.345549
H619	H	0.493226	-0.165375	0.000081
H620	H	0.993226	0.334625	0.500081
H621	H	0.653186	-0.187475	0.000086
H622	H	1.153186	0.312525	0.500086
O623	O	0.702816	-0.331043	-0.000021
O624	O	1.202816	0.168957	0.499979
C625	C	0.778346	-0.326075	-0.052348
C626	C	1.278346	0.173925	0.447652
C627	C	0.729562	-0.347086	-0.052313
C628	C	1.229562	0.152914	0.447687
H629	H	0.799988	-0.339046	-0.094615
H630	H	1.299988	0.160954	0.405385
H631	H	0.771223	-0.284664	-0.052387
H632	H	1.271223	0.215336	0.447613
H633	H	0.799957	-0.338989	-0.010038
H634	H	1.299957	0.161011	0.489962
H635	H	0.707927	-0.334209	-0.094616
H636	H	1.207927	0.165791	0.405384
H637	H	0.736719	-0.388495	-0.052242
H638	H	1.236719	0.111505	0.447758
O639	O	0.487240	-0.069040	-0.000012
O640	O	0.987240	0.430960	0.499988
C641	C	0.412074	-0.043167	-0.052409
C642	C	0.912074	0.456833	0.447591
C643	C	0.460294	-0.077587	-0.052368
C644	C	0.960294	0.422413	0.447632
H645	H	0.390279	-0.050058	-0.094741
H646	H	0.890279	0.449942	0.405259
H647	H	0.390189	-0.050073	-0.010156
H648	H	0.890189	0.449927	0.489844
H649	H	0.420075	-0.003857	-0.052377
H650	H	0.920075	0.496143	0.447623
H651	H	0.452338	-0.116909	-0.052421
H652	H	0.952338	0.383091	0.447579
H653	H	0.482165	-0.070638	-0.094617
H654	H	0.982165	0.429362	0.405383
H655	H	0.446789	-0.391167	0.000019
H656	H	0.946789	0.108833	0.500019
