data_functionalizedCrystal
_audit_creation_method	'MofGen! by Chris Wilmer'
_symmetry_space_group_name_H-M	'P1'
_symmetry_Int_Tables_number	1
_symmetry_cell_setting	triclinic
loop_
_symmetry_equiv_pos_as_xyz
  x,y,z
_cell_length_a	16.109318
_cell_length_b	11.026607
_cell_length_c	15.186229
_cell_angle_alpha	89.997819
_cell_angle_beta	90.002030
_cell_angle_gamma	96.027290
loop_
_atom_site_label
_atom_site_type_symbol
_atom_site_fract_x
_atom_site_fract_y
_atom_site_fract_z
O1	O	1.126511	0.156067	0.073151
O2	O	0.887357	0.175456	0.073169
O3	O	0.987113	-0.010886	0.073158
O4	O	1.026755	0.342408	0.073162
O5	O	0.987100	-0.010875	-0.073299
O6	O	0.887343	0.175466	-0.073289
O7	O	1.126498	0.156078	-0.073306
Zn8	Zn	1.006919	0.165774	-0.096551
Zn9	Zn	1.006936	0.165760	0.096413
O10	O	1.026742	0.342419	-0.073296
C11	C	0.856257	0.174672	-0.000058
C12	C	0.763608	0.172306	-0.000051
C13	C	0.463397	0.164660	0.079767
C14	C	0.550450	0.166875	0.079773
C15	C	0.550452	0.166870	-0.079903
C16	C	0.463400	0.164646	-0.079908
C17	C	0.419875	0.163548	-0.000070
C18	C	0.593980	0.167986	-0.000060
C19	C	0.688367	0.170387	-0.000055
C20	C	0.325482	0.161144	-0.000075
C21	C	0.979793	-0.056089	-0.000069
C22	C	0.957992	-0.190796	-0.000064
C23	C	1.018188	-0.264620	-0.000067
C24	C	0.995658	-0.403848	-0.000062
C25	C	1.157598	0.156861	-0.000078
C26	C	1.250247	0.159227	-0.000079
C27	C	1.034062	0.387622	-0.000067
C28	C	1.055863	0.522330	-0.000065
N29	N	1.006913	0.165783	-0.228243
C30	C	1.068366	0.239388	-0.453969
C31	C	1.068374	0.239379	-0.546159
C32	C	0.945491	0.092127	-0.546162
C33	C	0.945487	0.092130	-0.453974
C34	C	1.006924	0.165768	-0.407880
C35	C	1.006936	0.165756	-0.592257
C36	C	1.006944	0.165746	-0.692214
C37	C	1.006918	0.165776	-0.307917
N38	N	1.006948	0.165741	0.228106
H39	H	0.427963	0.163739	-0.144924
O40	O	0.885848	0.020720	-0.591073
C41	C	0.898994	0.036546	-0.682325
H42	H	0.936424	0.128492	-0.694902
H43	H	0.934981	-0.039500	-0.708528
C44	C	0.768208	-0.080572	-0.714172
C45	C	0.814174	0.032363	-0.729619
H46	H	0.715888	-0.083158	-0.743346
H47	H	0.759352	-0.091239	-0.652694
H48	H	0.798206	-0.143932	-0.736008
H49	H	0.784181	0.095719	-0.707774
H50	H	0.823023	0.043041	-0.791095
H51	H	1.118392	0.299348	-0.416442
H52	H	1.118406	0.299327	-0.583680
H53	H	0.889776	-0.230667	-0.000053
O54	O	0.885691	0.020753	-0.409241
C55	C	0.806333	0.054316	-0.431794
H56	H	0.812943	0.152170	-0.457140
H57	H	0.777517	-0.009309	-0.485306
C58	C	0.741525	-0.075446	-0.318778
C59	C	0.749642	0.044744	-0.349900
H60	H	0.706553	-0.081356	-0.268263
H61	H	0.794989	-0.098062	-0.303585
H62	H	0.717514	-0.128453	-0.363379
H63	H	0.773662	0.097746	-0.305303
H64	H	0.696180	0.067368	-0.365084
O65	O	0.421216	0.163749	0.157374
C66	C	0.448778	0.269337	0.205932
H67	H	0.514085	0.305965	0.183233
H68	H	0.404199	0.341633	0.194860
C69	C	0.370672	0.192546	0.332471
C70	C	0.450887	0.237528	0.304597
H71	H	0.371969	0.172929	0.393332
H72	H	0.352100	0.121412	0.299756
H73	H	0.333531	0.252801	0.323237
H74	H	0.488023	0.177269	0.313820
H75	H	0.469465	0.308652	0.337316
O76	O	0.592828	0.168126	0.157271
C77	C	0.649474	0.274455	0.162055
H78	H	0.664620	0.309797	0.092737
H79	H	0.620339	0.347149	0.201445
C80	C	0.711644	0.201254	0.292847
C81	C	0.730252	0.244656	0.207708
H82	H	0.761470	0.182876	0.321012
H83	H	0.673479	0.129620	0.289626
H84	H	0.687363	0.261840	0.325661
H85	H	0.754523	0.184065	0.174893
H86	H	0.768423	0.316280	0.210925
H87	H	0.927437	-0.443713	-0.000052
O88	O	0.592651	0.168106	-0.157510
C89	C	0.577697	0.272606	-0.206074
H90	H	0.516593	0.306007	-0.183376
H91	H	0.631105	0.347405	-0.195009
C92	C	0.646808	0.199571	-0.332611
C93	C	0.571755	0.240590	-0.304737
H94	H	0.643146	0.179826	-0.393471
H95	H	0.656886	0.129169	-0.299891
H96	H	0.691306	0.261911	-0.323382
H97	H	0.527260	0.178245	-0.313956
H98	H	0.561670	0.310981	-0.337461
O99	O	1.099530	-0.216866	-0.000114
C100	C	1.103917	-0.088485	-0.000093
H101	H	1.043448	-0.058867	-0.027815
H102	H	1.113195	-0.053243	0.070169
C103	C	1.252130	-0.072243	-0.023486
C104	C	1.177863	-0.035865	-0.057542
H105	H	1.297745	-0.039783	-0.058919
H106	H	1.249175	-0.158736	-0.023496
H107	H	1.259850	-0.042872	0.035065
H108	H	1.170139	-0.065249	-0.116087
H109	H	1.180819	0.050624	-0.057542
H110	H	1.124084	-0.437807	-0.000004
