data_functionalizedCrystal
_audit_creation_method	'MofGen! by Chris Wilmer'
_symmetry_space_group_name_H-M	'P1'
_symmetry_Int_Tables_number	1
_symmetry_cell_setting	triclinic
loop_
_symmetry_equiv_pos_as_xyz
  x,y,z
_cell_length_a	18.050590
_cell_length_b	18.050590
_cell_length_c	12.759393
_cell_angle_alpha	89.965321
_cell_angle_beta	89.992932
_cell_angle_gamma	90.007719
loop_
_atom_site_label
_atom_site_type_symbol
_atom_site_fract_x
_atom_site_fract_y
_atom_site_fract_z
Zn1	Zn	1.135400	-0.295838	-0.593601
Zn2	Zn	1.135314	-0.420046	-0.417908
Zn3	Zn	1.011202	-0.295851	-0.417978
Zn4	Zn	1.011188	-0.419968	-0.593588
O5	O	1.073276	-0.357926	-0.505769
O6	O	1.239313	-0.312342	-0.570270
O7	O	1.118821	-0.403610	-0.270896
O8	O	1.027719	-0.191925	-0.441310
O9	O	1.239250	-0.403597	-0.441190
O10	O	1.118966	-0.191915	-0.570339
O11	O	1.027636	-0.312364	-0.270948
O12	O	0.907276	-0.312288	-0.441297
O13	O	1.027695	-0.403463	-0.740610
O14	O	0.907265	-0.403476	-0.570317
O15	O	1.118953	-0.312266	-0.740620
O16	O	1.118807	-0.523960	-0.441177
O17	O	1.027612	-0.523903	-0.570248
C18	C	0.880324	-0.357875	-0.505814
C19	C	0.797778	-0.357871	-0.505858
C20	C	1.073219	-0.550878	-0.505727
C21	C	1.073262	-0.633424	-0.505744
C22	C	1.122958	-0.832879	-0.435653
C23	C	1.141102	-0.882207	-0.531534
C24	C	1.073305	-0.784554	-0.505786
C25	C	1.055235	-0.882307	-0.409948
C26	C	1.073347	-0.930539	-0.505818
C27	C	1.091484	-0.832795	-0.601717
C28	C	1.005586	-0.832891	-0.480067
C29	C	1.023705	-0.882197	-0.576014
C30	C	1.073282	-0.700456	-0.505766
C31	C	1.073369	-1.014636	-0.505848
C32	C	0.598343	-0.407601	-0.575852
C33	C	0.548941	-0.339883	-0.601707
C34	C	0.646648	-0.357913	-0.505807
C35	C	0.548968	-0.425670	-0.479951
C36	C	0.500663	-0.357959	-0.505759
C37	C	0.598333	-0.290158	-0.531712
C38	C	0.598364	-0.375991	-0.409911
C39	C	0.548984	-0.308226	-0.435729
C40	C	0.730746	-0.357887	-0.505837
C41	C	0.416566	-0.357977	-0.505729
C42	C	1.266982	-0.357977	-0.505724
C43	C	1.349527	-0.357999	-0.505705
C44	C	1.073332	-0.357854	-0.779802
C45	C	1.073355	-0.357824	-0.896579
C46	C	1.073354	-0.164220	-0.505834
C47	C	1.073387	-0.081674	-0.505861
C48	C	1.120877	-0.310330	-0.951447
C49	C	1.120889	-0.310298	-1.061172
C50	C	1.025857	-0.405260	-1.061149
C51	C	1.025841	-0.405288	-0.951427
C52	C	1.073263	-0.357943	-0.232801
C53	C	1.073384	-0.357764	-0.116025
H54	H	1.164962	-0.811223	-0.376405
H55	H	0.987138	-0.443963	-0.906751
C56	C	1.237866	-0.885356	-0.660591
C57	C	1.218441	-0.911440	-0.560933
H58	H	1.285616	-0.903392	-0.678731
H59	H	1.202665	-0.902249	-0.710478
H60	H	1.238502	-0.832734	-0.660144
H61	H	1.217799	-0.964062	-0.561382
H62	H	1.253651	-0.894551	-0.511033
C63	C	0.545713	-0.522397	-0.350763
C64	C	0.519694	-0.502997	-0.450449
H65	H	0.527637	-0.570134	-0.332558
H66	H	0.598328	-0.523047	-0.351203
H67	H	0.528807	-0.487170	-0.300920
H68	H	0.536604	-0.538221	-0.500294
H69	H	0.467068	-0.502353	-0.450018
H70	H	1.159564	-0.271680	-0.906793
C71	C	1.214830	-0.216444	-1.050165
C72	C	1.173130	-0.258095	-1.121483
H73	H	1.247085	-0.184218	-1.087401
H74	H	1.182481	-0.188039	-1.007384
H75	H	1.243213	-0.248831	-1.007355
H76	H	1.144742	-0.225708	-1.164288
H77	H	1.205483	-0.286502	-1.164282
H78	H	0.948316	-0.811210	-0.458264
H79	H	1.039935	-0.904054	-0.328886
C80	C	0.983688	-0.447388	-1.229336
C81	C	0.973637	-0.457437	-1.121442
H82	H	0.951452	-0.479605	-1.266554
H83	H	0.972841	-0.397488	-1.247332
H84	H	1.033587	-0.458268	-1.247296
H85	H	0.923739	-0.446552	-1.103481
H86	H	0.984479	-0.507348	-1.103438
C87	C	0.544529	-0.371344	-0.784408
C88	C	0.519622	-0.319263	-0.711151
H89	H	0.526425	-0.358620	-0.851972
H90	H	0.597144	-0.371615	-0.785380
H91	H	0.526899	-0.419118	-0.765559
H92	H	0.537256	-0.271490	-0.729996
H93	H	0.466996	-0.318985	-0.710182
H94	H	1.106728	-0.811140	-0.682849
H95	H	0.981733	-0.903716	-0.635405
C96	C	0.671495	-0.338739	-0.261859
C97	C	0.627700	-0.396637	-0.300492
H98	H	0.689602	-0.351491	-0.194306
H99	H	0.712035	-0.330538	-0.307892
H100	H	0.642542	-0.294923	-0.257163
H101	H	0.656653	-0.440452	-0.305196
H102	H	0.587153	-0.404847	-0.254448
H103	H	0.619926	-0.232859	-0.553652
C104	C	0.705177	-0.464085	-0.654438
C105	C	0.627611	-0.464230	-0.655896
H106	H	0.723245	-0.499045	-0.703850
H107	H	0.722798	-0.416095	-0.672125
H108	H	0.722091	-0.477028	-0.586349
H109	H	0.610697	-0.451280	-0.723983
H110	H	0.609983	-0.512230	-0.638216
H111	H	0.527448	-0.266177	-0.376474
