data_functionalizedCrystal
_audit_creation_method	'MofGen! by Chris Wilmer'
_symmetry_space_group_name_H-M	'P1'
_symmetry_Int_Tables_number	1
_symmetry_cell_setting	triclinic
loop_
_symmetry_equiv_pos_as_xyz
  x,y,z
_cell_length_a	6.817900
_cell_length_b	16.418049
_cell_length_c	16.305550
_cell_angle_alpha	95.392859
_cell_angle_beta	103.455250
_cell_angle_gamma	103.389670
loop_
_atom_site_label
_atom_site_type_symbol
_atom_site_fract_x
_atom_site_fract_y
_atom_site_fract_z
V1	V	-4.025855	-0.116594	-0.263330
O2	O	-4.013857	0.004875	-0.258012
O3	O	-3.976925	-0.230486	-0.261823
O4	O	-3.977266	-0.115119	-0.378044
O5	O	-4.013514	-0.111290	-0.140987
V6	V	-4.509576	-0.102027	-0.248661
O7	O	-4.286679	-0.148547	-0.295508
O8	O	-4.698950	-0.070073	-0.216484
O9	O	-4.335300	0.011866	-0.250168
O10	O	-4.638971	-0.223496	-0.253980
O11	O	-4.639315	-0.107331	-0.371005
O12	O	-4.334959	-0.103501	-0.133948
C13	C	-3.821803	-0.258241	-0.257745
C14	C	-3.863082	-0.351351	-0.257277
C15	C	-3.822237	-0.111078	-0.405994
C16	C	-3.863790	-0.110626	-0.499775
C17	C	-4.140109	-0.569849	-0.260438
C18	C	-4.178884	-0.657337	-0.260006
C19	C	-3.814681	-0.648771	-0.251559
C20	C	-3.775912	-0.561285	-0.251997
C21	C	-3.938631	-0.521826	-0.256432
C22	C	-4.016174	-0.696800	-0.255562
C23	C	-4.058214	-0.791658	-0.255094
C24	C	-3.896590	-0.426962	-0.256902
C25	C	-4.014883	-0.108876	-0.840516
C26	C	-3.778853	-0.103678	-0.799574
C27	C	-3.735656	-0.104495	-0.702081
C28	C	-3.939923	-0.109743	-0.671470
C29	C	-4.106679	-0.192465	-0.722309
C30	C	-4.148544	-0.191997	-0.819857
C31	C	-4.069896	-0.032013	-0.794476
C32	C	-4.021969	-0.031358	-0.696631
C33	C	-3.897571	-0.110237	-0.575934
C34	C	-4.057244	-0.108388	-0.936054
C35	C	-4.153764	0.039616	-0.254244
C36	C	-4.091723	0.132725	-0.254717
C37	C	-4.153330	-0.107545	-0.105993
C38	C	-4.091015	-0.107993	-0.012211
H39	H	-4.272608	-0.537724	-0.264048
H40	H	-3.609358	-0.045019	-0.666905
O41	O	-4.374491	-0.704116	-0.263916
C42	C	-4.373817	-0.789791	-0.262555
H43	H	-4.236548	-0.802290	-0.285721
H44	H	-4.358161	-0.804108	-0.194607
C45	C	-4.748256	-0.831804	-0.293110
C46	C	-4.579669	-0.847157	-0.321569
H47	H	-4.875238	-0.867191	-0.329509
H48	H	-4.748711	-0.774083	-0.294023
H49	H	-4.735180	-0.843735	-0.236486
H50	H	-4.592733	-0.835216	-0.378187
H51	H	-4.579221	-0.904878	-0.320666
H52	H	-3.682205	-0.680908	-0.247947
H53	H	-3.611838	-0.522183	-0.248739
H54	H	-4.241951	-0.035085	-0.821299
H55	H	-3.672914	-0.043921	-0.811785
H56	H	-3.733577	-0.158901	-0.831228
H57	H	-4.051051	-0.250668	-0.705645
H58	H	-3.669043	-0.160355	-0.685931
H59	H	-4.259812	-0.199297	-0.703414
O60	O	-4.104981	-0.261319	-0.856367
C61	C	-3.945859	-0.235223	-0.897507
H62	H	-3.942632	-0.168835	-0.913338
H63	H	-3.788578	-0.234583	-0.853531
C64	C	-3.992829	-0.378803	-0.961024
C65	C	-3.988877	-0.297266	-0.980474
H66	H	-4.019356	-0.417075	-1.012200
H67	H	-4.100027	-0.396385	-0.933305
H68	H	-3.861757	-0.378257	-0.924376
H69	H	-4.119955	-0.297811	-1.017113
H70	H	-3.881701	-0.279686	-1.008201
O71	O	-3.960877	0.042690	-0.810280
C72	C	-3.833204	0.026612	-0.863283
H73	H	-3.802394	-0.038131	-0.856764
H74	H	-3.915477	0.027352	-0.932500
C75	C	-3.662064	0.175025	-0.844493
C76	C	-3.624207	0.095510	-0.836480
H77	H	-3.533148	0.217526	-0.827963
H78	H	-3.748084	0.185859	-0.808787
H79	H	-3.730630	0.175630	-0.902175
H80	H	-3.555666	0.094903	-0.778797
H81	H	-3.538170	0.084678	-0.872176
H82	H	-4.322356	-0.199252	-0.847868
O83	O	-3.877625	0.041558	-0.655343
C84	C	-3.703125	0.021832	-0.603958
H85	H	-3.751994	-0.045045	-0.588659
H86	H	-3.576705	0.025631	-0.639605
C87	C	-3.557248	0.167633	-0.539130
C88	C	-3.617274	0.085496	-0.520334
H89	H	-3.504283	0.206906	-0.487548
H90	H	-3.674807	0.180925	-0.573751
H91	H	-3.451907	0.170787	-0.568837
H92	H	-3.722631	0.082341	-0.490636
H93	H	-3.499730	0.072206	-0.485705
H94	H	-4.169260	-0.030329	-0.675281
