data_functionalizedCrystal
_audit_creation_method	'MofGen! by Chris Wilmer'
_symmetry_space_group_name_H-M	'P1'
_symmetry_Int_Tables_number	1
_symmetry_cell_setting	triclinic
loop_
_symmetry_equiv_pos_as_xyz
  x,y,z
_cell_length_a	23.532407
_cell_length_b	19.188930
_cell_length_c	18.266242
_cell_angle_alpha	90.022918
_cell_angle_beta	89.988983
_cell_angle_gamma	97.003272
loop_
_atom_site_label
_atom_site_type_symbol
_atom_site_fract_x
_atom_site_fract_y
_atom_site_fract_z
O1	O	0.071102	-0.925922	-0.061124
O2	O	0.571102	-0.425922	0.438876
O3	O	0.080673	-0.722581	-0.061074
O4	O	0.580673	-0.222581	0.438926
O5	O	-0.007031	-0.830383	-0.061087
O6	O	0.492969	-0.330383	0.438913
O7	O	0.158806	-0.818120	-0.061111
O8	O	0.658806	-0.318120	0.438889
O9	O	-0.007035	-0.830365	0.060675
O10	O	0.492965	-0.330365	0.560675
O11	O	0.080669	-0.722562	0.060688
O12	O	0.580669	-0.222562	0.560688
O13	O	0.071097	-0.925904	0.060638
O14	O	0.571097	-0.425904	0.560638
Zn15	Zn	0.075882	-0.824230	0.079995
Zn16	Zn	0.575882	-0.324230	0.579995
Zn17	Zn	0.075888	-0.824254	-0.080431
Zn18	Zn	0.575888	-0.324254	0.419569
O19	O	0.158802	-0.818102	0.060651
O20	O	0.658802	-0.318102	0.560651
C21	C	0.080361	-0.696561	-0.000187
C22	C	0.580361	-0.196561	0.499813
C23	C	0.079431	-0.619060	-0.000168
C24	C	0.579431	-0.119060	0.499832
C25	C	-0.028250	-0.830062	-0.000204
C26	C	0.471750	-0.330062	0.499796
C27	C	-0.091469	-0.829123	-0.000198
C28	C	0.408531	-0.329123	0.499802
C29	C	0.071410	-0.951923	-0.000251
C30	C	0.571410	-0.451923	0.499749
C31	C	0.072340	-1.029425	-0.000275
C32	C	0.572340	-0.529425	0.499725
C33	C	-0.490449	-0.887029	-0.000252
C34	C	0.009551	-0.387029	0.499748
C35	C	-0.549851	-0.886157	-0.000258
C36	C	-0.049851	-0.386157	0.499742
O37	O	-0.586482	-0.939837	-0.000298
O38	O	-0.086482	-0.439837	0.499702
N39	N	-0.572613	-0.822068	-0.000242
N40	N	-0.072613	-0.322068	0.499758
C41	C	-0.535970	-0.758848	-0.000228
C42	C	-0.035970	-0.258848	0.499772
O43	O	-0.560786	-0.704255	-0.000215
O44	O	-0.060786	-0.204255	0.499785
C45	C	-0.476569	-0.759721	-0.000228
C46	C	0.023431	-0.259721	0.499772
C47	C	-0.453810	-0.823814	-0.000236
C48	C	0.046190	-0.323814	0.499764
C49	C	-0.467690	-0.951117	-0.000262
C50	C	0.032310	-0.451117	0.499738
C51	C	-0.408292	-0.951989	-0.000255
C52	C	0.091708	-0.451989	0.499745
C53	C	-0.371653	-0.888773	-0.000239
C54	C	0.128347	-0.388773	0.499761
C55	C	-0.394412	-0.824685	-0.000230
C56	C	0.105588	-0.324685	0.499770
C57	C	-0.439927	-0.696501	-0.000219
C58	C	0.060073	-0.196501	0.499781
C59	C	-0.380523	-0.697379	-0.000219
C60	C	0.119477	-0.197379	0.499781
C61	C	-0.357764	-0.761472	-0.000228
C62	C	0.142236	-0.261472	0.499772
C63	C	-0.298376	-0.762342	-0.000207
C64	C	0.201624	-0.262342	0.499793
N65	N	-0.275614	-0.826430	-0.000223
N66	N	0.224386	-0.326430	0.499777
C67	C	-0.312252	-0.889646	-0.000239
C68	C	0.187748	-0.389646	0.499761
C69	C	-0.660717	-0.757019	-0.000229
C70	C	-0.160717	-0.257019	0.499771
C71	C	-0.720116	-0.756146	-0.000224
C72	C	-0.220116	-0.256146	0.499776
C73	C	-0.733993	-0.883455	-0.000256
C74	C	-0.233993	-0.383455	0.499744
C75	C	-0.674592	-0.884328	-0.000255
C76	C	-0.174592	-0.384328	0.499745
C77	C	-0.637954	-0.821108	-0.000245
C78	C	-0.137954	-0.321108	0.499755
C79	C	-0.187512	-0.891472	-0.000224
C80	C	0.312488	-0.391472	0.499776
C81	C	-0.128108	-0.892339	-0.000214
C82	C	0.371892	-0.392339	0.499786
C83	C	-0.114236	-0.765029	-0.000187
C84	C	0.385764	-0.265029	0.499813
C85	C	-0.173634	-0.764163	-0.000193
C86	C	0.326366	-0.264163	0.499807
C87	C	-0.210272	-0.827390	-0.000214
C88	C	0.289728	-0.327390	0.499786
O89	O	-0.261710	-0.708690	-0.000170
O90	O	0.238290	-0.208690	0.499830
O91	O	-0.287428	-0.944230	-0.000261
O92	O	0.212572	-0.444230	0.499739
C93	C	0.180021	-0.818423	-0.000234
C94	C	0.680021	-0.318423	0.499766
C95	C	0.243240	-0.819362	-0.000244
C96	C	0.743240	-0.319362	0.499756
N97	N	0.075878	-0.824219	0.189482
N98	N	0.575878	-0.324219	0.689482
C99	C	0.130893	-0.573972	-0.000187
C100	C	0.630893	-0.073972	0.499813
C101	C	0.130019	-0.501151	-0.000194
C102	C	0.630019	-0.001151	0.499806
C103	C	0.077680	-0.473421	-0.000198
C104	C	0.577680	0.026579	0.499802
C105	C	0.026211	-0.518519	-0.000175
C106	C	0.526211	-0.018519	0.499825
C107	C	0.027086	-0.591339	-0.000160
C108	C	0.527086	-0.091339	0.499840
N109	N	0.037674	-0.365575	-0.041663
N110	N	0.537674	0.134425	0.458337
N111	N	0.036846	-0.296399	-0.041679
N112	N	0.536846	0.203601	0.458321
C113	C	0.075038	-0.254021	-0.000243
C114	C	0.575038	0.245979	0.499757
N115	N	0.114099	-0.283431	0.041201
N116	N	0.614099	0.216569	0.541201
N117	N	0.114929	-0.352613	0.041214
N118	N	0.614929	0.147387	0.541214
C119	C	0.076724	-0.394462	-0.000214
C120	C	0.576724	0.105538	0.499786
C121	C	0.125556	-0.129971	-0.000269
C122	C	0.625556	0.370029	0.499731
C123	C	0.124680	-0.057149	-0.000272
C124	C	0.624680	0.442851	0.499728
C125	C	0.020870	-0.074520	-0.000260
C126	C	0.520870	0.425480	0.499740
C127	C	0.021748	-0.147340	-0.000250
C128	C	0.521748	0.352660	0.499750
C129	C	0.074092	-0.175061	-0.000257
C130	C	0.574092	0.324939	0.499743
N131	N	0.075888	-0.824271	-0.189918
N132	N	0.575888	-0.324271	0.310082
C133	C	0.037062	-0.871970	0.227785
C134	C	0.537062	-0.371970	0.727785
C135	C	0.037059	-0.871974	0.304430
C136	C	0.537059	-0.371974	0.804430
C137	C	0.075883	-0.824235	0.342769
C138	C	0.575883	-0.324235	0.842769
C139	C	0.114702	-0.776475	0.304457
C140	C	0.614702	-0.276475	0.804457
C141	C	0.114700	-0.776468	0.227813
C142	C	0.614700	-0.276468	0.727813
N143	N	0.126298	-0.814998	0.463096
N144	N	0.626298	-0.314998	0.963096
N145	N	0.126298	-0.815010	0.535904
N146	N	0.626298	-0.315010	1.035904
C147	C	0.075891	-0.824254	0.573691
C148	C	0.575891	-0.324254	1.073691
N149	N	0.025481	-0.833500	0.535921
N150	N	0.525481	-0.333500	1.035921
N151	N	0.025482	-0.833492	0.463106
N152	N	0.525482	-0.333492	0.963106
C153	C	0.075889	-0.824238	0.425876
C154	C	0.575889	-0.324238	0.925876
C155	C	0.037068	-0.872012	0.695102
C156	C	0.537068	-0.372012	1.195102
C157	C	0.037065	-0.872012	0.771748
C158	C	0.537065	-0.372012	1.271748
C159	C	0.114713	-0.776516	0.771773
C160	C	0.614713	-0.276516	1.271773
C161	C	0.114711	-0.776513	0.695128
C162	C	0.614711	-0.276513	1.195128
C163	C	0.075890	-0.824265	0.656797
C164	C	0.575890	-0.324265	1.156797
H165	H	-0.109581	-0.944533	-0.000220
H166	H	0.390419	-0.444533	0.499780
O167	O	-0.033757	-0.195978	-0.000236
O168	O	0.466243	0.304022	0.499764
H169	H	-0.070300	-0.164465	-0.000244
H170	H	0.429700	0.335535	0.499756
H171	H	-0.021745	-0.051943	-0.000309
H172	H	0.478255	0.448057	0.499691
O173	O	-0.004816	-0.923462	0.186441
O174	O	0.495184	-0.423462	0.686441
H175	H	-0.031812	-0.956662	0.225957
H176	H	0.468188	-0.456662	0.725957
O177	O	-0.004803	-0.923485	0.345758
O178	O	0.495197	-0.423485	0.845758
H179	H	-0.031794	-0.956692	0.306228
H180	H	0.468206	-0.456692	0.806228
O181	O	0.156581	-0.724987	0.345801
O182	O	0.656581	-0.224987	0.845801
H183	H	0.150066	-0.733020	0.405532
H184	H	0.650066	-0.233020	0.905532
O185	O	-0.004819	-0.923484	0.653744
O186	O	0.495181	-0.423484	1.153744
H187	H	0.019074	-0.957255	0.618794
H188	H	0.519074	-0.457255	1.118794
O189	O	0.180189	-0.008515	-0.000285
O190	O	0.680189	0.491485	0.499715
H191	H	0.182272	0.025057	-0.049914
H192	H	0.682272	0.525057	0.450086
H193	H	0.146309	-0.737582	0.196626
H194	H	0.646309	-0.237582	0.696626
O195	O	0.187350	-0.603867	-0.000189
O196	O	0.687350	-0.103867	0.499811
H197	H	0.179315	-0.662079	-0.000181
H198	H	0.679315	-0.162079	0.499819
O199	O	-0.004798	-0.923524	0.813067
O200	O	0.495202	-0.423524	1.313067
H201	H	-0.031785	-0.956731	0.773534
H202	H	0.468215	-0.456731	1.273534
O203	O	0.185524	-0.452503	-0.000217
O204	O	0.685524	0.047497	0.499783
H205	H	0.210577	-0.462338	-0.049852
H206	H	0.710577	0.037662	0.450148
O207	O	0.156590	-0.725025	0.813111
O208	O	0.656590	-0.225025	1.313111
H209	H	0.150074	-0.733054	0.872842
H210	H	0.650074	-0.233054	1.372842
H211	H	-0.350694	-0.645897	-0.000212
H212	H	0.149306	-0.145897	0.499788
O213	O	-0.030243	-0.488618	-0.000179
O214	O	0.469757	0.011382	0.499821
H215	H	-0.022207	-0.430406	-0.000200
H216	H	0.477793	0.069594	0.499800
O217	O	-0.464466	-0.627372	-0.000212
O218	O	0.035534	-0.127372	0.499788
H219	H	-0.429001	-0.583568	-0.000210
H220	H	0.070999	-0.083568	0.499790
H221	H	-0.630888	-0.705535	-0.000215
H222	H	-0.130888	-0.205535	0.499785
O223	O	-0.028421	-0.639977	-0.000143
O224	O	0.471579	-0.139977	0.499857
H225	H	-0.064964	-0.608464	-0.000149
H226	H	0.435036	-0.108464	0.499851
O227	O	0.182009	-0.159880	-0.000263
O228	O	0.682009	0.340120	0.499737
H229	H	0.217649	-0.116290	-0.000263
H230	H	0.717649	0.383710	0.499737
O231	O	0.156580	-0.725016	0.653805
O232	O	0.656580	-0.225016	1.153805
H233	H	0.200961	-0.733606	0.668489
H234	H	0.700961	-0.233606	1.168489
O235	O	-0.227023	-0.959665	-0.000236
O236	O	0.272977	-0.459665	0.499764
H237	H	-0.201209	-1.004370	-0.000233
H238	H	0.298791	-0.504370	0.499767
O239	O	-0.383747	-1.021117	-0.000286
O240	O	0.116253	-0.521117	0.499714
H241	H	-0.419211	-1.064922	-0.000310
H242	H	0.080789	-0.564922	0.499690
O243	O	-0.744662	-0.687018	-0.000201
O244	O	-0.244662	-0.187018	0.499799
H245	H	-0.729926	-0.656671	-0.049823
H246	H	-0.229926	-0.156671	0.450177
H247	H	-0.497516	-1.002598	-0.000278
H248	H	0.002484	-0.502598	0.499722
O249	O	-0.650046	-0.953455	-0.000278
O250	O	-0.150046	-0.453455	0.499722
H251	H	-0.685508	-0.997262	-0.000296
H252	H	-0.185508	-0.497262	0.499704
O253	O	-0.773517	-0.951641	-0.000272
O254	O	-0.273517	-0.451641	0.499728
H255	H	-0.765436	-0.982343	-0.049904
H256	H	-0.265436	-0.482343	0.450096
H257	H	-0.192165	-0.711973	-0.000165
H258	H	0.307835	-0.211973	0.499835
O259	O	-0.074714	-0.696848	-0.000170
O260	O	0.425286	-0.196848	0.499830
H261	H	-0.029587	-0.708228	-0.000176
H262	H	0.470413	-0.208228	0.499824
