data_functionalizedCrystal
_audit_creation_method	'MofGen! by Chris Wilmer'
_symmetry_space_group_name_H-M	'P1'
_symmetry_Int_Tables_number	1
_symmetry_cell_setting	triclinic
loop_
_symmetry_equiv_pos_as_xyz
  x,y,z
_cell_length_a	19.077068
_cell_length_b	19.077372
_cell_length_c	11.169409
_cell_angle_alpha	87.733568
_cell_angle_beta	92.259152
_cell_angle_gamma	85.467681
loop_
_atom_site_label
_atom_site_type_symbol
_atom_site_fract_x
_atom_site_fract_y
_atom_site_fract_z
Zn1	Zn	-0.237286	-1.066452	-0.622095
Zn2	Zn	-0.355200	-1.061614	-0.429791
Zn3	Zn	-0.242064	-0.948555	-0.429787
Zn4	Zn	-0.359876	-0.943793	-0.638781
O5	O	-0.298606	-1.005104	-0.530113
O6	O	-0.248970	-1.164459	-0.589604
O7	O	-0.340235	-1.046584	-0.261846
O8	O	-0.142779	-0.968212	-0.448312
O9	O	-0.335601	-1.160904	-0.448319
O10	O	-0.139268	-1.054831	-0.589600
O11	O	-0.257115	-0.963521	-0.261843
O12	O	-0.261649	-0.849275	-0.464492
O13	O	-0.343571	-0.960096	-0.804512
O14	O	-0.348205	-0.845777	-0.618039
O15	O	-0.253504	-1.050213	-0.792253
O16	O	-0.454472	-1.041967	-0.464499
O17	O	-0.457907	-0.955405	-0.618043
C18	C	-0.305953	-0.821948	-0.543076
C19	C	-0.309113	-0.743592	-0.548651
C20	C	-0.481768	-0.997663	-0.543106
C21	C	-0.560123	-0.994544	-0.548700
C22	C	-0.331724	-0.302340	-0.588696
C23	C	-0.328760	-0.375963	-0.583436
C24	C	-0.282141	-0.414576	-0.500984
C25	C	-0.238488	-0.379562	-0.423780
C26	C	-0.241456	-0.305940	-0.429035
C27	C	-0.268428	-0.634956	-0.476702
C28	C	-0.265462	-0.708583	-0.471455
C29	C	-0.355736	-0.704979	-0.631110
C30	C	-0.358696	-0.631355	-0.636363
C31	C	-0.315046	-0.596348	-0.559154
N32	N	-0.279109	-0.489831	-0.495608
N33	N	-0.318082	-0.521094	-0.564526
C34	C	-0.595121	-1.038183	-0.471448
C35	C	-0.668744	-1.035254	-0.476716
C36	C	-0.707367	-0.988682	-0.559232
C37	C	-0.672364	-0.945042	-0.636493
C38	C	-0.598743	-0.947976	-0.631230
C39	C	-0.927746	-0.975077	-0.583545
C40	C	-1.001373	-0.972146	-0.588800
C41	C	-0.997747	-1.062358	-0.429023
C42	C	-0.924124	-1.065284	-0.423762
C43	C	-0.889128	-1.021647	-0.501028
N44	N	-0.782621	-0.985686	-0.564616
N45	N	-0.813875	-1.024647	-0.495648
C46	C	-0.114728	-1.012592	-0.517095
C47	C	-0.036371	-1.015784	-0.511547
C48	C	-0.298526	-1.005163	-0.843147
C49	C	-0.298492	-1.005189	-0.976543
C50	C	-0.291227	-0.188975	-0.517087
C51	C	-0.288073	-0.267331	-0.511500
C52	C	-0.298634	-1.005087	-0.218292
C53	C	-0.298464	-1.005206	-0.084873
H54	H	-0.364307	-0.404464	-0.646295
H55	H	-0.570248	-0.912442	-0.694139
H56	H	-0.205908	-0.277437	-0.366176
C57	C	-0.553314	-1.088817	-0.381811
C58	C	-0.599725	-1.126419	-0.315307
C59	C	-0.561240	-1.173078	-0.232734
H60	H	-0.525721	-1.063087	-0.329226
H61	H	-0.523325	-1.120703	-0.423505
H62	H	-0.629702	-1.094538	-0.273616
H63	H	-0.627319	-1.152164	-0.367860
H64	H	-0.531251	-1.204964	-0.274427
H65	H	-0.533649	-1.147342	-0.180156
H66	H	-0.592724	-1.198602	-0.187608
C67	C	-0.409203	-0.589408	-0.726024
C68	C	-0.371047	-0.548800	-0.803278
C69	C	-0.417549	-0.510159	-0.885903
H70	H	-0.441064	-0.559369	-0.684398
H71	H	-0.434763	-0.620786	-0.771311
H72	H	-0.345499	-0.517425	-0.757996
H73	H	-0.339189	-0.578821	-0.844932
H74	H	-0.443109	-0.541537	-0.931190
H75	H	-0.449407	-0.480124	-0.844267
H76	H	-0.391667	-0.482607	-0.938337
C77	C	-0.187965	-0.421444	-0.334063
C78	C	-0.203973	-0.402885	-0.217636
C79	C	-0.157452	-0.441459	-0.134957
H80	H	-0.141069	-0.411338	-0.349095
H81	H	-0.192456	-0.470311	-0.341911
H82	H	-0.199476	-0.354030	-0.209792
H83	H	-0.250861	-0.412994	-0.202565
H84	H	-0.161942	-0.490326	-0.142804
H85	H	-0.110558	-0.431350	-0.150000
H86	H	-0.168311	-0.428877	-0.055951
C87	C	-0.882164	-1.115735	-0.334029
C88	C	-0.841588	-1.077523	-0.256834
C89	C	-0.802933	-1.123972	-0.174141
H90	H	-0.852103	-1.147601	-0.375604
H91	H	-0.913534	-1.141293	-0.288706
H92	H	-0.810221	-1.051977	-0.302151
H93	H	-0.871631	-1.045659	-0.215231
H94	H	-0.834303	-1.149529	-0.128818
H95	H	-0.772877	-1.155835	-0.215726
H96	H	-0.775403	-1.098051	-0.121747
H97	H	-1.026249	-1.097886	-0.366120
C98	C	-1.043435	-0.921602	-0.678271
C99	C	-1.115400	-0.928359	-0.666311
C100	C	-1.154169	-0.881804	-0.748692
H101	H	-1.030999	-0.932330	-0.757391
H102	H	-1.033360	-0.874703	-0.663130
H103	H	-1.125471	-0.975247	-0.681462
H104	H	-1.127857	-0.917625	-0.587210
H105	H	-1.144095	-0.834906	-0.733551
H106	H	-1.141728	-0.892536	-0.827807
H107	H	-1.203002	-0.886378	-0.740581
C108	C	-0.403098	-0.743116	-0.714782
C109	C	-0.390537	-0.815855	-0.692517
C110	C	-0.434165	-0.851008	-0.769562
H111	H	-0.393366	-0.731580	-0.795629
H112	H	-0.450952	-0.729163	-0.701284
H113	H	-0.342695	-0.829803	-0.706025
H114	H	-0.400274	-0.827411	-0.611685
H115	H	-0.482019	-0.837055	-0.756063
H116	H	-0.424429	-0.839467	-0.850404
H117	H	-0.425653	-0.900365	-0.754458
C118	C	-0.889887	-0.927606	-0.667471
C119	C	-0.939473	-0.886177	-0.740826
C120	C	-0.904620	-0.842426	-0.818140
H121	H	-0.860034	-0.955616	-0.715958
H122	H	-0.862469	-0.898010	-0.621661
H123	H	-0.966879	-0.915770	-0.786632
H124	H	-0.969328	-0.858153	-0.692372
H125	H	-0.877202	-0.812830	-0.772330
H126	H	-0.874768	-0.870441	-0.866619
H127	H	-0.938259	-0.814306	-0.867913
H128	H	-0.369683	-0.270906	-0.655844
H129	H	-0.227490	-0.740020	-0.404321
C130	C	-0.220949	-0.597084	-0.392827
C131	C	-0.179473	-0.646661	-0.319524
C132	C	-0.135718	-0.611797	-0.242253
H133	H	-0.248957	-0.567253	-0.344300
H134	H	-0.191383	-0.569642	-0.438668
H135	H	-0.209036	-0.674091	-0.273687
H136	H	-0.151451	-0.676493	-0.368018
H137	H	-0.106152	-0.584354	-0.288094
H138	H	-0.163731	-0.581967	-0.193735
H139	H	-0.107566	-0.645429	-0.192516
H140	H	-0.703817	-0.907126	-0.703684
H141	H	-0.697235	-1.070788	-0.413808
