data_functionalizedCrystal
_audit_creation_method	'MofGen! by Chris Wilmer'
_symmetry_space_group_name_H-M	'P1'
_symmetry_Int_Tables_number	1
_symmetry_cell_setting	triclinic
loop_
_symmetry_equiv_pos_as_xyz
  x,y,z
_cell_length_a	10.654550
_cell_length_b	14.853567
_cell_length_c	9.130313
_cell_angle_alpha	89.999276
_cell_angle_beta	89.999724
_cell_angle_gamma	84.059930
loop_
_atom_site_label
_atom_site_type_symbol
_atom_site_fract_x
_atom_site_fract_y
_atom_site_fract_z
O1	O	1.666524	0.126626	-0.121676
O2	O	1.300920	0.138690	-0.121702
O3	O	1.493488	0.001481	-0.121693
O4	O	1.473956	0.263836	-0.121686
O5	O	1.493475	0.001477	0.121906
O6	O	1.300907	0.138686	0.121897
O7	O	1.666511	0.126622	0.121922
Cu8	Cu	1.483708	0.132654	0.144152
Cu9	Cu	1.483723	0.132658	-0.143932
O10	O	1.473943	0.263832	0.121913
C11	C	1.254125	0.137802	0.000094
C12	C	1.114709	0.135152	0.000084
C13	C	1.034384	0.215939	0.000090
C14	C	0.903389	0.213443	0.000115
C15	C	0.933057	0.049367	0.000122
C16	C	1.064049	0.051864	0.000107
C17	C	1.492596	-0.032115	0.000102
C18	C	1.489944	-0.132213	0.000089
C19	C	1.364344	-0.545419	0.000108
C20	C	1.593119	-0.565475	0.000124
C21	C	1.595613	-0.471428	0.000116
C22	C	1.482470	-0.414372	0.000106
C23	C	1.366834	-0.451363	0.000104
C24	C	1.711247	-0.434430	0.000132
C25	C	1.713745	-0.340378	0.000125
C26	C	1.600601	-0.283320	0.000105
C27	C	1.484961	-0.320316	0.000102
C28	C	1.371818	-0.263260	0.000092
C29	C	1.256176	-0.300254	0.000078
C30	C	1.253691	-0.394305	0.000084
C31	C	1.603087	-0.189269	0.000099
C32	C	1.374308	-0.169204	0.000088
C33	C	1.713306	0.127510	0.000123
C34	C	1.852722	0.130160	0.000124
C35	C	1.474835	0.297427	0.000115
C36	C	1.477487	0.397525	0.000118
N37	N	1.483706	0.132650	0.346775
N38	N	1.483735	0.132655	-0.346554
C39	C	1.569003	0.071919	0.423431
C40	C	1.569015	0.071919	0.576767
C41	C	1.398428	0.193389	0.576779
C42	C	1.398411	0.193383	0.423445
H43	H	1.282172	-0.122754	0.000073
O44	O	1.089023	0.305769	0.000097
H45	H	1.056751	0.344638	-0.099174
H46	H	1.328946	0.242838	0.361028
O47	O	1.660959	0.006395	0.340724
H48	H	1.722062	0.044736	0.270842
H49	H	0.891793	-0.018444	0.000150
O50	O	1.833275	-0.495963	0.000164
H51	H	1.812112	-0.567577	0.000152
H52	H	1.638471	0.022466	0.639176
O53	O	1.306453	0.258907	0.659471
H54	H	1.245367	0.220558	0.729362
O55	O	0.816748	0.300577	0.000118
H56	H	0.873987	0.358907	0.000090
O57	O	1.838473	-0.300488	0.000118
H58	H	1.845092	-0.258119	0.099403
O59	O	1.727797	-0.149363	0.000104
H60	H	1.806052	-0.204838	0.000106
H61	H	1.129454	-0.013927	0.000106
H62	H	1.270191	-0.575544	0.000091
O63	O	1.134143	-0.238714	0.000071
H64	H	1.155312	-0.167101	0.000069
H65	H	1.159541	-0.424435	0.000074
O66	O	1.715149	-0.627007	0.000149
H67	H	1.693990	-0.698621	0.000150
