data_functionalizedCrystal
_audit_creation_method	'MofGen! by Chris Wilmer'
_symmetry_space_group_name_H-M	'P1'
_symmetry_Int_Tables_number	1
_symmetry_cell_setting	triclinic
loop_
_symmetry_equiv_pos_as_xyz
  x,y,z
_cell_length_a	16.109301
_cell_length_b	14.519709
_cell_length_c	14.586319
_cell_angle_alpha	89.995260
_cell_angle_beta	89.999213
_cell_angle_gamma	83.570813
loop_
_atom_site_label
_atom_site_type_symbol
_atom_site_fract_x
_atom_site_fract_y
_atom_site_fract_z
O1	O	1.103336	0.118540	-0.076184
O2	O	1.603336	0.618540	0.423816
O3	O	0.861300	0.133292	-0.076199
O4	O	1.361300	0.633292	0.423801
O5	O	0.988735	-0.008336	-0.076183
O6	O	1.488735	0.491664	0.423817
O7	O	0.975901	0.260168	-0.076200
O8	O	1.475901	0.760168	0.423800
O9	O	0.988726	-0.008338	0.076298
O10	O	1.488726	0.491662	0.576298
O11	O	0.861291	0.133290	0.076282
O12	O	1.361291	0.633290	0.576282
O13	O	1.103327	0.118538	0.076296
O14	O	1.603327	0.618538	0.576296
Cu15	Cu	0.982308	0.125914	0.090212
Cu16	Cu	1.482308	0.625914	0.590212
Cu17	Cu	0.982319	0.125916	-0.090114
Cu18	Cu	1.482319	0.625916	0.409886
O19	O	0.975892	0.260166	0.076280
O20	O	1.475892	0.760166	0.576280
C21	C	0.830319	0.132693	0.000039
C22	C	1.330319	0.632693	0.500039
C23	C	0.738021	0.130902	0.000034
C24	C	1.238021	0.630902	0.500034
C25	C	0.988132	-0.042696	0.000057
C26	C	1.488132	0.457304	0.500057
C27	C	0.986340	-0.145073	0.000058
C28	C	1.486340	0.354927	0.500058
C29	C	0.515887	0.210775	0.000040
C30	C	1.015887	0.710775	0.500040
C31	C	0.429163	0.209085	0.000046
C32	C	0.929163	0.709085	0.500046
C33	C	0.448747	0.041048	0.000053
C34	C	0.948747	0.541048	0.500053
C35	C	0.535468	0.042739	0.000053
C36	C	1.035468	0.542739	0.500053
C37	C	0.569036	0.127606	0.000042
C38	C	1.069036	0.627606	0.500042
C39	C	0.395591	0.124224	0.000047
C40	C	0.895591	0.624224	0.500047
C41	C	0.301562	0.122390	0.000054
C42	C	0.801562	0.622390	0.500054
C43	C	0.663071	0.129440	0.000037
C44	C	1.163071	0.629440	0.500037
C45	C	0.979741	-0.519955	0.000034
C46	C	1.479741	-0.019955	0.500034
C47	C	0.981574	-0.415651	0.000041
C48	C	1.481574	0.084349	0.500041
C49	C	0.983041	-0.332517	0.000047
C50	C	1.483041	0.167483	0.500047
C51	C	0.984873	-0.228207	0.000052
C52	C	1.484873	0.271793	0.500052
C53	C	1.134307	0.119136	0.000056
C54	C	1.634307	0.619136	0.500056
C55	C	1.226606	0.120928	0.000055
C56	C	1.726606	0.620928	0.500055
C57	C	0.976494	0.294526	0.000038
C58	C	1.476494	0.794526	0.500038
C59	C	0.978287	0.396903	0.000031
C60	C	1.478287	0.896903	0.500031
N61	N	0.982307	0.125911	0.217044
N62	N	1.482307	0.625911	0.717044
N63	N	0.982326	0.125911	-0.216946
N64	N	1.482326	0.625911	0.283054
C65	C	1.038754	0.063219	0.452057
C66	C	1.538754	0.563219	0.952057
C67	C	1.038756	0.063217	0.548038
C68	C	1.538756	0.563217	1.048038
C69	C	0.925873	0.188606	0.548034
C70	C	1.425873	0.688606	1.048034
C71	C	0.925868	0.188603	0.452054
C72	C	1.425868	0.688603	0.952054
C73	C	0.982313	0.125911	0.404068
C74	C	1.482313	0.625911	0.904068
C75	C	0.982321	0.125912	0.596029
C76	C	1.482321	0.625912	1.096029
C77	C	0.982323	0.125910	0.700096
C78	C	1.482323	0.625910	1.200096
C79	C	0.982310	0.125911	0.299995
C80	C	1.482310	0.625911	0.799995
H81	H	0.543214	0.279879	0.000037
H82	H	1.043214	0.779879	0.500037
C83	C	0.677105	-0.029278	0.000060
C84	C	1.177105	0.470722	0.500060
C85	C	0.593899	-0.048687	0.000055
C86	C	1.093899	0.451313	0.500055
H87	H	0.713175	-0.085719	0.000069
H88	H	1.213175	0.414281	0.500069
H89	H	0.687289	0.005517	-0.053111
H90	H	1.187289	0.505517	0.446889
H91	H	0.687281	0.005520	0.053236
H92	H	1.187281	0.505520	0.553236
H93	H	0.583720	-0.083479	-0.053125
H94	H	1.083720	0.416521	0.446875
H95	H	0.583710	-0.083497	0.053232
H96	H	1.083710	0.416503	0.553232
H97	H	0.879902	0.239655	0.412979
H98	H	1.379902	0.739655	0.912979
C99	C	0.418523	0.375349	0.000024
C100	C	0.918523	0.875349	0.500024
C101	C	0.370742	0.300508	0.000036
C102	C	0.870742	0.800508	0.500036
H103	H	0.382454	0.431792	0.000014
H104	H	0.882454	0.931792	0.500014
H105	H	0.452753	0.372515	0.053194
H106	H	0.952753	0.872515	0.553194
H107	H	0.452757	0.372505	-0.053153
H108	H	0.952757	0.872505	0.446847
H109	H	0.336512	0.303348	0.053218
H110	H	0.836512	0.803348	0.553218
H111	H	0.336497	0.303344	-0.053139
H112	H	0.836497	0.803344	0.446861
H113	H	1.084715	0.012167	0.587108
H114	H	1.584715	0.512167	1.087108
H115	H	0.421405	-0.028048	0.000067
H116	H	0.921405	0.471952	0.500067
C117	C	1.150326	-0.060729	0.461706
C118	C	1.650326	0.439271	0.961706
C119	C	1.100789	-0.005699	0.399310
C120	C	1.600789	0.494301	0.899310
H121	H	1.188620	-0.103283	0.429142
H122	H	1.688620	0.396717	0.929142
H123	H	1.180290	-0.022332	0.499131
H124	H	1.680290	0.477668	0.999131
H125	H	1.115662	-0.093906	0.499151
H126	H	1.615662	0.406094	0.999151
H127	H	1.135453	0.027483	0.361870
H128	H	1.635453	0.527483	0.861870
H129	H	1.070823	-0.044102	0.361869
H130	H	1.570823	0.455898	0.861869
H131	H	0.879918	0.239650	0.587113
H132	H	1.379918	0.739650	1.087113
