data_functionalizedCrystal
_audit_creation_method	'MofGen! by Chris Wilmer'
_symmetry_space_group_name_H-M	'P1'
_symmetry_Int_Tables_number	1
_symmetry_cell_setting	triclinic
loop_
_symmetry_equiv_pos_as_xyz
  x,y,z
_cell_length_a	19.805407
_cell_length_b	19.805405
_cell_length_c	19.805399
_cell_angle_alpha	89.972514
_cell_angle_beta	90.017803
_cell_angle_gamma	89.974956
loop_
_atom_site_label
_atom_site_type_symbol
_atom_site_fract_x
_atom_site_fract_y
_atom_site_fract_z
Zn1	Zn	1.034729	0.269527	0.382688
Zn2	Zn	1.034642	0.382716	0.269500
Zn3	Zn	0.921544	0.269541	0.269516
Zn4	Zn	0.921505	0.382674	0.382650
O5	O	0.978105	0.326115	0.326089
O6	O	1.129434	0.284554	0.367683
O7	O	1.019619	0.367726	0.174786
O8	O	0.936611	0.174822	0.284551
O9	O	1.129370	0.367713	0.284524
O10	O	1.019768	0.174813	0.367698
O11	O	0.936526	0.284576	0.174797
O12	O	0.826822	0.284536	0.284515
O13	O	0.936545	0.367642	0.477372
O14	O	0.826794	0.367655	0.367634
O15	O	1.019730	0.284514	0.477400
O16	O	1.019581	0.477427	0.284487
O17	O	0.936460	0.477397	0.367618
C18	C	0.802249	0.326093	0.326072
C19	C	0.727017	0.326101	0.326081
C20	C	0.691707	0.282876	0.369448
C21	C	0.621019	0.282880	0.369450
C22	C	0.585641	0.326112	0.326089
C23	C	0.620956	0.369338	0.282718
C24	C	0.691644	0.369330	0.282712
C25	C	0.335883	0.369368	0.282739
C26	C	0.265191	0.369374	0.282749
C27	C	0.265258	0.282918	0.369477
C28	C	0.335945	0.282910	0.369471
C29	C	0.371254	0.326134	0.326098
C30	C	0.447903	0.326128	0.326094
C31	C	0.508994	0.326121	0.326096
C32	C	0.978025	0.501971	0.326061
C33	C	0.978052	0.577203	0.326072
C34	C	1.021375	0.612540	0.282833
C35	C	1.021402	0.683228	0.282850
C36	C	0.978103	0.718578	0.326104
C37	C	0.934779	0.683236	0.369349
C38	C	0.934755	0.612549	0.369334
C39	C	0.934872	0.968309	0.369408
C40	C	0.934897	1.039001	0.369417
C41	C	1.021518	1.038989	0.282923
C42	C	1.021495	0.968302	0.282909
C43	C	0.978174	0.932965	0.326156
C44	C	0.978146	0.856317	0.326138
C45	C	0.978127	0.795225	0.326119
C46	C	1.154648	0.326136	0.326106
C47	C	1.229880	0.326146	0.326113
C48	C	0.978143	0.326072	0.502631
C49	C	0.978159	0.326054	0.577863
C50	C	0.978198	1.149572	0.326139
C51	C	0.978223	1.074340	0.326180
C52	C	0.978106	0.326108	0.150233
C53	C	0.978221	0.325936	0.075001
C54	C	1.021475	0.282767	0.613223
C55	C	1.021482	0.282747	0.683912
C56	C	0.978176	0.326018	0.719239
C57	C	0.934856	0.369308	0.683874
C58	C	0.934846	0.369323	0.613187
C59	C	0.934894	0.369244	0.968948
C60	C	0.934908	0.369227	1.039640
C61	C	1.021530	0.282668	1.039672
C62	C	1.021520	0.282684	0.968985
C63	C	0.978197	0.325970	0.933627
C64	C	0.978189	0.325990	0.856978
C65	C	0.978187	0.326002	0.795886
H66	H	0.592147	0.404535	0.247409
H67	H	0.720392	0.404528	0.247398
H68	H	0.899628	0.404501	0.940168
H69	H	0.899567	0.404565	0.584398
H70	H	1.056631	0.583763	0.247607
C71	C	0.887098	0.573674	0.416896
C72	C	0.810159	0.583452	0.411305
C73	C	0.762502	0.544578	0.458870
C74	C	0.791785	0.495925	0.512027
C75	C	0.868728	0.486144	0.517621
C76	C	0.916385	0.525019	0.470055
H77	H	0.788478	0.619470	0.371953
H78	H	0.705544	0.551818	0.454729
H79	H	0.756507	0.467148	0.547238
H80	H	0.890409	0.450127	0.556973
H81	H	0.973343	0.517778	0.474197
C82	C	0.887217	0.929440	0.416972
C83	C	0.916498	0.880789	0.470130
C84	C	0.868841	0.841915	0.517695
C85	C	0.791902	0.851692	0.512101
C86	C	0.762616	0.900346	0.458940
C87	C	0.810274	0.939220	0.411376
H88	H	0.973457	0.873549	0.474273
H89	H	0.890521	0.805898	0.557048
H90	H	0.756623	0.822915	0.547311
H91	H	0.705658	0.907586	0.454798
H92	H	0.788594	0.975237	0.372023
H93	H	1.056795	1.067768	0.247712
C94	C	0.887269	1.077887	0.417004
C95	C	0.810323	1.068232	0.411420
C96	C	0.762697	1.107119	0.459003
C97	C	0.792018	1.155660	0.512171
C98	C	0.868968	1.165318	0.517757
C99	C	0.916593	1.126431	0.470174
H100	H	0.788614	1.032297	0.372060
H101	H	0.705734	1.099969	0.454867
H102	H	0.756762	1.184446	0.547395
H103	H	0.890676	1.201253	0.557117
H104	H	0.973557	1.133581	0.474310
H105	H	0.899641	0.404465	1.068402
C106	C	1.069113	0.235166	0.574366
C107	C	1.063631	0.158218	0.584103
C108	C	1.111268	0.110615	0.545248
C109	C	1.164387	0.139959	0.496655
C110	C	1.169871	0.216911	0.486916
C111	C	1.122234	0.264515	0.525771
H112	H	1.024308	0.136492	0.620076
H113	H	1.107209	0.053650	0.552458
H114	H	1.199651	0.104720	0.467892
H115	H	1.209194	0.238637	0.450943
H116	H	1.126293	0.321480	0.518561
C117	C	1.069126	0.929418	0.235330
C118	C	1.116785	0.968288	0.187769
C119	C	1.164420	0.929405	0.140192
C120	C	1.164395	0.851652	0.140176
C121	C	1.116735	0.812777	0.187738
C122	C	1.069100	0.851660	0.235316
H123	H	1.116805	1.025849	0.187780
H124	H	1.199701	0.958183	0.104983
H125	H	1.199657	0.822868	0.104956
H126	H	1.116715	0.755216	0.187728
H127	H	1.033819	0.822882	0.270525
H128	H	0.720506	0.247674	0.404759
H129	H	0.899527	0.712023	0.404570
H130	H	0.364746	0.247709	0.404783
C131	C	1.069128	0.235128	0.722807
C132	C	1.116766	0.187533	0.683950
C133	C	1.164412	0.139909	0.722845
C134	C	1.164420	0.139882	0.800598
C135	C	1.116781	0.187479	0.839460
C136	C	1.069135	0.235102	0.800565
H137	H	1.116761	0.187551	0.626388
H138	H	1.199677	0.104674	0.694076
H139	H	1.199691	0.104628	0.829391
H140	H	1.116786	0.187460	0.897022
H141	H	1.033870	0.270337	0.829334
C142	C	1.069181	0.235045	1.078568
C143	C	1.069194	0.235019	1.156321
C144	C	1.116845	0.187399	1.195215
C145	C	1.164483	0.139805	1.156355
C146	C	1.164472	0.139830	1.078598
C147	C	1.116821	0.187449	1.039704
H148	H	1.033928	0.270252	1.185091
H149	H	1.116854	0.187381	1.252776
H150	H	1.199758	0.104554	1.185146
H151	H	1.199738	0.104596	1.049827
H152	H	1.116812	0.187467	0.982143
H153	H	1.056679	0.711997	0.247639
C154	C	0.887218	0.416908	0.722732
C155	C	0.887229	0.416896	0.800486
C156	C	0.839592	0.464499	0.839342
C157	C	0.791944	0.512113	0.800445
C158	C	0.791931	0.512127	0.722687
C159	C	0.839568	0.464524	0.683831
H160	H	0.922503	0.381647	0.829283
H161	H	0.839602	0.464489	0.896903
H162	H	0.756680	0.547352	0.829208
H163	H	0.756657	0.547375	0.693890
H164	H	0.839558	0.464534	0.626270
H165	H	1.056786	0.247450	0.940225
H166	H	0.592272	0.247684	0.404765
H167	H	0.236501	0.247721	0.404791
C168	C	0.226274	0.416928	0.235045
C169	C	0.235958	0.411294	0.158108
C170	C	0.197041	0.458845	0.110408
C171	C	0.148441	0.512031	0.139643
C172	C	0.138755	0.517667	0.216584
C173	C	0.177672	0.470116	0.264284
H174	H	0.271936	0.371920	0.136463
H175	H	0.204211	0.454672	0.053451
H176	H	0.119632	0.547231	0.104332
H177	H	0.102776	0.557041	0.238229
H178	H	0.170502	0.474289	0.321241
C179	C	0.374717	0.416922	0.235038
C180	C	0.335801	0.464482	0.187351
C181	C	0.374638	0.512041	0.139651
C182	C	0.452391	0.512040	0.139638
C183	C	0.491311	0.464479	0.187328
C184	C	0.452474	0.416920	0.235028
H185	H	0.278239	0.464484	0.187358
H186	H	0.345826	0.547249	0.104348
H187	H	0.481141	0.547247	0.104328
H188	H	0.548873	0.464477	0.187320
H189	H	0.481286	0.381712	0.270331
