data_functionalizedCrystal
_audit_creation_method	'MofGen! by Chris Wilmer'
_symmetry_space_group_name_H-M	'P1'
_symmetry_Int_Tables_number	1
_symmetry_cell_setting	triclinic
loop_
_symmetry_equiv_pos_as_xyz
  x,y,z
_cell_length_a	12.811438
_cell_length_b	15.944493
_cell_length_c	14.421503
_cell_angle_alpha	90.007438
_cell_angle_beta	95.439735
_cell_angle_gamma	83.761275
loop_
_atom_site_label
_atom_site_type_symbol
_atom_site_fract_x
_atom_site_fract_y
_atom_site_fract_z
O1	O	1.392646	0.113158	0.040031
O2	O	1.087057	0.125455	0.014329
O3	O	1.248228	-0.002943	0.027877
O4	O	1.231475	0.241555	0.026483
O5	O	1.248248	-0.002935	0.182102
O6	O	1.087077	0.125463	0.168554
O7	O	1.392665	0.113166	0.194256
Cu8	Cu	1.239873	0.119315	0.195487
Cu9	Cu	1.239850	0.119305	0.013098
O10	O	1.231494	0.241564	0.180708
C11	C	1.047963	0.124769	0.088152
C12	C	0.931445	0.122702	0.078351
C13	C	0.767204	0.119785	-0.019520
C14	C	0.876683	0.121726	-0.010319
C15	C	0.876719	0.121735	0.157827
C16	C	0.767240	0.119794	0.148626
C17	C	0.712486	0.118820	0.059950
C18	C	0.603003	0.116885	0.050750
C19	C	0.603043	0.116888	0.218895
C20	C	0.712522	0.118829	0.228096
C21	C	1.247553	-0.034236	0.104928
C22	C	1.245500	-0.127492	0.104743
C23	C	1.340369	-0.362923	0.112740
C24	C	1.289200	-0.413672	0.032397
C25	C	1.241697	-0.298226	0.104435
C26	C	1.289197	-0.413640	0.184448
C27	C	1.238030	-0.463148	0.104141
C28	C	1.190554	-0.347747	0.024031
C29	C	1.190565	-0.347712	0.176152
C30	C	1.139324	-0.398429	0.095784
C31	C	1.243812	-0.203219	0.104603
C32	C	1.235907	-0.558153	0.103965
C33	C	1.431760	0.113852	0.120431
C34	C	1.548278	0.115918	0.130225
C35	C	1.232169	0.272857	0.103655
C36	C	1.234222	0.366112	0.103833
N37	N	1.239897	0.119322	0.323770
N38	N	1.239834	0.119292	-0.115185
C39	C	1.314438	0.059938	0.579665
C40	C	1.219600	0.043291	0.633484
C41	C	1.239873	0.119312	0.512930
C42	C	1.334690	0.135909	0.643203
C43	C	1.239859	0.119300	0.695650
C44	C	1.144987	0.102627	0.565384
C45	C	1.260139	0.195278	0.575102
C46	C	1.165232	0.178664	0.628888
C47	C	1.239883	0.119316	0.407669
C48	C	1.239839	0.119296	0.800907
H49	H	1.425363	-0.347000	0.119812
C50	C	1.344947	-0.452062	-0.048553
C51	C	1.450113	-0.434431	-0.039350
C52	C	1.501510	-0.469789	-0.113891
H53	H	1.310717	-0.428652	-0.105498
H54	H	1.342719	-0.511426	-0.048403
H55	H	1.452336	-0.375079	-0.039509
H56	H	1.484372	-0.457841	0.017580
H57	H	1.499281	-0.529152	-0.113742
H58	H	1.467271	-0.446376	-0.170831
H59	H	1.572872	-0.457838	-0.107653
H60	H	0.921321	0.122518	0.230023
C61	C	1.025981	-0.419625	0.086247
C62	C	1.025232	-0.507367	0.086964
C63	C	0.920843	-0.526927	0.078188
H64	H	0.990983	-0.396925	0.029265
H65	H	0.990679	-0.396084	0.136805
H66	H	1.060520	-0.530899	0.036410
H67	H	1.060209	-0.530088	0.143940
H68	H	0.885541	-0.503386	0.128746
H69	H	0.885854	-0.504221	0.021206
H70	H	0.920321	-0.586460	0.078682
H71	H	0.722620	0.119002	-0.091724
C72	C	1.283121	0.280962	0.540989
C73	C	1.298377	0.334075	0.617264
C74	C	1.319577	0.413008	0.585876
H75	H	1.225297	0.305040	0.499903
H76	H	1.344996	0.274399	0.509054
H77	H	1.236509	0.340640	0.649184
H78	H	1.356203	0.310024	0.658358
H79	H	1.381451	0.406445	0.553941
H80	H	1.261750	0.437078	0.544789
H81	H	1.329940	0.449053	0.637624
C82	C	1.441721	0.154548	0.688267
C83	C	1.519483	0.092218	0.663467
C84	C	1.618100	0.109371	0.704930
H85	H	1.440943	0.154915	0.754063
H86	H	1.456654	0.208096	0.667402
H87	H	1.504554	0.038684	0.684337
H88	H	1.520296	0.091841	0.597678
H89	H	1.633033	0.162919	0.684066
H90	H	1.617310	0.109738	0.770725
H91	H	1.670874	0.067088	0.688103
C92	C	0.771949	0.119712	0.324394
C93	C	0.757170	0.047055	0.373861
C94	C	0.811908	0.047836	0.462570
H95	H	0.746060	0.168266	0.356873
H96	H	0.845006	0.120960	0.318532
H97	H	0.684129	0.045816	0.379726
H98	H	0.783065	-0.001510	0.341410
H99	H	0.884964	0.049084	0.456708
H100	H	0.786013	0.096393	0.495040
H101	H	0.801896	-0.001464	0.496141
H102	H	0.921230	0.122512	-0.075032
H103	H	0.558423	0.116097	-0.021455
H104	H	0.558479	0.116107	0.283605
C105	C	1.196553	-0.042374	0.667614
C106	C	1.098002	-0.060158	0.626615
C107	C	1.076751	-0.139072	0.658019
H108	H	1.195992	-0.041693	0.733427
H109	H	1.249546	-0.084528	0.650897
H110	H	1.045022	-0.018015	0.643337
H111	H	1.098538	-0.060857	0.560803
H112	H	1.129744	-0.181226	0.641303
H113	H	1.076195	-0.138383	0.723832
H114	H	1.009887	-0.151152	0.630200
C115	C	1.135238	-0.309339	0.257331
C116	C	1.187286	-0.342868	0.341116
C117	C	1.136367	-0.307530	0.415926
H118	H	1.064207	-0.322086	0.252034
H119	H	1.136442	-0.249872	0.256549
H120	H	1.186072	-0.402321	0.341897
H121	H	1.258315	-0.330123	0.346444
H122	H	1.137570	-0.248062	0.415144
H123	H	1.065337	-0.320279	0.410619
H124	H	1.171679	-0.330267	0.472782
C125	C	1.135121	-0.309372	-0.066422
C126	C	1.137792	-0.221822	-0.065237
C127	C	1.086760	-0.186443	-0.148552
H128	H	1.063894	-0.321641	-0.072722
H129	H	1.169936	-0.332483	-0.117444
H130	H	1.102974	-0.198718	-0.014229
H131	H	1.209005	-0.209529	-0.058952
H132	H	1.121574	-0.209555	-0.199575
H133	H	1.015536	-0.198719	-0.154845
H134	H	1.088573	-0.127039	-0.147763
C135	C	1.080966	0.245624	0.657568
C136	C	1.028188	0.286674	0.577964
C137	C	0.950544	0.348349	0.604349
H138	H	1.113047	0.285525	0.696526
H139	H	1.032002	0.219709	0.690495
H140	H	1.077144	0.312589	0.545051
H141	H	0.996084	0.246795	0.538996
H142	H	0.901580	0.322434	0.637276
H143	H	0.982634	0.388244	0.643308
H144	H	0.914718	0.376203	0.550342
C145	C	1.344963	-0.452081	0.274745
C146	C	1.429667	-0.510172	0.254673
C147	C	1.481078	-0.545590	0.337827
H148	H	1.296874	-0.480036	0.306575
H149	H	1.370486	-0.408742	0.312934
H150	H	1.404143	-0.553504	0.216500
H151	H	1.477779	-0.482238	0.222857
H152	H	1.506602	-0.502251	0.376015
H153	H	1.432982	-0.573541	0.369650
H154	H	1.538562	-0.585003	0.324220
H155	H	1.377429	0.009699	0.557839
C156	C	1.038120	0.083782	0.520142
C157	C	1.039394	0.083959	0.423170
C158	C	0.940973	0.066596	0.381462
H159	H	0.985050	0.125682	0.537228
H160	H	1.023570	0.029970	0.540533
H161	H	1.053932	0.137764	0.402787
H162	H	1.092443	0.042060	0.406058
H163	H	0.926424	0.012784	0.401853
H164	H	0.887911	0.108497	0.398555
H165	H	0.941828	0.066706	0.315664
