data_functionalizedCrystal
_audit_creation_method	'MofGen! by Chris Wilmer'
_symmetry_space_group_name_H-M	'P1'
_symmetry_Int_Tables_number	1
_symmetry_cell_setting	triclinic
loop_
_symmetry_equiv_pos_as_xyz
  x,y,z
_cell_length_a	23.532361
_cell_length_b	22.010155
_cell_length_c	12.811415
_cell_angle_alpha	95.426581
_cell_angle_beta	83.439682
_cell_angle_gamma	90.004127
loop_
_atom_site_label
_atom_site_type_symbol
_atom_site_fract_x
_atom_site_fract_y
_atom_site_fract_z
O1	O	0.755973	0.057470	0.127160
O2	O	1.255973	0.557470	0.627160
O3	O	0.590207	0.058502	0.145646
O4	O	1.090207	0.558502	0.645646
O5	O	0.677260	0.049562	-0.016432
O6	O	1.177260	0.549562	0.483568
O7	O	0.668921	0.066410	0.289238
O8	O	1.168921	0.566410	0.789238
O9	O	0.677244	-0.051487	-0.016408
O10	O	1.177244	0.448513	0.483592
O11	O	0.590191	-0.042547	0.145670
O12	O	1.090191	0.457453	0.645670
O13	O	0.755958	-0.043579	0.127184
O14	O	1.255958	0.456421	0.627184
Cu15	Cu	0.673073	-0.052290	0.136430
Cu16	Cu	1.173073	0.447710	0.636430
Cu17	Cu	0.673092	0.067213	0.136401
Cu18	Cu	1.173092	0.567213	0.636401
O19	O	0.668905	-0.034639	0.289262
O20	O	1.168905	0.465361	0.789262
C21	C	0.568980	0.007954	0.145195
C22	C	1.068980	0.507954	0.645195
C23	C	0.505754	0.007883	0.143803
C24	C	1.005754	0.507883	0.643803
N25	N	0.673064	-0.136341	0.136449
N26	N	1.173064	0.363659	0.636449
C27	C	0.232486	0.062626	0.137702
C28	C	0.732486	0.562626	0.637702
C29	C	0.291893	0.062700	0.139020
C30	C	0.791893	0.562700	0.639020
O31	O	0.322629	0.109579	0.139654
O32	O	0.822629	0.609579	0.639654
N33	N	0.321593	0.007654	0.139699
N34	N	0.821593	0.507654	0.639699
C35	C	0.291885	-0.047469	0.139049
C36	C	0.791885	0.452531	0.639049
O37	O	0.322602	-0.094283	0.139746
O38	O	0.822602	0.405717	0.639746
C39	C	0.232479	-0.047543	0.137724
C40	C	0.732479	0.452457	0.637724
C41	C	0.202781	0.007506	0.137056
C42	C	0.702781	0.507506	0.637056
C43	C	0.202787	0.117671	0.137033
C44	C	0.702787	0.617671	0.637033
C45	C	0.143384	0.117596	0.135718
C46	C	0.643384	0.617596	0.635718
C47	C	0.113680	0.062477	0.135071
C48	C	0.613680	0.562477	0.635071
C49	C	0.143378	0.007432	0.135740
C50	C	0.643378	0.507432	0.635740
C51	C	0.202772	-0.102667	0.137067
C52	C	0.702772	0.397333	0.637067
C53	C	0.143363	-0.102736	0.135741
C54	C	0.643363	0.397264	0.635741
C55	C	0.113665	-0.047686	0.135073
C56	C	0.613665	0.452314	0.635073
C57	C	0.054270	-0.047761	0.133779
C58	C	0.554270	0.452239	0.633779
N59	N	0.024570	0.007284	0.133100
N60	N	0.524570	0.507284	0.633100
C61	C	0.054274	0.062403	0.133746
C62	C	0.554274	0.562403	0.633746
C63	C	0.416640	-0.047310	0.141830
C64	C	0.916640	0.452690	0.641830
C65	C	0.476044	-0.047236	0.143163
C66	C	0.976044	0.452764	0.643163
C67	C	0.476048	0.062933	0.143131
C68	C	0.976048	0.562933	0.643131
C69	C	0.416642	0.062859	0.141806
C70	C	0.916642	0.562859	0.641806
C71	C	0.386939	0.007735	0.141151
C72	C	0.886939	0.507735	0.641151
C73	C	-0.070476	0.062243	0.130985
C74	C	0.429524	0.562243	0.630985
C75	C	-0.129885	0.062164	0.129673
C76	C	0.370115	0.562164	0.629673
C77	C	-0.129883	-0.048005	0.129699
C78	C	0.370117	0.451995	0.629699
C79	C	-0.070480	-0.047926	0.131016
C80	C	0.429520	0.452074	0.631016
C81	C	-0.040778	0.007203	0.131655
C82	C	0.459222	0.507203	0.631655
O83	O	0.023496	-0.094617	0.133140
O84	O	0.523496	0.405383	0.633140
O85	O	0.023550	0.109208	0.133035
O86	O	0.523550	0.609208	0.633035
C87	C	0.711641	-0.560081	0.064643
C88	C	1.211641	-0.060081	0.564643
C89	C	0.711643	-0.623689	0.064636
C90	C	1.211643	-0.123689	0.564636
O91	O	0.744420	-0.659948	0.003597
O92	O	1.244420	-0.159948	0.503597
N93	N	0.673091	-0.651552	0.136379
N94	N	1.173091	-0.151552	0.636379
C95	C	0.634530	-0.615803	0.208127
C96	C	1.134530	-0.115803	0.708127
O97	O	0.601738	-0.645344	0.269149
O98	O	1.101738	-0.145344	0.769149
C99	C	0.634525	-0.552197	0.208128
C100	C	1.134525	-0.052197	0.708128
C101	C	0.673084	-0.524337	0.136387
C102	C	1.173084	-0.024337	0.636387
C103	C	0.750196	-0.532221	-0.007093
C104	C	1.250196	-0.032221	0.492907
C105	C	0.750194	-0.468618	-0.007084
C106	C	1.250194	0.031382	0.492916
C107	C	0.711637	-0.432874	0.064660
C108	C	1.211637	0.067126	0.564660
C109	C	0.673082	-0.460734	0.136396
C110	C	1.173082	0.039266	0.636396
C111	C	0.595962	-0.516450	0.279871
C112	C	1.095962	-0.016450	0.779871
C113	C	0.595960	-0.452839	0.279865
C114	C	1.095960	0.047161	0.779865
C115	C	0.634518	-0.424980	0.208124
C116	C	1.134518	0.075020	0.708124
C117	C	0.634522	-0.361386	0.208150
C118	C	1.134522	0.138614	0.708150
N119	N	0.673075	-0.333524	0.136406
N120	N	1.173075	0.166476	0.636406
C121	C	0.711632	-0.369267	0.064662
C122	C	1.211632	0.130733	0.564662
C123	C	0.634543	-0.749382	0.208117
C124	C	1.134543	-0.249382	0.708117
C125	C	0.634550	-0.812987	0.208122
C126	C	1.134550	-0.312987	0.708122
C127	C	0.711663	-0.820868	0.064629
C128	C	1.211663	-0.320868	0.564629
C129	C	0.711658	-0.757262	0.064630
C130	C	1.211658	-0.257262	0.564630
C131	C	0.673095	-0.721519	0.136374
C132	C	1.173095	-0.221519	0.636374
C133	C	0.711625	-0.235695	0.064686
C134	C	1.211625	0.264305	0.564686
C135	C	0.711621	-0.172085	0.064704
C136	C	1.211621	0.327915	0.564704
C137	C	0.634506	-0.164209	0.208193
C138	C	1.134506	0.335791	0.708193
C139	C	0.634512	-0.227813	0.208179
C140	C	1.134512	0.272187	0.708179
C141	C	0.673073	-0.263555	0.136417
C142	C	1.173073	0.236445	0.636417
O143	O	0.601761	-0.325089	0.269154
O144	O	1.101761	0.174911	0.769154
O145	O	0.744413	-0.339719	0.003641
O146	O	1.244413	0.160281	0.503641
C147	C	0.777185	0.006970	0.127635
C148	C	1.277185	0.506970	0.627635
C149	C	0.840411	0.007045	0.129027
C150	C	1.340411	0.507045	0.629027
C151	C	0.676784	-0.003116	-0.055518
C152	C	1.176784	0.496884	0.444482
C153	C	0.675384	-0.009533	-0.172020
C154	C	1.175384	0.490467	0.327980
N155	N	0.673105	0.151264	0.136373
N156	N	1.173105	0.651264	0.636373
C157	C	0.672759	0.088585	-0.390953
C158	C	1.172759	0.588585	0.109047
C159	C	0.671444	0.082558	-0.500417
C160	C	1.171444	0.582558	-0.000417
C161	C	0.671432	-0.027612	-0.500411
C162	C	1.171432	0.472388	-0.000411
C163	C	0.672748	-0.021586	-0.390948
C164	C	1.172748	0.478414	0.109052
C165	C	0.673412	0.036515	-0.336223
C166	C	1.173412	0.536515	0.163777
C167	C	0.674732	0.042541	-0.226758
C168	C	1.174732	0.542541	0.273242
C169	C	0.674717	-0.067629	-0.226754
C170	C	1.174717	0.432371	0.273246
C171	C	0.673401	-0.073656	-0.336217
C172	C	1.173401	0.426344	0.163783
C173	C	0.669381	0.018040	0.328349
C174	C	1.169381	0.518040	0.828349
C175	C	0.670781	0.024462	0.444850
C176	C	1.170781	0.524462	0.944850
H177	H	-0.154063	0.106995	0.129132
H178	H	0.345937	0.606995	0.629132
N179	N	0.672693	-0.136317	-0.395249
N180	N	1.172693	0.363683	0.104751
H181	H	0.637661	-0.158866	-0.367318
H182	H	1.137661	0.341134	0.132682
H183	H	0.671783	-0.132181	-0.472885
H184	H	1.171783	0.367819	0.027115
N185	N	0.670718	-0.090274	-0.559441
N186	N	1.170718	0.409726	-0.059441
H187	H	0.706207	-0.113794	-0.549274
H188	H	1.206207	0.386206	-0.049274
H189	H	0.635662	-0.112768	-0.531471
H190	H	1.135662	0.387232	-0.031471
H191	H	0.564563	-0.539124	0.338288
H192	H	1.064563	-0.039124	0.838288
N193	N	0.753232	-0.727210	-0.012761
N194	N	1.253232	-0.227210	0.487239
H195	H	0.778540	-0.698617	0.027092
H196	H	1.278540	-0.198617	0.527092
H197	H	0.777619	-0.759544	-0.058196
H198	H	1.277619	-0.259544	0.441804
N199	N	0.675412	0.105214	-0.167760
N200	N	1.175412	0.605214	0.332240
H201	H	0.640686	0.110645	-0.113481
H202	H	1.140686	0.610645	0.386519
H203	H	0.711231	0.109683	-0.131272
H204	H	1.211231	0.609683	0.368728
N205	N	0.753251	-0.859427	-0.012756
N206	N	1.253251	-0.359427	0.487244
H207	H	0.747399	-0.903948	-0.001868
H208	H	1.247399	-0.403948	0.498132
H209	H	0.746497	-0.852406	-0.087151
H210	H	1.246497	-0.352406	0.412849
N211	N	0.384613	0.122233	0.141083
N212	N	0.884613	0.622233	0.641083
H213	H	0.412450	0.157159	0.141695
H214	H	0.912450	0.657159	0.641695
H215	H	0.364435	0.121017	0.075458
H216	H	0.864435	0.621017	0.575458
H217	H	0.226943	-0.147494	0.137608
H218	H	0.726943	0.352506	0.637608
N219	N	0.111328	-0.162193	0.135029
N220	N	0.611328	0.337807	0.635029
H221	H	0.139209	-0.197088	0.134938
H222	H	0.639209	0.302912	0.634938
H223	H	0.082480	-0.161201	0.199917
H224	H	0.582480	0.338799	0.699917
H225	H	0.743022	-0.149404	0.006284
H226	H	1.243022	0.350596	0.506284
N227	N	0.592925	-0.257858	0.285564
N228	N	1.092925	0.242142	0.785564
H229	H	0.567615	-0.286440	0.245695
H230	H	1.067615	0.213560	0.745695
H231	H	0.614832	-0.281670	0.331808
H232	H	1.114832	0.218330	0.831808
H233	H	0.603115	-0.135096	0.266610
H234	H	1.103115	0.364904	0.766610
N235	N	0.673485	0.151245	-0.331922
N236	N	1.173485	0.651245	0.168078
H237	H	0.672875	0.183318	-0.383206
H238	H	1.172875	0.683318	0.116794
H239	H	0.638770	0.156639	-0.277617
H240	H	1.138770	0.656639	0.222383
H241	H	0.119210	0.162423	0.135169
H242	H	0.619210	0.662423	0.635169
H243	H	0.670910	0.124959	-0.544974
H244	H	1.170910	0.624959	-0.044974
N245	N	0.675420	-0.123796	-0.167726
N246	N	1.175420	0.376204	0.332274
H247	H	0.710451	-0.149415	-0.195666
H248	H	1.210451	0.350585	0.304334
H249	H	0.676335	-0.111115	-0.090090
H250	H	1.176335	0.388885	0.409910
N251	N	-0.038445	0.121702	0.131670
N252	N	0.461555	0.621702	0.631670
H253	H	-0.066280	0.156557	0.131047
H254	H	0.433720	0.656557	0.631047
H255	H	-0.018262	0.127722	0.197289
H256	H	0.481738	0.627722	0.697289
H257	H	0.226967	0.162558	0.137556
H258	H	0.726967	0.662558	0.637556
N259	N	0.508092	0.122385	0.143827
N260	N	1.008092	0.622385	0.643827
H261	H	0.550231	0.114074	0.144764
H262	H	1.050231	0.614074	0.644764
H263	H	0.502178	0.142839	0.078516
H264	H	1.002178	0.642839	0.578516
H265	H	0.603158	-0.835665	0.266551
H266	H	1.103158	-0.335665	0.766551
H267	H	-0.046300	-0.092750	0.131581
H268	H	0.453700	0.407250	0.631581
N269	N	0.508071	-0.106609	0.143908
N270	N	1.008071	0.393391	0.643908
H271	H	0.480233	-0.141535	0.143301
H272	H	0.980233	0.358465	0.643301
H273	H	0.537184	-0.112571	0.079384
H274	H	1.037184	0.387429	0.579384
H275	H	0.781590	-0.445939	-0.065505
H276	H	1.281590	0.054061	0.434495
N277	N	0.384605	-0.106768	0.141132
N278	N	0.884605	0.393232	0.641132
H279	H	0.412487	-0.141662	0.141041
H280	H	0.912487	0.358338	0.641041
H281	H	0.355759	-0.105775	0.206023
H282	H	0.855759	0.394225	0.706023
H283	H	-0.154080	-0.092881	0.129177
H284	H	0.345920	0.407119	0.629177
H285	H	0.781594	-0.561319	-0.065521
H286	H	1.281594	-0.061319	0.434479
N287	N	0.753218	-0.274239	-0.012705
N288	N	1.253218	0.225761	0.487295
H289	H	0.777641	-0.246930	-0.058139
H290	H	1.277641	0.253070	0.441861
H291	H	0.778489	-0.298426	0.027237
H292	H	1.278489	0.201574	0.527237
H293	H	0.603141	-0.720282	0.266548
H294	H	1.103141	-0.220282	0.766548
N295	N	0.554363	-0.414289	0.357243
N296	N	1.054363	0.085711	0.857243
H297	H	0.529940	-0.441594	0.402684
H298	H	1.029940	0.058406	0.902684
H299	H	0.576268	-0.385353	0.403443
H300	H	1.076268	0.114647	0.903443
