data_functionalizedCrystal
_audit_creation_method	'MofGen! by Chris Wilmer'
_symmetry_space_group_name_H-M	'P1'
_symmetry_Int_Tables_number	1
_symmetry_cell_setting	triclinic
loop_
_symmetry_equiv_pos_as_xyz
  x,y,z
_cell_length_a	13.032831
_cell_length_b	16.625546
_cell_length_c	13.033352
_cell_angle_alpha	82.833343
_cell_angle_beta	89.095163
_cell_angle_gamma	82.826778
loop_
_atom_site_label
_atom_site_type_symbol
_atom_site_fract_x
_atom_site_fract_y
_atom_site_fract_z
Zn1	Zn	1.498220	-0.544737	0.780749
Zn2	Zn	1.519997	-0.664820	0.608762
Zn3	Zn	1.348133	-0.511001	0.587001
Zn4	Zn	1.326205	-0.660503	0.758883
O5	O	1.423139	-0.595265	0.683849
O6	O	1.645023	-0.576592	0.776193
O7	O	1.515490	-0.632104	0.461965
O8	O	1.368106	-0.402654	0.612746
O9	O	1.661023	-0.664817	0.649835
O10	O	1.478373	-0.427440	0.755092
O11	O	1.389222	-0.519094	0.445977
O12	O	1.201310	-0.514907	0.591543
O13	O	1.330733	-0.657458	0.905694
O14	O	1.185200	-0.624745	0.717824
O15	O	1.457111	-0.572406	0.921759
O16	O	1.494227	-0.777069	0.628632
O17	O	1.351849	-0.773897	0.738925
C18	C	1.155940	-0.565697	0.649950
C19	C	1.041628	-0.553070	0.635472
C20	C	0.982732	-0.601856	0.691405
C21	C	0.864584	-0.588806	0.676443
C22	C	1.423047	-0.804742	0.683793
C23	C	1.423098	-0.894370	0.683816
C24	C	1.423263	-1.222575	0.683946
C25	C	1.423214	-1.131258	0.683912
C26	C	1.423180	-1.058475	0.683880
C27	C	1.423131	-0.967153	0.683848
C28	C	1.691382	-0.624949	0.717881
C29	C	1.805691	-0.637599	0.732384
C30	C	1.389047	-0.618213	0.952084
C31	C	1.374519	-0.627992	1.066390
C32	C	1.423256	-0.384976	0.683930
C33	C	1.423306	-0.295363	0.683965
C34	C	1.430571	-0.590270	1.125300
C35	C	1.415557	-0.600376	1.243441
C36	C	1.457090	-0.572425	1.416656
C37	C	1.471617	-0.562649	1.302350
H38	H	1.004581	-0.501637	0.576513
Br39	Br	0.802854	-0.503073	0.578167
H40	H	1.489671	-0.550489	1.088271
Br41	Br	1.275995	-0.694286	1.128094
H42	H	1.356442	-0.640150	1.280464
Br43	Br	1.044466	-0.687581	0.789682
Br44	Br	0.867414	-0.723312	0.830689
Br45	Br	1.570150	-0.496356	1.240654
