data_functionalizedCrystal
_audit_creation_method	'MofGen! by Chris Wilmer'
_symmetry_space_group_name_H-M	'P1'
_symmetry_Int_Tables_number	1
_symmetry_cell_setting	triclinic
loop_
_symmetry_equiv_pos_as_xyz
  x,y,z
_cell_length_a	16.625548
_cell_length_b	25.639239
_cell_length_c	25.639233
_cell_angle_alpha	89.981253
_cell_angle_beta	89.986620
_cell_angle_gamma	90.039754
loop_
_atom_site_label
_atom_site_type_symbol
_atom_site_fract_x
_atom_site_fract_y
_atom_site_fract_z
Zn1	Zn	1.232532	-0.208200	-0.295620
Zn2	Zn	1.732532	0.291800	0.204380
Zn3	Zn	1.232414	-0.295618	-0.208184
Zn4	Zn	1.732414	0.204382	0.291816
Zn5	Zn	1.097711	-0.208200	-0.208197
Zn6	Zn	1.597711	0.291800	0.291803
Zn7	Zn	1.097626	-0.295607	-0.295587
Zn8	Zn	1.597626	0.204393	0.204413
O9	O	1.165071	-0.251906	-0.251897
O10	O	1.665071	0.248094	0.248103
O11	O	1.345349	-0.219800	-0.284029
O12	O	1.845349	0.280200	0.215971
O13	O	1.214532	-0.284027	-0.135021
O14	O	1.714532	0.215973	0.364979
O15	O	1.115680	-0.135035	-0.219813
O16	O	1.615680	0.364965	0.280187
O17	O	1.345262	-0.284026	-0.219791
O18	O	1.845262	0.215974	0.280209
O19	O	1.214733	-0.135034	-0.284042
O20	O	1.714733	0.364966	0.215958
O21	O	1.115566	-0.219801	-0.135030
O22	O	1.615566	0.280199	0.364970
O23	O	0.984867	-0.219791	-0.219782
O24	O	1.484867	0.280209	0.280218
O25	O	1.115536	-0.284008	-0.368757
O26	O	1.615536	0.215992	0.131243
O27	O	0.984805	-0.284008	-0.283987
O28	O	1.484805	0.215992	0.216013
O29	O	1.214651	-0.219789	-0.368781
O30	O	1.714651	0.280211	0.131219
O31	O	1.214450	-0.368782	-0.219759
O32	O	1.714450	0.131218	0.280241
O33	O	1.115422	-0.368774	-0.283974
O34	O	1.615422	0.131226	0.216026
C35	C	0.955580	-0.251899	-0.251882
C36	C	1.455580	0.248101	0.248118
C37	C	0.865959	-0.251908	-0.251889
C38	C	1.365959	0.248092	0.248111
C39	C	0.537783	-0.251912	-0.251911
C40	C	1.037783	0.248088	0.248089
C41	C	0.629092	-0.251909	-0.251903
C42	C	1.129092	0.248091	0.248097
C43	C	0.701868	-0.251910	-0.251899
C44	C	1.201868	0.248090	0.248101
C45	C	0.793183	-0.251907	-0.251892
C46	C	1.293183	0.248093	0.248108
C47	C	1.164935	-0.387749	-0.251873
C48	C	1.664935	0.112251	0.248127
C49	C	1.164951	-0.445863	-0.251880
C50	C	1.664951	0.054137	0.248120
C51	C	1.216769	-0.806218	-0.218517
C52	C	1.716769	-0.306218	0.281483
C53	C	1.216801	-0.860822	-0.218524
C54	C	1.716801	-0.360822	0.281476
O55	O	1.260718	-0.889052	-0.190132
O56	O	1.760718	-0.389052	0.309868
N57	N	1.165213	-0.888145	-0.251932
N58	N	1.665213	-0.388145	0.248068
C59	C	1.113596	-0.860862	-0.285338
C60	C	1.613596	-0.360862	0.214662
O61	O	1.069720	-0.889116	-0.313755
O62	O	1.569720	-0.389116	0.186245
C63	C	1.113569	-0.806258	-0.285333
C64	C	1.613569	-0.306258	0.214667
C65	C	1.165155	-0.778938	-0.251920
C66	C	1.665155	-0.278938	0.248080
C67	C	1.268352	-0.778897	-0.185107
C68	C	1.768352	-0.278897	0.314893
C69	C	1.268319	-0.724296	-0.185100
C70	C	1.768319	-0.224296	0.314900
C71	C	1.216704	-0.697017	-0.218502
C72	C	1.716704	-0.197017	0.281498
C73	C	1.165122	-0.724337	-0.251912
C74	C	1.665122	-0.224337	0.248088
C75	C	1.061957	-0.778976	-0.318742
C76	C	1.561957	-0.278976	0.181258
C77	C	1.061935	-0.724369	-0.318734
C78	C	1.561935	-0.224369	0.181266
C79	C	1.113521	-0.697048	-0.285321
C80	C	1.613521	-0.197048	0.214679
C81	C	1.113475	-0.642457	-0.285307
C82	C	1.613475	-0.142457	0.214693
N83	N	1.165063	-0.615133	-0.251900
N84	N	1.665063	-0.115133	0.248100
C85	C	1.216678	-0.642413	-0.218498
C86	C	1.716678	-0.142413	0.281502
C87	C	1.113657	-0.975532	-0.285346
C88	C	1.613657	-0.475532	0.214654
C89	C	1.113679	-1.030135	-0.285349
C90	C	1.613679	-0.530135	0.214651
C91	C	1.216885	-1.030091	-0.218535
C92	C	1.716885	-0.530091	0.281465
C93	C	1.216858	-0.975488	-0.218531
C94	C	1.716858	-0.475488	0.281469
C95	C	1.165245	-0.948209	-0.251939
C96	C	1.665245	-0.448209	0.248061
C97	C	1.216605	-0.527748	-0.218484
C98	C	1.716605	-0.027748	0.281516
C99	C	1.216566	-0.473143	-0.218478
C100	C	1.716566	0.026857	0.281522
C101	C	1.113363	-0.473191	-0.285293
C102	C	1.613363	0.026809	0.214707
C103	C	1.113399	-0.527792	-0.285297
C104	C	1.613399	-0.027792	0.214703
C105	C	1.165027	-0.555069	-0.251891
C106	C	1.665027	-0.055069	0.248109
O107	O	1.069583	-0.614193	-0.313687
O108	O	1.569583	-0.114193	0.186313
O109	O	1.260554	-0.614152	-0.190091
O110	O	1.760554	-0.114152	0.309909
C111	C	1.375380	-0.251914	-0.251912
C112	C	1.875380	0.248086	0.248088
C113	C	1.465001	-0.251918	-0.251918
C114	C	1.965001	0.248082	0.248082
C115	C	1.165097	-0.251897	-0.388270
C116	C	1.665097	0.248103	0.111730
C117	C	1.165108	-0.251893	-0.446384
C118	C	1.665108	0.248107	0.053616
C119	C	1.165229	-0.115533	-0.251933
C120	C	1.665229	0.384467	0.248067
C121	C	1.165297	-0.057419	-0.251948
C122	C	1.665297	0.442581	0.248052
C123	C	1.216783	-0.218356	-0.806765
C124	C	1.716783	0.281644	-0.306765
C125	C	1.216793	-0.218341	-0.861370
C126	C	1.716793	0.281659	-0.361370
O127	O	1.260663	-0.189888	-0.889622
O128	O	1.760663	0.310112	-0.389622
N129	N	1.165197	-0.251771	-0.888667
N130	N	1.665197	0.248229	-0.388667
C131	C	1.113582	-0.285213	-0.861357
C132	C	1.613582	0.214787	-0.361357
O133	O	1.069697	-0.313646	-0.889589
O134	O	1.569697	0.186354	-0.389589
C135	C	1.113569	-0.285225	-0.806753
C136	C	1.613569	0.214775	-0.306753
C137	C	1.165174	-0.251797	-0.779459
C138	C	1.665174	0.248203	-0.279459
C139	C	1.268383	-0.184930	-0.779471
C140	C	1.768383	0.315070	-0.279471
C141	C	1.268373	-0.184945	-0.724871
C142	C	1.768373	0.315055	-0.224871
C143	C	1.216764	-0.218386	-0.697564
C144	C	1.716764	0.281614	-0.197564
C145	C	1.165165	-0.251812	-0.724859
C146	C	1.665165	0.248188	-0.224859
C147	C	1.061951	-0.318664	-0.779444
C148	C	1.561951	0.181336	-0.279444
C149	C	1.061941	-0.318672	-0.724837
C150	C	1.561941	0.181328	-0.224837
C151	C	1.113546	-0.285244	-0.697543
C152	C	1.613546	0.214756	-0.197543
C153	C	1.113546	-0.285268	-0.642952
C154	C	1.613546	0.214732	-0.142952
N155	N	1.165142	-0.251839	-0.615655
N156	N	1.665142	0.248161	-0.115655
C157	C	1.216751	-0.218398	-0.642961
C158	C	1.716751	0.281602	-0.142961
C159	C	1.113613	-0.285186	-0.976028
C160	C	1.613613	0.214814	-0.476028
C161	C	1.113630	-0.285178	-1.030630
C162	C	1.613630	0.214822	-0.530630
C163	C	1.216840	-0.218305	-1.030639
C164	C	1.716840	0.281695	-0.530639
C165	C	1.216826	-0.218316	-0.976036
C166	C	1.716826	0.281684	-0.476036
C167	C	1.165209	-0.251756	-0.948730
C168	C	1.665209	0.248244	-0.448730
C169	C	1.216728	-0.218432	-0.528296
C170	C	1.716728	0.281568	-0.028296
C171	C	1.216717	-0.218452	-0.473690
C172	C	1.716717	0.281548	0.026310
C173	C	1.113505	-0.285323	-0.473686
C174	C	1.613505	0.214677	0.026314
C175	C	1.113519	-0.285305	-0.528287
C176	C	1.613519	0.214695	-0.028287
C177	C	1.165133	-0.251856	-0.555590
C178	C	1.665133	0.248144	-0.055590
O179	O	1.069696	-0.313706	-0.614665
O180	O	1.569696	0.186294	-0.114665
O181	O	1.260622	-0.189965	-0.614722
O182	O	1.760622	0.310035	-0.114722
C183	C	1.165092	-0.251878	-0.116055
C184	C	1.665092	0.248122	0.383945
C185	C	1.165237	-0.251734	-0.057941
C186	C	1.665237	0.248266	0.442059
H187	H	1.258573	-0.450900	-0.191267
H188	H	1.758573	0.049100	0.308733
O189	O	1.063468	-0.948979	-0.317723
O190	O	1.563468	-0.448979	0.182277
C191	C	0.954523	-0.887433	-0.324687
C192	C	1.454523	-0.387433	0.175313
C193	C	1.011321	-0.917459	-0.287962
C194	C	1.511321	-0.417459	0.212038
H195	H	0.912337	-0.861951	-0.300639
H196	H	1.412337	-0.361951	0.199361
H197	H	0.991448	-0.861798	-0.352041
H198	H	1.491448	-0.361798	0.147959
H199	H	0.917697	-0.916356	-0.348573
H200	H	1.417697	-0.416356	0.151427
H201	H	1.048159	-0.888574	-0.264042
H202	H	1.548159	-0.388574	0.235958
H203	H	0.974350	-0.943102	-0.260642
H204	H	1.474350	-0.443102	0.239358
O205	O	1.267011	-0.948894	-0.186148
O206	O	1.767011	-0.448894	0.313852
C207	C	1.375894	-0.887210	-0.179171
C208	C	1.875894	-0.387210	0.320829
C209	C	1.319129	-0.917281	-0.215903
C210	C	1.819129	-0.417281	0.284097
H211	H	1.418057	-0.861652	-0.203213
H212	H	1.918057	-0.361652	0.296787
H213	H	1.338940	-0.861645	-0.151815
H214	H	1.838940	-0.361645	0.348185
H215	H	1.412746	-0.916103	-0.155287
H216	H	1.912746	-0.416103	0.344713
H217	H	1.282265	-0.888426	-0.239820
H218	H	1.782265	-0.388426	0.260180
H219	H	1.356129	-0.942854	-0.243225
H220	H	1.856129	-0.442854	0.256775
H221	H	1.019906	-0.702161	-0.345941
H222	H	1.519906	-0.202161	0.154059
O223	O	1.063392	-0.317604	-0.949483
O224	O	1.563392	0.182396	-0.449483
C225	C	0.954532	-0.324666	-0.887812
C226	C	1.454532	0.175334	-0.387812
C227	C	1.011344	-0.287893	-0.917846
C228	C	1.511344	0.212107	-0.417846
H229	H	0.912448	-0.300660	-0.862218
H230	H	1.412448	0.199340	-0.362218
H231	H	0.917606	-0.348545	-0.916683
H232	H	1.417606	0.151455	-0.416683
H233	H	0.991530	-0.352024	-0.862272
H234	H	1.491530	0.147976	-0.362272
H235	H	0.974408	-0.260504	-0.943386
H236	H	1.474408	0.239496	-0.443386
H237	H	1.048273	-0.264050	-0.888946
H238	H	1.548273	0.235950	-0.388946
H239	H	1.258647	-0.549951	-0.191283
H240	H	1.758647	-0.049951	0.308717
H241	H	1.310409	-0.157695	-0.801698
H242	H	1.810409	0.342305	-0.301698
H243	H	1.258915	-1.052312	-0.191339
H244	H	1.758915	-0.552312	0.308661
O245	O	1.063437	-0.317851	-0.554748
O246	O	1.563437	0.182149	-0.054748
C247	C	1.024222	-0.406780	-0.571479
C248	C	1.524222	0.093220	-0.071479
C249	C	1.080985	-0.369987	-0.541474
C250	C	1.580985	0.130013	-0.041474
H251	H	1.038401	-0.448940	-0.560766
H252	H	1.538401	0.051060	-0.060766
H253	H	0.959203	-0.397642	-0.560725
H254	H	1.459203	0.102358	-0.060725
H255	H	1.033077	-0.400995	-0.615193
H256	H	1.533077	0.099005	-0.115193
H257	H	1.072203	-0.375751	-0.497753
H258	H	1.572203	0.124249	0.002247
H259	H	1.145984	-0.379134	-0.552271
H260	H	1.645984	0.120866	-0.052271
H261	H	1.071665	-1.052375	-0.312552
H262	H	1.571665	-0.552375	0.187448
H263	H	1.071617	-0.312404	-1.052848
H264	H	1.571617	0.187596	-0.552848
H265	H	1.019947	-0.801211	-0.345948
H266	H	1.519947	-0.301211	0.154052
O267	O	1.063262	-0.554253	-0.317801
O268	O	1.563262	-0.054253	0.182199
C269	C	0.960867	-0.548527	-0.384053
C270	C	1.460867	-0.048527	0.115947
C271	C	1.017611	-0.518500	-0.347271
C272	C	1.517611	-0.018500	0.152729
H273	H	0.923931	-0.519634	-0.407880
H274	H	1.423931	-0.019634	0.092120
H275	H	0.997838	-0.574033	-0.411453
H276	H	1.497838	-0.074033	0.088547
H277	H	0.918781	-0.574150	-0.360023
H278	H	1.418781	-0.074150	0.139977
H279	H	1.059707	-0.492848	-0.371259
H280	H	1.559707	0.007152	0.128741
H281	H	0.980589	-0.493026	-0.319869
H282	H	1.480589	0.006974	0.180131
O283	O	1.266976	-0.185792	-0.949605
O284	O	1.766976	0.314208	-0.449605
C285	C	1.369382	-0.119486	-0.955392
C286	C	1.869382	0.380514	-0.455392
C287	C	1.312615	-0.156287	-0.985386
C288	C	1.812615	0.343713	-0.485386
H289	H	1.406308	-0.095629	-0.984308
H290	H	1.906308	0.404371	-0.484308
H291	H	1.332430	-0.092114	-0.929846
H292	H	1.832430	0.407886	-0.429846
H293	H	1.411476	-0.143503	-0.929812
H294	H	1.911476	0.356497	-0.429812
H295	H	1.270510	-0.132312	-1.010994
H296	H	1.770510	0.367688	-0.510994
H297	H	1.349617	-0.183661	-1.010899
H298	H	1.849617	0.316339	-0.510899
H299	H	1.071489	-0.312552	-0.451443
H300	H	1.571489	0.187448	0.048557
H301	H	1.310387	-0.801102	-0.157907
H302	H	1.810387	-0.301102	0.342093
H303	H	1.071336	-0.450971	-0.312487
H304	H	1.571336	0.049029	0.187513
O305	O	1.266889	-0.185829	-1.057251
O306	O	1.766889	0.314171	-0.557251
C307	C	1.312654	-0.156191	-1.141381
C308	C	1.812654	0.343809	-0.641381
C309	C	1.255926	-0.192986	-1.111307
C310	C	1.755926	0.307014	-0.611307
H311	H	1.303822	-0.161973	-1.185091
H312	H	1.803822	0.338027	-0.685091
H313	H	1.298531	-0.114024	-1.130687
H314	H	1.798531	0.385976	-0.630687
H315	H	1.377653	-0.165364	-1.130624
H316	H	1.877653	0.334636	-0.630624
H317	H	1.190908	-0.183860	-1.122049
H318	H	1.690908	0.316140	-0.622049
H319	H	1.270119	-0.235142	-1.122004
H320	H	1.770119	0.264858	-0.622004
H321	H	1.019928	-0.345885	-0.801658
H322	H	1.519928	0.154115	-0.301658
H323	H	1.310327	-0.702055	-0.157893
H324	H	1.810327	-0.202055	0.342107
H325	H	1.258743	-0.191231	-0.451470
H326	H	1.758743	0.308769	0.048530
H327	H	1.258755	-0.191193	-0.550520
H328	H	1.758755	0.308807	-0.050520
H329	H	1.310394	-0.157723	-0.702652
H330	H	1.810394	0.342277	-0.202652
H331	H	1.019899	-0.345899	-0.702608
H332	H	1.519899	0.154101	-0.202608
