data_functionalizedCrystal
_audit_creation_method	'MofGen! by Chris Wilmer'
_symmetry_space_group_name_H-M	'P1'
_symmetry_Int_Tables_number	1
_symmetry_cell_setting	triclinic
loop_
_symmetry_equiv_pos_as_xyz
  x,y,z
_cell_length_a	14.853567
_cell_length_b	15.944551
_cell_length_c	13.930277
_cell_angle_alpha	89.994493
_cell_angle_beta	89.995755
_cell_angle_gamma	83.566834
loop_
_atom_site_label
_atom_site_type_symbol
_atom_site_fract_x
_atom_site_fract_y
_atom_site_fract_z
O1	O	1.196228	0.109664	-0.079767
O2	O	1.696228	0.609664	0.420233
O3	O	0.933751	0.122728	-0.079783
O4	O	1.433751	0.622728	0.420217
O5	O	1.072157	-0.006071	-0.079766
O6	O	1.572157	0.493929	0.420234
O7	O	1.057822	0.238463	-0.079784
O8	O	1.557822	0.738463	0.420216
O9	O	1.072138	-0.006073	0.079896
O10	O	1.572138	0.493927	0.579896
O11	O	0.933732	0.122725	0.079878
O12	O	1.433732	0.622725	0.579878
O13	O	1.196208	0.109662	0.079895
O14	O	1.696208	0.609662	0.579895
Zn15	Zn	1.064967	0.116193	0.105236
Zn16	Zn	1.564967	0.616193	0.605236
Zn17	Zn	1.064993	0.116197	-0.105125
Zn18	Zn	1.564993	0.616197	0.394875
O19	O	1.057803	0.238460	0.079878
O20	O	1.557803	0.738460	0.579878
C21	C	0.900154	0.122135	0.000045
C22	C	1.400154	0.622135	0.500045
C23	C	0.800072	0.120361	0.000039
C24	C	1.300072	0.620361	0.500039
C25	C	0.387646	0.036354	0.000067
C26	C	0.887646	0.536354	0.500067
C27	C	0.366169	0.189369	0.000055
C28	C	0.866169	0.689369	0.500055
C29	C	0.460201	0.191037	0.000051
C30	C	0.960201	0.691037	0.500051
C31	C	0.517960	0.115362	0.000055
C32	C	1.017960	0.615362	0.500055
C33	C	0.481687	0.038019	0.000061
C34	C	0.981687	0.538019	0.500061
C35	C	0.496480	0.268379	0.000035
C36	C	0.996480	0.768379	0.500035
C37	C	0.590517	0.270050	0.000031
C38	C	1.090517	0.770050	0.500031
C39	C	0.648278	0.194374	0.000041
C40	C	1.148278	0.694374	0.500041
C41	C	0.612000	0.117028	0.000049
C42	C	1.112000	0.617028	0.500049
C43	C	0.669759	0.041353	0.000052
C44	C	1.169759	0.541353	0.500052
C45	C	0.633483	-0.035994	0.000066
C46	C	1.133483	0.464006	0.500066
C47	C	0.539448	-0.037657	0.000071
C48	C	1.039448	0.462343	0.500071
C49	C	0.742313	0.196036	0.000036
C50	C	1.242313	0.696036	0.500036
C51	C	0.763800	0.043018	0.000046
C52	C	1.263800	0.543018	0.500046
C53	C	1.071552	-0.037367	0.000065
C54	C	1.571552	0.462633	0.500065
C55	C	1.069768	-0.130615	0.000065
C56	C	1.569768	0.369385	0.500065
C57	C	0.979713	-0.345572	0.000047
C58	C	1.479713	0.154428	0.500047
C59	C	1.021522	-0.406544	0.078772
C60	C	1.521522	0.093456	0.578772
C61	C	1.066541	-0.301344	0.000058
C62	C	1.566541	0.198656	0.500058
C63	C	1.021562	-0.406524	-0.078642
C64	C	1.521562	0.093476	0.421358
C65	C	1.063416	-0.466260	0.000046
C66	C	1.563416	0.033740	0.500046
C67	C	1.108373	-0.361088	0.078848
C68	C	1.608373	0.138912	0.578848
C69	C	1.108401	-0.361062	-0.078636
C70	C	1.608401	0.138938	0.421364
C71	C	1.150273	-0.422017	0.000109
C72	C	1.650273	0.077983	0.500109
C73	C	1.068338	-0.206340	0.000065
C74	C	1.568338	0.293660	0.500065
C75	C	1.061626	-0.561263	0.000046
C76	C	1.561626	-0.061263	0.500046
C77	C	1.229806	0.110255	0.000064
C78	C	1.729806	0.610255	0.500064
C79	C	1.329887	0.112029	0.000064
C80	C	1.829887	0.612029	0.500064
C81	C	1.058407	0.269756	0.000044
C82	C	1.558407	0.769756	0.500044
C83	C	1.060191	0.363004	0.000038
C84	C	1.560191	0.863004	0.500038
N85	N	1.064957	0.116190	0.248803
N86	N	1.564957	0.616190	0.748803
N87	N	1.065010	0.116193	-0.248691
N88	N	1.565010	0.616193	0.251309
C89	C	1.003704	0.173206	0.701064
C90	C	1.503704	0.673206	1.201064
C91	C	1.126306	0.059181	0.701049
C92	C	1.626306	0.559181	1.201049
C93	C	1.126295	0.059178	0.600553
C94	C	1.626295	0.559178	1.100553
C95	C	1.064989	0.116191	0.550308
C96	C	1.564989	0.616191	1.050308
C97	C	1.003693	0.173207	0.600559
C98	C	1.503693	0.673207	1.100559
C99	C	1.187596	0.002169	0.550295
C100	C	1.687596	0.502169	1.050295
C101	C	1.187588	0.002164	0.449793
C102	C	1.687588	0.502164	0.949793
C103	C	1.126277	0.059174	0.399546
C104	C	1.626277	0.559174	0.899546
C105	C	1.064978	0.116192	0.449803
C106	C	1.564978	0.616192	0.949803
C107	C	1.003672	0.173205	0.399558
C108	C	1.503672	0.673205	0.899558
C109	C	0.942368	0.230220	0.449814
C110	C	1.442368	0.730220	0.949814
C111	C	0.942382	0.230217	0.550312
C112	C	1.442382	0.730217	1.050312
C113	C	1.126263	0.059177	0.299047
C114	C	1.626263	0.559177	0.799047
C115	C	1.003661	0.173206	0.299053
C116	C	1.503661	0.673206	0.799053
H117	H	0.620045	0.333030	0.000019
H118	H	1.120045	0.833030	0.500019
H119	H	1.237504	-0.044260	0.408882
H120	H	1.737504	0.455740	0.908882
C121	C	1.309131	-0.406204	0.001013
C122	C	1.809131	0.093796	0.501013
C123	C	1.247653	-0.466666	0.000184
C124	C	1.747653	0.033334	0.500184
H125	H	1.369249	-0.433768	0.001072
H126	H	1.869249	0.066232	0.501072
H127	H	1.300127	-0.371572	-0.054405
H128	H	1.800127	0.128428	0.445595
H129	H	1.299720	-0.372277	0.056947
H130	H	1.799720	0.127723	0.556947
H131	H	1.257060	-0.500589	-0.055754
H132	H	1.757060	-0.000589	0.444246
H133	H	1.256661	-0.501312	0.055608
H134	H	1.756661	-0.001312	0.555608
H135	H	0.358106	-0.026620	0.000082
H136	H	0.858106	0.473380	0.500082
H137	H	1.145102	-0.340890	-0.145191
H138	H	1.645102	0.159110	0.354809
C139	C	0.882473	0.285920	0.309164
C140	C	1.382473	0.785920	0.809164
C141	C	0.936272	0.235880	0.243828
C142	C	1.436272	0.735880	0.743828
H143	H	0.840875	0.324615	0.275068
H144	H	1.340875	0.824615	0.775068
H145	H	0.850050	0.250897	0.348366
H146	H	1.350050	0.750897	0.848366
H147	H	0.920011	0.316194	0.348357
H148	H	1.420011	0.816194	0.848357
H149	H	0.898735	0.205601	0.204638
H150	H	1.398735	0.705601	0.704638
H151	H	0.968697	0.270908	0.204609
H152	H	1.468697	0.770908	0.704609
C153	C	1.186745	-0.405350	0.224133
C154	C	1.686745	0.094650	0.724133
C155	C	1.157898	-0.334057	0.168799
C156	C	1.657898	0.165943	0.668799
H157	H	1.217321	-0.388660	0.279661
H158	H	1.717321	0.111340	0.779661
H159	H	1.135724	-0.432399	0.242939
H160	H	1.635724	0.067601	0.742939
H161	H	1.226766	-0.443336	0.187328
H162	H	1.726766	0.056664	0.687328
H163	H	1.117872	-0.296074	0.205601
H164	H	1.617872	0.203926	0.705601
H165	H	1.208926	-0.306995	0.149994
H166	H	1.708926	0.193005	0.649994
C167	C	0.835605	0.286674	-0.082060
C168	C	1.335605	0.786674	0.417940
C169	C	0.782189	0.281047	0.000019
C170	C	1.282189	0.781047	0.500019
H171	H	0.860216	0.339162	-0.082070
H172	H	1.360216	0.839162	0.417930
H173	H	0.883456	0.241850	-0.082046
H174	H	1.383456	0.741850	0.417954
H175	H	0.799360	0.282841	-0.137730
H176	H	1.299360	0.782841	0.362270
H177	H	0.818435	0.284874	0.055689
H178	H	1.318435	0.784874	0.555689
H179	H	0.734331	0.325884	0.000014
H180	H	1.234331	0.825884	0.500014
C181	C	0.882011	-0.043881	-0.082032
C182	C	1.382011	0.456119	0.417968
C183	C	0.827289	-0.040167	0.000048
C184	C	1.327289	0.459833	0.500048
H185	H	0.921209	-0.095233	-0.082026
H186	H	1.421209	0.404767	0.417974
H187	H	0.844878	-0.041355	-0.137695
H188	H	1.344878	0.458645	0.362305
H189	H	0.917071	0.002422	-0.082032
H190	H	1.417071	0.502422	0.417968
H191	H	0.792224	-0.086467	0.000044
H192	H	1.292224	0.413533	0.500044
H193	H	0.864426	-0.042701	0.055725
H194	H	1.364426	0.457299	0.555725
H195	H	0.892456	0.276644	0.408893
H196	H	1.392456	0.776644	0.908893
C197	C	1.247455	-0.053527	0.309132
C198	C	1.747455	0.446473	0.809132
C199	C	1.193640	-0.003488	0.243807
C200	C	1.693640	0.496512	0.743807
H201	H	1.289048	-0.092219	0.275028
H202	H	1.789048	0.407781	0.775028
H203	H	1.279884	-0.018504	0.348315
H204	H	1.779884	0.481496	0.848315
H205	H	1.209928	-0.083805	0.348347
H206	H	1.709928	0.416195	0.848347
H207	H	1.231167	0.026796	0.204597
H208	H	1.731167	0.526796	0.704597
H209	H	1.161209	-0.038515	0.204608
H210	H	1.661209	0.461485	0.704608
H211	H	0.984790	-0.426694	0.145324
H212	H	1.484790	0.073306	0.645324
C213	C	0.820765	-0.361012	0.001051
C214	C	1.320765	0.138988	0.501051
C215	C	0.882423	-0.300712	0.000145
C216	C	1.382423	0.199288	0.500145
H217	H	0.760705	-0.333315	0.001122
H218	H	1.260705	0.166685	0.501122
H219	H	0.829662	-0.395675	-0.054346
H220	H	1.329662	0.104325	0.445654
H221	H	0.830103	-0.394931	0.057005
H222	H	1.330103	0.105069	0.557005
H223	H	0.873089	-0.266796	-0.055813
H224	H	1.373089	0.233204	0.444187
H225	H	0.873522	-0.266034	0.055548
H226	H	1.373522	0.233966	0.555548
H227	H	0.319136	0.250981	0.000044
H228	H	0.819136	0.750981	0.500044
C229	C	0.847641	0.222254	0.732025
C230	C	1.347641	0.722254	1.232025
C231	C	0.936319	0.235871	0.756302
C232	C	1.436319	0.735871	1.256302
H233	H	0.806041	0.260937	0.766133
H234	H	1.306041	0.760937	1.266133
H235	H	0.838870	0.230420	0.664989
H236	H	1.338870	0.730420	1.164989
H237	H	0.837867	0.166173	0.748504
H238	H	1.337867	0.666173	1.248504
H239	H	0.946095	0.291950	0.739816
H240	H	1.446095	0.791950	1.239816
H241	H	0.945093	0.227712	0.823353
H242	H	1.445093	0.727712	1.323353
C243	C	0.942349	-0.362396	-0.223482
C244	C	1.442349	0.137604	0.276518
C245	C	0.971986	-0.433695	-0.168493
C246	C	1.471986	0.066305	0.331507
H247	H	0.911745	-0.379170	-0.278951
H248	H	1.411745	0.120830	0.221049
H249	H	0.902181	-0.324787	-0.186407
H250	H	1.402181	0.175213	0.313593
H251	H	0.993029	-0.334886	-0.242393
H252	H	1.493029	0.165114	0.257607
H253	H	0.921306	-0.461201	-0.149576
H254	H	1.421306	0.038799	0.350424
H255	H	1.012157	-0.471318	-0.205575
H256	H	1.512157	0.028682	0.294425
H257	H	0.892471	0.276637	0.591236
H258	H	1.392471	0.776637	1.091236
C259	C	1.145866	-0.055093	0.814081
C260	C	1.645866	0.444907	1.314081
C261	C	1.193687	-0.003487	0.756280
C262	C	1.693687	0.496513	1.256280
H263	H	1.187466	-0.093787	0.848177
H264	H	1.687466	0.406213	1.348177
H265	H	1.109372	-0.021133	0.858383
H266	H	1.609372	0.478867	1.358383
H267	H	1.108340	-0.085370	0.774875
H268	H	1.608340	0.414630	1.274875
H269	H	1.231208	0.026795	0.795486
H270	H	1.731208	0.526795	1.295486
H271	H	1.230197	-0.037451	0.711972
H272	H	1.730197	0.462549	1.211972
C273	C	1.207147	-0.112107	0.663323
C274	C	1.707147	0.387893	1.163323
C275	C	1.254973	-0.060498	0.605532
C276	C	1.754973	0.439502	1.105532
H277	H	1.248744	-0.150799	0.697425
H278	H	1.748744	0.349201	1.197425
H279	H	1.170645	-0.078148	0.707621
H280	H	1.670645	0.421852	1.207621
H281	H	1.169628	-0.142385	0.624111
H282	H	1.669628	0.357615	1.124111
H283	H	1.292487	-0.030215	0.644745
H284	H	1.792487	0.469785	1.144745
H285	H	1.291491	-0.094460	0.561229
H286	H	1.791491	0.405540	1.061229
H287	H	0.680523	-0.097609	0.000062
H288	H	1.180523	0.402391	0.500062
H289	H	0.509903	-0.100629	0.000105
H290	H	1.009903	0.399371	0.500105
H291	H	0.449447	0.329989	0.000023
H292	H	0.949447	0.829989	0.500023
