data_functionalizedCrystal
_audit_creation_method	'MofGen! by Chris Wilmer'
_symmetry_space_group_name_H-M	'P1'
_symmetry_Int_Tables_number	1
_symmetry_cell_setting	triclinic
loop_
_symmetry_equiv_pos_as_xyz
  x,y,z
_cell_length_a	16.109301
_cell_length_b	10.723024
_cell_length_c	14.586319
_cell_angle_alpha	89.997376
_cell_angle_beta	89.998857
_cell_angle_gamma	83.964727
loop_
_atom_site_label
_atom_site_type_symbol
_atom_site_fract_x
_atom_site_fract_y
_atom_site_fract_z
O1	O	1.104074	0.160392	-0.076188
O2	O	0.862130	0.180352	-0.076200
O3	O	0.988683	-0.011278	-0.076190
O4	O	0.977521	0.352022	-0.076198
O5	O	0.988674	-0.011281	0.076291
O6	O	0.862121	0.180349	0.076281
O7	O	1.104066	0.160389	0.076293
Cu8	Cu	0.983092	0.170369	0.090210
Cu9	Cu	0.983103	0.170372	-0.090117
O10	O	0.977512	0.352020	0.076283
C11	C	0.831146	0.179542	0.000039
C12	C	0.738836	0.177118	0.000034
C13	C	0.430460	0.282903	0.000048
C14	C	0.517194	0.285192	0.000042
C15	C	0.535730	0.057830	0.000035
C16	C	0.448997	0.055542	0.000033
C17	C	0.396365	0.168082	0.000045
C18	C	0.569831	0.172659	0.000040
C19	C	0.663871	0.175141	0.000035
C20	C	0.302318	0.165601	0.000049
C21	C	0.987866	-0.057768	0.000049
C22	C	0.985436	-0.196290	0.000046
C23	C	1.056249	-0.272211	0.000048
C24	C	1.053738	-0.415382	0.000045
C25	C	1.135050	0.161199	0.000052
C26	C	1.227359	0.163624	0.000051
C27	C	0.978329	0.398510	0.000042
C28	C	0.980759	0.537032	0.000039
N29	N	0.983091	0.170366	0.217041
N30	N	0.983111	0.170366	-0.216948
C31	C	1.039148	0.085541	0.452052
C32	C	1.039150	0.085538	0.548034
C33	C	0.927048	0.255195	0.548034
C34	C	0.927043	0.255191	0.452055
C35	C	0.983097	0.170365	0.404066
C36	C	0.983105	0.170366	0.596027
C37	C	0.983107	0.170364	0.700094
C38	C	0.983094	0.170366	0.299992
H39	H	0.544950	0.378691	0.000044
H40	H	0.881395	0.324266	0.412982
H41	H	0.920135	-0.397740	0.000043
H42	H	1.114359	-0.480618	0.000051
H43	H	0.922953	-0.237284	0.000036
H44	H	1.084789	0.016468	0.412982
C45	C	0.783543	0.328398	0.577605
C46	C	0.865439	0.348433	0.600790
H47	H	0.745509	0.385957	0.610179
H48	H	0.775521	0.340543	0.513584
H49	H	0.774055	0.245109	0.593344
H50	H	0.874929	0.431720	0.585045
H51	H	0.873464	0.336298	0.664826
H52	H	0.421237	-0.037965	0.000028
C53	C	0.420854	0.507870	0.000040
C54	C	0.372606	0.406605	0.000045
H55	H	0.385137	0.584239	0.000030
H56	H	0.455063	0.504033	0.053212
H57	H	0.455073	0.504022	-0.053135
H58	H	0.338391	0.410448	0.053225
H59	H	0.338382	0.410444	-0.053132
C60	C	1.126763	-0.085764	0.000061
C61	C	1.140604	-0.216885	0.000057
H62	H	1.178843	-0.051614	0.000073
H63	H	1.096043	-0.058371	-0.053111
H64	H	1.096026	-0.058384	0.053236
H65	H	1.171336	-0.244266	-0.053121
H66	H	1.171337	-0.244289	0.053235
C67	C	1.149963	-0.082147	0.538386
C68	C	1.100767	-0.007700	0.600780
H69	H	1.188007	-0.139705	0.570951
H70	H	1.115102	-0.127048	0.500957
H71	H	1.180157	-0.030175	0.500944
H72	H	1.070568	-0.059671	0.638217
H73	H	1.135633	0.037204	0.638224
C74	C	0.676915	-0.039618	0.000045
C75	C	0.593586	-0.065871	0.000036
H76	H	0.712630	-0.115989	0.000054
H77	H	0.687321	0.007459	-0.053125
H78	H	0.687309	0.007464	0.053222
H79	H	0.583191	-0.112945	-0.053146
H80	H	0.583176	-0.112967	0.053211
