data_functionalizedCrystal
_audit_creation_method	'MofGen! by Chris Wilmer'
_symmetry_space_group_name_H-M	'P1'
_symmetry_Int_Tables_number	1
_symmetry_cell_setting	triclinic
loop_
_symmetry_equiv_pos_as_xyz
  x,y,z
_cell_length_a	13.897449
_cell_length_b	12.645330
_cell_length_c	12.645324
_cell_angle_alpha	90.031766
_cell_angle_beta	90.021615
_cell_angle_gamma	90.018972
loop_
_atom_site_label
_atom_site_type_symbol
_atom_site_fract_x
_atom_site_fract_y
_atom_site_fract_z
Zn1	Zn	1.474711	-0.421923	0.599408
Zn2	Zn	1.474603	-0.599232	0.422148
Zn3	Zn	1.313398	-0.421987	0.422157
Zn4	Zn	1.313382	-0.599148	0.599368
O5	O	1.394023	-0.510572	0.510770
O6	O	1.609678	-0.445451	0.575908
O7	O	1.453180	-0.575782	0.273802
O8	O	1.334848	-0.273631	0.445690
O9	O	1.609599	-0.575720	0.445676
O10	O	1.453364	-0.273584	0.575916
O11	O	1.334743	-0.445561	0.273808
O12	O	1.178414	-0.445480	0.445651
O13	O	1.334821	-0.575577	0.747721
O14	O	1.178402	-0.575640	0.575847
O15	O	1.453349	-0.445370	0.747750
O16	O	1.453164	-0.747568	0.445636
O17	O	1.334716	-0.747507	0.575839
C18	C	1.143409	-0.510558	0.510746
C19	C	1.036195	-0.510578	0.510761
C20	C	1.393953	-0.786002	0.510755
C21	C	1.394011	-0.903832	0.510785
C22	C	0.839900	-0.510582	0.510789
C23	C	0.949132	-0.510576	0.510770
C24	C	1.319803	-1.071402	0.592947
C25	C	1.319423	-0.948842	0.592683
C26	C	1.366490	-0.948440	0.399063
C27	C	1.366037	-1.071039	0.399562
C28	C	1.496194	-1.070916	0.539437
C29	C	1.495568	-0.948308	0.541880
C30	C	1.645616	-0.510587	0.510795
C31	C	1.752830	-0.510594	0.510806
C32	C	1.394096	-0.510457	0.787276
C33	C	1.394126	-0.510408	0.905106
C34	C	1.394120	-0.234067	0.510808
C35	C	1.394162	-0.116237	0.510825
C36	C	1.394007	-0.510611	0.235341
C37	C	1.394163	-0.510361	0.117511
C38	C	1.468983	-0.428732	1.072689
C39	C	1.468743	-0.428437	0.950129
C40	C	1.292507	-0.480053	0.949587
C41	C	1.292961	-0.479433	1.072185
C42	C	1.420065	-0.622559	1.072303
C43	C	1.422289	-0.621995	0.949698
H44	H	1.336642	-0.918678	0.675524
H45	H	1.235317	-0.536301	1.101834
H46	H	1.417847	-1.100702	0.336288
H47	H	1.292681	-0.917834	0.374386
H48	H	1.492872	-0.650195	1.103287
H49	H	1.243781	-0.919612	0.573728
H50	H	1.371755	-0.686087	0.919046
O51	O	1.224071	-0.548726	0.914928
C52	C	1.133798	-0.519158	0.956294
H53	H	1.144733	-0.470209	1.031072
H54	H	1.093149	-0.470217	0.895185
C55	C	1.061899	-0.679213	0.891170
C56	C	1.075329	-0.619100	0.983019
H57	H	1.025829	-0.740860	0.907652
H58	H	1.122716	-0.699132	0.863297
H59	H	1.028028	-0.638417	0.840254
H60	H	1.109209	-0.659891	1.033928
H61	H	1.014516	-0.599189	1.010901
O62	O	1.429009	-0.913836	0.323948
C63	C	1.402208	-0.955336	0.224702
H64	H	1.357695	-1.030114	0.236665
H65	H	1.357686	-0.894299	0.179927
C66	C	1.547878	-0.890265	0.145923
C67	C	1.493213	-0.982114	0.160616
H68	H	1.604013	-0.906779	0.106388
H69	H	1.565933	-0.862301	0.212785
H70	H	1.510766	-0.839410	0.108614
H71	H	1.530321	-1.032962	0.197935
H72	H	1.475166	-1.010087	0.093758
O73	O	1.525983	-1.107752	0.635014
C74	C	1.455027	-1.175164	0.677491
H75	H	1.382271	-1.155549	0.640760
H76	H	1.474293	-1.260882	0.659266
C77	C	1.539134	-1.183595	0.843241
C78	C	1.449772	-1.159498	0.798134
H79	H	1.535895	-1.173936	0.917659
H80	H	1.586941	-1.138182	0.814623
H81	H	1.555180	-1.255026	0.828043
H82	H	1.433734	-1.088064	0.813321
H83	H	1.401963	-1.204898	0.826757
H84	H	1.365575	-0.683382	1.101297
H85	H	1.270147	-0.398953	0.918892
H86	H	1.244633	-1.102307	0.574234
H87	H	1.497072	-0.644885	0.920625
O88	O	1.339972	-1.106517	0.692132
C89	C	1.260888	-1.164301	0.731337
H90	H	1.192740	-1.139121	0.687936
H91	H	1.273700	-1.252385	0.718257
C92	C	1.332952	-1.173372	0.903768
C93	C	1.249250	-1.142439	0.850467
H94	H	1.325774	-1.159891	0.977253
H95	H	1.386235	-1.134445	0.877354
H96	H	1.343620	-1.246774	0.892856
H97	H	1.238590	-1.069036	0.861369
H98	H	1.195965	-1.181353	0.876886
O99	O	1.520505	-0.913518	0.639914
C100	C	1.606357	-0.854437	0.633447
H101	H	1.647696	-0.878479	0.559395
H102	H	1.588385	-0.766573	0.629410
C103	C	1.617798	-0.846585	0.822821
C104	C	1.668575	-0.876120	0.731874
H105	H	1.656176	-0.859955	0.883537
H106	H	1.559956	-0.886385	0.827179
H107	H	1.602824	-0.773366	0.819442
H108	H	1.683537	-0.949340	0.735248
H109	H	1.726421	-0.836333	0.727519
H110	H	1.553887	-0.917663	0.486421
H111	H	1.544096	-0.447447	0.920056
H112	H	1.291451	-1.099735	0.375323
O113	O	1.562176	-1.105644	0.468027
C114	C	1.516416	-1.170538	0.392516
H115	H	1.447265	-1.204063	0.427527
H116	H	1.498553	-1.121793	0.319283
C117	C	1.668907	-1.220809	0.318661
C118	C	1.583978	-1.261992	0.361666
H119	H	1.710583	-1.277220	0.299627
H120	H	1.699737	-1.177085	0.369532
H121	H	1.654008	-1.180189	0.257640
H122	H	1.598877	-1.302600	0.422693
H123	H	1.553152	-1.305725	0.310805
O124	O	1.266609	-0.381661	1.106376
C125	C	1.182682	-0.389813	1.168452
H126	H	1.142528	-0.465446	1.146910
H127	H	1.203252	-0.391958	1.255708
C128	C	1.166778	-0.200757	1.173950
C129	C	1.117456	-0.293647	1.147485
H130	H	1.126544	-0.141436	1.161022
H131	H	1.223323	-0.195264	1.132132
H132	H	1.183917	-0.202560	1.246662
H133	H	1.100329	-0.291849	1.074772
H134	H	1.060906	-0.299137	1.189291
H135	H	1.452053	-0.346078	1.103513
O136	O	1.559201	-0.450929	1.107920
C137	C	1.594980	-0.363984	1.165678
H138	H	1.555586	-0.289083	1.140396
H139	H	1.583051	-0.377969	1.253760
C140	C	1.751773	-0.443293	1.174988
C141	C	1.703394	-0.351297	1.143930
H142	H	1.818649	-0.435469	1.161578
H143	H	1.727668	-0.501872	1.136079
H144	H	1.741822	-0.454937	1.248388
H145	H	1.713335	-0.339661	1.070529
H146	H	1.727504	-0.292716	1.182826
H147	H	1.451592	-0.345323	0.920816
