data_functionalizedCrystal
_audit_creation_method	'MofGen! by Chris Wilmer'
_symmetry_space_group_name_H-M	'P1'
_symmetry_Int_Tables_number	1
_symmetry_cell_setting	triclinic
loop_
_symmetry_equiv_pos_as_xyz
  x,y,z
_cell_length_a	15.995350
_cell_length_b	10.654550
_cell_length_c	9.730223
_cell_angle_alpha	90.003749
_cell_angle_beta	90.000899
_cell_angle_gamma	96.011361
loop_
_atom_site_label
_atom_site_type_symbol
_atom_site_fract_x
_atom_site_fract_y
_atom_site_fract_z
O1	O	0.117599	-1.666298	-0.114395
O2	O	0.128803	-1.300673	-0.114373
O3	O	0.001371	-1.493480	-0.114383
O4	O	0.245031	-1.473491	-0.114385
O5	O	0.001375	-1.493478	0.114197
O6	O	0.128806	-1.300671	0.114207
O7	O	0.117602	-1.666295	0.114185
Zn8	Zn	0.123205	-1.483483	0.150488
Zn9	Zn	0.123200	-1.483486	-0.150676
O10	O	0.245034	-1.473488	0.114195
C11	C	0.127982	-1.253885	-0.000080
C12	C	0.125521	-1.114473	-0.000071
C13	C	-0.029827	-1.492652	-0.000096
C14	C	-0.122791	-1.490175	-0.000104
C15	C	0.118423	-1.713084	-0.000111
C16	C	0.120884	-1.852495	-0.000129
C17	C	-0.460591	-1.481278	-0.000098
C18	C	-0.413954	-1.343964	-0.000603
C19	C	-0.317249	-1.346442	-0.000087
C20	C	-0.293004	-1.485691	-0.000102
C21	C	-0.333687	-1.553417	0.130422
C22	C	-0.430342	-1.549968	0.130531
C23	C	-0.430688	-1.552807	-0.129407
C24	C	-0.333743	-1.552775	-0.131132
C25	C	-0.198292	-1.488192	-0.000099
C26	C	-0.555303	-1.478780	-0.000092
C27	C	0.276232	-1.474316	-0.000095
C28	C	0.369197	-1.476793	-0.000097
N29	N	0.123207	-1.483490	0.356024
C30	C	0.200551	-1.034008	-0.000092
C31	C	0.198233	-0.903017	-0.000116
C32	C	0.045849	-0.932971	-0.000104
C33	C	0.048168	-1.063959	-0.000071
C34	C	0.288528	-1.016713	-0.000104
C35	C	0.286211	-0.885722	-0.000128
N36	N	0.123191	-1.483488	-0.356212
C37	C	0.066800	-1.568886	0.427946
C38	C	0.066789	-1.568883	0.571829
C39	C	0.179602	-1.398083	0.571856
C40	C	0.179607	-1.398081	0.427976
C41	C	0.001671	-1.667501	0.427931
C42	C	0.001661	-1.667497	0.571814
H43	H	-0.289138	-1.293204	-0.093652
H44	H	0.312800	-0.839703	0.098556
H45	H	0.016006	-1.763822	0.610858
C46	C	-0.313785	-1.691616	0.136988
N47	N	-0.298787	-1.795704	0.141937
H48	H	-0.062686	-1.646899	0.388879
C49	C	-0.439430	-1.269810	-0.127043
N50	N	-0.458628	-1.213954	-0.222279
H51	H	0.225531	-1.328534	0.369419
C52	C	0.330983	-0.828755	-0.129374
N53	N	0.364702	-0.785849	-0.226721
H54	H	0.322938	-1.045593	0.095561
H55	H	-0.448929	-1.500580	0.228110
H56	H	-0.305577	-1.506376	0.227563
C57	C	-0.440824	-1.270160	0.125181
N58	N	-0.461057	-1.214579	0.219934
H59	H	0.316540	-1.052003	-0.098792
H60	H	-0.289694	-1.292844	0.093643
C61	C	-0.473119	-1.686159	0.138540
N62	N	-0.505335	-1.788737	0.144581
C63	C	-0.458786	-1.492154	-0.263057
N64	N	-0.479947	-1.446455	-0.363716
C65	C	0.241637	-1.304136	0.651016
N66	N	0.288363	-1.233373	0.710638
H67	H	-0.306783	-1.503258	-0.227690
C68	C	-0.312200	-1.689965	-0.141789
N69	N	-0.295977	-1.793304	-0.149804
H70	H	-0.059156	-1.637779	0.616432
C71	C	-0.472806	-1.689575	-0.130613
N72	N	-0.504535	-1.792584	-0.131512
C73	C	-0.034371	-1.152468	-0.000029
N74	N	-0.096543	-1.219134	0.000003
H75	H	-0.017130	-0.891826	-0.000125
C76	C	0.029215	-1.790328	0.367628
N77	N	0.049961	-1.882842	0.322207
