data_functionalizedCrystal
_audit_creation_method	'MofGen! by Chris Wilmer'
_symmetry_space_group_name_H-M	'P1'
_symmetry_Int_Tables_number	1
_symmetry_cell_setting	triclinic
loop_
_symmetry_equiv_pos_as_xyz
  x,y,z
_cell_length_a	12.645330
_cell_length_b	14.908780
_cell_length_c	14.908308
_cell_angle_alpha	90.212689
_cell_angle_beta	93.270481
_cell_angle_gamma	86.692908
loop_
_atom_site_label
_atom_site_type_symbol
_atom_site_fract_x
_atom_site_fract_y
_atom_site_fract_z
Zn1	Zn	-0.370832	-1.345326	-0.587888
Zn2	Zn	-0.537347	-1.353913	-0.437538
Zn3	Zn	-0.369680	-1.203640	-0.428855
Zn4	Zn	-0.557640	-1.194940	-0.579157
O5	O	-0.458875	-1.274455	-0.508359
O6	O	-0.384910	-1.472293	-0.575231
O7	O	-0.506130	-1.341214	-0.310563
O8	O	-0.221483	-1.222482	-0.449971
O9	O	-0.507248	-1.478601	-0.464770
O10	O	-0.222330	-1.326579	-0.566812
O11	O	-0.382946	-1.230808	-0.304183
O12	O	-0.402624	-1.076658	-0.441505
O13	O	-0.541835	-1.207654	-0.706138
O14	O	-0.540718	-1.070266	-0.551931
O15	O	-0.404588	-1.318143	-0.712553
O16	O	-0.688388	-1.332777	-0.456304
O17	O	-0.703298	-1.215980	-0.560351
C18	C	-0.473749	-1.040837	-0.494829
C19	C	-0.480139	-0.940893	-0.489062
C20	C	-0.364954	-0.746506	-0.593424
C21	C	-0.370955	-0.652600	-0.588009
C22	C	-0.498134	-0.659172	-0.472811
C23	C	-0.492134	-0.753078	-0.478227
C24	C	-0.425543	-0.796742	-0.538536
C25	C	-0.419548	-0.890650	-0.543956
C26	C	-0.546721	-0.897221	-0.428755
C27	C	-0.552722	-0.803314	-0.423339
C28	C	-0.734308	-1.274390	-0.508343
C29	C	-0.852136	-1.274443	-0.508371
C30	C	-1.029121	-1.201240	-0.574057
C31	C	-0.906568	-1.200899	-0.573813
C32	C	-0.891572	-1.254264	-0.412130
C33	C	-1.014227	-1.253817	-0.412529
C34	C	-1.014895	-1.368292	-0.538181
C35	C	-0.892473	-1.367589	-0.540219
C36	C	-0.182366	-1.274543	-0.508397
C37	C	-0.064535	-1.274581	-0.508413
C38	C	-0.475604	-1.260970	-0.742883
C39	C	-0.482733	-1.255224	-0.842822
C40	C	-0.443934	-0.508985	-0.521936
C41	C	-0.437544	-0.608929	-0.527705
C42	C	-0.353189	-1.359475	-1.037301
C43	C	-0.359883	-1.354078	-1.131204
C44	C	-0.502810	-1.239030	-1.124532
C45	C	-0.496116	-1.244427	-1.030629
C46	C	-0.421304	-1.304652	-0.987017
C47	C	-0.414615	-1.310052	-0.893113
C48	C	-0.557536	-1.195001	-0.886443
C49	C	-0.564231	-1.189604	-0.980345
C50	C	-0.442131	-1.287939	-0.274752
C51	C	-0.434692	-1.293859	-0.174822
H52	H	-0.606934	-0.767750	-0.374234
H53	H	-0.596065	-0.938133	-0.384068
H54	H	-0.304414	-1.398718	-1.172141
H55	H	-0.563718	-1.189998	-1.160057
H56	H	-0.552337	-0.623605	-0.423700
H57	H	-1.036957	-1.305214	-0.361655
C58	C	-0.270905	-1.425722	-0.989320
C59	C	-0.151776	-1.417684	-1.001814
C60	C	-0.069492	-1.483932	-0.953834
C61	C	-0.106337	-1.558219	-0.893360
C62	C	-0.225472	-1.566261	-0.880863
C63	C	-0.307756	-1.500012	-0.928844
H64	H	-0.124496	-1.362689	-1.046583
H65	H	0.018700	-1.477979	-0.963085
H66	H	-0.045425	-1.607260	-0.857842
H67	H	-0.252752	-1.621255	-0.836094
H68	H	-0.395948	-1.505965	-0.919592
H69	H	-0.863847	-1.186669	-0.387222
H70	H	-0.321615	-0.611701	-0.632702
C71	C	-1.044696	-1.442023	-0.473690
C72	C	-1.005480	-1.540389	-0.488477
C73	C	-1.035289	-1.614111	-0.423984
C74	C	-1.104316	-1.589467	-0.344702
C75	C	-1.143537	-1.491096	-0.329911
C76	C	-1.113727	-1.417374	-0.394405
H77	H	-0.954378	-1.558637	-0.547169
H78	H	-1.006255	-1.686932	-0.434933
H79	H	-1.126383	-1.644041	-0.296960
H80	H	-1.194638	-1.472849	-0.271219
H81	H	-1.142761	-1.344553	-0.383455
C82	C	-0.332322	-1.376295	-0.845137
C83	C	-0.213197	-1.368241	-0.857634
C84	C	-0.130899	-1.434483	-0.809660
C85	C	-0.167728	-1.508779	-0.749189
C86	C	-0.286859	-1.516836	-0.736688
C87	C	-0.369157	-1.450594	-0.784662
H88	H	-0.185929	-1.313240	-0.902401
H89	H	-0.042710	-1.428518	-0.818914
H90	H	-0.106806	-1.557815	-0.713675
H91	H	-0.314127	-1.571837	-0.691921
H92	H	-0.457346	-1.456559	-0.775408
H93	H	-1.063352	-1.132085	-0.554133
C94	C	-0.871582	-1.106899	-0.546575
C95	C	-0.797177	-1.095426	-0.462405
C96	C	-0.762193	-1.001422	-0.435161
C97	C	-0.801615	-0.918893	-0.492087
C98	C	-0.876024	-0.930363	-0.576262
C99	C	-0.911008	-1.024367	-0.603506
H100	H	-0.767990	-1.156522	-0.420260
H101	H	-0.707110	-0.992931	-0.372848
H102	H	-0.775718	-0.849306	-0.471919
H103	H	-0.905211	-0.869268	-0.618407
H104	H	-0.966091	-1.032858	-0.665819
H105	H	-0.625138	-1.140569	-1.015867
C106	C	-1.056994	-1.161493	-0.379332
C107	C	-1.022711	-1.128358	-0.284717
C108	C	-1.065471	-1.036031	-0.251522
C109	C	-1.142515	-0.976839	-0.312942
C110	C	-1.176802	-1.009972	-0.407563
C111	C	-1.134042	-1.102300	-0.440758
H112	H	-0.965675	-1.172177	-0.239245
H113	H	-1.040089	-1.011503	-0.181477
H114	H	-1.174168	-0.908492	-0.288369
H115	H	-1.233838	-0.966154	-0.453035
H116	H	-1.159424	-1.126827	-0.510803
H117	H	-0.310738	-0.782057	-0.642535
C118	C	-0.841871	-1.444678	-0.480864
C119	C	-0.720499	-1.462395	-0.473891
C120	C	-0.669915	-1.539467	-0.414499
C121	C	-0.740703	-1.598821	-0.362080
C122	C	-0.862083	-1.581106	-0.369051
C123	C	-0.912667	-1.504034	-0.428444
H124	H	-0.668091	-1.418455	-0.512696
H125	H	-0.580062	-1.552580	-0.409338
H126	H	-0.703258	-1.655875	-0.318114
H127	H	-0.914491	-1.625045	-0.330246
H128	H	-1.002520	-1.490920	-0.433604
C129	C	-0.871251	-1.217039	-0.669994
C130	C	-0.954625	-1.230333	-0.747561
C131	C	-0.919317	-1.246444	-0.843751
C132	C	-0.800634	-1.249259	-0.862373
C133	C	-0.717251	-1.235964	-0.784804
C134	C	-0.752560	-1.219854	-0.688614
H135	H	-1.042488	-1.228249	-0.733777
H136	H	-0.981043	-1.256285	-0.901173
H137	H	-0.774496	-1.261185	-0.933579
H138	H	-0.629388	-1.238048	-0.798587
H139	H	-0.690834	-1.210012	-0.631192
H140	H	-1.062573	-1.213070	-0.645469
H141	H	-0.855474	-1.306231	-0.361643
H142	H	-1.049116	-1.387769	-0.607456
C143	C	-0.858178	-1.388284	-0.635938
C144	C	-0.942499	-1.402048	-0.712652
C145	C	-0.908199	-1.422736	-0.808373
C146	C	-0.789577	-1.429662	-0.827379
C147	C	-0.705248	-1.415898	-0.750663
C148	C	-0.739549	-1.395209	-0.654942
H149	H	-1.030317	-1.396921	-0.698585
H150	H	-0.970625	-1.432925	-0.865163
H151	H	-0.764186	-1.444976	-0.898237
H152	H	-0.617431	-1.421024	-0.764730
H153	H	-0.677122	-1.385021	-0.598152
C154	C	-0.632458	-1.134691	-0.831118
C155	C	-0.753427	-1.141249	-0.844430
C156	C	-0.828346	-1.080944	-0.789101
C157	C	-0.782294	-1.014082	-0.720461
C158	C	-0.661319	-1.007520	-0.707146
C159	C	-0.586401	-1.067825	-0.762475
H160	H	-0.787523	-1.190747	-0.895245
H161	H	-0.917900	-1.085802	-0.798958
H162	H	-0.837753	-0.969441	-0.679503
H163	H	-0.627223	-0.958022	-0.656331
H164	H	-0.496847	-1.062967	-0.752618
C165	C	-0.346298	-0.938684	-0.610291
C166	C	-0.363233	-0.919918	-0.711752
C167	C	-0.289978	-0.967951	-0.778086
C168	C	-0.199788	-1.034749	-0.742959
C169	C	-0.182850	-1.053518	-0.641493
C170	C	-0.256105	-1.005486	-0.575159
H171	H	-0.430000	-0.870468	-0.737759
H172	H	-0.302517	-0.954056	-0.853198
H173	H	-0.145560	-1.070305	-0.792063
H174	H	-0.116082	-1.102968	-0.615485
H175	H	-0.243565	-1.019380	-0.500047
