data_functionalizedCrystal
_audit_creation_method	'MofGen! by Chris Wilmer'
_symmetry_space_group_name_H-M	'P1'
_symmetry_Int_Tables_number	1
_symmetry_cell_setting	triclinic
loop_
_symmetry_equiv_pos_as_xyz
  x,y,z
_cell_length_a	8.559649
_cell_length_b	10.654550
_cell_length_c	9.730223
_cell_angle_alpha	89.999807
_cell_angle_beta	90.000348
_cell_angle_gamma	77.131784
loop_
_atom_site_label
_atom_site_type_symbol
_atom_site_fract_x
_atom_site_fract_y
_atom_site_fract_z
O1	O	2.119647	-0.042562	-0.114268
O2	O	1.655161	0.022224	-0.114274
O3	O	1.898084	-0.194011	-0.114266
O4	O	1.876725	0.173674	-0.114276
O5	O	1.898081	-0.194006	0.114314
O6	O	1.655158	0.022230	0.114306
O7	O	2.119644	-0.042557	0.114312
Zn8	Zn	1.887401	-0.010163	0.150601
Zn9	Zn	1.887405	-0.010170	-0.150563
O10	O	1.876722	0.173679	0.114304
C11	C	1.896514	-0.240645	0.000023
C12	C	1.891822	-0.379603	0.000018
C13	C	1.595684	0.027137	0.000015
C14	C	1.418466	0.041751	0.000013
C15	C	2.034851	-0.473864	0.000024
C16	C	2.030432	-0.604428	0.000014
C17	C	1.739944	-0.546458	-0.000002
C18	C	1.744364	-0.415896	-0.000002
C19	C	2.202562	-0.507333	0.000039
C20	C	2.198144	-0.637898	0.000030
C21	C	2.179121	-0.047469	0.000020
C22	C	2.356339	-0.062084	0.000014
C23	C	1.878292	0.220312	0.000013
C24	C	1.882984	0.359271	0.000008
N25	N	1.887410	-0.010160	0.356138
N26	N	1.887408	-0.010184	-0.356099
C27	C	1.995004	-0.105883	0.428067
C28	C	1.995000	-0.105898	0.571950
C29	C	1.779803	0.085545	0.571961
C30	C	1.779800	0.085553	0.428081
C31	C	2.119251	-0.216409	0.428062
C32	C	2.119247	-0.216423	0.571945
H33	H	1.627896	-0.339151	-0.000026
O34	O	1.309343	0.174332	0.000019
H35	H	1.182603	0.165397	0.000029
H36	H	2.241903	-0.207575	0.610997
H37	H	2.248830	-0.688779	-0.098664
O38	O	2.281818	-0.701871	0.126744
H39	H	2.326272	-0.629643	0.188794
H40	H	1.692175	0.163489	0.369517
O41	O	1.580903	-0.585600	-0.000002
H42	H	1.601855	-0.692224	0.000009
O43	O	2.273300	-0.467426	0.130766
H44	H	2.381213	-0.430314	0.105651
O45	O	2.289431	-0.477400	-0.126666
H46	H	2.328442	-0.566287	-0.188707
H47	H	1.438727	-0.162162	0.000010
H48	H	1.692189	0.163471	0.630553
O49	O	2.083138	-0.340534	0.376313
H50	H	2.065442	-0.401306	0.465084
H51	H	2.235137	-0.197791	0.383437
H52	H	2.080468	-0.303640	0.616563
