data_functionalizedCrystal
_audit_creation_method	'MofGen! by Chris Wilmer'
_symmetry_space_group_name_H-M	'P1'
_symmetry_Int_Tables_number	1
_symmetry_cell_setting	triclinic
loop_
_symmetry_equiv_pos_as_xyz
  x,y,z
_cell_length_a	25.993458
_cell_length_b	25.993459
_cell_length_c	25.993511
_cell_angle_alpha	59.998162
_cell_angle_beta	89.999156
_cell_angle_gamma	60.000225
loop_
_atom_site_label
_atom_site_type_symbol
_atom_site_fract_x
_atom_site_fract_y
_atom_site_fract_z
O1	O	-0.438486	-0.368218	0.015293
O2	O	-0.363675	-0.262871	-0.015241
O3	O	-0.363672	-0.368217	0.090105
O4	O	-0.438489	-0.262872	-0.090053
O5	O	-0.278107	-0.453782	0.090105
O6	O	-0.278110	-0.348435	-0.015242
O7	O	-0.352922	-0.453782	0.015293
Cu8	Cu	-0.307703	-0.408922	0.000026
Cu9	Cu	-0.408893	-0.307732	0.000026
O10	O	-0.352925	-0.348436	-0.090054
C11	C	-0.277316	-0.161982	-0.022175
C12	C	-0.309062	-0.098492	-0.017804
C13	C	-0.215401	-0.192794	-0.022608
C14	C	-0.277319	-0.255138	-0.022182
C15	C	-0.309067	-0.291250	-0.017818
C16	C	-0.215403	-0.285808	-0.022615
C17	C	-0.184156	-0.255142	-0.022175
C18	C	-0.116294	-0.291259	-0.017803
C19	C	-0.308422	-0.192790	-0.022615
C20	C	-0.621955	-0.565869	0.037072
C21	C	-0.590709	-0.628219	0.037508
C22	C	-0.528796	-0.565867	0.037069
C23	C	-0.497692	-0.628217	0.037505
C24	C	-0.528795	-0.659029	0.037072
C25	C	-0.590710	-0.535199	0.037505
C26	C	-0.722642	-0.464940	0.029513
C27	C	-0.786264	-0.430643	0.024742
C28	C	-0.818173	-0.460083	0.022351
C29	C	-0.887157	-0.422897	0.017175
C30	C	-0.786465	-0.523827	0.024735
C31	C	-0.722845	-0.558124	0.029508
C32	C	-0.690936	-0.528678	0.031894
C33	C	-0.529037	-0.752158	0.029515
C34	C	-0.499712	-0.811010	0.024744
C35	C	-0.438364	-0.840525	0.022349
C36	C	-0.406566	-0.904333	0.017173
C37	C	-0.406330	-0.811198	0.024730
C38	C	-0.435652	-0.752352	0.029503
C39	C	-0.497006	-0.722832	0.031893
C40	C	-0.529039	-0.464935	0.029505
C41	C	-0.499717	-0.430630	0.024723
C42	C	-0.438369	-0.460069	0.022328
C43	C	-0.406571	-0.422880	0.017149
C44	C	-0.406337	-0.523807	0.024709
C45	C	-0.435656	-0.558111	0.029489
C46	C	-0.497007	-0.528673	0.031887
C47	C	-0.528800	-0.150795	-0.471170
C48	C	-0.590715	-0.088445	-0.502276
C49	C	-0.528801	-0.150794	-0.378010
C50	C	-0.590716	-0.088444	-0.409257
C51	C	-0.621962	-0.057634	-0.471172
C52	C	-0.497696	-0.181464	-0.409255
C53	C	-0.435430	-0.251726	-0.470926
C54	C	-0.405903	-0.286024	-0.500250
C55	C	-0.437736	-0.256585	-0.561599
C56	C	-0.405725	-0.293773	-0.593395
C57	C	-0.499096	-0.192842	-0.593635
C58	C	-0.528620	-0.158544	-0.564313
C59	C	-0.496787	-0.187988	-0.502959
C60	C	-0.722649	0.035493	-0.564543
C61	C	-0.786272	0.094345	-0.594071
C62	C	-0.818182	0.123861	-0.562238
C63	C	-0.887167	0.187669	-0.594249
C64	C	-0.786474	0.094536	-0.500878
C65	C	-0.722854	0.035690	-0.471354
C66	C	-0.690944	0.006168	-0.503186
C67	C	-0.435431	-0.251724	-0.277321
C68	C	-0.405908	-0.286027	-0.213695
C69	C	-0.437741	-0.256588	-0.181786
C70	C	-0.405731	-0.293774	-0.112801
C71	C	-0.499099	-0.192850	-0.213493
C72	C	-0.528625	-0.158547	-0.277116
C73	C	-0.496788	-0.187987	-0.309028
O74	O	0.090091	-0.453793	0.015309
O75	O	-0.090066	-0.348444	-0.015226
O76	O	0.015273	-0.453795	0.090120
O77	O	-0.015248	-0.348442	-0.090038
O78	O	0.015276	-0.368235	0.090127
O79	O	-0.090063	-0.262884	-0.015220
O80	O	0.090094	-0.368232	0.015315
Cu81	Cu	0.000016	-0.307746	0.000048
Cu82	Cu	0.000012	-0.408931	0.000041
O83	O	-0.015245	-0.262881	-0.090031
O84	O	-0.352917	0.074778	0.015314
O85	O	-0.278103	-0.074844	-0.015220
O86	O	-0.278107	-0.074853	0.090126
O87	O	-0.352914	0.074787	-0.090033
O88	O	-0.363674	-0.074850	0.090119
O89	O	-0.363670	-0.074840	-0.015227
O90	O	-0.438484	0.074782	0.015307
Cu91	Cu	-0.408890	-0.000029	0.000039
Cu92	Cu	-0.307697	-0.000033	0.000047
O93	O	-0.438481	0.074791	-0.090039
O94	O	-1.090075	0.358185	-0.636308
O95	O	-0.909918	0.208556	-0.561490
O96	O	-1.015259	0.208553	-0.561488
O97	O	-0.984734	0.358188	-0.636310
O98	O	-1.015257	0.208552	-0.647052
O99	O	-0.909916	0.208554	-0.647054
O100	O	-1.090073	0.358183	-0.721872
Cu101	Cu	-0.999994	0.283368	-0.692275
Cu102	Cu	-0.999997	0.283371	-0.591086
O103	O	-0.984732	0.358186	-0.721874
O104	O	-0.363672	-0.368217	-0.721856
O105	O	-0.438486	-0.262875	-0.647043
O106	O	-0.438485	-0.368220	-0.647039
O107	O	-0.363673	-0.262872	-0.721860
O108	O	-0.352919	-0.453785	-0.561473
O109	O	-0.352920	-0.348441	-0.561477
O110	O	-0.278106	-0.453783	-0.636290
Cu111	Cu	-0.307700	-0.408925	-0.591071
Cu112	Cu	-0.408892	-0.307733	-0.692262
O113	O	-0.278107	-0.348438	-0.636294
C114	C	-0.184157	-0.554680	0.277358
C115	C	-0.116295	-0.618172	0.309104
C116	C	-0.215402	-0.523869	0.308461
C117	C	-0.277317	-0.461519	0.184196
C118	C	-0.309064	-0.425404	0.116335
C119	C	-0.308422	-0.430850	0.215442
C120	C	-0.277317	-0.461519	0.277356
C121	C	-0.309064	-0.425404	0.309102
C122	C	-0.215403	-0.523869	0.215443
C123	C	0.022216	-0.461546	0.277378
C124	C	0.017847	-0.425434	0.309127
C125	C	0.022649	-0.523895	0.308480
C126	C	0.022218	-0.461539	0.184215
C127	C	0.017852	-0.425421	0.116353
C128	C	0.022651	-0.523888	0.215458
C129	C	0.022213	-0.554702	0.277373
C130	C	0.017842	-0.618193	0.309116
C131	C	0.022654	-0.430874	0.215464
C132	C	-0.277320	-0.255179	0.277365
C133	C	-0.309067	-0.291295	0.309105
C134	C	-0.215404	-0.285854	0.308471
C135	C	-0.277318	-0.162008	0.184211
C136	C	-0.309065	-0.098506	0.116351
C137	C	-0.215403	-0.192825	0.215459
C138	C	-0.184157	-0.255183	0.277372
C139	C	-0.116295	-0.291304	0.309120
C140	C	-0.308424	-0.192820	0.215452
C141	C	-0.036996	-0.057627	-0.471149
C142	C	-0.037431	-0.088434	-0.502256
C143	C	-0.037001	-0.150789	-0.377991
C144	C	-0.037436	-0.181455	-0.409239
C145	C	-0.036998	-0.150783	-0.471154
C146	C	-0.037433	-0.088440	-0.409234
C147	C	-0.029433	0.035497	-0.470902
C148	C	-0.024659	0.094348	-0.500225
C149	C	-0.022263	0.123866	-0.561574
C150	C	-0.017083	0.187673	-0.593369
C151	C	-0.024646	0.094544	-0.593611
C152	C	-0.029422	0.035698	-0.564291
C153	C	-0.031813	0.006175	-0.502936
C154	C	-0.029436	-0.158096	-0.564526
C155	C	-0.024665	-0.192189	-0.594055
C156	C	-0.022273	-0.255931	-0.562224
C157	C	-0.017096	-0.292903	-0.594236
C158	C	-0.024659	-0.285585	-0.500864
C159	C	-0.029433	-0.251492	-0.471338
C160	C	-0.031819	-0.187750	-0.503169
C161	C	-0.029443	-0.158113	-0.277301
C162	C	-0.024666	-0.192218	-0.213674
C163	C	-0.022275	-0.255960	-0.181767
C164	C	-0.017101	-0.292938	-0.112782
C165	C	-0.024655	-0.285608	-0.213475
C166	C	-0.029430	-0.251509	-0.277098
C167	C	-0.031824	-0.187761	-0.309009
O168	O	-0.015283	-0.348468	0.438547
O169	O	0.015263	-0.453813	0.363734
O170	O	-0.090086	-0.348466	0.363721
O171	O	0.090067	-0.453815	0.438560
O172	O	-0.090076	-0.262903	0.278160
O173	O	0.015274	-0.368250	0.278173
O174	O	-0.015273	-0.262904	0.352986
Cu175	Cu	0.000001	-0.307764	0.307767
Cu176	Cu	-0.000011	-0.408953	0.408953
O177	O	0.090077	-0.368251	0.352999
C178	C	-0.621954	0.434195	-0.471145
C179	C	-0.590708	0.464866	-0.502245
C180	C	-0.528793	0.341020	-0.377984
C181	C	-0.497688	0.371833	-0.409225
C182	C	-0.528792	0.434191	-0.471138
C183	C	-0.590709	0.371836	-0.409233
C184	C	-0.722643	0.441515	-0.470910
C185	C	-0.786267	0.475617	-0.500237
C186	C	-0.818176	0.539368	-0.561584
C187	C	-0.887162	0.576348	-0.593384
C188	C	-0.786467	0.569022	-0.593614
C189	C	-0.722846	0.534920	-0.564289
C190	C	-0.690937	0.471170	-0.502938
C191	C	-0.529033	0.535130	-0.564499
C192	C	-0.499707	0.569430	-0.594020
C193	C	-0.438357	0.539984	-0.562184
C194	C	-0.406558	0.577173	-0.594188
C195	C	-0.406323	0.476234	-0.500827
C196	C	-0.435646	0.441934	-0.471308
C197	C	-0.497001	0.471385	-0.503145
C198	C	-0.529036	0.247880	-0.277303
C199	C	-0.499713	0.189024	-0.213679
C200	C	-0.438364	0.159502	-0.181766
C201	C	-0.406566	0.095685	-0.112783
C202	C	-0.406331	0.188830	-0.213467
C203	C	-0.435651	0.247685	-0.277089
C204	C	-0.497003	0.277207	-0.309004
H205	H	-0.190320	-0.335979	-0.023316
C206	C	-0.377144	-0.363070	0.181551
C207	C	-0.394034	-0.292242	0.171793
C208	C	-0.462753	-0.224464	0.137904
C209	C	-0.514583	-0.227514	0.113772
C210	C	-0.497695	-0.298346	0.123530
C211	C	-0.428976	-0.366124	0.157419
H212	H	-0.355665	-0.289981	0.189657
H213	H	-0.475254	-0.172030	0.130681
H214	H	-0.565453	-0.177341	0.088685
H215	H	-0.536064	-0.300606	0.105666
H216	H	-0.416474	-0.418558	0.164642
C217	C	-0.181528	-0.558704	0.377190
C218	C	-0.157411	-0.637714	0.429016
C219	C	-0.123546	-0.672547	0.497744
C220	C	-0.113797	-0.628369	0.514645
C221	C	-0.137915	-0.549354	0.462818
C222	C	-0.171780	-0.514521	0.394090
H223	H	-0.164627	-0.670421	0.416506
H224	H	-0.105692	-0.731039	0.536110
H225	H	-0.088728	-0.654154	0.565522
H226	H	-0.130699	-0.516647	0.475328
H227	H	-0.189634	-0.456029	0.355724
H228	H	-0.022704	-0.337517	-0.187490
H229	H	0.023354	-0.380702	0.190382
H230	H	-0.190308	-0.549645	0.190353
C231	C	0.023599	-0.558727	0.181573
C232	C	0.078484	-0.586430	0.157447
C233	C	0.079432	-0.621270	0.123567
C234	C	0.025496	-0.628407	0.113812
C235	C	-0.029393	-0.600702	0.137938
C236	C	-0.030341	-0.565862	0.171818
H237	H	0.118414	-0.581148	0.164668
H238	H	0.120065	-0.641779	0.105707
H239	H	0.026198	-0.654197	0.088731
H240	H	-0.069323	-0.605984	0.130717
H241	H	-0.070974	-0.545353	0.189678
C242	C	0.023592	-0.558740	0.377203
C243	C	0.078473	-0.586450	0.429041
C244	C	0.079415	-0.621297	0.497762
C245	C	0.025477	-0.628433	0.514644
C246	C	-0.029409	-0.600722	0.462806
C247	C	-0.030351	-0.565875	0.394085
H248	H	0.118405	-0.581169	0.416544
H249	H	0.120045	-0.641811	0.536136
H250	H	0.026174	-0.654229	0.565515
H251	H	-0.069341	-0.606004	0.475302
H252	H	-0.070981	-0.545362	0.355711
H253	H	-0.190323	-0.336028	0.359344
H254	H	-0.615794	-0.062654	-0.553151
H255	H	-0.190318	-0.167005	-0.023309
H256	H	-0.190317	-0.167038	0.190373
C257	C	-0.038389	-0.249229	-0.375355
C258	C	-0.093283	-0.246158	-0.402540
C259	C	-0.094238	-0.313927	-0.368657
C260	C	-0.040300	-0.384767	-0.307590
C261	C	0.014597	-0.387841	-0.280402
C262	C	0.015553	-0.320071	-0.314284
H263	H	-0.133214	-0.193715	-0.447748
H264	H	-0.134877	-0.311652	-0.388784
H265	H	-0.041007	-0.434934	-0.282508
H266	H	0.054529	-0.440283	-0.235193
H267	H	0.056192	-0.322347	-0.294157
H268	H	-0.409573	-0.610008	0.031424
C269	C	-0.377147	-0.157971	0.181549
C270	C	-0.394031	-0.150820	0.120467
C271	C	-0.462751	-0.115968	0.086560
C272	C	-0.514587	-0.088267	0.113736
C273	C	-0.497705	-0.095417	0.174821
C274	C	-0.428985	-0.130269	0.208728
H275	H	-0.355657	-0.171327	0.100347
H276	H	-0.475248	-0.110676	0.041341
H277	H	-0.565458	-0.062468	0.088636
H278	H	-0.536078	-0.074910	0.194941
H279	H	-0.416488	-0.135561	0.253948
C280	C	-0.377149	-0.157955	-0.023571
C281	C	-0.394048	-0.202137	0.030357
C282	C	-0.462773	-0.167306	0.029397
C283	C	-0.514598	-0.088293	-0.025491
C284	C	-0.497700	-0.044106	-0.079423
C285	C	-0.428975	-0.078938	-0.078463
H286	H	-0.355683	-0.260631	0.070992
H287	H	-0.475282	-0.200016	0.069322
H288	H	-0.565472	-0.062508	-0.026201
H289	H	-0.536065	0.014388	-0.120058
H290	H	-0.416466	-0.046228	-0.118388
C291	C	-0.428963	0.336995	-0.375341
C292	C	-0.377135	0.257987	-0.351223
C293	C	-0.308412	0.223152	-0.317344
C294	C	-0.291516	0.267327	-0.307582
C295	C	-0.343345	0.346340	-0.331700
C296	C	-0.412068	0.381174	-0.365580
H297	H	-0.389641	0.225282	-0.358449
H298	H	-0.270045	0.164661	-0.299490
H299	H	-0.240643	0.241541	-0.282502
H300	H	-0.330839	0.379045	-0.324474
H301	H	-0.450435	0.439665	-0.383434
C302	C	-0.038374	-0.053604	-0.570979
C303	C	-0.093253	0.025409	-0.622814
C304	C	-0.094196	0.060234	-0.691535
C305	C	-0.040259	0.016046	-0.708421
C306	C	0.014625	-0.062972	-0.656584
C307	C	0.015567	-0.097797	-0.587864
H308	H	-0.133185	0.058124	-0.610316
H309	H	-0.134825	0.118728	-0.729907
H310	H	-0.040956	0.041826	-0.759292
H311	H	0.054556	-0.095686	-0.669083
H312	H	0.056196	-0.156291	-0.549492
H313	H	-0.696663	-0.440962	0.031460
C314	C	-0.038384	-0.053615	-0.375335
C315	C	0.015557	-0.046497	-0.365549
C316	C	0.014604	-0.011677	-0.331646
C317	C	-0.040290	0.016024	-0.307530
C318	C	-0.094235	0.008906	-0.317315
C319	C	-0.093282	-0.025913	-0.351218
H320	H	0.056197	-0.067004	-0.383402
H321	H	0.054539	-0.006409	-0.324402
H322	H	-0.040995	0.041799	-0.282433
H323	H	-0.134874	0.029413	-0.299462
H324	H	-0.133216	-0.031182	-0.358461
H325	H	-0.697037	0.011820	-0.421397
C326	C	-0.400412	-0.284111	-0.312422
C327	C	-0.337961	-0.292944	-0.318137
C328	C	-0.302943	-0.325337	-0.353235
C329	C	-0.330377	-0.348897	-0.382618
C330	C	-0.392832	-0.340066	-0.376903
C331	C	-0.427849	-0.307673	-0.341805
H332	H	-0.317649	-0.275502	-0.296386
H333	H	-0.256710	-0.331874	-0.357466
H334	H	-0.304455	-0.372877	-0.408599
H335	H	-0.413143	-0.357507	-0.398654
H336	H	-0.474082	-0.301135	-0.337574
C337	C	-0.022051	-0.159599	-0.178802
C338	C	0.031557	-0.150703	-0.173266
C339	C	0.034177	-0.118086	-0.138391
C340	C	-0.016812	-0.094364	-0.109052
C341	C	-0.070424	-0.103260	-0.114588
C342	C	-0.073043	-0.135877	-0.149463
H343	H	0.069305	-0.168263	-0.194986
H344	H	0.073864	-0.111501	-0.134294
H345	H	-0.014872	-0.070219	-0.083236
H346	H	-0.108172	-0.085699	-0.092868
H347	H	-0.112731	-0.142461	-0.153560
C348	C	-0.022035	0.126598	-0.464987
C349	C	0.035518	0.127135	-0.452363
C350	C	0.038139	0.159391	-0.417127
C351	C	-0.016793	0.191110	-0.394516
C352	C	-0.074350	0.190574	-0.407140
C353	C	-0.076971	0.158318	-0.442375
H354	H	0.076186	0.103654	-0.469101
H355	H	0.080747	0.159788	-0.407782
H356	H	-0.014853	0.214988	-0.368433
H357	H	-0.115018	0.214056	-0.390401
H358	H	-0.119579	0.157921	-0.451720
H359	H	-0.446821	-0.653998	0.038201
H360	H	-0.525799	0.165148	-0.187874
H361	H	-0.031396	-0.106204	-0.303280
H362	H	-0.031386	0.011466	-0.420946
C363	C	-0.022006	0.127014	-0.661099
C364	C	-0.072990	0.207395	-0.714049
C365	C	-0.070351	0.239863	-0.781536
C366	C	-0.016727	0.191949	-0.796073
C367	C	0.034260	0.111563	-0.743121
C368	C	0.031621	0.079096	-0.675634
H369	H	-0.112688	0.242868	-0.703290
H370	H	-0.108095	0.299370	-0.820735
H371	H	-0.014774	0.215983	-0.846031
H372	H	0.073959	0.076090	-0.753881
H373	H	0.069366	0.019589	-0.636435
C374	C	-0.022039	-0.159570	-0.661546
C375	C	-0.076969	-0.082024	-0.715880
C376	C	-0.074343	-0.049410	-0.783372
C377	C	-0.016789	-0.094342	-0.796530
C378	C	0.038144	-0.171893	-0.742195
C379	C	0.035519	-0.204507	-0.674703
H380	H	-0.119577	-0.048759	-0.706141
H381	H	-0.115009	0.007998	-0.823594
H382	H	-0.014846	-0.070199	-0.846492
H383	H	0.080753	-0.205158	-0.751934
H384	H	0.076185	-0.261915	-0.634480
H385	H	-0.812465	0.118579	-0.474963
C386	C	-0.022026	-0.355709	-0.465847
C387	C	0.035534	-0.426324	-0.453373
C388	C	0.038165	-0.496445	-0.418354
C389	C	-0.016764	-0.495951	-0.395809
C390	C	-0.074329	-0.425334	-0.408283
C391	C	-0.076960	-0.355213	-0.443302
H392	H	0.076200	-0.426691	-0.470062
H393	H	0.080778	-0.548720	-0.409120
H394	H	-0.014817	-0.547859	-0.369886
H395	H	-0.114995	-0.424967	-0.391594
H396	H	-0.119573	-0.302938	-0.452536
C397	C	-0.624589	0.532672	-0.570957
C398	C	-0.685638	0.603501	-0.587818
C399	C	-0.719514	0.671313	-0.656523
C400	C	-0.692342	0.668296	-0.708368
C401	C	-0.631290	0.597464	-0.691509
C402	C	-0.597413	0.529652	-0.622803
H403	H	-0.705755	0.605736	-0.549438
H404	H	-0.764709	0.723747	-0.669003
H405	H	-0.717419	0.718494	-0.759227
H406	H	-0.611172	0.595228	-0.729888
H407	H	-0.552218	0.477217	-0.610324
C408	C	-0.624591	0.336992	-0.375342
C409	C	-0.648723	0.309298	-0.402529
C410	C	-0.682601	0.274452	-0.368637
C411	C	-0.692348	0.267301	-0.307557
C412	C	-0.668216	0.294996	-0.280367
C413	C	-0.634337	0.329842	-0.314259
H414	H	-0.641508	0.314591	-0.447747
H415	H	-0.700465	0.253950	-0.388765
H416	H	-0.717426	0.241506	-0.282468
H417	H	-0.675430	0.289703	-0.235149
H418	H	-0.616473	0.350343	-0.294131
C419	C	-0.821573	0.639156	-0.661099
C420	C	-0.827279	0.707312	-0.675626
C421	C	-0.862380	0.777444	-0.743110
C422	C	-0.891774	0.779421	-0.796068
C423	C	-0.886069	0.711263	-0.781543
C424	C	-0.850968	0.641131	-0.714058
H425	H	-0.805518	0.705851	-0.636422
H426	H	-0.866603	0.827899	-0.753863
H427	H	-0.917758	0.831337	-0.846024
H428	H	-0.907830	0.712724	-0.820747
H429	H	-0.846745	0.590675	-0.703306
C430	C	-0.534945	0.639552	-0.661509
C431	C	-0.597438	0.707597	-0.675933
C432	C	-0.632671	0.777719	-0.743424
C433	C	-0.605412	0.779796	-0.796490
C434	C	-0.542917	0.711747	-0.782067
C435	C	-0.507683	0.641626	-0.714577
H436	H	-0.617620	0.706062	-0.636650
H437	H	-0.678935	0.828093	-0.754100
H438	H	-0.631494	0.831704	-0.846450
H439	H	-0.522735	0.713282	-0.821351
H440	H	-0.461419	0.591252	-0.703901
H441	H	-0.615797	-0.654004	0.038210
C442	C	-0.624614	-0.053606	-0.375375
C443	C	-0.634390	-0.097779	-0.314313
C444	C	-0.668291	-0.062941	-0.280434
C445	C	-0.692417	0.016071	-0.307617
C446	C	-0.682643	0.060249	-0.368682
C447	C	-0.648741	0.025411	-0.402561
H448	H	-0.616529	-0.156273	-0.294187
H449	H	-0.675527	-0.095645	-0.235229
H450	H	-0.717513	0.041860	-0.282538
H451	H	-0.700503	0.118743	-0.388808
H452	H	-0.641506	0.058115	-0.447766
C453	C	-0.338833	0.443843	-0.465804
C454	C	-0.285886	0.420293	-0.493238
C455	C	-0.218397	0.387898	-0.458213
C456	C	-0.203855	0.379054	-0.395754
C457	C	-0.256803	0.402604	-0.368317
C458	C	-0.324292	0.434999	-0.403342
H459	H	-0.296650	0.426840	-0.539476
H460	H	-0.179201	0.370465	-0.478524
H461	H	-0.153895	0.355073	-0.369827
H462	H	-0.246039	0.396058	-0.322079
H463	H	-0.363488	0.452433	-0.383031
C464	C	-0.338840	0.156357	-0.178364
C465	C	-0.285896	0.075980	-0.148986
C466	C	-0.218405	0.043503	-0.113883
C467	C	-0.203860	0.091402	-0.108156
C468	C	-0.256806	0.171784	-0.137535
C469	C	-0.324296	0.204261	-0.172639
H470	H	-0.296662	0.040518	-0.153224
H471	H	-0.179211	-0.016001	-0.092135
H472	H	-0.153899	0.067361	-0.082170
H473	H	-0.246040	0.207246	-0.133297
H474	H	-0.363490	0.263765	-0.194387
H475	H	-0.031353	0.011819	-0.590373
H476	H	-0.031381	-0.106192	-0.590450
H477	H	-0.615799	-0.485024	0.038200
H478	H	-0.578991	0.271911	-0.303287
H479	H	-0.578585	-0.106649	-0.302931
H480	H	-0.031379	-0.275635	-0.421380
H481	H	-0.525803	-0.378735	0.022786
C482	C	-0.338842	-0.843667	0.022093
C483	C	-0.324303	-0.795753	-0.031531
C484	C	-0.256816	-0.828218	-0.034166
C485	C	-0.203867	-0.908598	0.016823
C486	C	-0.218404	-0.956517	0.070451
C487	C	-0.285891	-0.924051	0.073086
H488	H	-0.363501	-0.736247	-0.069279
H489	H	-0.246055	-0.792745	-0.073865
H490	H	-0.153909	-0.932631	0.014872
H491	H	-0.179207	-1.016023	0.108199
H492	H	-0.296652	-0.959524	0.112785
H493	H	-0.578992	-0.440963	0.031461
H494	H	-0.031366	-0.275654	-0.302914
C495	C	-0.534115	-0.160460	-0.661123
C496	C	-0.556666	-0.082983	-0.715562
C497	C	-0.591688	-0.050597	-0.783050
C498	C	-0.604160	-0.095688	-0.796097
C499	C	-0.581609	-0.173170	-0.741656
C500	C	-0.546587	-0.205556	-0.674169
H501	H	-0.547433	-0.049600	-0.705905
H502	H	-0.608381	0.006760	-0.823351
H503	H	-0.630086	-0.071714	-0.846055
H504	H	-0.590842	-0.206553	-0.751313
H505	H	-0.529894	-0.262913	-0.633868
H506	H	-0.355944	-0.337920	-0.474163
H507	H	-0.525022	-0.168881	-0.187507
H508	H	-0.696664	0.389604	-0.420956
H509	H	-0.812078	0.451468	-0.474155
H510	H	-0.697029	0.559063	-0.590371
C511	C	-0.821147	0.126597	-0.661562
C512	C	-0.850475	0.206922	-0.714628
C513	C	-0.885356	0.239180	-0.782120
C514	C	-0.890909	0.191113	-0.796546
C515	C	-0.861580	0.110784	-0.743479
C516	C	-0.826699	0.078526	-0.675987
H517	H	-0.846365	0.242508	-0.703950
H518	H	-0.907067	0.298646	-0.821403
H519	H	-0.916730	0.214993	-0.846508
H520	H	-0.865690	0.075198	-0.754157
H521	H	-0.804988	0.019060	-0.636703
H522	H	-0.578988	0.559109	-0.590430
H523	H	-0.812075	-0.378744	0.022800
H524	H	-0.409562	0.390028	-0.421351
H525	H	-0.812456	-0.547794	0.022786
H526	H	-0.697030	-0.610024	0.031449
H527	H	-0.409566	0.271563	-0.302898
H528	H	-0.578993	-0.728129	0.031465
H529	H	-0.525801	-0.834882	0.022808
C530	C	-0.400422	-0.720090	0.032124
C531	C	-0.337924	-0.768155	0.085738
C532	C	-0.302696	-0.735892	0.088359
C533	C	-0.329965	-0.655563	0.037367
C534	C	-0.392466	-0.607492	-0.016251
C535	C	-0.427695	-0.639756	-0.018872
H536	H	-0.317735	-0.827624	0.123489
H537	H	-0.256428	-0.771477	0.128051
H538	H	-0.303887	-0.631679	0.039307
H539	H	-0.412656	-0.548024	-0.054002
H540	H	-0.473963	-0.604171	-0.058564
H541	H	-0.356381	-0.547775	0.022754
H542	H	-0.446824	-0.231634	-0.384172
H543	H	-0.355949	-0.337923	-0.187885
H544	H	-0.578576	-0.106639	-0.590401
C545	C	-0.687546	0.003027	-0.599563
C546	C	-0.681825	0.050933	-0.662011
C547	C	-0.646724	0.018463	-0.697029
C548	C	-0.617343	-0.061914	-0.669599
C549	C	-0.623063	-0.109825	-0.607148
C550	C	-0.658164	-0.077355	-0.572130
H551	H	-0.703575	0.110437	-0.682319
H552	H	-0.642490	0.053931	-0.743260
H553	H	-0.591359	-0.085950	-0.695522
H554	H	-0.601313	-0.169330	-0.586840
H555	H	-0.662398	-0.112823	-0.525899
H556	H	-0.409504	-0.275702	-0.420969
