data_functionalizedCrystal
_audit_creation_method	'MofGen! by Chris Wilmer'
_symmetry_space_group_name_H-M	'P1'
_symmetry_Int_Tables_number	1
_symmetry_cell_setting	triclinic
loop_
_symmetry_equiv_pos_as_xyz
  x,y,z
_cell_length_a	16.109302
_cell_length_b	16.053789
_cell_length_c	16.109301
_cell_angle_alpha	87.109773
_cell_angle_beta	96.538369
_cell_angle_gamma	92.890911
loop_
_atom_site_label
_atom_site_type_symbol
_atom_site_fract_x
_atom_site_fract_y
_atom_site_fract_z
O1	O	1.106259	0.069470	-0.109997
O2	O	0.864197	0.069464	-0.123296
O3	O	0.991877	0.069459	0.004385
O4	O	0.978579	0.069475	-0.237678
O5	O	0.985615	-0.069401	0.010640
O6	O	0.857934	-0.069396	-0.117041
O7	O	1.099996	-0.069390	-0.103743
Zn8	Zn	0.977971	-0.091440	-0.109399
Zn9	Zn	0.986223	0.091514	-0.117640
O10	O	0.972316	-0.069385	-0.231423
C11	C	0.830091	0.000033	-0.119629
C12	C	0.737795	0.000030	-0.118014
C13	C	0.522041	-0.075654	-0.110870
C14	C	0.435321	-0.075651	-0.109343
C15	C	0.442160	0.075741	-0.116167
C16	C	0.528879	0.075738	-0.117687
C17	C	0.568816	0.000037	-0.115043
C18	C	0.395377	0.000044	-0.111996
C19	C	0.301352	0.000047	-0.110340
C20	C	0.662848	0.000033	-0.116697
N21	N	0.972345	-0.216301	-0.103774
C22	C	1.020786	-0.259987	-0.152250
C23	C	1.016862	-0.347394	-0.148310
C24	C	0.964493	-0.391115	-0.095898
C25	C	0.916050	-0.347423	-0.047417
C26	C	0.919979	-0.260017	-0.051353
C27	C	0.947341	-0.652527	-0.078713
C28	C	0.943414	-0.739939	-0.074782
C29	C	1.044227	-0.739905	-0.175674
C30	C	1.048148	-0.652497	-0.179609
C31	C	0.999709	-0.608813	-0.131125
N32	N	0.960478	-0.480459	-0.091871
N33	N	1.003728	-0.519470	-0.135148
C34	C	1.134103	0.000043	-0.107409
C35	C	1.226398	0.000051	-0.109025
C36	C	0.988207	0.000028	0.038487
C37	C	0.986592	0.000027	0.130783
N38	N	0.991855	0.216375	-0.123258
C39	C	0.975986	0.000048	-0.265525
C40	C	0.977602	0.000054	-0.357821
C41	C	1.058600	0.000042	0.353054
C42	C	1.057077	0.000049	0.439774
C43	C	0.905588	0.000042	0.419901
C44	C	0.907113	0.000041	0.333182
C45	C	0.983621	0.000037	0.299761
C46	C	0.980573	0.000044	0.473200
C47	C	0.978920	0.000052	0.567226
C48	C	0.985274	0.000031	0.205730
H49	H	0.566965	0.137379	-0.121083
C50	C	1.120046	-0.268741	-0.251574
C51	C	1.078354	-0.211934	-0.209862
H52	H	1.155591	-0.239075	-0.287137
H53	H	1.080243	-0.302834	-0.284095
H54	H	1.152590	-0.302832	-0.211777
H55	H	1.045805	-0.177847	-0.249659
H56	H	1.118162	-0.177827	-0.177340
C57	C	0.919241	-0.161738	0.056048
C58	C	0.866730	-0.211995	0.001932
H59	H	0.886367	-0.132096	0.088949
H60	H	0.950985	-0.123196	0.024270
H61	H	0.955976	-0.195842	0.091637
H62	H	0.830000	-0.177889	-0.033662
H63	H	0.834972	-0.250541	0.033712
H64	H	1.056309	-0.382959	-0.187782
H65	H	1.118133	0.000055	0.483162
C66	C	0.651938	-0.142885	-0.110175
C67	C	0.565944	-0.158862	-0.107955
H68	H	0.679037	-0.194256	-0.108379
H69	H	0.673904	-0.111790	-0.063376
H70	H	0.661191	-0.111784	-0.160285
H71	H	0.556690	-0.189958	-0.057842
H72	H	0.543970	-0.189970	-0.154758
H73	H	0.843297	0.000043	0.447122
C74	C	0.757212	0.000025	0.322241
C75	C	0.824689	0.000032	0.274595
H76	H	0.706331	0.000017	0.286070
H77	H	0.761948	0.048446	0.354291
H78	H	0.757590	-0.048402	0.358665
H79	H	0.824315	0.048462	0.238175
H80	H	0.819951	-0.048394	0.242531
H81	H	0.409631	0.137374	-0.118320
H82	H	0.397240	-0.137287	-0.105945
H83	H	1.120899	0.000041	0.325846
H84	H	0.900764	-0.775534	-0.032102
H85	H	1.090795	-0.616906	-0.222286
H86	H	1.083664	-0.775482	-0.215147
C87	C	0.847290	-0.661353	0.021399
C88	C	0.894089	-0.604517	-0.025427
H89	H	0.814409	-0.631709	0.054291
H90	H	0.884028	-0.695439	0.056989
H91	H	0.811682	-0.695448	-0.015330
H92	H	0.929701	-0.570426	0.011302
H93	H	0.857347	-0.570417	-0.061020
H94	H	0.873414	-0.383027	-0.004738
