data_functionalizedCrystal
_audit_creation_method	'MofGen! by Chris Wilmer'
_symmetry_space_group_name_H-M	'P1'
_symmetry_Int_Tables_number	1
_symmetry_cell_setting	triclinic
loop_
_symmetry_equiv_pos_as_xyz
  x,y,z
_cell_length_a	14.908571
_cell_length_b	25.639239
_cell_length_c	14.908803
_cell_angle_alpha	86.718274
_cell_angle_beta	89.810884
_cell_angle_gamma	86.734636
loop_
_atom_site_label
_atom_site_type_symbol
_atom_site_fract_x
_atom_site_fract_y
_atom_site_fract_z
Zn1	Zn	1.345014	-0.272957	0.587534
Zn2	Zn	1.845014	0.227043	1.087534
Zn3	Zn	1.353584	-0.355625	0.437164
Zn4	Zn	1.853584	0.144375	0.937164
Zn5	Zn	1.203371	-0.262884	0.428535
Zn6	Zn	1.703371	0.237116	0.928535
Zn7	Zn	1.194580	-0.355031	0.578814
Zn8	Zn	1.694580	0.144969	1.078814
O9	O	1.274137	-0.311624	0.508012
O10	O	1.774137	0.188376	1.008012
O11	O	1.471973	-0.288387	0.574847
O12	O	1.971973	0.211613	1.074847
O13	O	1.340924	-0.339356	0.310197
O14	O	1.840924	0.160644	0.810197
O15	O	1.222253	-0.191059	0.449665
O16	O	1.722253	0.308941	0.949665
O17	O	1.478269	-0.349123	0.464371
O18	O	1.978269	0.150877	0.964371
O19	O	1.326318	-0.198460	0.566480
O20	O	1.826318	0.301540	1.066480
O21	O	1.230563	-0.271220	0.303858
O22	O	1.730563	0.228780	0.803858
O23	O	1.076383	-0.270644	0.441210
O24	O	1.576383	0.229356	0.941210
O25	O	1.207270	-0.348110	0.705793
O26	O	1.707270	0.151890	1.205793
O27	O	1.069924	-0.338343	0.551619
O28	O	1.569924	0.161657	1.051619
O29	O	1.317793	-0.287811	0.712199
O30	O	1.817793	0.212189	1.212199
O31	O	1.332399	-0.428707	0.455916
O32	O	1.832399	0.071293	0.955916
O33	O	1.215580	-0.428271	0.559985
O34	O	1.715580	0.071729	1.059985
C35	C	1.040529	-0.303336	0.494532
C36	C	1.540529	0.196664	0.994532
C37	C	0.940590	-0.299804	0.488787
C38	C	1.440590	0.200196	0.988787
C39	C	0.746124	-0.363761	0.592805
C40	C	1.246124	0.136239	1.092805
C41	C	0.652221	-0.360444	0.587410
C42	C	1.152221	0.139556	1.087410
C43	C	0.658880	-0.289850	0.472606
C44	C	1.158880	0.210150	0.972606
C45	C	0.752783	-0.293168	0.478001
C46	C	1.252783	0.206832	0.978001
C47	C	0.796401	-0.330125	0.538102
C48	C	1.296401	0.169875	1.038102
C49	C	0.890306	-0.333444	0.543492
C50	C	1.390306	0.166556	1.043492
C51	C	0.896962	-0.262848	0.428694
C52	C	1.396962	0.237152	0.928694
C53	C	0.803060	-0.259531	0.423298
C54	C	1.303060	0.240469	0.923298
C55	C	1.273989	-0.447460	0.507962
C56	C	1.773989	0.052540	1.007962
C57	C	1.274005	-0.505575	0.507975
C58	C	1.774005	-0.005575	1.007975
C59	C	1.335110	-0.866167	0.453929
C60	C	1.835110	-0.366167	0.953929
C61	C	1.335144	-0.920773	0.453943
C62	C	1.835144	-0.420773	0.953943
O63	O	1.386943	-0.949197	0.407937
O64	O	1.886943	-0.449197	0.907937
N65	N	1.274292	-0.947871	0.508080
N66	N	1.774292	-0.447871	1.008080
C67	C	1.213408	-0.920360	0.562214
C68	C	1.713408	-0.420360	1.062214
O69	O	1.161653	-0.948423	0.608263
O70	O	1.661653	-0.448423	1.108263
C71	C	1.213379	-0.865756	0.562204
C72	C	1.713379	-0.365756	1.062204
C73	C	1.274229	-0.838660	0.508057
C74	C	1.774229	-0.338660	1.008057
C75	C	1.395955	-0.839072	0.399787
C76	C	1.895955	-0.339072	0.899787
C77	C	1.395920	-0.784469	0.399772
C78	C	1.895920	-0.284469	0.899772
C79	C	1.335039	-0.756963	0.453899
C80	C	1.835039	-0.256963	0.953899
C81	C	1.274193	-0.784058	0.508041
C82	C	1.774193	-0.284058	1.008041
C83	C	1.152500	-0.838246	0.616341
C84	C	1.652500	-0.338246	1.116341
C85	C	1.152477	-0.783638	0.616327
C86	C	1.652477	-0.283638	1.116327
C87	C	1.213326	-0.756543	0.562180
C88	C	1.713326	-0.256543	1.062180
C89	C	1.213277	-0.701949	0.562153
C90	C	1.713277	-0.201949	1.062153
N91	N	1.274129	-0.674851	0.508016
N92	N	1.774129	-0.174851	1.008016
C93	C	1.335010	-0.702358	0.453889
C94	C	1.835010	-0.202358	0.953889
C95	C	1.213475	-1.035034	0.562231
C96	C	1.713475	-0.535034	1.062231
C97	C	1.213499	-1.089637	0.562237
C98	C	1.713499	-0.589637	1.062237
C99	C	1.335236	-1.090046	0.453968
C100	C	1.835236	-0.590046	0.953968
C101	C	1.335207	-1.035441	0.453958
C102	C	1.835207	-0.535441	0.953958
C103	C	1.274327	-1.007936	0.508094
C104	C	1.774327	-0.507936	1.008094
C105	C	1.334930	-0.587689	0.453861
C106	C	1.834930	-0.087689	0.953861
C107	C	1.334887	-0.533082	0.453848
C108	C	1.834887	-0.033082	0.953848
C109	C	1.213153	-0.532678	0.562121
C110	C	1.713153	-0.032678	1.062121
C111	C	1.213193	-0.587280	0.562131
C112	C	1.713193	-0.087280	1.062131
C113	C	1.274089	-0.614785	0.507998
C114	C	1.774089	-0.114785	1.007998
O115	O	1.161507	-0.673490	0.608139
O116	O	1.661507	-0.173490	1.108139
O117	O	1.386764	-0.674289	0.407856
O118	O	1.886764	-0.174289	0.907856
C119	C	1.508658	-0.319945	0.521545
C120	C	2.008658	0.180055	1.021545
C121	C	1.608596	-0.323490	0.527312
C122	C	2.108596	0.176510	1.027312
C123	C	1.260595	-0.319018	0.742533
C124	C	1.760595	0.180982	1.242533
C125	C	1.254824	-0.322168	0.842472
C126	C	1.754824	0.177832	1.342472
C127	C	1.274310	-0.175259	0.508083
C128	C	1.774310	0.324741	1.008083
C129	C	1.274384	-0.117149	0.508113
C130	C	1.774384	0.382851	1.008113
C131	C	1.359066	-0.265287	1.036940
C132	C	1.859066	0.234713	1.536940
C133	C	1.353646	-0.268245	1.130842
C134	C	1.853646	0.231755	1.630842
C135	C	1.238562	-0.331041	1.124178
C136	C	1.738562	0.168959	1.624178
C137	C	1.243981	-0.328083	1.030276
C138	C	1.743981	0.171917	1.530276
C139	C	1.304236	-0.295205	0.986661
C140	C	1.804236	0.204795	1.486661
C141	C	1.309660	-0.292249	0.892758
C142	C	1.809660	0.207751	1.392758
C143	C	1.194571	-0.355042	0.886095
C144	C	1.694571	0.144958	1.386095
C145	C	1.189152	-0.358001	0.979997
C146	C	1.689152	0.141999	1.479997
C147	C	1.287622	-0.304271	1.274403
C148	C	1.787622	0.195729	1.774403
C149	C	1.293397	-0.301122	1.174464
C150	C	1.793397	0.198878	1.674464
H151	H	0.767533	-0.229441	0.374369
H152	H	1.267533	0.270559	0.874369
H153	H	1.149927	-0.379405	0.845148
H154	H	1.649927	0.120595	1.345148
H155	H	1.384757	-1.013384	0.409867
H156	H	1.884757	-0.513384	0.909867
N157	N	0.951190	-0.226569	0.369681
N158	N	1.451190	0.273431	0.869681
H159	H	1.017296	-0.234278	0.382214
H160	H	1.517296	0.265722	0.882214
H161	H	0.934001	-0.189105	0.382844
H162	H	1.434001	0.310895	0.882844
N163	N	1.124158	-0.393449	1.027056
N164	N	1.624158	0.106551	1.527056
H165	H	1.158415	-0.420199	1.068119
H166	H	1.658415	0.079801	1.568119
H167	H	1.090253	-0.411919	0.980906
H168	H	1.590253	0.088081	1.480906
N169	N	0.937356	-0.373305	0.608306
N170	N	1.437356	0.126695	1.108306
H171	H	0.891253	-0.394109	0.642143
H172	H	1.391253	0.105891	1.142143
H173	H	0.973940	-0.354750	0.652220
H174	H	1.473940	0.145250	1.152220
N175	N	0.793172	-0.403624	0.657617
N176	N	1.293172	0.096376	1.157617
H177	H	0.829755	-0.385109	0.701591
H178	H	1.329755	0.114891	1.201591
H179	H	0.834166	-0.428029	0.623165
H180	H	1.334166	0.071971	1.123165
N181	N	0.597992	-0.396724	0.646408
N182	N	1.097992	0.103276	1.146408
H183	H	0.639876	-0.420638	0.685297
H184	H	1.139876	0.079362	1.185297
H185	H	0.561121	-0.418354	0.607492
H186	H	1.061121	0.081646	1.107492
H187	H	0.623349	-0.259759	0.423681
H188	H	1.123349	0.240241	0.923681
H189	H	1.384438	-0.511023	0.409752
H190	H	1.884438	-0.011023	0.909752
N191	N	1.400609	-0.617350	0.395478
N192	N	1.900609	-0.117350	0.895478
H193	H	1.439143	-0.591893	0.361180
H194	H	1.939143	-0.091893	0.861180
H195	H	1.366464	-0.637429	0.351732
H196	H	1.866464	-0.137429	0.851732
H197	H	1.445471	-0.762412	0.355684
H198	H	1.945471	-0.262412	0.855684
H199	H	1.445537	-0.861462	0.355710
H200	H	1.945537	-0.361462	0.855710
N201	N	1.400903	-1.119719	0.395585
N202	N	1.900903	-0.619719	0.895585
H203	H	1.391685	-1.158422	0.403814
H204	H	1.891685	-0.658422	0.903814
H205	H	1.464291	-1.112854	0.413335
H206	H	1.964291	-0.612854	0.913335
N207	N	1.147854	-1.118857	0.620622
N208	N	1.647854	-0.618857	1.120622
H209	H	1.109283	-1.093141	0.654904
H210	H	1.609283	-0.593141	1.154904
H211	H	1.182022	-1.144091	0.664383
H212	H	1.682022	-0.644091	1.164383
H213	H	1.163892	-1.012641	0.606313
H214	H	1.663892	-0.512641	1.106313
H215	H	1.102901	-0.761246	0.660415
H216	H	1.602901	-0.261246	1.160415
H217	H	1.102945	-0.860298	0.660430
H218	H	1.602945	-0.360298	1.160430
N219	N	1.147555	-0.616508	0.620520
N220	N	1.647555	-0.116508	1.120520
H221	H	1.108980	-0.590794	0.654803
H222	H	1.608980	-0.090794	1.154803
H223	H	1.181733	-0.641737	0.664279
H224	H	1.681733	-0.141737	1.164279
H225	H	1.163582	-0.510273	0.606188
H226	H	1.663582	-0.010273	1.106188
N227	N	1.173541	-0.366477	1.171226
N228	N	1.673541	0.133523	1.671226
H229	H	1.178418	-0.363802	1.238340
H230	H	1.678418	0.136198	1.738340
H231	H	1.188406	-0.403802	1.155625
H232	H	1.688406	0.096198	1.655625
H233	H	1.408132	-0.238519	1.001428
H234	H	1.908132	0.261481	1.501428
N235	N	1.374649	-0.256793	0.845711
N236	N	1.874649	0.243207	1.345711
H237	H	1.408558	-0.238288	0.891815
H238	H	1.908558	0.261712	1.391815
H239	H	1.340326	-0.230074	0.804650
H240	H	1.840326	0.269926	1.304650
N241	N	1.412775	-0.235972	1.185073
N242	N	1.912775	0.264028	1.685073
H243	H	1.451763	-0.214695	1.143190
H244	H	1.951763	0.285305	1.643190
H245	H	1.452114	-0.259952	1.226427
H246	H	1.952114	0.240048	1.726427
