data_functionalizedCrystal
_audit_creation_method	'MofGen! by Chris Wilmer'
_symmetry_space_group_name_H-M	'P1'
_symmetry_Int_Tables_number	1
_symmetry_cell_setting	triclinic
loop_
_symmetry_equiv_pos_as_xyz
  x,y,z
_cell_length_a	10.723023
_cell_length_b	10.723023
_cell_length_c	9.798715
_cell_angle_alpha	90.002054
_cell_angle_beta	90.002993
_cell_angle_gamma	84.467548
loop_
_atom_site_label
_atom_site_type_symbol
_atom_site_fract_x
_atom_site_fract_y
_atom_site_fract_z
O1	O	1.657187	0.175020	0.113473
O2	O	2.157187	0.675020	0.613473
O3	O	1.294034	0.191775	0.113478
O4	O	1.794034	0.691775	0.613478
O5	O	1.483988	0.001821	0.113471
O6	O	1.983988	0.501821	0.613471
O7	O	1.467233	0.364974	0.113480
O8	O	1.967233	0.864974	0.613480
O9	O	1.483975	0.001820	-0.113511
O10	O	1.983975	0.501820	0.386489
O11	O	1.294021	0.191773	-0.113504
O12	O	1.794021	0.691773	0.386496
O13	O	1.657174	0.175019	-0.113509
O14	O	2.157174	0.675019	0.386491
Zn15	Zn	1.475595	0.183396	-0.149545
Zn16	Zn	1.975595	0.683396	0.350455
Zn17	Zn	1.475613	0.183398	0.149514
Zn18	Zn	1.975613	0.683398	0.649514
O19	O	1.467220	0.364972	-0.113502
O20	O	1.967220	0.864972	0.386498
C21	C	1.247528	0.190555	-0.000012
C22	C	1.747528	0.690555	0.499988
C23	C	1.108974	0.186908	-0.000010
C24	C	1.608974	0.686908	0.499990
C25	C	0.904013	0.181513	0.117573
C26	C	1.404013	0.681513	0.617573
C27	C	1.047216	0.185282	0.117574
C28	C	1.547216	0.685282	0.617574
C29	C	1.482762	-0.044679	-0.000018
C30	C	1.982762	0.455321	0.499982
C31	C	1.479115	-0.183233	-0.000013
C32	C	1.979115	0.316767	0.499987
C33	C	1.477482	-0.245012	-0.117594
C34	C	1.977482	0.254988	0.382406
C35	C	1.473712	-0.388215	-0.117592
C36	C	1.973712	0.111785	0.382408
C37	C	1.703680	0.176239	-0.000016
C38	C	2.203680	0.676239	0.499984
C39	C	1.842234	0.179886	-0.000009
C40	C	2.342234	0.679886	0.499991
C41	C	1.468446	0.411473	-0.000010
C42	C	1.968446	0.911473	0.499990
C43	C	1.472093	0.550027	-0.000006
C44	C	1.972093	1.050027	0.499994
N45	N	1.475592	0.183394	-0.353645
N46	N	1.975592	0.683394	0.146355
C47	C	1.555546	0.103465	-0.578580
C48	C	2.055546	0.603465	-0.078580
C49	C	1.555529	0.103466	-0.421417
C50	C	2.055529	0.603466	0.078583
N51	N	1.475625	0.183390	0.353613
N52	N	1.975625	0.683390	0.853613
H53	H	1.100344	0.186689	0.218241
H54	H	1.600344	0.686689	0.718241
H55	H	1.055853	0.185516	-0.100682
H56	H	1.555853	0.685516	0.399318
O57	O	1.479338	-0.174655	-0.250949
O58	O	1.979338	0.325345	0.249051
H59	H	1.393779	-0.189184	-0.310323
H60	H	1.893779	0.310816	0.189677
H61	H	1.407161	0.251820	-0.411947
H62	H	1.907161	0.751820	0.088053
O63	O	1.384956	0.274016	-0.569166
O64	O	1.884956	0.774016	-0.069166
H65	H	1.438060	0.335070	-0.504036
H66	H	1.938060	0.835070	-0.004036
H67	H	1.623988	0.035040	-0.636876
H68	H	2.123988	0.535040	-0.136876
O69	O	0.912583	0.181753	-0.133367
O70	O	1.412583	0.681753	0.366633
H71	H	0.982305	0.098417	-0.139216
H72	H	1.482305	0.598417	0.360784
O73	O	1.471870	-0.458575	-0.250947
O74	O	1.971870	0.041425	0.249053
H75	H	1.469215	-0.560012	-0.230018
H76	H	1.969215	-0.060012	0.269982
H77	H	1.623948	0.035034	-0.363106
H78	H	2.123948	0.535034	0.136894
O79	O	1.473945	-0.379624	0.133356
O80	O	1.973945	0.120376	0.633356
H81	H	1.560416	-0.330705	0.139200
H82	H	2.060416	0.169295	0.639200
O83	O	0.833660	0.179666	0.250930
O84	O	1.333660	0.679666	0.750930
H85	H	0.732221	0.177005	0.230002
H86	H	1.232221	0.677005	0.730002
H87	H	1.477728	-0.236361	0.100654
H88	H	1.977728	0.263639	0.600654
