data_functionalizedCrystal
_audit_creation_method	'MofGen! by Chris Wilmer'
_symmetry_space_group_name_H-M	'P1'
_symmetry_Int_Tables_number	1
_symmetry_cell_setting	triclinic
loop_
_symmetry_equiv_pos_as_xyz
  x,y,z
_cell_length_a	6.817900
_cell_length_b	17.982723
_cell_length_c	16.255661
_cell_angle_alpha	95.653374
_cell_angle_beta	103.488922
_cell_angle_gamma	102.447564
loop_
_atom_site_label
_atom_site_type_symbol
_atom_site_fract_x
_atom_site_fract_y
_atom_site_fract_z
V1	V	-4.021530	-0.106029	-0.264233
O2	O	-4.014408	0.004462	-0.258833
O3	O	-3.968018	-0.209629	-0.262782
O4	O	-3.973158	-0.104676	-0.379312
O5	O	-4.009233	-0.101218	-0.141496
V6	V	-4.505816	-0.092781	-0.249509
O7	O	-4.281113	-0.135092	-0.296530
O8	O	-4.696430	-0.063718	-0.217212
O9	O	-4.336122	0.010819	-0.250960
O10	O	-4.630334	-0.203272	-0.254910
O11	O	-4.635510	-0.097592	-0.372246
O12	O	-4.330982	-0.094134	-0.134431
C13	C	-3.811774	-0.234876	-0.258705
C14	C	-3.849309	-0.319572	-0.258286
C15	C	-4.261697	-0.843341	-0.259900
C16	C	-4.226419	-0.763761	-0.260298
C17	C	-4.026856	-0.720084	-0.256261
C18	C	-3.862557	-0.755990	-0.251818
C19	C	-3.897833	-0.835568	-0.251414
C20	C	-3.720287	-0.435059	-0.253445
C21	C	-3.685024	-0.355476	-0.253852
C22	C	-4.048873	-0.363252	-0.262329
C23	C	-4.084150	-0.442830	-0.261925
C24	C	-3.919846	-0.478728	-0.257477
C25	C	-3.958100	-0.565019	-0.257044
C26	C	-3.988604	-0.633796	-0.256700
C27	C	-3.818330	-0.100997	-0.407350
C28	C	-3.860030	-0.100576	-0.501429
C29	C	-3.770832	-0.095550	-0.724231
C30	C	-3.924078	-0.160421	-0.793928
C31	C	-3.936453	-0.099787	-0.673675
C32	C	-3.857534	-0.034174	-0.771613
C33	C	-4.010259	-0.099022	-0.840056
C34	C	-4.089178	-0.164716	-0.742143
C35	C	-4.022575	-0.038412	-0.719812
C36	C	-4.175956	-0.103301	-0.789490
C37	C	-3.893931	-0.100229	-0.577828
C38	C	-4.052798	-0.098586	-0.935903
C39	C	-4.155707	0.036062	-0.255035
C40	C	-4.097410	0.120757	-0.255460
C41	C	-4.149152	-0.097815	-0.106388
C42	C	-4.086690	-0.098232	-0.012308
H43	H	-3.586491	-0.464276	-0.249813
H44	H	-3.759995	0.020981	-0.785034
H45	H	-3.882884	-0.212004	-0.826190
C46	C	-4.220919	-0.239331	-0.724214
C47	C	-4.205445	-0.253546	-0.631294
C48	C	-4.337176	-0.328160	-0.613363
C49	C	-4.484380	-0.388558	-0.688352
C50	C	-4.499860	-0.374345	-0.781279
C51	C	-4.368129	-0.299731	-0.799210
H52	H	-4.096471	-0.208834	-0.575777
H53	H	-4.325716	-0.338681	-0.544572
H54	H	-4.581895	-0.443792	-0.675079
H55	H	-4.608834	-0.419057	-0.836796
H56	H	-4.379589	-0.289210	-0.868000
C57	C	-4.078113	0.031274	-0.676185
C58	C	-3.965558	0.113758	-0.682194
C59	C	-4.021069	0.183452	-0.638562
C60	C	-4.189136	0.170662	-0.588921
C61	C	-4.301701	0.088174	-0.582909
C62	C	-4.246190	0.018481	-0.626541
H63	H	-3.841136	0.123229	-0.718944
H64	H	-3.937740	0.244515	-0.643013
H65	H	-4.230229	0.222253	-0.556622
H66	H	-4.426123	0.078703	-0.546160
H67	H	-4.329519	-0.042582	-0.622091
H68	H	-3.599234	-0.092357	-0.695740
H69	H	-4.360203	-0.734534	-0.263917
H70	H	-4.347668	-0.106596	-0.817848
H71	H	-4.246653	-0.478389	-0.265216
H72	H	-4.424202	-0.878899	-0.263192
H73	H	-4.182652	-0.334013	-0.265946
H74	H	-3.522510	-0.319915	-0.250565
H75	H	-3.700064	-0.720421	-0.248526
H76	H	-3.764055	-0.864798	-0.247805
