data_functionalizedCrystal
_audit_creation_method	'MofGen! by Chris Wilmer'
_symmetry_space_group_name_H-M	'P1'
_symmetry_Int_Tables_number	1
_symmetry_cell_setting	triclinic
loop_
_symmetry_equiv_pos_as_xyz
  x,y,z
_cell_length_a	16.109301
_cell_length_b	19.288840
_cell_length_c	18.366186
_cell_angle_alpha	90.016305
_cell_angle_beta	90.006550
_cell_angle_gamma	83.293748
loop_
_atom_site_label
_atom_site_type_symbol
_atom_site_fract_x
_atom_site_fract_y
_atom_site_fract_z
O1	O	0.103615	0.921611	0.060674
O2	O	0.436949	1.254945	0.394007
O3	O	0.770282	1.588278	0.727340
O4	O	0.117628	0.719382	0.060649
O5	O	0.450961	1.052715	0.393982
O6	O	0.784295	1.386048	0.727315
O7	O	-0.010429	0.826052	0.060654
O8	O	0.322904	1.159385	0.393988
O9	O	0.656238	1.492719	0.727321
O10	O	0.231672	0.814941	0.060668
O11	O	0.565006	1.148274	0.394001
O12	O	0.898339	1.481608	0.727335
O13	O	-0.010432	0.826034	-0.060445
O14	O	0.322901	1.159367	0.272888
O15	O	0.656234	1.492700	0.606222
O16	O	0.117625	0.719363	-0.060451
O17	O	0.450958	1.052697	0.272883
O18	O	0.784291	1.386030	0.606216
O19	O	0.103612	0.921593	-0.060426
O20	O	0.436945	1.254926	0.272908
O21	O	0.770278	1.588260	0.606241
Zn22	Zn	0.110618	0.820475	-0.079665
Zn23	Zn	0.443951	1.153808	0.253668
Zn24	Zn	0.777284	1.487142	0.587001
Zn25	Zn	0.110622	0.820500	0.079888
Zn26	Zn	0.443956	1.153833	0.413222
Zn27	Zn	0.777289	1.487166	0.746555
O28	O	0.231669	0.814923	-0.060432
O29	O	0.565002	1.148256	0.272902
O30	O	0.898335	1.481589	0.606235
C31	C	0.117179	0.693495	0.000096
C32	C	0.450512	1.026828	0.333429
C33	C	0.783846	1.360161	0.666762
C34	C	0.115836	0.616387	0.000086
C35	C	0.449169	0.949720	0.333419
C36	C	0.782503	1.283054	0.666753
C37	C	0.115193	0.580192	0.066099
C38	C	0.448526	0.913525	0.399432
C39	C	0.781859	1.246859	0.732766
C40	C	0.113921	0.507742	0.066108
C41	C	0.447255	0.841075	0.399441
C42	C	0.780588	1.174409	0.732775
C43	C	0.113277	0.471492	0.000100
C44	C	0.446610	0.804825	0.333433
C45	C	0.779943	1.138158	0.666767
C46	C	0.113925	0.507695	-0.065922
C47	C	0.447258	0.841028	0.267411
C48	C	0.780592	1.174362	0.600745
C49	C	0.115204	0.580143	-0.065929
C50	C	0.448538	0.913476	0.267404
C51	C	0.781871	1.246809	0.600738
C52	C	0.062550	0.362035	-0.050464
C53	C	0.395884	0.695369	0.282869
C54	C	0.729217	1.028702	0.616202
C55	C	0.061266	0.289589	-0.050455
C56	C	0.394599	0.622923	0.282879
C57	C	0.727932	0.956256	0.616212
C58	C	0.109334	0.248039	0.000119
C59	C	0.442667	0.581372	0.333452
C60	C	0.776000	0.914705	0.666785
C61	C	0.158676	0.278944	0.050694
C62	C	0.492009	0.612277	0.384028
C63	C	0.825343	0.945610	0.717361
C64	C	0.159956	0.351391	0.050687
C65	C	0.493289	0.684725	0.384021
C66	C	0.826622	1.018058	0.717354
C67	C	0.111890	0.392934	0.000100
C68	C	0.445223	0.726268	0.333433
C69	C	0.778556	1.059601	0.666767
C70	C	0.107313	0.133285	0.066146
C71	C	0.440647	0.466618	0.399479
C72	C	0.773980	0.799952	0.732813
C73	C	0.106047	0.060833	0.066152
C74	C	0.439381	0.394167	0.399485
C75	C	0.772714	0.727500	0.732819
C76	C	0.106042	0.060788	-0.065880
C77	C	0.439376	0.394122	0.267454
C78	C	0.772709	0.727455	0.600787
C79	C	0.107317	0.133238	-0.065884
C80	C	0.440650	0.466571	0.267449
C81	C	0.773983	0.799905	0.600783
C82	C	0.107948	0.169482	0.000131
C83	C	0.441282	0.502816	0.333464
C84	C	0.774615	0.836149	0.666798
C85	C	-0.041404	0.825593	0.000104
C86	C	0.291929	1.158926	0.333438
C87	C	0.625263	1.492259	0.666771
C88	C	-0.133694	0.824243	0.000103
C89	C	0.199639	1.157577	0.333436
C90	C	0.532972	1.490910	0.666770
C91	C	-0.356179	0.884402	0.000122
C92	C	-0.022846	1.217735	0.333455
C93	C	0.310488	1.551069	0.666789
C94	C	-0.442895	0.883129	0.000128
C95	C	-0.109562	1.216462	0.333461
C96	C	0.223772	1.549795	0.666795
C97	C	-0.422574	0.756568	0.000109
C98	C	-0.089241	1.089901	0.333443
C99	C	0.244093	1.423235	0.666776
C100	C	-0.335860	0.757842	0.000109
C101	C	-0.002527	1.091175	0.333442
C102	C	0.330807	1.424509	0.666775
C103	C	-0.302665	0.821761	0.000111
C104	C	0.030668	1.155094	0.333445
C105	C	0.364002	1.488428	0.666778
C106	C	-0.476095	0.819214	0.000118
C107	C	-0.142762	1.152547	0.333451
C108	C	0.190572	1.485880	0.666785
C109	C	-0.570116	0.817833	0.000124
C110	C	-0.236783	1.151166	0.333457
C111	C	0.096550	1.484499	0.666791
C112	C	-0.208638	0.823142	0.000106
C113	C	0.124695	1.156476	0.333440
C114	C	0.458029	1.489809	0.666773
C115	C	0.262644	0.815382	0.000120
C116	C	0.595977	1.148715	0.333453
C117	C	0.929310	1.482049	0.666787
C118	C	0.354934	0.816731	0.000126
C119	C	0.688268	1.150065	0.333459
C120	C	1.021601	1.483398	0.666793
C121	C	0.104061	0.947480	0.000129
C122	C	0.437394	1.280813	0.333462
C123	C	0.770728	1.614147	0.666795
C124	C	0.105404	1.024588	0.000143
C125	C	0.438737	1.357921	0.333477
C126	C	0.772071	1.691254	0.666810
N127	N	0.110614	0.820464	-0.188557
N128	N	0.443947	1.153797	0.144777
N129	N	0.777281	1.487130	0.478110
C130	C	0.160911	0.862572	-0.226642
C131	C	0.494244	1.195905	0.106691
C132	C	0.827577	1.529238	0.440024
C133	C	0.160908	0.862583	-0.302870
C134	C	0.494242	1.195916	0.030463
C135	C	0.827575	1.529250	0.363796
C136	C	0.110619	0.820473	-0.341009
C137	C	0.443952	1.153807	-0.007676
C138	C	0.777286	1.487140	0.325657
C139	C	0.060312	0.778363	-0.302914
C140	C	0.393645	1.111696	0.030419
C141	C	0.726979	1.445029	0.363752
C142	C	0.060309	0.778358	-0.226688
C143	C	0.393643	1.111691	0.106645
C144	C	0.726976	1.445024	0.439979
C145	C	0.108523	0.757856	-0.461798
C146	C	0.441856	1.091189	-0.128465
C147	C	0.775190	1.424523	0.204868
C148	C	0.108531	0.757859	-0.538023
C149	C	0.441865	1.091193	-0.204690
C150	C	0.775198	1.424526	0.128643
C151	C	0.110622	0.820489	-0.576117
C152	C	0.443955	1.153822	-0.242783
C153	C	0.777288	1.487156	0.090550
C154	C	0.112721	0.883116	-0.537976
C155	C	0.446055	1.216450	-0.204643
C156	C	0.779388	1.549783	0.128691
C157	C	0.112719	0.883112	-0.461750
C158	C	0.446052	1.216445	-0.128416
C159	C	0.779385	1.549778	0.204917
C160	C	0.110616	0.820474	-0.423664
C161	C	0.443949	1.153808	-0.090331
C162	C	0.777282	1.487141	0.243003
C163	C	0.160919	0.862613	-0.696858
C164	C	0.494252	1.195946	-0.363524
C165	C	0.827585	1.529280	-0.030191
C166	C	0.160910	0.862626	-0.773087
C167	C	0.494244	1.195959	-0.439753
C168	C	0.827577	1.529293	-0.106420
C169	C	0.060319	0.778399	-0.773129
C170	C	0.393652	1.111732	-0.439796
C171	C	0.726985	1.445065	-0.106463
C172	C	0.060322	0.778392	-0.696902
C173	C	0.393656	1.111726	-0.363568
C174	C	0.726989	1.445059	-0.030235
C175	C	0.110627	0.820498	-0.658770
C176	C	0.443960	1.153832	-0.325437
C177	C	0.777293	1.487165	0.007896
N178	N	0.110619	0.820517	0.188779
N179	N	0.443953	1.153850	0.522113
N180	N	0.777286	1.487183	0.855446
H181	H	0.200134	0.376551	0.091866
H182	H	0.533467	0.709884	0.425199
H183	H	0.866800	1.043217	0.758533
C184	C	-0.459088	0.686261	0.000104
C185	C	-0.125755	1.019595	0.333437
C186	C	0.207579	1.352928	0.666771
H187	H	-0.414795	0.649137	0.000106
H188	H	-0.081462	0.982470	0.333439
H189	H	0.251872	1.315804	0.666772
H190	H	-0.492499	0.683125	-0.042125
H191	H	-0.159166	1.016458	0.291208
H192	H	0.174167	1.349792	0.624542
H193	H	-0.492485	0.683142	0.042341
H194	H	-0.159152	1.016475	0.375674
H195	H	0.174181	1.349809	0.709007
C196	C	0.105608	0.020892	-0.138487
C197	C	0.438942	0.354225	0.194846
C198	C	0.772275	0.687559	0.528180
H199	H	0.104833	-0.027449	-0.129029
H200	H	0.438167	0.305885	0.204304
H201	H	0.771500	0.639218	0.537637
H202	H	0.154373	0.027517	-0.165456
H203	H	0.487707	0.360850	0.167877
H204	H	0.821040	0.694184	0.501210
H205	H	0.057419	0.037977	-0.165767
H206	H	0.390753	0.371310	0.167567
H207	H	0.724086	0.704644	0.500900
C208	C	0.105335	0.021019	0.138770
C209	C	0.438669	0.354352	0.472104
C210	C	0.772002	0.687686	0.805437
H211	H	0.105886	0.052985	0.178082
H212	H	0.439219	0.386318	0.511415
H213	H	0.772552	0.719651	0.844749
H214	H	0.153308	-0.012558	0.141528
H215	H	0.486642	0.320776	0.474861
H216	H	0.819975	0.654109	0.808194
H217	H	0.056357	-0.001925	0.141507
H218	H	0.389690	0.331408	0.474840
H219	H	0.723023	0.664742	0.808173
C220	C	0.211557	0.233247	0.106326
C221	C	0.544891	0.566581	0.439659
C222	C	0.878224	0.899914	0.772992
H223	H	0.203739	0.185673	0.099083
H224	H	0.537072	0.519006	0.432416
H225	H	0.870405	0.852340	0.765749
H226	H	0.194648	0.247012	0.154247
H227	H	0.527982	0.580345	0.487581
H228	H	0.861315	0.913679	0.820914
H229	H	0.268914	0.238856	0.099956
H230	H	0.602247	0.572189	0.433289
H231	H	0.935581	0.905522	0.766622
H232	H	-0.292286	0.706829	0.000102
H233	H	0.041047	1.040162	0.333436
H234	H	0.374381	1.373496	0.666769
H235	H	0.115729	0.609612	-0.119686
H236	H	0.449062	0.942945	0.213647
H237	H	0.782396	1.276279	0.546980
C238	C	0.108023	0.173155	0.138757
C239	C	0.441357	0.506488	0.472091
C240	C	0.774690	0.839822	0.805424
H241	H	0.107472	0.141218	0.178075
H242	H	0.440806	0.474551	0.511409
H243	H	0.774139	0.807884	0.844742
H244	H	0.060050	0.206733	0.141501
H245	H	0.393383	0.540067	0.474835
H246	H	0.726717	0.873400	0.808168
H247	H	0.157002	0.196101	0.141496
H248	H	0.490335	0.529434	0.474830
H249	H	0.823669	0.862768	0.808163
H250	H	0.115707	0.609698	0.119854
H251	H	0.449040	0.943031	0.453187
H252	H	0.782374	1.276364	0.786520
H253	H	0.113399	0.478266	0.119865
H254	H	0.446732	0.811600	0.453199
H255	H	0.780066	1.144933	0.786532
C256	C	0.108014	0.173056	-0.138499
C257	C	0.441347	0.506389	0.194834
C258	C	0.774680	0.839722	0.528167
H259	H	0.107441	0.141093	-0.177811
H260	H	0.440775	0.474426	0.155522
H261	H	0.774108	0.807759	0.488855
H262	H	0.156984	0.196002	-0.141245
H263	H	0.490318	0.529336	0.192088
H264	H	0.823651	0.862669	0.525422
H265	H	0.060032	0.206631	-0.141247
H266	H	0.393366	0.539964	0.192086
H267	H	0.726699	0.873298	0.525420
C268	C	0.115016	0.951996	-0.419797
C269	C	0.448349	1.285330	-0.086464
C270	C	0.781682	1.618663	0.246869
H271	H	0.116255	0.989301	-0.453396
H272	H	0.449588	1.322634	-0.120063
H273	H	0.782921	1.655967	0.213270
H274	H	0.163558	0.948763	-0.390053
H275	H	0.496892	1.282096	-0.056720
H276	H	0.830225	1.615430	0.276614
H277	H	0.066633	0.960429	-0.390068
H278	H	0.399966	1.293763	-0.056735
H279	H	0.733300	1.627096	0.276599
H280	H	-0.486463	0.934137	0.000138
H281	H	-0.153130	1.267471	0.333471
H282	H	0.180203	1.600804	0.666805
H283	H	0.201869	0.896861	-0.195601
H284	H	0.535203	1.230194	0.137733
H285	H	0.868536	1.563527	0.471066
H286	H	0.201879	0.896899	-0.665809
H287	H	0.535212	1.230232	-0.332476
H288	H	0.868546	1.563565	0.000857
C289	C	0.216238	0.908900	-0.344777
C290	C	0.549571	1.242234	-0.011444
C291	C	0.882905	1.575567	0.321890
H292	H	0.209030	0.902875	-0.395636
H293	H	0.542363	1.236208	-0.062302
H294	H	0.875697	1.569541	0.271031
H295	H	0.273164	0.895976	-0.332283
H296	H	0.606498	1.229310	0.001051
H297	H	0.939831	1.562643	0.334384
H298	H	0.200640	0.956431	-0.332272
H299	H	0.533973	1.289764	0.001061
H300	H	0.867307	1.623097	0.334395
H301	H	0.021084	0.264433	-0.091633
H302	H	0.354417	0.597766	0.241701
H303	H	0.687751	0.931100	0.575034
H304	H	0.023405	0.395861	-0.091650
H305	H	0.356738	0.729194	0.241683
H306	H	0.690072	1.062527	0.575016
H307	H	0.113402	0.478175	-0.119666
H308	H	0.446735	0.811508	0.213667
H309	H	0.780069	1.144842	0.547001
H310	H	0.114428	0.934115	-0.568990
H311	H	0.447761	1.267448	-0.235657
H312	H	0.781094	1.600782	0.097677
C313	C	0.216241	0.908944	-0.814985
C314	C	0.549574	1.242277	-0.481652
C315	C	0.882907	1.575611	-0.148318
H316	H	0.209033	0.902923	-0.865844
H317	H	0.542366	1.236256	-0.532511
H318	H	0.875699	1.569590	-0.199178
H319	H	0.273167	0.896017	-0.802491
H320	H	0.606500	1.229350	-0.469158
H321	H	0.939833	1.562683	-0.135825
H322	H	0.200646	0.956474	-0.802476
H323	H	0.533979	1.289807	-0.469142
H324	H	0.867312	1.623140	-0.135809
C325	C	0.005002	0.732078	-0.815073
C326	C	0.338335	1.065412	-0.481740
C327	C	0.671668	1.398745	-0.148406
H328	H	0.012209	0.738108	-0.865926
H329	H	0.345543	1.071442	-0.532593
H330	H	0.678876	1.404775	-0.199260
H331	H	-0.051926	0.744996	-0.802583
H332	H	0.281407	1.078329	-0.469249
H333	H	0.614741	1.411662	-0.135916
H334	H	0.020606	0.684548	-0.802597
H335	H	0.353940	1.017881	-0.469263
H336	H	0.687273	1.351215	-0.135930
C337	C	-0.319667	0.954709	0.000133
C338	C	0.013667	1.288043	0.333466
C339	C	0.347000	1.621376	0.666800
H340	H	-0.363961	0.991833	0.000147
H341	H	-0.030627	1.325166	0.333480
H342	H	0.302706	1.658500	0.666814
H343	H	-0.286267	0.957835	-0.042096
H344	H	0.047066	1.291169	0.291237
H345	H	0.380400	1.624502	0.624571
H346	H	-0.286258	0.957840	0.042369
H347	H	0.047075	1.291173	0.375703
H348	H	0.380409	1.624507	0.709036
C349	C	0.005005	0.732064	-0.655005
C350	C	0.338339	1.065398	-0.321672
C351	C	0.671672	1.398731	0.011662
H352	H	-0.024941	0.706982	-0.688635
H353	H	0.308392	1.040315	-0.355301
H354	H	0.641726	1.373648	-0.021968
H355	H	-0.033349	0.760532	-0.625261
H356	H	0.299984	1.093866	-0.291928
H357	H	0.633318	1.427199	0.041405
H358	H	0.039184	0.700085	-0.625279
H359	H	0.372518	1.033419	-0.291946
H360	H	0.705851	1.366752	0.041387
C361	C	0.106225	0.688975	-0.579975
C362	C	0.439558	1.022308	-0.246641
C363	C	0.772892	1.355642	0.086692
H364	H	0.106537	0.697945	-0.630827
H365	H	0.439871	1.031279	-0.297494
H366	H	0.773204	1.364612	0.035839
H367	H	0.056903	0.669081	-0.567498
H368	H	0.390236	1.002414	-0.234165
H369	H	0.723569	1.335748	0.099168
H370	H	0.153828	0.657403	-0.567485
H371	H	0.487161	0.990736	-0.234152
H372	H	0.820494	1.324069	0.099181
C373	C	0.106228	0.688958	-0.419903
C374	C	0.439561	1.022292	-0.086569
C375	C	0.772895	1.355625	0.246764
H376	H	0.104992	0.651661	-0.453533
H377	H	0.438325	0.984994	-0.120200
H378	H	0.771659	1.318327	0.213134
H379	H	0.057683	0.692185	-0.390169
H380	H	0.391016	1.025518	-0.056836
H381	H	0.724349	1.358852	0.276497
H382	H	0.154608	0.680519	-0.390166
H383	H	0.487941	1.013853	-0.056833
H384	H	0.821275	1.347186	0.276500
C385	C	0.004998	0.732041	-0.344864
C386	C	0.338331	1.065374	-0.011530
C387	C	0.671665	1.398707	0.321803
H388	H	0.012210	0.738068	-0.395717
H389	H	0.345543	1.071402	-0.062383
H390	H	0.678876	1.404735	0.270950
H391	H	-0.051931	0.744959	-0.332377
H392	H	0.281403	1.078293	0.000957
H393	H	0.614736	1.411626	0.334290
H394	H	0.020601	0.684511	-0.332385
H395	H	0.353935	1.017844	0.000949
H396	H	0.687268	1.351178	0.334282
H397	H	0.019351	0.744067	-0.195679
H398	H	0.352684	1.077400	0.137655
H399	H	0.686017	1.410733	0.470988
