data_functionalizedCrystal
_audit_creation_method	'MofGen! by Chris Wilmer'
_symmetry_space_group_name_H-M	'P1'
_symmetry_Int_Tables_number	1
_symmetry_cell_setting	triclinic
loop_
_symmetry_equiv_pos_as_xyz
  x,y,z
_cell_length_a	10.723023
_cell_length_b	17.038272
_cell_length_c	9.798715
_cell_angle_alpha	89.996584
_cell_angle_beta	90.003856
_cell_angle_gamma	92.210448
loop_
_atom_site_label
_atom_site_type_symbol
_atom_site_fract_x
_atom_site_fract_y
_atom_site_fract_z
O1	O	-1.667337	0.109717	-0.113499
O2	O	-1.167337	0.609717	0.386501
O3	O	-1.305156	0.120220	-0.113500
O4	O	-0.805156	0.620220	0.386500
O5	O	-1.484094	0.001141	-0.113489
O6	O	-0.984094	0.501141	0.386511
O7	O	-1.488399	0.228796	-0.113510
O8	O	-0.988399	0.728796	0.386490
O9	O	-1.484080	0.001141	0.113493
O10	O	-0.984080	0.501141	0.613493
O11	O	-1.305142	0.120220	0.113482
O12	O	-0.805142	0.620220	0.613482
O13	O	-1.667323	0.109717	0.113484
O14	O	-1.167323	0.609717	0.613484
Zn15	Zn	-1.486230	0.114968	0.149521
Zn16	Zn	-0.986230	0.614968	0.649521
Zn17	Zn	-1.486249	0.114969	-0.149538
Zn18	Zn	-0.986249	0.614969	0.350462
O19	O	-1.488385	0.228796	0.113472
O20	O	-0.988385	0.728796	0.613472
C21	C	-1.258579	0.119456	-0.000009
C22	C	-0.758579	0.619456	0.499991
C23	C	-1.119813	0.117169	-0.000010
C24	C	-0.619813	0.617169	0.499990
C25	C	-1.057939	0.116150	0.117574
C26	C	-0.557939	0.616150	0.617574
C27	C	-0.914517	0.113787	0.117576
C28	C	-0.414517	0.613787	0.617576
C29	C	-1.480171	-0.028009	0.000002
C30	C	-0.980171	0.471991	0.500002
C31	C	-1.468489	-0.114866	0.000002
C32	C	-0.968489	0.385134	0.500002
C33	C	-1.575745	-0.164388	0.000004
C34	C	-1.075745	0.335612	0.500004
C35	C	-1.564761	-0.245999	-0.000009
C36	C	-1.064761	0.254001	0.499991
C37	C	-1.446520	-0.278087	-0.000014
C38	C	-0.946520	0.221913	0.499986
C39	C	-1.339256	-0.228559	-0.000020
C40	C	-0.839256	0.271441	0.499980
C41	C	-1.350242	-0.146949	-0.000017
C42	C	-0.850242	0.353051	0.499983
C43	C	-1.407711	-0.524059	-0.000033
C44	C	-0.907711	-0.024059	0.499967
C45	C	-1.396734	-0.605675	-0.000032
C46	C	-0.896734	-0.105675	0.499968
C47	C	-1.622239	-0.623110	-0.000024
C48	C	-1.122239	-0.123110	0.499976
C49	C	-1.633214	-0.541497	-0.000012
C50	C	-1.133214	-0.041497	0.499988
C51	C	-1.525951	-0.491977	-0.000026
C52	C	-1.025951	0.008023	0.499974
C53	C	-1.435290	-0.361507	-0.000023
C54	C	-0.935290	0.138493	0.499977
C55	C	-1.537182	-0.408559	-0.000026
C56	C	-1.037182	0.091441	0.499974
C57	C	-0.713900	0.110481	-0.000007
C58	C	-0.213900	0.610481	0.499993
C59	C	-0.852666	0.112768	-0.000007
C60	C	-0.352666	0.612768	0.499993
C61	C	-1.492307	0.257946	-0.000022
C62	C	-0.992307	0.757946	0.499978
C63	C	-1.503990	0.344803	-0.000031
C64	C	-1.003990	0.844803	0.499969
N65	N	-1.486226	0.114968	0.353621
N66	N	-0.986226	0.614968	0.853621
N67	N	-1.486262	0.114963	-0.353637
N68	N	-0.986262	0.614963	0.146363
C69	C	-1.561337	0.064749	0.421402
C70	C	-1.061337	0.564749	0.921402
C71	C	-1.561357	0.064747	0.578565
C72	C	-1.061357	0.564747	1.078565
H73	H	-1.111146	0.117022	0.218239
H74	H	-0.611146	0.617022	0.718239
H75	H	-0.905867	0.113649	-0.100680
H76	H	-0.405867	0.613649	0.399320
H77	H	-1.633453	-0.382429	-0.000052
H78	H	-1.133453	0.117571	0.499948
H79	H	-1.625624	0.021754	0.363084
H80	H	-1.125624	0.521754	0.863084
H81	H	-1.625667	0.021756	0.636855
H82	H	-1.125667	0.521756	1.136855
H83	H	-1.242982	-0.254692	-0.000033
H84	H	-0.742982	0.245308	0.499967
H85	H	-1.421958	0.157962	0.588082
H86	H	-0.921958	0.657962	1.088082
H87	H	-1.709567	-0.663438	-0.000016
H88	H	-1.209567	-0.163438	0.499984
H89	H	-1.421930	0.157957	0.411941
H90	H	-0.921930	0.657957	0.911941
H91	H	-1.066606	0.116291	-0.100675
H92	H	-0.566606	0.616291	0.399325
H93	H	-1.672029	-0.138268	0.000016
H94	H	-1.172029	0.361732	0.500016
H95	H	-0.861307	0.112914	0.218243
H96	H	-0.361307	0.612914	0.718243
H97	H	-1.652100	-0.286316	-0.000005
H98	H	-1.152100	0.213684	0.499995
H99	H	-1.262902	-0.106629	-0.000019
H100	H	-0.762902	0.393371	0.499981
H101	H	-1.729498	-0.515378	-0.000008
H102	H	-1.229498	-0.015378	0.499992
H103	H	-1.339017	-0.387642	-0.000025
H104	H	-0.839017	0.112358	0.499975
H105	H	-1.300444	-0.631798	-0.000015
H106	H	-0.800444	-0.131798	0.499985
H107	H	-1.320369	-0.483749	-0.000044
H108	H	-0.820369	0.016251	0.499956
