data_functionalizedCrystal
_audit_creation_method	'MofGen! by Chris Wilmer'
_symmetry_space_group_name_H-M	'P1'
_symmetry_Int_Tables_number	1
_symmetry_cell_setting	triclinic
loop_
_symmetry_equiv_pos_as_xyz
  x,y,z
_cell_length_a	19.188925
_cell_length_b	17.666332
_cell_length_c	19.188930
_cell_angle_alpha	89.988397
_cell_angle_beta	96.856335
_cell_angle_gamma	90.010303
loop_
_atom_site_label
_atom_site_type_symbol
_atom_site_fract_x
_atom_site_fract_y
_atom_site_fract_z
O1	O	0.926152	0.062973	-0.087151
O2	O	1.426152	0.562973	0.412849
O3	O	0.722840	0.062972	-0.098889
O4	O	1.222840	0.562972	0.401111
O5	O	0.830363	0.062958	0.008636
O6	O	1.330363	0.562958	0.508636
O7	O	0.818629	0.062987	-0.194676
O8	O	1.318629	0.562987	0.305324
O9	O	0.830344	-0.062939	0.008642
O10	O	1.330344	0.437061	0.508642
O11	O	0.722821	-0.062925	-0.098883
O12	O	1.222821	0.437075	0.401117
O13	O	0.926133	-0.062924	-0.087145
O14	O	1.426133	0.437076	0.412855
Cu15	Cu	0.824476	-0.074419	-0.093014
Cu16	Cu	1.324476	0.425581	0.406986
Cu17	Cu	0.824498	0.074468	-0.093020
Cu18	Cu	1.324498	0.574468	0.406980
O19	O	0.818610	-0.062909	-0.194670
O20	O	1.318610	0.437091	0.305330
C21	C	0.696820	0.000023	-0.098507
C22	C	1.196820	0.500023	0.401493
C23	C	0.619315	0.000022	-0.097367
C24	C	1.119315	0.500022	0.402633
C25	C	0.057545	0.000032	-0.152831
C26	C	0.557545	0.500032	0.347169
C27	C	0.130368	0.000037	-0.153908
C28	C	0.630368	0.500037	0.346092
C29	C	0.175302	0.000026	-0.090816
C30	C	0.675302	0.500026	0.409184
C31	C	0.147408	0.000031	-0.026642
C32	C	0.647408	0.500031	0.473358
C33	C	0.074586	0.000034	-0.025568
C34	C	0.574586	0.500034	0.474432
N35	N	0.295973	-0.042837	-0.045138
N36	N	0.795973	0.457163	0.454862
N37	N	0.365150	-0.042842	-0.046163
N38	N	0.865150	0.457158	0.453837
C39	C	0.394712	0.000018	-0.094050
C40	C	0.894712	0.500018	0.405950
N41	N	0.352481	0.042872	-0.140883
N42	N	0.852481	0.542872	0.359117
N43	N	0.283297	0.042874	-0.139860
N44	N	0.783297	0.542874	0.360140
C45	C	0.254267	0.000023	-0.091974
C46	C	0.754267	0.500023	0.408026
C47	C	0.501561	0.000023	-0.159386
C48	C	1.001561	0.500023	0.340614
C49	C	0.574385	0.000032	-0.160460
C50	C	1.074385	0.500032	0.339540
C51	C	0.591425	0.000018	-0.033193
C52	C	1.091425	0.500018	0.466807
C53	C	0.518601	0.000017	-0.032121
C54	C	1.018601	0.500017	0.467879
C55	C	0.473673	0.000016	-0.095220
C56	C	0.973673	0.500016	0.404780
N57	N	0.824465	-0.179139	-0.093008
N58	N	1.324465	0.320861	0.406992
C59	C	0.872092	-0.218755	-0.045420
C60	C	1.372092	0.281245	0.454580
C61	C	0.872096	-0.298003	-0.045416
C62	C	1.372096	0.201997	0.454584
C63	C	0.824480	-0.337631	-0.093014
C64	C	1.324480	0.162369	0.406986
C65	C	0.776844	-0.298005	-0.140606
C66	C	1.276844	0.201995	0.359394
C67	C	0.776837	-0.218759	-0.140604
C68	C	1.276837	0.281241	0.359396
N69	N	0.815404	-0.462041	-0.154821
N70	N	1.315404	0.037959	0.345179
N71	N	0.815415	-0.537321	-0.154821
N72	N	1.315415	-0.037321	0.345179
C73	C	0.824498	-0.576395	-0.093023
C74	C	1.324498	-0.076395	0.406977
N75	N	0.833584	-0.537345	-0.031223
N76	N	1.333584	-0.037345	0.468777
N77	N	0.833576	-0.462057	-0.031223
N78	N	1.333576	0.037943	0.468777
C79	C	0.824482	-0.423560	-0.093022
C80	C	1.324482	0.076440	0.406978
C81	C	0.872132	-0.701940	-0.045427
C82	C	1.372132	-0.201940	0.454573
C83	C	0.872131	-0.781190	-0.045423
C84	C	1.372131	-0.281190	0.454577
C85	C	0.776883	-0.781191	-0.140619
C86	C	1.276883	-0.281191	0.359381
C87	C	0.776880	-0.701943	-0.140617
C88	C	1.276880	-0.201943	0.359383
C89	C	0.824509	-0.662323	-0.093022
C90	C	1.324509	-0.162323	0.406978
C91	C	0.952154	0.000027	-0.087527
C92	C	1.452154	0.500027	0.412473
C93	C	1.029658	0.000033	-0.088666
C94	C	1.529658	0.500033	0.411334
C95	C	0.829974	0.000007	0.034650
C96	C	1.329974	0.500007	0.534650
C97	C	0.828833	0.000001	0.112154
C98	C	1.328833	0.500001	0.612154
N99	N	0.824514	0.179187	-0.093020
N100	N	1.324514	0.679187	0.406980
C101	C	0.819000	0.000043	-0.220684
C102	C	1.319000	0.500043	0.279316
C103	C	0.820140	0.000054	-0.298188
C104	C	1.320140	0.500054	0.201812
C105	C	0.891924	-0.000003	0.157079
C106	C	1.391924	0.499997	0.657079
C107	C	0.890852	0.000010	0.229903
C108	C	1.390852	0.500010	0.729903
C109	C	0.826686	0.000010	0.257799
C110	C	1.326686	0.500010	0.757799
C111	C	0.763587	0.000017	0.212864
C112	C	1.263587	0.500017	0.712864
C113	C	0.764660	0.000013	0.140041
C114	C	1.264660	0.500013	0.640041
N115	N	0.777632	-0.042835	0.365805
N116	N	1.277632	0.457165	0.865805
N117	N	0.776617	-0.042833	0.434983
N118	N	1.276617	0.457167	0.934983
C119	C	0.823448	0.000025	0.477207
C120	C	1.323448	0.500025	0.977207
N121	N	0.871344	0.042871	0.447641
N122	N	1.371344	0.542871	0.947641
N123	N	0.872361	0.042865	0.378456
N124	N	1.372361	0.542865	0.878456
C125	C	0.825515	0.000015	0.336761
C126	C	1.325515	0.500015	0.836761
C127	C	0.885381	0.000036	0.601097
C128	C	1.385381	0.500036	1.101097
C129	C	0.884307	0.000053	0.673922
C130	C	1.384307	0.500053	1.173922
C131	C	0.757040	0.000053	0.656880
C132	C	1.257040	0.500053	1.156880
C133	C	0.758116	0.000044	0.584057
C134	C	1.258116	0.500044	1.084057
C135	C	0.822289	0.000032	0.556170
C136	C	1.322289	0.500032	1.056170
H137	H	0.628010	0.000016	0.018178
H138	H	1.128010	0.500016	0.518178
Cl139	Cl	0.972598	0.000004	0.122025
Cl140	Cl	1.472598	0.500004	0.622025
H141	H	0.711342	0.000019	0.235581
H142	H	1.211342	0.500019	0.735581
H143	H	0.910880	-0.330264	-0.006662
H144	H	1.410880	0.169736	0.493338
Cl145	Cl	0.609442	0.000039	-0.241132
Cl146	Cl	1.109442	0.500039	0.258868
H147	H	0.495896	0.000013	0.020129
H148	H	0.995896	0.500013	0.520129
H149	H	0.738074	-0.330275	-0.179360
H150	H	1.238074	0.169725	0.320640
Cl151	Cl	0.932003	-0.652131	0.014410
Cl152	Cl	1.432003	-0.152131	0.514410
H153	H	0.910871	-0.186498	-0.006663
H154	H	1.410871	0.313502	0.493337
H155	H	0.935686	0.000054	0.710500
H156	H	1.435686	0.500054	1.210500
Cl157	Cl	0.717018	-0.831004	-0.200450
Cl158	Cl	1.217018	-0.331004	0.299550
Cl159	Cl	0.716960	-0.168953	-0.200435
Cl160	Cl	1.216960	0.331047	0.299565
H161	H	0.910912	-0.813446	-0.006666
H162	H	1.410912	-0.313446	0.493334
H163	H	0.051883	0.000035	0.026685
H164	H	0.551883	0.500035	0.526685
H165	H	0.738101	-0.669686	-0.179371
H166	H	1.238101	-0.169686	0.320629
H167	H	0.942230	0.000010	0.266488
H168	H	1.442230	0.500010	0.766488
H169	H	0.713282	0.000015	0.103462
H170	H	1.213282	0.500015	0.603462
H171	H	0.937635	0.000030	0.578390
H172	H	1.437635	0.500030	1.078390
H173	H	0.020968	0.000035	-0.204211
H174	H	0.520968	0.500035	0.295789
H175	H	0.704794	0.000057	0.679592
H176	H	1.204794	0.500057	1.179592
Cl177	Cl	0.678797	0.000045	0.527576
Cl178	Cl	1.178797	0.500045	1.027576
H179	H	0.153078	0.000029	-0.206160
H180	H	0.653078	0.500029	0.293840
H181	H	0.183999	0.000024	0.024728
H182	H	0.683999	0.500024	0.524728
H183	H	0.464978	0.000023	-0.210765
H184	H	0.964978	0.500023	0.289235
