data_functionalizedCrystal
_audit_creation_method	'MofGen! by Chris Wilmer'
_symmetry_space_group_name_H-M	'P1'
_symmetry_Int_Tables_number	1
_symmetry_cell_setting	triclinic
loop_
_symmetry_equiv_pos_as_xyz
  x,y,z
_cell_length_a	13.032831
_cell_length_b	12.759394
_cell_length_c	13.033109
_cell_angle_alpha	97.153824
_cell_angle_beta	76.665514
_cell_angle_gamma	82.819699
loop_
_atom_site_label
_atom_site_type_symbol
_atom_site_fract_x
_atom_site_fract_y
_atom_site_fract_z
Zn1	Zn	1.700152	-0.738596	-0.806419
Zn2	Zn	1.677492	-0.888729	-0.628805
Zn3	Zn	1.499974	-0.687494	-0.606312
Zn4	Zn	1.522507	-0.888636	-0.783849
O5	O	1.600031	-0.800864	-0.706346
O6	O	1.845783	-0.779936	-0.801718
O7	O	1.635030	-0.840687	-0.477189
O8	O	1.526581	-0.547263	-0.632889
O9	O	1.829135	-0.890238	-0.671225
O10	O	1.673651	-0.584807	-0.779907
O11	O	1.504608	-0.692841	-0.460663
O12	O	1.354325	-0.692751	-0.611003
O13	O	1.564985	-0.890081	-0.935475
O14	O	1.370880	-0.840530	-0.741439
O15	O	1.695501	-0.779846	-0.952057
O16	O	1.656879	-1.035727	-0.649339
O17	O	1.543013	-1.035659	-0.763249
C18	C	1.324063	-0.761086	-0.671332
C19	C	1.206006	-0.744098	-0.656377
C20	C	1.161579	-0.809730	-0.714151
C21	C	1.039561	-0.792174	-0.698696
C22	C	1.599964	-1.073818	-0.706312
C23	C	1.600037	-1.190609	-0.706346
C24	C	1.718721	-1.190655	-0.587846
C25	C	1.778093	-1.245545	-0.528612
C26	C	1.778159	-1.355280	-0.528649
C27	C	1.718849	-1.410128	-0.587928
C28	C	1.659478	-1.355238	-0.647162
C29	C	1.659416	-1.245500	-0.647116
C30	C	1.540801	-1.355193	-0.765667
C31	C	1.540728	-1.245457	-0.765625
C32	C	1.481492	-1.410041	-0.824946
C33	C	1.422113	-1.355149	-0.884176
C34	C	1.422048	-1.245408	-0.884136
C35	C	1.481356	-1.190567	-0.824859
C36	C	1.877077	-0.840798	-0.741498
C37	C	1.995137	-0.857815	-0.756478
C38	C	1.635284	-0.840653	-0.983382
C39	C	1.650307	-0.857609	-1.101439
C40	C	1.600130	-0.526851	-0.706407
C41	C	1.600172	-0.410083	-0.706433
C42	C	1.592474	-0.792017	-1.145895
C43	C	1.608000	-0.809541	-1.267913
C44	C	1.564976	-0.761162	-0.430395
C45	C	1.550159	-0.743940	-0.312366
H46	H	1.826385	-1.200879	-0.480349
O47	O	1.680921	-0.891971	-1.330159
C48	C	1.865905	-0.973840	-1.387266
C49	C	1.783433	-0.880448	-1.316704
H50	H	1.948807	-0.964544	-1.376430
H51	H	1.844562	-1.052788	-1.363124
H52	H	1.865406	-0.973291	-1.474553
H53	H	1.783889	-0.880896	-1.229399
H54	H	1.804806	-0.801543	-1.340937
O55	O	1.057391	-0.940485	-0.829075
C56	C	1.098098	-1.131518	-0.884579
C57	C	1.027505	-1.037997	-0.802305
H58	H	1.073976	-1.210380	-0.862953
H59	H	1.087255	-1.122487	-0.967538
H60	H	1.185388	-1.130917	-0.884116
H61	H	0.940189	-1.038541	-0.802672
H62	H	1.038439	-1.047063	-0.719385
H63	H	1.531464	-0.722893	-1.093623
O64	O	1.723224	-0.940035	-1.163689
C65	C	1.908208	-1.021904	-1.220796
C66	C	1.825736	-0.928512	-1.150234
H67	H	1.991110	-1.012608	-1.209959
H68	H	1.886865	-1.100851	-1.196653
H69	H	1.907709	-1.021355	-1.308082
H70	H	1.826192	-0.928960	-1.062928
H71	H	1.847109	-0.849607	-1.174467
H72	H	1.826510	-1.399973	-0.480421
H73	H	1.153709	-0.674906	-0.595479
O74	O	1.364448	-1.192234	-0.941834
C75	C	1.335783	-1.177076	-1.115912
C76	C	1.401078	-1.237398	-1.050692
H77	H	1.365389	-1.213553	-1.203939
H78	H	1.247774	-1.183737	-1.086434
H79	H	1.345896	-1.089219	-1.105647
H80	H	1.391054	-1.325277	-1.060928
H81	H	1.489062	-1.230649	-1.080186
O82	O	1.223835	-0.892395	-0.786745
C83	C	1.264539	-1.083427	-0.842253
C84	C	1.193948	-0.989907	-0.759977
H85	H	1.240417	-1.162290	-0.820627
H86	H	1.253694	-1.074395	-0.925210
H87	H	1.351830	-1.082828	-0.841792
H88	H	1.106631	-0.990450	-0.760341
H89	H	1.204885	-0.998975	-0.677058
O90	O	1.477449	-0.661488	-1.249869
C91	C	1.395601	-0.568914	-1.071263
C92	C	1.477998	-0.662313	-1.141916
H93	H	1.396001	-0.569564	-0.983967
H94	H	1.417022	-0.489958	-1.095313
H95	H	1.312716	-0.578120	-1.082207
H96	H	1.560912	-0.653211	-1.131007
H97	H	1.456485	-0.741233	-1.117849
H98	H	0.987267	-0.722977	-0.637793
H99	H	1.718658	-1.101300	-0.587794
H100	H	1.718919	-1.499482	-0.587963
H101	H	1.481555	-1.499394	-0.824977
O102	O	1.364354	-1.408282	-0.941685
C103	C	1.190200	-1.423390	-0.970156
C104	C	1.255487	-1.363105	-0.904961
H105	H	1.102166	-1.386903	-0.940475
H106	H	1.219590	-1.416704	-1.058170
H107	H	1.200510	-1.511255	-0.960041
H108	H	1.245206	-1.275219	-0.914987
H109	H	1.226082	-1.369880	-0.816973
H110	H	1.481302	-1.101213	-0.824813
