data_functionalizedCrystal
_audit_creation_method	'MofGen! by Chris Wilmer'
_symmetry_space_group_name_H-M	'P1'
_symmetry_Int_Tables_number	1
_symmetry_cell_setting	triclinic
loop_
_symmetry_equiv_pos_as_xyz
  x,y,z
_cell_length_a	13.897448
_cell_length_b	12.759395
_cell_length_c	12.759387
_cell_angle_alpha	90.017289
_cell_angle_beta	90.032712
_cell_angle_gamma	90.023028
loop_
_atom_site_label
_atom_site_type_symbol
_atom_site_fract_x
_atom_site_fract_y
_atom_site_fract_z
Zn1	Zn	-0.383827	1.606247	0.593901
Zn2	Zn	0.116173	2.106247	1.093901
Zn3	Zn	-0.545154	1.606128	0.418216
Zn4	Zn	-0.045154	2.106128	0.918216
Zn5	Zn	-0.383890	1.430545	0.418248
Zn6	Zn	0.116110	1.930545	0.918248
Zn7	Zn	-0.545096	1.430528	0.593864
Zn8	Zn	-0.045096	1.930528	1.093864
O9	O	-0.464492	1.518362	0.506057
O10	O	0.035508	2.018362	1.006057
O11	O	-0.405225	1.753252	0.570598
O12	O	0.094775	2.253252	1.070598
O13	O	-0.523813	1.582794	0.271199
O14	O	-0.023813	2.082794	0.771199
O15	O	-0.248900	1.453909	0.441577
O16	O	0.251100	1.953909	0.941577
O17	O	-0.523752	1.753165	0.441522
O18	O	-0.023752	2.253165	0.941522
O19	O	-0.248854	1.582996	0.570629
O20	O	0.251146	2.082996	1.070629
O21	O	-0.405333	1.453794	0.271222
O22	O	0.094667	1.953794	0.771222
O23	O	-0.405277	1.283522	0.441542
O24	O	0.094723	1.783522	0.941542
O25	O	-0.523653	1.453880	0.740890
O26	O	-0.023653	1.953880	1.240890
O27	O	-0.523714	1.283509	0.570567
O28	O	-0.023714	1.783509	1.070567
O29	O	-0.405169	1.582980	0.740917
O30	O	0.094831	2.082980	1.240917
O31	O	-0.680128	1.582778	0.441487
O32	O	-0.180128	2.082778	0.941487
O33	O	-0.680086	1.453765	0.570536
O34	O	-0.180086	1.953765	1.070536
C35	C	-0.715106	1.518285	0.506027
C36	C	-0.215106	2.018285	1.006027
C37	C	-0.822320	1.518349	0.506049
C38	C	-0.322320	2.018349	1.006049
C39	C	-0.464497	1.245395	0.506054
C40	C	0.035503	1.745395	1.006054
C41	C	-0.464522	1.128618	0.506078
C42	C	0.035478	1.628618	1.006078
C43	C	-0.464397	1.518441	0.780091
C44	C	0.035603	2.018441	1.280091
C45	C	-0.464357	1.518475	0.896868
C46	C	0.035643	2.018475	1.396868
C47	C	-1.018615	1.518459	0.506115
C48	C	-0.518615	2.018459	1.006115
C49	C	-0.909383	1.518395	0.506081
C50	C	-0.409383	2.018395	1.006081
C51	C	-0.212899	1.518468	0.506111
C52	C	0.287101	2.018468	1.006111
C53	C	-0.105685	1.518513	0.506133
C54	C	0.394315	2.018513	1.006133
C55	C	-0.464488	1.792395	0.506061
C56	C	0.035512	2.292395	1.006061
C57	C	-0.464486	1.909172	0.506062
C58	C	0.035514	2.409172	1.006062
C59	C	-0.341056	1.909283	0.640459
C60	C	0.158944	2.409283	1.140459
C61	C	-0.279345	1.964199	0.707658
C62	C	0.220655	2.464199	1.207658
C63	C	-0.279357	2.073920	0.707665
C64	C	0.220643	2.573920	1.207665
C65	C	-0.341088	2.128728	0.640469
C66	C	0.158912	2.628728	1.140469
C67	C	-0.402799	2.073812	0.573270
C68	C	0.097201	2.573812	1.073270
C69	C	-0.402779	1.964088	0.573268
C70	C	0.097221	2.464088	1.073268
C71	C	-0.526233	2.073702	0.438879
C72	C	-0.026233	2.573702	0.938879
C73	C	-0.526218	1.963980	0.438865
C74	C	-0.026218	2.463980	0.938865
C75	C	-0.587964	2.128510	0.371683
C76	C	-0.087964	2.628510	0.871683
C77	C	-0.649672	2.073594	0.304477
C78	C	-0.149672	2.573594	0.804477
C79	C	-0.649657	1.963866	0.304472
C80	C	-0.149657	2.463866	0.804472
C81	C	-0.587928	1.909064	0.371667
C82	C	-0.087928	2.409064	0.871667
C83	C	-0.464516	1.518344	0.233090
C84	C	0.035484	2.018344	0.733090
C85	C	-0.464285	1.518513	0.116313
C86	C	0.035715	2.018513	0.616313
C87	C	-0.340988	1.652916	0.896915
C88	C	0.159012	2.152916	1.396915
C89	C	-0.279288	1.720151	0.951800
C90	C	0.220712	2.220151	1.451800
C91	C	-0.279253	1.720176	1.061522
C92	C	0.220747	2.220176	1.561522
C93	C	-0.340922	1.652958	1.116361
C94	C	0.159078	2.152958	1.616361
C95	C	-0.402621	1.585723	1.061476
C96	C	0.097379	2.085723	1.561476
C97	C	-0.402652	1.585707	0.951752
C98	C	0.097348	2.085707	1.451752
C99	C	-0.525984	1.451278	1.061429
C100	C	-0.025984	1.951278	1.561429
C101	C	-0.526026	1.451256	0.951707
C102	C	-0.026026	1.951256	1.451707
C103	C	-0.587653	1.384059	1.116268
C104	C	-0.087653	1.884059	1.616268
C105	C	-0.649358	1.316828	1.061384
C106	C	-0.149358	1.816828	1.561384
C107	C	-0.649392	1.316806	0.951655
C108	C	-0.149392	1.816806	1.451655
C109	C	-0.587725	1.384021	0.896822
C110	C	-0.087725	1.884021	1.396822
H111	H	-0.341019	1.819942	0.640437
H112	H	0.158981	2.319942	1.140437
H113	H	-0.341019	1.652912	0.807574
H114	H	0.158981	2.152912	1.307574
H115	H	-0.229078	1.774877	0.907137
H116	H	0.270922	2.274877	1.407137
Cl117	Cl	-0.201750	1.895293	0.792136
Cl118	Cl	0.298250	2.395293	1.292136
Cl119	Cl	-0.201782	2.142961	0.792149
Cl120	Cl	0.298218	2.642961	1.292149
Cl121	Cl	-0.201673	1.804684	1.130523
Cl122	Cl	0.298327	2.304684	1.630523
H123	H	-0.341102	2.218069	0.640490
H124	H	0.158898	2.718069	1.140490
H125	H	-0.587976	2.217851	0.371700
H126	H	-0.087976	2.717851	0.871700
Cl127	Cl	-0.340867	1.652982	1.254298
Cl128	Cl	0.159133	2.152982	1.754298
Cl129	Cl	-0.587609	1.384091	1.254205
Cl130	Cl	-0.087609	1.884091	1.754205
H131	H	-0.699559	1.262098	1.106043
H132	H	-0.199559	1.762098	1.606043
Cl133	Cl	-0.726956	1.232271	0.882667
Cl134	Cl	-0.226956	1.732271	1.382667
H135	H	-0.587898	1.819723	0.371656
H136	H	-0.087898	2.319723	0.871656
H137	H	-0.699933	2.118227	0.249776
H138	H	-0.199933	2.618227	0.749776
Cl139	Cl	-0.727248	1.894838	0.219996
Cl140	Cl	-0.227248	2.394838	0.719996
H141	H	-0.587750	1.384014	0.807481
H142	H	-0.087750	1.884014	1.307481
