data_functionalizedCrystal
_audit_creation_method	'MofGen! by Chris Wilmer'
_symmetry_space_group_name_H-M	'P1'
_symmetry_Int_Tables_number	1
_symmetry_cell_setting	triclinic
loop_
_symmetry_equiv_pos_as_xyz
  x,y,z
_cell_length_a	16.974800
_cell_length_b	14.519731
_cell_length_c	16.053802
_cell_angle_alpha	92.569546
_cell_angle_beta	91.074188
_cell_angle_gamma	83.539176
loop_
_atom_site_label
_atom_site_type_symbol
_atom_site_fract_x
_atom_site_fract_y
_atom_site_fract_z
O1	O	1.049251	0.117558	0.001491
O2	O	0.819810	0.131675	-0.014019
O3	O	0.940605	-0.009617	-0.005846
O4	O	0.928456	0.258850	-0.006682
O5	O	0.933956	-0.001872	0.132563
O6	O	0.813161	0.139420	0.124390
O7	O	1.042602	0.125303	0.139900
Zn8	Zn	0.926826	0.133591	0.154120
Zn9	Zn	0.935586	0.123387	-0.028240
O10	O	0.921807	0.266595	0.131727
C11	C	0.787121	0.134869	0.053200
C12	C	0.699626	0.132835	0.047286
C13	C	0.654901	0.136099	0.119956
C14	C	0.572691	0.134174	0.114401
C15	C	0.535207	0.128991	0.036175
C16	C	0.579938	0.125724	-0.036501
C17	C	0.662147	0.127643	-0.030945
C18	C	0.289727	0.122793	0.011468
C19	C	0.207512	0.120878	0.005918
C20	C	0.200270	0.129326	0.156820
C21	C	0.282480	0.131250	0.162369
C22	C	0.327205	0.127978	0.089693
N23	N	0.451175	0.127026	0.030495
N24	N	0.411236	0.129937	0.095374
C25	C	0.936711	-0.040105	0.063320
C26	C	0.935005	-0.142486	0.063206
C27	C	0.933619	-0.225631	0.063110
C28	C	0.931887	-0.329941	0.062986
C29	C	0.930513	-0.413081	0.062888
C30	C	0.928781	-0.517397	0.062766
C31	C	1.075290	0.122109	0.072679
C32	C	1.162786	0.124142	0.078588
C33	C	0.925701	0.297082	0.062559
C34	C	0.927407	0.399463	0.062668
N35	N	0.920853	0.140555	0.278576
N36	N	0.941565	0.116416	-0.152695
C37	C	0.972270	0.080456	0.325750
C38	C	0.968099	0.085336	0.412874
C39	C	0.912515	0.150320	0.452824
C40	C	0.861092	0.210421	0.405645
C41	C	0.865260	0.205536	0.318522
C42	C	0.894310	0.171632	0.713002
C43	C	0.890148	0.176514	0.800132
C44	C	0.997155	0.051428	0.807355
C45	C	1.001320	0.046552	0.720230
C46	C	0.949895	0.106650	0.673058
N47	N	0.908252	0.155311	0.541880
N48	N	0.954155	0.101653	0.584004
H49	H	0.698562	0.124986	-0.090121
C50	C	0.524120	0.137517	0.193279
C51	C	0.485493	0.057374	0.195107
C52	C	0.440755	0.060409	0.267767
H53	H	0.485898	0.190609	0.193929
H54	H	0.558203	0.140831	0.240681
H55	H	0.451413	0.054070	0.147718
H56	H	0.523696	0.004270	0.194470
H57	H	0.474838	0.063723	0.315169
H58	H	0.402538	0.113505	0.268412
H59	H	0.414547	0.006031	0.269021
H60	H	0.844882	0.229436	0.832655
H61	H	0.685413	0.140328	0.183655
C62	C	1.032648	0.009806	0.282532
C63	C	1.076769	-0.041798	0.342495
C64	C	1.132389	-0.106901	0.302717
H65	H	1.067205	0.041068	0.250755
H66	H	1.005887	-0.030629	0.246658
H67	H	1.103529	-0.001370	0.378355
H68	H	1.042234	-0.073080	0.374276
H69	H	1.105628	-0.147336	0.266843
H70	H	1.166940	-0.075631	0.270941
H71	H	1.162326	-0.141928	0.343395
H72	H	1.046582	-0.006363	0.687705
H73	H	0.815830	0.263329	0.438177
H74	H	0.852439	0.220568	0.674601
H75	H	1.039022	0.002498	0.845770
C76	C	0.809526	0.270940	0.267351
C77	C	0.821436	0.362792	0.289381
C78	C	0.770112	0.423066	0.242254
H79	H	0.756198	0.261683	0.278050
H80	H	0.819971	0.258784	0.209735
H81	H	0.810985	0.374943	0.346984
H82	H	0.874753	0.372079	0.278679
H83	H	0.780557	0.410911	0.184637
H84	H	0.716787	0.413801	0.252956
H85	H	0.778191	0.485394	0.257188
C86	C	0.151844	0.132923	0.235817
C87	C	0.202265	0.137893	0.305511
C88	C	0.157684	0.141215	0.378300
H89	H	0.125549	0.078640	0.237307
H90	H	0.113701	0.186104	0.236431
H91	H	0.240394	0.084717	0.304897
H92	H	0.228562	0.192173	0.304048
H93	H	0.119541	0.194396	0.378915
H94	H	0.131390	0.086931	0.379782
H95	H	0.191887	0.144596	0.425596
H96	H	0.176995	0.116660	-0.057786
C97	C	0.338135	0.119281	-0.067531
C98	C	0.287707	0.114358	-0.137224
C99	C	0.332275	0.111131	-0.210016
H100	H	0.376294	0.066129	-0.068215
H101	H	0.364408	0.173600	-0.068957
H102	H	0.261447	0.060045	-0.135799
H103	H	0.249548	0.167504	-0.136568
H104	H	0.358547	0.165450	-0.211441
H105	H	0.370431	0.057979	-0.210690
H106	H	0.298065	0.107799	-0.257310
C107	C	1.023960	0.020246	0.464205
C108	C	1.069859	0.072336	0.517485
C109	C	1.121320	0.012406	0.564793
H110	H	1.057738	-0.019175	0.428040
H111	H	0.993948	-0.016314	0.496334
H112	H	1.099868	0.108880	0.485359
H113	H	1.036102	0.111754	0.553667
H114	H	1.091309	-0.024154	0.596922
H115	H	1.155093	-0.027012	0.528622
H116	H	1.152464	0.047740	0.600955
H117	H	0.549413	0.121497	-0.100194
H118	H	0.312994	0.135466	0.226069
