data_functionalizedCrystal
_audit_creation_method	'MofGen! by Chris Wilmer'
_symmetry_space_group_name_H-M	'P1'
_symmetry_Int_Tables_number	1
_symmetry_cell_setting	triclinic
loop_
_symmetry_equiv_pos_as_xyz
  x,y,z
_cell_length_a	19.188905
_cell_length_b	18.266242
_cell_length_c	9.065218
_cell_angle_alpha	89.996786
_cell_angle_beta	95.924779
_cell_angle_gamma	90.016065
loop_
_atom_site_label
_atom_site_type_symbol
_atom_site_fract_x
_atom_site_fract_y
_atom_site_fract_z
O1	O	0.927590	0.060999	-0.184000
O2	O	1.427590	0.560999	0.316000
O3	O	0.724469	0.060974	-0.208832
O4	O	1.224469	0.560974	0.291168
O5	O	0.830228	0.060985	0.018373
O6	O	1.330228	0.560985	0.518373
O7	O	0.821831	0.060987	-0.411205
O8	O	1.321831	0.560987	0.088795
O9	O	0.830210	-0.060777	0.018379
O10	O	1.330210	0.439223	0.518379
O11	O	0.724451	-0.060788	-0.208825
O12	O	1.224451	0.439212	0.291175
O13	O	0.927572	-0.060763	-0.183994
O14	O	1.427572	0.439237	0.316006
Zn15	Zn	0.826008	-0.080108	-0.196408
Zn16	Zn	1.326008	0.419892	0.303592
Zn17	Zn	0.826032	0.080319	-0.196417
Zn18	Zn	1.326032	0.580319	0.303583
O19	O	0.821813	-0.060775	-0.411198
O20	O	1.321813	0.439225	0.088802
C21	C	0.698442	0.000089	-0.208031
C22	C	1.198442	0.500089	0.291969
C23	C	0.620918	0.000080	-0.205635
C24	C	1.120918	0.500080	0.294365
C25	C	0.584528	0.066454	-0.204488
C26	C	1.084528	0.566454	0.295512
C27	C	0.511686	0.066463	-0.202221
C28	C	1.011686	0.566463	0.297779
C29	C	0.475240	0.000094	-0.201071
C30	C	0.975240	0.500094	0.298929
C31	C	0.511639	-0.066289	-0.202227
C32	C	1.011639	0.433711	0.297773
C33	C	0.584478	-0.066296	-0.204509
C34	C	1.084478	0.433704	0.295491
N35	N	0.365533	-0.049298	-0.113534
N36	N	0.865533	0.450702	0.386466
N37	N	0.296339	-0.049287	-0.111363
N38	N	0.796339	0.450713	0.388637
C39	C	0.255780	0.000112	-0.194199
C40	C	0.755780	0.500112	0.305801
N41	N	0.287031	0.049510	-0.279269
N42	N	0.787031	0.549510	0.220731
N43	N	0.356231	0.049501	-0.281433
N44	N	0.856231	0.549501	0.218567
C45	C	0.396259	0.000095	-0.198598
C46	C	0.896259	0.500095	0.301402
C47	C	0.140407	0.066501	-0.190595
C48	C	0.640407	0.566501	0.309405
C49	C	0.067564	0.066507	-0.188337
C50	C	0.567564	0.566507	0.311663
C51	C	0.067519	-0.066247	-0.188328
C52	C	0.567519	0.433753	0.311672
C53	C	0.140360	-0.066252	-0.190601
C54	C	0.640360	0.433748	0.309399
C55	C	0.176800	0.000124	-0.191728
C56	C	0.676800	0.500124	0.308272
N57	N	0.825997	-0.189595	-0.196402
N58	N	1.325997	0.310405	0.303598
C59	C	0.868900	-0.227892	-0.285654
C60	C	1.368900	0.272108	0.214346
C61	C	0.868912	-0.304537	-0.285650
C62	C	1.368912	0.195463	0.214350
C63	C	0.826007	-0.342882	-0.196411
C64	C	1.326007	0.157118	0.303589
C65	C	0.783101	-0.304576	-0.107140
C66	C	1.283101	0.195424	0.392860
C67	C	0.783096	-0.227933	-0.107136
C68	C	1.283096	0.272067	0.392864
N69	N	0.764831	-0.463242	-0.192788
N70	N	1.264831	0.036758	0.307212
N71	N	0.764837	-0.536050	-0.192801
N72	N	1.264837	-0.036050	0.307199
C73	C	0.826021	-0.573804	-0.196416
C74	C	1.326021	-0.073804	0.303584
N75	N	0.887199	-0.536000	-0.200047
N76	N	1.387199	-0.036000	0.299953
N77	N	0.887191	-0.463185	-0.200043
N78	N	1.387191	0.036815	0.299957
C79	C	0.826008	-0.425989	-0.196405
C80	C	1.326008	0.074011	0.303595
C81	C	0.868940	-0.695208	-0.285669
C82	C	1.368940	-0.195208	0.214331
C83	C	0.868953	-0.771855	-0.285654
C84	C	1.368953	-0.271855	0.214346
C85	C	0.783137	-0.771892	-0.107153
C86	C	1.283137	-0.271892	0.392847
C87	C	0.783130	-0.695247	-0.107159
C88	C	1.283130	-0.195247	0.392841
C89	C	0.826031	-0.656910	-0.196425
C90	C	1.326031	-0.156910	0.303575
C91	C	0.953598	0.000123	-0.184795
C92	C	1.453598	0.500123	0.315205
C93	C	1.031122	0.000137	-0.187190
C94	C	1.531122	0.500137	0.312810
C95	C	0.829412	0.000105	0.073335
C96	C	1.329412	0.500105	0.573335
C97	C	0.826999	0.000109	0.237093
C98	C	1.326999	0.500109	0.737093
N99	N	0.826049	0.189805	-0.196412
N100	N	1.326049	0.689805	0.303588
C101	C	0.822629	0.000107	-0.466160
C102	C	1.322629	0.500107	0.033840
C103	C	0.825042	0.000108	-0.629919
C104	C	1.325042	0.500108	-0.129919
H105	H	0.169990	-0.120301	-0.191526
H106	H	0.669990	0.379699	0.308474
C107	C	0.038131	0.179670	-0.314402
C108	C	0.538131	0.679670	0.185598
C109	C	0.027562	0.139473	-0.187075
C110	C	0.527562	0.639473	0.312925
H111	H	0.013439	0.224719	-0.313614
H112	H	0.513439	0.724719	0.186386
H113	H	0.021393	0.152405	-0.400027
H114	H	0.521393	0.652405	0.099973
H115	H	0.086730	0.189157	-0.315901
H116	H	0.586730	0.689157	0.184099
H117	H	-0.021036	0.129982	-0.185582
H118	H	0.478964	0.629982	0.314418
H119	H	0.044296	0.166744	-0.101428
H120	H	0.544296	0.666744	0.398572
H121	H	0.903873	-0.663992	-0.358353
H122	H	1.403873	-0.163992	0.141647
C123	C	-0.044152	-0.125181	-0.184797
C124	C	0.455848	0.374819	0.315203
C125	C	0.027467	-0.139203	-0.187048
C126	C	0.527467	0.360797	0.312952
H127	H	-0.068879	-0.170224	-0.183997
H128	H	0.431121	0.329776	0.316003
H129	H	-0.060866	-0.097919	-0.270434
H130	H	0.439134	0.402081	0.229566
H131	H	-0.051283	-0.097902	-0.098416
H132	H	0.448717	0.402098	0.401584
H133	H	0.034598	-0.166477	-0.273435
H134	H	0.534598	0.333523	0.226565
H135	H	0.044185	-0.166477	-0.101403
H136	H	0.544185	0.333523	0.398597
C137	C	0.953763	-0.764114	-0.462122
C138	C	1.453763	-0.264114	0.037878
C139	C	0.916115	-0.813954	-0.383771
C140	C	1.416115	-0.313954	0.116229
H141	H	0.982875	-0.790106	-0.522703
H142	H	1.482875	-0.290106	-0.022703
H143	H	0.981943	-0.734213	-0.394083
H144	H	1.481943	-0.234213	0.105917
H145	H	0.922001	-0.734229	-0.522737
H146	H	1.422001	-0.234229	-0.022737
H147	H	0.947877	-0.843835	-0.323148
H148	H	1.447877	-0.343835	0.176852
H149	H	0.887933	-0.843867	-0.451819
H150	H	1.387933	-0.343867	0.048181
C151	C	0.665807	-0.671707	-0.049891
C152	C	1.165807	-0.171707	0.450109
C153	C	0.735956	-0.653151	-0.009069
C154	C	1.235956	-0.153151	0.490931
H155	H	0.636683	-0.645717	0.010666
H156	H	1.136683	-0.145717	0.510666
H157	H	0.659680	-0.722835	-0.037119
H158	H	1.159680	-0.222835	0.462881
H159	H	0.653482	-0.659142	-0.150902
H160	H	1.153482	-0.159142	0.349098
H161	H	0.748282	-0.665722	0.091940
H162	H	1.248282	-0.165722	0.591940
H163	H	0.742086	-0.602012	-0.021828
H164	H	1.242086	-0.102012	0.478172
C165	C	0.953728	-0.235559	-0.462088
C166	C	1.453728	0.264441	0.037912
C167	C	0.916065	-0.185752	-0.383755
C168	C	1.416065	0.314248	0.116245
H169	H	0.982850	-0.209541	-0.522641
H170	H	1.482850	0.290459	-0.022641
H171	H	0.921981	-0.265457	-0.522716
H172	H	1.421981	0.234543	-0.022716
H173	H	0.981906	-0.265449	-0.394027
H174	H	1.481906	0.234551	0.105973
H175	H	0.887883	-0.155865	-0.451817
H176	H	1.387883	0.344135	0.048183
H177	H	0.947816	-0.155842	-0.323123
H178	H	1.447816	0.344158	0.176877
H179	H	0.903849	-0.335724	-0.358334
H180	H	1.403849	0.164276	0.141666
H181	H	0.748158	-0.196752	-0.034454
H182	H	1.248158	0.303248	0.465546
H183	H	0.614193	0.120503	-0.205405
H184	H	1.114193	0.620503	0.294595
H185	H	0.481960	-0.120327	-0.201294
H186	H	0.981960	0.379673	0.298706
H187	H	0.748169	-0.335802	-0.034480
H188	H	1.248169	0.164198	0.465520
C189	C	0.482233	0.179623	-0.328288
C190	C	0.982233	0.679623	0.171712
C191	C	0.471674	0.139426	-0.200956
C192	C	0.971674	0.639426	0.299044
H193	H	0.457534	0.224668	-0.327499
H194	H	0.957534	0.724668	0.172501
H195	H	0.465496	0.152355	-0.413909
H196	H	0.965496	0.652355	0.086091
H197	H	0.530830	0.189117	-0.329794
H198	H	1.030830	0.689117	0.170206
H199	H	0.423077	0.129928	-0.199455
H200	H	0.923077	0.629928	0.300545
H201	H	0.488406	0.166700	-0.115313
H202	H	0.988406	0.666700	0.384687
H203	H	0.614107	-0.120348	-0.205444
H204	H	1.114107	0.379652	0.294556
H205	H	0.170077	0.120548	-0.191528
H206	H	0.670077	0.620548	0.308472
H207	H	0.748204	-0.803112	-0.034491
H208	H	1.248204	-0.303112	0.465509
