data_functionalizedCrystal
_audit_creation_method	'MofGen! by Chris Wilmer'
_symmetry_space_group_name_H-M	'P1'
_symmetry_Int_Tables_number	1
_symmetry_cell_setting	triclinic
loop_
_symmetry_equiv_pos_as_xyz
  x,y,z
_cell_length_a	21.395362
_cell_length_b	12.759400
_cell_length_c	21.395364
_cell_angle_alpha	90.009960
_cell_angle_beta	90.034975
_cell_angle_gamma	90.030564
loop_
_atom_site_label
_atom_site_type_symbol
_atom_site_fract_x
_atom_site_fract_y
_atom_site_fract_z
Zn1	Zn	0.957874	-0.417983	0.354606
Zn2	Zn	1.457874	0.082017	0.854606
Zn3	Zn	0.957822	-0.593636	0.249837
Zn4	Zn	1.457822	-0.093636	0.749837
Zn5	Zn	0.853105	-0.418020	0.249807
Zn6	Zn	1.353105	0.081980	0.749807
Zn7	Zn	0.853087	-0.593669	0.354542
Zn8	Zn	1.353087	-0.093669	0.854542
O9	O	0.905472	-0.505827	0.302198
O10	O	1.405472	-0.005827	0.802198
O11	O	1.045545	-0.441254	0.340747
O12	O	1.545545	0.058746	0.840747
O13	O	0.943917	-0.570341	0.162155
O14	O	1.443917	-0.070341	0.662155
O15	O	0.867032	-0.270994	0.263723
O16	O	1.367032	0.229006	0.763723
O17	O	1.045507	-0.570305	0.263774
O18	O	1.545507	-0.070305	0.763774
O19	O	0.944005	-0.270967	0.340718
O20	O	1.444005	0.229033	0.840718
O21	O	0.866982	-0.441317	0.162133
O22	O	1.366982	0.058683	0.662133
O23	O	0.765425	-0.441350	0.263661
O24	O	1.265425	0.058650	0.763661
O25	O	0.867001	-0.570363	0.442228
O26	O	1.367001	-0.070363	0.942228
O27	O	0.765412	-0.570399	0.340609
O28	O	1.265412	-0.070399	0.840609
O29	O	0.943988	-0.441287	0.442275
O30	O	1.443988	0.058713	0.942275
O31	O	0.943899	-0.740661	0.263712
O32	O	1.443899	-0.240661	0.763712
O33	O	0.866951	-0.740686	0.340638
O34	O	1.366951	-0.240686	0.840638
C35	C	0.742684	-0.505883	0.302125
C36	C	1.242684	-0.005883	0.802125
C37	C	0.673043	-0.505932	0.302109
C38	C	1.173043	-0.005932	0.802109
C39	C	0.905435	-0.778794	0.302185
C40	C	1.405435	-0.278794	0.802185
C41	C	0.905476	-0.895571	0.302200
C42	C	1.405476	-0.395571	0.802200
C43	C	0.640339	-0.573216	0.342116
C44	C	1.140339	-0.073216	0.842116
C45	C	0.574904	-0.573191	0.342144
C46	C	1.074904	-0.073191	0.842144
C47	C	0.542175	-0.505891	0.302154
C48	C	1.042175	-0.005891	0.802154
C49	C	0.574886	-0.438593	0.262144
C50	C	1.074886	0.061407	0.762144
C51	C	0.640320	-0.438614	0.262122
C52	C	1.140320	0.061386	0.762122
C53	C	0.438457	-0.497421	0.245748
C54	C	0.938457	0.002579	0.745748
C55	C	0.373024	-0.497408	0.245769
C56	C	0.873024	0.002592	0.745769
C57	C	0.340354	-0.505823	0.302223
C58	C	0.840354	-0.005823	0.802223
C59	C	0.373125	-0.514272	0.358657
C60	C	0.873125	-0.014272	0.858657
C61	C	0.438559	-0.514292	0.358634
C62	C	0.938559	-0.014292	0.858634
C63	C	0.471222	-0.505861	0.302174
C64	C	0.971222	-0.005861	0.802174
C65	C	0.236698	-0.573083	0.342263
C66	C	0.736698	-0.073083	0.842263
C67	C	0.171261	-0.573050	0.342292
C68	C	0.671261	-0.073050	0.842292
C69	C	0.171245	-0.438458	0.262287
C70	C	0.671245	0.061542	0.762287
C71	C	0.236680	-0.438486	0.262263
C72	C	0.736680	0.061514	0.762263
C73	C	0.269403	-0.505804	0.302251
C74	C	0.769403	-0.005804	0.802251
C75	C	0.945588	-0.950385	0.262189
C76	C	1.445588	-0.450385	0.762189
C77	C	0.945626	-1.060109	0.262208
C78	C	1.445626	-0.560109	0.762208
C79	C	0.865436	-1.060195	0.342252
C80	C	1.365436	-0.560195	0.842252
C81	C	0.865402	-0.950473	0.342235
C82	C	1.365402	-0.450473	0.842235
C83	C	0.985662	-0.895483	0.222154
C84	C	1.485662	-0.395483	0.722154
C85	C	1.025776	-0.950298	0.182139
C86	C	1.525776	-0.450298	0.682139
C87	C	1.025815	-1.060022	0.182159
C88	C	1.525815	-0.560022	0.682159
C89	C	0.985739	-1.114931	0.222193
C90	C	1.485739	-0.614931	0.722193
C91	C	1.068895	-0.505772	0.302271
C92	C	1.568895	-0.005772	0.802271
C93	C	1.138537	-0.505749	0.302302
C94	C	1.638537	-0.005749	0.802302
C95	C	0.905498	-0.505824	0.465621
C96	C	1.405498	-0.005824	0.965621
C97	C	0.905510	-0.505823	0.535262
C98	C	1.405510	-0.005823	1.035262
C99	C	0.905526	-0.231794	0.302225
C100	C	1.405526	0.268206	0.802225
C101	C	0.905550	-0.115017	0.302236
C102	C	1.405550	0.384983	0.802236
C103	C	0.865456	-0.438645	0.567954
C104	C	1.365456	0.061355	1.067954
C105	C	0.865444	-0.438651	0.633390
C106	C	1.365444	0.061349	1.133390
C107	C	0.905498	-0.505823	0.666131
C108	C	1.405498	-0.005823	1.166131
C109	C	0.945555	-0.573014	0.633431
C110	C	1.445555	-0.073014	1.133431
C111	C	0.945561	-0.573014	0.567997
C112	C	1.445561	-0.073014	1.067997
C113	C	0.961937	-0.514097	0.769836
C114	C	1.461937	-0.014097	1.269836
C115	C	0.961933	-0.514089	0.835269
C116	C	1.461933	-0.014089	1.335269
C117	C	0.905480	-0.505829	0.867951
C118	C	1.405480	-0.005829	1.367951
C119	C	0.849031	-0.497555	0.835192
C120	C	1.349031	0.002445	1.335192
C121	C	0.849037	-0.497555	0.769758
C122	C	1.349037	0.002445	1.269758
C123	C	0.905496	-0.505831	0.737083
C124	C	1.405496	-0.005831	1.237083
C125	C	0.865411	-0.438654	0.971596
C126	C	1.365411	0.061346	1.471596
C127	C	0.865399	-0.438667	1.037032
C128	C	1.365399	0.061333	1.537032
C129	C	0.945515	-0.573025	1.037072
C130	C	1.445515	-0.073025	1.537072
C131	C	0.945521	-0.573017	0.971637
C132	C	1.445521	-0.073017	1.471637
C133	C	0.905470	-0.505826	0.938903
C134	C	1.405470	-0.005826	1.438903
C135	C	0.905447	-0.505850	1.139410
C136	C	1.405447	-0.005850	1.639410
C137	C	0.905452	-0.505841	1.069769
C138	C	1.405452	-0.005841	1.569769
H139	H	0.666978	-0.628030	0.374677
H140	H	1.166978	-0.128030	0.874677
H141	H	0.144597	-0.383657	0.229729
H142	H	0.644597	0.116343	0.729729
H143	H	0.263342	-0.627892	0.374826
H144	H	0.763342	-0.127892	0.874826
H145	H	0.803063	-0.490822	0.861801
H146	H	1.303063	0.009178	1.361801
Cl147	Cl	0.533782	-0.657784	0.392442
Cl148	Cl	1.033782	-0.157784	0.892442
H149	H	0.832777	-0.383966	1.063649
H150	H	1.332777	0.116034	1.563649
Cl151	Cl	0.815058	-0.354194	0.930441
Cl152	Cl	1.315058	0.145806	1.430441
Cl153	Cl	0.479754	-0.524907	0.429576
Cl154	Cl	0.979754	-0.024907	0.929576
Cl155	Cl	1.076248	-1.128929	0.131861
Cl156	Cl	1.576248	-0.628929	0.631861
H157	H	0.832808	-1.104911	0.374845
H158	H	1.332808	-0.604911	0.874845
Cl159	Cl	0.985792	-0.757545	0.222303
Cl160	Cl	1.485792	-0.257545	0.722303
Cl161	Cl	0.130148	-0.657639	0.392595
Cl162	Cl	0.630148	-0.157639	0.892595
Cl163	Cl	0.332061	-0.524845	0.429632
Cl164	Cl	0.832061	-0.024845	0.929632
H165	H	0.803074	-0.490820	0.743089
H166	H	1.303074	0.009180	1.243089
Cl167	Cl	1.076160	-0.881271	0.131820
Cl168	Cl	1.576160	-0.381271	0.631820
H169	H	0.985779	-1.204276	0.222210
H170	H	1.485779	-0.704276	0.722210
Cl171	Cl	0.814976	-0.881558	0.392537
Cl172	Cl	1.314976	-0.381558	0.892537
H173	H	0.832841	-0.383937	0.541306
H174	H	1.332841	0.116063	1.041306
Cl175	Cl	0.815101	-0.354169	0.674497
Cl176	Cl	1.315101	0.145831	1.174497
H177	H	0.465052	-0.490564	0.199774
H178	H	0.965052	0.009436	0.699774
Cl179	Cl	0.995865	-0.657478	1.078226
Cl180	Cl	1.495865	-0.157478	1.578226
H181	H	0.978139	-0.627718	0.945019
H182	H	1.478139	-0.127718	1.445019
Cl183	Cl	1.032895	-0.524503	0.876445
Cl184	Cl	1.532895	-0.024503	1.376445
Cl185	Cl	1.032912	-0.524489	0.728757
Cl186	Cl	1.532912	-0.024489	1.228757
Cl187	Cl	0.331834	-0.486785	0.174825
Cl188	Cl	0.831834	0.013215	0.674825
H189	H	0.666947	-0.383819	0.229543
H190	H	1.166947	0.116181	0.729543
H191	H	0.978167	-0.627707	0.660093
H192	H	1.478167	-0.127707	1.160093
H193	H	0.548234	-0.383796	0.229585
H194	H	1.048234	0.116204	0.729585
H195	H	0.263308	-0.383701	0.229682
H196	H	0.763308	0.116299	0.729682
Cl197	Cl	0.995920	-0.657472	0.526896
Cl198	Cl	1.495920	-0.157472	1.026896
