data_functionalizedCrystal
_audit_creation_method	'MofGen! by Chris Wilmer'
_symmetry_space_group_name_H-M	'P1'
_symmetry_Int_Tables_number	1
_symmetry_cell_setting	triclinic
loop_
_symmetry_equiv_pos_as_xyz
  x,y,z
_cell_length_a	19.805407
_cell_length_b	25.639240
_cell_length_c	19.805399
_cell_angle_alpha	90.035908
_cell_angle_beta	90.019573
_cell_angle_gamma	90.032757
loop_
_atom_site_label
_atom_site_type_symbol
_atom_site_fract_x
_atom_site_fract_y
_atom_site_fract_z
Zn1	Zn	1.034706	-0.208163	0.382680
Zn2	Zn	1.034608	-0.295597	0.269476
Zn3	Zn	0.921520	-0.208177	0.269505
Zn4	Zn	0.921471	-0.295569	0.382623
O5	O	0.978076	-0.251877	0.326071
O6	O	1.129409	-0.219767	0.367676
O7	O	1.019586	-0.284018	0.174763
O8	O	0.936596	-0.135010	0.284555
O9	O	1.129338	-0.284004	0.284505
O10	O	1.019753	-0.135000	0.367704
O11	O	0.936501	-0.219791	0.174785
O12	O	0.826797	-0.219764	0.284498
O13	O	0.936513	-0.283957	0.477347
O14	O	0.826761	-0.283971	0.367605
O15	O	1.019705	-0.219740	0.477389
O16	O	1.019539	-0.368758	0.284448
O17	O	0.936418	-0.368738	0.367577
C18	C	0.802220	-0.251867	0.326049
C19	C	0.726988	-0.251875	0.326056
C20	C	0.691643	-0.285357	0.369259
C21	C	0.620955	-0.285358	0.369269
C22	C	0.585613	-0.251879	0.326071
C23	C	0.620963	-0.218393	0.282865
C24	C	0.691650	-0.218390	0.282860
C25	C	0.335890	-0.218404	0.282888
C26	C	0.265198	-0.218411	0.282895
C27	C	0.265194	-0.285373	0.369297
C28	C	0.335881	-0.285370	0.369291
C29	C	0.371225	-0.251882	0.326089
C30	C	0.447874	-0.251881	0.326080
C31	C	0.508966	-0.251883	0.326076
C32	C	0.977981	-0.387719	0.326018
C33	C	0.978002	-0.445833	0.326018
C34	C	1.021398	-0.806152	0.369445
C35	C	1.021418	-0.860757	0.369459
O36	O	1.058201	-0.888956	0.406328
N37	N	0.978170	-0.888116	0.326136
C38	C	0.934895	-0.860868	0.282802
O39	O	0.898112	-0.889153	0.245955
C40	C	0.934873	-0.806264	0.282792
C41	C	0.978128	-0.778908	0.326113
C42	C	1.064649	-0.778796	0.412762
C43	C	1.064629	-0.724195	0.412748
C44	C	1.021359	-0.696951	0.369415
C45	C	0.978108	-0.724307	0.326098
C46	C	0.891595	-0.779017	0.239462
C47	C	0.891575	-0.724410	0.239456
C48	C	0.934830	-0.697054	0.282777
C49	C	0.934819	-0.642463	0.282751
N50	N	0.978066	-0.615104	0.326073
C51	C	1.021336	-0.642348	0.369406
C52	C	0.934946	-0.975538	0.282827
C53	C	0.934972	-1.030140	0.282833
C54	C	1.021493	-1.030026	0.369491
C55	C	1.021470	-0.975422	0.369481
C56	C	0.978193	-0.948179	0.326149
C57	C	1.021293	-0.527683	0.369371
C58	C	1.021272	-0.473077	0.369350
C59	C	0.934748	-0.473197	0.282695
C60	C	0.934772	-0.527798	0.282713
C61	C	0.978046	-0.555039	0.326056
O62	O	0.898053	-0.614229	0.245903
O63	O	1.058108	-0.614056	0.406253
C64	C	1.154619	-0.251887	0.326093
C65	C	1.229851	-0.251891	0.326103
C66	C	0.978114	-0.251844	0.502614
C67	C	0.978131	-0.251830	0.577846
C68	C	0.978191	-0.115504	0.326139
C69	C	0.978240	-0.057389	0.326168
C70	C	0.978078	-0.251872	0.150215
C71	C	0.978193	-0.251738	0.074983
C72	C	1.021450	-0.218390	0.613213
C73	C	1.021457	-0.218375	0.683902
C74	C	0.978147	-0.251802	0.719221
C75	C	0.934823	-0.285243	0.683849
C76	C	0.934813	-0.285255	0.613162
C77	C	0.934861	-0.285194	0.968923
C78	C	0.934876	-0.285181	1.039615
C79	C	1.021505	-0.218314	1.039662
C80	C	1.021495	-0.218326	0.968975
C81	C	0.978169	-0.251765	0.933609
C82	C	0.978161	-0.251780	0.856960
C83	C	0.978158	-0.251790	0.795869
H84	H	1.056498	-0.450806	0.404627
H85	H	1.056765	-0.191108	0.940221
C86	C	1.068348	-0.557160	0.416457
C87	C	1.106227	-0.521506	0.454374
C88	C	1.149587	-0.548641	0.497749
H89	H	1.042522	-0.578459	0.445992
H90	H	1.097903	-0.578447	0.390619
H91	H	1.076675	-0.500228	0.480210
H92	H	1.132066	-0.500206	0.424856
H93	H	1.179142	-0.569928	0.471911
H94	H	1.123756	-0.569939	0.527279
H95	H	1.175297	-0.524454	0.523476
C96	C	0.582549	-0.321629	0.416259
C97	C	0.542020	-0.292076	0.459739
C98	C	0.506640	-0.325472	0.503043
H99	H	0.554892	-0.344394	0.390391
H100	H	0.613703	-0.341559	0.442019
H101	H	0.510869	-0.272154	0.433981
H102	H	0.569660	-0.269311	0.485622
H103	H	0.537795	-0.345402	0.528804
H104	H	0.478987	-0.348236	0.477170
H105	H	0.479142	-0.305425	0.532554
C106	C	0.887940	-1.059744	0.235767
C107	C	0.850034	-1.024190	0.197831
C108	C	0.806691	-1.051439	0.154475
H109	H	0.913779	-1.081048	0.206244
H110	H	0.858402	-1.081035	0.261620
H111	H	0.879568	-1.002908	0.171980
H112	H	0.824181	-1.002885	0.227337
H113	H	0.777152	-1.072731	0.180328
H114	H	0.832535	-1.072743	0.124956
H115	H	0.780962	-1.027321	0.128735
C116	C	1.068318	-0.945656	0.416558
C117	C	1.029956	-0.914302	0.459891
C118	C	1.073089	-0.886872	0.503265
H119	H	1.094106	-0.969646	0.442428
H120	H	1.097806	-0.924319	0.390712
H121	H	1.000479	-0.935638	0.485735
H122	H	1.004169	-0.890302	0.434039
H123	H	1.102577	-0.865534	0.477418
H124	H	1.098875	-0.910866	0.529130
H125	H	1.047067	-0.865591	0.532667
H126	H	1.056720	-0.191171	0.584461
C127	C	0.844553	-0.808615	0.192405
C128	C	0.806644	-0.773057	0.154477
C129	C	0.763292	-0.800302	0.111126
H130	H	0.870385	-0.829919	0.162876
H131	H	0.815017	-0.829906	0.218260
H132	H	0.836176	-0.751775	0.128624
H133	H	0.780798	-0.751752	0.183988
H134	H	0.733755	-0.821594	0.136981
H135	H	0.789129	-0.821606	0.081601
H136	H	0.737561	-0.776181	0.085391
C137	C	0.226697	-0.321672	0.416185
C138	C	0.157228	-0.314500	0.406963
C139	C	0.121746	-0.347924	0.450147
H140	H	0.238173	-0.356811	0.406231
H141	H	0.238270	-0.314061	0.461695
H142	H	0.145660	-0.322114	0.361463
H143	H	0.145733	-0.279367	0.416922
H144	H	0.133319	-0.340314	0.495657
H145	H	0.133227	-0.383062	0.440190
H146	H	0.074608	-0.343060	0.443900
H147	H	1.099884	-0.800972	0.448053
C148	C	1.068467	-0.182022	1.078183
C149	C	1.059194	-0.189151	1.147648
C150	C	1.102436	-0.155726	1.183152
H151	H	1.113963	-0.189646	1.066686
H152	H	1.058582	-0.146883	1.066651
H153	H	1.069083	-0.224282	1.159176
H154	H	1.013707	-0.181523	1.159165
H155	H	1.092552	-0.120587	1.171619
H156	H	1.147930	-0.163353	1.171650
H157	H	1.096147	-0.160555	1.230287
H158	H	0.899592	-0.312430	0.940136
H159	H	0.236424	-0.191145	0.247718
C160	C	0.729994	-0.182105	0.235836
C161	C	0.712778	-0.193432	0.168839
C162	C	0.748094	-0.160021	0.125503
H163	H	0.718467	-0.146966	0.245739
H164	H	0.777160	-0.186902	0.241975
H165	H	0.665623	-0.188630	0.162703
H166	H	0.724306	-0.228565	0.158915
H167	H	0.795260	-0.164818	0.131642
H168	H	0.736564	-0.124884	0.135412
H169	H	0.736422	-0.167705	0.080041
C170	C	0.374130	-0.321739	0.416267
C171	C	0.328046	-0.351052	0.454120
C172	C	0.363254	-0.384554	0.497411
H173	H	0.401683	-0.344539	0.390393
H174	H	0.401715	-0.301777	0.445842
H175	H	0.300472	-0.371013	0.424550
H176	H	0.300492	-0.328266	0.480008
H177	H	0.390840	-0.364592	0.526985
H178	H	0.390806	-0.407351	0.471531
H179	H	0.331992	-0.404444	0.523103
C180	C	0.887764	-0.321627	0.574882
C181	C	0.849854	-0.350912	0.620941
C182	C	0.806513	-0.384429	0.585704
H183	H	0.858224	-0.301693	0.547305
H184	H	0.913626	-0.344440	0.547319
H185	H	0.823995	-0.328102	0.648493
H186	H	0.879377	-0.370856	0.648520
H187	H	0.832374	-0.407242	0.558141
H188	H	0.776977	-0.364491	0.558128
H189	H	0.780790	-0.404307	0.616949
H190	H	0.899557	-0.312458	0.712612
H191	H	0.364658	-0.191140	0.247704
H192	H	0.592182	-0.191131	0.247696
C193	C	1.111614	-0.694593	0.459861
C194	C	1.149494	-0.730149	0.497820
C195	C	1.192779	-0.702902	0.541237
H196	H	1.141177	-0.673286	0.434073
H197	H	1.085713	-0.673304	0.489362
H198	H	1.175394	-0.751429	0.468322
H199	H	1.119950	-0.751457	0.523621
H200	H	1.166877	-0.681613	0.570739
H201	H	1.222337	-0.681596	0.515444
H202	H	1.218481	-0.727022	0.567002
H203	H	0.856332	-0.702231	0.204172
H204	H	1.056725	-1.052218	0.404775
C205	C	1.068568	-0.182051	0.722179
C206	C	1.106510	-0.152793	0.676118
C207	C	1.149923	-0.119330	0.711353
H208	H	1.042778	-0.159215	0.749762
H209	H	1.098080	-0.202039	0.749735
H210	H	1.077002	-0.132807	0.648573
H211	H	1.132314	-0.175615	0.648533
H212	H	1.179436	-0.139317	0.738910
H213	H	1.124128	-0.096497	0.738935
H214	H	1.175677	-0.099477	0.680106
C215	C	0.729976	-0.321642	0.416276
C216	C	0.712829	-0.310315	0.483274
C217	C	0.748133	-0.343725	0.526607
H218	H	0.718393	-0.356782	0.406374
H219	H	0.777144	-0.316842	0.410131
H220	H	0.665672	-0.315120	0.489415
H221	H	0.724414	-0.275182	0.493196
H222	H	0.795300	-0.338924	0.520463
H223	H	0.736546	-0.378862	0.516699
H224	H	0.736508	-0.336041	0.572070
H225	H	0.899555	-0.550072	0.247433
H226	H	0.899605	-0.312402	1.068370
H227	H	0.899707	-0.953359	0.247536
H228	H	0.899520	-0.451006	0.247413
