data_functionalizedCrystal
_audit_creation_method	'MofGen! by Chris Wilmer'
_symmetry_space_group_name_H-M	'P1'
_symmetry_Int_Tables_number	1
_symmetry_cell_setting	triclinic
loop_
_symmetry_equiv_pos_as_xyz
  x,y,z
_cell_length_a	20.875641
_cell_length_b	23.196402
_cell_length_c	23.196401
_cell_angle_alpha	59.997914
_cell_angle_beta	90.004301
_cell_angle_gamma	57.590473
loop_
_atom_site_label
_atom_site_type_symbol
_atom_site_fract_x
_atom_site_fract_y
_atom_site_fract_z
Zr1	Zr	0.641483	0.588705	-0.054504
O2	O	0.535143	0.716002	-0.150066
O3	O	0.674079	0.466283	-0.025210
O4	O	0.674057	0.586572	-0.145489
O5	O	0.535185	0.595696	0.065092
O6	O	0.783638	0.579344	-0.141876
O7	O	0.535165	0.595713	-0.029788
O8	O	0.783677	0.364169	0.073280
O9	O	0.535146	0.810871	-0.150065
O10	O	0.769763	0.509437	-0.010019
O11	O	0.687999	0.514818	0.058093
O12	O	0.687974	0.656443	-0.083520
O13	O	0.606210	0.661824	-0.015408
Zr14	Zr	0.816284	0.577149	0.102580
Zr15	Zr	0.816252	0.577177	-0.048742
Zr16	Zr	0.641515	0.588677	0.096818
Zr17	Zr	0.641488	0.740009	-0.054501
Zr18	Zr	0.816279	0.425844	0.102577
O19	O	0.783688	0.699571	0.073286
O20	O	0.783642	0.699611	-0.141874
O21	O	0.535189	0.715962	0.065094
O22	O	0.922624	0.449851	0.198142
O23	O	0.922578	0.449891	-0.017018
O24	O	0.674125	0.466243	0.189950
O25	O	0.922582	0.570158	-0.017016
O26	O	0.783710	0.579282	0.193565
O27	O	0.674129	0.586510	0.189952
O28	O	0.922602	0.570140	0.077863
O29	O	0.674064	0.801707	-0.145485
O30	O	0.783703	0.364146	0.193561
O31	O	0.922621	0.354983	0.198140
O32	O	0.922595	0.355005	0.077860
O33	O	0.535172	0.810849	-0.029784
O34	O	0.674090	0.801685	-0.025204
O35	O	0.769794	0.509411	0.131596
O36	O	0.851557	0.504029	0.063484
O37	O	0.769768	0.651036	-0.010017
O38	O	0.688004	0.656417	0.058095
C39	C	0.728878	0.393668	0.024035
C40	C	0.728876	0.329436	0.024034
C41	C	0.510274	0.597347	0.016831
C42	C	0.436080	0.602241	0.014385
C43	C	0.668518	-0.077156	-0.030221
C44	C	0.668511	-0.016798	-0.030221
C45	C	0.728891	-0.042872	0.024038
C46	C	0.789269	-0.129313	0.078311
C47	C	0.789269	-0.189668	0.078313
C48	C	0.802579	0.007844	0.042756
C49	C	0.802579	0.068200	0.042749
C50	C	0.728889	0.143281	0.024035
C51	C	0.655195	0.158008	0.005313
C52	C	0.655196	0.097653	0.005315
C53	C	0.728896	0.022567	0.024042
C54	C	0.668504	0.295158	-0.030231
C55	C	0.668497	0.355515	-0.030227
C56	C	0.789261	0.242997	0.078303
C57	C	0.789262	0.182643	0.078301
C58	C	0.728884	0.208729	0.024030
C59	C	0.443915	0.527807	0.051600
C60	C	0.374199	0.532410	0.049300
C61	C	0.296649	0.611449	0.009781
C62	C	0.288816	0.685889	-0.027434
C63	C	0.358531	0.681285	-0.025129
C64	C	0.083569	0.633448	-0.001220
C65	C	0.013852	0.638047	-0.003524
C66	C	0.099240	0.484568	0.073211
C67	C	0.168953	0.479970	0.075508
C68	C	0.161114	0.554410	0.038297
N69	N	0.225387	0.616157	0.007428
N70	N	0.232375	0.549702	0.040655
C71	C	0.947493	0.568507	0.031245
C72	C	1.021687	0.563613	0.033690
C73	C	0.728843	0.582962	-0.165243
C74	C	0.728829	0.582974	-0.229483
C75	C	0.728889	0.772185	0.024041
C76	C	0.728891	0.836418	0.024042
C77	C	0.789200	0.578993	-0.257656
C78	C	0.789219	0.578976	-0.318002
C79	C	0.728853	0.582956	-0.350181
C80	C	0.668477	0.586933	-0.321999
C81	C	0.668465	0.586942	-0.261649
C82	C	0.655182	0.635311	-0.471991
C83	C	0.655193	0.635307	-0.532341
C84	C	0.728889	0.582925	-0.536316
C85	C	0.802579	0.530556	-0.479938
C86	C	0.802567	0.530565	-0.419589
C87	C	0.728859	0.582946	-0.415619
C88	C	0.789284	0.578923	-0.629922
C89	C	0.789303	0.578901	-0.690267
C90	C	0.668555	0.586866	-0.694267
C91	C	0.668543	0.586880	-0.633919
C92	C	0.728907	0.582913	-0.601753
C93	C	0.728924	0.582892	0.213318
C94	C	0.728938	0.582880	0.277559
C95	C	0.947487	0.379248	0.031241
C96	C	1.021679	0.310122	0.033686
C97	C	0.728918	0.393633	0.213315
C98	C	0.728930	0.329389	0.277554
C99	C	0.947527	0.379213	0.220522
C100	C	1.021733	0.310074	0.287207
C101	C	0.510240	0.786641	-0.172446
C102	C	0.436034	0.855779	-0.239131
C103	C	0.510280	0.786606	0.016834
C104	C	0.436088	0.855732	0.014390
C105	C	0.728849	0.772221	-0.165239
C106	C	0.728837	0.836465	-0.229478
C107	C	1.013825	0.280482	-0.003540
C108	C	1.083529	0.215539	-0.001257
C109	C	1.161087	0.180232	0.038256
C110	C	1.168940	0.209878	0.075484
C111	C	1.099236	0.274824	0.073196
C112	C	0.771631	0.296396	0.346096
C113	C	0.771639	0.236040	0.406461
C114	C	0.728950	0.208674	0.398283
C115	C	0.686243	0.241672	0.329734
C116	C	0.686231	0.302032	0.269370
C117	C	1.099268	0.274797	0.282969
C118	C	1.168999	0.209842	0.345621
C119	C	1.161193	0.180161	0.412510
C120	C	1.083650	0.215445	0.416746
C121	C	1.013921	0.280403	0.354094
C122	C	0.358499	0.891064	-0.234894
C123	C	0.288768	0.956038	-0.297545
C124	C	0.296574	0.985722	-0.364434
C125	C	0.374117	0.950434	-0.368670
C126	C	0.443846	0.885465	-0.306019
C127	C	0.443942	0.885379	0.051610
C128	C	0.374238	0.950338	0.049310
C129	C	0.296680	0.985647	0.009795
C130	C	0.288827	0.955998	-0.027430
C131	C	0.358531	0.891043	-0.025134
C132	C	0.771535	0.863812	-0.221278
C133	C	0.771540	0.924168	-0.281631
C134	C	0.728842	0.957180	-0.350184
C135	C	0.686143	0.929827	-0.358384
C136	C	0.686144	0.869468	-0.298031
H137	H	0.619352	-0.055909	-0.074411
H138	H	0.595191	0.677952	-0.578243
H139	H	0.806418	0.209179	0.462271
H140	H	0.352127	0.866900	-0.180435
Br141	Br	0.902603	0.459468	-0.485325
H142	H	0.239929	1.038536	0.007931
Br143	Br	0.183563	1.003923	-0.081053
H144	H	0.806394	0.318671	0.352768
H145	H	1.077119	0.191409	-0.031573
Br146	Br	0.908576	0.328385	-0.057174
Br147	Br	1.274225	0.161968	0.339856
H148	H	0.728848	1.006327	-0.399321
H149	H	0.651487	0.219381	0.323086
H150	H	1.217838	0.127349	0.040113
Br151	Br	0.871159	0.573571	-0.356243
H152	H	1.077306	0.191270	0.471215
H153	H	0.225668	0.750244	-0.059606
Br154	Br	0.072922	0.734474	-0.051724
Br155	Br	0.183542	1.003914	-0.291780
H156	H	0.728966	0.159525	0.447441
H157	H	0.507088	0.856635	0.083792
Br158	Br	0.347856	0.850814	-0.075649
Br159	Br	0.871210	-0.306969	0.151963
Br160	Br	0.549158	0.420534	0.105228
H161	H	0.352147	0.741897	-0.055424
Br162	Br	0.384837	0.431387	0.099817
H163	H	0.380463	0.974611	-0.423138
H164	H	0.619339	0.316398	-0.074421
H165	H	0.806309	0.946432	-0.274940
H166	H	0.595192	0.109648	-0.009928
Br167	Br	0.829488	0.819024	-0.128248
Br168	Br	0.384914	0.990560	0.099835
H169	H	0.651371	0.847209	-0.304719
Br170	Br	0.549070	0.837582	-0.311782
H171	H	0.651380	0.956714	-0.414208
H172	H	0.232094	0.415608	0.107675
Br173	Br	0.871209	0.573535	-0.586264
H174	H	0.950791	0.309119	0.357555
H175	H	0.862567	0.487924	-0.373687
H176	H	0.619337	0.053584	-0.074402
H177	H	0.595190	0.219143	-0.009928
Br178	Br	0.871248	0.573487	-0.728499
Br179	Br	0.871200	0.207603	0.151947
Br180	Br	0.586546	0.472816	-0.103870
H181	H	0.838427	0.112268	0.122486
Br182	Br	0.871123	0.573605	-0.213998
H183	H	1.105640	0.298953	0.228511
Br184	Br	0.902589	0.048213	0.068147
H185	H	0.619380	0.590127	-0.610982
Br186	Br	1.274204	0.161951	0.129108
Br187	Br	0.628277	0.346797	0.176352
H188	H	1.217978	0.127268	0.463519
H189	H	0.862590	-0.053292	0.058000
H190	H	1.105643	0.298949	0.103515
Br191	Br	0.201932	1.073895	-0.449455
H192	H	0.105613	0.423963	0.103507
Br193	Br	0.871207	-0.164701	0.151953
H194	H	-0.049294	0.702413	-0.035707
Br195	Br	0.555163	0.706471	-0.466637
Br196	Br	0.586637	0.592255	-0.737927
H197	H	0.619327	0.590172	-0.348201
H198	H	0.619303	0.590183	-0.238711
