data_functionalizedCrystal
_audit_creation_method	'MofGen! by Chris Wilmer'
_symmetry_space_group_name_H-M	'P1'
_symmetry_Int_Tables_number	1
_symmetry_cell_setting	triclinic
loop_
_symmetry_equiv_pos_as_xyz
  x,y,z
_cell_length_a	16.109301
_cell_length_b	13.930277
_cell_length_c	16.109301
_cell_angle_alpha	89.996786
_cell_angle_beta	83.461481
_cell_angle_gamma	90.003874
loop_
_atom_site_label
_atom_site_type_symbol
_atom_site_fract_x
_atom_site_fract_y
_atom_site_fract_z
O1	O	1.103136	0.079773	0.106855
O2	O	1.603136	0.579773	0.606855
O3	O	0.861074	0.079789	0.120155
O4	O	1.361074	0.579789	0.620155
O5	O	0.988754	0.079771	-0.007526
O6	O	1.488754	0.579771	0.492474
O7	O	0.975455	0.079791	0.234536
O8	O	1.475455	0.579791	0.734536
O9	O	0.988736	-0.079891	-0.007506
O10	O	1.488736	0.420109	0.492494
O11	O	0.861055	-0.079873	0.120174
O12	O	1.361055	0.420127	0.620174
O13	O	1.103117	-0.079889	0.106875
O14	O	1.603117	0.420111	0.606875
Zn15	Zn	0.982083	-0.105231	0.113528
Zn16	Zn	1.482083	0.394769	0.613528
Zn17	Zn	0.982108	0.105131	0.113502
Zn18	Zn	1.482108	0.605131	0.613502
O19	O	0.975436	-0.079871	0.234556
O20	O	1.475436	0.420129	0.734556
C21	C	0.830090	-0.000040	0.119626
C22	C	1.330090	0.499960	0.619626
C23	C	0.737794	-0.000035	0.118011
C24	C	1.237794	0.499965	0.618011
C25	C	0.515522	-0.000040	0.190018
C26	C	1.015522	0.499960	0.690018
C27	C	0.428801	-0.000046	0.188494
C28	C	0.928801	0.499954	0.688494
C29	C	0.448676	-0.000055	0.037006
C30	C	0.948676	0.499945	0.537006
C31	C	0.535394	-0.000055	0.038530
C32	C	1.035394	0.499945	0.538530
C33	C	0.568815	-0.000043	0.115039
C34	C	1.068815	0.499957	0.615039
C35	C	0.395376	-0.000049	0.111990
C36	C	0.895376	0.499951	0.611990
C37	C	0.301350	-0.000055	0.110337
C38	C	0.801350	0.499945	0.610337
C39	C	0.662847	-0.000038	0.116693
C40	C	1.162847	0.499962	0.616693
N41	N	0.982072	-0.248797	0.113545
N42	N	1.482072	0.251203	0.613545
C43	C	1.032527	-0.701055	0.163928
C44	C	1.532527	-0.201055	0.663928
C45	C	0.931714	-0.701046	0.063042
C46	C	1.431714	-0.201046	0.563042
C47	C	0.931701	-0.600551	0.063055
C48	C	1.431701	-0.100551	0.563055
C49	C	0.982103	-0.550302	0.113505
C50	C	1.482103	-0.050302	0.613505
C51	C	1.032518	-0.600550	0.163941
C52	C	1.532518	-0.100550	0.663941
C53	C	0.881294	-0.550296	0.012614
C54	C	1.381294	-0.050296	0.512614
C55	C	0.881280	-0.449794	0.012625
C56	C	1.381280	0.050206	0.512625
C57	C	0.931678	-0.399544	0.063079
C58	C	1.431678	0.100456	0.563079
C59	C	0.982094	-0.449797	0.113518
C60	C	1.482094	0.050203	0.613518
C61	C	1.032496	-0.399549	0.163968
C62	C	1.532496	0.100451	0.663968
C63	C	1.082908	-0.449801	0.214411
C64	C	1.582908	0.050199	0.714411
C65	C	1.082916	-0.550300	0.214396
C66	C	1.582916	-0.050300	0.714396
C67	C	0.931670	-0.299045	0.063095
C68	C	1.431670	0.200955	0.563095
C69	C	1.032487	-0.299044	0.163981
C70	C	1.532487	0.200956	0.663981
C71	C	1.134101	-0.000057	0.107404
C72	C	1.634101	0.499943	0.607404
C73	C	1.226397	-0.000057	0.109019
C74	C	1.726397	0.499943	0.609019
C75	C	0.988206	-0.000061	-0.038491
C76	C	1.488206	0.499939	0.461509
C77	C	0.986591	-0.000062	-0.130786
C78	C	1.486591	0.499938	0.369214
N79	N	0.982125	0.248697	0.113478
N80	N	1.482125	0.748697	0.613478
C81	C	1.058599	-0.000051	-0.353059
C82	C	1.558599	0.499949	0.146941
C83	C	1.057075	-0.000043	-0.439779
C84	C	1.557075	0.499957	0.060221
C85	C	0.905586	-0.000037	-0.419905
C86	C	1.405586	0.499963	0.080095
C87	C	0.907111	-0.000038	-0.333186
C88	C	1.407111	0.499962	0.166814
C89	C	0.983620	-0.000050	-0.299766
C90	C	1.483620	0.499950	0.200234
C91	C	0.980571	-0.000041	-0.473205
C92	C	1.480571	0.499959	0.026795
C93	C	0.978918	-0.000032	-0.567231
C94	C	1.478918	0.499968	-0.067231
C95	C	0.985273	-0.000057	-0.205734
C96	C	1.485273	0.499943	0.294266
C97	C	0.975984	-0.000037	0.265521
C98	C	1.475984	0.499963	0.765521
C99	C	0.977600	-0.000030	0.357816
C100	C	1.477600	0.499970	0.857816
H101	H	0.542730	-0.000037	0.252317
H102	H	1.042730	0.499963	0.752317
H103	H	0.421454	-0.000071	-0.025285
H104	H	0.921454	0.499929	0.474715
H105	H	1.118130	-0.000042	-0.483168
H106	H	1.618130	0.499958	0.016832
H107	H	1.123960	-0.591223	0.255462
H108	H	1.623960	-0.091223	0.755462
O109	O	1.081400	-0.250343	0.213108
O110	O	1.581400	0.249657	0.713108
C111	C	1.058321	-0.274903	0.297491
C112	C	1.558321	0.225097	0.797491
H113	H	1.026079	-0.347877	0.301040
H114	H	1.526079	0.152123	0.801040
H115	H	1.116516	-0.278342	0.331563
H116	H	1.616516	0.221658	0.831563
H117	H	1.013708	-0.218352	0.328103
H118	H	1.513708	0.281648	0.828103
O119	O	0.831322	0.000093	-0.452471
O120	O	1.331322	0.500093	0.047529
C121	C	0.825905	0.082794	-0.502028
C122	C	1.325905	0.582794	-0.002028
H123	H	0.891441	0.110362	-0.523647
H124	H	1.391441	0.610362	-0.023647
H125	H	0.792776	0.064195	-0.558803
H126	H	1.292776	0.564195	-0.058803
H127	H	0.789117	0.140698	-0.463709
H128	H	1.289117	0.640698	0.036291
O129	O	0.587051	-0.000015	-0.034386
O130	O	1.087051	0.499985	0.465614
C131	C	0.538960	-0.000041	-0.102241
C132	C	1.038960	0.499959	0.397759
H133	H	0.474233	0.030190	-0.081131
H134	H	0.974233	0.530190	0.418869
H135	H	0.570973	0.046309	-0.154778
H136	H	1.070973	0.546309	0.345222
H137	H	0.532787	-0.076640	-0.125685
H138	H	1.032787	0.423360	0.374315
H139	H	0.846050	-0.000035	-0.289792
H140	H	1.346050	0.499965	0.210208
H141	H	0.385413	-0.000045	0.249550
H142	H	0.885413	0.499955	0.749550
H143	H	1.123949	-0.408875	0.255484
H144	H	1.623949	0.091125	0.755484
O145	O	1.081473	-0.750011	0.212849
O146	O	1.581473	-0.250011	0.712849
C147	C	1.070659	-0.849491	0.202043
C148	C	1.570659	-0.349491	0.702043
H149	H	1.046981	-0.863213	0.139062
H150	H	1.546981	-0.363213	0.639062
H151	H	1.132972	-0.887675	0.204156
H152	H	1.632972	-0.387675	0.704156
H153	H	1.023281	-0.878026	0.254173
H154	H	1.523281	-0.378026	0.754173
O155	O	0.882779	-0.749999	0.014113
O156	O	1.382779	-0.249999	0.514113
C157	C	0.893551	-0.849479	0.024956
C158	C	1.393551	-0.349479	0.524956
H159	H	0.917193	-0.863193	0.087956
H160	H	1.417193	-0.363193	0.587956
H161	H	0.831228	-0.887645	0.022826
H162	H	1.331228	-0.387645	0.522826
H163	H	0.940940	-0.878040	-0.027145
H164	H	1.440940	-0.378040	0.472855
O165	O	0.832231	-0.401133	-0.036391
O166	O	1.332231	0.098867	0.463609
C167	C	0.787765	-0.467036	-0.080937
C168	C	1.287765	0.032964	0.419063
H169	H	0.782914	-0.538686	-0.046533
H170	H	1.282914	-0.038686	0.453467
H171	H	0.722388	-0.438014	-0.086108
H172	H	1.222388	0.061986	0.413892
H173	H	0.822035	-0.477698	-0.146191
H174	H	1.322035	0.022302	0.353809
H175	H	0.840267	-0.591215	-0.028466
H176	H	1.340267	-0.091215	0.471534
O177	O	1.132844	-0.000095	-0.320455
O178	O	1.632844	0.499905	0.179545
C179	C	1.118116	-0.000072	-0.232486
C180	C	1.618116	0.499928	0.267514
H181	H	1.053229	-0.030302	-0.212099
H182	H	1.553229	0.469698	0.287901
H183	H	1.167068	-0.046425	-0.205874
H184	H	1.667068	0.453575	0.294126
H185	H	1.122142	0.076526	-0.208352
H186	H	1.622142	0.576526	0.291648
O187	O	0.882584	-0.250273	0.014196
O188	O	1.382584	0.249727	0.514196
C189	C	0.798194	-0.274872	0.037181
C190	C	1.298194	0.225128	0.537181
H191	H	0.790131	-0.302519	0.104222
H192	H	1.290131	0.197481	0.604222
H193	H	0.757289	-0.208786	0.032331
H194	H	1.257289	0.291214	0.532331
H195	H	0.778922	-0.333199	-0.006424
H196	H	1.278922	0.166801	0.493576
