data_functionalizedCrystal
_audit_creation_method	'MofGen! by Chris Wilmer'
_symmetry_space_group_name_H-M	'P1'
_symmetry_Int_Tables_number	1
_symmetry_cell_setting	triclinic
loop_
_symmetry_equiv_pos_as_xyz
  x,y,z
_cell_length_a	17.077404
_cell_length_b	12.759399
_cell_length_c	12.759393
_cell_angle_alpha	90.031355
_cell_angle_beta	90.022846
_cell_angle_gamma	90.020705
loop_
_atom_site_label
_atom_site_type_symbol
_atom_site_fract_x
_atom_site_fract_y
_atom_site_fract_z
Zn1	Zn	-1.200075	0.418298	-0.594067
Zn2	Zn	-1.199973	0.594013	-0.418385
Zn3	Zn	-1.068800	0.418340	-0.418397
Zn4	Zn	-1.068773	0.593926	-0.594016
O5	O	-1.134405	0.506144	-0.506216
O6	O	-1.309908	0.441625	-0.570779
O7	O	-1.182541	0.570764	-0.271365
O8	O	-1.086267	0.271313	-0.441726
O9	O	-1.309833	0.570723	-0.441706
O10	O	-1.182715	0.271282	-0.570791
O11	O	-1.086168	0.441697	-0.271374
O12	O	-0.958949	0.441613	-0.441676
O13	O	-1.086222	0.570575	-0.741044
O14	O	-0.958930	0.570615	-0.570703
O15	O	-1.182689	0.441541	-0.741082
O16	O	-1.182515	0.741023	-0.441656
O17	O	-1.086123	0.740959	-0.570692
C18	C	-0.930457	0.506110	-0.506186
C19	C	-0.843207	0.506121	-0.506198
C20	C	-0.802257	0.439018	-0.573508
C21	C	-0.720277	0.439023	-0.573510
C22	C	-0.679248	0.506137	-0.506207
C23	C	-0.720204	0.573242	-0.438890
C24	C	-0.802183	0.573231	-0.438884
C25	C	-0.549334	0.573263	-0.438911
C26	C	-0.467350	0.573275	-0.438919
C27	C	-0.467428	0.439055	-0.573538
C28	C	-0.549407	0.439044	-0.573531
C29	C	-0.590357	0.506151	-0.506215
C30	C	-1.134327	0.779112	-0.506190
C31	C	-1.134365	0.895888	-0.506214
C32	C	-0.339149	0.506174	-0.506239
C33	C	-0.426399	0.506173	-0.506229
C34	C	-1.184557	0.950644	-0.573474
C35	C	-1.184588	1.060368	-0.573499
C36	C	-1.084233	1.060571	-0.438997
C37	C	-1.084199	0.950849	-0.438977
C38	C	-1.134464	0.506043	-0.780250
C39	C	-1.134489	0.506000	-0.897026
C40	C	-1.134476	1.232111	-0.506259
C41	C	-1.134431	1.115334	-0.506259
C42	C	-1.184723	0.438802	-0.951910
C43	C	-1.184736	0.438757	-1.061634
C44	C	-1.084279	0.573117	-1.061582
C45	C	-1.084263	0.573157	-0.951860
C46	C	-1.134392	0.506169	-0.233249
C47	C	-1.134519	0.505916	-0.116473
H48	H	-0.686938	0.384384	-0.628323
H49	H	-0.433946	0.627926	-0.384116
H50	H	-1.043388	0.627796	-1.106240
C51	C	-1.239996	0.364838	-1.122005
C52	C	-1.295239	0.290971	-1.061686
C53	C	-1.350499	0.217047	-1.122058
C54	C	-1.350518	0.216991	-1.242748
C55	C	-1.295273	0.290862	-1.303073
C56	C	-1.240012	0.364785	-1.242702
H57	H	-1.295227	0.291010	-0.972338
H58	H	-1.391395	0.162363	-1.077400
H59	H	-1.391425	0.162268	-1.287438
H60	H	-1.295284	0.290823	-1.392421
H61	H	-1.199116	0.419469	-1.287360
H62	H	-0.835524	0.627872	-0.384072
C63	C	-1.028985	0.890610	-0.364983
C64	C	-1.063008	0.815199	-0.282531
C65	C	-1.007796	0.754961	-0.208544
C66	C	-0.918560	0.770133	-0.217009
C67	C	-0.884533	0.845547	-0.299464
C68	C	-0.939745	0.905786	-0.373452
H69	H	-1.129070	0.803965	-0.276262
H70	H	-1.032986	0.699134	-0.147505
H71	H	-0.877688	0.725541	-0.162239
H72	H	-0.818471	0.856782	-0.305733
H73	H	-0.914555	0.961612	-0.434491
C74	C	-1.239732	0.890186	-0.647439
C75	C	-1.328977	0.905188	-0.638982
C76	C	-1.384152	0.844733	-0.712952
C77	C	-1.350082	0.769275	-0.795379
C78	C	-1.260833	0.754269	-0.803840
C79	C	-1.205658	0.814725	-0.729870
H80	H	-1.354201	0.961049	-0.577962
H81	H	-1.450220	0.855841	-0.706689
H82	H	-1.390926	0.724522	-0.850136
H83	H	-1.235609	0.698408	-0.864860
H84	H	-1.139590	0.803616	-0.736133
C85	C	-0.847385	0.365191	-0.647544
C86	C	-0.802336	0.291375	-0.721578
C87	C	-0.847461	0.217542	-0.795614
C88	C	-0.937635	0.217526	-0.795614
C89	C	-0.982688	0.291345	-0.721577
C90	C	-0.937563	0.365177	-0.647542
H91	H	-0.735580	0.291385	-0.721580
H92	H	-0.814109	0.162897	-0.850421
H93	H	-0.971039	0.162871	-0.850420
H94	H	-1.049445	0.291335	-0.721575
H95	H	-0.970916	0.419823	-0.592734
C96	C	-0.594536	0.365220	-0.647569
C97	C	-0.583302	0.373939	-0.766991
C98	C	-0.628429	0.300113	-0.841030
C99	C	-0.684791	0.217568	-0.795647
C100	C	-0.696027	0.208846	-0.676219
C101	C	-0.650900	0.282672	-0.602180
H102	H	-0.541577	0.435047	-0.800591
H103	H	-0.620111	0.306570	-0.929438
H104	H	-0.718197	0.162917	-0.850455
H105	H	-0.737752	0.147738	-0.642618
H106	H	-0.659218	0.276215	-0.513772
C107	C	-0.422392	0.365238	-0.647596
C108	C	-0.366057	0.410880	-0.730005
C109	C	-0.321020	0.337074	-0.804071
C110	C	-0.332318	0.217626	-0.795728
C111	C	-0.388656	0.171977	-0.713317
C112	C	-0.433693	0.245783	-0.639251
H113	H	-0.357691	0.499309	-0.736183
H114	H	-0.279315	0.370867	-0.865077
H115	H	-0.298979	0.162990	-0.850556
H116	H	-0.397022	0.083549	-0.707138
H117	H	-0.475398	0.211991	-0.578244
H118	H	-0.582674	0.627906	-0.384092
H119	H	-1.043350	0.627877	-0.907172
C120	C	-0.675074	0.647069	-0.364857
C121	C	-0.618691	0.601456	-0.282460
C122	C	-0.573563	0.675287	-0.208428
C123	C	-0.584816	0.794732	-0.216792
C124	C	-0.641202	0.840351	-0.299192
C125	C	-0.686330	0.766520	-0.373224
H126	H	-0.610358	0.513031	-0.276266
H127	H	-0.531822	0.641516	-0.147430
H128	H	-0.551409	0.849386	-0.161989
H129	H	-0.649535	0.928776	-0.305386
H130	H	-0.728071	0.800291	-0.434222
C131	C	-1.029060	1.121033	-0.365031
C132	C	-1.063134	1.196483	-0.282601
C133	C	-1.007962	1.256944	-0.208630
C134	C	-0.918716	1.241953	-0.217091
C135	C	-0.884638	1.166499	-0.299525
C136	C	-0.939810	1.106039	-0.373495
H137	H	-1.129203	1.207583	-0.276335
H138	H	-1.033189	1.312800	-0.147607
H139	H	-0.877874	1.286710	-0.162334
H140	H	-0.818569	1.155399	-0.305791
H141	H	-0.914582	1.050183	-0.434518
H142	H	-1.225458	1.104946	-0.628271
H143	H	-1.225618	0.384116	-0.907268
