data_functionalizedCrystal
_audit_creation_method	'MofGen! by Chris Wilmer'
_symmetry_space_group_name_H-M	'P1'
_symmetry_Int_Tables_number	1
_symmetry_cell_setting	triclinic
loop_
_symmetry_equiv_pos_as_xyz
  x,y,z
_cell_length_a	19.188930
_cell_length_b	9.616153
_cell_length_c	10.540539
_cell_angle_alpha	90.000677
_cell_angle_beta	83.835136
_cell_angle_gamma	89.977442
loop_
_atom_site_label
_atom_site_type_symbol
_atom_site_fract_x
_atom_site_fract_y
_atom_site_fract_z
O1	O	0.927206	-0.116087	0.158463
O2	O	0.724037	-0.115991	0.179795
O3	O	0.830256	-0.116039	-0.015680
O4	O	0.820986	-0.116038	0.353938
O5	O	0.830238	0.115252	-0.015672
O6	O	0.724018	0.115301	0.179803
O7	O	0.927187	0.115205	0.158471
Zn8	Zn	0.825600	0.151975	0.169138
Zn9	Zn	0.825624	-0.152761	0.169128
O10	O	0.820968	0.115253	0.353946
C11	C	0.698012	-0.000333	0.179108
C12	C	0.620494	-0.000296	0.177035
N13	N	0.825588	0.359950	0.169144
C14	C	0.829552	-0.000396	-0.062963
C15	C	0.827472	-0.000402	-0.203866
C16	C	0.576334	-0.000318	0.291733
C17	C	0.503497	-0.000333	0.289785
C18	C	0.474823	-0.000355	0.173132
C19	C	0.518992	-0.000325	0.058418
C20	C	0.591827	-0.000296	0.060370
N21	N	0.366255	-0.079130	0.083962
N22	N	0.297064	-0.079160	0.082116
C23	C	0.255375	-0.000440	0.167245
N24	N	0.285490	0.078295	0.254309
N25	N	0.354687	0.078320	0.256158
C26	C	0.395846	-0.000386	0.171003
C27	C	0.132237	-0.000476	0.279838
C28	C	0.059400	-0.000483	0.277885
C29	C	0.074896	-0.000489	0.046516
C30	C	0.147732	-0.000468	0.048472
C31	C	0.176398	-0.000468	0.165137
C32	C	0.953212	-0.000456	0.159157
C33	C	1.030731	-0.000502	0.161231
C34	C	0.768590	0.580346	0.273371
C35	C	0.768719	0.419178	0.273752
C36	C	0.898582	0.418364	0.197670
C37	C	0.898269	0.579582	0.198409
C38	C	0.810310	0.579870	0.036046
C39	C	0.808638	0.418644	0.036945
N40	N	0.825624	0.639264	0.169127
C41	C	0.747771	-0.000884	-0.385536
C42	C	0.749879	-0.000364	-0.238965
C43	C	0.864803	0.131659	-0.266342
C44	C	0.862154	0.131771	-0.412828
C45	C	0.863754	-0.131251	-0.413390
C46	C	0.864468	-0.132998	-0.266424
C47	C	0.821672	-0.000393	0.401229
C48	C	0.823752	-0.000396	0.542131
H49	H	0.599669	-0.000321	0.386731
F50	F	0.742195	0.633108	0.000081
F51	F	0.711194	0.123611	-0.183523
H52	H	0.911663	0.617163	0.295452
F53	F	0.738449	0.368750	0.008634
H54	H	0.155578	-0.000456	0.374834
F55	F	0.826070	0.260834	-0.448890
H56	H	0.717237	0.093316	-0.415068
F57	F	0.012401	-0.000498	0.399970
H58	H	0.942070	0.618551	0.125455
H59	H	0.838649	-0.231346	-0.444393
H60	H	0.851895	0.617967	-0.041525
F61	F	0.194732	-0.000452	-0.073608
F62	F	0.955414	0.368216	0.101049
H63	H	0.921784	0.136543	-0.245243
H64	H	0.837154	-0.230693	-0.224967
H65	H	0.847426	0.378331	-0.044231
H66	H	0.921040	-0.141000	-0.243449
H67	H	0.627783	-0.000279	-0.033035
H68	H	0.051551	-0.000593	-0.048466
F69	F	0.711485	-0.124098	-0.182433
H70	H	0.778563	0.380593	0.372518
H71	H	0.838855	0.229960	-0.223167
F72	F	0.456491	-0.000352	0.411867
H73	H	0.717127	-0.095585	-0.413464
H74	H	0.714482	0.379689	0.256815
F75	F	0.935091	0.139584	-0.477137
H76	H	0.495641	-0.000362	-0.036562
F77	F	0.697472	0.631081	0.251591
F78	F	0.781296	0.633249	0.401744
H79	H	0.912276	0.377966	0.293606
H80	H	0.919799	-0.132166	-0.461851
