data_functionalizedCrystal
_audit_creation_method	'MofGen! by Chris Wilmer'
_symmetry_space_group_name_H-M	'P1'
_symmetry_Int_Tables_number	1
_symmetry_cell_setting	triclinic
loop_
_symmetry_equiv_pos_as_xyz
  x,y,z
_cell_length_a	19.805407
_cell_length_b	16.120484
_cell_length_c	19.805399
_cell_angle_alpha	92.871043
_cell_angle_beta	89.980427
_cell_angle_gamma	92.925608
loop_
_atom_site_label
_atom_site_type_symbol
_atom_site_fract_x
_atom_site_fract_y
_atom_site_fract_z
Zn1	Zn	1.021075	-0.331927	-0.396377
Zn2	Zn	1.015252	-0.471346	-0.288925
Zn3	Zn	0.907889	-0.331950	-0.283203
Zn4	Zn	0.902117	-0.471302	-0.402070
O5	O	0.961584	-0.401631	-0.342644
O6	O	1.115019	-0.350431	-0.382136
O7	O	1.000989	-0.452883	-0.193451
O8	O	0.927756	-0.215281	-0.293438
O9	O	1.110741	-0.452861	-0.303191
O10	O	1.010913	-0.215264	-0.376587
O11	O	0.922109	-0.350470	-0.189246
O12	O	0.812407	-0.350427	-0.298958
O13	O	0.917919	-0.452785	-0.496030
O14	O	0.808167	-0.452807	-0.386290
O15	O	1.005317	-0.350388	-0.491848
O16	O	0.995392	-0.588006	-0.308712
O17	O	0.912273	-0.587974	-0.391839
C18	C	0.785728	-0.401615	-0.342621
C19	C	0.710496	-0.401629	-0.342628
C20	C	0.672958	-0.455019	-0.388035
C21	C	0.602269	-0.455020	-0.388045
C22	C	0.569120	-0.401635	-0.342644
C23	C	0.606663	-0.348239	-0.297235
C24	C	0.677350	-0.348234	-0.297229
C25	C	0.321589	-0.348258	-0.297258
C26	C	0.250896	-0.348269	-0.297266
C27	C	0.246508	-0.455043	-0.388074
C28	C	0.317195	-0.455038	-0.388068
C29	C	0.354732	-0.401640	-0.342662
C30	C	0.431381	-0.401638	-0.342653
C31	C	0.492472	-0.401641	-0.342649
C32	C	0.952593	-0.618240	-0.351529
C33	C	0.948809	-0.710906	-0.355353
C34	C	0.941903	-0.880568	-0.362347
C35	C	0.981385	-0.921854	-0.322951
C36	C	0.977543	-1.016260	-0.326843
C37	C	0.945745	-0.786154	-0.358456
C38	C	1.138126	-0.401648	-0.342667
C39	C	1.213357	-0.401655	-0.342677
C40	C	0.961624	-0.401579	-0.519184
C41	C	0.961641	-0.401556	-0.594416
C42	C	0.970628	-0.184177	-0.333739
C43	C	0.974482	-0.091511	-0.329944
C44	C	1.007150	-0.348235	-0.627583
C45	C	1.007158	-0.348211	-0.698270
C46	C	0.961659	-0.401513	-0.735789
C47	C	0.916145	-0.454836	-0.702617
C48	C	0.916135	-0.454856	-0.631931
C49	C	0.916187	-0.454759	-0.987688
C50	C	0.916202	-0.454737	-1.058379
C51	C	1.007210	-0.348114	-1.054027
C52	C	1.007199	-0.348133	-0.983340
C53	C	0.961683	-0.401453	-0.950174
C54	C	0.961674	-0.401478	-0.873527
C55	C	0.961671	-0.401493	-0.812436
C56	C	0.961585	-0.401623	-0.166787
C57	C	0.961709	-0.401411	-0.091547
H58	H	1.018071	-0.886299	-0.286299
C59	C	0.898106	-1.014146	-0.406137
C60	C	0.892373	-0.928559	-0.411817
H61	H	0.867523	-1.043779	-0.436673
H62	H	0.943006	-1.028302	-0.416665
H63	H	0.887665	-1.028402	-0.361222
H64	H	0.902819	-0.914302	-0.456731
H65	H	0.847463	-0.914398	-0.401294
H66	H	1.044202	-0.304833	-0.597039
C67	C	1.097126	-0.242832	-0.686869
C68	C	1.057187	-0.289605	-0.734728
H69	H	1.128015	-0.206653	-0.709378
H70	H	1.068961	-0.210945	-0.657988
H71	H	1.121495	-0.279180	-0.660791
H72	H	1.032814	-0.253257	-0.760803
H73	H	1.085356	-0.321494	-0.763620
C74	C	0.752006	-0.466742	-0.479536
C75	C	0.709395	-0.513700	-0.437942
H76	H	0.774502	-0.502972	-0.510345
H77	H	0.725946	-0.430470	-0.503986
H78	H	0.784478	-0.434950	-0.452484
H79	H	0.676920	-0.545488	-0.464994
H80	H	0.735458	-0.549988	-0.413490
H81	H	1.044251	-0.304733	-0.952796
C82	C	1.047636	-0.300720	-1.160451
C83	C	1.057236	-0.289492	-1.090485
H84	H	1.078518	-0.264527	-1.182956
H85	H	1.055216	-0.356726	-1.174330
H86	H	1.002667	-0.288509	-1.171519
H87	H	1.102204	-0.301709	-1.079417
H88	H	1.049661	-0.233473	-1.076600
H89	H	0.879149	-0.498143	-1.088925
H90	H	0.571709	-0.498496	-0.425019
H91	H	0.879134	-0.498187	-0.960693
C92	C	0.826193	-0.560272	-0.643329
C93	C	0.866121	-0.513482	-0.595472
H94	H	0.795320	-0.596471	-0.620820
H95	H	0.801811	-0.523942	-0.669401
H96	H	0.854372	-0.592146	-0.672216
H97	H	0.837943	-0.481604	-0.566588
H98	H	0.890505	-0.549817	-0.569388
C99	C	0.875753	-0.502155	-0.812906
C100	C	0.866132	-0.513427	-0.743857
H101	H	0.844879	-0.538333	-0.838363
H102	H	0.868178	-0.446142	-0.822192
H103	H	0.920726	-0.514361	-0.824991
H104	H	0.821160	-0.501216	-0.731771
H105	H	0.873702	-0.569453	-0.734566
C106	C	0.405721	-0.236088	-0.283396
C107	C	0.362846	-0.289570	-0.247346
H108	H	0.431190	-0.199853	-0.252579
H109	H	0.435576	-0.267880	-0.310429
H110	H	0.379469	-0.204251	-0.311621
H111	H	0.389098	-0.321412	-0.219124
H112	H	0.332987	-0.257775	-0.220301
C113	C	0.337319	-0.495825	-0.504297
C114	C	0.353633	-0.513717	-0.437976
H115	H	0.359817	-0.532047	-0.535109
H116	H	0.289854	-0.503473	-0.510795
H117	H	0.351233	-0.439821	-0.511968
H118	H	0.339715	-0.569719	-0.430304
H119	H	0.401109	-0.506075	-0.431476
C120	C	0.136200	-0.502464	-0.428419
C121	C	0.205246	-0.513733	-0.437994
H122	H	0.110730	-0.538693	-0.459239
H123	H	0.124094	-0.514593	-0.383430
H124	H	0.126951	-0.446462	-0.436106
H125	H	0.214496	-0.569733	-0.430301
H126	H	0.217356	-0.501610	-0.482993
C127	C	0.262331	-0.242701	-0.207509
C128	C	0.214457	-0.289577	-0.247363
H129	H	0.239833	-0.206467	-0.176706
H130	H	0.288385	-0.278975	-0.183053
H131	H	0.291235	-0.210861	-0.235743
H132	H	0.185555	-0.321422	-0.219129
H133	H	0.188391	-0.253299	-0.271821
H134	H	0.579667	-0.304769	-0.260272
H135	H	0.707913	-0.304754	-0.260258
