data_functionalizedCrystal
_audit_creation_method	'MofGen! by Chris Wilmer'
_symmetry_space_group_name_H-M	'P1'
_symmetry_Int_Tables_number	1
_symmetry_cell_setting	triclinic
loop_
_symmetry_equiv_pos_as_xyz
  x,y,z
_cell_length_a	21.395362
_cell_length_b	19.805405
_cell_length_c	21.395355
_cell_angle_alpha	90.019910
_cell_angle_beta	90.043940
_cell_angle_gamma	90.042288
loop_
_atom_site_label
_atom_site_type_symbol
_atom_site_fract_x
_atom_site_fract_y
_atom_site_fract_z
Zn1	Zn	0.957878	-0.269255	0.354580
Zn2	Zn	0.957789	-0.382425	0.249800
Zn3	Zn	0.853093	-0.269286	0.249781
Zn4	Zn	0.853070	-0.382438	0.354504
O5	O	0.905458	-0.325851	0.302166
O6	O	1.045544	-0.284248	0.340720
O7	O	0.943873	-0.367424	0.162119
O8	O	0.867040	-0.174565	0.263706
O9	O	1.045478	-0.367393	0.263738
O10	O	0.944025	-0.174542	0.340701
O11	O	0.866953	-0.284302	0.162105
O12	O	0.765412	-0.284315	0.263633
O13	O	0.867001	-0.367417	0.442192
O14	O	0.765395	-0.367448	0.340573
O15	O	0.944003	-0.284261	0.442247
O16	O	0.943850	-0.477143	0.263665
O17	O	0.866914	-0.477153	0.340591
C18	C	0.742670	-0.325887	0.302093
C19	C	0.673029	-0.325918	0.302077
C20	C	0.640323	-0.369263	0.342080
C21	C	0.574888	-0.369246	0.342108
C22	C	0.542160	-0.325892	0.302122
C23	C	0.574874	-0.282539	0.262116
C24	C	0.640308	-0.282553	0.262094
C25	C	0.438435	-0.320440	0.245717
C26	C	0.373002	-0.320431	0.245738
C27	C	0.340340	-0.325848	0.302191
C28	C	0.373118	-0.331287	0.358624
C29	C	0.438552	-0.331301	0.358602
C30	C	0.471208	-0.325873	0.302142
C31	C	0.236682	-0.369177	0.342227
C32	C	0.171245	-0.369156	0.342256
C33	C	0.171232	-0.282452	0.262259
C34	C	0.236668	-0.282470	0.262236
C35	C	0.269388	-0.325836	0.302219
C36	C	0.905387	-0.501707	0.302136
C37	C	0.905414	-0.576939	0.302144
C38	C	0.945514	-0.612255	0.262130
C39	C	0.945540	-0.682944	0.262144
C40	C	0.905464	-0.718315	0.302169
C41	C	0.865362	-0.682993	0.342187
C42	C	0.865339	-0.612306	0.342175
C43	C	0.865455	-0.968067	0.342233
C44	C	0.865480	-1.038759	0.342240
C45	C	0.945656	-1.038704	0.262202
C46	C	0.945633	-0.968017	0.262191
C47	C	0.905534	-0.932702	0.302210
C48	C	0.905507	-0.856053	0.302196
C49	C	0.905488	-0.794962	0.302181
C50	C	1.068881	-0.325816	0.302239
C51	C	1.138522	-0.325800	0.302271
C52	C	0.905510	-0.325837	0.465589
C53	C	0.905532	-0.325831	0.535231
C54	C	0.905545	-0.149308	0.302210
C55	C	0.905583	-0.074076	0.302229
C56	C	0.905442	-0.325816	0.139378
C57	C	0.905541	-0.325631	0.069738
C58	C	0.945625	-0.282530	0.567974
C59	C	0.945624	-0.282501	0.633409
C60	C	0.905537	-0.325785	0.666099
C61	C	0.865436	-0.369089	0.633348
C62	C	0.865433	-0.369112	0.567914
C63	C	0.900565	-0.386731	0.769762
C64	C	0.900572	-0.386709	0.835195
C65	C	0.905540	-0.325714	0.867920
C66	C	0.910516	-0.264738	0.835204
C67	C	0.910513	-0.264762	0.769770
C68	C	0.905534	-0.325765	0.737051
C69	C	0.945635	-0.282378	0.971615
C70	C	0.945630	-0.282347	1.037052
C71	C	0.865444	-0.368941	1.036990
C72	C	0.865446	-0.368966	0.971555
C73	C	0.905545	-0.325685	0.938871
H74	H	0.666960	-0.404574	0.374638
H75	H	0.346526	-0.335697	0.404594
H76	H	0.666936	-0.247254	0.229519
Cl77	Cl	0.533763	-0.423741	0.392400
H78	H	0.263324	-0.404485	0.374787
Cl79	Cl	0.996040	-0.227965	0.930525
H80	H	0.978265	-0.939220	0.229597
H81	H	0.978308	-1.067466	0.229618
Cl82	Cl	0.916762	-0.188111	0.728644
Cl83	Cl	0.130129	-0.423647	0.392554
Cl84	Cl	0.814984	-0.727460	0.392507
H85	H	0.144586	-0.247150	0.229705
Cl86	Cl	0.916765	-0.188053	0.876337
H87	H	0.465238	-0.335727	0.404552
Cl88	Cl	0.995956	-0.727339	0.211841
H89	H	0.832845	-1.067556	0.374837
Cl90	Cl	0.277785	-0.227979	0.211942
H91	H	0.978277	-0.247083	1.063710
H92	H	0.346319	-0.316007	0.199786
H93	H	0.896524	-0.436359	0.861827
H94	H	0.896351	-0.436388	0.743122
H95	H	0.832802	-0.404230	0.944895
Cl96	Cl	0.814928	-0.567908	0.392482
H97	H	0.465024	-0.316026	0.199743
H98	H	0.548223	-0.247239	0.229561
H99	H	0.978146	-0.583461	0.229535
H100	H	0.832804	-0.939318	0.374817
Cl101	Cl	0.815042	-0.423350	1.078080
Cl102	Cl	0.996031	-0.228116	0.526889
H103	H	0.978271	-0.247237	0.660074
H104	H	0.832794	-0.404329	0.659969
Cl105	Cl	0.815026	-0.423553	0.526749
