data_functionalizedCrystal
_audit_creation_method	'MofGen! by Chris Wilmer'
_symmetry_space_group_name_H-M	'P1'
_symmetry_Int_Tables_number	1
_symmetry_cell_setting	triclinic
loop_
_symmetry_equiv_pos_as_xyz
  x,y,z
_cell_length_a	23.532407
_cell_length_b	23.532407
_cell_length_c	15.455446
_cell_angle_alpha	92.661642
_cell_angle_beta	87.349441
_cell_angle_gamma	82.848712
loop_
_atom_site_label
_atom_site_type_symbol
_atom_site_fract_x
_atom_site_fract_y
_atom_site_fract_z
O1	O	0.752757	0.071638	0.072084
O2	O	0.586893	0.081641	0.072099
O3	O	0.674827	-0.006293	0.072075
O4	O	0.664823	0.159572	0.072108
O5	O	0.679828	-0.011303	-0.072185
O6	O	0.591894	0.076631	-0.072161
O7	O	0.757757	0.066627	-0.072176
Cu8	Cu	0.675282	0.071171	-0.085341
Cu9	Cu	0.669369	0.077097	0.085264
O10	O	0.669823	0.154561	-0.072152
C11	C	0.568177	0.078881	-0.000029
C12	C	0.504960	0.078116	-0.000024
C13	C	0.238794	0.022919	-0.000059
C14	C	0.298194	0.023630	-0.000058
O15	O	0.334940	-0.020157	-0.000097
N16	N	0.320820	0.075907	-0.000042
C17	C	0.284042	0.127476	-0.000035
O18	O	0.308741	0.172007	-0.000022
C19	C	0.224643	0.126763	-0.000042
C20	C	0.202021	0.074484	-0.000049
C21	C	0.216171	-0.029357	-0.000067
C22	C	0.156775	-0.030068	-0.000066
C23	C	0.120001	0.021497	-0.000056
C24	C	0.142624	0.073772	-0.000048
C25	C	0.187867	0.178331	-0.000041
C26	C	0.128464	0.177614	-0.000048
C27	C	0.105842	0.125334	-0.000056
C28	C	0.046455	0.124626	-0.000037
N29	N	0.023829	0.072349	-0.000053
C30	C	0.060603	0.020784	-0.000063
C31	C	0.408784	0.128968	-0.000023
C32	C	0.468181	0.129681	-0.000010
C33	C	0.482330	0.025835	-0.000035
C34	C	0.422931	0.025123	-0.000042
C35	C	0.386158	0.076691	-0.000039
C36	C	-0.064134	0.019295	-0.000060
C37	C	-0.123536	0.018588	-0.000055
C38	C	-0.137679	0.122434	-0.000034
C39	C	-0.078282	0.123141	-0.000035
C40	C	-0.041511	0.071566	-0.000050
O41	O	0.009675	0.168390	-0.000002
O42	O	0.035895	-0.023740	-0.000087
C43	C	0.677073	-0.030014	-0.000057
C44	C	0.676307	-0.093232	-0.000064
C45	C	0.723539	-0.492333	-0.000020
C46	C	0.722827	-0.551733	-0.000014
O47	O	0.766612	-0.588477	0.000014
N48	N	0.670551	-0.574359	-0.000010
C49	C	0.618983	-0.537581	-0.000003
O50	O	0.574452	-0.562281	0.000001
C51	C	0.619695	-0.478182	-0.000004
C52	C	0.671975	-0.455560	-0.000017
C53	C	0.775815	-0.469710	-0.000032
C54	C	0.776527	-0.410314	-0.000041
C55	C	0.724962	-0.373541	-0.000037
C56	C	0.672686	-0.396164	-0.000025
C57	C	0.568127	-0.441405	0.000009
C58	C	0.568843	-0.382003	0.000009
C59	C	0.621123	-0.359381	-0.000004
C60	C	0.621833	-0.299995	-0.000030
N61	N	0.674110	-0.277369	-0.000034
C62	C	0.725674	-0.314142	-0.000037
C63	C	0.617491	-0.662324	-0.000001
C64	C	0.616779	-0.721722	-0.000007
C65	C	0.720624	-0.735870	-0.000015
C66	C	0.721336	-0.676470	-0.000016
C67	C	0.669768	-0.639698	-0.000005
C68	C	0.727165	-0.189406	-0.000055
C69	C	0.727872	-0.130005	-0.000067
C70	C	0.624027	-0.115862	-0.000054
C71	C	0.623319	-0.175259	-0.000047
C72	C	0.674893	-0.212030	-0.000045
O73	O	0.578071	-0.263217	-0.000054
O74	O	0.770197	-0.289434	-0.000031
C75	C	0.776473	0.069387	-0.000046
C76	C	0.839690	0.070153	-0.000045
C77	C	0.667578	0.178283	-0.000018
C78	C	0.668343	0.241500	-0.000006
N79	N	0.679445	0.067003	-0.205335
C80	C	0.702574	0.043917	-0.749335
C81	C	0.699412	0.047076	-0.658529
C82	C	0.658883	0.087576	-0.613130
C83	C	0.621517	0.124923	-0.658543
C84	C	0.624682	0.121766	-0.749348
C85	C	0.645244	0.101194	-0.341553
C86	C	0.642081	0.104346	-0.250742
C87	C	0.719977	0.026500	-0.250733
C88	C	0.723136	0.023345	-0.341540
C89	C	0.685772	0.060693	-0.386945
N90	N	0.655649	0.090805	-0.520311
N91	N	0.689009	0.057467	-0.479763
N92	N	0.665210	0.081260	0.205258
H93	H	0.404516	-0.017448	-0.000048
O94	O	0.770769	-0.771517	-0.000049
C95	C	0.873842	-0.779296	0.000003
C96	C	0.817101	-0.738860	0.000022
H97	H	0.911316	-0.752908	0.000079
H98	H	0.878237	-0.809554	-0.060380
H99	H	0.873974	-0.805365	0.060365
H100	H	0.816930	-0.712753	-0.060299
H101	H	0.812729	-0.708639	0.060445
O102	O	0.565943	-0.743598	0.000035
C103	C	0.463021	-0.723281	-0.000008
C104	C	0.520553	-0.698434	-0.000042
H105	H	0.426309	-0.686779	-0.000088
H106	H	0.457955	-0.748609	0.060383
H107	H	0.462211	-0.752861	-0.060363
H108	H	0.521403	-0.668831	0.060272
H109	H	0.525595	-0.673140	-0.060472
H110	H	0.770446	-0.111589	-0.000080
O111	O	0.573888	-0.080217	-0.000082
C112	C	0.470810	-0.072434	0.000009
C113	C	0.527550	-0.112869	0.000010
H114	H	0.433330	-0.098816	0.000102
H115	H	0.470597	-0.046382	-0.060376
H116	H	0.466498	-0.042160	0.060370
H117	H	0.531899	-0.143177	-0.060310
H118	H	0.527738	-0.138880	0.060435
H119	H	0.819098	-0.391901	-0.000048
O120	O	0.756350	-0.009755	-0.206715
C121	C	0.854591	-0.042634	-0.178843
C122	C	0.813463	-0.001555	-0.228767
H123	H	0.900775	-0.036011	-0.196641
H124	H	0.848104	-0.088848	-0.196722
H125	H	0.845334	-0.033426	-0.106151
H126	H	0.822694	-0.010711	-0.301471
H127	H	0.819958	0.044645	-0.210817
O128	O	0.582222	0.164291	-0.614349
C129	C	0.566076	0.245717	-0.511855
C130	C	0.610640	0.201160	-0.561832
H131	H	0.589035	0.275545	-0.469397
H132	H	0.536293	0.222779	-0.469300
H133	H	0.539904	0.271840	-0.559924
H134	H	0.636852	0.175024	-0.513825
H135	H	0.640384	0.224133	-0.604400
O136	O	0.777316	-0.225041	-0.000095
C137	C	0.880388	-0.232787	-0.000064
C138	C	0.823636	-0.192367	-0.000032
H139	H	0.917853	-0.206386	0.000005
H140	H	0.884787	-0.263044	-0.060449
H141	H	0.880535	-0.258858	0.060297
H142	H	0.823450	-0.166259	-0.060352
H143	H	0.819260	-0.162148	0.060392
O144	O	0.567404	-0.626576	0.000151
C145	C	0.505353	-0.548682	0.074859
C146	C	0.562086	-0.589133	0.074803
H147	H	0.501041	-0.518391	0.135200
H148	H	0.467848	-0.575031	0.074916
H149	H	0.505189	-0.522649	0.014457
H150	H	0.562306	-0.615174	0.135195
H151	H	0.599566	-0.562751	0.074701
H152	H	0.594257	0.152176	-0.786318
O153	O	0.373083	0.179086	0.000147
C154	C	0.340258	0.270233	0.074887
C155	C	0.380703	0.213495	0.074813
H156	H	0.346414	0.298074	0.135239
H157	H	0.293902	0.260789	0.074937
H158	H	0.350545	0.293857	0.014496
H159	H	0.370468	0.189842	0.135194
H160	H	0.427048	0.222978	0.074718
O161	O	0.602695	0.143744	-0.206774
C162	C	0.525750	0.220607	-0.216360
C163	C	0.570333	0.176030	-0.266260
H164	H	0.499565	0.246714	-0.264432
H165	H	0.548665	0.250447	-0.173855
H166	H	0.495984	0.197628	-0.173839
H167	H	0.600111	0.198961	-0.308828
H168	H	0.547380	0.146192	-0.308710
H169	H	0.512282	-0.016152	-0.000043
H170	H	0.098527	0.219608	-0.000050
O171	O	0.209739	0.229165	-0.000079
C172	C	0.189410	0.332090	-0.000030
C173	C	0.164566	0.274556	-0.000004
H174	H	0.152900	0.368804	0.000050
H175	H	0.218938	0.332961	-0.060418
H176	H	0.214790	0.337096	0.060328
H177	H	0.139159	0.269513	-0.060320
H178	H	0.135070	0.273711	0.060424
H179	H	0.817807	-0.499646	-0.000032
H180	H	0.486595	0.172253	0.000008
O181	O	0.517289	-0.463275	0.000064
C182	C	0.414367	-0.442948	0.000041
C183	C	0.471903	-0.418107	-0.000003
H184	H	0.377658	-0.406443	-0.000032
H185	H	0.409304	-0.468277	0.060432
H186	H	0.413550	-0.472526	-0.060314
H187	H	0.472760	-0.388505	0.060311
H188	H	0.476943	-0.392813	-0.060434
H189	H	0.526849	-0.352065	0.000019
H190	H	0.614820	0.131604	-0.378515
H191	H	-0.141952	-0.023986	-0.000058
O192	O	0.572569	-0.197303	0.000074
C193	C	0.508893	-0.253514	0.074863
C194	C	0.566390	-0.228600	0.074814
H195	H	0.503874	-0.278813	0.135293
H196	H	0.508046	-0.283114	0.014539
H197	H	0.472171	-0.217020	0.074818
H198	H	0.603144	-0.265057	0.074889
H199	H	0.567188	-0.198985	0.135132
O200	O	-0.056278	0.173913	0.000126
C201	C	0.000021	0.237566	0.074818
C202	C	-0.024872	0.180057	0.074771
H203	H	0.025428	0.242546	0.135153
H204	H	-0.036445	0.274325	0.074882
H205	H	0.029542	0.238382	0.014411
H206	H	-0.054386	0.179185	0.135168
H207	H	0.011621	0.143323	0.074662
H208	H	-0.167631	0.164416	-0.000022
H209	H	0.138362	-0.072640	-0.000076
O210	O	-0.028502	-0.030854	-0.000029
C211	C	-0.020753	-0.133930	-0.000086
C212	C	-0.061171	-0.077179	-0.000110
H213	H	-0.047149	-0.171399	-0.000170
H214	H	0.005302	-0.134136	0.060302
H215	H	0.009518	-0.138267	-0.060443
H216	H	-0.091477	-0.072806	0.060206
H217	H	-0.087186	-0.076998	-0.060538
H218	H	0.246107	-0.071349	-0.000078
H219	H	0.763907	-0.658056	-0.000026
H220	H	0.735574	0.010936	-0.786293
H221	H	0.729837	0.016669	-0.621559
H222	H	0.756138	-0.009634	-0.378502
