data_functionalizedCrystal
_audit_creation_method	'MofGen! by Chris Wilmer'
_symmetry_space_group_name_H-M	'P1'
_symmetry_Int_Tables_number	1
_symmetry_cell_setting	triclinic
loop_
_symmetry_equiv_pos_as_xyz
  x,y,z
_cell_length_a	9.065218
_cell_length_b	19.188930
_cell_length_c	8.140239
_cell_angle_alpha	89.991371
_cell_angle_beta	89.997198
_cell_angle_gamma	84.080333
loop_
_atom_site_label
_atom_site_type_symbol
_atom_site_fract_x
_atom_site_fract_y
_atom_site_fract_z
O1	O	1.956846	0.102369	-0.136639
O2	O	1.527270	0.110766	-0.136643
O3	O	1.754455	0.005009	-0.136609
O4	O	1.729662	0.208127	-0.136674
O5	O	1.754443	0.005007	0.136618
O6	O	1.527258	0.110765	0.136584
O7	O	1.956834	0.102368	0.136588
Zn8	Zn	1.742044	0.106566	0.179966
Zn9	Zn	1.742060	0.106568	-0.180022
O10	O	1.729649	0.208126	0.136553
C11	C	1.472305	0.109959	-0.000030
C12	C	1.308546	0.107546	-0.000030
C13	C	1.753646	-0.021009	0.000009
C14	C	1.751236	-0.098533	0.000023
C15	C	1.884540	-0.142421	0.000032
C16	C	1.882276	-0.215262	0.000006
C17	C	1.746699	-0.244212	0.000003
C18	C	1.613377	-0.200314	-0.000015
C19	C	1.615646	-0.127474	-0.000005
N20	N	1.643063	-0.353023	0.092987
N21	N	1.640918	-0.422218	0.092981
C22	C	1.739858	-0.463674	-0.000030
N23	N	1.841047	-0.433322	-0.093014
N24	N	1.843197	-0.364120	-0.093001
C25	C	1.744225	-0.323194	-0.000008
C26	C	1.870716	-0.586546	-0.000052
C27	C	1.868446	-0.659388	-0.000088
C28	C	1.599544	-0.644438	-0.000092
C29	C	1.601818	-0.571598	-0.000072
C30	C	1.737408	-0.542656	-0.000044
C31	C	2.011799	0.103176	-0.000029
C32	C	2.175558	0.105589	-0.000040
C33	C	1.730458	0.234144	-0.000068
C34	C	1.732869	0.311667	-0.000093
N35	N	1.742044	0.106565	0.425649
N36	N	1.742073	0.106564	-0.425705
H37	H	1.990832	-0.251003	0.000007
C38	C	2.015094	-0.707668	-0.000077
C39	C	2.050491	-0.759814	0.141794
C40	C	2.197142	-0.808094	0.141807
C41	C	2.308395	-0.804228	-0.000050
C42	C	2.273000	-0.752079	-0.141932
C43	C	2.126350	-0.703799	-0.141945
H44	H	1.968133	-0.762678	0.246815
H45	H	2.223343	-0.846697	0.246838
H46	H	2.416954	-0.839967	-0.000041
H47	H	2.355359	-0.749215	-0.246953
H48	H	2.100149	-0.665196	-0.246976
C49	C	1.464241	-0.232155	-0.000020
C50	C	1.461739	-0.312276	-0.000023
C51	C	1.312596	-0.344116	-0.000040
C52	C	1.165956	-0.295835	-0.000052
C53	C	1.168453	-0.215710	-0.000049
C54	C	1.317595	-0.183870	-0.000032
H55	H	1.570295	-0.348020	-0.000014
H56	H	1.310749	-0.403430	-0.000042
H57	H	1.055552	-0.319405	-0.000064
H58	H	1.059896	-0.179965	-0.000058
H59	H	1.319443	-0.124556	-0.000030
H60	H	1.507089	-0.091740	-0.000012
C61	C	2.019859	-0.554704	-0.000034
C62	C	2.166499	-0.602984	-0.000045
C63	C	2.315641	-0.571144	-0.000025
C64	C	2.318143	-0.491024	0.000007
C65	C	2.171498	-0.442738	0.000018
C66	C	2.022356	-0.474578	-0.000002
H67	H	2.164651	-0.662299	-0.000069
H68	H	2.424198	-0.606889	-0.000033
H69	H	2.428548	-0.467454	0.000022
H70	H	2.173346	-0.383424	0.000042
H71	H	1.913799	-0.438834	0.000006
H72	H	1.994948	-0.118862	0.000050
H73	H	1.489155	-0.668009	-0.000103
H74	H	1.493266	-0.535863	-0.000071
