data_functionalizedCrystal
_audit_creation_method	'MofGen! by Chris Wilmer'
_symmetry_space_group_name_H-M	'P1'
_symmetry_Int_Tables_number	1
_symmetry_cell_setting	triclinic
loop_
_symmetry_equiv_pos_as_xyz
  x,y,z
_cell_length_a	15.944551
_cell_length_b	15.944551
_cell_length_c	14.185569
_cell_angle_alpha	76.843158
_cell_angle_beta	103.159808
_cell_angle_gamma	83.498738
loop_
_atom_site_label
_atom_site_type_symbol
_atom_site_fract_x
_atom_site_fract_y
_atom_site_fract_z
O1	O	1.095494	0.127352	-0.083318
O2	O	0.850939	0.140714	-0.083343
O3	O	0.979897	0.011756	-0.083321
O4	O	0.966536	0.256310	-0.083340
O5	O	1.017992	-0.026335	0.083520
O6	O	0.889034	0.102623	0.083498
O7	O	1.133590	0.089261	0.083523
Cu8	Cu	1.014790	0.092464	0.098744
Cu9	Cu	0.969738	0.137511	-0.098565
O10	O	1.004632	0.218219	0.083501
C11	C	0.838692	0.121115	0.000074
C12	C	0.745444	0.119455	0.000065
C13	C	0.530593	0.035544	0.000091
C14	C	0.450789	0.093288	-0.082174
C15	C	0.574721	0.116445	0.000077
C16	C	0.488370	0.055753	0.082319
C17	C	0.409812	0.113530	0.000093
C18	C	0.496130	0.174226	-0.082256
C19	C	0.533734	0.136662	0.082311
C20	C	0.453943	0.194470	0.000026
C21	C	0.669721	0.118122	0.000067
C22	C	0.314811	0.111861	0.000096
C23	C	0.998390	-0.038583	0.000100
C24	C	0.996728	-0.131830	0.000100
C25	C	0.912818	-0.346681	0.000078
C26	C	0.970565	-0.426481	0.082344
C27	C	0.993719	-0.302554	0.000092
C28	C	0.933025	-0.388909	-0.082148
C29	C	0.990805	-0.467463	0.000080
C30	C	1.051503	-0.381140	0.082427
C31	C	1.013935	-0.343546	-0.082139
C32	C	1.071745	-0.423332	0.000148
C33	C	0.995395	-0.207553	0.000100
C34	C	0.989137	-0.562464	0.000079
C35	C	1.145836	0.108861	0.000103
C36	C	1.239083	0.110523	0.000106
C37	C	0.986138	0.268559	0.000078
C38	C	0.987799	0.361807	0.000071
N39	N	1.046484	0.060780	0.237521
N40	N	0.938052	0.169189	-0.237341
C41	C	0.844936	0.262241	0.605136
C42	C	0.868949	0.238246	0.710162
C43	C	0.983165	0.124096	0.710142
C44	C	0.959159	0.148079	0.605115
C45	C	0.890044	0.217152	0.552620
C46	C	1.004267	0.102990	0.552598
C47	C	0.980265	0.126974	0.447580
C48	C	0.911155	0.196047	0.395077
C49	C	0.866043	0.241136	0.447601
C50	C	1.073385	0.033921	0.605095
C51	C	1.118493	-0.011168	0.552579
C52	C	1.094487	0.012812	0.447558
C53	C	1.025377	0.081884	0.395056
C54	C	1.139600	-0.032278	0.395035
C55	C	1.115598	-0.008294	0.290016
C56	C	1.001376	0.105868	0.290037
H57	H	0.569745	0.154972	0.151857
C58	C	1.165206	-0.057892	0.232239
H59	H	1.141015	-0.033710	0.162176
H60	H	1.160014	-0.117888	0.249452
H61	H	1.225197	-0.052661	0.249435
H62	H	1.138964	-0.456503	0.000201
H63	H	0.809757	0.297377	0.404857
H64	H	0.414800	0.074950	-0.151717
H65	H	0.484164	0.005644	0.151865
C66	C	1.059182	0.048117	0.767892
H67	H	1.067014	0.040286	0.837959
H68	H	1.111304	0.061201	0.750670
H69	H	1.046115	-0.004020	0.750684
C70	C	0.884749	0.222435	0.279559
H71	H	0.837132	0.270033	0.255819
H72	H	0.867823	0.174169	0.255799
H73	H	0.933002	0.239400	0.255792
H74	H	0.788651	0.318482	0.562393
C75	C	0.819288	0.287811	0.767927
H76	H	0.774676	0.332367	0.721618
H77	H	0.858832	0.313449	0.808913
H78	H	0.793693	0.248179	0.808875
C79	C	1.194510	-0.087147	0.610328
H80	H	1.202342	-0.094978	0.680396
H81	H	1.246632	-0.074063	0.593106
H82	H	1.181443	-0.139284	0.593120
C83	C	1.215622	-0.108251	0.452787
H84	H	1.223455	-0.116078	0.522853
H85	H	1.267741	-0.095162	0.435561
H86	H	1.202562	-0.160392	0.435584
C87	C	0.575573	-0.055140	-0.000004
H88	H	0.622857	-0.077183	0.058474
H89	H	0.597038	-0.050210	-0.057894
H90	H	0.534571	-0.093979	-0.000635
C91	C	0.501648	0.241903	-0.176300
H92	H	0.561267	0.242529	-0.175745
H93	H	0.474662	0.298229	-0.176518
H94	H	0.472433	0.226694	-0.234658
H95	H	0.420773	0.261689	-0.000025
H96	H	1.032242	-0.307537	-0.151686
C97	C	0.865336	-0.394591	-0.176103
H98	H	0.808915	-0.368097	-0.176001
H99	H	0.865137	-0.454214	-0.175760
H100	H	0.880189	-0.364946	-0.234516
H101	H	0.845687	-0.313391	0.000153
H102	H	0.952228	-0.462466	0.151888
H103	H	1.101589	-0.377046	0.152053
H104	H	0.945090	0.162109	0.247294
H105	H	1.092927	0.014399	0.690608
