data_functionalizedCrystal
_audit_creation_method	'MofGen! by Chris Wilmer'
_symmetry_space_group_name_H-M	'P1'
_symmetry_Int_Tables_number	1
_symmetry_cell_setting	triclinic
loop_
_symmetry_equiv_pos_as_xyz
  x,y,z
_cell_length_a	14.519709
_cell_length_b	19.188930
_cell_length_c	12.996460
_cell_angle_alpha	89.988736
_cell_angle_beta	90.000034
_cell_angle_gamma	83.412464
loop_
_atom_site_label
_atom_site_type_symbol
_atom_site_fract_x
_atom_site_fract_y
_atom_site_fract_z
O1	O	1.223300	0.091525	-0.085445
O2	O	0.954756	0.102303	-0.085478
O3	O	1.096778	-0.004714	-0.085440
O4	O	1.081279	0.198542	-0.085482
O5	O	1.096763	-0.004720	0.085693
O6	O	0.954742	0.102297	0.085656
O7	O	1.223285	0.091519	0.085689
Cu8	Cu	1.089012	0.096907	0.101298
Cu9	Cu	1.089030	0.096914	-0.101087
O10	O	1.081264	0.198536	0.085651
C11	C	0.920392	0.101797	0.000085
C12	C	0.818020	0.100292	0.000073
C13	C	0.443159	0.094751	0.000121
C14	C	0.547457	0.096290	0.000108
C15	C	0.630586	0.097521	0.000097
C16	C	0.734891	0.099060	0.000085
C17	C	1.096269	-0.030730	0.000129
C18	C	1.094762	-0.108240	0.000138
C19	C	1.178095	-0.152867	0.000153
C20	C	1.176680	-0.225696	0.000137
C21	C	1.091926	-0.253895	0.000125
C22	C	1.008582	-0.209257	0.000105
C23	C	1.009999	-0.136430	0.000111
N24	N	1.027137	-0.362132	0.058358
N25	N	1.025796	-0.431316	0.058354
C26	C	1.087649	-0.473318	0.000104
N27	N	1.150908	-0.443526	-0.058129
N28	N	1.152252	-0.374336	-0.058120
C29	C	1.090379	-0.332863	0.000118
C30	C	1.169454	-0.596916	0.000100
C31	C	1.168035	-0.669745	0.000077
C32	C	0.999934	-0.653305	0.000055
C33	C	1.001355	-0.580477	0.000068
C34	C	1.086118	-0.552287	0.000095
C35	C	1.257649	0.092024	0.000124
C36	C	1.360021	0.093529	0.000128
C37	C	1.081773	0.224551	0.000079
C38	C	1.083280	0.302061	0.000064
N39	N	1.089007	0.096902	0.243645
N40	N	1.089042	0.096914	-0.243434
C41	C	1.089028	0.096915	0.663460
C42	C	1.089020	0.096914	0.546655
C43	C	1.089018	0.096909	0.453556
C44	C	1.089008	0.096906	0.336744
H45	H	1.247116	-0.129920	0.000172
C46	C	0.906704	-0.684317	0.000042
C47	C	0.837568	-0.667510	-0.088832
C48	C	0.744336	-0.698526	-0.088849
C49	C	0.720239	-0.746349	0.000008
C50	C	0.789377	-0.763158	0.088889
C51	C	0.882609	-0.732141	0.088906
H52	H	0.855404	-0.632107	-0.154615
H53	H	0.693156	-0.686083	-0.154644
H54	H	0.651223	-0.769309	-0.000004
H55	H	0.771541	-0.798561	0.154672
H56	H	0.933789	-0.744585	0.154702
H57	H	1.238472	-0.573962	0.000117
C58	C	1.268351	-0.274799	0.000159
C59	C	1.290466	-0.327140	0.089028
C60	C	1.382136	-0.376242	0.089053
C61	C	1.451689	-0.373002	0.000208
C62	C	1.429576	-0.320659	-0.088667
C63	C	1.337906	-0.271558	-0.088692
H64	H	1.238977	-0.329540	0.154802
H65	H	1.398506	-0.414989	0.154845
H66	H	1.519549	-0.409350	0.000226
H67	H	1.481065	-0.318259	-0.154441
H68	H	1.321536	-0.232810	-0.154484
H69	H	1.235898	-0.706081	0.000083
C70	C	0.915351	-0.240272	0.000091
C71	C	0.913787	-0.320379	0.000089
C72	C	0.820552	-0.351392	0.000068
C73	C	0.728882	-0.302298	0.000050
C74	C	0.730443	-0.222187	0.000052
C75	C	0.823677	-0.191174	0.000073
H76	H	0.981649	-0.356725	0.000102
H77	H	0.819397	-0.410696	0.000066
H78	H	0.659864	-0.325256	0.000034
H79	H	0.662580	-0.185841	0.000038
H80	H	0.824832	-0.131870	0.000075
H81	H	0.933496	-0.544140	0.000061
H82	H	0.942137	-0.100094	0.000099
