data_functionalizedCrystal
_audit_creation_method	'MofGen! by Chris Wilmer'
_symmetry_space_group_name_H-M	'P1'
_symmetry_Int_Tables_number	1
_symmetry_cell_setting	triclinic
loop_
_symmetry_equiv_pos_as_xyz
  x,y,z
_cell_length_a	17.699104
_cell_length_b	17.699104
_cell_length_c	18.366186
_cell_angle_alpha	89.992818
_cell_angle_beta	89.990066
_cell_angle_gamma	83.291517
loop_
_atom_site_label
_atom_site_type_symbol
_atom_site_fract_x
_atom_site_fract_y
_atom_site_fract_z
O1	O	1.004078	0.095786	-0.060566
O2	O	0.783703	0.108222	-0.060564
O3	O	0.900108	-0.008183	-0.060559
O4	O	0.887672	0.212192	-0.060572
O5	O	0.900088	-0.008189	0.060541
O6	O	0.783683	0.108216	0.060535
O7	O	1.004058	0.095781	0.060534
Zn8	Zn	0.893867	0.101998	0.079761
Zn9	Zn	0.893893	0.102005	-0.079792
O10	O	0.887653	0.212186	0.060528
C11	C	0.755496	0.107771	-0.000014
C12	C	0.671479	0.106426	-0.000014
C13	C	0.146612	0.167169	-0.000025
C14	C	0.225556	0.168429	-0.000027
C15	C	0.274168	0.100094	-0.000023
C16	C	0.243833	0.030496	-0.000024
C17	C	0.164891	0.029238	-0.000027
C18	C	0.562200	0.035569	-0.000012
C19	C	0.641147	0.036833	-0.000007
C20	C	0.622865	0.174760	-0.000013
C21	C	0.543922	0.173502	-0.000016
C22	C	0.513594	0.103904	-0.000020
C23	C	0.427994	0.102540	-0.000020
C24	C	0.359767	0.101458	-0.000018
C25	C	0.899650	-0.036383	-0.000009
C26	C	0.898305	-0.120400	-0.000008
C27	C	0.959048	-0.645267	-0.000030
C28	C	0.960307	-0.566323	-0.000023
C29	C	0.891973	-0.517711	-0.000021
C30	C	0.822375	-0.548045	-0.000018
C31	C	0.821117	-0.626988	-0.000019
C32	C	0.827448	-0.229679	-0.000012
C33	C	0.828712	-0.150732	-0.000013
C34	C	0.966639	-0.169014	-0.000016
C35	C	0.965381	-0.247957	-0.000017
C36	C	0.895783	-0.278285	-0.000010
C37	C	0.894418	-0.363885	-0.000016
C38	C	0.893337	-0.432112	-0.000021
C39	C	1.032265	0.096232	-0.000018
C40	C	1.116282	0.097577	-0.000024
C41	C	0.888111	0.240386	-0.000024
C42	C	0.889456	0.324403	-0.000029
N43	N	0.893855	0.101992	0.188653
N44	N	0.893912	0.102005	-0.188683
C45	C	0.945416	0.050473	0.226755
C46	C	0.945421	0.050470	0.302983
C47	C	0.893872	0.101998	0.341105
C48	C	0.842301	0.153521	0.302993
C49	C	0.842293	0.153518	0.226767
C50	C	0.883834	0.170946	0.461862
C51	C	0.883848	0.170950	0.538087
C52	C	0.893893	0.102008	0.576213
C53	C	0.903941	0.033058	0.538105
C54	C	0.903933	0.033055	0.461878
C55	C	0.893875	0.102007	0.423760
C56	C	0.945463	0.050481	0.696971
C57	C	0.945462	0.050476	0.773200
C58	C	0.842346	0.153535	0.773208
C59	C	0.842343	0.153533	0.696981
C60	C	0.893905	0.102006	0.658866
H61	H	0.647567	0.231430	-0.000012
H62	H	1.016977	-0.541632	-0.000023
C63	C	0.753540	-0.097259	-0.000003
H64	H	0.711910	-0.126627	0.000008
H65	H	0.751167	-0.066078	-0.042233
H66	H	0.751166	-0.066090	0.042233
H67	H	1.021026	-0.287534	-0.000023
H68	H	0.250246	0.225098	-0.000035
C69	C	0.744567	-0.660355	-0.000019
H70	H	0.753604	-0.714332	-0.000013
H71	H	0.716440	-0.643659	-0.042247
H72	H	0.716433	-0.643667	0.042218
C73	C	1.043198	-0.135655	-0.000014
H74	H	1.083714	-0.175914	-0.000024
H75	H	1.046554	-0.105246	0.042216
H76	H	1.046562	-0.105234	-0.042249
H77	H	0.770777	-0.254362	-0.000015
H78	H	0.504345	0.229147	-0.000015
H79	H	0.800370	0.195487	0.804247
C80	C	0.785578	0.210197	0.184852
H81	H	0.754879	0.240889	0.218470
H82	H	0.754122	0.183009	0.155125
H83	H	0.812750	0.241673	0.155108
C84	C	0.785633	0.210212	0.655065
H85	H	0.754936	0.240906	0.688685
H86	H	0.754175	0.183025	0.625340
H87	H	0.812804	0.241688	0.625319
H88	H	0.875641	0.227091	0.430826
H89	H	1.014695	-0.684842	-0.000037
C90	C	0.747208	-0.494574	-0.000017
H91	H	0.757924	-0.443214	-0.000024
H92	H	0.718657	-0.503760	0.042212
H93	H	0.718675	-0.503754	-0.042253
C94	C	0.528848	-0.040985	-0.000005
H95	H	0.569108	-0.081500	0.000008
H96	H	0.498441	-0.044348	-0.042235
H97	H	0.498426	-0.044342	0.042230
C98	C	0.093145	0.242339	-0.000033
H99	H	0.122518	0.283965	-0.000042
H100	H	0.061958	0.244718	0.042193
H101	H	0.061983	0.244713	-0.042272
H102	H	0.875671	0.227093	0.569108
H103	H	0.987400	0.008516	0.195725
C104	C	1.002142	-0.006202	0.344905
H105	H	1.032851	-0.036887	0.311288
H106	H	0.974981	-0.037676	0.374656
H107	H	1.033599	0.020999	0.374626
H108	H	0.912112	-0.023085	0.430854
C109	C	0.297305	-0.044671	-0.000017
H110	H	0.348664	-0.033955	-0.000007
H111	H	0.288134	-0.073214	-0.042245
H112	H	0.288110	-0.073212	0.042220
C113	C	0.914986	-0.042782	0.580033
H114	H	0.913542	-0.032909	0.630888
H115	H	0.962764	-0.069832	0.567536
H116	H	0.875451	-0.072389	0.567551
H117	H	0.987446	0.008523	0.665937
C118	C	1.002184	-0.006196	0.815113
H119	H	1.032894	-0.036876	0.781494
H120	H	0.975025	-0.037674	0.844862
H121	H	1.033639	0.021004	0.844836
C122	C	0.785601	0.210204	0.344924
H123	H	0.792995	0.202833	0.395779
H124	H	0.735104	0.202044	0.332449
H125	H	0.793732	0.260709	0.332419
C126	C	0.131524	-0.047312	-0.000026
H127	H	0.077547	-0.038275	-0.000036
H128	H	0.148205	-0.075449	0.042204
H129	H	0.148227	-0.075436	-0.042261
C130	C	0.694623	-0.038337	-0.000008
H131	H	0.745982	-0.027617	0.000002
H132	H	0.685454	-0.066875	-0.042240
H133	H	0.685433	-0.066885	0.042225
