data_functionalizedCrystal
_audit_creation_method	'MofGen! by Chris Wilmer'
_symmetry_space_group_name_H-M	'P1'
_symmetry_Int_Tables_number	1
_symmetry_cell_setting	triclinic
loop_
_symmetry_equiv_pos_as_xyz
  x,y,z
_cell_length_a	27.731994
_cell_length_b	27.732048
_cell_length_c	26.809956
_cell_angle_alpha	90.000636
_cell_angle_beta	89.997334
_cell_angle_gamma	97.368405
loop_
_atom_site_label
_atom_site_type_symbol
_atom_site_fract_x
_atom_site_fract_y
_atom_site_fract_z
O1	O	0.640948	-0.057385	-0.041414
O2	O	1.140948	0.442615	0.458586
O3	O	0.500151	-0.066158	-0.041431
O4	O	1.000151	0.433842	0.458569
O5	O	0.574922	0.008626	-0.041412
O6	O	1.074922	0.508626	0.458588
O7	O	0.566177	-0.132169	-0.041432
O8	O	1.066177	0.367831	0.458568
O9	O	0.574908	0.008614	0.041547
O10	O	1.074908	0.508614	0.541547
O11	O	0.500137	-0.066170	0.041528
O12	O	1.000137	0.433830	0.541528
O13	O	0.640934	-0.057397	0.041545
O14	O	1.140934	0.442603	0.541545
Zn15	Zn	0.570533	-0.061785	0.054708
Zn16	Zn	1.070533	0.438215	0.554708
Zn17	Zn	0.570552	-0.061770	-0.054594
Zn18	Zn	1.070552	0.438230	0.445406
O19	O	0.566163	-0.132181	0.041527
O20	O	1.066163	0.367819	0.541527
C21	C	0.482137	-0.065984	0.000046
C22	C	0.982137	0.434016	0.500046
C23	C	0.428480	-0.065442	0.000040
C24	C	0.928480	0.434558	0.500040
C25	C	0.095754	-0.062032	0.045281
C26	C	0.595754	0.437968	0.545281
C27	C	-0.105904	-0.059970	0.045287
C28	C	0.394096	0.440030	0.545287
O29	O	-0.131983	-0.059688	0.083746
O30	O	0.368017	0.440312	0.583746
N31	N	-0.131111	-0.059708	0.000066
N32	N	0.368889	0.440292	0.500066
C33	C	-0.105900	-0.059958	-0.045160
C34	C	0.394100	0.440042	0.454840
O35	O	-0.131967	-0.059683	-0.083623
O36	O	0.368033	0.440317	0.416377
C37	C	0.095757	-0.062016	-0.045165
C38	C	0.595757	0.437984	0.454835
C39	C	0.120961	-0.062283	0.000059
C40	C	0.620961	0.437717	0.500059
C41	C	0.120958	-0.062299	0.090501
C42	C	0.620958	0.437701	0.590501
C43	C	0.171369	-0.062817	0.090499
C44	C	0.671369	0.437183	0.590499
C45	C	0.196576	-0.063068	0.045277
C46	C	0.696576	0.436932	0.545277
C47	C	0.171372	-0.062802	0.000057
C48	C	0.671372	0.437198	0.500057
C49	C	0.120968	-0.062263	-0.090390
C50	C	0.620968	0.437737	0.409610
C51	C	0.171386	-0.062776	-0.090388
C52	C	0.671386	0.437224	0.409612
C53	C	0.196590	-0.063043	-0.045164
C54	C	0.696590	0.436957	0.454836
C55	C	0.246991	-0.063571	-0.045167
C56	C	0.746991	0.436429	0.454833
N57	N	0.272198	-0.063833	0.000054
N58	N	0.772198	0.436167	0.500054
C59	C	0.246991	-0.063582	0.045276
C60	C	0.746991	0.436418	0.545276
C61	C	-0.211774	-0.058879	-0.045154
C62	C	0.288226	0.441121	0.454846
C63	C	-0.262188	-0.058365	-0.045152
C64	C	0.237812	0.441635	0.454848
C65	C	-0.262188	-0.058376	0.045294
C66	C	0.237812	0.441624	0.545294
C67	C	-0.211773	-0.058893	0.045293
C68	C	0.288227	0.441107	0.545293
C69	C	-0.186566	-0.059141	0.000067
C70	C	0.313434	0.440859	0.500067
C71	C	0.352858	-0.064670	0.045268
C72	C	0.852858	0.435330	0.545268
C73	C	0.403273	-0.065190	0.045262
C74	C	0.903273	0.434810	0.545262
C75	C	0.403269	-0.065176	-0.045184
C76	C	0.903269	0.434824	0.454816
C77	C	0.352858	-0.064659	-0.045179
C78	C	0.852858	0.435341	0.454821
C79	C	0.327654	-0.064404	0.000052
C80	C	0.827654	0.435596	0.500052
O81	O	0.273102	-0.063848	-0.083606
O82	O	0.773102	0.436152	0.416394
O83	O	0.273068	-0.063846	0.083733
O84	O	0.773068	0.436154	0.583733
C85	C	0.045343	-0.061514	0.045283
C86	C	0.545343	0.438486	0.545283
C87	C	0.020139	-0.061247	0.000063
C88	C	0.520139	0.438753	0.500063
C89	C	0.045346	-0.061499	-0.045160
C90	C	0.545346	0.438501	0.454840
C91	C	-0.030275	-0.060734	0.000064
C92	C	0.469725	0.439266	0.500064
C93	C	-0.055483	-0.060482	0.045286
C94	C	0.444517	0.439518	0.545286
C95	C	-0.030275	-0.060745	0.090507
C96	C	0.469725	0.439255	0.590507
C97	C	0.020136	-0.061263	0.090505
C98	C	0.520136	0.438737	0.590505
C99	C	0.020139	-0.061237	-0.090381
C100	C	0.520139	0.438763	0.409619
C101	C	-0.030272	-0.060719	-0.090375
C102	C	0.469728	0.439281	0.409625
C103	C	-0.055479	-0.060468	-0.045153
C104	C	0.444521	0.439532	0.454847
C105	C	0.574732	0.026627	0.000069
C106	C	1.074732	0.526627	0.500069
C107	C	0.574179	0.080282	0.000073
C108	C	1.074179	0.580282	0.500073
C109	C	0.658949	-0.057571	0.000067
C110	C	1.158949	0.442429	0.500067
C111	C	0.712605	-0.058114	0.000070
C112	C	1.212605	0.441886	0.500070
C113	C	0.566353	-0.150182	0.000045
C114	C	1.066353	0.349818	0.500045
C115	C	0.566906	-0.203837	0.000037
C116	C	1.066906	0.296163	0.500037
N117	N	0.570524	-0.061795	0.129304
N118	N	1.070524	0.438205	0.629304
C119	C	0.614884	0.419105	0.000052
C120	C	1.114884	0.919105	0.500052
C121	C	0.612833	0.620764	0.000045
C122	C	1.112833	1.120764	0.500045
O123	O	0.650055	0.652027	0.000028
O124	O	1.150055	1.152027	0.500028
N125	N	0.568496	0.639879	0.000040
N126	N	1.068496	1.139879	0.500040
C127	C	0.524670	0.608576	0.000033
C128	C	1.024670	1.108576	0.500033
O129	O	0.486912	0.629462	0.000024
O130	O	0.986912	1.129462	0.500024
C131	C	0.526721	0.406918	0.000037
C132	C	1.026721	0.906918	0.500037
C133	C	0.571061	0.387805	0.000047
C134	C	1.071061	0.887805	0.500047
C135	C	0.659220	0.399992	0.000061
C136	C	1.159220	0.899992	0.500061
C137	C	0.659732	0.349580	0.000066
C138	C	1.159732	0.849580	0.500066
C139	C	0.615908	0.318281	0.000061
C140	C	1.115908	0.818281	0.500061
C141	C	0.571573	0.337394	0.000052
C142	C	1.071573	0.837394	0.500052
C143	C	0.482895	0.375615	0.000027
C144	C	0.982895	0.875615	0.500027
C145	C	0.483412	0.325198	0.000027
C146	C	0.983412	0.825198	0.500027
C147	C	0.527751	0.306086	0.000037
C148	C	1.027751	0.806086	0.500037
C149	C	0.528262	0.255683	0.000051
C150	C	1.028262	0.755683	0.500051
N151	N	0.572598	0.236567	0.000056
N152	N	1.072598	0.736567	0.500056
C153	C	0.616421	0.267867	0.000061
C154	C	1.116421	0.767867	0.500061
C155	C	0.523596	0.714450	0.000032
C156	C	1.023596	1.214450	0.500032
C157	C	0.523083	0.764864	0.000032
C158	C	1.023083	1.264864	0.500032
C159	C	0.611246	0.777049	0.000043
C160	C	1.111246	1.277049	0.500043
C161	C	0.611759	0.726633	0.000047
C162	C	1.111759	1.226633	0.500047
C163	C	0.567932	0.695335	0.000037
C164	C	1.067932	1.195335	0.500037
C165	C	0.617494	0.161998	0.000071
C166	C	1.117494	0.661998	0.500071
C167	C	0.618002	0.111581	0.000078
C168	C	1.118002	0.611581	0.500078
C169	C	0.529839	0.099401	0.000064
C170	C	1.029839	0.599401	0.500064
C171	C	0.529331	0.149813	0.000060
C172	C	1.029331	0.649813	0.500060
C173	C	0.573162	0.181111	0.000062
C174	C	1.073162	0.681111	0.500062
O175	O	0.491060	0.224391	0.000063
O176	O	0.991060	0.724391	0.500063
O177	O	0.654174	0.246971	0.000060
O178	O	1.154174	0.746971	0.500060
C179	C	0.614372	0.469517	0.000047
C180	C	1.114372	0.969517	0.500047
C181	C	0.570036	0.488629	0.000038
C182	C	1.070036	0.988629	0.500038
C183	C	0.526213	0.457330	0.000033
C184	C	1.026213	0.957330	0.500033
C185	C	0.569523	0.539043	0.000038
C186	C	1.069523	1.039043	0.500038
C187	C	0.613346	0.570343	0.000043
C188	C	1.113346	1.070343	0.500043
C189	C	0.657683	0.551228	0.000048
C190	C	1.157683	1.051228	0.500048
C191	C	0.658195	0.500816	0.000052
C192	C	1.158195	1.000816	0.500052
C193	C	0.481876	0.476445	0.000028
C194	C	0.981876	0.976445	0.500028
C195	C	0.481367	0.526857	0.000024
C196	C	0.981367	1.026857	0.500024
C197	C	0.525191	0.558157	0.000029
C198	C	1.025191	1.058157	0.500029
N199	N	0.570565	-0.061756	-0.129190
N200	N	1.070565	0.438244	0.370810
C201	C	0.603656	-0.028664	0.473939
C202	C	1.103656	0.471336	0.973939
C203	C	0.603668	-0.028656	0.682816
C204	C	1.103668	0.471344	1.182816
O205	O	0.631818	-0.000490	0.709827
O206	O	1.131818	0.499510	1.209827
N207	N	0.570555	-0.061759	0.708931
N208	N	1.070555	0.438241	1.208931
C209	C	0.537434	-0.094864	0.682824
C210	C	1.037434	0.405136	1.182824
O211	O	0.509266	-0.123017	0.709829
O212	O	1.009266	0.376983	1.209829
C213	C	0.537420	-0.094869	0.473947
C214	C	1.037420	0.405131	0.973947
C215	C	0.570539	-0.061767	0.447835
C216	C	1.070539	0.438233	0.947835
C217	C	0.636772	0.004436	0.447826
C218	C	1.136772	0.504436	0.947826
C219	C	0.636771	0.004432	0.395610
C220	C	1.136771	0.504432	0.895610
C221	C	0.603653	-0.028672	0.369506
C222	C	1.103653	0.471328	0.869506
C223	C	0.570538	-0.061771	0.395618
C224	C	1.070538	0.438229	0.895618
C225	C	0.504298	-0.127972	0.447841
C226	C	1.004298	0.372028	0.947841
C227	C	0.504297	-0.127969	0.395618
C228	C	1.004297	0.372031	0.895618
C229	C	0.537415	-0.094867	0.369506
C230	C	1.037415	0.405133	0.869506
C231	C	0.537419	-0.094879	0.317298
C232	C	1.037419	0.405121	0.817298
N233	N	0.570532	-0.061776	0.291183
N234	N	1.070532	0.438224	0.791183
C235	C	0.603650	-0.028672	0.317287
C236	C	1.103650	0.471328	0.817287
C237	C	0.537444	-0.094860	0.792487
C238	C	1.037444	0.405140	1.292487
C239	C	0.537448	-0.094860	0.844706
C240	C	1.037448	0.405140	1.344706
C241	C	0.603681	-0.028651	0.844695
C242	C	1.103681	0.471349	1.344695
C243	C	0.603679	-0.028654	0.792475
C244	C	1.103679	0.471346	1.292475
C245	C	0.570557	-0.061757	0.766372
C246	C	1.070557	0.438243	1.266372
C247	C	0.603644	-0.028683	0.207629
C248	C	1.103644	0.471317	0.707629
C249	C	0.603641	-0.028692	0.155408
C250	C	1.103641	0.471308	0.655408
C251	C	0.537406	-0.094898	0.155424
C252	C	1.037406	0.405102	0.655424
C253	C	0.537411	-0.094892	0.207640
C254	C	1.037411	0.405108	0.707640
C255	C	0.570532	-0.061781	0.233742
C256	C	1.070532	0.438219	0.733742
O257	O	0.509280	-0.123027	0.290255
O258	O	1.009280	0.376973	0.790255
O259	O	0.631806	-0.000517	0.290273
O260	O	1.131806	0.499483	0.790273
C261	C	0.603658	-0.028660	0.526155
C262	C	1.103658	0.471340	1.026155
C263	C	0.570542	-0.061759	0.552267
C264	C	1.070542	0.438241	1.052267
C265	C	0.537425	-0.094863	0.526163
C266	C	1.037425	0.405137	1.026163
C267	C	0.570546	-0.061759	0.604486
C268	C	1.070546	0.438241	1.104486
C269	C	0.603663	-0.028655	0.630590
C270	C	1.103663	0.471345	1.130590
C271	C	0.636776	0.004448	0.604475
C272	C	1.136776	0.504448	1.104475
C273	C	0.636775	0.004444	0.552259
C274	C	1.136775	0.504444	1.052259
C275	C	0.504312	-0.127966	0.552279
C276	C	1.004312	0.372034	1.052279
C277	C	0.504316	-0.127960	0.604495
C278	C	1.004316	0.372040	1.104495
C279	C	0.537433	-0.094856	0.630599
C280	C	1.037433	0.405144	1.130599
H281	H	0.332335	-0.064449	-0.082004
H282	H	0.832335	0.435551	0.417996
O283	O	0.487227	0.069060	0.000078
O284	O	0.987227	0.569060	0.500078
C285	C	0.447980	0.096736	0.000054
C286	C	0.947980	0.596736	0.500054
H287	H	0.460526	0.134459	0.015765
H288	H	0.960526	0.634459	0.515765
H289	H	0.434385	0.100224	-0.039750
H290	H	0.934385	0.600224	0.460250
C291	C	0.391114	0.024963	0.013277
C292	C	0.891114	0.524963	0.513277
C293	C	0.406524	0.071294	0.032577
C294	C	0.906524	0.571294	0.532577
H295	H	0.365541	0.009269	0.033337
H296	H	0.865541	0.509269	0.533337
H297	H	0.417556	0.006317	0.013291
H298	H	0.917556	0.506317	0.513291
H299	H	0.379788	0.027876	-0.019893
H300	H	0.879788	0.527876	0.480107
H301	H	0.417855	0.068380	0.065744
H302	H	0.917855	0.568380	0.565744
H303	H	0.380083	0.089939	0.032569
H304	H	0.880083	0.589939	0.532569
H305	H	0.477323	-0.154925	0.374367
H306	H	0.977323	0.345075	0.874367
O307	O	-0.054695	-0.060521	0.134481
O308	O	0.445305	0.439479	0.634481
C309	C	-0.021642	-0.060852	0.174400
C310	C	0.478358	0.439148	0.674400
H311	H	0.012180	-0.076530	0.161147
H312	H	0.512180	0.423470	0.661147
H313	H	-0.010915	-0.022113	0.188309
H314	H	0.489085	0.477887	0.688309
C315	C	-0.087252	-0.073108	0.233399
C316	C	0.412748	0.426892	0.733399
C317	C	-0.045714	-0.092368	0.217122
C318	C	0.454286	0.407632	0.717122
H319	H	-0.102101	-0.092546	0.259753
H320	H	0.397899	0.407454	0.759753
H321	H	-0.109521	-0.072883	0.206505
H322	H	0.390479	0.427117	0.706505
H323	H	-0.078308	-0.040826	0.244986
H324	H	0.421692	0.459174	0.744986
H325	H	-0.054660	-0.124647	0.205530
H326	H	0.445340	0.375353	0.705530
H327	H	-0.023447	-0.092598	0.244015
H328	H	0.476553	0.407402	0.744015
O329	O	0.660040	0.192444	0.000141
O330	O	1.160040	0.692444	0.500141
C331	C	0.662382	0.221964	0.043112
C332	C	1.162382	0.721964	0.543112
H333	H	0.624030	0.224233	0.057428
H334	H	1.124030	0.724233	0.557428
H335	H	0.684322	0.205538	0.073203
H336	H	1.184322	0.705538	0.573203
C337	C	0.734213	0.270545	0.012480
C338	C	1.234213	0.770545	0.512480
C339	C	0.687109	0.273336	0.030061
C340	C	1.187109	0.773336	0.530061
H341	H	0.749467	0.302233	0.004430
H342	H	1.249467	0.802233	0.504430
H343	H	0.732636	0.250656	-0.016470
H344	H	1.232636	0.750656	0.483530
H345	H	0.752490	0.256855	0.037559
H346	H	1.252490	0.756855	0.537559
H347	H	0.668830	0.287020	0.004979
H348	H	1.168830	0.787020	0.504979
H349	H	0.688683	0.293228	0.059006
H350	H	1.188683	0.793228	0.559006
O351	O	0.701309	0.482334	0.000037
O352	O	1.201309	0.982334	0.500037
C353	C	0.739873	0.520778	0.000052
C354	C	1.239873	1.020778	0.500052
H355	H	0.726581	0.554926	-0.015656
H356	H	1.226581	1.054926	0.484344
H357	H	0.753366	0.528017	0.039853
H358	H	1.253366	1.028017	0.539853
C359	C	0.798054	0.464927	-0.013183
C360	C	1.298054	0.964927	0.486817
C361	C	0.781729	0.506867	-0.032480
C362	C	1.281729	1.006867	0.467520
H363	H	0.823874	0.456345	-0.033249
H364	H	1.323874	0.956345	0.466751
H365	H	0.772074	0.439026	-0.013192
H366	H	1.272074	0.939026	0.486808
H367	H	0.809295	0.470964	0.019984
H368	H	1.309295	0.970964	0.519984
H369	H	0.770484	0.500827	-0.065644
H370	H	1.270484	1.000827	0.434356
H371	H	0.807710	0.532766	-0.032478
H372	H	1.307710	1.032766	0.467522
H373	H	0.630647	-0.001700	0.771217
H374	H	1.130647	0.498300	1.271217
O375	O	0.440868	0.294747	0.000085
O376	O	0.940868	0.794747	0.500085
C377	C	0.438509	0.265231	0.043058
C378	C	0.938509	0.765231	0.543058
H379	H	0.476854	0.262966	0.057391
H380	H	0.976854	0.762966	0.557391
H381	H	0.416553	0.281656	0.073139
H382	H	0.916553	0.781656	0.573139
C383	C	0.366696	0.216641	0.012402
C384	C	0.866696	0.716641	0.512402
C385	C	0.413793	0.213856	0.030003
C386	C	0.913793	0.713856	0.530003
H387	H	0.351448	0.184951	0.004350
H388	H	0.851448	0.684951	0.504350
H389	H	0.368284	0.236527	-0.016549
H390	H	0.868284	0.736527	0.483451
H391	H	0.348406	0.230331	0.037472
H392	H	0.848406	0.730331	0.537472
H393	H	0.432084	0.200172	0.004931
H394	H	0.932084	0.700172	0.504931
H395	H	0.412207	0.193966	0.058950
H396	H	0.912207	0.693966	0.558950
H397	H	0.510471	-0.121818	0.771238
H398	H	1.010471	0.378182	1.271238
O399	O	0.654872	0.708150	0.000029
O400	O	1.154872	1.208150	0.500029
C401	C	0.693438	0.746592	0.000048
C402	C	1.193438	1.246592	0.500048
H403	H	0.680147	0.780742	-0.015657
H404	H	1.180147	1.280742	0.484343
H405	H	0.706931	0.753827	0.039849
H406	H	1.206931	1.253827	0.539849
C407	C	0.751615	0.690739	-0.013194
C408	C	1.251615	1.190739	0.486806
C409	C	0.735293	0.732681	-0.032487
C410	C	1.235293	1.232681	0.467513
H411	H	0.777435	0.682157	-0.033261
H412	H	1.277435	1.182157	0.466739
H413	H	0.725633	0.664839	-0.013205
H414	H	1.225633	1.164839	0.486795
H415	H	0.762856	0.696772	0.019973
H416	H	1.262856	1.196772	0.519973
H417	H	0.724047	0.726645	-0.065652
H418	H	1.224047	1.226645	0.434348
H419	H	0.761274	0.758579	-0.032483
H420	H	1.261274	1.258579	0.467517
O421	O	0.661063	0.092993	0.000173
O422	O	1.161063	0.592993	0.500173
C423	C	0.663989	0.064189	0.043134
C424	C	1.163989	0.564189	0.543134
H425	H	0.638815	0.075924	0.073161
H426	H	1.138815	0.575924	0.573161
H427	H	0.652539	0.024343	0.033422
H428	H	1.152539	0.524343	0.533422
C429	C	0.747578	0.056287	0.025741
C430	C	1.247578	0.556287	0.525741
C431	C	0.716662	0.070702	0.062623
C432	C	1.216662	0.570702	0.562623
H433	H	0.780069	0.060302	0.037762
H434	H	1.280069	0.560302	0.537762
H435	H	0.745607	0.075691	-0.003204
H436	H	1.245607	0.575691	0.496796
H437	H	0.738030	0.023082	0.017651
H438	H	1.238030	0.523082	0.517651
H439	H	0.726206	0.103907	0.070708
H440	H	1.226206	0.603907	0.570708
H441	H	0.718636	0.051304	0.091569
H442	H	1.218636	0.551304	0.591569
O443	O	-0.286670	-0.058215	0.089236
O444	O	0.213330	0.441785	0.589236
C445	C	-0.280140	-0.100214	0.116757
C446	C	0.219860	0.399786	0.616757
H447	H	-0.270324	-0.129629	0.090301
H448	H	0.229676	0.370371	0.590301
H449	H	-0.249573	-0.091044	0.144960
H450	H	0.250427	0.408956	0.644960
C451	C	-0.339611	-0.082615	0.176955
C452	C	0.160389	0.417385	0.676955
C453	C	-0.327560	-0.118745	0.144460
C454	C	0.172440	0.381255	0.644460
H455	H	-0.368861	-0.094045	0.194046
H456	H	0.131139	0.405955	0.694046
H457	H	-0.344010	-0.054318	0.158415
H458	H	0.155990	0.445682	0.658415
H459	H	-0.314135	-0.074976	0.200453
H460	H	0.185865	0.425024	0.700453
H461	H	-0.353033	-0.126378	0.120960
H462	H	0.146967	0.373622	0.620960
H463	H	-0.323167	-0.147044	0.162997
H464	H	0.176833	0.352956	0.662997
H465	H	0.332342	-0.064467	0.082099
H466	H	0.832342	0.435533	0.582099
O467	O	0.653773	0.807526	0.000021
O468	O	1.153773	1.307526	0.500021
C469	C	0.643806	0.856119	0.000031
C470	C	1.143806	1.356119	0.500031
H471	H	0.605851	0.857761	-0.015673
H472	H	1.105851	1.357761	0.484327
H473	H	0.645749	0.870718	0.039829
H474	H	1.145749	1.370718	0.539829
C475	C	0.728184	0.885246	-0.013220
C476	C	1.228184	1.385246	0.486780
C477	C	0.681568	0.887263	-0.032511
C478	C	1.181568	1.387263	0.467489
H479	H	0.751478	0.904458	-0.033291
H480	H	1.251478	1.404458	0.466709
H481	H	0.734899	0.852508	-0.013224
H482	H	1.234899	1.352508	0.486776
H483	H	0.729795	0.897411	0.019945
H484	H	1.229795	1.397411	0.519945
H485	H	0.679955	0.875092	-0.065673
H486	H	1.179955	1.375092	0.434327
H487	H	0.674853	0.919999	-0.032513
H488	H	1.174853	1.419999	0.467487
H489	H	0.493226	0.165375	0.000066
H490	H	0.993226	0.665375	0.500066
H491	H	0.040652	-0.061480	0.127331
H492	H	0.540652	0.438520	0.627331
H493	H	0.477329	-0.154926	0.469094
H494	H	0.977329	0.345074	0.969094
H495	H	0.663740	0.031395	0.469075
H496	H	1.163740	0.531395	0.969075
H497	H	0.695837	0.334024	0.000072
H498	H	1.195837	0.834024	0.500072
H499	H	0.477343	-0.154922	0.531029
H500	H	0.977343	0.345078	1.031029
O501	O	0.195861	-0.063155	0.134417
O502	O	0.695861	0.436845	0.634417
C503	C	0.219244	-0.105325	0.137121
C504	C	0.719244	0.394675	0.637121
H505	H	0.200009	-0.134443	0.111457
H506	H	0.700009	0.365557	0.611457
H507	H	0.258762	-0.096244	0.124975
H508	H	0.758762	0.403756	0.624975
C509	C	0.241010	-0.088559	0.222670
C510	C	0.741010	0.411441	0.722670
C511	C	0.217383	-0.124324	0.191152
C512	C	0.717383	0.375676	0.691152
H513	H	0.239865	-0.100278	0.256000
H514	H	0.739865	0.399722	0.756000
H515	H	0.225258	-0.060147	0.220848
H516	H	0.725258	0.439853	0.720848
H517	H	0.273940	-0.080995	0.212543
H518	H	0.773940	0.419005	0.712543
H519	H	0.184452	-0.131883	0.201276
H520	H	0.684452	0.368117	0.701276
H521	H	0.233129	-0.152738	0.192977
H522	H	0.733129	0.347262	0.692977
O523	O	0.505255	-0.127005	0.129984
O524	O	1.005255	0.372995	0.629984
C525	C	0.512365	-0.119912	0.078296
C526	C	1.012365	0.380088	0.578296
H527	H	0.530726	-0.081354	0.071167
H528	H	1.030726	0.418646	0.571167
H529	H	0.536399	-0.147105	0.063474
H530	H	1.036399	0.352895	0.563474
C531	C	0.440312	-0.174876	0.060243
C532	C	0.940312	0.325124	0.560243
C533	C	0.462860	-0.127516	0.051487
C534	C	0.962860	0.372484	0.551487
H535	H	0.409776	-0.179569	0.043705
H536	H	0.909776	0.320431	0.543705
H537	H	0.435523	-0.179657	0.095066
H538	H	0.935523	0.320343	0.595066
H539	H	0.460345	-0.197531	0.047891
H540	H	0.960345	0.302469	0.547891
H541	H	0.442830	-0.104862	0.063844
H542	H	0.942830	0.395138	0.563844
H543	H	0.467645	-0.122732	0.016665
H544	H	0.967645	0.377268	0.516665
O545	O	0.505193	-0.127065	0.232932
O546	O	1.005193	0.372935	0.732932
C547	C	0.475972	-0.156292	0.198691
C548	C	0.975972	0.343708	0.698691
H549	H	0.475582	-0.136482	0.161464
H550	H	0.975582	0.363518	0.661464
H551	H	0.491392	-0.192095	0.193145
H552	H	0.991392	0.307905	0.693145
C553	C	0.424228	-0.190945	0.264791
C554	C	0.924228	0.309055	0.764791
C555	C	0.423746	-0.166612	0.219069
C556	C	0.923746	0.333388	0.719069
H557	H	0.392013	-0.197313	0.277361
H558	H	0.892013	0.302687	0.777361
H559	H	0.443916	-0.171255	0.287860
H560	H	0.943916	0.328745	0.787860
H561	H	0.437080	-0.220778	0.260163
H562	H	0.937080	0.279222	0.760163
H563	H	0.410899	-0.136777	0.223699
H564	H	0.910899	0.363223	0.723699
H565	H	0.404054	-0.186297	0.196001
H566	H	0.904054	0.313703	0.696001
H567	H	0.100440	-0.062093	0.127329
H568	H	0.600440	0.437907	0.627329
H569	H	0.694908	0.425472	0.000064
H570	H	1.194908	0.925472	0.500064
O571	O	0.635830	0.003575	0.870002
O572	O	1.135830	0.503575	1.370002
C573	C	0.628318	0.051370	0.857255
C574	C	1.128318	0.551370	1.357255
H575	H	0.609687	0.051178	0.819340
H576	H	1.109687	0.551178	1.319340
H577	H	0.604364	0.066142	0.886645
H578	H	1.104364	0.566142	1.386645
C579	C	0.700518	0.084120	0.901413
C580	C	1.200518	0.584120	1.401413
C581	C	0.677639	0.083885	0.854843
C582	C	1.177639	0.583885	1.354843
H583	H	0.730940	0.104178	0.899927
H584	H	1.230940	0.604178	1.399927
H585	H	0.705578	0.051919	0.910003
H586	H	1.205578	0.551919	1.410003
H587	H	0.680551	0.096429	0.925900
H588	H	1.180551	0.596429	1.425900
H589	H	0.697602	0.071570	0.830359
H590	H	1.197602	0.571570	1.330359
H591	H	0.672583	0.116084	0.846249
H592	H	1.172583	0.616084	1.346249
O593	O	0.505233	-0.127037	0.869991
O594	O	1.005233	0.372963	1.369991
C595	C	0.476012	-0.156260	0.835747
C596	C	0.976012	0.343740	1.335747
H597	H	0.475617	-0.136442	0.798525
H598	H	0.975617	0.363558	1.298525
H599	H	0.491435	-0.192059	0.830191
H600	H	0.991435	0.307941	1.330191
C601	C	0.424276	-0.190931	0.901844
C602	C	0.924276	0.309069	1.401844
C603	C	0.423787	-0.166590	0.856129
C604	C	0.923787	0.333410	1.356129
H605	H	0.392062	-0.197306	0.914417
H606	H	0.892062	0.302694	1.414417
H607	H	0.443963	-0.171245	0.924916
H608	H	0.943963	0.328755	1.424916
H609	H	0.437131	-0.220761	0.897208
H610	H	0.937131	0.279239	1.397208
H611	H	0.410938	-0.136758	0.860767
H612	H	0.910938	0.363242	1.360767
H613	H	0.404096	-0.186271	0.833058
H614	H	0.904096	0.313729	1.333058
H615	H	0.630612	-0.001736	0.134149
H616	H	1.130612	0.498264	0.634149
O617	O	0.479969	0.783346	0.000006
O618	O	0.979969	1.283346	0.500006
C619	C	0.441403	0.744904	0.000013
C620	C	0.941403	1.244904	0.500013
H621	H	0.454699	0.710755	-0.015690
H622	H	0.954699	1.210755	0.484310
H623	H	0.427896	0.737667	0.039811
H624	H	0.927896	1.237667	0.539811
C625	C	0.383230	0.800759	-0.013242
C626	C	0.883230	1.300759	0.486758
C627	C	0.399559	0.758818	-0.032532
C628	C	0.899559	1.258818	0.467468
H629	H	0.357417	0.809341	-0.033315
H630	H	0.857417	1.309341	0.466685
H631	H	0.409212	0.826658	-0.013244
H632	H	0.909212	1.326658	0.486756
H633	H	0.371978	0.794723	0.019923
H634	H	0.871978	1.294723	0.519923
H635	H	0.410816	0.764856	-0.065693
H636	H	0.910816	1.264856	0.434307
H637	H	0.373578	0.732919	-0.032535
H638	H	0.873578	1.232919	0.467465
O639	O	-0.187301	-0.059062	0.089236
O640	O	0.312699	0.440938	0.589236
C641	C	-0.193847	-0.017066	0.116757
C642	C	0.306153	0.482934	0.616757
H643	H	-0.203656	0.012350	0.090299
H644	H	0.296344	0.512350	0.590299
H645	H	-0.224423	-0.026242	0.144950
H646	H	0.275577	0.473758	0.644950
C647	C	-0.134393	-0.034663	0.176970
C648	C	0.365607	0.465337	0.676970
C649	C	-0.146437	0.001468	0.144474
C650	C	0.353563	0.501468	0.644474
H651	H	-0.105150	-0.023231	0.194069
H652	H	0.394850	0.476769	0.694069
H653	H	-0.129985	-0.062957	0.158430
H654	H	0.370015	0.437043	0.658430
H655	H	-0.159877	-0.042306	0.200460
H656	H	0.340123	0.457694	0.700460
H657	H	-0.120956	0.009106	0.120981
H658	H	0.379044	0.509106	0.620981
H659	H	-0.150841	0.029764	0.163011
H660	H	0.349159	0.529764	0.663011
H661	H	0.663743	0.031398	0.531002
H662	H	1.163743	0.531398	1.031002
H663	H	0.100456	-0.062045	-0.127217
H664	H	0.600456	0.437955	0.372783
H665	H	0.693365	0.576720	0.000054
H666	H	1.193365	1.076720	0.500054
O667	O	0.481051	0.684000	0.000093
O668	O	0.981051	1.184000	0.500093
C669	C	0.478695	0.654481	0.043064
C670	C	0.978695	1.154481	0.543064
H671	H	0.517041	0.652214	0.057392
H672	H	1.017041	1.152214	0.557392
H673	H	0.456743	0.670907	0.073148
H674	H	0.956743	1.170907	0.573148
C675	C	0.406877	0.605897	0.012413
C676	C	0.906877	1.105897	0.512413
C677	C	0.453975	0.603108	0.030008
C678	C	0.953975	1.103108	0.530008
H679	H	0.391626	0.574208	0.004361
H680	H	0.891626	1.074208	0.504361
H681	H	0.408463	0.625785	-0.016537
H682	H	0.908463	1.125785	0.483463
H683	H	0.388589	0.619587	0.037486
H684	H	0.888589	1.119587	0.537486
H685	H	0.472262	0.589424	0.004934
H686	H	0.972262	1.089424	0.504934
H687	H	0.452391	0.583217	0.058954
H688	H	0.952391	1.083217	0.558954
H689	H	0.663744	0.031400	0.625737
H690	H	1.163744	0.531400	1.125737
O691	O	-0.054675	-0.060440	-0.134354
O692	O	0.445325	0.439560	0.365646
C693	C	-0.021611	-0.060784	-0.174265
C694	C	0.478389	0.439216	0.325735
H695	H	0.016442	-0.045849	-0.161000
H696	H	0.516442	0.454151	0.339000
H697	H	-0.021616	-0.099631	-0.188179
H698	H	0.478384	0.400369	0.311821
C699	C	-0.083627	-0.047201	-0.233276
C700	C	0.416373	0.452799	0.266724
C701	C	-0.036890	-0.028854	-0.216985
C702	C	0.463110	0.471146	0.283015
H703	H	-0.093053	-0.027507	-0.259629
H704	H	0.406947	0.472493	0.240371
H705	H	-0.105904	-0.046971	-0.206388
H706	H	0.394096	0.453029	0.293612
H707	H	-0.083626	-0.079573	-0.244868
H708	H	0.416374	0.420427	0.255132
H709	H	-0.036894	0.003515	-0.205388
H710	H	0.463106	0.503515	0.294612
H711	H	-0.014614	-0.029078	-0.243872
H712	H	0.485386	0.470922	0.256128
O713	O	0.472076	-0.160070	0.629835
O714	O	0.972076	0.339930	1.129835
C715	C	0.424288	-0.152553	0.617061
C716	C	0.924288	0.347447	1.117061
H717	H	0.424349	-0.113852	0.602706
H718	H	0.924349	0.386148	1.102706
H719	H	0.409890	-0.179446	0.586750
H720	H	0.909890	0.320554	1.086750
C721	C	0.391380	-0.207826	0.681078
C722	C	0.891380	0.292174	1.181078
C723	C	0.391454	-0.160291	0.663450
C724	C	0.891454	0.339709	1.163450
H725	H	0.371125	-0.212600	0.709692
H726	H	0.871125	0.287400	1.209692
H727	H	0.423575	-0.212892	0.689683
H728	H	0.923575	0.287108	1.189683
H729	H	0.379382	-0.230231	0.655815
H730	H	0.879382	0.269769	1.155815
H731	H	0.403457	-0.137886	0.688712
H732	H	0.903457	0.362114	1.188712
H733	H	0.359260	-0.155221	0.654851
H734	H	0.859260	0.344779	1.154851
O735	O	0.427746	-0.065361	0.089208
O736	O	0.927746	0.434639	0.589208
C737	C	0.421207	-0.023363	0.116730
C738	C	0.921207	0.476637	0.616730
H739	H	0.411401	0.006054	0.090272
H740	H	0.911401	0.506054	0.590272
H741	H	0.390631	-0.032535	0.144925
H742	H	0.890631	0.467465	0.644925
C743	C	0.480660	-0.040967	0.176940
C744	C	0.980660	0.459033	0.676940
C745	C	0.468619	-0.004835	0.144444
C746	C	0.968619	0.495165	0.644444
H747	H	0.509905	-0.029539	0.194038
H748	H	1.009905	0.470461	0.694038
H749	H	0.485064	-0.069263	0.158400
H750	H	0.985064	0.430737	0.658400
H751	H	0.455176	-0.048607	0.200432
H752	H	0.955176	0.451393	0.700432
H753	H	0.494100	0.002800	0.120950
H754	H	0.994100	0.502800	0.620950
H755	H	0.464221	0.023463	0.162982
H756	H	0.964221	0.523463	0.662982
O757	O	-0.286591	-0.058091	-0.089128
O758	O	0.213409	0.441909	0.410872
C759	C	-0.253527	-0.058434	-0.129039
C760	C	0.246473	0.441566	0.370961
H761	H	-0.215475	-0.043494	-0.115775
H762	H	0.284525	0.456506	0.384225
H763	H	-0.253528	-0.097282	-0.142949
H764	H	0.246472	0.402718	0.357051
C765	C	-0.315547	-0.044865	-0.188051
C766	C	0.184453	0.455135	0.311949
C767	C	-0.268812	-0.026511	-0.171762
C768	C	0.231188	0.473489	0.328238
H769	H	-0.324976	-0.025176	-0.214406
H770	H	0.175024	0.474824	0.285594
H771	H	-0.337824	-0.044636	-0.161163
H772	H	0.162176	0.455364	0.338837
H773	H	-0.315542	-0.077238	-0.199640
H774	H	0.184458	0.422762	0.300360
H775	H	-0.268819	0.005858	-0.160168
H776	H	0.231181	0.505858	0.339832
H777	H	-0.246535	-0.026735	-0.198649
H778	H	0.253465	0.473265	0.301351
O779	O	0.195793	-0.063041	-0.134366
O780	O	0.695793	0.436959	0.365634
C781	C	0.162734	-0.062683	-0.174276
C782	C	0.662734	0.437317	0.325724
H783	H	0.124679	-0.077624	-0.161017
H784	H	0.624679	0.422376	0.338983
H785	H	0.162739	-0.023831	-0.188175
H786	H	0.662739	0.476169	0.311825
C787	C	0.224758	-0.076241	-0.233294
C788	C	0.724758	0.423759	0.266706
C789	C	0.178020	-0.094596	-0.217010
C790	C	0.678020	0.405404	0.282990
H791	H	0.234188	-0.095925	-0.259655
H792	H	0.734188	0.404075	0.240345
H793	H	0.247032	-0.076480	-0.206406
H794	H	0.747032	0.423520	0.293594
H795	H	0.224757	-0.043865	-0.244873
H796	H	0.724757	0.456135	0.255127
H797	H	0.178023	-0.126969	-0.205425
H798	H	0.678023	0.373031	0.294575
H799	H	0.155747	-0.094363	-0.243897
H800	H	0.655747	0.405637	0.256103
O801	O	0.439780	0.394092	-0.000007
O802	O	0.939780	0.894092	0.499993
C803	C	0.401218	0.355647	-0.000002
C804	C	0.901218	0.855647	0.499998
H805	H	0.414518	0.321499	-0.015702
H806	H	0.914518	0.821499	0.484298
H807	H	0.387708	0.348411	0.039794
H808	H	0.887708	0.848411	0.539794
C809	C	0.343040	0.411495	-0.013266
C810	C	0.843040	0.911495	0.486734
C811	C	0.359375	0.369556	-0.032552
C812	C	0.859375	0.869556	0.467448
H813	H	0.317228	0.420075	-0.033342
H814	H	0.817228	0.920075	0.466658
H815	H	0.369020	0.437397	-0.013267
H816	H	0.869020	0.937397	0.486733
H817	H	0.331785	0.405459	0.019898
H818	H	0.831785	0.905459	0.519898
H819	H	0.370635	0.375594	-0.065713
H820	H	0.870635	0.875594	0.434287
H821	H	0.333396	0.343655	-0.032557
H822	H	0.833396	0.843655	0.467443
H823	H	0.423802	-0.065383	-0.082003
H824	H	0.923802	0.434617	0.417997
H825	H	0.445258	0.542413	0.000020
H826	H	0.945258	1.042413	0.500020
H827	H	0.446189	0.450966	0.000023
H828	H	0.946189	0.950966	0.500023
H829	H	0.040658	-0.061440	-0.127207
H830	H	0.540658	0.438560	0.372793
H831	H	0.630614	-0.001720	0.228875
H832	H	1.130614	0.498280	0.728875
O833	O	0.668957	0.036638	0.370325
O834	O	1.168957	0.536638	0.870325
C835	C	0.698190	0.065846	0.404572
C836	C	1.198190	0.565846	0.904572
H837	H	0.678375	0.066245	0.441796
H838	H	1.178375	0.566245	0.941796
H839	H	0.733982	0.050406	0.410123
H840	H	1.233982	0.550406	0.910123
C841	C	0.732880	0.117577	0.338480
C842	C	1.232880	0.617577	0.838480
C843	C	0.708540	0.118070	0.384198
C844	C	1.208540	0.618070	0.884198
H845	H	0.739267	0.149791	0.325912
H846	H	1.239267	0.649791	0.825912
H847	H	0.713187	0.097898	0.315407
H848	H	1.213187	0.597898	0.815407
H849	H	0.762704	0.104708	0.343112
H850	H	1.262704	0.604708	0.843112
H851	H	0.678715	0.130933	0.379564
H852	H	1.178715	0.630933	0.879564
H853	H	0.728229	0.137752	0.407270
H854	H	1.228229	0.637752	0.907270
H855	H	-0.191255	-0.059080	-0.081984
H856	H	0.308745	0.440920	0.418016
