data_functionalizedCrystal
_audit_creation_method	'MofGen! by Chris Wilmer'
_symmetry_space_group_name_H-M	'P1'
_symmetry_Int_Tables_number	1
_symmetry_cell_setting	triclinic
loop_
_symmetry_equiv_pos_as_xyz
  x,y,z
_cell_length_a	21.295418
_cell_length_b	21.295417
_cell_length_c	16.120297
_cell_angle_alpha	92.868089
_cell_angle_beta	92.858291
_cell_angle_gamma	90.045515
loop_
_atom_site_label
_atom_site_type_symbol
_atom_site_fract_x
_atom_site_fract_y
_atom_site_fract_z
Zn1	Zn	0.944264	-0.268427	-0.471781
Zn2	Zn	1.277598	0.064906	-0.138448
Zn3	Zn	1.610931	0.398239	0.194886
Zn4	Zn	0.949516	-0.368356	-0.332364
Zn5	Zn	1.282849	-0.035023	0.000969
Zn6	Zn	1.616182	0.298310	0.334303
Zn7	Zn	0.844336	-0.263133	-0.332341
Zn8	Zn	1.177669	0.070200	0.000992
Zn9	Zn	1.511002	0.403534	0.334326
Zn10	Zn	0.838962	-0.373688	-0.471680
Zn11	Zn	1.172296	-0.040354	-0.138347
Zn12	Zn	1.505629	0.292979	0.194987
O13	O	0.894270	-0.318401	-0.402042
O14	O	1.227603	0.014932	-0.068708
O15	O	1.560936	0.348266	0.264625
O16	O	1.033048	-0.281667	-0.453339
O17	O	1.366382	0.051666	-0.120006
O18	O	1.699715	0.384999	0.213328
O19	O	0.940010	-0.349951	-0.215700
O20	O	1.273343	-0.016618	0.117633
O21	O	1.606676	0.316715	0.450966
O22	O	0.857643	-0.175747	-0.350870
O23	O	1.190976	0.157586	-0.017537
O24	O	1.524309	0.490919	0.315796
O25	O	1.036906	-0.355085	-0.350910
O26	O	1.370240	-0.021752	-0.017577
O27	O	1.703573	0.311582	0.315757
O28	O	0.931060	-0.179637	-0.453317
O29	O	1.264393	0.153696	-0.119983
O30	O	1.597726	0.487030	0.213350
O31	O	0.862734	-0.272644	-0.215683
O32	O	1.196068	0.060689	0.117650
O33	O	1.529401	0.394022	0.450983
O34	O	0.755536	-0.277814	-0.350773
O35	O	1.088869	0.055519	-0.017439
O36	O	1.422202	0.388853	0.315894
O37	O	0.848484	-0.364172	-0.588354
O38	O	1.181818	-0.030838	-0.255021
O39	O	1.515151	0.302495	0.078313
O40	O	0.751588	-0.359038	-0.453145
O41	O	1.084921	-0.025705	-0.119811
O42	O	1.418254	0.307629	0.213522
O43	O	0.925849	-0.286837	-0.588428
O44	O	1.259183	0.046496	-0.255095
O45	O	1.592516	0.379830	0.078239
O46	O	0.934799	-0.457152	-0.350812
O47	O	1.268133	-0.123818	-0.017479
O48	O	1.601466	0.209515	0.315855
O49	O	0.853576	-0.461069	-0.453167
O50	O	1.186910	-0.127735	-0.119834
O51	O	1.520243	0.205598	0.213500
C52	C	0.730722	-0.318431	-0.401946
C53	C	1.064055	0.014903	-0.068612
C54	C	1.397388	0.348236	0.264721
C55	C	0.660754	-0.318459	-0.401924
C56	C	0.994088	0.014874	-0.068591
C57	C	1.327421	0.348208	0.264742
C58	C	0.894191	-0.481951	-0.401999
C59	C	1.227524	-0.148618	-0.068666
C60	C	1.560858	0.184715	0.264667
C61	C	0.894214	-0.551920	-0.402009
C62	C	1.227547	-0.218586	-0.068676
C63	C	1.560880	0.114747	0.264658
C64	C	0.625851	-0.360803	-0.455150
C65	C	0.959185	-0.027469	-0.121816
C66	C	1.292518	0.305864	0.211517
C67	C	0.560108	-0.360789	-0.455187
C68	C	0.893441	-0.027455	-0.121854
C69	C	1.226774	0.305878	0.211480
C70	C	0.529269	-0.318437	-0.401984
C71	C	0.862603	0.014896	-0.068651
C72	C	1.195936	0.348230	0.264682
C73	C	0.564180	-0.276085	-0.348755
C74	C	0.897514	0.057248	-0.015422
C75	C	1.230847	0.390581	0.317912
C76	C	0.629923	-0.276096	-0.348725
C77	C	0.963256	0.057237	-0.015392
C78	C	1.296589	0.390570	0.317942
N79	N	0.428790	-0.310726	-0.329069
N80	N	0.762123	0.022607	0.004264
N81	N	1.095457	0.355941	0.337598
N82	N	0.366337	-0.310719	-0.329100
N83	N	0.699671	0.022614	0.004233
N84	N	1.033004	0.355947	0.337567
C85	C	0.331191	-0.318400	-0.402073
C86	C	0.664525	0.014933	-0.068739
C87	C	0.997858	0.348266	0.264594
N88	N	0.360857	-0.326100	-0.475015
N89	N	0.694191	0.007233	-0.141682
N90	N	1.027524	0.340566	0.191652
N91	N	0.423316	-0.326110	-0.474983
N92	N	0.756649	0.007223	-0.141650
N93	N	1.089982	0.340556	0.191683
C94	C	0.457983	-0.318420	-0.402011
C95	C	0.791316	0.014913	-0.068678
C96	C	1.124650	0.348247	0.264655
C97	C	0.225001	-0.360731	-0.455343
C98	C	0.558335	-0.027398	-0.122010
C99	C	0.891668	0.305936	0.211324
C100	C	0.159256	-0.360712	-0.455382
C101	C	0.492590	-0.027379	-0.122049
C102	C	0.825923	0.305954	0.211285
C103	C	0.163331	-0.276012	-0.348943
C104	C	0.496664	0.057321	-0.015609
C105	C	0.829997	0.390654	0.317724
C106	C	0.229074	-0.276028	-0.348911
C107	C	0.562407	0.057306	-0.015578
C108	C	0.895741	0.390639	0.317755
C109	C	0.259906	-0.318390	-0.402110
C110	C	0.593239	0.014943	-0.068777
C111	C	0.926572	0.348276	0.264556
C112	C	0.932418	-0.586756	-0.455391
C113	C	1.265751	-0.253423	-0.122058
C114	C	1.599084	0.079911	0.211276
C115	C	0.932439	-0.652499	-0.455411
C116	C	1.265772	-0.319166	-0.122078
C117	C	1.599106	0.014167	0.211255
C118	C	0.894264	-0.683403	-0.402035
C119	C	1.227597	-0.350070	-0.068702
C120	C	1.560931	-0.016736	0.264631
C121	C	0.856052	-0.648559	-0.348650
C122	C	1.189386	-0.315225	-0.015317
C123	C	1.522719	0.018108	0.318017
C124	C	0.856027	-0.582817	-0.348637
C125	C	1.189361	-0.249484	-0.015303
C126	C	1.522694	0.083850	0.318030
N127	N	0.892303	-0.783871	-0.329074
N128	N	1.225636	-0.450538	0.004259
N129	N	1.558969	-0.117205	0.337593
N130	N	0.892330	-0.846323	-0.329089
N131	N	1.225663	-0.512990	0.004245
N132	N	1.558997	-0.179657	0.337578
C133	C	0.894336	-0.881479	-0.402073
C134	C	1.227669	-0.548146	-0.068740
C135	C	1.561003	-0.214813	0.264594
N136	N	0.896326	-0.851824	-0.475044
N137	N	1.229659	-0.518491	-0.141710
N138	N	1.562992	-0.185157	0.191623
N139	N	0.896301	-0.789366	-0.475028
N140	N	1.229635	-0.456033	-0.141694
N141	N	1.562968	-0.122700	0.191639
C142	C	0.894286	-0.754689	-0.402044
C143	C	1.227620	-0.421355	-0.068711
C144	C	1.560953	-0.088022	0.264623
C145	C	0.932565	-0.987602	-0.455482
C146	C	1.265898	-0.654269	-0.122148
C147	C	1.599232	-0.320935	0.211185
C148	C	0.932582	-1.053347	-0.455504
C149	C	1.265915	-0.720013	-0.122170
C150	C	1.599249	-0.386680	0.211163
C151	C	0.856199	-1.049405	-0.348735
C152	C	1.189532	-0.716071	-0.015401
C153	C	1.522865	-0.382738	0.317932
C154	C	0.856178	-0.983662	-0.348720
C155	C	1.189512	-0.650328	-0.015387
C156	C	1.522845	-0.316995	0.317947
C157	C	0.894365	-0.952764	-0.402092
C158	C	1.227698	-0.619431	-0.068759
C159	C	1.561031	-0.286098	0.264574
C160	C	1.058456	-0.318372	-0.402138
C161	C	1.391789	0.014961	-0.068805
C162	C	1.725123	0.348295	0.264528
C163	C	1.128423	-0.318360	-0.402180
C164	C	1.461756	0.014974	-0.068846
C165	C	1.795089	0.348307	0.264487
C166	C	0.885982	-0.326690	-0.619486
C167	C	1.219315	0.006644	-0.286152
C168	C	1.552648	0.339977	0.047181
C169	C	0.882450	-0.330222	-0.712147
C170	C	1.215783	0.003112	-0.378814
C171	C	1.549117	0.336445	-0.045481
C172	C	0.894365	-0.154213	-0.402102
C173	C	1.227698	0.179120	-0.068769
C174	C	1.561032	0.512454	0.264564
C175	C	0.894406	-0.084246	-0.402128
C176	C	1.227739	0.249087	-0.068795
C177	C	1.561072	0.582421	0.264539
C178	C	0.875979	-0.336656	-0.881801
C179	C	1.209312	-0.003323	-0.548468
C180	C	1.542646	0.330010	-0.215135
C181	C	0.912684	-0.299957	-0.923134
C182	C	1.246017	0.033376	-0.589800
C183	C	1.579351	0.366709	-0.256467
C184	C	0.909084	-0.303538	-1.017535
C185	C	1.242417	0.029796	-0.684202
C186	C	1.575750	0.363129	-0.350868
C187	C	0.879579	-0.333077	-0.787392
C188	C	1.212912	0.000256	-0.454058
C189	C	1.546245	0.333590	-0.120725
C190	C	0.902561	-0.310099	-0.185443
C191	C	1.235895	0.023234	0.147890
C192	C	1.569228	0.356567	0.481223
C193	C	0.906215	-0.306390	-0.092782
C194	C	1.239548	0.026943	0.240551
C195	C	1.572882	0.360277	0.573884
H196	H	0.650950	-0.395297	-0.498470
H197	H	0.984284	-0.061964	-0.165136
H198	H	1.317617	0.271370	0.168197
Cl199	Cl	0.115377	-0.413946	-0.522305
Cl200	Cl	0.448711	-0.080613	-0.188972
Cl201	Cl	0.782044	0.252720	0.144361
Cl202	Cl	0.673803	-0.222860	-0.281807
Cl203	Cl	1.007136	0.110473	0.051526
Cl204	Cl	1.340470	0.443807	0.384859
H205	H	0.250106	-0.395222	-0.498665
H206	H	0.583439	-0.061889	-0.165332
H207	H	0.916772	0.271445	0.168001
H208	H	0.531684	-0.395270	-0.498533
H209	H	0.865017	-0.061936	-0.165199
H210	H	1.198351	0.271397	0.168134
H211	H	0.946812	-0.265849	-0.887621
H212	H	1.280145	0.067484	-0.554288
H213	H	1.613479	0.400818	-0.220955
Cl214	Cl	0.124569	-0.222766	-0.282063
Cl215	Cl	0.457902	0.110568	0.051270
Cl216	Cl	0.791235	0.443901	0.384603
H217	H	0.841854	-0.370762	-0.917311
H218	H	1.175187	-0.037429	-0.583978
H219	H	1.508520	0.295905	-0.250645
Cl220	Cl	0.808204	-1.088249	-0.281635
Cl221	Cl	1.141538	-0.754916	0.051699
Cl222	Cl	1.474871	-0.421583	0.385032
Cl223	Cl	0.808148	-0.939865	-0.281607
Cl224	Cl	1.141481	-0.606532	0.051726
Cl225	Cl	1.474815	-0.273198	0.385060
H226	H	0.539068	-0.241601	-0.305439
H227	H	0.872401	0.091732	0.027895
H228	H	1.205734	0.425065	0.361228
Cl229	Cl	0.807995	-0.539021	-0.281523
Cl230	Cl	1.141328	-0.205687	0.051810
Cl231	Cl	1.474662	0.127646	0.385144
H232	H	0.824968	-0.673725	-0.305193
H233	H	1.158302	-0.340392	0.028141
H234	H	1.491635	-0.007058	0.361474
Cl235	Cl	0.272954	-0.222794	-0.281993
Cl236	Cl	0.606288	0.110539	0.051341
Cl237	Cl	0.939621	0.443872	0.384674
H238	H	0.963544	-0.680869	-0.498891
H239	H	1.296877	-0.347535	-0.165558
H240	H	1.630210	-0.014202	0.167776
Cl241	Cl	0.980419	-0.547917	-0.522493
Cl242	Cl	1.313752	-0.214584	-0.189160
Cl243	Cl	1.647085	0.118750	0.144173
Cl244	Cl	0.980567	-0.948757	-0.522581
Cl245	Cl	1.313900	-0.615423	-0.189247
Cl246	Cl	1.647233	-0.282090	0.144086
Cl247	Cl	0.980606	-1.097142	-0.522629
Cl248	Cl	1.313939	-0.763809	-0.189296
Cl249	Cl	1.647273	-0.430475	0.144038
