data_functionalizedCrystal
_audit_creation_method	'MofGen! by Chris Wilmer'
_symmetry_space_group_name_H-M	'P1'
_symmetry_Int_Tables_number	1
_symmetry_cell_setting	triclinic
loop_
_symmetry_equiv_pos_as_xyz
  x,y,z
_cell_length_a	23.532407
_cell_length_b	16.992695
_cell_length_c	15.455301
_cell_angle_alpha	92.826871
_cell_angle_beta	93.009886
_cell_angle_gamma	86.758450
loop_
_atom_site_label
_atom_site_type_symbol
_atom_site_fract_x
_atom_site_fract_y
_atom_site_fract_z
O1	O	-0.762341	-0.098189	-0.072023
O2	O	-0.597162	-0.111958	-0.072049
O3	O	-0.679089	0.009064	-0.072029
O4	O	-0.680414	-0.219211	-0.072043
O5	O	-0.674354	0.015157	0.072233
O6	O	-0.592427	-0.105864	0.072213
O7	O	-0.757606	-0.092096	0.072239
Cu8	Cu	-0.674584	-0.098424	0.085399
Cu9	Cu	-0.680184	-0.105630	-0.085208
O10	O	-0.675679	-0.213118	0.072219
C11	C	-0.573561	-0.108561	0.000079
C12	C	-0.510292	-0.107507	0.000070
C13	C	-0.675018	0.041310	0.000102
C14	C	-0.669935	0.128315	0.000100
C15	C	-0.781207	-0.095493	0.000109
C16	C	-0.844476	-0.096547	0.000113
C17	C	-0.114413	-0.172512	0.000105
C18	C	-0.054964	-0.171533	0.000110
O19	O	-0.021209	-0.231793	0.000138
N20	N	-0.028768	-0.099585	0.000113
C21	C	-0.062024	-0.028613	0.000119
O22	O	-0.034283	0.032674	0.000123
C23	C	-0.121471	-0.029593	0.000120
C24	C	-0.147665	-0.101545	0.000109
C25	C	-0.140607	-0.244458	0.000094
C26	C	-0.200052	-0.245437	0.000087
C27	C	-0.233303	-0.174470	0.000091
C28	C	-0.207110	-0.102524	0.000102
C29	C	-0.154725	0.041379	0.000133
C30	C	-0.214177	0.040393	0.000134
C31	C	-0.240370	-0.031559	0.000123
C32	C	-0.299806	-0.032536	0.000098
N33	N	-0.326002	-0.104483	0.000096
C34	C	-0.292751	-0.175450	0.000092
C35	C	0.062821	-0.026560	0.000119
C36	C	0.122267	-0.025580	0.000112
C37	C	0.129322	-0.168500	0.000105
C38	C	0.069875	-0.169480	0.000105
C39	C	0.036624	-0.098507	0.000116
C40	C	-0.417590	-0.177501	0.000076
C41	C	-0.477041	-0.178474	0.000066
C42	C	-0.484090	-0.035554	0.000078
C43	C	-0.424645	-0.034581	0.000084
C44	C	-0.391396	-0.105561	0.000086
O45	O	-0.333597	0.027693	0.000074
O46	O	-0.320499	-0.236726	0.000100
C47	C	-0.679750	-0.245364	0.000087
C48	C	-0.684833	-0.332369	0.000082
N49	N	-0.670649	-0.093355	0.205394
C50	C	-0.718981	0.178938	0.000109
C51	C	-0.714201	0.260687	0.000100
C52	C	-0.660375	0.291811	0.000089
C53	C	-0.611326	0.241182	0.000078
C54	C	-0.616106	0.159434	0.000080
C55	C	-0.640564	0.535254	0.000074
C56	C	-0.635787	0.617008	0.000074
C57	C	-0.738664	0.636507	0.000094
C58	C	-0.743439	0.554757	0.000102
C59	C	-0.694389	0.504135	0.000087
N60	N	-0.655489	0.375372	0.000082
N61	N	-0.699277	0.420576	0.000087
N62	N	-0.684123	-0.110692	-0.205204
C63	C	-0.705852	-0.138738	0.250787
C64	C	-0.702884	-0.134900	0.341595
C65	C	-0.664709	-0.085683	0.387008
C66	C	-0.629505	-0.040294	0.341609
C67	C	-0.632477	-0.044129	0.250803
C68	C	-0.651890	-0.069139	0.658590
C69	C	-0.648920	-0.065309	0.749403
C70	C	-0.722300	-0.159914	0.749383
C71	C	-0.725266	-0.163748	0.658575
C72	C	-0.690064	-0.118357	0.613183
N73	N	-0.661673	-0.081760	0.479829
N74	N	-0.693103	-0.122275	0.520365
H75	H	-0.498364	-0.237069	0.000056
H76	H	-0.576167	0.118217	0.000073
H77	H	-0.731551	-0.171854	0.378550
H78	H	0.156407	-0.226285	0.000106
H79	H	-0.598425	-0.000216	0.378592
H80	H	-0.750960	-0.196868	0.786350
N81	N	-0.801496	0.521190	0.000085
H82	H	-0.797082	0.461722	0.000081
H83	H	-0.821376	0.541994	0.053561
H84	H	-0.603810	-0.007173	0.213845
H85	H	-0.591953	0.642347	0.000078
N86	N	-0.553268	0.274743	0.000065
H87	H	-0.550746	0.305966	-0.053413
H88	H	-0.547270	0.310448	0.053579
H89	H	-0.736934	-0.178821	0.213818
N90	N	-0.767101	0.315288	0.000114
H91	H	-0.801924	0.283166	0.000129
H92	H	-0.765597	0.351892	0.053594
H93	H	-0.133409	0.099971	0.000143
H94	H	-0.756353	-0.203824	0.621605
N95	N	-0.228297	-0.323044	0.000096
H96	H	-0.271003	-0.312908	0.000097
H97	H	-0.218114	-0.356340	-0.053382
N98	N	-0.250041	0.116942	0.000139
H99	H	-0.273113	0.121980	0.053616
H100	H	-0.224388	0.162622	0.000114
N101	N	-0.607737	-0.012233	0.798388
H102	H	-0.585886	0.015938	0.755854
H103	H	-0.629579	0.027847	0.836075
N104	N	0.041623	-0.247081	0.000105
H105	H	0.015362	-0.252935	-0.053372
H106	H	0.071746	-0.291841	0.000133
H107	H	-0.390525	-0.235300	0.000081
H108	H	0.035751	0.031238	0.000120
N109	N	-0.613924	-0.020183	0.609639
H110	H	-0.589290	0.011574	0.652190
H111	H	-0.588880	-0.056141	0.571960
H112	H	-0.762812	0.153603	0.000123
N113	N	-0.104747	-0.321006	0.000140
H114	H	-0.130370	-0.366724	0.000149
H115	H	-0.081668	-0.326004	-0.053327
N116	N	0.150519	0.052022	0.000114
H117	H	0.136878	0.080833	-0.053362
H118	H	0.140370	0.085288	0.053630
N119	N	-0.396390	0.043021	0.000080
H120	H	-0.426478	0.087829	0.000077
H121	H	-0.370131	0.048802	0.053565
H122	H	-0.511174	0.022225	0.000078
N123	N	-0.791565	0.691106	0.000113
H124	H	-0.780371	0.747616	0.000110
H125	H	-0.816618	0.678813	-0.053363
H126	H	-0.600624	0.494047	0.000061
