data_functionalizedCrystal
_audit_creation_method	'MofGen! by Chris Wilmer'
_symmetry_space_group_name_H-M	'P1'
_symmetry_Int_Tables_number	1
_symmetry_cell_setting	triclinic
loop_
_symmetry_equiv_pos_as_xyz
  x,y,z
_cell_length_a	23.096457
_cell_length_b	14.395555
_cell_length_c	14.395555
_cell_angle_alpha	60.002398
_cell_angle_beta	89.999254
_cell_angle_gamma	59.997040
loop_
_atom_site_label
_atom_site_type_symbol
_atom_site_fract_x
_atom_site_fract_y
_atom_site_fract_z
Zr1	Zr	0.557730	1.016843	-0.121946
O2	O	0.465275	1.210637	-0.270266
O3	O	0.586077	0.823042	-0.076477
O4	O	0.586071	1.016837	-0.270271
O5	O	0.465281	1.016849	0.076396
O6	O	0.681351	1.016839	-0.270277
O7	O	0.465281	1.016842	-0.076472
O8	O	0.681362	0.670176	0.076387
O9	O	0.465270	1.363513	-0.270268
O10	O	0.669268	0.902759	-0.057090
O11	O	0.598160	0.902762	0.056997
O12	O	0.598154	1.130931	-0.171172
O13	O	0.527046	1.130934	-0.057084
Zr14	Zr	0.709690	1.016858	0.121850
Zr15	Zr	0.709691	1.016847	-0.121955
Zr16	Zr	0.557729	1.016854	0.121859
Zr17	Zr	0.557722	1.260662	-0.121949
Zr18	Zr	0.709699	0.773039	0.121853
O19	O	0.681343	1.210659	0.076381
O20	O	0.681345	1.210643	-0.270279
O21	O	0.465274	1.210653	0.076394
O22	O	0.802145	0.823063	0.270171
O23	O	0.802146	0.823048	-0.076489
O24	O	0.586075	0.823057	0.270183
O25	O	0.802139	1.016851	-0.076491
O26	O	0.681349	1.016864	0.270176
O27	O	0.586069	1.016861	0.270181
O28	O	0.802139	1.016858	0.076376
O29	O	0.586059	1.363516	-0.270275
O30	O	0.681361	0.670184	0.270179
O31	O	0.802150	0.670188	0.270172
O32	O	0.802151	0.670179	0.076379
O33	O	0.465269	1.363522	-0.076475
O34	O	0.586058	1.363525	-0.076482
O35	O	0.669267	0.902769	0.171076
O36	O	0.740374	0.902766	0.056989
O37	O	0.669260	1.130938	-0.057093
O38	O	0.598152	1.130941	0.056995
C39	C	0.633721	0.711870	-0.000045
C40	C	0.633724	0.608362	-0.000044
C41	C	0.672488	0.547782	-0.062259
C42	C	0.700586	0.409679	0.045006
C43	C	0.605631	0.562031	-0.107298
C44	C	0.661861	0.471559	0.107286
C45	C	0.566869	0.623985	-0.045096
C46	C	0.594949	0.485891	0.062234
C47	C	0.443630	1.016845	-0.000037
C48	C	0.379118	1.016843	-0.000033
C49	C	0.385933	0.897744	0.059506
C50	C	0.325318	0.897742	0.059510
C51	C	0.257888	1.016846	-0.000045
C52	C	0.251075	1.135962	-0.059586
C53	C	0.311690	1.135960	-0.059580
N54	N	0.135089	1.105500	-0.096968
N55	N	0.077510	1.105493	-0.096972
C56	C	0.075255	1.016858	-0.000065
N57	N	0.132761	0.928210	0.096843
N58	N	0.190347	0.928213	0.096845
C59	C	0.192156	1.016861	-0.000058
C60	C	0.016346	0.897748	0.059484
C61	C	-0.044272	0.897751	0.059492
C62	C	-0.118514	1.135975	-0.059616
C63	C	-0.057897	1.135968	-0.059613
C64	C	0.009531	1.016851	-0.000066
C65	C	0.823790	1.016855	-0.000059
C66	C	0.888302	1.016857	-0.000063
C67	C	0.633711	1.016836	-0.305011
C68	C	0.633712	1.016832	-0.408513
C69	C	0.633699	1.321831	-0.000051
C70	C	0.633696	1.425338	-0.000052
C71	C	0.672490	0.892422	-0.406900
C72	C	0.605627	0.954614	-0.499918
C73	C	0.700559	0.954646	-0.499923
C74	C	0.566809	1.079024	-0.500169
C75	C	0.661790	1.079038	-0.500159
C76	C	0.594886	1.141320	-0.593195
C77	C	0.633709	1.016864	0.304916
C78	C	0.633708	1.016869	0.408418
C79	C	0.823801	0.711875	-0.000056
C80	C	0.888316	0.608369	-0.000059
C81	C	0.633719	0.711883	0.304919
C82	C	0.633722	0.608381	0.408422
C83	C	0.823799	0.711889	0.304908
C84	C	0.888314	0.608387	0.408407
C85	C	0.443621	1.321812	-0.305003
C86	C	0.379106	1.425313	-0.408502
C87	C	0.443619	1.321826	-0.000040
C88	C	0.379104	1.425331	-0.000037
C89	C	0.633701	1.321817	-0.305015
C90	C	0.633698	1.425320	-0.408517
C91	C	0.881496	0.559758	-0.059618
C92	C	0.942109	0.462517	-0.059643
C93	C	1.009541	0.413882	-0.000102
C94	C	1.016360	0.462502	0.059459
C95	C	0.955747	0.559748	0.059477
C96	C	0.955734	0.559781	0.397459
C97	C	1.016359	0.462544	0.494698
C98	C	1.009561	0.413909	0.602884
C99	C	0.942133	0.462525	0.613830
C100	C	0.881511	0.559767	0.516592
C101	C	0.311686	1.473932	-0.397554
C102	C	0.251061	1.571199	-0.494794
C103	C	0.257859	1.619839	-0.602980
C104	C	0.325287	1.571216	-0.613925
C105	C	0.385909	1.473957	-0.516687
C106	C	0.385924	1.473953	0.059512
C107	C	0.325311	1.571221	0.059511
C108	C	0.257879	1.619859	-0.000034
C109	C	0.251060	1.571234	-0.059591
C110	C	0.311673	1.473974	-0.059595
C111	C	0.594953	0.547792	0.406810
C112	C	0.661820	0.409691	0.499826
C113	C	0.566883	0.562027	0.499837
C114	C	0.700629	0.471580	0.500074
C115	C	0.605644	0.623990	0.500071
C116	C	0.672552	0.485899	0.593104
H117	H	0.705321	0.574861	-0.114781
Cl118	Cl	-0.035700	0.748011	0.134361
Cl119	Cl	0.787841	0.873434	-0.501328
H120	H	0.581873	0.902033	-0.500848
Cl121	Cl	0.544186	1.303869	-0.716137
H122	H	-0.173416	1.232952	-0.108108
Cl123	Cl	0.568970	0.619444	-0.247327
H124	H	0.196169	1.232938	-0.108076
H125	H	0.685559	1.131573	-0.499186
H126	H	0.581866	0.715647	0.499086
Cl127	Cl	0.479485	1.160142	-0.498901
Cl128	Cl	-0.066465	1.285703	-0.134473
H129	H	0.306110	1.434389	-0.108084
H130	H	0.757113	0.318051	0.083114
H131	H	0.961283	0.599365	0.309377
Cl132	Cl	1.101116	0.401440	0.480911
H133	H	0.685581	0.318068	0.500752
Cl134	Cl	0.470688	1.412834	0.134372
H135	H	0.510353	0.715635	-0.083229
Cl136	Cl	0.479596	0.619492	0.501223
H137	H	0.208491	1.699032	-0.682148
Cl138	Cl	0.181686	1.742128	-0.000014
H139	H	0.330876	1.610795	0.108013
Cl140	Cl	0.470697	0.747997	0.134373
Cl141	Cl	1.101137	0.401341	0.134312
H142	H	0.705228	0.787226	-0.327141
Cl143	Cl	0.964333	0.620839	0.134369
Cl144	Cl	0.796732	0.620884	-0.134485
Cl145	Cl	0.796756	0.620853	0.530375
Cl146	Cl	0.303121	1.412804	-0.261561
Cl147	Cl	0.933521	0.401408	-0.134521
Cl148	Cl	0.333820	1.632372	-0.749940
H149	H	1.058929	0.334728	0.682052
Cl150	Cl	0.933600	0.401369	0.749844
H151	H	0.196165	1.610771	-0.485859
Cl152	Cl	1.085734	0.291625	-0.000133
H153	H	0.440804	1.434373	-0.525615
Cl154	Cl	0.166283	1.632388	-0.134437
H155	H	0.685672	0.434174	0.198028
H156	H	0.562215	0.574873	0.327054
Cl157	Cl	0.723248	0.444175	0.716042
Cl158	Cl	0.544329	0.444165	0.143568
Cl159	Cl	0.333881	0.748005	0.134358
H160	H	0.757188	0.434205	0.499247
H161	H	0.071250	0.800756	0.107995
Cl162	Cl	0.303121	1.285698	-0.134436
