data_functionalizedCrystal
_audit_creation_method	'MofGen! by Chris Wilmer'
_symmetry_space_group_name_H-M	'P1'
_symmetry_Int_Tables_number	1
_symmetry_cell_setting	triclinic
loop_
_symmetry_equiv_pos_as_xyz
  x,y,z
_cell_length_a	16.109301
_cell_length_b	10.489741
_cell_length_c	14.586319
_cell_angle_alpha	90.000119
_cell_angle_beta	89.996867
_cell_angle_gamma	84.000327
loop_
_atom_site_label
_atom_site_type_symbol
_atom_site_fract_x
_atom_site_fract_y
_atom_site_fract_z
O1	O	1.104145	0.163940	-0.076182
O2	O	1.437478	0.497273	0.257152
O3	O	1.770811	0.830606	0.590485
O4	O	0.862208	0.184343	-0.076196
O5	O	1.195542	0.517676	0.257137
O6	O	1.528875	0.851009	0.590470
O7	O	0.988682	-0.011537	-0.076183
O8	O	1.322015	0.321797	0.257150
O9	O	1.655348	0.655130	0.590483
O10	O	0.977671	0.359819	-0.076195
O11	O	1.311005	0.693152	0.257138
O12	O	1.644338	1.026485	0.590472
O13	O	0.988666	-0.011525	0.076298
O14	O	1.322000	0.321808	0.409631
O15	O	1.655333	0.655142	0.742964
O16	O	0.862193	0.184354	0.076284
O17	O	1.195526	0.517688	0.409618
O18	O	1.528860	0.851021	0.742951
O19	O	1.104129	0.163951	0.076299
O20	O	1.437462	0.497285	0.409632
O21	O	1.770796	0.830618	0.742966
Cu22	Cu	0.983160	0.174154	0.090214
Cu23	Cu	1.316493	0.507487	0.423548
Cu24	Cu	1.649826	0.840820	0.756881
Cu25	Cu	0.983178	0.174140	-0.090112
Cu26	Cu	1.316511	0.507473	0.243222
Cu27	Cu	1.649845	0.840807	0.576555
O28	O	0.977656	0.359830	0.076286
O29	O	1.310989	0.693164	0.409619
O30	O	1.644323	1.026497	0.742953
C31	C	0.831221	0.183522	0.000042
C32	C	1.164554	0.516855	0.333376
C33	C	1.497887	0.850189	0.666709
C34	C	0.738910	0.181044	0.000037
C35	C	1.072243	0.514377	0.333370
C36	C	1.405577	0.847711	0.666704
C37	C	0.987842	-0.059050	0.000057
C38	C	1.321176	0.274283	0.333390
C39	C	1.654509	0.607616	0.666723
C40	C	0.985354	-0.200644	0.000055
C41	C	1.318688	0.132690	0.333388
C42	C	1.652021	0.466023	0.666721
C43	C	0.517319	0.291514	0.000044
C44	C	0.850652	0.624847	0.333377
C45	C	1.183985	0.958180	0.666711
C46	C	0.430584	0.289175	0.000050
C47	C	0.763917	0.622509	0.333383
C48	C	1.097251	0.955842	0.666717
C49	C	0.449026	0.056771	0.000053
C50	C	0.782359	0.390105	0.333387
C51	C	1.115692	0.723438	0.666720
C52	C	0.535759	0.059111	0.000054
C53	C	0.869092	0.392444	0.333387
C54	C	1.202425	0.725778	0.666721
C55	C	0.569903	0.176486	0.000045
C56	C	0.903236	0.509819	0.333378
C57	C	1.236569	0.843152	0.666711
C58	C	0.396435	0.171808	0.000050
C59	C	0.729768	0.505141	0.333383
C60	C	1.063101	0.838475	0.666717
C61	C	0.302393	0.169272	0.000056
C62	C	0.635726	0.502606	0.333390
C63	C	0.969060	0.835939	0.666723
C64	C	0.663950	0.179022	0.000040
C65	C	0.997284	0.512356	0.333373
C66	C	1.330617	0.845689	0.666707
C67	C	0.904883	-0.267616	0.000043
C68	C	1.238217	0.065717	0.333377
C69	C	1.571550	0.399050	0.666710
C70	C	0.942889	-0.360285	0.075226
C71	C	1.276223	-0.026951	0.408560
C72	C	1.609556	0.306382	0.741893
C73	C	0.942924	-0.360271	-0.075108
C74	C	1.276257	-0.026938	0.258226
C75	C	1.609590	0.306396	0.591559
C76	C	1.023394	-0.291447	0.075300
C77	C	1.356727	0.041886	0.408633
C78	C	1.690060	0.375219	0.741967
C79	C	1.023417	-0.291424	-0.075102
C80	C	1.356750	0.041909	0.258232
C81	C	1.690084	0.375243	0.591565
C82	C	1.061482	-0.384066	0.000100
C83	C	1.394815	-0.050732	0.333433
C84	C	1.728148	0.282601	0.666767
C85	C	1.135117	0.164772	0.000058
C86	C	1.468450	0.498105	0.333392
C87	C	1.801784	0.831439	0.666725
C88	C	1.227427	0.167250	0.000058
C89	C	1.560761	0.500583	0.333391
C90	C	1.894094	0.833916	0.666724
C91	C	0.978495	0.407344	0.000044
C92	C	1.311829	0.740678	0.333377
C93	C	1.645162	1.074011	0.666711
C94	C	0.980983	0.548938	0.000040
C95	C	1.314316	0.882271	0.333373
C96	C	1.647650	1.215604	0.666707
N97	N	0.983153	0.174163	0.217046
N98	N	1.316486	0.507496	0.550380
N99	N	1.649819	0.840829	0.883713
N100	N	0.983191	0.174121	-0.216944
N101	N	1.316525	0.507454	0.116390
N102	N	1.649858	0.840788	0.449723
C103	C	1.034052	0.251527	0.452053
C104	C	1.367386	0.584860	0.785387
C105	C	1.700719	0.918193	1.118720
C106	C	1.034061	0.251518	0.548034
C107	C	1.367394	0.584851	0.881368
C108	C	1.700728	0.918185	1.214701
C109	C	0.932290	0.096748	0.548043
C110	C	1.265623	0.430081	0.881376
C111	C	1.598956	0.763415	1.214709
C112	C	0.932286	0.096751	0.452063
C113	C	1.265619	0.430084	0.785397
C114	C	1.598953	0.763418	1.118730
C115	C	0.983166	0.174148	0.404071
C116	C	1.316499	0.507481	0.737404
C117	C	1.649833	0.840814	1.070738
C118	C	0.983178	0.174136	0.596032
C119	C	1.316512	0.507469	0.929365
C120	C	1.649845	0.840803	1.262698
C121	C	0.983187	0.174126	0.700099
C122	C	1.316520	0.507459	1.033432
C123	C	1.649854	0.840792	1.366766
C124	C	0.983158	0.174156	0.299997
C125	C	1.316492	0.507490	0.633331
C126	C	1.649825	0.840823	0.966664
H127	H	0.545116	0.387088	0.000043
H128	H	0.878449	0.720421	0.333377
H129	H	1.211782	1.053754	0.666710
H130	H	0.890864	0.033736	0.587130
H131	H	1.224197	0.367069	0.920463
H132	H	1.557531	0.700403	1.253796
H133	H	0.387773	0.382843	0.000051
H134	H	0.721106	0.716176	0.333385
H135	H	1.054439	1.049510	0.666718
H136	H	1.075499	0.314526	0.587097
H137	H	1.408832	0.647860	0.920431
H138	H	1.742166	0.981193	1.253764
H139	H	0.890847	0.033733	0.412995
H140	H	1.224181	0.367066	0.746328
H141	H	1.557514	0.700400	1.079662
H142	H	1.057444	-0.260878	-0.138663
H143	H	1.390777	0.072456	0.194670
H144	H	1.724110	0.405789	0.528004
H145	H	0.908871	-0.390746	-0.138675
H146	H	1.242204	-0.057412	0.194658
H147	H	1.575538	0.275921	0.527991
H148	H	0.421215	-0.038791	0.000067
H149	H	0.754548	0.294542	0.333400
H150	H	1.087881	0.627875	0.666733
H151	H	1.075482	0.314548	0.412981
H152	H	1.408816	0.647881	0.746314
H153	H	1.742149	0.981215	1.079647
H154	H	0.838720	-0.217005	0.000115
H155	H	1.172054	0.116328	0.333448
H156	H	1.505387	0.449661	0.666782
H157	H	0.908834	-0.390797	0.138784
H158	H	1.242167	-0.057464	0.472118
H159	H	1.575500	0.275869	0.805451
H160	H	0.578575	-0.034565	0.000057
H161	H	0.911909	0.298769	0.333390
H162	H	1.245242	0.632102	0.666724
H163	H	1.127704	-0.434450	0.000146
H164	H	1.461037	-0.101117	0.333479
H165	H	1.794371	0.232216	0.666812
H166	H	1.057407	-0.261104	0.138933
H167	H	1.390740	0.072230	0.472266
H168	H	1.724073	0.405563	0.805600
