data_functionalizedCrystal
_audit_creation_method	'MofGen! by Chris Wilmer'
_symmetry_space_group_name_H-M	'P1'
_symmetry_Int_Tables_number	1
_symmetry_cell_setting	triclinic
loop_
_symmetry_equiv_pos_as_xyz
  x,y,z
_cell_length_a	14.971486
_cell_length_b	14.421503
_cell_length_c	14.971506
_cell_angle_alpha	90.005875
_cell_angle_beta	96.381742
_cell_angle_gamma	90.002684
loop_
_atom_site_label
_atom_site_type_symbol
_atom_site_fract_x
_atom_site_fract_y
_atom_site_fract_z
O1	O	1.186959	0.077002	-0.116549
O2	O	1.686959	0.577002	0.383451
O3	O	0.926559	0.077027	-0.130508
O4	O	1.426559	0.577027	0.369492
O5	O	1.063729	0.077011	0.006670
O6	O	1.563729	0.577011	0.506670
O7	O	1.049789	0.077017	-0.253727
O8	O	1.549789	0.577017	0.246273
O9	O	1.063706	-0.077212	0.006650
O10	O	1.563706	0.422788	0.506650
O11	O	0.926537	-0.077197	-0.130528
O12	O	1.426537	0.422803	0.369472
O13	O	1.186936	-0.077222	-0.116570
O14	O	1.686936	0.422778	0.383430
Cu15	Cu	1.056734	-0.091291	-0.123551
Cu16	Cu	1.556734	0.408709	0.376449
Cu17	Cu	1.056761	0.091096	-0.123527
Cu18	Cu	1.556761	0.591096	0.376473
O19	O	1.049766	-0.077206	-0.253748
O20	O	1.549766	0.422794	0.246252
C21	C	0.893223	-0.000082	-0.129894
C22	C	1.393223	0.499918	0.370106
C23	C	0.793926	-0.000072	-0.128023
C24	C	1.293926	0.499928	0.371977
N25	N	1.056722	-0.219572	-0.123567
N26	N	1.556722	0.280428	0.376433
C27	C	0.736707	-0.000072	-0.208612
C28	C	1.236707	0.499928	0.291388
C29	C	0.643407	-0.000086	-0.206849
C30	C	1.143407	0.499914	0.293151
C31	C	0.607329	-0.000094	-0.124496
C32	C	1.107329	0.499906	0.375504
C33	C	0.664556	-0.000097	-0.043901
C34	C	1.164556	0.499903	0.456099
C35	C	0.757853	-0.000090	-0.045665
C36	C	1.257853	0.499910	0.454335
C37	C	0.470093	-0.000110	-0.040230
C38	C	0.970093	0.499890	0.459770
C39	C	0.376789	-0.000115	-0.038466
C40	C	0.876789	0.499885	0.461534
C41	C	0.355647	-0.000106	-0.201414
C42	C	0.855647	0.499894	0.298586
C43	C	0.448944	-0.000099	-0.203178
C44	C	0.948944	0.499901	0.296822
C45	C	0.506165	-0.000100	-0.122582
C46	C	1.006165	0.499900	0.377418
C47	C	0.993283	-0.469219	-0.186970
C48	C	1.493283	0.030781	0.313030
C49	C	1.074126	-0.531029	-0.204417
C50	C	1.574126	-0.031029	0.295583
C51	C	1.056744	-0.408734	-0.123546
C52	C	1.556744	0.091266	0.376454
C53	C	0.975922	-0.531018	-0.106120
C54	C	1.475922	-0.031018	0.393880
C55	C	1.056757	-0.591455	-0.123527
C56	C	1.556757	-0.091455	0.376473
C57	C	1.137627	-0.469183	-0.141033
C58	C	1.637627	0.030817	0.358967
C59	C	1.039369	-0.469166	-0.042701
C60	C	1.539369	0.030834	0.457299
C61	C	1.120271	-0.530948	-0.060114
C62	C	1.620271	-0.030948	0.439886
C63	C	1.056734	-0.303473	-0.123559
C64	C	1.556734	0.196527	0.376441
C65	C	1.056776	-0.696714	-0.123514
C66	C	1.556776	-0.196714	0.376486
C67	C	1.220272	-0.000111	-0.117184
C68	C	1.720272	0.499889	0.382816
C69	C	1.319569	-0.000115	-0.119054
C70	C	1.819569	0.499885	0.380946
C71	C	1.063091	-0.000099	0.039984
C72	C	1.563091	0.499901	0.539984
C73	C	1.061213	-0.000095	0.139281
C74	C	1.561213	0.499905	0.639281
N75	N	1.056781	0.219377	-0.123503
N76	N	1.556781	0.719377	0.376497
C77	C	1.050404	-0.000094	-0.287062
C78	C	1.550404	0.499906	0.212938
C79	C	1.052282	-0.000092	-0.386358
C80	C	1.552282	0.499908	0.113642
C81	C	1.134631	-0.000103	0.577563
C82	C	1.634631	0.499897	1.077563
C83	C	1.136389	-0.000109	0.484263
C84	C	1.636389	0.499891	0.984263
C85	C	1.055796	-0.000098	0.427043
C86	C	1.555796	0.499902	0.927043
C87	C	0.973441	-0.000090	0.463127
C88	C	1.473441	0.499910	0.963127
C89	C	0.971685	-0.000090	0.556426
C90	C	1.471685	0.499910	1.056426
C91	C	0.977108	-0.000087	0.268664
C92	C	1.477108	0.499913	0.768664
C93	C	0.978864	-0.000085	0.175359
C94	C	1.478864	0.499915	0.675359
C95	C	1.141812	-0.000105	0.196501
C96	C	1.641812	0.499895	0.696501
C97	C	1.140055	-0.000105	0.289800
C98	C	1.640055	0.499895	0.789800
C99	C	1.057700	-0.000096	0.325878
C100	C	1.557700	0.499904	0.825878
H101	H	0.766074	-0.000065	-0.275673
H102	H	1.266074	0.499935	0.224327
H103	H	1.205998	-0.442136	-0.155846
H104	H	1.705998	0.057864	0.344154
H105	H	1.205681	-0.000108	0.336387
H106	H	1.705681	0.499892	0.836387
H107	H	0.635173	-0.000117	0.023151
H108	H	1.135173	0.499883	0.523151
H109	H	0.804441	-0.000090	0.019958
H110	H	1.304441	0.499910	0.519958
H111	H	0.904628	-0.000090	0.585799
H112	H	1.404628	0.499910	1.085799
H113	H	0.478316	-0.000083	-0.270236
H114	H	0.978316	0.499917	0.229764
H115	H	0.596822	-0.000084	-0.272472
H116	H	1.096822	0.499916	0.227528
H117	H	0.907566	-0.558181	-0.091390
H118	H	1.407566	-0.058181	0.408610
H119	H	1.024636	-0.441972	0.025638
H120	H	1.524636	0.058028	0.525638
H121	H	1.088834	-0.558201	-0.272778
H122	H	1.588834	-0.058201	0.227222
H123	H	0.939672	-0.442115	-0.240649
H124	H	1.439672	0.057885	0.259351
H125	H	1.203445	-0.000118	0.454893
H126	H	1.703445	0.499882	0.954893
H127	H	1.200259	-0.000104	0.624146
H128	H	1.700259	0.499896	1.124146
H129	H	1.174001	-0.557882	-0.006467
H130	H	1.674001	-0.057882	0.493533
H131	H	0.910045	-0.000092	0.298035
H132	H	1.410045	0.499908	0.798035
H133	H	0.309053	-0.000109	-0.267037
H134	H	0.809053	0.499891	0.232963
H135	H	1.208869	-0.000027	0.167122
H136	H	1.708869	0.499973	0.667122
H137	H	0.913239	-0.000081	0.128772
H138	H	1.413239	0.499919	0.628772
H139	H	0.907821	-0.000087	0.416531
H140	H	1.407821	0.499913	0.916531
H141	H	0.347417	-0.000123	0.028593
H142	H	0.847417	0.499877	0.528593
H143	H	0.516680	-0.000112	0.025399
H144	H	1.016680	0.499888	0.525399
