data_functionalizedCrystal
_audit_creation_method	'MofGen! by Chris Wilmer'
_symmetry_space_group_name_H-M	'P1'
_symmetry_Int_Tables_number	1
_symmetry_cell_setting	triclinic
loop_
_symmetry_equiv_pos_as_xyz
  x,y,z
_cell_length_a	14.044191
_cell_length_b	14.044190
_cell_length_c	13.930277
_cell_angle_alpha	89.990896
_cell_angle_beta	89.995225
_cell_angle_gamma	93.191777
loop_
_atom_site_label
_atom_site_type_symbol
_atom_site_fract_x
_atom_site_fract_y
_atom_site_fract_z
O1	O	1.277182	0.230200	-0.079804
O2	O	1.777182	0.730200	0.420196
O3	O	1.000509	0.221888	-0.079816
O4	O	1.500509	0.721888	0.420184
O5	O	1.134689	0.087708	-0.079791
O6	O	1.634689	0.587708	0.420209
O7	O	1.143002	0.364380	-0.079829
O8	O	1.643002	0.864380	0.420171
O9	O	1.134669	0.087703	0.079870
O10	O	1.634669	0.587703	0.579870
O11	O	1.000489	0.221883	0.079846
O12	O	1.500489	0.721883	0.579846
O13	O	1.277161	0.230195	0.079857
O14	O	1.777161	0.730195	0.579857
Zn15	Zn	1.138822	0.226038	0.105202
Zn16	Zn	1.638822	0.726038	0.605202
Zn17	Zn	1.138849	0.226045	-0.105160
Zn18	Zn	1.638849	0.726045	0.394840
O19	O	1.142982	0.364375	0.079833
O20	O	1.642982	0.864375	0.579833
C21	C	0.964877	0.218249	0.000014
C22	C	1.464877	0.718249	0.500014
C23	C	0.858734	0.207401	0.000010
C24	C	1.358734	0.707401	0.500010
C25	C	0.613277	0.264502	0.000012
C26	C	1.113277	0.764502	0.500012
C27	C	0.664400	0.187585	0.000021
C28	C	1.164400	0.687585	0.500021
C29	C	0.772537	0.198614	0.000015
C30	C	1.272537	0.698614	0.500015
C31	C	0.505130	0.253475	0.000018
C32	C	1.005130	0.753475	0.500018
C33	C	1.131043	0.052083	0.000042
C34	C	1.631043	0.552083	0.500042
C35	C	1.120195	-0.054060	0.000050
C36	C	1.620195	0.445940	0.500050
C37	C	1.177296	-0.299517	0.000015
C38	C	1.677296	0.200483	0.500015
C39	C	1.100379	-0.248394	0.000018
C40	C	1.600379	0.251606	0.500018
C41	C	1.111408	-0.140257	0.000036
C42	C	1.611408	0.359743	0.500036
C43	C	1.166269	-0.407664	-0.000003
C44	C	1.666269	0.092336	0.499997
C45	C	1.312794	0.233834	0.000026
C46	C	1.812794	0.733834	0.500026
C47	C	1.418937	0.244682	0.000023
C48	C	1.918937	0.744682	0.500023
C49	C	1.146628	0.400000	-0.000003
C50	C	1.646628	0.900000	0.499997
C51	C	1.157476	0.506143	-0.000017
C52	C	1.657476	1.006143	0.499983
N53	N	1.138810	0.226034	0.248768
N54	N	1.638810	0.726034	0.748768
N55	N	1.138868	0.226042	-0.248726
N56	N	1.638868	0.726042	0.251274
C57	C	1.079430	0.285434	0.701026
C58	C	1.579430	0.785434	1.201026
C59	C	1.198294	0.166650	0.701017
C60	C	1.698294	0.666650	1.201017
C61	C	1.198283	0.166646	0.600521
C62	C	1.698283	0.666646	1.100521
C63	C	1.138845	0.226038	0.550273
C64	C	1.638845	0.726038	1.050273
C65	C	1.079418	0.285434	0.600521
C66	C	1.579418	0.785434	1.100521
C67	C	1.257715	0.107259	0.550266
C68	C	1.757715	0.607259	1.050266
C69	C	1.257707	0.107253	0.449764
C70	C	1.757707	0.607253	0.949764
C71	C	1.198263	0.166641	0.399514
C72	C	1.698263	0.666641	0.899514
C73	C	1.138833	0.226038	0.449768
C74	C	1.638833	0.726038	0.949768
C75	C	1.079395	0.285430	0.399520
C76	C	1.579395	0.785430	0.899520
C77	C	1.019960	0.344823	0.449772
C78	C	1.519960	0.844823	0.949772
C79	C	1.019974	0.344821	0.550271
C80	C	1.519974	0.844821	1.050271
C81	C	1.198248	0.166642	0.299016
C82	C	1.698248	0.666642	0.799016
C83	C	1.079384	0.285430	0.299015
C84	C	1.579384	0.785430	0.799015
H85	H	0.626955	0.113453	-0.000037
H86	H	1.126955	0.613453	0.499963
H87	H	0.650720	0.338629	-0.000001
H88	H	1.150720	0.838629	0.499999
H89	H	1.251423	-0.262074	0.000028
H90	H	1.751423	0.237926	0.500028
N91	N	1.258863	0.105881	0.247700
N92	N	1.758863	0.605881	0.747700
N93	N	1.311866	0.052796	0.292575
N94	N	1.811866	0.552796	0.792575
H95	H	1.354639	0.009840	0.256335
H96	H	1.854639	0.509840	0.756335
H97	H	1.030978	0.333790	0.258109
H98	H	1.530978	0.833790	0.758109
N99	N	1.007385	-0.295375	0.000005
N100	N	1.507385	0.204625	0.500005
N101	N	0.998439	-0.384427	-0.000007
N102	N	1.498439	0.115573	0.499993
H103	H	0.932765	-0.417613	-0.000014
H104	H	1.432765	0.082387	0.499986
H105	H	0.971569	0.393185	0.408849
H106	H	1.471569	0.893185	0.908849
H107	H	0.971585	0.393178	0.591193
H108	H	1.471585	0.893178	1.091193
N109	N	1.259023	0.106016	0.752355
N110	N	1.759023	0.606016	1.252355
N111	N	1.259039	0.106041	0.842086
N112	N	1.759039	0.606041	1.342086
H113	H	1.301937	0.063221	0.878348
H114	H	1.801937	0.563221	1.378348
N115	N	1.018707	0.346084	0.752352
N116	N	1.518707	0.846084	1.252352
N117	N	0.956888	0.310739	0.808442
N118	N	1.456888	0.810739	1.308442
H119	H	0.914000	0.353572	0.844693
H120	H	1.414000	0.853572	1.344693
N121	N	1.318461	0.046643	0.601606
N122	N	1.818461	0.546643	1.101606
N123	N	1.318480	0.046675	0.691337
N124	N	1.818480	0.546675	1.191337
H125	H	1.361396	0.003875	0.727601
H126	H	1.861396	0.503875	1.227601
H127	H	1.306101	0.058892	0.408855
H128	H	1.806101	0.558892	0.908855
