data_functionalizedCrystal
_audit_creation_method	'MofGen! by Chris Wilmer'
_symmetry_space_group_name_H-M	'P1'
_symmetry_Int_Tables_number	1
_symmetry_cell_setting	triclinic
loop_
_symmetry_equiv_pos_as_xyz
  x,y,z
_cell_length_a	15.944551
_cell_length_b	14.421503
_cell_length_c	10.540539
_cell_angle_alpha	90.003606
_cell_angle_beta	95.987885
_cell_angle_gamma	89.988429
loop_
_atom_site_label
_atom_site_type_symbol
_atom_site_fract_x
_atom_site_fract_y
_atom_site_fract_z
O1	O	1.115487	0.077010	-0.163703
O2	O	0.871057	0.077033	-0.183887
O3	O	0.998849	0.077020	0.010988
O4	O	0.987696	0.077023	-0.358577
O5	O	0.998864	-0.077203	0.010975
O6	O	0.871073	-0.077190	-0.183899
O7	O	1.115502	-0.077213	-0.163715
Cu8	Cu	0.993289	-0.091284	-0.173808
Cu9	Cu	0.993271	0.091104	-0.173794
O10	O	0.987711	-0.077200	-0.358590
C11	C	0.839766	-0.000076	-0.183055
C12	C	0.746505	-0.000067	-0.180543
N13	N	0.993308	-0.219565	-0.173818
C14	C	1.052412	-0.469200	-0.083689
C15	C	0.976365	-0.530990	-0.059030
C16	C	0.993290	-0.408726	-0.173803
C17	C	1.069318	-0.531030	-0.198387
C18	C	0.993278	-0.591448	-0.173785
C19	C	0.917204	-0.469155	-0.149087
C20	C	1.010207	-0.469190	-0.288495
C21	C	0.934106	-0.530953	-0.263885
C22	C	0.993297	-0.303465	-0.173810
C23	C	0.993262	-0.696707	-0.173779
C24	C	0.530893	-0.000086	-0.053746
C25	C	0.470216	0.075955	-0.112620
C26	C	0.575752	-0.000078	-0.175998
C27	C	0.470254	-0.076098	-0.112662
C28	C	0.410813	-0.000093	-0.171600
C29	C	0.516304	0.076026	-0.234906
C30	C	0.516348	-0.076095	-0.234930
C31	C	0.455689	-0.000036	-0.293893
C32	C	0.670770	-0.000069	-0.178529
C33	C	0.315797	-0.000095	-0.169079
C34	C	1.146794	-0.000102	-0.164547
C35	C	1.240055	-0.000105	-0.167059
C36	C	0.998020	-0.000090	0.058273
C37	C	0.995518	-0.000085	0.199187
N38	N	0.993258	0.219385	-0.173774
C39	C	0.988540	-0.000088	-0.405875
C40	C	0.991042	-0.000087	-0.546789
C41	C	0.899630	0.000270	0.381308
C42	C	0.902167	-0.000077	0.234725
C43	C	1.040451	-0.088158	0.261449
C44	C	1.037265	-0.088232	0.407950
C45	C	1.039146	0.087149	0.408509
C46	C	1.040006	0.088313	0.261539
H47	H	1.102356	-0.442084	-0.007439
H48	H	0.852888	-0.442091	-0.128176
H49	H	0.423136	0.000008	-0.395457
O50	O	0.543454	-0.161247	-0.303367
H51	H	0.525215	-0.224280	-0.252425
H52	H	0.962045	-0.558136	0.037970
O53	O	1.131257	-0.092514	0.233064
H54	H	1.173220	-0.091554	0.323955
O55	O	0.443251	-0.161259	-0.044166
H56	H	0.473661	-0.161094	0.055478
O57	O	0.574178	-0.000026	0.080688
H58	H	0.555803	0.063181	0.131148
O59	O	0.999125	-0.174972	0.204464
H60	H	1.046324	-0.216552	0.158884
O61	O	1.029201	-0.433202	-0.416945
H62	H	1.028417	-0.356246	-0.416036
H63	H	0.449791	0.140241	-0.060907
O64	O	0.867806	-0.566669	-0.364815
H65	H	0.804790	-0.541758	-0.344088
O66	O	0.993294	-0.175430	0.444703
H67	H	0.990592	-0.176352	0.549493
O68	O	0.855320	0.083537	0.177641
H69	H	0.830642	0.124585	0.254726
O70	O	0.543171	0.161298	-0.303294
H71	H	0.612689	0.160659	-0.304557
H72	H	1.008926	0.153902	0.439656
H73	H	1.133618	-0.558208	-0.219189
O74	O	0.850757	0.083916	0.418550
H75	H	0.891092	0.126129	0.488709
O76	O	0.850987	-0.082919	0.420623
H77	H	0.891633	-0.124520	0.491150
O78	O	0.855044	-0.083846	0.178750
H79	H	0.830359	-0.124271	0.256396
H80	H	1.104402	-0.092233	0.456833
O81	O	1.130162	0.095357	0.230700
H82	H	1.144736	0.035692	0.170188
O83	O	0.996525	0.174627	0.206732
H84	H	0.943452	0.154663	0.135375
O85	O	1.128458	0.087941	0.472284
H86	H	1.138579	0.026540	0.535520
