data_functionalizedCrystal
_audit_creation_method	'MofGen! by Chris Wilmer'
_symmetry_space_group_name_H-M	'P1'
_symmetry_Int_Tables_number	1
_symmetry_cell_setting	triclinic
loop_
_symmetry_equiv_pos_as_xyz
  x,y,z
_cell_length_a	25.639242
_cell_length_b	12.759399
_cell_length_c	12.759393
_cell_angle_alpha	90.030906
_cell_angle_beta	89.968488
_cell_angle_gamma	89.989356
loop_
_atom_site_label
_atom_site_type_symbol
_atom_site_fract_x
_atom_site_fract_y
_atom_site_fract_z
Zn1	Zn	0.799359	0.418341	-0.594313
Zn2	Zn	0.799304	0.594056	-0.418632
Zn3	Zn	0.711921	0.418378	-0.418616
Zn4	Zn	0.711916	0.593964	-0.594237
O5	O	0.755625	0.506185	-0.506450
O6	O	0.872517	0.441672	-0.571048
O7	O	0.787692	0.570806	-0.271609
O8	O	0.723545	0.271352	-0.441948
O9	O	0.872477	0.570770	-0.441975
O10	O	0.787785	0.271325	-0.571032
O11	O	0.723492	0.441736	-0.271597
O12	O	0.638755	0.441647	-0.441874
O13	O	0.723537	0.570613	-0.741268
O14	O	0.638752	0.570650	-0.570902
O15	O	0.787781	0.441583	-0.741324
O16	O	0.787687	0.741065	-0.441901
O17	O	0.723484	0.740998	-0.570918
C18	C	0.619783	0.506144	-0.506379
C19	C	0.561669	0.506151	-0.506373
C20	C	0.755593	0.779152	-0.506426
C21	C	0.755627	0.895929	-0.506451
C22	C	0.755664	0.506084	-0.780483
C23	C	0.755681	0.506041	-0.897260
C24	C	0.201313	0.573469	-0.573571
C25	C	0.146708	0.573475	-0.573588
O26	O	0.118478	0.630660	-0.630661
N27	N	0.119386	0.506214	-0.506518
C28	C	0.146671	0.438934	-0.439436
O29	O	0.118417	0.381723	-0.382390
C30	C	0.201274	0.438923	-0.439425
C31	C	0.228594	0.506196	-0.506491
C32	C	0.228632	0.640736	-0.640632
C33	C	0.283233	0.640731	-0.640614
C34	C	0.310514	0.573458	-0.573534
C35	C	0.283194	0.506191	-0.506473
C36	C	0.228558	0.371639	-0.372349
C37	C	0.283165	0.371633	-0.372345
C38	C	0.310485	0.438907	-0.439411
C39	C	0.365076	0.438914	-0.439375
N40	N	0.392398	0.506175	-0.506444
C41	C	0.365117	0.573447	-0.573524
C42	C	0.032000	0.438961	-0.439464
C43	C	-0.022602	0.438976	-0.439469
C44	C	-0.022561	0.573516	-0.573622
C45	C	0.032042	0.573505	-0.573612
C46	C	0.059323	0.506222	-0.506533
C47	C	0.479782	0.573432	-0.573480
C48	C	0.534387	0.573423	-0.573453
C49	C	0.534342	0.438880	-0.439304
C50	C	0.479741	0.438892	-0.439326
C51	C	0.452463	0.506171	-0.506423
O52	O	0.393341	0.381755	-0.382334
O53	O	0.393377	0.630639	-0.630570
C54	C	0.891998	0.506227	-0.506522
C55	C	0.950112	0.506245	-0.506553
C56	C	0.755672	0.232152	-0.506497
C57	C	0.755691	0.115375	-0.506517
C58	C	0.789096	0.950791	-0.439349
C59	C	0.789130	1.060515	-0.439384
C60	C	0.722221	1.060505	-0.573627
C61	C	0.722190	0.950783	-0.573596
C62	C	0.789135	0.438844	-0.952153
C63	C	0.789144	0.438799	-1.061877
C64	C	0.722243	0.573156	-1.061806
C65	C	0.722232	0.573195	-0.952084
C66	C	0.755616	0.506210	-0.233482
C67	C	0.755701	0.505957	-0.116706
H68	H	0.457578	0.628214	-0.628119
H69	H	0.305471	0.695509	-0.695228
C70	C	0.418353	0.297538	-0.425019
C71	C	0.449713	0.364931	-0.365614
H72	H	0.399817	0.251871	-0.379518
H73	H	0.439680	0.257430	-0.470855
H74	H	0.394286	0.337610	-0.464959
H75	H	0.473782	0.324858	-0.325680
H76	H	0.428384	0.405042	-0.319760
H77	H	0.816384	1.105179	-0.384744
H78	H	0.816385	0.384079	-1.106566
H79	H	0.694997	1.105181	-0.628292
H80	H	0.694936	0.906111	-0.628244
C81	C	0.696744	0.751037	-1.095533
C82	C	0.685481	0.646978	-1.122070
H83	H	0.674046	0.796612	-1.132733
H84	H	0.731868	0.766410	-1.113540
H85	H	0.691948	0.760662	-1.022328
H86	H	0.690281	0.637351	-1.195274
H87	H	0.650348	0.631600	-1.104070
H88	H	0.206426	0.695517	-0.695262
H89	H	0.816370	0.384160	-0.907519
C90	C	0.211735	0.320243	-0.194534
C91	C	0.198552	0.297682	-0.298610
H92	H	0.193217	0.274575	-0.149005
H93	H	0.202764	0.390801	-0.179039
H94	H	0.248164	0.310637	-0.184973
H95	H	0.162123	0.307295	-0.308174
H96	H	0.207520	0.227107	-0.314110
C97	C	0.093401	0.297593	-0.425065
C98	C	0.061983	0.365008	-0.365712
H99	H	0.111906	0.251935	-0.379533
H100	H	0.117489	0.337644	-0.464992
H101	H	0.072112	0.257468	-0.470913
H102	H	0.083273	0.405139	-0.319869
H103	H	0.037892	0.324953	-0.325767
H104	H	0.305374	0.316836	-0.317726
H105	H	0.694986	0.627914	-0.907389
H106	H	0.556628	0.628209	-0.628067
H107	H	-0.044783	0.628290	-0.628245
C108	C	0.026586	0.706487	-0.706217
C109	C	0.062069	0.647444	-0.647342
H110	H	0.045122	0.752128	-0.751743
H111	H	0.005276	0.746623	-0.660373
H112	H	0.005300	0.660750	-0.746478
H113	H	0.083352	0.693181	-0.607075
H114	H	0.083388	0.607304	-0.693192
C115	C	-0.017144	0.305990	-0.306866
C116	C	-0.052628	0.365034	-0.365741
H117	H	-0.035681	0.260332	-0.261357
H118	H	0.004134	0.351719	-0.266597
H119	H	0.004173	0.265862	-0.352719
H120	H	-0.073943	0.405168	-0.319888
H121	H	-0.073915	0.319299	-0.406012
H122	H	0.556564	0.384112	-0.384686
H123	H	0.816323	0.906131	-0.384677
