data_functionalizedCrystal
_audit_creation_method	'MofGen! by Chris Wilmer'
_symmetry_space_group_name_H-M	'P1'
_symmetry_Int_Tables_number	1
_symmetry_cell_setting	triclinic
loop_
_symmetry_equiv_pos_as_xyz
  x,y,z
_cell_length_a	10.686220
_cell_length_b	19.121063
_cell_length_c	10.686551
_cell_angle_alpha	91.787201
_cell_angle_beta	89.691918
_cell_angle_gamma	96.652836
loop_
_atom_site_label
_atom_site_type_symbol
_atom_site_fract_x
_atom_site_fract_y
_atom_site_fract_z
Zn1	Zn	1.960178	-0.171149	0.576393
Zn2	Zn	1.934959	-0.298212	0.377034
Zn3	Zn	1.733026	-0.189107	0.384180
Zn4	Zn	1.741490	-0.296789	0.602695
O5	O	1.842413	-0.238814	0.485075
O6	O	2.132864	-0.181084	0.535949
O7	O	1.894076	-0.291850	0.203100
O8	O	1.770171	-0.088483	0.401661
O9	O	2.114336	-0.274436	0.389481
O10	O	1.937058	-0.075289	0.542879
O11	O	1.745717	-0.211691	0.208351
O12	O	1.558117	-0.210311	0.427165
O13	O	1.784596	-0.272012	0.774087
O14	O	1.564336	-0.289425	0.587707
O15	O	1.945265	-0.179704	0.754764
O16	O	1.902282	-0.396264	0.414984
O17	O	1.760141	-0.395219	0.580777
C18	C	1.515583	-0.251663	0.511066
C19	C	1.375765	-0.257175	0.522216
C20	C	1.829430	-0.421212	0.499984
C21	C	1.823994	-0.499236	0.506394
C22	C	1.895514	-0.536407	0.423148
C23	C	1.890409	-0.609719	0.429183
C24	C	1.813778	-0.645858	0.518461
C25	C	1.742256	-0.608681	0.601716
C26	C	1.747368	-0.535371	0.595685
C27	C	1.794644	-0.867182	0.540991
C28	C	1.789534	-0.940498	0.547013
C29	C	1.937690	-0.941530	0.374481
C30	C	1.942789	-0.868219	0.368454
C31	C	1.871272	-0.831048	0.451713
C32	C	1.808556	-0.720794	0.524630
C33	C	1.876502	-0.756113	0.445549
C34	C	2.170519	-0.225915	0.458984
C35	C	2.310339	-0.220419	0.447865
C36	C	1.868688	-0.223696	0.811038
C37	C	1.879884	-0.217254	0.949944
C38	C	1.855484	-0.055701	0.470134
C39	C	1.861053	0.022331	0.463766
C40	C	1.816317	-0.253820	0.160371
C41	C	1.805378	-0.260055	0.021430
H42	H	1.361289	-0.184734	0.375679
Br43	Br	1.290844	-0.316669	0.642525
H44	H	1.733028	-0.301629	0.976364
H45	H	1.952248	-0.175681	0.995015
H46	H	1.746160	-0.750227	0.597317
Br47	Br	1.980507	-0.707065	0.324398
H48	H	1.957909	-0.506988	0.350444
H49	H	1.995916	-0.971802	0.306698
H50	H	2.005188	-0.838796	0.295757
H51	H	1.679867	-0.638111	0.674412
H52	H	1.948647	-0.639981	0.361394
H53	H	1.736409	-0.836924	0.608781
Br54	Br	1.685505	-0.989546	0.668163
H55	H	1.689131	-0.505106	0.663474
