data_functionalizedCrystal
_audit_creation_method	'MofGen! by Chris Wilmer'
_symmetry_space_group_name_H-M	'P1'
_symmetry_Int_Tables_number	1
_symmetry_cell_setting	triclinic
loop_
_symmetry_equiv_pos_as_xyz
  x,y,z
_cell_length_a	6.817900
_cell_length_b	7.190334
_cell_length_c	15.866870
_cell_angle_alpha	74.030337
_cell_angle_beta	102.655915
_cell_angle_gamma	60.611776
loop_
_atom_site_label
_atom_site_type_symbol
_atom_site_fract_x
_atom_site_fract_y
_atom_site_fract_z
V1	V	-4.278433	0.767890	-0.130870
O2	O	-4.203398	0.646163	0.007859
O3	O	-4.283778	0.865652	-0.261003
O4	O	-4.314452	1.055795	-0.128168
O5	O	-4.172512	0.454703	-0.125896
V6	V	-4.744158	0.717916	-0.114358
O7	O	-4.578733	0.877511	-0.167091
O8	O	-4.894056	0.608295	-0.078137
O9	O	-4.515607	0.620154	0.015776
O10	O	-4.936591	0.839643	-0.253087
O11	O	-4.967477	1.031103	-0.119332
O12	O	-4.484933	0.430011	-0.117060
C13	C	-4.139122	0.880119	-0.292749
C14	C	-4.225342	0.961971	-0.399130
C15	C	-4.178259	1.122659	-0.123299
C16	C	-4.291433	1.363135	-0.121924
C17	C	-3.991620	0.202729	-0.682960
C18	C	-4.072667	0.279712	-0.782926
C19	C	-4.279585	0.691098	-0.809332
C20	C	-4.198544	0.614148	-0.709366
C21	C	-4.054566	0.369961	-0.646187
C22	C	-4.261489	0.781381	-0.672594
C23	C	-4.180466	0.704438	-0.572637
C24	C	-4.036496	0.460261	-0.509452
C25	C	-3.973542	0.293018	-0.546230
C26	C	-4.405482	1.025568	-0.735775
C27	C	-4.468428	1.192801	-0.699003
C28	C	-4.387389	1.115858	-0.599044
C29	C	-4.243420	0.871681	-0.535859
C30	C	-4.450344	1.283101	-0.562266
C31	C	-4.369320	1.206158	-0.462309
C32	C	-4.162396	0.794738	-0.435902
C33	C	-4.323605	0.605685	0.047516
C34	C	-4.216628	0.523848	0.153897
H35	H	-3.970535	0.397619	-0.428062
H36	H	-4.021392	0.143511	-0.812859
C37	C	-4.607100	1.548273	-0.630833
C38	C	-4.826621	1.667286	-0.619074
C39	C	-4.971105	1.911560	-0.682230
H40	H	-4.516826	1.611265	-0.616845
H41	H	-4.646517	1.570251	-0.695648
H42	H	-4.787201	1.645324	-0.554274
H43	H	-4.916960	1.604367	-0.633070
H44	H	-5.010521	1.933539	-0.747045
H45	H	-4.880810	1.974528	-0.668236
H46	H	-5.120075	1.992338	-0.674266
C47	C	-3.817662	0.027903	-0.477677
C48	C	-3.951769	-0.063821	-0.498586
C49	C	-3.808285	-0.308010	-0.435445
H50	H	-3.668552	-0.053580	-0.485462
H51	H	-3.778505	0.005966	-0.412872
H52	H	-3.990891	-0.041903	-0.563376
H53	H	-4.100870	0.017594	-0.490796
H54	H	-3.769129	-0.329947	-0.370640
H55	H	-3.659182	-0.389470	-0.443235
H56	H	-3.899263	-0.370271	-0.449617
H57	H	-4.471452	1.088208	-0.817166
H58	H	-3.874346	0.003884	-0.631514
C59	C	-4.624653	1.457798	-0.767755
C60	C	-4.682093	1.489391	-0.863164
C61	C	-4.825968	1.733472	-0.926521
H62	H	-4.773860	1.539226	-0.760028
H63	H	-4.534048	1.520503	-0.753750
H64	H	-4.772700	1.426716	-0.877165
H65	H	-4.532935	1.408019	-0.870923
H66	H	-4.735363	1.796178	-0.912516
H67	H	-4.975163	1.814879	-0.918785
H68	H	-4.864940	1.754939	-0.991262
H69	H	-4.420609	1.342338	-0.432370
H70	H	-4.045122	0.595894	-0.384457
H71	H	-4.396827	0.889917	-0.860786
