data_functionalizedCrystal
_audit_creation_method	'MofGen! by Chris Wilmer'
_symmetry_space_group_name_H-M	'P1'
_symmetry_Int_Tables_number	1
_symmetry_cell_setting	triclinic
loop_
_symmetry_equiv_pos_as_xyz
  x,y,z
_cell_length_a	16.120530
_cell_length_b	12.594516
_cell_length_c	16.120297
_cell_angle_alpha	87.123691
_cell_angle_beta	89.871860
_cell_angle_gamma	87.107535
loop_
_atom_site_label
_atom_site_type_symbol
_atom_site_fract_x
_atom_site_fract_y
_atom_site_fract_z
Zn1	Zn	1.247525	-0.539250	0.534592
Zn2	Zn	1.747525	-0.039250	1.034592
Zn3	Zn	1.254502	-0.708694	0.395543
Zn4	Zn	1.754502	-0.208694	0.895543
Zn5	Zn	1.115513	-0.521264	0.388509
Zn6	Zn	1.615513	-0.021264	0.888509
Zn7	Zn	1.108459	-0.707714	0.527512
Zn8	Zn	1.608459	-0.207714	1.027512
O9	O	1.181500	-0.619231	0.461539
O10	O	1.681500	-0.119231	0.961539
O11	O	1.364818	-0.569665	0.522053
O12	O	1.864818	-0.069665	1.022053
O13	O	1.241937	-0.676714	0.278244
O14	O	1.741937	-0.176714	0.778244
O15	O	1.133056	-0.374708	0.407906
O16	O	1.633056	0.125292	0.907906
O17	O	1.369944	-0.694154	0.419895
O18	O	1.869944	-0.194154	0.919895
O19	O	1.230045	-0.387922	0.515233
O20	O	1.730045	0.112078	1.015233
O21	O	1.139822	-0.539010	0.273076
O22	O	1.639822	-0.039010	0.773076
O23	O	0.998209	-0.538060	0.401042
O24	O	1.498209	-0.038060	0.901042
O25	O	1.121034	-0.692484	0.644817
O26	O	1.621034	-0.192484	1.144817
O27	O	0.993027	-0.675043	0.503166
O28	O	1.493027	-0.175043	1.003166
O29	O	1.223205	-0.568715	0.650019
O30	O	1.723205	-0.068715	1.150019
O31	O	1.235097	-0.857506	0.413030
O32	O	1.735097	-0.357506	0.913030
O33	O	1.127800	-0.856786	0.509987
O34	O	1.627800	-0.356786	1.009987
C35	C	0.965445	-0.604494	0.450573
C36	C	1.465445	-0.104494	0.950573
C37	C	0.873015	-0.598217	0.445901
C38	C	1.373015	-0.098217	0.945901
C39	C	0.703784	-0.586731	0.437379
C40	C	1.203784	-0.086731	0.937379
C41	C	0.660053	-0.651812	0.485759
C42	C	1.160053	-0.151812	0.985759
C43	C	0.565887	-0.645422	0.481018
C44	C	1.065887	-0.145422	0.981018
C45	C	0.797959	-0.593120	0.442120
C46	C	1.297959	-0.093120	0.942120
C47	C	1.181462	-0.895768	0.461523
C48	C	1.681462	-0.395768	0.961523
C49	C	1.181520	-1.014079	0.461547
C50	C	1.681520	-0.514079	0.961547
C51	C	1.239941	-1.083693	0.408875
C52	C	1.739941	-0.583693	0.908875
C53	C	1.256413	-1.160447	0.485802
C54	C	1.756413	-0.660447	0.985802
C55	C	1.165150	-1.148134	0.384674
C56	C	1.665150	-0.648134	0.884674
C57	C	1.198029	-1.089279	0.538516
C58	C	1.698029	-0.589279	1.038516
C59	C	1.106733	-1.076955	0.437335
C60	C	1.606733	-0.576955	0.937335
C61	C	1.123174	-1.153678	0.514313
C62	C	1.623174	-0.653678	1.014313
C63	C	1.398398	-0.634025	0.472548
C64	C	1.898398	-0.134025	0.972548
C65	C	1.490827	-0.640330	0.477240
C66	C	1.990827	-0.140330	0.977240
C67	C	1.170555	-0.632496	0.678434
C68	C	1.670555	-0.132496	1.178434
C69	C	1.165890	-0.638149	0.770862
C70	C	1.665890	-0.138149	1.270862
C71	C	1.181559	-0.341616	0.461575
C72	C	1.681559	0.158384	0.961575
C73	C	1.181585	-0.223313	0.461590
C74	C	1.681585	0.276687	0.961590
C75	C	1.192450	-0.605943	0.245490
C76	C	1.692450	-0.105943	0.745490
C77	C	1.197275	-0.600001	0.153071
C78	C	1.697275	-0.100001	0.653071
C79	C	1.157344	-0.648444	0.940087
C80	C	1.657344	-0.148444	1.440087
C81	C	1.205819	-0.589709	0.983851
C82	C	1.705819	-0.089709	1.483851
C83	C	1.201064	-0.595437	1.078014
C84	C	1.701064	-0.095437	1.578014
C85	C	1.162098	-0.642717	0.845915
C86	C	1.662098	-0.142717	1.345915
H87	H	0.670504	-0.526220	0.392402
H88	H	1.170504	-0.026220	0.892402
H89	H	1.112277	-0.703028	0.973335
H90	H	1.612277	-0.203028	1.473335
C91	C	0.752248	-0.680191	0.602426
C92	C	1.252248	-0.180191	1.102426
C93	C	0.704975	-0.733516	0.546479
C94	C	1.204975	-0.233516	1.046479
H95	H	0.779986	-0.730633	0.639904
H96	H	1.279986	-0.230633	1.139904
H97	H	0.716768	-0.633589	0.632625
H98	H	1.216768	-0.133589	1.132625
H99	H	0.792059	-0.640199	0.572687
H100	H	1.292059	-0.140199	1.072687
H101	H	0.665160	-0.773502	0.576217
H102	H	1.165160	-0.273502	1.076217
H103	H	0.740458	-0.780136	0.516277
H104	H	1.240458	-0.280136	1.016277
H105	H	1.250889	-0.535121	0.950601
H106	H	1.750889	-0.035121	1.450601
H107	H	1.289351	-1.052958	0.364374
H108	H	1.789351	-0.552958	0.864374
H109	H	1.319686	-1.196913	0.506304
H110	H	1.819686	-0.696913	1.006304
C111	C	0.960054	-1.064502	0.463991
C112	C	1.460054	-0.564502	0.963991
C113	C	1.021344	-1.027690	0.409630
C114	C	1.521344	-0.527690	0.909630
H115	H	0.907339	-1.034090	0.446876
H116	H	1.407339	-0.534090	0.946876
H117	H	0.971634	-1.044535	0.518650
H118	H	1.471634	-0.544535	1.018650
H119	H	0.959618	-1.139848	0.463304
H120	H	1.459618	-0.639848	0.963304
H121	H	1.021785	-0.952344	0.410322
H122	H	1.521785	-0.452344	0.910322
H123	H	1.009761	-1.047649	0.354957
H124	H	1.509761	-0.547649	0.854957
C125	C	1.289073	-0.996927	0.624361
C126	C	1.789073	-0.496927	1.124361
C127	C	1.216866	-1.054309	0.626335
C128	C	1.716866	-0.554309	1.126335
H129	H	1.300705	-0.975344	0.678576
H130	H	1.800705	-0.475344	1.178576
H131	H	1.281200	-0.935865	0.587673
H132	H	1.781200	-0.435865	1.087673
H133	H	1.334288	-1.040667	0.605507
H134	H	1.834288	-0.540667	1.105507
H135	H	1.171650	-1.010567	0.645183
H136	H	1.671650	-0.510567	1.145183
H137	H	1.224734	-1.115380	0.663035
H138	H	1.724734	-0.615380	1.163035
C139	C	1.073894	-1.165250	0.654982
C140	C	1.573894	-0.665250	1.154982
C141	C	1.056514	-1.194928	0.574538
C142	C	1.556514	-0.694928	1.074538
H143	H	1.032745	-1.190725	0.692162
H144	H	1.532745	-0.690725	1.192162
H145	H	1.073813	-1.089875	0.655621
H146	H	1.573813	-0.589875	1.155621
H147	H	1.126905	-1.195040	0.671721
H148	H	1.626905	-0.695040	1.171721
H149	H	1.003505	-1.165131	0.557796
H150	H	1.503505	-0.665131	1.057796
H151	H	1.056586	-1.270318	0.573896
H152	H	1.556586	-0.770318	1.073896
H153	H	1.151277	-1.174187	0.319645
H154	H	1.651277	-0.674187	0.819645
