data_functionalizedCrystal
_audit_creation_method	'MofGen! by Chris Wilmer'
_symmetry_space_group_name_H-M	'P1'
_symmetry_Int_Tables_number	1
_symmetry_cell_setting	triclinic
loop_
_symmetry_equiv_pos_as_xyz
  x,y,z
_cell_length_a	10.489741
_cell_length_b	13.339070
_cell_length_c	11.804365
_cell_angle_alpha	105.114498
_cell_angle_beta	101.968120
_cell_angle_gamma	79.915766
loop_
_atom_site_label
_atom_site_type_symbol
_atom_site_fract_x
_atom_site_fract_y
_atom_site_fract_z
O1	O	-1.761612	0.122821	-0.098940
O2	O	-1.395018	0.136249	-0.098958
O3	O	-1.536243	-0.018036	-0.098955
O4	O	-1.620388	0.277106	-0.098943
O5	O	-1.499049	0.022540	0.099100
O6	O	-1.357824	0.176825	0.099098
O7	O	-1.724419	0.163397	0.099115
Cu8	Cu	-1.537726	0.173816	0.117190
Cu9	Cu	-1.581711	0.125830	-0.117033
O10	O	-1.583194	0.317682	0.099112
C11	C	-1.328543	0.155522	0.000068
C12	C	-1.185876	0.152486	0.000060
C13	C	-1.503433	-0.035542	0.000069
C14	C	-1.461066	-0.148155	0.000056
C15	C	-1.790895	0.144124	0.000087
C16	C	-1.933563	0.147158	0.000086
C17	C	-1.084127	0.054320	0.000068
C18	C	-1.026213	0.080688	-0.097579
C19	C	-0.989585	0.120716	0.097687
C20	C	-1.129856	0.178878	-0.097668
C21	C	-1.093217	0.218910	0.097687
C22	C	-1.035360	0.245345	0.000016
C23	C	-1.616005	0.335187	0.000086
C24	C	-1.658373	0.447799	0.000091
N25	N	-1.506797	0.207566	0.281930
C26	C	-1.328941	0.810185	0.000058
C27	C	-1.289127	0.704386	0.000073
C28	C	-1.381435	0.640234	0.000077
C29	C	-1.513564	0.681892	0.000067
C30	C	-1.553381	0.787704	0.000061
C31	C	-1.605875	0.617752	0.000080
C32	C	-1.738004	0.659410	0.000070
C33	C	-1.777814	0.765212	0.000063
C34	C	-1.685506	0.829364	0.000059
C35	C	-1.566058	0.511940	0.000086
C36	C	-1.790498	0.489459	0.000089
C37	C	-1.830312	0.595259	0.000073
N38	N	-1.612647	0.092072	-0.281773
C39	C	-1.686910	0.011006	0.655883
C40	C	-1.710304	-0.014530	0.531221
C41	C	-1.659429	0.040991	0.468892
C42	C	-1.585156	0.122054	0.531237
C43	C	-1.561769	0.147599	0.655910
C44	C	-1.534288	0.177584	0.468920
C45	C	-1.460015	0.258647	0.531265
C46	C	-1.436631	0.284186	0.655926
C47	C	-1.487506	0.228665	0.718255
C48	C	-1.557675	0.152040	0.344247
C49	C	-1.432535	0.288632	0.344275
C50	C	-1.409140	0.314169	0.468936
H51	H	-0.996483	0.022237	-0.180138
O52	O	-1.229395	0.879382	0.000066
H53	H	-1.130826	0.832645	0.000080
O54	O	-1.462283	0.256204	0.852716
H55	H	-1.354835	0.245968	0.885599
O56	O	-1.920326	0.810139	0.000044
H57	H	-1.951352	0.800975	0.080761
H58	H	-1.122967	0.277328	0.180249
O59	O	-1.210052	0.211383	-0.207173
H60	H	-1.316079	0.213326	-0.206356
O61	O	-1.329056	0.401614	0.536178
H62	H	-1.241138	0.370084	0.592995
O63	O	-1.006541	0.352347	-0.000026
H64	H	-1.063678	0.376220	-0.081158
O65	O	-1.972819	0.640194	0.000072
H66	H	-1.984988	0.724545	0.000075
H67	H	-1.181549	0.670474	0.000076
H68	H	-1.865663	0.437226	0.000093
H69	H	-0.928878	0.096074	0.180241
O70	O	-1.338492	0.526119	0.000085
H71	H	-1.361277	0.509911	0.080813
H72	H	-1.458477	0.478034	0.000100
H73	H	-1.618148	0.086039	0.293497
O74	O	-1.728453	0.943484	0.000062
H75	H	-1.642063	0.981090	0.000067
H76	H	-1.376166	0.350200	0.706687
O77	O	-1.377632	0.348513	0.277067
H78	H	-1.406352	0.317122	0.179906
H79	H	-1.678479	0.020196	0.367388
O80	O	-1.790392	-0.101965	0.463986
H81	H	-1.890173	-0.083372	0.487912
O82	O	-1.113254	-0.052627	-0.000017
H83	H	-1.086727	-0.109770	-0.081190
O84	O	-1.741781	-0.048872	0.723103
H85	H	-1.713035	-0.017492	0.820264
