data_functionalizedCrystal
_audit_creation_method	'MofGen! by Chris Wilmer'
_symmetry_space_group_name_H-M	'P1'
_symmetry_Int_Tables_number	1
_symmetry_cell_setting	triclinic
loop_
_symmetry_equiv_pos_as_xyz
  x,y,z
_cell_length_a	19.077115
_cell_length_b	12.827892
_cell_length_c	19.076919
_cell_angle_alpha	92.275535
_cell_angle_beta	90.076897
_cell_angle_gamma	87.711893
loop_
_atom_site_label
_atom_site_type_symbol
_atom_site_fract_x
_atom_site_fract_y
_atom_site_fract_z
Zn1	Zn	1.058323	-0.505562	-0.440428
Zn2	Zn	1.558323	-0.005562	0.059572
Zn3	Zn	1.062980	-0.673587	-0.322928
Zn4	Zn	1.562980	-0.173587	0.177072
Zn5	Zn	0.945539	-0.491562	-0.318222
Zn6	Zn	1.445539	0.008438	0.181778
Zn7	Zn	0.940802	-0.672956	-0.435682
Zn8	Zn	1.440802	-0.172956	0.064318
O9	O	1.001911	-0.585917	-0.379315
O10	O	1.501911	-0.085917	0.120685
O11	O	1.157273	-0.533973	-0.428797
O12	O	1.657273	-0.033973	0.071203
O13	O	1.051333	-0.643846	-0.223972
O14	O	1.551333	-0.143846	0.276028
O15	O	0.960534	-0.347186	-0.334449
O16	O	1.460534	0.152814	0.165551
O17	O	1.160695	-0.657420	-0.342470
O18	O	1.660695	-0.157420	0.157530
O19	O	1.043395	-0.357472	-0.424233
O20	O	1.543395	0.142528	0.075767
O21	O	0.965050	-0.510113	-0.220515
O22	O	1.465050	-0.010113	0.279485
O23	O	0.846578	-0.509502	-0.329847
O24	O	1.346578	-0.009502	0.170153
O25	O	0.952460	-0.656346	-0.534643
O26	O	1.452460	-0.156346	-0.034643
O27	O	0.843098	-0.642772	-0.416145
O28	O	1.343098	-0.142772	0.083855
O29	O	1.038802	-0.533362	-0.538130
O30	O	1.538802	-0.033362	-0.038130
O31	O	1.046740	-0.819736	-0.337869
O32	O	1.546740	-0.319736	0.162131
O33	O	0.956976	-0.819273	-0.420709
O34	O	1.456976	-0.319273	0.079291
C35	C	0.819342	-0.574550	-0.371971
C36	C	1.319342	-0.074550	0.128029
C37	C	0.741237	-0.569714	-0.368846
C38	C	1.241237	-0.069714	0.131154
C39	C	0.301783	-0.534980	-0.346439
C40	C	0.801783	-0.034980	0.153561
C41	C	0.375170	-0.539531	-0.349379
C42	C	0.875170	-0.039531	0.150621
C43	C	0.410071	-0.611298	-0.395707
C44	C	0.910071	-0.111298	0.104293
C45	C	0.371580	-0.678512	-0.439102
C46	C	0.871580	-0.178512	0.060898
C47	C	0.298194	-0.673956	-0.436165
C48	C	0.798194	-0.173956	0.063835
C49	C	0.629360	-0.632371	-0.409304
C50	C	1.129360	-0.132371	0.090696
C51	C	0.702752	-0.636925	-0.412237
C52	C	1.202752	-0.136925	0.087763
C53	C	0.706337	-0.497942	-0.322514
C54	C	1.206337	0.002058	0.177486
C55	C	0.632949	-0.493396	-0.319578
C56	C	1.132949	0.006604	0.180422
C57	C	0.594464	-0.560606	-0.362976
C58	C	1.094464	-0.060606	0.137024
N59	N	0.485085	-0.615953	-0.398712
N60	N	0.985085	-0.115953	0.101288
N61	N	0.519452	-0.555945	-0.359974
N62	N	1.019452	-0.055945	0.140026
C63	C	1.001868	-0.857423	-0.379301
C64	C	1.501868	-0.357423	0.120699
C65	C	1.001912	-0.973580	-0.379321
C66	C	1.501912	-0.473580	0.120679
C67	C	1.046379	-1.025565	-0.338378
C68	C	1.546379	-0.525565	0.161622
C69	C	1.046426	-1.145620	-0.338398
C70	C	1.546426	-0.645620	0.161602
C71	C	1.185193	-0.597328	-0.386688
C72	C	1.685193	-0.097328	0.113312
C73	C	1.263297	-0.602191	-0.389830
C74	C	1.763297	-0.102191	0.110170
C75	C	0.994583	-0.596345	-0.562596
C76	C	1.494583	-0.096345	-0.062596
C77	C	0.991460	-0.600789	-0.640699
C78	C	1.491460	-0.100789	-0.140699
C79	C	1.001973	-0.313352	-0.379345
C80	C	1.501973	0.186648	0.120655
C81	C	1.002000	-0.197201	-0.379358
C82	C	1.502000	0.302799	0.120642
C83	C	1.034944	-0.538849	-0.679208
C84	C	1.534944	-0.038849	-0.179208
C85	C	1.032001	-0.543020	-0.752594
C86	C	1.532001	-0.043020	-0.252594
C87	C	0.985577	-0.609138	-0.787470
C88	C	1.485577	-0.109138	-0.287470
C89	C	0.942088	-0.671081	-0.748955
C90	C	1.442088	-0.171081	-0.248955
C91	C	0.945028	-0.666903	-0.675570
C92	C	1.445028	-0.166903	-0.175570
C93	C	0.971961	-0.628492	-1.006752
C94	C	1.471961	-0.128492	-0.506752
C95	C	0.969026	-0.632667	-1.080142
C96	C	1.469026	-0.132667	-0.580142
C97	C	1.058939	-0.504604	-1.083776
C98	C	1.558939	-0.004604	-0.583776
C99	C	1.061877	-0.500437	-1.010390
C100	C	1.561877	-0.000437	-0.510390
C101	C	1.018386	-0.562376	-0.971882
C102	C	1.518386	-0.062376	-0.471882
N103	N	0.982570	-0.613405	-0.862482
N104	N	1.482570	-0.113405	-0.362482
N105	N	1.021390	-0.558102	-0.896870
N106	N	1.521390	-0.058102	-0.396870
C107	C	1.009251	-0.575456	-0.196749
C108	C	1.509251	-0.075456	0.303251
C109	C	1.012510	-0.570726	-0.118651
C110	C	1.512510	-0.070726	0.381349
H111	H	0.731165	-0.695367	-0.449966
H112	H	1.231165	-0.195367	0.050034
H113	H	0.604538	-0.434963	-0.281848
H114	H	1.104538	0.065037	0.218152
H115	H	0.904286	-0.724911	-0.777356
H116	H	1.404286	-0.224911	-0.277356
H117	H	1.099683	-0.446600	-0.982000
H118	H	1.599683	0.053400	-0.482000
H119	H	0.963925	-1.152504	-0.414410
H120	H	1.463925	-0.652504	0.085590
N121	N	1.105837	-0.437784	-1.125305
N122	N	1.605837	0.062216	-0.625305
H123	H	1.156552	-0.456409	-1.114556
H124	H	1.656552	0.043591	-0.614556
H125	H	1.096873	-0.450483	-1.177072
H126	H	1.596873	0.049517	-0.677072
H127	H	1.084417	-0.981195	-0.303314
H128	H	1.584417	-0.481195	0.196686
H129	H	0.598035	-0.687102	-0.444640
H130	H	1.098035	-0.187102	0.055360
N131	N	0.951526	-1.032338	-0.425776
N132	N	1.451526	-0.532338	0.074224
H133	H	0.978798	-1.081198	-0.459492
H134	H	1.478798	-0.581198	0.040508
H135	H	0.920186	-1.073971	-0.395816
H136	H	1.420186	-0.573971	0.104184
N137	N	1.085021	-0.467542	-0.641595
N138	N	1.585021	0.032458	-0.141595
H139	H	1.112120	-0.428936	-0.677129
H140	H	1.612120	0.071064	-0.177129
H141	H	1.057649	-0.415668	-0.610000
H142	H	1.557649	0.084332	-0.110000
H143	H	0.400002	-0.736942	-0.476826
H144	H	0.900002	-0.236942	0.023174
N145	N	0.256679	-0.746453	-0.482958
N146	N	0.756679	-0.246453	0.017042
H147	H	0.224941	-0.704028	-0.514354
H148	H	0.724941	-0.204028	-0.014354
H149	H	0.289967	-0.792598	-0.512706
H150	H	0.789967	-0.292598	-0.012706
N151	N	0.918928	-0.703964	-1.117743
N152	N	1.418928	-0.203964	-0.617743
H153	H	0.885161	-0.661183	-1.146877
H154	H	1.385161	-0.161183	-0.646877
H155	H	0.946285	-0.755908	-1.149300
H156	H	1.446285	-0.255908	-0.649300
N157	N	0.925032	-0.695258	-0.965222
N158	N	1.425032	-0.195258	-0.465222
H159	H	0.895172	-0.737766	-0.998453
H160	H	1.395172	-0.237766	-0.498453
H161	H	0.954817	-0.743678	-0.935905
H162	H	1.454817	-0.243678	-0.435905
N163	N	1.096851	-1.204824	-0.291957
N164	N	1.596851	-0.704824	0.208043
H165	H	1.089735	-1.282194	-0.298551
H166	H	1.589735	-0.782194	0.201449
H167	H	1.146595	-1.189476	-0.304936
H168	H	1.646595	-0.689476	0.195064
H169	H	1.067412	-0.492584	-0.783946
H170	H	1.567412	0.007416	-0.283946
H171	H	0.909611	-0.717331	-0.644217
H172	H	1.409611	-0.217331	-0.144217
H173	H	0.273372	-0.476541	-0.308713
H174	H	0.773372	0.023459	0.191287
H175	H	0.737679	-0.443222	-0.287183
H176	H	1.237679	0.056778	0.212817
N177	N	0.416680	-0.467021	-0.302593
N178	N	0.916680	0.032979	0.197407
H179	H	0.383435	-0.420864	-0.272800
H180	H	0.883435	0.079136	0.227200
H181	H	0.448426	-0.509500	-0.271240
H182	H	0.948426	-0.009500	0.228760
