data_functionalizedCrystal
_audit_creation_method	'MofGen! by Chris Wilmer'
_symmetry_space_group_name_H-M	'P1'
_symmetry_Int_Tables_number	1
_symmetry_cell_setting	triclinic
loop_
_symmetry_equiv_pos_as_xyz
  x,y,z
_cell_length_a	16.109301
_cell_length_b	16.109304
_cell_length_c	9.198806
_cell_angle_alpha	90.000326
_cell_angle_beta	90.001223
_cell_angle_gamma	96.537948
loop_
_atom_site_label
_atom_site_type_symbol
_atom_site_fract_x
_atom_site_fract_y
_atom_site_fract_z
O1	O	1.103132	-0.106865	0.120789
O2	O	0.861071	-0.120164	0.120811
O3	O	0.988750	0.007516	0.120803
O4	O	0.975453	-0.234546	0.120797
O5	O	0.988740	0.007516	-0.120982
O6	O	0.861061	-0.120164	-0.120974
O7	O	1.103122	-0.106865	-0.120996
Cu8	Cu	0.982091	-0.113515	-0.143062
Cu9	Cu	0.982102	-0.113515	0.142877
O10	O	0.975443	-0.234545	-0.120988
C11	C	0.830091	-0.119626	-0.000079
C12	C	0.737795	-0.118010	-0.000070
C13	C	0.988206	0.038491	-0.000086
C14	C	0.986590	0.130786	-0.000074
C15	C	0.515524	-0.190018	-0.000089
C16	C	0.428803	-0.188494	-0.000098
C17	C	0.448676	-0.037005	-0.000088
C18	C	0.535395	-0.038530	-0.000089
C19	C	0.568816	-0.115039	-0.000082
C20	C	0.395377	-0.111990	-0.000090
C21	C	0.301351	-0.110337	-0.000100
C22	C	0.662848	-0.116693	-0.000075
C23	C	1.134102	-0.107404	-0.000103
C24	C	1.226398	-0.109019	-0.000102
C25	C	0.982862	0.343123	0.131723
C26	C	0.981336	0.429844	0.131723
C27	C	0.981329	0.429841	-0.131884
C28	C	0.982849	0.343122	-0.131883
C29	C	0.983620	0.299766	-0.000075
C30	C	0.980573	0.473205	-0.000076
C31	C	0.978919	0.567231	-0.000076
C32	C	0.985273	0.205734	-0.000075
C33	C	0.975987	0.734480	-0.000091
C34	C	0.977603	0.642184	-0.000077
N35	N	0.982088	-0.113514	-0.344176
C36	C	1.035699	-0.059670	-0.416376
C37	C	1.035712	-0.059667	-0.583789
N38	N	0.982111	-0.113509	0.343991
H39	H	0.542732	-0.252316	-0.000094
H40	H	0.936196	-0.159606	-0.406301
H41	H	0.385415	-0.249550	-0.000106
C42	C	0.980462	0.476761	-0.275135
C43	C	0.981428	0.420223	-0.390559
C44	C	0.980621	0.463412	-0.522546
H45	H	1.028311	0.516944	-0.280822
H46	H	0.931396	0.504218	-0.280694
H47	H	1.030488	0.392780	-0.385003
H48	H	0.933583	0.380038	-0.384921
H49	H	0.931555	0.490868	-0.528105
H50	H	1.028471	0.503593	-0.528217
H51	H	0.981269	0.425056	-0.600877
H52	H	0.421454	0.025285	-0.000103
C53	C	0.983545	0.295932	0.274724
C54	C	0.912936	0.236766	0.282393
C55	C	0.913533	0.193275	0.414103
H56	H	0.982827	0.334082	0.353330
H57	H	1.032564	0.268399	0.280246
H58	H	0.863930	0.264297	0.276885
H59	H	0.913640	0.198598	0.203818
H60	H	0.962552	0.165743	0.419625
H61	H	0.912818	0.231431	0.492698
H62	H	0.865631	0.153121	0.419318
C63	C	0.593124	0.042971	-0.000007
C64	C	0.545297	0.110300	0.000038
C65	C	0.598448	0.185387	0.000127
H66	H	0.627383	0.045643	-0.084301
H67	H	0.627356	0.045566	0.084342
H68	H	0.511079	0.107706	-0.084302
H69	H	0.511040	0.107656	0.084326
H70	H	0.632680	0.187983	0.084476
H71	H	0.632704	0.188050	-0.084168
H72	H	0.566005	0.231079	0.000171
H73	H	0.980717	0.465141	0.239047
C74	C	0.983633	0.295886	-0.274836
C75	C	0.985104	0.210658	-0.246620
C76	C	0.985812	0.167117	-0.378264
H77	H	1.031825	0.316345	-0.329104
H78	H	0.934910	0.303692	-0.329002
H79	H	1.033822	0.202857	-0.192477
H80	H	0.936916	0.190174	-0.192373
H81	H	0.937088	0.174923	-0.432430
H82	H	1.034005	0.187583	-0.432522
H83	H	0.986802	0.109285	-0.359138
H84	H	1.081586	-0.013571	-0.354253
C85	C	1.096873	0.001938	-0.666383
C86	C	1.083210	0.083597	-0.629438
C87	C	1.139543	0.140371	-0.705484
H88	H	1.088805	-0.006114	-0.767922
H89	H	1.152428	-0.006884	-0.641466
H90	H	1.027669	0.092415	-0.654364
H91	H	1.091284	0.091675	-0.527912
H92	H	1.195098	0.131550	-0.680567
H93	H	1.131471	0.132312	-0.807019
H94	H	1.130286	0.195783	-0.680417
H95	H	0.936213	-0.159612	-0.593929
