data_functionalizedCrystal
_audit_creation_method	'MofGen! by Chris Wilmer'
_symmetry_space_group_name_H-M	'P1'
_symmetry_Int_Tables_number	1
_symmetry_cell_setting	triclinic
loop_
_symmetry_equiv_pos_as_xyz
  x,y,z
_cell_length_a	19.805407
_cell_length_b	12.594516
_cell_length_c	19.805399
_cell_angle_alpha	89.977527
_cell_angle_beta	89.982197
_cell_angle_gamma	90.009132
loop_
_atom_site_label
_atom_site_type_symbol
_atom_site_fract_x
_atom_site_fract_y
_atom_site_fract_z
Zn1	Zn	1.034804	-0.423843	-0.382712
Zn2	Zn	1.034748	-0.601836	-0.269534
Zn3	Zn	0.921619	-0.423864	-0.269540
Zn4	Zn	0.921611	-0.601772	-0.382684
O5	O	0.978196	-0.512829	-0.326117
O6	O	1.129513	-0.447473	-0.367707
O7	O	1.019721	-0.578264	-0.174818
O8	O	0.936660	-0.274915	-0.284567
O9	O	1.129472	-0.578244	-0.284556
O10	O	1.019817	-0.274900	-0.367713
O11	O	0.936605	-0.447508	-0.174822
O12	O	0.826901	-0.447445	-0.284540
O13	O	0.936647	-0.578133	-0.477404
O14	O	0.826896	-0.578153	-0.367666
O15	O	1.019809	-0.447410	-0.477425
O16	O	1.019713	-0.750774	-0.284529
O17	O	0.936592	-0.750726	-0.367660
C18	C	0.802340	-0.512795	-0.326101
C19	C	0.727108	-0.512807	-0.326110
C20	C	0.691786	-0.444835	-0.369473
C21	C	0.621097	-0.444840	-0.369475
C22	C	0.585732	-0.512824	-0.326118
C23	C	0.621059	-0.580799	-0.282750
C24	C	0.691746	-0.580787	-0.282745
C25	C	0.335986	-0.580847	-0.282771
C26	C	0.265294	-0.580856	-0.282781
C27	C	0.265337	-0.444900	-0.369502
C28	C	0.336024	-0.444888	-0.369496
C29	C	0.371345	-0.512859	-0.326126
C30	C	0.447993	-0.512850	-0.326123
C31	C	0.509085	-0.512839	-0.326124
C32	C	0.978164	-0.789370	-0.326105
C33	C	0.978213	-0.907675	-0.326123
C34	C	1.023475	-0.976916	-0.280956
C35	C	1.040013	-1.047622	-0.342735
C36	C	0.961760	-1.047767	-0.264384
C37	C	0.994782	-0.976824	-0.387934
C38	C	0.916500	-0.976962	-0.309542
C39	C	0.933015	-1.047637	-0.371362
C40	C	1.154738	-0.512863	-0.326134
C41	C	1.229970	-0.512878	-0.326141
C42	C	0.978234	-0.512762	-0.502660
C43	C	0.978250	-0.512733	-0.577892
C44	C	0.978246	-0.235208	-0.326144
C45	C	0.978267	-0.116902	-0.326155
C46	C	1.021553	-0.444662	-0.613248
C47	C	1.021560	-0.444631	-0.683936
C48	C	0.978267	-0.512678	-0.719268
C49	C	0.934958	-0.580752	-0.683907
C50	C	0.934948	-0.580776	-0.613220
C51	C	0.934996	-0.580652	-0.968980
C52	C	0.935011	-0.580625	-1.039672
C53	C	1.021608	-0.444507	-1.039697
C54	C	1.021599	-0.444532	-0.969010
C55	C	0.978288	-0.512602	-0.933655
C56	C	0.978280	-0.512633	-0.857007
C57	C	0.978277	-0.512652	-0.795915
C58	C	0.978197	-0.512819	-0.150261
C59	C	0.978312	-0.512547	-0.075030
H60	H	0.236570	-0.389551	-0.404813
H61	H	1.092225	-1.078663	-0.356778
C62	C	0.845988	-0.934982	-0.290541
N63	N	0.792878	-0.903357	-0.276222
C64	C	0.582155	-0.655581	-0.235056
N65	N	0.552853	-0.711911	-0.199133
H66	H	1.056872	-0.389078	-1.068491
C67	C	0.942926	-1.089858	-0.193830
N68	N	0.928745	-1.121557	-0.140687
H69	H	1.008669	-0.945794	-0.440204
H70	H	0.720504	-0.636137	-0.247434
C71	C	0.730681	-0.370045	-0.417169
N72	N	0.759975	-0.313707	-0.453094
H73	H	0.894761	-1.078494	-0.409616
C74	C	1.075192	-0.934949	-0.229406
N75	N	1.114148	-0.903335	-0.190583
C76	C	0.887328	-0.655593	-0.722774
N77	N	0.851451	-0.711965	-0.752048
H78	H	1.056810	-0.389254	-0.584486
H79	H	1.056824	-0.389204	-0.712720
C80	C	0.582246	-0.370069	-0.417180
N81	N	0.552984	-0.313748	-0.453114
C82	C	1.069222	-0.369672	-0.930149
N83	N	1.105090	-0.313280	-0.900881
H84	H	0.899753	-0.636038	-1.068437
H85	H	0.899740	-0.636094	-0.940203
C86	C	0.887312	-0.655662	-0.574329
N87	N	0.851430	-0.712066	-0.545037
H88	H	0.236501	-0.636219	-0.247472
C89	C	0.374922	-0.370097	-0.417190
N90	N	0.404219	-0.313758	-0.453111
H91	H	0.364735	-0.636194	-0.247457
