data_functionalizedCrystal
_audit_creation_method	'MofGen! by Chris Wilmer'
_symmetry_space_group_name_H-M	'P1'
_symmetry_Int_Tables_number	1
_symmetry_cell_setting	triclinic
loop_
_symmetry_equiv_pos_as_xyz
  x,y,z
_cell_length_a	16.992694
_cell_length_b	18.266242
_cell_length_c	16.992695
_cell_angle_alpha	90.006314
_cell_angle_beta	90.668223
_cell_angle_gamma	90.003271
loop_
_atom_site_label
_atom_site_type_symbol
_atom_site_fract_x
_atom_site_fract_y
_atom_site_fract_z
O1	O	1.050856	0.060790	0.166918
O2	O	0.822456	0.060811	0.165087
O3	O	0.935740	0.060795	0.051803
O4	O	0.937571	0.060806	0.280203
O5	O	0.935719	-0.060967	0.051795
O6	O	0.822435	-0.060951	0.165079
O7	O	1.050835	-0.060972	0.166911
Zn8	Zn	0.936631	-0.080294	0.165994
Zn9	Zn	0.936659	0.080133	0.166004
O10	O	0.937550	-0.060956	0.280195
C11	C	0.793085	-0.000067	0.162727
C12	C	0.705600	-0.000059	0.155699
C13	C	0.659610	-0.000056	0.223517
C14	C	0.577409	-0.000066	0.216908
C15	C	0.541201	-0.000074	0.142480
C16	C	0.587198	-0.000079	0.074657
C17	C	0.669397	-0.000074	0.081267
C18	C	0.295886	-0.000095	0.115086
C19	C	0.213681	-0.000098	0.108481
C20	C	0.203898	-0.000087	0.250732
C21	C	0.286099	-0.000077	0.257335
C22	C	0.332089	-0.000086	0.189512
N23	N	0.457178	-0.000083	0.135723
N24	N	0.416110	-0.000083	0.196270
N25	N	0.936618	-0.189781	0.165987
C26	C	0.986800	-0.228097	0.115852
C27	C	0.986805	-0.304742	0.115849
C28	C	0.936636	-0.343067	0.165994
C29	C	0.886445	-0.304742	0.216133
C30	C	0.886436	-0.228099	0.216129
N31	N	0.930981	-0.463396	0.235021
N32	N	0.930994	-0.536204	0.235022
C33	C	0.936659	-0.573990	0.166007
N34	N	0.942326	-0.536217	0.096990
N35	N	0.942317	-0.463403	0.096989
C36	C	0.936640	-0.426174	0.166003
C37	C	0.986849	-0.695413	0.115864
C38	C	0.986848	-0.772060	0.115860
C39	C	0.886492	-0.772058	0.216151
C40	C	0.886489	-0.695414	0.216148
C41	C	0.936671	-0.657096	0.166006
C42	C	1.080205	-0.000092	0.169270
C43	C	1.167690	-0.000096	0.176299
C44	C	0.933374	-0.000086	0.022439
C45	C	0.926345	-0.000085	-0.065046
N46	N	0.936678	0.189620	0.166005
C47	C	0.994163	-0.000092	-0.111037
C48	C	0.987554	-0.000084	-0.193238
C49	C	0.913127	-0.000075	-0.229446
C50	C	0.845303	-0.000066	-0.183449
C51	C	0.851913	-0.000068	-0.101250
C52	C	0.885732	-0.000062	-0.474760
C53	C	0.879127	-0.000062	-0.556966
C54	C	1.021379	-0.000080	-0.566749
C55	C	1.027982	-0.000086	-0.484547
C56	C	0.960159	-0.000073	-0.438558
N57	N	0.906369	-0.000070	-0.313468
N58	N	0.966917	-0.000073	-0.354537
C59	C	0.939917	-0.000073	0.309559
C60	C	0.946945	-0.000069	0.397044
H61	H	0.539966	-0.000063	0.272133
H62	H	0.845596	-0.335951	0.256961
C63	C	0.831925	-0.186626	0.270655
C64	C	0.788000	-0.236590	0.314584
C65	C	0.737785	-0.198411	0.364830
H66	H	0.797314	-0.156731	0.240352
H67	H	0.862275	-0.156736	0.305257
H68	H	0.757652	-0.266467	0.279986
H69	H	0.822590	-0.266487	0.344903
H70	H	0.768135	-0.168522	0.399432
H71	H	0.703179	-0.168517	0.334521
H72	H	0.707981	-0.232306	0.394647
H73	H	0.830505	-0.000052	-0.437325
C74	C	1.041159	-0.346397	0.061319
C75	C	0.996216	-0.390400	0.010468
C76	C	1.046258	-0.428775	-0.039781
H77	H	1.075712	-0.376345	0.091627
H78	H	1.071031	-0.312625	0.031407
H79	H	0.966357	-0.424168	0.040377
H80	H	0.961664	-0.360470	-0.019857
H81	H	1.076129	-0.395003	-0.069693
H82	H	1.080809	-0.458719	-0.009466
H83	H	1.015771	-0.458630	-0.074293
C84	C	1.041167	-0.186666	0.061150
C85	C	1.023414	-0.205470	-0.016939
C86	C	1.073467	-0.167369	-0.067410
H87	H	1.094264	-0.199225	0.072881
H88	H	1.034053	-0.135498	0.068147
H89	H	1.030535	-0.256626	-0.023932
H90	H	0.970326	-0.192909	-0.028694
H91	H	1.066353	-0.116202	-0.060414
H92	H	1.126561	-0.179931	-0.055673
H93	H	1.061424	-0.180117	-0.120399
C94	C	1.108720	-0.000126	-0.445090
C95	C	1.099993	-0.000144	-0.363260
C96	C	1.174351	-0.000191	-0.326887
H97	H	1.136932	0.042323	-0.460476
H98	H	1.136866	-0.042605	-0.460532
H99	H	1.071859	0.042331	-0.347825
H100	H	1.071794	-0.042589	-0.347852
H101	H	1.202497	-0.042671	-0.342328
H102	H	1.202558	0.042258	-0.342278
H103	H	1.168440	-0.000210	-0.271361
H104	H	0.845641	-0.803263	0.256977
H105	H	1.027708	-0.664213	0.075033
C106	C	1.095077	0.000029	-0.616585
C107	C	1.139612	0.062660	-0.599516
C108	C	1.207516	0.062784	-0.645402
H109	H	1.080594	0.000070	-0.670745
H110	H	1.125422	-0.042412	-0.605117
H111	H	1.109273	0.105091	-0.610990
H112	H	1.154115	0.062632	-0.545364
H113	H	1.237861	0.020342	-0.633933
H114	H	1.193026	0.062823	-0.699559
H115	H	1.237745	0.105274	-0.633821
C116	C	1.041422	-0.813531	0.061396
C117	C	1.085381	-0.763565	0.017503
C118	C	1.135672	-0.801742	-0.032669
H119	H	1.011150	-0.843441	0.026763
H120	H	1.076004	-0.843405	0.091775
H121	H	1.050804	-0.733703	-0.012875
H122	H	1.115669	-0.733654	0.052115
H123	H	1.170253	-0.831616	-0.002289
H124	H	1.105393	-0.831651	-0.067297
H125	H	1.165509	-0.767846	-0.062451
H126	H	0.706842	-0.000076	0.026042
H127	H	0.315574	-0.000062	0.317942
C128	C	0.831982	-0.653940	0.270676
C129	C	0.788061	-0.703906	0.314606
C130	C	0.737845	-0.665728	0.364853
H131	H	0.797369	-0.624048	0.240372
H132	H	0.862332	-0.624049	0.305276
H133	H	0.757714	-0.733785	0.280010
H134	H	0.822654	-0.733800	0.344926
H135	H	0.768194	-0.635836	0.399454
H136	H	0.703237	-0.635837	0.334543
H137	H	0.708043	-0.699624	0.394671
H138	H	0.184203	-0.000104	0.047870
H139	H	1.054770	-0.000104	-0.081563
C140	C	0.798245	-0.000006	-0.596132
C141	C	0.740262	0.000028	-0.538263
C142	C	0.665749	0.000091	-0.574314
H143	H	0.792585	-0.042453	-0.627995
H144	H	0.792686	0.042474	-0.627969
H145	H	0.745817	-0.042447	-0.506439
H146	H	0.745895	0.042473	-0.506396
H147	H	0.660190	0.042571	-0.606151
H148	H	0.660097	-0.042358	-0.606177
H149	H	0.626398	0.000121	-0.535056
C150	C	0.764565	-0.000093	-0.222906
C151	C	0.773290	-0.000114	-0.304736
C152	C	0.698930	-0.000152	-0.341107
H153	H	0.736366	0.042359	-0.207510
H154	H	0.736408	-0.042568	-0.207472
H155	H	0.801435	0.042357	-0.320163
H156	H	0.801476	-0.042563	-0.320154
H157	H	0.670772	-0.042627	-0.325674
H158	H	0.670736	0.042301	-0.325706
H159	H	0.704839	-0.000173	-0.396633
C160	C	0.778188	-0.000097	-0.051450
C161	C	0.711592	-0.000107	-0.100751
C162	C	0.643661	-0.000139	-0.054904
H163	H	0.777709	0.042353	-0.019166
H164	H	0.777756	-0.042574	-0.019198
H165	H	0.712024	0.042366	-0.132988
H166	H	0.712045	-0.042554	-0.133035
H167	H	0.643229	-0.042617	-0.022653
H168	H	0.643189	0.042312	-0.022622
H169	H	0.598468	-0.000153	-0.088348
H170	H	0.689084	-0.000049	0.284124
H171	H	0.166444	-0.000081	0.305950
H172	H	0.557710	-0.000096	0.014056
C173	C	0.345675	-0.000064	0.041357
C174	C	0.296368	-0.000051	-0.025234
C175	C	0.342209	-0.000013	-0.093170
H176	H	0.377952	-0.042514	0.040864
H177	H	0.377932	0.042414	0.040933
H178	H	0.264124	-0.042525	-0.024811
H179	H	0.264090	0.042395	-0.024767
H180	H	0.374466	0.042465	-0.093594
H181	H	0.374484	-0.042463	-0.093655
H182	H	0.308761	0.000003	-0.138360
H183	H	1.042779	-0.000092	-0.230680
