data_functionalizedCrystal
_audit_creation_method	'MofGen! by Chris Wilmer'
_symmetry_space_group_name_H-M	'P1'
_symmetry_Int_Tables_number	1
_symmetry_cell_setting	triclinic
loop_
_symmetry_equiv_pos_as_xyz
  x,y,z
_cell_length_a	19.288864
_cell_length_b	15.538191
_cell_length_c	17.766277
_cell_angle_alpha	89.995273
_cell_angle_beta	89.976791
_cell_angle_gamma	65.204172
loop_
_atom_site_label
_atom_site_type_symbol
_atom_site_fract_x
_atom_site_fract_y
_atom_site_fract_z
O1	O	0.891966	0.117639	-0.062821
O2	O	0.685741	0.133508	-0.062767
O3	O	0.828996	-0.011726	-0.062808
O4	O	0.748710	0.262873	-0.062780
O5	O	0.828980	-0.011734	0.062381
O6	O	0.685724	0.133501	0.062421
O7	O	0.891949	0.117631	0.062368
Cu8	Cu	0.788835	0.125565	0.073825
Cu9	Cu	0.788855	0.125574	-0.074225
O10	O	0.748693	0.262866	0.062409
C11	C	0.659983	0.132994	-0.000166
C12	C	0.583263	0.131461	-0.000147
C13	C	0.517278	0.216678	-0.000150
C14	C	0.445191	0.215238	-0.000158
C15	C	0.439092	0.128576	-0.000179
C16	C	0.505089	0.043348	-0.000171
C17	C	0.577175	0.044790	-0.000155
C18	C	0.347855	0.060453	-0.044070
C19	C	0.275770	0.059014	-0.044091
C20	C	0.216759	0.124123	-0.000225
C21	C	0.229837	0.190688	0.043652
C22	C	0.301922	0.192130	0.043668
C23	C	0.360931	0.127002	-0.000196
C24	C	0.072607	0.207785	-0.000236
C25	C	0.000520	0.206341	-0.000240
C26	C	0.060421	0.034449	-0.000261
C27	C	0.132506	0.035895	-0.000249
C28	C	0.138594	0.122565	-0.000241
C29	C	0.837388	-0.046861	-0.000218
C30	C	0.862409	-0.151541	-0.000232
C31	C	0.613831	-0.438277	-0.000152
C32	C	0.637359	-0.536642	-0.000156
C33	C	0.769703	-0.559647	-0.000191
C34	C	0.746185	-0.461281	-0.000190
C35	C	0.668248	-0.400603	-0.000170
C36	C	0.800603	-0.423608	-0.000208
C37	C	0.777087	-0.325251	-0.000203
C38	C	0.699153	-0.264567	-0.000181
C39	C	0.644732	-0.302246	-0.000165
C40	C	0.878540	-0.484287	-0.000223
C41	C	0.932957	-0.446614	-0.000241
C42	C	0.909441	-0.348255	-0.000242
C43	C	0.831508	-0.287571	-0.000219
C44	C	0.963863	-0.310576	-0.000257
C45	C	0.940346	-0.212219	-0.000253
C46	C	0.807992	-0.189214	-0.000214
C47	C	0.917706	0.118146	-0.000235
C48	C	0.994427	0.119679	-0.000259
C49	C	0.740301	0.298001	-0.000183
C50	C	0.715280	0.402681	-0.000174
N51	N	0.788826	0.125559	0.177956
N52	N	0.788871	0.125573	-0.178355
C53	C	0.852267	0.061280	0.217325
C54	C	0.852272	0.061276	0.296126
C55	C	0.788839	0.125566	0.335556
C56	C	0.725387	0.189850	0.296178
C57	C	0.725381	0.189846	0.217378
C58	C	0.758075	0.211489	0.460404
C59	C	0.758086	0.211494	0.539203
C60	C	0.788854	0.125578	0.578603
C61	C	0.819627	0.039653	0.539193
C62	C	0.819621	0.039649	0.460393
C63	C	0.788838	0.125577	0.421002
C64	C	0.852305	0.061289	0.703417
C65	C	0.852305	0.061283	0.782221
C66	C	0.725422	0.189865	0.782271
C67	C	0.725420	0.189863	0.703469
C68	C	0.788865	0.125576	0.664047
H69	H	0.500120	-0.027213	-0.000198
H70	H	0.744528	-0.139806	-0.000203
H71	H	1.027319	-0.359994	-0.000266
C72	C	0.853479	-0.054863	0.582518
H73	H	0.871810	-0.106033	0.547762
H74	H	0.815084	-0.059965	0.613280
H75	H	0.894444	-0.056904	0.613235
C76	C	0.853457	-0.054858	0.417043
H77	H	0.871878	-0.106028	0.451787
H78	H	0.894340	-0.056851	0.386196
H79	H	0.815014	-0.060006	0.386411
C80	C	1.000200	-0.170769	-0.000274
H81	H	0.975031	-0.103501	-0.000262
H82	H	1.031251	-0.191612	-0.043939
H83	H	1.031238	-0.191614	0.043379
C84	C	0.205091	-0.057845	-0.000257
H85	H	0.191137	-0.109665	-0.000277
H86	H	0.234436	-0.060861	0.043403
H87	H	0.234476	-0.060849	-0.043915
C88	C	0.372598	0.308980	-0.000173
H89	H	0.386549	0.360803	-0.000172
H90	H	0.343201	0.311998	0.043472
H91	H	0.343267	0.311976	-0.043845
C92	C	0.523973	0.312011	-0.000127
H93	H	0.474346	0.362558	-0.000122
H94	H	0.550873	0.316156	-0.043773
H95	H	0.550821	0.316141	0.043545
H96	H	0.581268	-0.252838	-0.000154
C97	C	0.673279	-0.156375	-0.000175
H98	H	0.619070	-0.125635	-0.000154
H99	H	0.692404	-0.138368	-0.043836
H100	H	0.692392	-0.138372	0.043482
C101	C	0.528101	-0.371525	-0.000136
H102	H	0.499056	-0.408047	-0.000125
H103	H	0.516188	-0.332678	-0.043789
H104	H	0.516169	-0.332679	0.043528
H105	H	0.903926	0.008932	0.185230
H106	H	0.395899	0.007431	-0.079796
H107	H	0.630903	-0.024606	-0.000153
H108	H	0.903964	0.008940	0.671319
H109	H	0.833159	-0.609064	-0.000204
H110	H	0.897684	-0.564375	-0.000234
H111	H	0.903966	0.008935	0.814275
H112	H	0.077564	0.278357	-0.000218
H113	H	0.593040	-0.567310	-0.000131
H114	H	0.673772	0.242208	0.814374
C115	C	1.018682	-0.513363	-0.000267
H116	H	1.024895	-0.577338	-0.000272
H117	H	1.042018	-0.501970	0.043379
H118	H	1.042019	-0.501969	-0.043939
C119	C	0.922060	-0.009427	0.339445
H120	H	0.912974	-0.000219	0.392021
H121	H	0.965868	0.000659	0.326505
H122	H	0.930382	-0.072346	0.326538
C123	C	0.053721	-0.060878	-0.000287
H124	H	0.001339	-0.049533	-0.000303
H125	H	0.077818	-0.095962	0.043364
H126	H	0.077862	-0.095944	-0.043953
C127	C	0.261384	-0.014196	-0.092356
H128	H	0.209999	-0.005722	-0.086092
H129	H	0.294927	-0.076352	-0.076939
H130	H	0.270339	-0.005664	-0.143821
H131	H	0.673762	0.242208	0.671413
C132	C	0.724243	0.306006	0.582546
H133	H	0.705906	0.357173	0.547797
H134	H	0.762646	0.311106	0.613262
H135	H	0.683284	0.308052	0.613310
C136	C	0.724233	0.306003	0.417073
H137	H	0.705920	0.357175	0.451827
H138	H	0.683272	0.308057	0.386352
H139	H	0.762642	0.311090	0.386314
C140	C	0.655614	0.260569	0.339547
H141	H	0.664707	0.251373	0.392117
H142	H	0.611800	0.250489	0.326661
H143	H	0.647296	0.323483	0.326626
C144	C	0.655596	0.260562	0.174070
H145	H	0.617818	0.298855	0.208836
H146	H	0.635211	0.226740	0.143341
H147	H	0.670708	0.299734	0.143321
H148	H	0.181790	0.243706	0.079373
C149	C	-0.072065	0.300085	-0.000244
H150	H	-0.058111	0.351905	-0.000243
H151	H	-0.101455	0.303100	0.043407
H152	H	-0.101405	0.303090	-0.043910
C153	C	0.316313	0.265336	0.091932
H154	H	0.367695	0.256871	0.085653
H155	H	0.307361	0.256810	0.143395
H156	H	0.282768	0.327497	0.076513
