data_functionalizedCrystal
_audit_creation_method	'MofGen! by Chris Wilmer'
_symmetry_space_group_name_H-M	'P1'
_symmetry_Int_Tables_number	1
_symmetry_cell_setting	triclinic
loop_
_symmetry_equiv_pos_as_xyz
  x,y,z
_cell_length_a	27.731994
_cell_length_b	27.731996
_cell_length_c	22.010155
_cell_angle_alpha	89.998256
_cell_angle_beta	89.997700
_cell_angle_gamma	82.620961
loop_
_atom_site_label
_atom_site_type_symbol
_atom_site_fract_x
_atom_site_fract_y
_atom_site_fract_z
O1	O	0.640937	0.057387	-0.050446
O2	O	1.140937	0.557387	0.449554
O3	O	0.500138	0.066160	-0.050468
O4	O	1.000138	0.566160	0.449532
O5	O	0.574924	-0.008626	-0.050443
O6	O	1.074924	0.491374	0.449557
O7	O	0.566152	0.132173	-0.050471
O8	O	1.066152	0.632173	0.449529
O9	O	0.574910	-0.008615	0.050607
O10	O	1.074910	0.491385	0.550607
O11	O	0.500125	0.066171	0.050583
O12	O	1.000125	0.566171	0.550583
O13	O	0.640924	0.057398	0.050604
O14	O	1.140924	0.557398	0.550604
Cu15	Cu	0.570523	0.061786	0.059820
Cu16	Cu	1.070523	0.561786	0.559820
Cu17	Cu	0.570539	0.061773	-0.059684
Cu18	Cu	1.070539	0.561773	0.440316
O19	O	0.566138	0.132184	0.050580
O20	O	1.066138	0.632184	0.550580
C21	C	0.482124	0.065986	0.000055
C22	C	0.982124	0.565986	0.500055
C23	C	0.428468	0.065443	0.000048
C24	C	0.928468	0.565443	0.500048
C25	C	0.095743	0.062034	0.055154
C26	C	0.595743	0.562034	0.555154
C27	C	-0.105915	0.059972	0.055161
C28	C	0.394085	0.559972	0.555161
O29	O	-0.131994	0.059690	0.102007
O30	O	0.368006	0.559690	0.602007
N31	N	-0.131122	0.059710	0.000079
N32	N	0.368878	0.559710	0.500079
C33	C	-0.105912	0.059960	-0.055009
C34	C	0.394088	0.559960	0.444991
O35	O	-0.131979	0.059685	-0.101860
O36	O	0.368021	0.559685	0.398140
C37	C	0.095746	0.062018	-0.055016
C38	C	0.595746	0.562018	0.444984
C39	C	0.120950	0.062285	0.000070
C40	C	0.620950	0.562285	0.500070
C41	C	0.120947	0.062300	0.110236
C42	C	0.620947	0.562300	0.610236
C43	C	0.171358	0.062818	0.110233
C44	C	0.671358	0.562818	0.610233
C45	C	0.196565	0.063070	0.055149
C46	C	0.696565	0.563070	0.555149
C47	C	0.171361	0.062803	0.000068
C48	C	0.671361	0.562803	0.500068
C49	C	0.120956	0.062265	-0.110103
C50	C	0.620956	0.562265	0.389897
C51	C	0.171373	0.062778	-0.110100
C52	C	0.671373	0.562778	0.389900
C53	C	0.196577	0.063045	-0.055014
C54	C	0.696577	0.563045	0.444986
C55	C	0.246979	0.063573	-0.055018
C56	C	0.746979	0.563573	0.444982
N57	N	0.272186	0.063835	0.000064
N58	N	0.772186	0.563835	0.500064
C59	C	0.246979	0.063583	0.055148
C60	C	0.746979	0.563583	0.555148
C61	C	-0.211785	0.058880	-0.055002
C62	C	0.288215	0.558880	0.444998
C63	C	-0.262199	0.058367	-0.055000
C64	C	0.237801	0.558367	0.445000
C65	C	-0.262199	0.058378	0.055171
C66	C	0.237801	0.558378	0.555171
C67	C	-0.211784	0.058895	0.055168
C68	C	0.288216	0.558895	0.555168
C69	C	-0.186578	0.059142	0.000081
C70	C	0.313422	0.559142	0.500081
C71	C	0.352846	0.064672	0.055139
C72	C	0.852846	0.564672	0.555139
C73	C	0.403261	0.065192	0.055131
C74	C	0.903261	0.565192	0.555131
C75	C	0.403257	0.065178	-0.055039
C76	C	0.903257	0.565178	0.444961
C77	C	0.352845	0.064660	-0.055032
C78	C	0.852845	0.564660	0.444968
C79	C	0.327642	0.064406	0.000062
C80	C	0.827642	0.564406	0.500062
O81	O	0.273089	0.063850	-0.101839
O82	O	0.773089	0.563850	0.398161
O83	O	0.273056	0.063848	0.101992
O84	O	0.773056	0.563848	0.601992
C85	C	0.045332	0.061516	0.055157
C86	C	0.545332	0.561516	0.555157
C87	C	0.020127	0.061249	0.000075
C88	C	0.520127	0.561249	0.500075
C89	C	0.045334	0.061501	-0.055009
C90	C	0.545334	0.561501	0.444991
C91	C	-0.030287	0.060735	0.000076
C92	C	0.469713	0.560735	0.500076
C93	C	-0.055494	0.060484	0.055160
C94	C	0.444506	0.560484	0.555160
C95	C	-0.030286	0.060746	0.110243
C96	C	0.469714	0.560746	0.610243
C97	C	0.020125	0.061264	0.110240
C98	C	0.520125	0.561264	0.610240
C99	C	0.020127	0.061238	-0.110091
C100	C	0.520127	0.561238	0.389909
C101	C	-0.030284	0.060721	-0.110085
C102	C	0.469716	0.560721	0.389915
C103	C	-0.055491	0.060469	-0.055001
C104	C	0.444509	0.560469	0.444999
C105	C	0.574737	-0.026628	0.000084
C106	C	1.074737	0.473372	0.500084
C107	C	0.574194	-0.080284	0.000090
C108	C	1.074194	0.419716	0.500090
C109	C	0.570787	-0.413005	-0.055023
C110	C	1.070787	0.086995	0.444977
C111	C	0.568726	-0.614663	-0.055034
C112	C	1.068726	-0.114663	0.444966
O113	O	0.568445	-0.640739	-0.101880
O114	O	1.068445	-0.140739	0.398120
N115	N	0.568462	-0.639874	0.000048
N116	N	1.068462	-0.139874	0.500048
C117	C	0.568711	-0.614667	0.055137
C118	C	1.068711	-0.114667	0.555137
O119	O	0.568435	-0.640737	0.101987
O120	O	1.068435	-0.140737	0.601987
C121	C	0.570768	-0.413010	0.055147
C122	C	1.070768	0.086990	0.555147
C123	C	0.571037	-0.387802	0.000062
C124	C	1.071037	0.112198	0.500062
C125	C	0.571054	-0.387798	-0.110104
C126	C	1.071054	0.112202	0.389896
C127	C	0.571572	-0.337387	-0.110100
C128	C	1.071572	0.162613	0.389900
C129	C	0.571822	-0.312183	-0.055016
C130	C	1.071822	0.187817	0.444984
C131	C	0.571555	-0.337391	0.000065
C132	C	1.071555	0.162609	0.500065
C133	C	0.571014	-0.387803	0.110235
C134	C	1.071014	0.112197	0.610235
C135	C	0.571527	-0.337386	0.110233
C136	C	1.071527	0.162614	0.610233
C137	C	0.571795	-0.312178	0.055148
C138	C	1.071795	0.187822	0.555148
C139	C	0.572323	-0.261777	0.055153
C140	C	1.072323	0.238223	0.555153
N141	N	0.572586	-0.236566	0.000071
N142	N	1.072586	0.263434	0.500071
C143	C	0.572336	-0.261769	-0.055013
C144	C	1.072336	0.238231	0.444987
C145	C	0.567632	-0.720540	0.055128
C146	C	1.067632	-0.220540	0.555128
C147	C	0.567118	-0.770955	0.055125
C148	C	1.067118	-0.270955	0.555125
C149	C	0.567132	-0.770947	-0.055046
C150	C	1.067132	-0.270947	0.444954
C151	C	0.567649	-0.720532	-0.055042
C152	C	1.067649	-0.220532	0.444958
C153	C	0.567895	-0.695329	0.000046
C154	C	1.067895	-0.195329	0.500046
C155	C	0.573424	-0.155902	-0.055002
C156	C	1.073424	0.344098	0.444998
C157	C	0.573944	-0.105487	-0.054994
C158	C	1.073944	0.394513	0.445006
C159	C	0.573928	-0.105499	0.055176
C160	C	1.073928	0.394501	0.555176
C161	C	0.573410	-0.155910	0.055168
C162	C	1.073410	0.344090	0.555168
C163	C	0.573157	-0.181110	0.000074
C164	C	1.073157	0.318890	0.500074
O165	O	0.572599	-0.235669	0.101974
O166	O	1.072599	0.264331	0.601974
O167	O	0.572602	-0.235689	-0.101857
O168	O	1.072602	0.264311	0.398143
C169	C	0.570269	-0.463417	-0.055026
C170	C	1.070269	0.036583	0.444974
C171	C	0.570001	-0.488624	0.000055
C172	C	1.070001	0.011376	0.500055
C173	C	0.570251	-0.463421	0.055140
C174	C	1.070251	0.036579	0.555140
C175	C	0.569487	-0.539039	0.000053
C176	C	1.069487	-0.039039	0.500053
C177	C	0.569237	-0.564242	-0.055032
C178	C	1.069237	-0.064242	0.444968
C179	C	0.569501	-0.539031	-0.110114
C180	C	1.069501	-0.039031	0.389886
C181	C	0.570019	-0.488620	-0.110110
C182	C	1.070019	0.011380	0.389890
C183	C	0.569988	-0.488632	0.110222
C184	C	1.069988	0.011368	0.610222
C185	C	0.569470	-0.539043	0.110214
C186	C	1.069470	-0.039043	0.610214
C187	C	0.569220	-0.564247	0.055129
C188	C	1.069220	-0.064247	0.555129
C189	C	0.658938	0.057573	0.000080
C190	C	1.158938	0.557573	0.500080
C191	C	0.712594	0.058115	0.000084
C192	C	1.212594	0.558115	0.500084
C193	C	0.566325	0.150186	0.000051
C194	C	1.066325	0.650186	0.500051
C195	C	0.566868	0.203842	0.000041
C196	C	1.066868	0.703842	0.500041
N197	N	0.570515	0.061795	0.143873
N198	N	1.070515	0.561795	0.643873
N199	N	0.570551	0.061760	-0.143736
N200	N	1.070551	0.561760	0.356264
C201	C	0.603656	0.028662	0.563663
C202	C	1.103656	0.528662	1.063663
C203	C	0.603658	0.028659	0.627270
C204	C	1.103658	0.528659	1.127270
O205	O	0.631816	0.000494	0.660171
O206	O	1.131816	0.500494	1.160171
N207	N	0.570539	0.061762	0.659080
N208	N	1.070539	0.561762	1.159080
C209	C	0.537412	0.094868	0.627278
C210	C	1.037412	0.594868	1.127278
O211	O	0.509241	0.123025	0.660175
O212	O	1.009241	0.623025	1.160175
C213	C	0.537408	0.094869	0.563672
C214	C	1.037408	0.594869	1.063672
C215	C	0.570532	0.061766	0.531866
C216	C	1.070532	0.561766	1.031866
C217	C	0.636778	-0.004438	0.531857
C218	C	1.136778	0.495562	1.031857
C219	C	0.636776	-0.004434	0.468254
C220	C	1.136776	0.495566	0.968254
C221	C	0.603652	0.028670	0.436456
C222	C	1.103652	0.528670	0.936456
C223	C	0.570531	0.061770	0.468262
C224	C	1.070531	0.561770	0.968262
C225	C	0.504279	0.127972	0.531871
C226	C	1.004279	0.627972	1.031871
C227	C	0.504277	0.127970	0.468260
C228	C	1.004277	0.627970	0.968260
C229	C	0.537402	0.094867	0.436454
C230	C	1.037402	0.594867	0.936454
C231	C	0.537405	0.094879	0.372862
C232	C	1.037405	0.594879	0.872862
N233	N	0.570525	0.061775	0.341053
N234	N	1.070525	0.561775	0.841053
C235	C	0.603648	0.028671	0.372850
C236	C	1.103648	0.528671	0.872850
C237	C	0.537422	0.094864	0.760856
C238	C	1.037422	0.594864	1.260856
C239	C	0.537429	0.094866	0.824461
C240	C	1.037429	0.594866	1.324461
C241	C	0.603674	0.028655	0.824449
C242	C	1.103674	0.528655	1.324449
C243	C	0.603670	0.028656	0.760843
C244	C	1.103670	0.528656	1.260843
C245	C	0.570542	0.061760	0.729047
C246	C	1.070542	0.561760	1.229047
C247	C	0.603642	0.028682	0.239279
C248	C	1.103642	0.528682	0.739279
C249	C	0.603639	0.028690	0.175670
C250	C	1.103639	0.528690	0.675670
C251	C	0.537391	0.094899	0.175687
C252	C	1.037391	0.594899	0.675687
C253	C	0.537396	0.094893	0.239291
C254	C	1.037396	0.594893	0.739291
C255	C	0.570523	0.061780	0.271085
C256	C	1.070523	0.561780	0.771085
O257	O	0.509260	0.123028	0.339921
O258	O	1.009260	0.623028	0.839921
O259	O	0.631810	0.000514	0.339945
O260	O	1.131810	0.500514	0.839945
H261	H	0.100443	0.062047	-0.154960
H262	H	0.600443	0.562047	0.345040
H263	H	0.630643	0.001701	0.734950
H264	H	1.130643	0.501701	1.234950
Br265	Br	-0.177584	0.059257	0.129930
Br266	Br	0.322416	0.559257	0.629930
H267	H	0.423789	0.065385	-0.099887
H268	H	0.923789	0.565385	0.400113
H269	H	0.574163	-0.084965	-0.099853
H270	H	1.074163	0.415035	0.400147
H271	H	0.332322	0.064451	-0.099888
H272	H	0.832322	0.564451	0.400112
Br273	Br	0.459321	0.172899	0.575023
Br274	Br	0.959321	0.672899	1.075023
Br275	Br	-0.296418	0.058036	0.129927
Br276	Br	0.203582	0.558036	0.629927
Br277	Br	0.205556	0.063178	0.184997
Br278	Br	0.705556	0.563178	0.684997
Br279	Br	0.648628	-0.016272	0.867616
Br280	Br	1.148628	0.483728	1.367616
Br281	Br	0.437463	0.065557	0.129896
Br282	Br	0.937463	0.565557	0.629896
Br283	Br	0.492480	0.139800	0.867619
Br284	Br	0.992480	0.639800	1.367619
Br285	Br	0.569165	-0.573246	-0.184870
Br286	Br	1.069165	-0.073246	0.315130
H287	H	0.191894	0.062980	-0.154960
H288	H	0.691894	0.562980	0.345040
H289	H	0.571720	-0.316867	0.155094
H290	H	1.071720	0.183133	0.655094
H291	H	0.566929	-0.791476	-0.099897
H292	H	1.066929	-0.291476	0.400103
H293	H	0.040642	0.061481	0.155097
H294	H	0.540642	0.561481	0.655097
Br295	Br	-0.064506	0.060408	0.184999
Br296	Br	0.435494	0.560408	0.684999
Br297	Br	0.574268	-0.071285	0.129930
Br298	Br	1.074268	0.428715	0.629930
H299	H	0.510428	0.121852	0.265188
H300	H	1.010428	0.621852	0.765188
Br301	Br	0.573057	-0.190123	0.129928
Br302	Br	1.073057	0.309877	0.629928
H303	H	0.630615	0.001734	0.149775
H304	H	1.130615	0.501734	0.649775
Br305	Br	0.054328	0.061578	-0.184856
Br306	Br	0.554328	0.561578	0.315144
H307	H	0.663751	-0.031398	0.557740
H308	H	1.163751	0.468602	1.057740
H309	H	0.570237	-0.468100	-0.154967
H310	H	1.070237	0.031900	0.345033
Br311	Br	0.573080	-0.190095	-0.129774
Br312	Br	1.073080	0.309905	0.370226
H313	H	-0.191266	0.059081	-0.099863
H314	H	0.308734	0.559081	0.400137
H315	H	0.571789	-0.316867	-0.154957
H316	H	1.071789	0.183133	0.345043
Br317	Br	-0.064484	0.060363	-0.184852
Br318	Br	0.435516	0.560363	0.315148
H319	H	-0.282717	0.058157	-0.099857
H320	H	0.217283	0.558157	0.400143
Br321	Br	0.567961	-0.686343	0.129898
Br322	Br	1.067961	-0.186343	0.629898
H323	H	0.570849	-0.408313	-0.154962
H324	H	1.070849	0.091687	0.345038
Br325	Br	0.568013	-0.686327	-0.129804
Br326	Br	1.068013	-0.186327	0.370196
H327	H	0.510424	0.121854	0.149788
H328	H	1.010424	0.621854	0.649788
Br329	Br	0.569110	-0.573248	0.184980
Br330	Br	1.069110	-0.073248	0.684980
H331	H	0.566907	-0.791476	0.099982
H332	H	1.066907	-0.291476	0.599982
Br333	Br	0.570322	-0.454435	0.184987
Br334	Br	1.070322	0.045565	0.684987
Br335	Br	0.492461	0.139798	0.717710
Br336	Br	0.992461	0.639798	1.217710
Br337	Br	0.648601	-0.016257	0.282417
Br338	Br	1.148601	0.483743	0.782417
H339	H	0.570796	-0.408319	0.155092
H340	H	1.070796	0.091681	0.655092
H341	H	0.477298	0.154927	0.442375
H342	H	0.977298	0.654927	0.942375
H343	H	0.663747	-0.031391	0.442361
H344	H	1.163747	0.468609	0.942361
H345	H	0.100429	0.062094	0.155094
H346	H	0.600429	0.562094	0.655094
Br347	Br	0.318649	0.064324	0.129909
Br348	Br	0.818649	0.564324	0.629909
