data_functionalizedCrystal
_audit_creation_method	'MofGen! by Chris Wilmer'
_symmetry_space_group_name_H-M	'P1'
_symmetry_Int_Tables_number	1
_symmetry_cell_setting	triclinic
loop_
_symmetry_equiv_pos_as_xyz
  x,y,z
_cell_length_a	15.298114
_cell_length_b	15.297327
_cell_length_c	15.296720
_cell_angle_alpha	72.680778
_cell_angle_beta	69.221067
_cell_angle_gamma	88.422361
loop_
_atom_site_label
_atom_site_type_symbol
_atom_site_fract_x
_atom_site_fract_y
_atom_site_fract_z
Zn1	Zn	1.197182	-0.637548	0.412745
Zn2	Zn	1.197080	-0.766155	0.284154
Zn3	Zn	1.077899	-0.593108	0.274907
Zn4	Zn	1.014723	-0.766139	0.466573
O5	O	1.121721	-0.690737	0.359594
O6	O	1.323406	-0.673213	0.377030
O7	O	1.207666	-0.724608	0.148899
O8	O	1.120204	-0.472766	0.266794
O9	O	1.323331	-0.767700	0.282554
O10	O	1.207841	-0.505416	0.368063
O11	O	1.120104	-0.597471	0.142105
O12	O	0.943281	-0.597456	0.318989
O13	O	1.012531	-0.767673	0.593461
O14	O	0.896866	-0.724581	0.459805
O15	O	1.146582	-0.673198	0.553913
O16	O	1.146408	-0.892389	0.334749
O17	O	1.012431	-0.892378	0.468772
C18	C	0.887341	-0.656195	0.394235
C19	C	0.787064	-0.641443	0.409082
C20	C	0.504390	-0.796215	0.253720
C21	C	0.598608	-0.810073	0.239763
C22	C	0.645726	-0.767917	0.282092
C23	C	0.598618	-0.711899	0.338379
C24	C	0.504394	-0.698034	0.352331
C25	C	0.645730	-0.669736	0.380703
C26	C	0.598622	-0.613718	0.436990
C27	C	0.504406	-0.599856	0.450940
C28	C	0.457288	-0.642012	0.408611
C29	C	0.739954	-0.683602	0.366751
C30	C	0.739958	-0.585421	0.465362
C31	C	0.645740	-0.571562	0.479319
C32	C	1.072573	-0.925122	0.408622
C33	C	1.051624	-1.025409	0.429616
C34	C	1.271756	-1.308052	0.209818
C35	C	1.291440	-1.213827	0.190088
C36	C	1.231488	-1.166718	0.249969
C37	C	1.151849	-1.213843	0.329582
C38	C	1.132159	-1.308077	0.349309
C39	C	1.091891	-1.166742	0.389460
C40	C	1.012251	-1.213868	0.469073
C41	C	0.992566	-1.308092	0.488797
C42	C	1.052518	-1.355201	0.428917
C43	C	1.111580	-1.072509	0.369733
C44	C	0.971983	-1.072533	0.509224
C45	C	0.952299	-1.166758	0.528954
C46	C	1.357016	-0.725415	0.324819
C47	C	1.457284	-0.740193	0.310000
C48	C	1.072521	-0.725391	0.609411
C49	C	1.051555	-0.740158	0.715868
C50	C	1.171081	-0.455444	0.310393
C51	C	1.192115	-0.355177	0.289426
C52	C	1.170795	-0.656161	0.110729
C53	C	1.191989	-0.641165	0.004193
C54	C	1.271636	-0.585040	0.933592
C55	C	1.291340	-0.571168	0.833570
C56	C	1.231395	-0.613414	0.804139
C57	C	1.151743	-0.669535	0.874741
C58	C	1.132041	-0.683415	0.974773
C59	C	1.091801	-0.711788	0.845320
C60	C	1.012149	-0.767910	0.915922
C61	C	0.992450	-0.781786	1.015944
C62	C	1.052395	-0.739540	1.045374
C63	C	1.111503	-0.697909	0.745288
C64	C	0.971908	-0.796284	0.786469
C65	C	0.952204	-0.810156	0.886491
H66	H	0.636957	-0.855681	0.193932
C67	C	0.864692	-1.218607	0.616520
N68	N	0.798705	-1.257659	0.682473
C69	C	1.199114	-0.636170	0.667637
N70	N	1.265105	-0.589661	0.609150
H71	H	1.356281	-1.175460	0.125267
H72	H	1.036498	-1.431928	0.444979
H73	H	1.320438	-0.550655	0.957566
C74	C	0.904954	-1.359925	0.576367
N75	N	0.838964	-1.398964	0.642325
C76	C	0.906032	-1.020717	0.575098
N77	N	0.856362	-0.981684	0.624710
C78	C	0.452555	-0.842575	0.207160
N79	N	0.413513	-0.877495	0.172087
H80	H	1.247443	-0.602116	0.722696
H81	H	1.320556	-1.346416	0.161067
H82	H	0.927598	-0.827493	1.073427
C83	C	0.864588	-0.871887	0.964165
N84	N	0.798594	-0.918381	1.022669
H85	H	0.778300	-0.729212	0.320922
C86	C	0.593915	-0.509928	0.541216
N87	N	0.554881	-0.463500	0.587832
C88	C	0.749366	-0.783170	0.266744
N89	N	0.827430	-0.794665	0.255185
H90	H	1.356194	-0.525476	0.776093
H91	H	0.778322	-0.551091	0.499827
H92	H	1.036356	-0.750832	1.126819
H93	H	0.923098	-0.830686	0.762509
C94	C	1.199183	-1.020682	0.282161
N95	N	1.265171	-0.981647	0.216197
H96	H	0.380567	-0.630734	0.419975
H97	H	0.466056	-0.554235	0.496765
H98	H	1.247518	-1.089995	0.233899
