data_functionalizedCrystal
_audit_creation_method	'MofGen! by Chris Wilmer'
_symmetry_space_group_name_H-M	'P1'
_symmetry_Int_Tables_number	1
_symmetry_cell_setting	triclinic
loop_
_symmetry_equiv_pos_as_xyz
  x,y,z
_cell_length_a	16.109304
_cell_length_b	14.519731
_cell_length_c	15.186229
_cell_angle_alpha	89.996550
_cell_angle_beta	89.999066
_cell_angle_gamma	83.575745
loop_
_atom_site_label
_atom_site_type_symbol
_atom_site_fract_x
_atom_site_fract_y
_atom_site_fract_z
O1	O	0.109069	1.223623	-0.073225
O2	O	0.609069	1.723623	0.426775
O3	O	0.121885	0.955122	-0.073225
O4	O	0.621885	1.455122	0.426775
O5	O	-0.005541	1.096747	-0.073226
O6	O	0.494459	1.596747	0.426774
O7	O	0.236494	1.081998	-0.073225
O8	O	0.736494	1.581998	0.426775
O9	O	-0.005543	1.096737	0.073232
O10	O	0.494457	1.596737	0.573232
O11	O	0.121883	0.955112	0.073232
O12	O	0.621883	1.455112	0.573232
O13	O	0.109067	1.223613	0.073232
O14	O	0.609067	1.723613	0.573232
Zn15	Zn	0.115474	1.089361	0.096485
Zn16	Zn	0.615474	1.589361	0.596485
Zn17	Zn	0.115477	1.089374	-0.096478
Zn18	Zn	0.615477	1.589374	0.403522
O19	O	0.236492	1.081988	0.073233
O20	O	0.736492	1.581988	0.573233
C21	C	0.121283	0.920759	0.000003
C22	C	0.621283	1.420759	0.500003
C23	C	0.119484	0.818382	0.000002
C24	C	0.619484	1.318382	0.500002
C25	C	-0.036518	1.096144	0.000001
C26	C	0.463482	1.596144	0.500001
C27	C	-0.128816	1.094352	-0.000005
C28	C	0.371184	1.594352	0.499995
C29	C	0.118022	0.735241	-0.000001
C30	C	0.618022	1.235241	0.499999
C31	C	0.116194	0.630936	-0.000001
C32	C	0.616194	1.130936	0.499999
C33	C	0.114744	0.547800	-0.000001
C34	C	0.614744	1.047800	0.499999
C35	C	0.112918	0.443489	-0.000003
C36	C	0.612918	0.943489	0.499997
C37	C	-0.341160	1.090215	-0.079836
C38	C	0.158840	1.590215	0.420164
C39	C	-0.427883	1.088523	-0.079835
C40	C	0.072117	1.588523	0.420165
C41	C	-0.427882	1.088517	0.079841
C42	C	0.072118	1.588517	0.579841
C43	C	-0.341160	1.090203	0.079839
C44	C	0.158840	1.590203	0.579839
C45	C	-0.297802	1.091057	-0.000002
C46	C	0.202198	1.591057	0.499998
C47	C	-0.471247	1.087678	0.000001
C48	C	0.028753	1.587678	0.500001
C49	C	-0.565276	1.085843	0.000002
C50	C	-0.065276	1.585843	0.500002
C51	C	-0.203766	1.092891	-0.000003
C52	C	0.296234	1.592891	0.499997
C53	C	0.267469	1.082591	0.000004
C54	C	0.767469	1.582591	0.500004
C55	C	0.359768	1.084383	0.000004
C56	C	0.859768	1.584383	0.500004
C57	C	0.109668	1.257976	0.000002
C58	C	0.609668	1.757976	0.500002
C59	C	0.111468	1.360353	-0.000003
C60	C	0.611468	1.860353	0.499997
N61	N	0.115472	1.089360	0.228178
N62	N	0.615472	1.589360	0.728178
N63	N	0.115472	1.089383	-0.228171
N64	N	0.615472	1.589383	0.271829
C65	C	0.059067	1.152093	0.453901
C66	C	0.559067	1.652093	0.953901
C67	C	0.059065	1.152095	0.546091
C68	C	0.559065	1.652095	1.046091
C69	C	0.171880	1.026643	0.546100
C70	C	0.671880	1.526643	1.046100
C71	C	0.171877	1.026636	0.453912
C72	C	0.671877	1.526636	0.953912
C73	C	0.115472	1.089366	0.407815
C74	C	0.615472	1.589366	0.907815
C75	C	0.115473	1.089376	0.592192
C76	C	0.615473	1.589376	1.092192
C77	C	0.115471	1.089379	0.692148
C78	C	0.615471	1.589379	1.192148
C79	C	0.115472	1.089363	0.307852
C80	C	0.615472	1.589363	0.807852
H81	H	-0.305860	1.090908	-0.144847
H82	H	0.194140	1.590908	0.355153
H83	H	-0.463182	1.087835	-0.144844
H84	H	0.036818	1.587835	0.355156
H85	H	0.217805	0.975571	0.583641
H86	H	0.717805	1.475571	1.083641
C87	C	-0.234411	1.012863	0.172473
C88	C	0.265589	1.512863	0.672473
C89	C	-0.293494	1.091127	0.167600
C90	C	0.206506	1.591127	0.667600
H91	H	-0.204988	1.013429	0.226653
H92	H	0.295012	1.513429	0.726653
H93	H	-0.196182	1.013615	0.124930
H94	H	0.303818	1.513615	0.624930
H95	H	-0.261997	0.958466	0.169157
H96	H	0.238003	1.458466	0.669157
H97	H	-0.265907	1.145524	0.170910
H98	H	0.234093	1.645524	0.670910
H99	H	-0.331728	1.090383	0.215157
H100	H	0.168272	1.590383	0.715157
H101	H	-0.463195	1.087824	0.144845
H102	H	0.036805	1.587824	0.644845
H103	H	0.217809	0.975553	0.416386
H104	H	0.717809	1.475553	0.916386
H105	H	0.013138	1.203170	0.416371
H106	H	0.513138	1.703170	0.916371
H107	H	0.013135	1.203172	0.583611
H108	H	0.513135	1.703172	1.083611
