data_functionalizedCrystal
_audit_creation_method	'MofGen! by Chris Wilmer'
_symmetry_space_group_name_H-M	'P1'
_symmetry_Int_Tables_number	1
_symmetry_cell_setting	triclinic
loop_
_symmetry_equiv_pos_as_xyz
  x,y,z
_cell_length_a	19.805407
_cell_length_b	21.295417
_cell_length_c	19.805399
_cell_angle_alpha	89.967749
_cell_angle_beta	89.983114
_cell_angle_gamma	90.030507
loop_
_atom_site_label
_atom_site_type_symbol
_atom_site_fract_x
_atom_site_fract_y
_atom_site_fract_z
Zn1	Zn	1.034698	-0.250615	-0.382704
Zn2	Zn	1.368032	0.082718	-0.049371
Zn3	Zn	1.701365	0.416052	0.283962
Zn4	Zn	1.034611	-0.355886	-0.269510
Zn5	Zn	1.367944	-0.022553	0.063824
Zn6	Zn	1.701277	0.310780	0.397157
Zn7	Zn	0.921518	-0.250635	-0.269529
Zn8	Zn	1.254852	0.082698	0.063804
Zn9	Zn	1.588185	0.416032	0.397138
Zn10	Zn	0.921469	-0.355850	-0.382656
Zn11	Zn	1.254802	-0.022517	-0.049323
Zn12	Zn	1.588135	0.310816	0.284010
O13	O	0.978074	-0.303247	-0.326100
O14	O	1.311407	0.030087	0.007234
O15	O	1.644741	0.363420	0.340567
O16	O	1.129403	-0.264586	-0.367701
O17	O	1.462737	0.068747	-0.034367
O18	O	1.796070	0.402080	0.298966
O19	O	1.019593	-0.341948	-0.174796
O20	O	1.352926	-0.008615	0.158538
O21	O	1.686259	0.324719	0.491871
O22	O	0.936590	-0.162543	-0.284570
O23	O	1.269923	0.170790	0.048763
O24	O	1.603256	0.504124	0.382097
O25	O	1.129339	-0.341929	-0.284537
O26	O	1.462672	-0.008595	0.048796
O27	O	1.796005	0.324738	0.382130
O28	O	1.019743	-0.162528	-0.367719
O29	O	1.353076	0.170805	-0.034386
O30	O	1.686409	0.504138	0.298947
O31	O	0.936504	-0.264620	-0.174810
O32	O	1.269838	0.068713	0.158524
O33	O	1.603171	0.402046	0.491857
O34	O	0.826795	-0.264585	-0.284523
O35	O	1.160129	0.068748	0.048810
O36	O	1.493462	0.402081	0.382143
O37	O	0.936505	-0.341867	-0.477379
O38	O	1.269838	-0.008534	-0.144046
O39	O	1.603171	0.324799	0.189287
O40	O	0.826759	-0.341887	-0.367638
O41	O	1.160092	-0.008553	-0.034304
O42	O	1.493425	0.324780	0.299029
O43	O	1.019694	-0.264551	-0.477415
O44	O	1.353028	0.068782	-0.144081
O45	O	1.686361	0.402115	0.189252
O46	O	1.019544	-0.443971	-0.284491
O47	O	1.352878	-0.110638	0.048843
O48	O	1.686211	0.222696	0.382176
O49	O	0.936419	-0.443945	-0.367619
O50	O	1.269753	-0.110611	-0.034286
O51	O	1.603086	0.222722	0.299048
C52	C	0.802218	-0.303235	-0.326078
C53	C	1.135551	0.030099	0.007255
C54	C	1.468885	0.363432	0.340589
C55	C	0.726986	-0.303245	-0.326085
C56	C	1.060319	0.030089	0.007249
C57	C	1.393653	0.363422	0.340582
C58	C	0.691640	-0.343556	-0.369292
C59	C	1.024974	-0.010223	-0.035959
C60	C	1.358307	0.323111	0.297375
C61	C	0.620952	-0.343557	-0.369302
C62	C	0.954285	-0.010224	-0.035968
C63	C	1.287619	0.323110	0.297365
C64	C	0.585610	-0.303250	-0.326100
C65	C	0.918944	0.030084	0.007234
C66	C	1.252277	0.363417	0.340567
C67	C	0.620961	-0.262934	-0.282890
C68	C	0.954294	0.070400	0.050443
C69	C	1.287628	0.403733	0.383776
C70	C	0.691648	-0.262930	-0.282885
C71	C	1.024981	0.070403	0.050449
C72	C	1.358315	0.403737	0.383782
C73	C	0.335888	-0.262948	-0.282913
C74	C	0.669221	0.070386	0.050421
C75	C	1.002554	0.403719	0.383754
C76	C	0.265195	-0.262956	-0.282920
C77	C	0.598529	0.070377	0.050413
C78	C	0.931862	0.403711	0.383746
C79	C	0.265192	-0.343575	-0.369330
C80	C	0.598525	-0.010242	-0.035996
C81	C	0.931858	0.323092	0.297337
C82	C	0.335879	-0.343571	-0.369324
C83	C	0.669212	-0.010238	-0.035991
C84	C	1.002545	0.323096	0.297343
C85	C	0.371223	-0.303253	-0.326117
C86	C	0.704556	0.030080	0.007216
C87	C	1.037890	0.363413	0.340549
C88	C	0.447871	-0.303252	-0.326109
C89	C	0.781205	0.030082	0.007225
C90	C	1.114538	0.363415	0.340558
C91	C	0.508963	-0.303254	-0.326105
C92	C	0.842297	0.030079	0.007229
C93	C	1.175630	0.363413	0.340562
C94	C	0.977985	-0.466798	-0.326062
C95	C	1.311319	-0.133465	0.007271
C96	C	1.644652	0.199868	0.340604
C97	C	0.978009	-0.536766	-0.326069
C98	C	1.311343	-0.203433	0.007264
C99	C	1.644676	0.129900	0.340598
C100	C	1.021331	-0.569626	-0.282828
C101	C	1.354664	-0.236293	0.050505
C102	C	1.687997	0.097041	0.383838
C103	C	1.021363	-0.635368	-0.282844
C104	C	1.354696	-0.302035	0.050490
C105	C	1.688029	0.031298	0.383823
C106	C	0.978061	-0.668249	-0.326092
C107	C	1.311394	-0.334916	0.007241
C108	C	1.644727	-0.001582	0.340574
C109	C	0.934736	-0.635381	-0.369341
C110	C	1.268069	-0.302048	-0.036008
C111	C	1.601403	0.031285	0.297325
C112	C	0.934710	-0.569640	-0.369330
C113	C	1.268044	-0.236307	-0.035996
C114	C	1.601377	0.097026	0.297337
N115	N	0.918850	-0.771515	-0.331245
N116	N	1.252183	-0.438181	0.002089
N117	N	1.585517	-0.104848	0.335422
N118	N	0.918876	-0.833966	-0.331252
N119	N	1.252210	-0.500633	0.002081
N120	N	1.585543	-0.167299	0.335415
C121	C	0.978136	-0.866324	-0.326131
C122	C	1.311470	-0.532990	0.007202
C123	C	1.644803	-0.199657	0.340536
N124	N	1.037371	-0.833870	-0.320989
N125	N	1.370704	-0.500537	0.012344
N126	N	1.704037	-0.167204	0.345677
N127	N	1.037343	-0.771413	-0.320979
N128	N	1.370677	-0.438080	0.012354
N129	N	1.704010	-0.104747	0.345688
C130	C	0.978084	-0.739534	-0.326110
C131	C	1.311417	-0.406201	0.007223
C132	C	1.644751	-0.072868	0.340557
C133	C	1.021496	-0.970469	-0.282905
C134	C	1.354829	-0.637135	0.050429
C135	C	1.688163	-0.303802	0.383762
C136	C	1.021529	-1.036212	-0.282925
C137	C	1.354862	-0.702879	0.050409
C138	C	1.688196	-0.369546	0.383742
C139	C	0.934896	-1.036224	-0.369419
C140	C	1.268230	-0.702891	-0.036085
C141	C	1.601563	-0.369557	0.297248
C142	C	0.934869	-0.970482	-0.369402
C143	C	1.268203	-0.637148	-0.036069
C144	C	1.601536	-0.303815	0.297264
C145	C	0.978168	-0.937608	-0.326142
C146	C	1.311502	-0.604275	0.007192
C147	C	1.644835	-0.270941	0.340525
C148	C	1.154617	-0.303259	-0.326122
C149	C	1.487950	0.030074	0.007211
C150	C	1.821283	0.363407	0.340545
C151	C	1.229849	-0.303265	-0.326132
C152	C	1.563182	0.030069	0.007202
C153	C	1.896515	0.363402	0.340535
C154	C	0.978104	-0.303203	-0.502643
C155	C	1.311437	0.030130	-0.169309
C156	C	1.644770	0.363464	0.164024
C157	C	0.978116	-0.303184	-0.577875
C158	C	1.311450	0.030149	-0.244541
C159	C	1.644783	0.363482	0.088792
C160	C	0.978181	-0.139056	-0.326152
C161	C	1.311515	0.194277	0.007181
C162	C	1.644848	0.527610	0.340514
C163	C	0.978227	-0.069088	-0.326175
C164	C	1.311561	0.264245	0.007159
C165	C	1.644894	0.597578	0.340492
C166	C	0.934865	-0.262916	-0.613226
C167	C	1.268198	0.070417	-0.279892
C168	C	1.601531	0.403751	0.053441
C169	C	0.934874	-0.262904	-0.683914
C170	C	1.268207	0.070430	-0.350581
C171	C	1.601541	0.403763	-0.017247
C172	C	0.978139	-0.303157	-0.719250
C173	C	1.311472	0.030176	-0.385917
C174	C	1.644806	0.363509	-0.052584
C175	C	1.021393	-0.343430	-0.683894
C176	C	1.354726	-0.010097	-0.350561
C177	C	1.688059	0.323237	-0.017228
C178	C	1.021379	-0.343445	-0.613207
C179	C	1.354713	-0.010112	-0.279874
C180	C	1.688046	0.323222	0.053460
C181	C	1.021446	-0.343371	-0.968968
C182	C	1.354780	-0.010038	-0.635634
C183	C	1.688113	0.323296	-0.302301
C184	C	1.021458	-0.343352	-1.039660
C185	C	1.354791	-0.010018	-0.706327
C186	C	1.688124	0.323315	-0.372993
C187	C	0.934941	-0.262830	-1.039675
C188	C	1.268274	0.070503	-0.706341
C189	C	1.601607	0.403837	-0.373008
C190	C	0.934928	-0.262845	-0.968988
C191	C	1.268261	0.070488	-0.635654
C192	C	1.601594	0.403822	-0.302321
C193	C	0.978178	-0.303120	-0.933638
C194	C	1.311512	0.030214	-0.600304
C195	C	1.644845	0.363547	-0.266971
C196	C	0.978167	-0.303133	-0.856989
C197	C	1.311500	0.030200	-0.523656
C198	C	1.644834	0.363533	-0.190323
C199	C	0.978154	-0.303141	-0.795897
C200	C	1.311488	0.030192	-0.462564
C201	C	1.644821	0.363526	-0.129231
C202	C	0.978083	-0.303245	-0.150244
C203	C	1.311417	0.030089	0.183090
C204	C	1.644750	0.363422	0.516423
C205	C	0.978202	-0.303086	-0.075012
C206	C	1.311535	0.030247	0.258321
C207	C	1.644869	0.363581	0.591654
H208	H	0.364656	-0.230123	-0.247726
H209	H	0.697990	0.103210	0.085607
H210	H	1.031323	0.436543	0.418941
C211	C	0.684556	-0.183249	-0.197460
C212	C	1.017890	0.150085	0.135873
C213	C	1.351223	0.483418	0.469206
C214	C	0.730503	-0.218624	-0.235383
C215	C	1.063836	0.114709	0.097950
C216	C	1.397169	0.448043	0.431283
H217	H	0.708545	-0.155898	-0.168132
H218	H	1.041878	0.177435	0.165201
H219	H	1.375211	0.510768	0.498534
H220	H	0.657012	-0.159205	-0.226999
H221	H	0.990346	0.174128	0.106334
H222	H	1.323679	0.507461	0.439668
H223	H	0.656960	-0.210654	-0.171522
H224	H	0.990293	0.122680	0.161812
H225	H	1.323626	0.456013	0.495145
H226	H	0.758096	-0.191219	-0.261326
H227	H	1.091430	0.142114	0.072007
H228	H	1.424763	0.475448	0.405341
H229	H	0.758058	-0.242669	-0.205841
H230	H	1.091392	0.090664	0.127492
H231	H	1.424725	0.423997	0.460826
H232	H	1.056616	-0.376208	-0.712671
H233	H	1.389950	-0.042875	-0.379337
H234	H	1.723283	0.290458	-0.046004
H235	H	1.056811	-1.062965	-0.247714
H236	H	1.390144	-0.729632	0.085619
H237	H	1.723477	-0.396299	0.418952
C238	C	0.185734	-0.352435	-0.460374
C239	C	0.519068	-0.019102	-0.127041
C240	C	0.852401	0.314231	0.206292
C241	C	0.226338	-0.387887	-0.416832
C242	C	0.559672	-0.054554	-0.083499
C243	C	0.893005	0.278780	0.249834
H244	H	0.161753	-0.379792	-0.489701
H245	H	0.495086	-0.046459	-0.156367
H246	H	0.828420	0.286874	0.176966
H247	H	0.154573	-0.328436	-0.434647
H248	H	0.487907	0.004897	-0.101314
H249	H	0.821240	0.338231	0.232020
H250	H	0.213344	-0.325041	-0.486314
H251	H	0.546677	0.008292	-0.152980
H252	H	0.880010	0.341625	0.180353
H253	H	0.198729	-0.415278	-0.390890
H254	H	0.532062	-0.081944	-0.057556
H255	H	0.865395	0.251389	0.275777
H256	H	0.257503	-0.411897	-0.442563
H257	H	0.590836	-0.078564	-0.109229
H258	H	0.924170	0.254770	0.224104
H259	H	0.899590	-0.943726	-0.404610
H260	H	1.232923	-0.610392	-0.071277
H261	H	1.566257	-0.277059	0.262057
H262	H	0.899642	-1.062995	-0.404636
H263	H	1.232975	-0.729661	-0.071302
H264	H	1.566309	-0.396328	0.262031
C265	C	1.106902	-0.423038	-0.620288
C266	C	1.440236	-0.089704	-0.286955
C267	C	1.773569	0.243629	0.046379
C268	C	1.068923	-0.387710	-0.574347
C269	C	1.402256	-0.054376	-0.241013
C270	C	1.735589	0.278957	0.092320
H271	H	1.136254	-0.450365	-0.596296
H272	H	1.469587	-0.117031	-0.262963
H273	H	1.802921	0.216302	0.070371
H274	H	1.077401	-0.447104	-0.647847
H275	H	1.410734	-0.113771	-0.314514
H276	H	1.744067	0.219562	0.018820
H277	H	1.132818	-0.395601	-0.647870
H278	H	1.466151	-0.062268	-0.314537
H279	H	1.799485	0.271065	0.018796
H280	H	1.043003	-0.415146	-0.546767
H281	H	1.376336	-0.081813	-0.213434
H282	H	1.709670	0.251521	0.119899
H283	H	1.098428	-0.363641	-0.546776
H284	H	1.431761	-0.030308	-0.213442
H285	H	1.765094	0.303025	0.119891
C286	C	1.106970	-0.576223	-0.197339
C287	C	1.440303	-0.242890	0.135994
C288	C	1.773636	0.090444	0.469328
C289	C	1.068934	-0.533492	-0.235286
C290	C	1.402268	-0.200159	0.098047
C291	C	1.735601	0.133175	0.431380
H292	H	1.136362	-0.553913	-0.167994
H293	H	1.469695	-0.220580	0.165340
H294	H	1.803028	0.112754	0.498673
H295	H	1.077506	-0.601902	-0.171423
H296	H	1.410839	-0.268568	0.161910
H297	H	1.744173	0.064765	0.495243
H298	H	1.132845	-0.601827	-0.226866
H299	H	1.466178	-0.268494	0.106467
H300	H	1.799512	0.064840	0.439801
H301	H	1.043055	-0.507891	-0.205759
H302	H	1.376388	-0.174557	0.127574
H303	H	1.709721	0.158776	0.460907
H304	H	1.098401	-0.507802	-0.261204
H305	H	1.431735	-0.174469	0.072130
H306	H	1.765068	0.158864	0.405463
H307	H	0.899637	-0.230133	-0.584460
H308	H	1.232970	0.103200	-0.251127
H309	H	1.566304	0.436533	0.082207
H310	H	0.236422	-0.230129	-0.247740
H311	H	0.569756	0.103205	0.085593
H312	H	0.903089	0.436538	0.418927
C313	C	1.059834	-0.736144	-0.244430
C314	C	1.393168	-0.402811	0.088903
C315	C	1.726501	-0.069477	0.422236
C316	C	1.068965	-0.671499	-0.235291
C317	C	1.402298	-0.338165	0.098042
C318	C	1.735632	-0.004832	0.431376
H319	H	1.089220	-0.758447	-0.215070
H320	H	1.422553	-0.425113	0.118263
H321	H	1.755886	-0.091780	0.451596
H322	H	1.014365	-0.746947	-0.234504
H323	H	1.347699	-0.413614	0.098829
H324	H	1.681032	-0.080281	0.432162
H325	H	1.069737	-0.746881	-0.289914
H326	H	1.403070	-0.413547	0.043419
H327	H	1.736404	-0.080214	0.376753
H328	H	1.059057	-0.660761	-0.189808
H329	H	1.392391	-0.327428	0.143525
H330	H	1.725724	0.005905	0.476858
H331	H	1.114444	-0.660691	-0.245212
H332	H	1.447778	-0.327358	0.088121
H333	H	1.781111	0.005976	0.421454
H334	H	0.720411	-0.376381	-0.404470
H335	H	1.053744	-0.043048	-0.071137
H336	H	1.387077	0.290285	0.262197
H337	H	0.592180	-0.230112	-0.247718
H338	H	0.925513	0.103221	0.085616
H339	H	1.258847	0.436555	0.418949
H340	H	0.899651	-0.230116	-0.712694
H341	H	1.232985	0.103218	-0.379360
H342	H	1.566318	0.436551	-0.046027
H343	H	0.899699	-0.230064	-0.940220
H344	H	1.233033	0.103269	-0.606887
H345	H	1.566366	0.436602	-0.273554
H346	H	0.899722	-0.230038	-1.068465
H347	H	1.233055	0.103295	-0.735132
H348	H	1.566389	0.436629	-0.401798
H349	H	0.592177	-0.376383	-0.404485
H350	H	0.925510	-0.043050	-0.071152
H351	H	1.258843	0.290283	0.262182
C352	C	1.106970	-0.422964	-1.032549
C353	C	1.440303	-0.089631	-0.699215
C354	C	1.773637	0.243703	-0.365882
C355	C	1.069013	-0.387607	-1.078503
C356	C	1.402346	-0.054273	-0.745170
C357	C	1.735679	0.279060	-0.411836
H358	H	1.136323	-0.450285	-1.056531
H359	H	1.469657	-0.116952	-0.723197
H360	H	1.802990	0.216382	-0.389864
H361	H	1.132877	-0.395550	-1.004992
H362	H	1.466210	-0.062217	-0.671658
H363	H	1.799544	0.271116	-0.338325
H364	H	1.077449	-0.447044	-1.004966
H365	H	1.410783	-0.113710	-0.671632
H366	H	1.744116	0.219623	-0.338299
H367	H	1.098533	-0.363523	-1.106083
H368	H	1.431867	-0.030190	-0.772750
H369	H	1.765200	0.303143	-0.439416
H370	H	1.043104	-0.415024	-1.106072
H371	H	1.376437	-0.081690	-0.772739
H372	H	1.709771	0.251643	-0.439405
C373	C	0.896303	-0.736164	-0.407755
C374	C	1.229636	-0.402831	-0.074422
C375	C	1.562969	-0.069498	0.258911
C376	C	0.887135	-0.671521	-0.416879
C377	C	1.220469	-0.338188	-0.083546
C378	C	1.553802	-0.004855	0.249787
H379	H	0.866913	-0.758474	-0.437104
H380	H	1.200246	-0.425140	-0.103771
H381	H	1.533580	-0.091807	0.229563
H382	H	0.941772	-0.746892	-0.417707
H383	H	1.275105	-0.413558	-0.084373
H384	H	1.608439	-0.080225	0.248960
H385	H	0.886429	-0.746969	-0.362269
H386	H	1.219762	-0.413636	-0.028935
H387	H	1.553095	-0.080302	0.304398
H388	H	0.897014	-0.660716	-0.462365
H389	H	1.230348	-0.327383	-0.129032
H390	H	1.563681	0.005951	0.204301
H391	H	0.841656	-0.660790	-0.406933
H392	H	1.174989	-0.327456	-0.073600
H393	H	1.508322	0.005877	0.259734
H394	H	1.056656	-0.376172	-0.940194
H395	H	1.389990	-0.042839	-0.606861
H396	H	1.723323	0.290494	-0.273528
C397	C	0.849082	-0.576257	-0.454826
C398	C	1.182415	-0.242923	-0.121493
C399	C	1.515748	0.090410	0.211840
C400	C	0.887083	-0.533517	-0.416859
C401	C	1.220417	-0.200184	-0.083526
C402	C	1.553750	0.133150	0.249808
H403	H	0.819676	-0.553953	-0.484165
H404	H	1.153009	-0.220620	-0.150832
H405	H	1.486343	0.112713	0.182502
H406	H	0.878566	-0.601852	-0.480749
H407	H	1.211899	-0.268519	-0.147416
H408	H	1.545233	0.064815	0.185917
H409	H	0.823222	-0.601943	-0.425311
H410	H	1.156556	-0.268610	-0.091978
H411	H	1.489889	0.064723	0.241356
H412	H	0.912947	-0.507833	-0.446374
H413	H	1.246280	-0.174500	-0.113041
H414	H	1.579614	0.158833	0.220292
H415	H	0.857596	-0.507911	-0.390934
H416	H	1.190929	-0.174577	-0.057601
H417	H	1.524262	0.158756	0.275733
H418	H	0.364650	-0.376396	-0.404501
H419	H	0.697984	-0.043062	-0.071168
H420	H	1.031317	0.290271	0.262165
H421	H	1.056755	-0.943702	-0.247681
H422	H	1.390088	-0.610368	0.085652
H423	H	1.723422	-0.277035	0.418986
