data_functionalizedCrystal
_audit_creation_method	'MofGen! by Chris Wilmer'
_symmetry_space_group_name_H-M	'P1'
_symmetry_Int_Tables_number	1
_symmetry_cell_setting	triclinic
loop_
_symmetry_equiv_pos_as_xyz
  x,y,z
_cell_length_a	16.992694
_cell_length_b	10.654551
_cell_length_c	15.455313
_cell_angle_alpha	92.692775
_cell_angle_beta	87.142206
_cell_angle_gamma	87.576826
loop_
_atom_site_label
_atom_site_type_symbol
_atom_site_fract_x
_atom_site_fract_y
_atom_site_fract_z
O1	O	1.045244	0.261289	-0.072016
O2	O	0.816944	0.258364	-0.072042
O3	O	0.936343	0.077541	-0.072027
O4	O	0.925846	0.442112	-0.072032
O5	O	0.929515	0.087836	0.072235
O6	O	0.810116	0.268659	0.072219
O7	O	1.038416	0.271584	0.072245
Cu8	Cu	0.923643	0.271061	0.085404
Cu9	Cu	0.931718	0.258886	-0.085201
O10	O	0.919018	0.452407	0.072230
C11	C	0.784297	0.259751	0.000085
C12	C	0.697193	0.248531	0.000075
C13	C	0.932158	0.035824	0.000102
C14	C	0.929851	-0.103819	0.000098
C15	C	0.647541	0.356782	0.000075
C16	C	0.565697	0.346233	0.000087
C17	C	0.533505	0.227433	0.000093
C18	C	0.583163	0.119174	0.000097
C19	C	0.665006	0.129724	0.000091
C20	C	0.289669	0.183707	0.000117
C21	C	0.207820	0.173165	0.000121
C22	C	0.190359	0.400226	0.000112
C23	C	0.272204	0.410765	0.000101
C24	C	0.321854	0.302507	0.000109
N25	N	0.449847	0.216648	0.000103
N26	N	0.405510	0.313293	0.000105
C27	C	0.932491	-0.175028	-0.078540
C28	C	0.930317	-0.306237	-0.078541
C29	C	0.922868	-0.295015	0.078741
C30	C	0.925036	-0.163808	0.078741
C31	C	0.885946	-0.487272	-0.173024
C32	C	0.888599	-0.558488	-0.251666
C33	C	0.938480	-0.525875	-0.321090
C34	C	0.985728	-0.422051	-0.311876
C35	C	0.983082	-0.350843	-0.233233
C36	C	0.933182	-0.383452	-0.163811
C37	C	0.969414	0.017228	0.173218
C38	C	0.966773	0.088438	0.251863
C39	C	0.916896	0.055828	0.321295
C40	C	0.869660	-0.048000	0.312089
C41	C	0.872301	-0.119210	0.233445
C42	C	0.922176	-0.086591	0.164013
C43	C	1.071063	0.270196	0.000116
C44	C	1.158168	0.281416	0.000120
C45	C	0.923203	0.494124	0.000098
C46	C	0.925509	0.633766	0.000097
N47	N	0.917969	0.279624	0.205399
N48	N	0.937398	0.250314	-0.205196
C49	C	0.968712	0.202836	0.250800
C50	C	0.964428	0.209324	0.341607
C51	C	0.909405	0.292607	0.387012
C52	C	0.858657	0.369399	0.341605
C53	C	0.862938	0.362903	0.250799
C54	C	0.890930	0.320610	0.658591
C55	C	0.886655	0.327102	0.749403
C56	C	0.992425	0.167025	0.749399
C57	C	0.996704	0.160543	0.658591
C58	C	0.945953	0.237329	0.613192
N59	N	0.905027	0.299244	0.479832
N60	N	0.950328	0.230685	0.520374
H61	H	0.673745	0.453522	0.000069
Br62	Br	0.811978	0.440146	0.811019
H63	H	1.026351	-0.395516	-0.368408
Br64	Br	0.822058	0.424819	0.596983
Br65	Br	0.783976	0.482419	0.403223
Br66	Br	0.916330	-0.376437	0.185465
H67	H	0.845317	-0.513826	-0.116501
H68	H	0.525273	0.434383	0.000085
H69	H	0.705432	0.041574	0.000091
H70	H	0.833833	-0.203751	0.225953
Br71	Br	0.315887	0.571999	0.000082
H72	H	0.149925	0.488363	0.000107
H73	H	0.181613	0.076419	0.000125
Br74	Br	0.794064	0.467112	0.189184
H75	H	0.556946	0.022445	0.000115
Br76	Br	0.357041	0.036784	0.000130
H77	H	0.940639	-0.583868	-0.385122
Br78	Br	1.033291	0.105106	0.403225
H79	H	0.829029	-0.074531	0.368618
Br80	Br	0.939024	-0.093617	-0.185268
H81	H	1.033743	0.104508	0.786371
Br82	Br	1.047198	-0.209951	-0.220721
H83	H	0.914757	0.113812	0.385333
H84	H	1.010024	0.043800	0.116680
H85	H	1.013520	0.135024	0.213837
Br86	Br	1.030892	0.229337	0.264362
Br87	Br	0.824479	-0.699386	-0.264170
H88	H	1.041508	0.092727	0.621624
