data_functionalizedCrystal
_audit_creation_method	'MofGen! by Chris Wilmer'
_symmetry_space_group_name_H-M	'P1'
_symmetry_Int_Tables_number	1
_symmetry_cell_setting	triclinic
loop_
_symmetry_equiv_pos_as_xyz
  x,y,z
_cell_length_a	8.497374
_cell_length_b	8.497365
_cell_length_c	12.827893
_cell_angle_alpha	89.967592
_cell_angle_beta	89.998937
_cell_angle_gamma	90.037770
loop_
_atom_site_label
_atom_site_type_symbol
_atom_site_fract_x
_atom_site_fract_y
_atom_site_fract_z
Zn1	Zn	0.627661	-0.892101	1.597909
Zn2	Zn	1.127661	-0.392101	2.097909
Zn3	Zn	0.891605	-0.628366	1.597807
Zn4	Zn	1.391605	-0.128366	2.097807
Zn5	Zn	0.627832	-0.628329	1.423110
Zn6	Zn	1.127832	-0.128329	1.923110
Zn7	Zn	0.891393	-0.892099	1.423179
Zn8	Zn	1.391393	-0.392099	1.923179
O9	O	0.759623	-0.760224	1.510501
O10	O	1.259623	-0.260224	2.010501
O11	O	0.662691	-0.857133	1.744131
O12	O	1.162691	-0.357133	2.244131
O13	O	0.856775	-0.407599	1.574561
O14	O	1.356775	0.092401	2.074561
O15	O	0.407047	-0.663304	1.446312
O16	O	0.907047	-0.163304	1.946312
O17	O	0.856609	-0.663368	1.744056
O18	O	1.356609	-0.163368	2.244056
O19	O	0.406922	-0.857096	1.574735
O20	O	0.906922	-0.357096	2.074735
O21	O	0.662983	-0.407571	1.446212
O22	O	1.162983	0.092429	1.946212
O23	O	0.662777	-0.663302	1.276883
O24	O	1.162777	-0.163302	1.776883
O25	O	0.856248	-1.112862	1.446429
O26	O	1.356248	-0.612862	1.946429
O27	O	0.856414	-0.857093	1.276934
O28	O	1.356414	-0.357093	1.776934
O29	O	0.662485	-1.112864	1.574802
O30	O	1.162485	-0.612864	2.074802
O31	O	1.112339	-0.663366	1.574628
O32	O	1.612339	-0.163366	2.074628
O33	O	1.112183	-0.857129	1.446330
O34	O	1.612183	-0.357129	1.946330
C35	C	0.759592	-0.760194	1.238991
C36	C	1.259592	-0.260194	1.738991
C37	C	0.759617	-0.760218	1.122838
C38	C	1.259617	-0.260218	1.622838
C39	C	0.855585	-0.855964	1.071106
C40	C	1.355585	-0.355964	1.571106
C41	C	0.855613	-0.855992	0.951056
C42	C	1.355613	-0.355992	1.451056
C43	C	1.169503	-0.760247	1.510488
C44	C	1.669503	-0.260247	2.010488
C45	C	1.348147	-0.760221	1.510516
C46	C	1.848147	-0.260221	2.010516
C47	C	0.759795	-0.350344	1.510426
C48	C	1.259795	0.149656	2.010426
C49	C	0.759471	-0.171700	1.510575
C50	C	1.259471	0.328300	2.010575
C51	C	0.759654	-0.760255	1.783071
C52	C	1.259654	-0.260255	2.283071
C53	C	0.759668	-0.760268	1.899224
C54	C	1.259668	-0.260268	2.399224
H55	H	0.937720	-0.937921	1.115693
H56	H	1.437720	-0.437921	1.615693
H57	H	0.677508	-0.678287	0.943706
H58	H	1.177508	-0.178287	1.443706
Cl59	Cl	0.982479	-0.982548	0.882375
Cl60	Cl	1.482479	-0.482548	1.382375
Cl61	Cl	0.632783	-0.633694	1.054008
Cl62	Cl	1.132783	-0.133694	1.554008
