data_functionalizedCrystal
_audit_creation_method	'MofGen! by Chris Wilmer'
_symmetry_space_group_name_H-M	'P1'
_symmetry_Int_Tables_number	1
_symmetry_cell_setting	triclinic
loop_
_symmetry_equiv_pos_as_xyz
  x,y,z
_cell_length_a	15.538191
_cell_length_b	16.992694
_cell_length_c	15.455313
_cell_angle_alpha	92.857794
_cell_angle_beta	91.603349
_cell_angle_gamma	111.029842
loop_
_atom_site_label
_atom_site_type_symbol
_atom_site_fract_x
_atom_site_fract_y
_atom_site_fract_z
O1	O	0.191780	-0.989241	-0.072014
O2	O	0.189633	-0.761568	-0.072040
O3	O	0.056913	-0.919723	-0.072026
O4	O	0.324499	-0.831085	-0.072028
O5	O	0.064469	-0.910688	0.072235
O6	O	0.197189	-0.752533	0.072222
O7	O	0.199336	-0.980206	0.072247
Cu8	Cu	0.198952	-0.865545	0.085407
Cu9	Cu	0.190016	-0.876229	-0.085199
O10	O	0.332055	-0.822051	0.072233
C11	C	0.190651	-0.728624	0.000088
C12	C	0.182416	-0.643924	0.000078
C13	C	0.026294	-0.924480	0.000103
C14	C	-0.076201	-0.952104	0.000097
C15	C	0.198318	-1.013150	0.000118
C16	C	0.206553	-1.097851	0.000122
C17	C	-0.384652	-0.677671	0.000085
C18	C	-0.480962	-0.703646	0.000090
C19	C	-0.492404	-0.849754	0.000106
C20	C	-0.396094	-0.823791	0.000097
C21	C	-0.342224	-0.737748	0.000087
C22	C	-0.353667	-0.883868	0.000099
C23	C	-0.257364	-0.857907	0.000095
C24	C	-0.203488	-0.771868	0.000088
C25	C	-0.245922	-0.711786	0.000083
C26	C	-0.407537	-0.969911	0.000115
C27	C	-0.365110	-1.029988	0.000117
C28	C	-0.268806	-1.004027	0.000106
C29	C	-0.214930	-0.917988	0.000099
C30	C	-0.226373	-1.064108	0.000111
C31	C	-0.130070	-1.038146	0.000107
C32	C	-0.118628	-0.892026	0.000095
C33	C	0.362675	-0.817294	0.000103
C34	C	0.465169	-0.789671	0.000103
N35	N	0.205237	-0.858036	0.205401
C36	C	0.261869	-0.571070	0.000078
C37	C	0.254127	-0.491487	0.000090
C38	C	0.166930	-0.484758	0.000095
C39	C	0.087471	-0.557620	0.000098
C40	C	0.095214	-0.637201	0.000092
C41	C	0.134837	-0.250294	0.000119
C42	C	0.127099	-0.170704	0.000122
C43	C	0.293756	-0.104576	0.000116
C44	C	0.301491	-0.184162	0.000105
C45	C	0.222033	-0.257016	0.000112
N46	N	0.159014	-0.403412	0.000105
N47	N	0.229950	-0.338360	0.000108
N48	N	0.183724	-0.883746	-0.205194
C49	C	0.148877	-0.925237	0.250801
C50	C	0.153639	-0.919563	0.341609
C51	C	0.214767	-0.846689	0.387015
C52	C	0.271130	-0.779482	0.341608
C53	C	0.266362	-0.785154	0.250803
C54	C	0.235320	-0.822212	0.658594
C55	C	0.240085	-0.816545	0.749406
C56	C	0.122592	-0.956626	0.749400
C57	C	0.117834	-0.962294	0.658593
C58	C	0.174194	-0.895085	0.613194
N59	N	0.219638	-0.840889	0.479834
N60	N	0.169317	-0.900884	0.520376
H61	H	-0.074764	-0.821962	0.000081
H62	H	0.068059	-1.021633	0.621625
H63	H	0.070135	-0.309604	0.000125
C64	C	-0.550838	-0.943170	0.000290
C65	C	-0.526988	-0.976285	0.074519
C66	C	-0.580804	-1.062335	0.074720
H67	H	-0.540087	-0.972183	-0.049959
H68	H	-0.614279	-0.950064	0.000340
H69	H	-0.463563	-0.969398	0.074461
H70	H	-0.537743	-0.947297	0.124780
H71	H	-0.644244	-1.069229	0.074769
H72	H	-0.570048	-1.091340	0.024467
H73	H	-0.564635	-1.084813	0.125086
C74	C	-0.098932	-0.743785	0.000217
C75	C	-0.066292	-0.770373	0.074427
C76	C	0.030018	-0.744528	0.074569
H77	H	-0.072809	-0.683950	0.000256
H78	H	-0.081863	-0.768070	-0.050063
H79	H	-0.083352	-0.746084	0.124694
H80	H	-0.092389	-0.830205	0.074404
H81	H	0.047086	-0.768813	0.024289
H82	H	0.056131	-0.684693	0.074606
H83	H	0.052175	-0.762570	0.124915
C84	C	-0.423439	-1.123440	0.000166
C85	C	-0.365666	-1.170495	0.000184
C86	C	-0.419363	-1.256586	0.000236
H87	H	-0.463894	-1.139865	-0.050126
H88	H	-0.458589	-1.133496	0.050495
H89	H	-0.330531	-1.160444	-0.050141
H90	H	-0.325212	-1.154096	0.050471
H91	H	-0.454513	-1.266642	0.050565
H92	H	-0.459815	-1.273002	-0.050057
H93	H	-0.380172	-1.288522	0.000256
C94	C	-0.007122	-0.550146	0.000061
C95	C	0.003099	-0.464861	0.000041
C96	C	-0.084021	-0.457947	-0.000007
H97	H	-0.037532	-0.573566	0.050355
H98	H	-0.042739	-0.579880	-0.050266
H99	H	0.038702	-0.435138	0.050363
H100	H	0.033494	-0.441423	-0.050249
H101	H	-0.119639	-0.487680	-0.050334
H102	H	-0.114425	-0.481370	0.050287
H103	H	-0.077099	-0.400082	-0.000029
H104	H	0.030515	-0.696521	0.000091
H105	H	-0.095525	-1.087068	0.000110
C106	C	0.092610	-0.992513	0.391017
C107	C	0.148052	-1.022228	0.443155
C108	C	0.091863	-1.089423	0.488692
H109	H	0.055508	-1.036807	0.351074
H110	H	0.053995	-0.973636	0.426498
H111	H	0.186650	-1.041107	0.407677
H112	H	0.185153	-0.977955	0.483114
H113	H	0.053248	-1.070546	0.524173
H114	H	0.054764	-1.133711	0.448743
H115	H	0.129472	-1.109588	0.524079
H116	H	0.332874	-0.576539	0.000072
H117	H	0.320898	-0.720144	0.378583
C118	C	-0.526988	-0.638389	-0.000099
C119	C	-0.504022	-0.592661	-0.074335
C120	C	-0.546416	-0.532550	-0.074543
H121	H	-0.506256	-0.600882	0.050145
H122	H	-0.592067	-0.666146	-0.000142
H123	H	-0.438957	-0.564905	-0.074283
H124	H	-0.524756	-0.630145	-0.124591
H125	H	-0.611494	-0.560307	-0.074587
H126	H	-0.525680	-0.495049	-0.024296
H127	H	-0.530846	-0.501522	-0.124915
H128	H	0.318826	-0.432169	0.000089
H129	H	0.076706	-1.011344	0.786372
H130	H	0.372496	-0.189632	0.000090
H131	H	0.099104	-0.984580	0.213838
H132	H	0.358447	-0.045251	0.000112
C133	C	0.296623	-0.749173	0.609469
C134	C	0.351194	-0.684154	0.668672
C135	C	0.407690	-0.616859	0.623446
H136	H	0.259264	-0.728775	0.574052
H137	H	0.335304	-0.768029	0.574054
H138	H	0.312518	-0.665300	0.704072
H139	H	0.388573	-0.704525	0.704090
H140	H	0.446371	-0.635715	0.588032
H141	H	0.370324	-0.596469	0.588031
H142	H	0.444729	-0.572739	0.663609
C143	C	-0.326116	-0.584275	-0.000110
C144	C	-0.274403	-0.569756	-0.074343
C145	C	-0.220478	-0.483734	-0.074556
H146	H	-0.285594	-0.567865	0.050137
H147	H	-0.365144	-0.552178	-0.000161
H148	H	-0.235378	-0.601841	-0.074283
H149	H	-0.314901	-0.586146	-0.124601
H150	H	-0.259506	-0.451638	-0.074608
H151	H	-0.179962	-0.467332	-0.024307
H152	H	-0.185390	-0.473871	-0.124926
C153	C	0.032342	-0.163573	0.000171
C154	C	-0.035588	-0.244406	0.000198
C155	C	-0.122882	-0.237867	0.000250
H156	H	0.023094	-0.137097	-0.050123
H157	H	0.028449	-0.130788	0.050498
H158	H	-0.031698	-0.277178	-0.050124
H159	H	-0.026370	-0.270896	0.050488
H160	H	-0.126775	-0.205083	0.050577
H161	H	-0.132120	-0.211389	-0.050045
H162	H	-0.168982	-0.292710	0.000276
C163	C	0.327666	-0.712120	0.201664
C164	C	0.382239	-0.647095	0.260862
C165	C	0.438730	-0.579805	0.215629
H166	H	0.290304	-0.691726	0.166247
H167	H	0.366346	-0.730978	0.166250
H168	H	0.343563	-0.628240	0.296261
H169	H	0.419620	-0.667463	0.296281
H170	H	0.477410	-0.598662	0.180215
H171	H	0.401361	-0.559418	0.180213
H172	H	0.475770	-0.535680	0.255787
H173	H	-0.485953	-0.991046	0.000111
H174	H	0.289866	-0.757200	0.786371
H175	H	-0.202058	-0.641722	0.000069
H176	H	-0.270247	-1.134164	0.000128
