data_functionalizedCrystal
_audit_creation_method	'MofGen! by Chris Wilmer'
_symmetry_space_group_name_H-M	'P1'
_symmetry_Int_Tables_number	1
_symmetry_cell_setting	triclinic
loop_
_symmetry_equiv_pos_as_xyz
  x,y,z
_cell_length_a	14.971506
_cell_length_b	8.597304
_cell_length_c	13.448316
_cell_angle_alpha	82.293562
_cell_angle_beta	89.992937
_cell_angle_gamma	84.482370
loop_
_atom_site_label
_atom_site_type_symbol
_atom_site_fract_x
_atom_site_fract_y
_atom_site_fract_z
O1	O	1.188603	0.204684	-0.100231
O2	O	0.928404	0.229144	-0.102327
O3	O	1.063623	-0.011544	-0.081704
O4	O	1.053384	0.445372	-0.120854
O5	O	1.063605	-0.011558	0.083681
O6	O	0.928387	0.229130	0.063058
O7	O	1.188585	0.204670	0.065154
Cu8	Cu	1.058484	0.216898	0.079207
Cu9	Cu	1.058505	0.216916	-0.116380
O10	O	1.053366	0.445357	0.044531
C11	C	0.895062	0.228037	-0.019540
C12	C	0.795739	0.224742	-0.019258
C13	C	0.358505	0.353567	-0.030306
C14	C	0.451831	0.356651	-0.030575
C15	C	0.507899	0.215238	-0.018453
C16	C	0.470638	0.070731	-0.006073
C17	C	0.377315	0.067649	-0.005812
C18	C	0.665154	0.077165	-0.006616
C19	C	0.758484	0.080247	-0.006875
C20	C	0.739670	0.366167	-0.031379
C21	C	0.646346	0.363085	-0.031117
C22	C	0.609092	0.218578	-0.018735
C23	C	1.062514	-0.070025	0.005997
C24	C	1.059225	-0.244259	0.020920
C25	C	1.221927	0.205777	-0.017635
C26	C	1.321250	0.209072	-0.017924
C27	C	1.054475	0.503839	-0.043172
C28	C	1.057765	0.678073	-0.058101
N29	N	1.058476	0.216885	0.216773
N30	N	1.058520	0.216917	-0.253944
C31	C	1.118370	0.110352	0.277941
C32	C	1.118376	0.110351	0.382044
C33	C	1.058491	0.216891	0.424977
C34	C	0.998591	0.323429	0.363801
C35	C	0.998581	0.323421	0.259700
C36	C	0.998616	0.323439	0.580780
C37	C	0.998626	0.323449	0.684887
C38	C	1.118410	0.110369	0.703124
C39	C	1.118401	0.110361	0.599024
C40	C	1.058501	0.216902	0.537854
H41	H	0.346984	-0.050014	0.004269
C42	C	1.059484	-0.231686	-0.164931
N43	N	1.060781	-0.163708	-0.245396
H44	H	0.949860	0.410204	0.719837
H45	H	1.167139	0.023601	0.242993
H46	H	0.949836	0.410191	0.530979
H47	H	1.057948	-0.311065	0.100000
C48	C	1.184243	-0.006881	0.449329
N49	N	1.233848	-0.095201	0.500009
H50	H	0.949827	0.410171	0.398762
C51	C	0.780651	0.525127	-0.045008
N52	N	0.811523	0.644851	-0.055271
H53	H	1.167168	0.023616	0.564068
C54	C	0.296837	0.509136	-0.043639
N55	N	0.250391	0.626316	-0.053685
H56	H	0.949808	0.410169	0.209897
H57	H	0.482159	0.474313	-0.040667
C58	C	0.584672	0.518647	-0.044436
N59	N	0.538219	0.635819	-0.054467
H60	H	1.167182	0.023620	0.752935
C61	C	0.624177	-0.081801	0.007007
N62	N	0.593312	-0.201532	0.017274
C63	C	0.820158	-0.075315	0.006445
N64	N	0.866611	-0.192487	0.016475
H65	H	0.516297	-0.044410	0.003790
