data_functionalizedCrystal
_audit_creation_method	'MofGen! by Chris Wilmer'
_symmetry_space_group_name_H-M	'P1'
_symmetry_Int_Tables_number	1
_symmetry_cell_setting	triclinic
loop_
_symmetry_equiv_pos_as_xyz
  x,y,z
_cell_length_a	17.077404
_cell_length_b	12.759399
_cell_length_c	17.077396
_cell_angle_alpha	89.973830
_cell_angle_beta	89.982756
_cell_angle_gamma	90.015909
loop_
_atom_site_label
_atom_site_type_symbol
_atom_site_fract_x
_atom_site_fract_y
_atom_site_fract_z
Zn1	Zn	1.200076	-0.418251	-0.443860
Zn2	Zn	1.200005	-0.593954	-0.312601
Zn3	Zn	1.068813	-0.418291	-0.312608
Zn4	Zn	1.068793	-0.593890	-0.443825
O5	O	1.134422	-0.506097	-0.378223
O6	O	1.309914	-0.441569	-0.426460
O7	O	1.182581	-0.570696	-0.202755
O8	O	1.086264	-0.271264	-0.330036
O9	O	1.309862	-0.570658	-0.330025
O10	O	1.182703	-0.271236	-0.426467
O11	O	1.086195	-0.441637	-0.202760
O12	O	0.958964	-0.441574	-0.330002
O13	O	1.086229	-0.570547	-0.553676
O14	O	0.958949	-0.570585	-0.426407
O15	O	1.182683	-0.441506	-0.553702
O16	O	1.182561	-0.740967	-0.329991
O17	O	1.086160	-0.740919	-0.426400
C18	C	0.930474	-0.506077	-0.378202
C19	C	0.843224	-0.506095	-0.378211
C20	C	0.802247	-0.573372	-0.428328
C21	C	0.720266	-0.573375	-0.428341
C22	C	0.679265	-0.506104	-0.378232
C23	C	0.720248	-0.438819	-0.328112
C24	C	0.802227	-0.438812	-0.328104
C25	C	0.549378	-0.438839	-0.328131
C26	C	0.467393	-0.438847	-0.328138
C27	C	0.467417	-0.573402	-0.428368
C28	C	0.549396	-0.573395	-0.428360
C29	C	0.590374	-0.506111	-0.378239
C30	C	1.134372	-0.779064	-0.378208
C31	C	1.134422	-0.895841	-0.378228
C32	C	1.084332	-1.060537	-0.328011
C33	C	1.084278	-0.950813	-0.327992
C34	C	1.184617	-0.950597	-0.428492
C35	C	1.184666	-1.060319	-0.428515
C36	C	1.026404	-1.060661	-0.269986
C37	C	1.026351	-0.950937	-0.269966
C38	C	1.339166	-0.506116	-0.378246
C39	C	1.426416	-0.506125	-0.378255
C40	C	1.134461	-0.506015	-0.582968
C41	C	1.134478	-0.505980	-0.670218
C42	C	1.134494	-0.232063	-0.378256
C43	C	1.134524	-0.115287	-0.378270
C44	C	1.084305	-0.438771	-0.711210
C45	C	1.084318	-0.438747	-0.793190
C46	C	1.134508	-0.505928	-0.834177
C47	C	1.184683	-0.573145	-0.793179
C48	C	1.184666	-0.573173	-0.711200
C49	C	1.184717	-0.573079	-0.964049
C50	C	1.184736	-0.573050	-1.046034
C51	C	1.084369	-0.438653	-1.046039
C52	C	1.084352	-0.438682	-0.964060
C53	C	1.134528	-0.505897	-0.923068
C54	C	1.134428	-0.506102	-0.174276
C55	C	1.134563	-0.505840	-0.087026
H56	H	0.686906	-0.628160	-0.469151
C57	C	0.594497	-0.647390	-0.483479
H58	H	0.558352	-0.687456	-0.513336
H59	H	0.626460	-0.693111	-0.453390
H60	H	0.626495	-0.607244	-0.517731
H61	H	1.043439	-0.384059	-0.677844
H62	H	1.225440	-0.905831	-0.469400
C63	C	1.055881	-1.106692	-0.192010
H64	H	1.054913	-1.181051	-0.194686
H65	H	1.022974	-1.083780	-0.150561
H66	H	1.107953	-1.083656	-0.182686
C67	C	0.944286	-1.100974	-0.291917
H68	H	0.944322	-1.175431	-0.291924
H69	H	0.930662	-1.076130	-0.342556
H70	H	0.907213	-1.076242	-0.254788
C71	C	0.847345	-0.647376	-0.483443
H72	H	0.902038	-0.637748	-0.476255
H73	H	0.833936	-0.632097	-0.536207
H74	H	0.833890	-0.717950	-0.471856
H75	H	0.968568	-0.916954	-0.291680
C76	C	0.422346	-0.647407	-0.483504
H77	H	0.367650	-0.637769	-0.476341
H78	H	0.435763	-0.717977	-0.471923
H79	H	0.435808	-0.632114	-0.536266
C80	C	1.239856	-0.647103	-0.666109
H81	H	1.269755	-0.687105	-0.702259
H82	H	1.209807	-0.692886	-0.634120
H83	H	1.274066	-0.606926	-0.634137
C84	C	1.048387	-0.910755	-0.187855
H85	H	1.057494	-0.968687	-0.154101
H86	H	1.006773	-0.869465	-0.167607
H87	H	1.094502	-0.869334	-0.191203
H88	H	0.582740	-0.384040	-0.287324
C89	C	0.422293	-0.364841	-0.273027
H90	H	0.458437	-0.324756	-0.243185
H91	H	0.390291	-0.404968	-0.238773
H92	H	0.390334	-0.319123	-0.303130
C93	C	1.029133	-0.364811	-0.838278
H94	H	0.999247	-0.324795	-0.802127
H95	H	0.994923	-0.404979	-0.870250
H96	H	1.059187	-0.319026	-0.870267
C97	C	1.239872	-1.120540	-0.483805
H98	H	1.269730	-1.072087	-0.513718
H99	H	1.209839	-1.163345	-0.517984
H100	H	1.274119	-1.163331	-0.453817
C101	C	1.029152	-0.364750	-1.091127
H102	H	1.036336	-0.374370	-1.145821
H103	H	1.040638	-0.294156	-1.077716
H104	H	0.976408	-0.380155	-1.077671
C105	C	0.675152	-0.364818	-0.272993
H106	H	0.711301	-0.324741	-0.243149
H107	H	0.643152	-0.404950	-0.238742
H108	H	0.643193	-0.319091	-0.303089
H109	H	1.043486	-0.383972	-0.930691
C110	C	1.239949	-0.646940	-1.091119
H111	H	1.269824	-0.686982	-1.054965
H112	H	1.274167	-0.606734	-1.123102
H113	H	1.209914	-0.692703	-1.123094
C114	C	1.239909	-0.647017	-0.918959
H115	H	1.269808	-0.687017	-0.955109
H116	H	1.209863	-0.692801	-0.886970
H117	H	1.274118	-0.606835	-0.886989
H118	H	1.225545	-0.627850	-0.826557
H119	H	0.835590	-0.384022	-0.287298
