data_functionalizedCrystal
_audit_creation_method	'MofGen! by Chris Wilmer'
_symmetry_space_group_name_H-M	'P1'
_symmetry_Int_Tables_number	1
_symmetry_cell_setting	triclinic
loop_
_symmetry_equiv_pos_as_xyz
  x,y,z
_cell_length_a	10.654545
_cell_length_b	16.109301
_cell_length_c	9.130313
_cell_angle_alpha	90.006634
_cell_angle_beta	90.000033
_cell_angle_gamma	83.972280
loop_
_atom_site_label
_atom_site_type_symbol
_atom_site_fract_x
_atom_site_fract_y
_atom_site_fract_z
O1	O	1.666253	0.116757	0.121790
O2	O	2.166253	0.616757	0.621790
O3	O	1.300623	0.127887	0.121797
O4	O	1.800623	0.627887	0.621797
O5	O	1.493482	0.001351	0.121778
O6	O	1.993482	0.501351	0.621778
O7	O	1.473394	0.243293	0.121808
O8	O	1.973394	0.743293	0.621808
O9	O	1.493480	0.001344	-0.121821
O10	O	1.993480	0.501344	0.378179
O11	O	1.300621	0.127880	-0.121802
O12	O	1.800621	0.627880	0.378198
O13	O	1.666251	0.116751	-0.121809
O14	O	2.166251	0.616751	0.378191
Cu15	Cu	1.483436	0.122315	-0.144048
Cu16	Cu	1.983436	0.622315	0.355952
Cu17	Cu	1.483438	0.122323	0.144036
Cu18	Cu	1.983438	0.622323	0.644036
O19	O	1.473392	0.243287	-0.121790
O20	O	1.973392	0.743287	0.378210
C21	C	1.253835	0.127067	-0.000002
C22	C	1.753835	0.627067	0.499998
C23	C	1.114425	0.124625	-0.000000
C24	C	1.614425	0.624625	0.500000
C25	C	1.048935	0.123472	-0.132787
C26	C	1.548935	0.623472	0.367213
C27	C	0.917947	0.121163	-0.132787
C28	C	1.417947	0.621163	0.367213
C29	C	0.917949	0.121164	0.132798
C30	C	1.417949	0.621164	0.632798
C31	C	1.048936	0.123467	0.132796
C32	C	1.548936	0.623467	0.632796
C33	C	1.492668	-0.029632	-0.000022
C34	C	1.992668	0.470368	0.499978
C35	C	1.490228	-0.121942	-0.000024
C36	C	1.990228	0.378058	0.499976
C37	C	1.598994	-0.343569	-0.000003
C38	C	2.098994	0.156431	0.499997
C39	C	1.596692	-0.430303	0.000009
C40	C	2.096692	0.069697	0.500009
C41	C	1.367871	-0.411787	0.000008
C42	C	1.867871	0.088213	0.500008
C43	C	1.370175	-0.325054	0.000006
C44	C	1.870175	0.174946	0.500006
C45	C	1.485740	-0.290948	-0.000007
C46	C	1.985740	0.209052	0.499993
C47	C	1.481134	-0.464414	0.000007
C48	C	1.981134	0.035586	0.500007
C49	C	1.478638	-0.558455	0.000020
C50	C	1.978638	-0.058455	0.500020
C51	C	1.488237	-0.196901	-0.000017
C52	C	1.988237	0.303099	0.499983
C53	C	1.713039	0.117571	-0.000007
C54	C	2.213039	0.617571	0.499993
C55	C	1.852450	0.120013	0.000001
C56	C	2.352450	0.620013	0.500001
C57	C	1.474207	0.274270	0.000013
C58	C	1.974207	0.774270	0.500013
C59	C	1.476646	0.366580	0.000025
C60	C	1.976646	0.866580	0.500025
N61	N	1.483440	0.122322	0.346658
N62	N	1.983440	0.622322	0.846658
N63	N	1.483444	0.122310	-0.346671
N64	N	1.983444	0.622310	0.153329
C65	C	1.568997	0.066403	0.423302
C66	C	2.068997	0.566403	0.923302
C67	C	1.569003	0.066398	0.576639
C68	C	2.069003	0.566398	1.076639
C69	C	1.397883	0.178235	0.576675
C70	C	1.897883	0.678235	1.076675
C71	C	1.397884	0.178242	0.423341
C72	C	1.897884	0.678242	0.923341
H73	H	0.864631	0.120224	-0.240915
H74	H	1.364631	0.620224	0.259085
H75	H	1.277943	-0.282208	0.000007
H76	H	1.777943	0.217792	0.500007
H77	H	1.102252	0.124414	-0.240918
H78	H	1.602252	0.624414	0.259082
H79	H	1.273782	-0.439567	0.000015
H80	H	1.773782	0.060433	0.500015
Br81	Br	1.137826	0.125021	0.313020
Br82	Br	1.637826	0.625021	0.813020
H83	H	1.693095	-0.315803	-0.000010
H84	H	2.193095	0.184197	0.499990
Br85	Br	1.685126	-0.009491	0.680653
Br86	Br	2.185126	0.490509	1.180653
Br87	Br	1.750402	-0.501715	0.000023
Br88	Br	2.250402	-0.001715	0.500023
Br89	Br	0.829069	0.119567	0.313013
Br90	Br	1.329069	0.619567	0.813013
Br91	Br	1.685111	-0.009488	0.319238
Br92	Br	2.185111	0.490512	0.819238
H93	H	1.328213	0.223782	0.360933
H94	H	1.828213	0.723782	0.860933
Br95	Br	1.281773	0.254123	0.680749
Br96	Br	1.781773	0.754123	1.180749
