data_functionalizedCrystal
_audit_creation_method	'MofGen! by Chris Wilmer'
_symmetry_space_group_name_H-M	'P1'
_symmetry_Int_Tables_number	1
_symmetry_cell_setting	triclinic
loop_
_symmetry_equiv_pos_as_xyz
  x,y,z
_cell_length_a	17.699104
_cell_length_b	19.188930
_cell_length_c	17.666332
_cell_angle_alpha	90.011603
_cell_angle_beta	90.010239
_cell_angle_gamma	83.218149
loop_
_atom_site_label
_atom_site_type_symbol
_atom_site_fract_x
_atom_site_fract_y
_atom_site_fract_z
O1	O	1.003955	0.088363	0.062972
O2	O	0.783563	0.099835	0.062971
O3	O	0.900119	-0.007549	0.062957
O4	O	0.887399	0.195747	0.062987
O5	O	0.900099	-0.007555	-0.062940
O6	O	0.783543	0.099829	-0.062925
O7	O	1.003934	0.088357	-0.062925
Cu8	Cu	0.893737	0.094093	-0.074420
Cu9	Cu	0.893761	0.094100	0.074467
O10	O	0.887379	0.195742	-0.062910
C11	C	0.755357	0.099419	0.000023
C12	C	0.671341	0.098178	0.000022
C13	C	0.899697	-0.033563	0.000007
C14	C	0.898460	-0.111069	-0.000000
C15	C	0.146397	0.154214	0.000038
C16	C	0.225339	0.155375	0.000040
C17	C	0.274039	0.092337	0.000031
C18	C	0.243794	0.028132	0.000027
C19	C	0.164853	0.026972	0.000030
C20	C	0.562154	0.032812	0.000016
C21	C	0.641100	0.033978	0.000010
C22	C	0.622640	0.161216	0.000026
C23	C	0.543699	0.160055	0.000029
C24	C	0.513460	0.095851	0.000029
C25	C	0.427862	0.094593	0.000028
C26	C	0.359636	0.093595	0.000027
C27	C	0.966851	-0.155912	-0.000003
C28	C	0.965690	-0.228737	0.000009
C29	C	0.896133	-0.256716	0.000009
C30	C	0.827733	-0.211864	0.000017
C31	C	0.828897	-0.139040	0.000012
N32	N	0.842958	-0.364787	-0.042836
N33	N	0.841858	-0.433966	-0.042833
C34	C	0.892623	-0.476129	0.000024
N35	N	0.944542	-0.446500	0.042870
N36	N	0.945645	-0.377314	0.042864
C37	C	0.894864	-0.335680	0.000014
C38	C	0.959759	-0.599938	0.000035
C39	C	0.958595	-0.672764	0.000052
C40	C	0.820636	-0.655889	0.000052
C41	C	0.821802	-0.583065	0.000043
C42	C	0.891366	-0.555094	0.000031
C43	C	1.032141	0.088774	0.000026
C44	C	1.116156	0.090014	0.000032
C45	C	0.887801	0.221756	0.000042
C46	C	0.889037	0.299262	0.000054
N47	N	0.893725	0.094088	-0.179140
C48	C	0.945353	0.046561	-0.218756
C49	C	0.945357	0.046558	-0.298003
C50	C	0.893741	0.094093	-0.337632
C51	C	0.842104	0.141623	-0.298006
C52	C	0.842096	0.141621	-0.218760
N53	N	0.883903	0.155889	-0.462042
N54	N	0.883915	0.155889	-0.537322
C55	C	0.893761	0.094103	-0.576396
N56	N	0.903610	0.032314	-0.537345
N57	N	0.903602	0.032315	-0.462058
C58	C	0.893744	0.094101	-0.423561
C59	C	0.945396	0.046569	-0.701941
C60	C	0.945396	0.046564	-0.781190
C61	C	0.842146	0.141636	-0.781192
C62	C	0.842143	0.141634	-0.701944
C63	C	0.893773	0.094101	-0.662324
N64	N	0.893778	0.094099	0.179187
H65	H	0.106749	0.205547	0.000040
H66	H	0.283453	-0.023195	0.000024
H67	H	0.987434	0.007863	-0.669681
H68	H	1.014289	-0.709275	0.000053
C69	C	0.132165	-0.042803	-0.000015
C70	C	0.191709	-0.097762	-0.000044
C71	C	0.161627	-0.162049	-0.000091
H72	H	0.101776	-0.045996	0.043878
H73	H	0.101765	-0.045942	-0.043934
H74	H	0.222096	-0.094624	0.043870
H75	H	0.222103	-0.094592	-0.043934
H76	H	0.131226	-0.165189	-0.044010
H77	H	0.131238	-0.165235	0.043803
H78	H	0.202022	-0.199346	-0.000118
C79	C	1.040028	-0.277319	-0.000036
C80	C	1.101197	-0.237236	-0.000065
C81	C	1.169688	-0.281963	-0.000117
H82	H	1.042560	-0.306086	0.043855
H83	H	1.042469	-0.306076	-0.043957
H84	H	1.098757	-0.208491	0.043851
H85	H	1.098690	-0.208470	-0.043953
H86	H	1.172128	-0.310720	-0.044037
H87	H	1.172212	-0.310728	0.043775
H88	H	1.211199	-0.254773	-0.000143
H89	H	0.764001	-0.678669	0.000056
C90	C	1.001539	-0.005069	-0.824069
C91	C	1.046763	-0.046680	-0.772405
C92	C	1.098498	-0.094245	-0.811877
H93	H	0.974509	-0.034175	-0.855000
H94	H	1.032998	0.020001	-0.854952
H95	H	1.015307	-0.071748	-0.741535
H96	H	1.073809	-0.017593	-0.741472
H97	H	1.129958	-0.069175	-0.842760
H98	H	1.071462	-0.123346	-0.842807
H99	H	1.129194	-0.122479	-0.776830
C100	C	0.747629	-0.534257	0.000077
C101	C	0.763534	-0.464494	0.000093
C102	C	0.695221	-0.419513	0.000138
H103	H	0.719033	-0.542644	-0.043812
H104	H	0.719099	-0.542675	0.044000
H105	H	0.792052	-0.456079	-0.043825
H106	H	0.792119	-0.456085	0.043979
H107	H	0.666692	-0.427931	0.044060
H108	H	0.666630	-0.427906	-0.043752
H109	H	0.706004	-0.372174	0.000156
H110	H	0.987390	0.007856	-0.186499
H111	H	0.771100	-0.234649	0.000019
H112	H	0.647269	0.213494	0.000029
H113	H	0.680751	-0.017359	0.000005
C114	C	1.035359	-0.569698	0.000076
C115	C	1.095007	-0.624561	0.000107
C116	C	1.164660	-0.596734	0.000158
H117	H	1.038787	-0.541662	-0.043816
H118	H	1.038723	-0.541650	0.043995
H119	H	1.091645	-0.652598	-0.043808
H120	H	1.091604	-0.652603	0.043996
H121	H	1.168024	-0.568686	0.044077
H122	H	1.168081	-0.568697	-0.043735
H123	H	1.205139	-0.633954	0.000185
H124	H	0.987400	0.007855	-0.330265
C125	C	0.258202	0.225064	0.000220
C126	C	0.302966	0.229454	0.065011
C127	C	0.333237	0.293650	0.065218
H128	H	0.288662	0.228245	-0.043624
H129	H	0.217905	0.262454	0.000269
H130	H	0.343258	0.192075	0.064955
H131	H	0.272522	0.226285	0.108866
H132	H	0.292940	0.331040	0.065267
H133	H	0.363694	0.296826	0.021371
H134	H	0.363607	0.296640	0.109181
C135	C	0.754558	-0.090465	-0.000028
C136	C	0.693391	-0.130551	-0.000040
C137	C	0.624899	-0.085826	-0.000088
H138	H	0.752045	-0.061678	0.043860
H139	H	0.752096	-0.061728	-0.043952
H140	H	0.695852	-0.159275	0.043880
H141	H	0.695879	-0.159336	-0.043924
H142	H	0.622437	-0.057089	-0.044013
H143	H	0.622393	-0.057041	0.043800
H144	H	0.583389	-0.113017	-0.000104
C145	C	0.786149	0.193203	-0.341164
C146	C	0.797220	0.183047	-0.419045
C147	C	0.745690	0.230555	-0.458824
H148	H	0.735629	0.185720	-0.328287
H149	H	0.794215	0.239807	-0.328204
H150	H	0.789148	0.136454	-0.432000
H151	H	0.847729	0.190536	-0.431945
H152	H	0.753757	0.277160	-0.445864
H153	H	0.695174	0.223068	-0.445941
H154	H	0.753200	0.223676	-0.511670
H155	H	0.800054	0.180323	-0.186504
H156	H	0.504050	0.211388	0.000033
C157	C	0.785982	0.193166	-0.824166
C158	C	0.711649	0.181911	-0.804925
C159	C	0.659887	0.229360	-0.844509
H160	H	0.793940	0.239787	-0.811197
H161	H	0.793327	0.186358	-0.877044
H162	H	0.704307	0.188724	-0.752059
H163	H	0.703667	0.135300	-0.817896
H164	H	0.667232	0.222552	-0.897387
H165	H	0.667852	0.275978	-0.831537
H166	H	0.609447	0.221726	-0.831465
C167	C	0.786182	0.193356	-0.658969
C168	C	0.798243	0.261953	-0.678212
C169	C	0.746709	0.309619	-0.638633
H170	H	0.735666	0.185924	-0.671940
H171	H	0.793572	0.186596	-0.606090
H172	H	0.790847	0.268710	-0.731079
H173	H	0.848749	0.269407	-0.665239
H174	H	0.754098	0.302859	-0.585754
H175	H	0.696195	0.302181	-0.651607
H176	H	0.754889	0.356167	-0.651678
H177	H	0.537544	-0.019466	0.000013
H178	H	1.023496	-0.133143	-0.000011
