data_functionalizedCrystal
_audit_creation_method	'MofGen! by Chris Wilmer'
_symmetry_space_group_name_H-M	'P1'
_symmetry_Int_Tables_number	1
_symmetry_cell_setting	triclinic
loop_
_symmetry_equiv_pos_as_xyz
  x,y,z
_cell_length_a	12.759401
_cell_length_b	18.101395
_cell_length_c	12.759393
_cell_angle_alpha	89.966350
_cell_angle_beta	89.982620
_cell_angle_gamma	90.031265
loop_
_atom_site_label
_atom_site_type_symbol
_atom_site_fract_x
_atom_site_fract_y
_atom_site_fract_z
Zn1	Zn	1.606124	-0.294781	-0.593968
Zn2	Zn	2.106124	0.205219	-0.093968
Zn3	Zn	1.605972	-0.418643	-0.418282
Zn4	Zn	2.105972	0.081357	0.081718
Zn5	Zn	1.430429	-0.294820	-0.418307
Zn6	Zn	1.930429	0.205180	0.081693
Zn7	Zn	1.430364	-0.418586	-0.593923
Zn8	Zn	1.930364	0.081414	-0.093923
O9	O	1.518222	-0.356708	-0.506120
O10	O	2.018222	0.143292	-0.006120
O11	O	1.753125	-0.311219	-0.570671
O12	O	2.253125	0.188781	-0.070671
O13	O	1.582649	-0.402258	-0.271264
O14	O	2.082649	0.097742	0.228736
O15	O	1.453827	-0.191182	-0.441638
O16	O	1.953827	0.308818	0.058362
O17	O	1.753013	-0.402220	-0.441595
O18	O	2.253013	0.097780	0.058405
O19	O	1.582909	-0.191154	-0.570695
O20	O	2.082909	0.308846	-0.070695
O21	O	1.453679	-0.311286	-0.271283
O22	O	1.953679	0.188714	0.228717
O23	O	1.283400	-0.311231	-0.441595
O24	O	1.783400	0.188769	0.058405
O25	O	1.453716	-0.402122	-0.740950
O26	O	1.953716	0.097878	-0.240950
O27	O	1.283352	-0.402160	-0.570619
O28	O	1.783352	0.097840	-0.070619
O29	O	1.582846	-0.311164	-0.740983
O30	O	2.082846	0.188836	-0.240983
O31	O	1.582586	-0.522269	-0.441552
O32	O	2.082586	-0.022269	0.058448
O33	O	1.453568	-0.522226	-0.570595
O34	O	1.953568	-0.022226	-0.070595
C35	C	1.245255	-0.356694	-0.506106
C36	C	1.745255	0.143306	-0.006106
C37	C	1.128478	-0.356706	-0.506125
C38	C	1.628478	0.143294	-0.006125
C39	C	1.518082	-0.549118	-0.506089
C40	C	2.018082	-0.049118	-0.006089
C41	C	1.518118	-0.631432	-0.506111
C42	C	2.018118	-0.131432	-0.006111
C43	C	1.073619	-0.404129	-0.573197
C44	C	1.573619	0.095871	-0.073197
C45	C	0.963895	-0.404138	-0.573208
C46	C	1.463895	0.095862	-0.073208
C47	C	0.963899	-0.309300	-0.439066
C48	C	1.463899	0.190700	0.060934
C49	C	1.073621	-0.309287	-0.439061
C50	C	1.573621	0.190713	0.060939
C51	C	1.128476	-0.451548	-0.640260
C52	C	1.628476	0.048452	-0.140260
C53	C	1.073616	-0.498975	-0.707337
C54	C	1.573616	0.001025	-0.207337
C55	C	0.963892	-0.498985	-0.707348
C56	C	1.463892	0.001015	-0.207348
C57	C	0.909028	-0.451567	-0.640283
C58	C	1.409028	0.048433	-0.140283
C59	C	1.518348	-0.930523	-0.506168
C60	C	2.018348	-0.430523	-0.006168
C61	C	1.437362	-0.899202	-0.587559
C62	C	1.937362	-0.399202	-0.087559
C63	C	1.436977	-0.813584	-0.587305
C64	C	1.936977	-0.313584	-0.087305
C65	C	1.518234	-0.782141	-0.506140
C66	C	2.018234	-0.282141	-0.006140
C67	C	1.488255	-0.813301	-0.395415
C68	C	1.988255	-0.313301	0.104585
C69	C	1.487733	-0.898946	-0.395903
C70	C	1.987733	-0.398946	0.104097
C71	C	1.629490	-0.898865	-0.534526
C72	C	2.129490	-0.398865	-0.034526
C73	C	1.628837	-0.813213	-0.536954
C74	C	2.128837	-0.313213	-0.036954
C75	C	1.518171	-0.698281	-0.506118
C76	C	2.018171	-0.198281	-0.006118
C77	C	1.518409	-1.014383	-0.506182
C78	C	2.018409	-0.514383	-0.006182
C79	C	1.792256	-0.356722	-0.506135
C80	C	2.292256	0.143278	-0.006135
C81	C	1.909032	-0.356728	-0.506141
C82	C	2.409032	0.143272	-0.006141
C83	C	1.518291	-0.356632	-0.780153
C84	C	2.018291	0.143368	-0.280153
C85	C	1.518320	-0.356600	-0.896930
C86	C	2.018320	0.143400	-0.396930
C87	C	1.518392	-0.163546	-0.506174
C88	C	2.018392	0.336454	-0.006174
C89	C	1.518464	-0.081232	-0.506197
C90	C	2.018464	0.418768	-0.006197
C91	C	1.451193	-0.309222	-0.951808
C92	C	1.951193	0.190778	-0.451808
C93	C	1.451225	-0.309200	-1.061532
C94	C	1.951225	0.190800	-0.561532
C95	C	1.585519	-0.403936	-1.061491
C96	C	2.085519	0.096064	-0.561491
C97	C	1.585481	-0.403961	-0.951769
C98	C	2.085481	0.096039	-0.451769
C99	C	1.384033	-0.261861	-0.896969
C100	C	1.884033	0.238139	-0.396969
C101	C	1.316902	-0.214479	-0.951847
C102	C	1.816902	0.285521	-0.451847
C103	C	1.316933	-0.214457	-1.061571
C104	C	1.816933	0.285543	-0.561571
C105	C	1.384096	-0.261817	-1.116417
C106	C	1.884096	0.238183	-0.616417
C107	C	1.518215	-0.356729	-0.233153
C108	C	2.018215	0.143271	0.266847
C109	C	1.518389	-0.356553	-0.116376
C110	C	2.018389	0.143447	0.383624
H111	H	1.217819	-0.451547	-0.640256
H112	H	1.717819	0.048453	-0.140256
H113	H	1.355482	-0.920790	-0.569012
H114	H	1.855482	-0.420790	-0.069012
H115	H	1.262215	-0.175924	-0.907184
H116	H	1.762215	0.324076	-0.407184
H117	H	0.819683	-0.451572	-0.640307
H118	H	1.319683	0.048428	-0.140307
H119	H	1.384114	-0.261797	-1.205762
H120	H	1.884114	0.238203	-0.705762
H121	H	1.262266	-0.175881	-1.106249
H122	H	1.762266	0.324119	-0.606249
H123	H	0.919229	-0.537597	-0.761972
H124	H	1.419229	-0.037597	-0.261972
H125	H	1.384001	-0.261872	-0.807626
H126	H	1.884001	0.238128	-0.307626
H127	H	1.118294	-0.537577	-0.761945
H128	H	1.618294	-0.037577	-0.261945
H129	H	1.455733	-0.792514	-0.669407
H130	H	1.955733	-0.292514	-0.169407
H131	H	1.692368	-0.791805	-0.481993
H132	H	2.192368	-0.291805	0.018007
H133	H	0.919220	-0.270695	-0.384464
H134	H	1.419220	0.229305	0.115536
H135	H	1.455932	-0.919744	-0.669927
H136	H	1.955932	-0.419744	-0.169927
H137	H	1.354596	-0.793163	-0.568521
H138	H	1.854596	-0.293163	-0.068521
H139	H	1.406489	-0.918991	-0.371879
H140	H	1.906489	-0.418991	0.128121
H141	H	1.640202	-0.442493	-1.106156
H142	H	2.140202	0.057507	-0.606156
H143	H	1.118289	-0.270666	-0.384453
H144	H	1.618289	0.229334	0.115547
H145	H	1.544161	-0.919668	-0.333192
H146	H	2.044161	-0.419668	0.166808
H147	H	1.656821	-0.920406	-0.613890
H148	H	2.156821	-0.420406	-0.113890
H149	H	1.545386	-0.792935	-0.333119
H150	H	2.045386	-0.292935	0.166881
H151	H	1.407872	-0.791918	-0.370962
H152	H	1.907872	-0.291918	0.129038
H153	H	1.640155	-0.442531	-0.907087
H154	H	2.140155	0.057469	-0.407087
H155	H	1.651443	-0.792844	-0.618442
H156	H	2.151443	-0.292844	-0.118442
H157	H	1.689828	-0.919119	-0.475245
H158	H	2.189828	-0.419119	0.024755
