data_functionalizedCrystal
_audit_creation_method	'MofGen! by Chris Wilmer'
_symmetry_space_group_name_H-M	'P1'
_symmetry_Int_Tables_number	1
_symmetry_cell_setting	triclinic
loop_
_symmetry_equiv_pos_as_xyz
  x,y,z
_cell_length_a	31.640172
_cell_length_b	27.440279
_cell_length_c	27.440280
_cell_angle_alpha	60.011579
_cell_angle_beta	89.998936
_cell_angle_gamma	60.006660
loop_
_atom_site_label
_atom_site_type_symbol
_atom_site_fract_x
_atom_site_fract_y
_atom_site_fract_z
Zr1	Zr	0.407332	0.533223	-0.063852
O2	O	0.339872	0.634863	-0.141636
O3	O	0.427992	0.431583	-0.040022
O4	O	0.428020	0.533212	-0.141663
O5	O	0.339845	0.533244	0.040198
O6	O	0.497576	0.533204	-0.141666
O7	O	0.339844	0.533234	-0.039996
O8	O	0.497526	0.351409	0.040151
O9	O	0.339895	0.715039	-0.141619
O10	O	0.488737	0.473383	-0.029843
O11	O	0.436828	0.473397	0.030007
O12	O	0.436862	0.593051	-0.089662
O13	O	0.384954	0.593064	-0.029812
Zr14	Zr	0.518268	0.533225	0.064042
Zr15	Zr	0.518266	0.533210	-0.063857
Zr16	Zr	0.407334	0.533238	0.064047
Zr17	Zr	0.407369	0.661095	-0.063824
Zr18	Zr	0.518231	0.405354	0.064014
O19	O	0.497608	0.634865	0.040213
O20	O	0.497606	0.634844	-0.141644
O21	O	0.339874	0.634884	0.040220
O22	O	0.585728	0.431586	0.141827
O23	O	0.585726	0.431565	-0.040029
O24	O	0.427994	0.431605	0.141834
O25	O	0.585755	0.533205	-0.040007
O26	O	0.497580	0.533237	0.141853
O27	O	0.428024	0.533245	0.141856
O28	O	0.585756	0.533215	0.040186
O29	O	0.428073	0.715028	-0.141623
O30	O	0.497527	0.351421	0.141813
O31	O	0.585705	0.351410	0.141809
O32	O	0.585703	0.351398	0.040146
O33	O	0.339897	0.715051	-0.039956
O34	O	0.428074	0.715040	-0.039960
O35	O	0.488738	0.473397	0.089852
O36	O	0.540646	0.473384	0.030002
O37	O	0.488772	0.593052	-0.029817
O38	O	0.436863	0.593065	0.030033
C39	C	0.462753	0.373277	0.000060
C40	C	0.462737	0.318992	0.000048
C41	C	0.435698	0.084241	0.031340
C42	C	0.435688	0.135271	0.031332
O43	O	0.412654	0.161653	0.057913
N44	N	0.462776	0.160789	0.000083
C45	C	0.489881	0.135269	-0.031154
O46	O	0.512921	0.161660	-0.057734
C47	C	0.489893	0.084237	-0.031143
C48	C	0.462799	0.058726	0.000103
C49	C	0.408606	0.058729	0.062584
C50	C	0.408616	0.007704	0.062590
C51	C	0.435717	-0.017811	0.031354
C52	C	0.462808	0.007700	0.000110
C53	C	0.517001	0.058715	-0.062377
C54	C	0.517012	0.007678	-0.062362
C55	C	0.489917	-0.017833	-0.031116
C56	C	0.489919	-0.068840	-0.031120
N57	N	0.462831	-0.094358	0.000128
C58	C	0.435730	-0.068844	0.031365
C59	C	0.489852	0.242441	-0.031176
C60	C	0.489837	0.293476	-0.031191
C61	C	0.435644	0.293473	0.031296
C62	C	0.435657	0.242440	0.031308
C63	C	0.462764	0.216922	0.000073
C64	C	0.435751	-0.176001	0.031377
C65	C	0.435761	-0.227029	0.031379
C66	C	0.489956	-0.227024	-0.031106
C67	C	0.489943	-0.175998	-0.031111
C68	C	0.462840	-0.150489	0.000135
O69	O	0.512943	-0.095256	-0.057686
O70	O	0.412699	-0.095247	0.057947
C71	C	0.324038	0.533241	0.000102
C72	C	0.276944	0.533246	0.000104
C73	C	-0.015062	0.533207	-0.044083
C74	C	-0.192049	0.533198	-0.044087
O75	O	-0.214922	0.533163	-0.081645
N76	N	-0.214179	0.533205	0.000091
C77	C	-0.192058	0.533209	0.044276
O78	O	-0.214939	0.533207	0.081857
C79	C	-0.015070	0.533213	0.044283
C80	C	0.007055	0.533213	0.000098
C81	C	0.007063	0.533206	-0.088264
C82	C	0.051305	0.533212	-0.088264
C83	C	0.073423	0.533219	-0.044083
C84	C	0.051297	0.533219	0.000098
C85	C	0.007053	0.533212	0.088470
C86	C	0.051303	0.533211	0.088468
C87	C	0.073428	0.533212	0.044283
C88	C	0.117657	0.533231	0.044278
N89	N	0.139787	0.533225	0.000099
C90	C	0.117670	0.533218	-0.044081
C91	C	-0.284979	0.533208	0.044269
C92	C	-0.329227	0.533209	0.044267
C93	C	-0.329214	0.533197	-0.044096
C94	C	-0.284968	0.533201	-0.044096
C95	C	-0.262849	0.533202	0.000091
C96	C	0.210582	0.533231	-0.044079
C97	C	0.254827	0.533240	-0.044077
C98	C	0.254812	0.533249	0.044288
C99	C	0.210569	0.533243	0.044284
C100	C	0.188456	0.533232	0.000098
O101	O	0.140561	0.533258	0.081820
O102	O	0.140565	0.533205	-0.081648
C103	C	-0.059305	0.533201	-0.044082
C104	C	-0.081430	0.533201	0.000099
C105	C	-0.059313	0.533207	0.044279
C106	C	-0.125677	0.533202	0.000096
C107	C	-0.147794	0.533195	-0.044084
C108	C	-0.125664	0.533189	-0.088263
C109	C	-0.081422	0.533195	-0.088263
C110	C	-0.081443	0.533214	0.088458
C111	C	-0.125685	0.533209	0.088454
C112	C	-0.147803	0.533203	0.044273
C113	C	0.601562	0.533208	0.000089
C114	C	0.648656	0.533202	0.000087
C115	C	0.462798	0.533206	-0.159887
C116	C	0.462797	0.533199	-0.214184
C117	C	0.462847	0.693172	0.000130
C118	C	0.462863	0.747456	0.000142
C119	C	0.435727	0.595701	-0.582143
C120	C	0.435728	0.595705	-0.633165
O121	O	0.412715	0.648829	-0.686108
N122	N	0.462805	0.533240	-0.627458
C123	C	0.489887	0.470768	-0.570723
O124	O	0.512919	0.417637	-0.570554
C125	C	0.489888	0.470765	-0.519702
C126	C	0.462805	0.533233	-0.525414
C127	C	0.408646	0.658165	-0.587852
C128	C	0.408644	0.658161	-0.536833
C129	C	0.435722	0.595693	-0.480105
C130	C	0.462803	0.533229	-0.474395
C131	C	0.516972	0.408293	-0.462969
C132	C	0.516972	0.408295	-0.411947
C133	C	0.489888	0.470764	-0.417659
C134	C	0.489879	0.470758	-0.366648
N135	N	0.462802	0.533222	-0.372356
C136	C	0.435723	0.595690	-0.429084
C137	C	0.489883	0.470779	-0.677873
C138	C	0.489879	0.470781	-0.728893
C139	C	0.435721	0.595719	-0.791331
C140	C	0.435722	0.595716	-0.740310
C141	C	0.462806	0.533244	-0.683581
C142	C	0.435721	0.595677	-0.321938
C143	C	0.435719	0.595667	-0.270912
C144	C	0.489879	0.470730	-0.208478
C145	C	0.489879	0.470739	-0.259500
C146	C	0.462798	0.533218	-0.316231
O147	O	0.512882	0.417660	-0.313686
O148	O	0.412701	0.648812	-0.429243
C149	C	0.462802	0.533243	0.160078
C150	C	0.462803	0.533249	0.214374
C151	C	0.601515	0.373261	0.000054
C152	C	0.648594	0.318970	0.000040
C153	C	0.462755	0.373296	0.160043
C154	C	0.462740	0.319017	0.214327
C155	C	0.601517	0.373279	0.160036
C156	C	0.648596	0.318995	0.214319
C157	C	0.324083	0.693169	-0.159846
C158	C	0.277004	0.747453	-0.214128
C159	C	0.324085	0.693188	0.000137
C160	C	0.277006	0.747478	0.000151
C161	C	0.462845	0.693153	-0.159852
C162	C	0.462860	0.747431	-0.214137
C163	C	0.643606	0.293475	-0.031211
C164	C	0.687837	0.242470	-0.031236
C165	C	0.737055	0.216959	-0.000007
C166	C	0.742042	0.242460	0.031245
C167	C	0.697811	0.293467	0.031266
C168	C	0.489829	0.293528	0.271064
C169	C	0.489813	0.242535	0.322075
C170	C	0.462710	0.217029	0.316348
C171	C	0.435618	0.242523	0.259606
C172	C	0.435631	0.293519	0.208596
C173	C	0.697805	0.293496	0.208569
C174	C	0.742046	0.242498	0.259569
C175	C	0.737076	0.216996	0.316317
C176	C	0.687861	0.242500	0.322065
C177	C	0.643622	0.293501	0.271066
C178	C	0.227795	0.772959	-0.208379
C179	C	0.183554	0.823973	-0.259378
C180	C	0.188524	0.849477	-0.316126
C181	C	0.237739	0.823970	-0.321874
C182	C	0.281978	0.772960	-0.270876
C183	C	0.281994	0.772979	0.031396
C184	C	0.237763	0.823998	0.031407
C185	C	0.188545	0.849511	0.000176
C186	C	0.183558	0.824008	-0.031073
C187	C	0.227789	0.772994	-0.031087
C188	C	0.489968	0.772922	-0.208391
C189	C	0.489992	0.823915	-0.259392
C190	C	0.462905	0.849421	-0.316139
C191	C	0.435796	0.823925	-0.321884
C192	C	0.435775	0.772929	-0.270883
H193	H	0.413595	0.221673	0.056751
H194	H	0.322045	0.752194	-0.275564
H195	H	0.603534	0.314245	-0.056649
H196	H	0.413574	0.314265	0.162400
H197	H	-0.063438	0.533218	0.124436
H198	H	0.512067	0.844668	-0.254703
H199	H	0.701862	0.314252	0.162367
O200	O	0.789809	0.217779	0.253871
C201	C	0.784704	0.251233	0.192846
H202	H	0.745220	0.272246	0.165658
H203	H	0.788339	0.295534	0.177814
C204	C	0.876047	0.173738	0.216613
C205	C	0.827554	0.199542	0.183220
H206	H	0.902480	0.141854	0.210675
H207	H	0.879487	0.151201	0.257726
H208	H	0.879069	0.210662	0.204083
H209	H	0.824530	0.162619	0.195756
H210	H	0.824114	0.222071	0.142108
H211	H	0.511900	0.314290	0.275738
H212	H	0.223720	0.752232	-0.056529
H213	H	0.413668	0.646583	-0.744967
O214	O	0.329763	0.748298	0.061746
C215	C	0.324670	0.781743	0.089334
H216	H	0.285198	0.833445	0.064840
H217	H	0.328283	0.748303	0.137815
C218	C	0.416023	0.730107	0.117150
C219	C	0.367545	0.793611	0.087063
H220	H	0.442472	0.737425	0.115752
H221	H	0.419455	0.707572	0.098566
H222	H	0.419027	0.702247	0.157549
H223	H	0.364540	0.821466	0.046664
H224	H	0.364114	0.816151	0.105640
O225	O	0.702568	0.318317	0.061583
C226	C	0.652980	0.368791	0.054929
H227	H	0.623646	0.391119	0.012738
H228	H	0.641705	0.344384	0.095288
C229	C	0.689696	0.399312	0.101954
C230	C	0.653668	0.426740	0.050132
H231	H	0.690120	0.435056	0.098998
H232	H	0.723105	0.365305	0.106439
H233	H	0.680295	0.378973	0.135581
H234	H	0.663072	0.447070	0.016507
H235	H	0.620261	0.460752	0.045641
O236	O	0.780106	0.167429	0.365793
C237	C	0.824602	0.150407	0.348542
H238	H	0.814439	0.164464	0.301453
H239	H	0.839509	0.180232	0.349471
C240	C	0.879283	0.055271	0.449887
C241	C	0.866801	0.072531	0.392053
H242	H	0.905314	0.007234	0.476728
H243	H	0.849305	0.066740	0.461510
H244	H	0.891702	0.080131	0.450653
H245	H	0.854376	0.047678	0.391286
H246	H	0.896778	0.061055	0.380431
H247	H	0.241834	0.844754	0.056856
H248	H	0.462926	0.890945	-0.357662
H249	H	0.241779	0.844742	-0.368085
H250	H	0.683822	0.221729	0.368276
O251	O	0.409558	0.848698	-0.377041
C252	C	0.444344	0.836215	-0.408419
H253	H	0.480013	0.829844	-0.388927
H254	H	0.456443	0.787181	-0.404202
C255	C	0.374009	0.905246	-0.498661
C256	C	0.417815	0.897427	-0.474724
H257	H	0.357645	0.943002	-0.539562
H258	H	0.350573	0.913655	-0.477522
H259	H	0.384098	0.864380	-0.495141
H260	H	0.407726	0.938289	-0.478238
H261	H	0.441249	0.889027	-0.495866
H262	H	0.069311	0.533209	0.124452
O263	O	0.516099	0.217891	0.377158
C264	C	0.496189	0.272328	0.383706
H265	H	0.476357	0.323345	0.337790
H266	H	0.466943	0.273019	0.408097
C267	C	0.565095	0.199280	0.476330
C268	C	0.540740	0.261940	0.419935
H269	H	0.592576	0.192872	0.498680
H270	H	0.578508	0.162604	0.471920
H271	H	0.540718	0.199863	0.496648
H272	H	0.565115	0.261353	0.399615
H273	H	0.527333	0.298616	0.424343
O274	O	0.543213	0.347589	-0.356853
C275	C	0.523289	0.309584	-0.350340
H276	H	0.481997	0.346139	-0.382634
H277	H	0.548405	0.270639	-0.360493
C278	C	0.574091	0.226401	-0.246223
C279	C	0.523374	0.271299	-0.285884
H280	H	0.574145	0.202782	-0.206463
H281	H	0.587516	0.252004	-0.250611
H282	H	0.595015	0.193953	-0.254691
H283	H	0.502452	0.303751	-0.277420
H284	H	0.509945	0.245700	-0.281493
O285	O	0.409391	0.748274	-0.276575
C286	C	0.385499	0.781716	-0.337599
H287	H	0.380162	0.833404	-0.364785
H288	H	0.410881	0.748260	-0.352640
C289	C	0.338882	0.730131	-0.313826
C290	C	0.332322	0.793618	-0.347216
H291	H	0.306080	0.737470	-0.319759
H292	H	0.354979	0.707598	-0.272713
H293	H	0.360035	0.702257	-0.326364
H294	H	0.311175	0.821487	-0.334673
H295	H	0.316220	0.816156	-0.388327
O296	O	0.276267	0.533208	-0.087028
C297	C	0.247248	0.533216	-0.126028
H298	H	0.225115	0.511518	-0.102228
H299	H	0.218706	0.588190	-0.167094
C300	C	0.311188	0.514921	-0.174537
C301	C	0.284007	0.488267	-0.145304
H302	H	0.333861	0.487197	-0.186431
H303	H	0.330738	0.514918	-0.148264
H304	H	0.287398	0.560733	-0.208756
H305	H	0.307796	0.442460	-0.111083
H306	H	0.264461	0.488261	-0.171573
H307	H	0.413680	-0.155236	0.056819
O308	O	0.382267	-0.016995	0.092971
C309	C	0.358324	0.016502	0.120509
H310	H	0.379583	0.037512	0.126712
H311	H	0.316288	0.060811	0.091213
C312	C	0.334127	-0.060945	0.174168
C313	C	0.360241	-0.035146	0.181790
H314	H	0.335307	-0.092803	0.211968
H315	H	0.350256	-0.083512	0.155613
H316	H	0.299099	-0.024015	0.149752
H317	H	0.395269	-0.072074	0.206199
H318	H	0.344118	-0.012587	0.200350
H319	H	0.512025	0.752163	-0.162190
H320	H	0.192583	0.533221	-0.080059
O321	O	0.595782	0.318360	0.276549
C322	C	0.557795	0.368830	0.219373
H323	H	0.575032	0.391147	0.185550
H324	H	0.543951	0.344422	0.206377
C325	C	0.490546	0.399376	0.261703
C326	C	0.511716	0.426790	0.220162
H327	H	0.462121	0.435128	0.262189
H328	H	0.516138	0.365372	0.300224
H329	H	0.479014	0.379037	0.250868
H330	H	0.523254	0.447121	0.231001
H331	H	0.486124	0.460799	0.181642
O332	O	-0.147168	0.533302	0.131364
C333	C	-0.162102	0.592661	0.128569
H334	H	-0.138559	0.612456	0.106109
H335	H	-0.205023	0.634214	0.101679
C336	C	-0.181150	0.550319	0.219767
C337	C	-0.152232	0.574628	0.192185
H338	H	-0.175064	0.539197	0.259008
H339	H	-0.171091	0.510328	0.221649
H340	H	-0.216916	0.584951	0.197352
H341	H	-0.116467	0.539993	0.214596
H342	H	-0.162285	0.614613	0.190308
O343	O	0.145635	0.899041	0.000279
C344	C	0.160598	0.916084	0.034545
H345	H	0.201431	0.871343	0.067562
H346	H	0.159810	0.964004	0.003799
C347	C	0.072696	0.985358	0.028359
C348	C	0.122846	0.930404	0.068914
H349	H	0.049408	0.994194	0.049557
H350	H	0.062614	0.973878	0.005271
H351	H	0.072046	1.025284	0.002740
H352	H	0.123496	0.890477	0.094527
H353	H	0.132927	0.941877	0.092007
O354	O	0.683014	0.217762	-0.061665
C355	C	0.706990	0.230206	-0.105511
H356	H	0.709047	0.274908	-0.117118
H357	H	0.747790	0.182061	-0.087650
C358	C	0.672761	0.193548	-0.147600
C359	C	0.675283	0.248456	-0.161859
H360	H	0.653205	0.204802	-0.182357
H361	H	0.656609	0.185162	-0.118059
H362	H	0.706763	0.153432	-0.132714
H363	H	0.641282	0.288568	-0.176737
H364	H	0.691429	0.256849	-0.191404
O365	O	0.223052	0.748096	-0.153213
C366	C	0.272646	0.697615	-0.109424
H367	H	0.301969	0.675295	-0.129309
H368	H	0.283931	0.722013	-0.093462
C369	C	0.235949	0.667079	-0.031870
C370	C	0.271964	0.639661	-0.056291
H371	H	0.235528	0.631331	0.000906
H372	H	0.202536	0.701090	-0.061371
H373	H	0.245357	0.687410	-0.018574
H374	H	0.262551	0.619338	-0.069594
H375	H	0.305375	0.605645	-0.026791
O376	O	0.382238	0.083631	0.092840
C377	C	0.344200	0.155089	0.052735
H378	H	0.355593	0.176722	0.011621
H379	H	0.305351	0.164787	0.038765
C380	C	0.325745	0.164257	0.133834
C381	C	0.339741	0.190827	0.083339
H382	H	0.322992	0.186302	0.152711
H383	H	0.351370	0.116113	0.160853
H384	H	0.293372	0.172339	0.122184
H385	H	0.372116	0.182736	0.094990
H386	H	0.314121	0.238970	0.056322
H387	H	0.143486	0.844732	-0.254686
H388	H	0.152498	0.891013	-0.357648
O389	O	0.409466	0.656341	-0.846488
C390	C	0.415268	0.642941	-0.890291
H391	H	0.451847	0.589250	-0.870419
H392	H	0.380258	0.645910	-0.906257
C393	C	0.374558	0.762763	-0.967822
C394	C	0.419488	0.696821	-0.943417
H395	H	0.377158	0.796000	-1.000594
H396	H	0.370647	0.771792	-0.938312
H397	H	0.345388	0.765228	-0.981122
H398	H	0.448656	0.694355	-0.930110
H399	H	0.423403	0.687794	-0.972926
O400	O	0.516177	0.410113	-0.153324
C401	C	0.510358	0.423513	-0.109521
H402	H	0.500386	0.477202	-0.129392
H403	H	0.477920	0.420547	-0.093558
C404	C	0.573537	0.303690	-0.031989
C405	C	0.561293	0.369630	-0.056393
H406	H	0.604955	0.270451	0.000784
H407	H	0.577457	0.294661	-0.061499
H408	H	0.546502	0.301228	-0.018691
H409	H	0.588325	0.372093	-0.069697
H410	H	0.557380	0.378657	-0.026884
H411	H	0.782122	0.221681	0.056670
O412	O	0.543407	0.083374	-0.092648
C413	C	0.596286	0.028942	-0.069687
H414	H	0.605864	-0.014393	-0.022072
H415	H	0.604957	0.008793	-0.098642
C416	C	0.617630	0.108463	-0.128292
C417	C	0.629395	0.055240	-0.069808
H418	H	0.638055	0.124685	-0.128369
H419	H	0.582005	0.145135	-0.143764
H420	H	0.624857	0.091665	-0.152415
H421	H	0.622163	0.072041	-0.045688
H422	H	0.665020	0.018571	-0.054333
H423	H	0.143478	0.844788	-0.056500
O424	O	0.409376	0.656324	-0.377074
C425	C	0.371337	0.660080	-0.408455
H426	H	0.382712	0.605846	-0.389000
H427	H	0.332482	0.690900	-0.404192
C428	C	0.352938	0.762421	-0.498664
C429	C	0.366911	0.695810	-0.474773
H430	H	0.350205	0.784463	-0.539573
H431	H	0.378563	0.759893	-0.477522
H432	H	0.320559	0.788096	-0.495107
H433	H	0.399291	0.670133	-0.478324
H434	H	0.341290	0.698335	-0.495917
H435	H	0.413696	-0.247796	0.056823
O436	O	-0.059983	0.533160	-0.131211
C437	C	-0.089007	0.533170	-0.170209
H438	H	-0.111141	0.511476	-0.146406
H439	H	-0.117548	0.588145	-0.211275
C440	C	-0.025071	0.514870	-0.218722
C441	C	-0.052253	0.488219	-0.189486
H442	H	-0.002400	0.487145	-0.230616
H443	H	-0.005518	0.514865	-0.192451
H444	H	-0.048860	0.560681	-0.252941
H445	H	-0.028464	0.442412	-0.155265
H446	H	-0.071801	0.488215	-0.215752
H447	H	0.413662	0.646539	-0.275570
O448	O	0.462774	0.167467	0.365964
C449	C	0.492488	0.150455	0.417266
H450	H	0.521140	0.164511	0.405547
H451	H	0.465820	0.180288	0.434450
C452	C	0.487077	0.055323	0.480319
C453	C	0.522270	0.072581	0.465926
H454	H	0.505447	0.007288	0.510336
H455	H	0.467056	0.066786	0.445756
H456	H	0.464856	0.080190	0.494635
H457	H	0.544487	0.047722	0.451604
H458	H	0.542296	0.061113	0.500488
H459	H	0.413578	0.314256	0.056732
O460	O	0.780003	0.167320	0.000042
C461	C	0.779887	0.108332	0.024850
H462	H	0.754869	0.108402	0.054746
H463	H	0.763550	0.108779	-0.012515
C464	C	0.866352	0.043109	0.025323
C465	C	0.835628	0.043193	0.062045
H466	H	0.900735	0.002928	0.048265
H467	H	0.866430	0.082852	0.008607
H468	H	0.852732	0.043485	-0.005812
H469	H	0.849245	0.042826	0.093175
H470	H	0.835554	0.003449	0.078768
H471	H	-0.347230	0.533193	-0.080070
H472	H	0.511893	0.314251	-0.056642
H473	H	0.413551	0.221748	0.254952
H474	H	0.512000	-0.155220	-0.056561
H475	H	0.539027	0.357424	-0.458306
O476	O	0.543410	-0.017216	-0.092611
C477	C	0.581425	-0.088683	-0.052514
H478	H	0.591482	-0.102624	-0.005455
H479	H	0.565925	-0.117873	-0.053605
C480	C	0.617950	-0.091364	-0.128606
C481	C	0.630306	-0.108485	-0.070809
H482	H	0.648101	-0.103581	-0.139892
H483	H	0.592337	-0.043216	-0.155621
H484	H	0.605033	-0.115691	-0.129508
H485	H	0.643216	-0.084152	-0.069909
H486	H	0.655922	-0.156630	-0.043793
O487	O	0.516273	-0.251912	-0.061395
C488	C	0.510460	-0.302410	-0.054694
H489	H	0.500474	-0.324703	-0.012505
H490	H	0.478034	-0.278038	-0.095046
C491	C	0.573665	-0.333000	-0.101675
C492	C	0.561405	-0.360385	-0.049854
H493	H	0.605089	-0.368760	-0.098693
H494	H	0.577580	-0.298977	-0.106192
H495	H	0.546639	-0.312691	-0.135297
H496	H	0.588427	-0.380686	-0.016235
H497	H	0.557495	-0.394413	-0.045332
O498	O	0.516255	0.217651	-0.061484
C499	C	0.569134	0.188166	-0.038520
H500	H	0.573553	0.211231	-0.015649
H501	H	0.590874	0.130072	-0.004803
C502	C	0.586130	0.174948	-0.117971
C503	C	0.591558	0.203281	-0.089884
H504	H	0.599964	0.184268	-0.149653
H505	H	0.550505	0.194810	-0.133441
H506	H	0.604248	0.126538	-0.089867
H507	H	0.573435	0.251690	-0.117986
H508	H	0.627180	0.183427	-0.074419
H509	H	-0.010940	0.533199	-0.124241
O510	O	0.072745	0.533175	-0.131210
C511	C	0.043722	0.533183	-0.170207
H512	H	0.021586	0.511492	-0.146405
H513	H	0.015182	0.588157	-0.211275
C514	C	0.107661	0.514875	-0.218717
C515	C	0.080477	0.488228	-0.189481
H516	H	0.130332	0.487148	-0.230608
H517	H	0.127214	0.514872	-0.192445
H518	H	0.083873	0.560686	-0.252936
H519	H	0.104265	0.442421	-0.155258
H520	H	0.060929	0.488223	-0.215747
H521	H	-0.347242	0.533219	0.080241
O522	O	-0.263528	0.533166	-0.087042
C523	C	-0.292552	0.533180	-0.126044
H524	H	-0.314689	0.511489	-0.102246
H525	H	-0.321090	0.588156	-0.167110
C526	C	-0.228611	0.514875	-0.174552
C527	C	-0.255797	0.488228	-0.145320
H528	H	-0.205941	0.487149	-0.186445
H529	H	-0.209058	0.514867	-0.148277
H530	H	-0.252398	0.560687	-0.208770
H531	H	-0.232011	0.442420	-0.111099
H532	H	-0.275346	0.488227	-0.171590
H533	H	-0.266973	0.533209	0.080252
O534	O	-0.014351	0.533175	0.131454
C535	C	0.014662	0.533191	0.170437
H536	H	0.055606	0.511503	0.168316
H537	H	-0.004467	0.588167	0.156548
C538	C	-0.033398	0.514880	0.237252
C539	C	0.016890	0.488237	0.234651
H540	H	-0.032025	0.487153	0.276862
H541	H	-0.052946	0.514872	0.210988
H542	H	-0.049334	0.560693	0.225675
H543	H	0.032823	0.442429	0.246221
H544	H	0.036442	0.488237	0.260919
H545	H	0.192550	0.533253	0.080259
H546	H	-0.143681	0.533187	-0.124238
O547	O	0.276311	0.533349	0.087122
C548	C	0.276161	0.592709	0.060093
H549	H	0.274203	0.612494	0.011840
H550	H	0.241095	0.634267	0.061130
C551	C	0.328416	0.550385	0.153616
C552	C	0.326016	0.574682	0.094352
H553	H	0.359167	0.539267	0.174749
H554	H	0.328515	0.510394	0.171827
H555	H	0.299191	0.585021	0.154472
H556	H	0.355236	0.540043	0.093496
H557	H	0.325922	0.614667	0.076141
H558	H	0.386592	0.709029	-0.541492
O559	O	0.382293	0.718913	-0.642911
C560	C	0.358407	0.774035	-0.636995
H561	H	0.353046	0.755707	-0.591469
H562	H	0.383804	0.793241	-0.641168
C563	C	0.311833	0.855570	-0.742311
C564	C	0.305245	0.833061	-0.686397
H565	H	0.279041	0.891981	-0.772786
H566	H	0.327927	0.818434	-0.746298
H567	H	0.332999	0.871570	-0.745780
H568	H	0.284085	0.817053	-0.682926
H569	H	0.289146	0.870196	-0.682411
H570	H	0.511926	0.419913	-0.724234
H571	H	0.511935	0.419904	-0.631682
H572	H	0.511925	0.419872	-0.254848
