data_functionalizedCrystal
_audit_creation_method	'MofGen! by Chris Wilmer'
_symmetry_space_group_name_H-M	'P1'
_symmetry_Int_Tables_number	1
_symmetry_cell_setting	triclinic
loop_
_symmetry_equiv_pos_as_xyz
  x,y,z
_cell_length_a	14.395555
_cell_length_b	14.628931
_cell_length_c	14.628931
_cell_angle_alpha	60.000164
_cell_angle_beta	89.999942
_cell_angle_gamma	60.001528
loop_
_atom_site_label
_atom_site_type_symbol
_atom_site_fract_x
_atom_site_fract_y
_atom_site_fract_z
Zr1	Zr	0.894876	1.000616	-0.119979
O2	O	0.746553	1.191314	-0.265936
O3	O	0.940345	0.809913	-0.075236
O4	O	0.940345	1.000617	-0.265941
O5	O	0.746552	1.000610	0.075201
O6	O	1.093213	1.000624	-0.265944
O7	O	0.746552	1.000609	-0.075231
O8	O	1.093211	0.659488	0.075192
O9	O	0.746553	1.341746	-0.265936
O10	O	1.073820	0.888359	-0.056156
O11	O	0.959737	0.888354	0.056112
O12	O	0.959738	1.112884	-0.168418
O13	O	0.845654	1.112879	-0.056150
Zr14	Zr	1.138681	1.000627	0.119936
Zr15	Zr	1.138682	1.000627	-0.119985
Zr16	Zr	0.894876	1.000617	0.119942
Zr17	Zr	0.894877	1.240537	-0.119979
Zr18	Zr	1.138681	0.760706	0.119936
O19	O	1.093213	1.191330	0.075193
O20	O	1.093213	1.191329	-0.265944
O21	O	0.746552	1.191315	0.075201
O22	O	1.287004	0.809929	0.265893
O23	O	1.287005	0.809928	-0.075244
O24	O	0.940344	0.809914	0.265901
O25	O	1.287005	1.000633	-0.075244
O26	O	1.093212	1.000626	0.265898
O27	O	0.940345	1.000619	0.265901
O28	O	1.287005	1.000634	0.075188
O29	O	0.940346	1.341754	-0.265940
O30	O	1.093211	0.659489	0.265897
O31	O	1.287004	0.659498	0.265893
O32	O	1.287004	0.659497	0.075187
O33	O	0.746553	1.341746	-0.075230
O34	O	0.940346	1.341755	-0.075235
O35	O	1.073820	0.888359	0.168375
O36	O	1.187903	0.888364	0.056107
O37	O	1.073821	1.112889	-0.056155
O38	O	0.959737	1.112885	0.056113
C39	C	1.016778	0.700517	-0.000022
C40	C	1.016778	0.598664	-0.000022
C41	C	1.096812	0.474500	0.078735
C42	C	1.096814	0.369228	0.078736
C43	C	0.711815	1.000608	-0.000014
C44	C	0.608313	1.000603	-0.000012
C45	C	0.609927	0.878182	0.061196
C46	C	0.516912	0.939381	0.105564
C47	C	0.516901	0.939410	-0.044347
C48	C	0.516661	1.061803	0.044417
C49	C	0.516664	1.061814	-0.105552
C50	C	0.423631	1.123102	-0.061212
C51	C	1.321742	1.000635	-0.000029
C52	C	1.425244	1.000640	-0.000031
C53	C	1.016779	1.000621	-0.300126
C54	C	1.016779	1.000620	-0.401979
C55	C	1.016779	1.300726	-0.000021
C56	C	1.016779	1.402579	-0.000021
C57	C	0.960187	1.112000	-0.503078
C58	C	0.960186	1.112002	-0.608350
C59	C	1.016778	1.000622	0.300083
C60	C	1.016778	1.000623	0.401936
C61	C	1.321742	0.700531	-0.000029
C62	C	1.425243	0.598682	-0.000032
C63	C	1.016778	0.700518	0.300083
C64	C	1.016777	0.598665	0.401935
C65	C	1.321741	0.700531	0.300076
C66	C	1.425243	0.598684	0.401926
C67	C	0.711816	1.300712	-0.300119
C68	C	0.608315	1.402560	-0.401969
C69	C	0.711816	1.300713	-0.000014
C70	C	0.608314	1.402561	-0.000011
C71	C	1.016780	1.300725	-0.300126
C72	C	1.016780	1.402578	-0.401978
C73	C	1.414795	0.553273	-0.055723
C74	C	1.521768	0.448007	-0.055727
C75	C	1.073370	0.553259	0.503034
C76	C	1.073371	0.447989	0.608306
C77	C	1.527980	0.553279	0.391641
C78	C	1.634955	0.448014	0.496907
H79	H	0.948257	0.627030	-0.067446
H80	H	1.065226	0.905262	-0.511339
H81	H	0.515985	0.887642	0.194811
C82	C	1.505439	0.455352	0.609676
N83	N	1.415755	0.495087	0.618462
C84	C	0.717679	0.738338	0.131216
N85	N	0.798837	0.633010	0.183959
H86	H	0.968322	0.559610	0.393316
H87	H	1.121815	0.592324	0.511653
H88	H	1.065233	0.905266	-0.393360
H89	H	1.326654	0.592331	-0.103404
C90	C	1.539821	0.606037	0.274466
N91	N	1.548743	0.645771	0.186208
H92	H	1.121823	0.408939	0.695035
H93	H	1.513384	0.559633	0.047640
C94	C	0.951336	0.455309	0.480856
N95	N	0.902049	0.495024	0.392602
C96	C	1.754021	0.395264	0.485242
N97	N	1.843705	0.355531	0.476457
H98	H	1.416483	0.559630	0.488662
H99	H	0.911728	1.207359	-0.695078
H100	H	0.911742	1.207355	-0.511697
H101	H	0.517634	1.113509	-0.194780
H102	H	1.165327	0.446134	0.146164
H103	H	1.512999	0.408952	-0.103402
C104	C	0.924207	0.546422	-0.091121
N105	N	0.854481	0.654772	-0.159738
H106	H	0.517487	1.113506	0.082007
C107	C	0.316058	1.263065	-0.131139
N108	N	0.235034	1.368485	-0.183804
C109	C	1.636359	0.455360	0.064375
N110	N	1.645285	0.495102	0.112889
H111	H	1.165335	0.262751	0.146162
H112	H	0.515990	0.887646	-0.081836
