data_functionalizedCrystal
_audit_creation_method	'MofGen! by Chris Wilmer'
_symmetry_space_group_name_H-M	'P1'
_symmetry_Int_Tables_number	1
_symmetry_cell_setting	triclinic
loop_
_symmetry_equiv_pos_as_xyz
  x,y,z
_cell_length_a	8.597213
_cell_length_b	8.597304
_cell_length_c	7.088929
_cell_angle_alpha	76.027438
_cell_angle_beta	88.663806
_cell_angle_gamma	84.294033
loop_
_atom_site_label
_atom_site_type_symbol
_atom_site_fract_x
_atom_site_fract_y
_atom_site_fract_z
O1	O	2.032054	0.288400	-0.541205
O2	O	1.582601	0.299151	-0.468945
O3	O	1.819920	0.061834	-0.468939
O4	O	1.794735	0.525716	-0.541210
O5	O	1.851636	0.030045	-0.150951
O6	O	1.614316	0.267362	-0.150957
O7	O	2.063770	0.256611	-0.223217
Cu8	Cu	1.841939	0.259084	-0.158052
Cu9	Cu	1.804432	0.296678	-0.534110
O10	O	1.826450	0.493927	-0.223222
C11	C	1.540950	0.280331	-0.299997
C12	C	1.369592	0.271596	-0.270333
C13	C	1.834840	-0.013556	-0.299994
C14	C	1.832028	-0.190836	-0.270338
C15	C	2.105420	0.275431	-0.392169
C16	C	2.276777	0.284168	-0.421845
C17	C	1.811530	0.569318	-0.392172
C18	C	1.814341	0.746599	-0.421841
N19	N	1.868331	0.232641	0.106445
N20	N	1.778052	0.323108	-0.798607
H21	H	1.317953	0.254153	-0.117921
H22	H	1.684489	0.416858	0.119714
H23	H	1.801343	-0.171340	-0.574248
H24	H	1.845004	-0.272903	-0.117917
H25	H	1.961911	0.138898	0.188130
H26	H	1.328406	0.301627	-0.574250
