data_functionalizedCrystal
_audit_creation_method	'MofGen! by Chris Wilmer'
_symmetry_space_group_name_H-M	'P1'
_symmetry_Int_Tables_number	1
_symmetry_cell_setting	triclinic
loop_
_symmetry_equiv_pos_as_xyz
  x,y,z
_cell_length_a	14.519709
_cell_length_b	15.944551
_cell_length_c	13.596369
_cell_angle_alpha	89.993059
_cell_angle_beta	90.000291
_cell_angle_gamma	83.589442
loop_
_atom_site_label
_atom_site_type_symbol
_atom_site_fract_x
_atom_site_fract_y
_atom_site_fract_z
O1	O	1.223676	0.110109	-0.081665
O2	O	0.955176	0.123076	-0.081696
O3	O	1.096758	-0.005672	-0.081671
O4	O	1.082094	0.238856	-0.081690
O5	O	1.096744	-0.005679	0.081912
O6	O	0.955162	0.123069	0.081887
O7	O	1.223662	0.110102	0.081917
Zn8	Zn	1.089410	0.116584	0.107875
Zn9	Zn	1.089428	0.116593	-0.107653
O10	O	1.082080	0.238850	0.081893
C11	C	0.920810	0.122468	0.000092
C12	C	0.818432	0.120657	0.000081
C13	C	1.096142	-0.036970	0.000121
C14	C	1.094317	-0.130219	0.000121
C15	C	0.443548	0.113990	0.000126
C16	C	0.547853	0.115842	0.000113
C17	C	0.630987	0.117323	0.000102
C18	C	0.735298	0.119175	0.000091
C19	C	1.002196	-0.345209	0.000097
C20	C	1.044967	-0.406168	0.080758
C21	C	1.091015	-0.300950	0.000113
C22	C	1.045002	-0.406144	-0.080522
C23	C	1.087820	-0.465867	0.000101
C24	C	1.133811	-0.360680	0.080841
C25	C	1.133833	-0.360650	-0.080512
C26	C	1.176669	-0.421591	0.000169
C27	C	1.092854	-0.205945	0.000121
C28	C	1.085988	-0.560871	0.000100
C29	C	1.258028	0.110710	0.000128
C30	C	1.360406	0.112521	0.000132
C31	C	1.082696	0.270148	0.000099
C32	C	1.084521	0.363397	0.000092
N33	N	1.089404	0.116578	0.254966
N34	N	1.089442	0.116593	-0.254745
C35	C	1.089427	0.116594	0.656257
C36	C	1.089418	0.116592	0.544606
C37	C	1.089416	0.116587	0.455615
C38	C	1.089406	0.116584	0.343957
H39	H	0.928471	-0.312009	0.000169
H40	H	1.007394	-0.426333	0.148942
O41	O	1.178522	-0.336629	0.162256
C42	C	1.230447	-0.221216	0.253569
C43	C	1.179779	-0.248338	0.161338
H44	H	1.231497	-0.149833	0.252846
H45	H	1.192835	-0.240285	0.322250
H46	H	1.304585	-0.253471	0.253857
H47	H	1.105639	-0.216097	0.160954
H48	H	1.217463	-0.229285	0.092699
H49	H	1.171374	-0.340463	-0.148699
O50	O	1.264711	-0.460992	0.000403
C51	C	1.410958	-0.482462	0.085627
C52	C	1.311272	-0.437802	0.085491
H53	H	1.448638	-0.463716	0.154403
H54	H	1.408986	-0.553738	0.085039
H55	H	1.449072	-0.462950	0.017491
H56	H	1.273100	-0.457246	0.153615
H57	H	1.313311	-0.366535	0.086028
O58	O	1.000055	-0.430056	-0.161847
C59	C	0.857260	-0.418027	-0.253707
C60	C	0.908065	-0.390870	-0.161584
H61	H	0.782872	-0.386372	-0.253514
H62	H	0.894340	-0.398380	-0.322470
H63	H	0.856947	-0.489493	-0.253301
H64	H	0.908393	-0.319408	-0.161895
H65	H	0.870969	-0.410579	-0.092861
