data_functionalizedCrystal
_audit_creation_method	'MofGen! by Chris Wilmer'
_symmetry_space_group_name_H-M	'P1'
_symmetry_Int_Tables_number	1
_symmetry_cell_setting	triclinic
loop_
_symmetry_equiv_pos_as_xyz
  x,y,z
_cell_length_a	27.732048
_cell_length_b	16.974800
_cell_length_c	16.053802
_cell_angle_alpha	91.074188
_cell_angle_beta	92.539157
_cell_angle_gamma	83.017409
loop_
_atom_site_label
_atom_site_type_symbol
_atom_site_fract_x
_atom_site_fract_y
_atom_site_fract_z
O1	O	0.061614	1.048327	0.001421
O2	O	0.561614	1.548327	0.501421
O3	O	0.069013	0.818776	-0.014097
O4	O	0.569013	1.318776	0.485903
O5	O	-0.005041	0.940680	-0.005840
O6	O	0.494959	1.440680	0.494160
O7	O	0.135668	0.926423	-0.006836
O8	O	0.635668	1.426423	0.493164
O9	O	-0.000981	0.933970	0.132564
O10	O	0.499019	1.433970	0.632564
O11	O	0.073073	0.812066	0.124307
O12	O	0.573073	1.312066	0.624307
O13	O	0.065674	1.041618	0.139826
O14	O	0.565674	1.541618	0.639826
Zn15	Zn	0.070018	0.925776	0.154041
Zn16	Zn	0.570018	1.425776	0.654041
Zn17	Zn	0.064669	0.934617	-0.028313
Zn18	Zn	0.564669	1.434617	0.471687
O19	O	0.139728	0.919713	0.131569
O20	O	0.639728	1.419713	0.631569
C21	C	0.070687	0.786062	0.053120
C22	C	0.570687	1.286062	0.553120
C23	C	0.069622	0.698582	0.047207
C24	C	0.569622	1.198582	0.547207
C25	C	0.071332	0.653831	0.119875
C26	C	0.571332	1.153831	0.619875
C27	C	0.070323	0.571637	0.114321
C28	C	0.570323	1.071637	0.614321
C29	C	0.067607	0.534193	0.036098
C30	C	0.567607	1.034193	0.536098
C31	C	0.065894	0.578951	-0.036575
C32	C	0.565894	1.078951	0.463425
C33	C	0.066900	0.661145	-0.031021
C34	C	0.566900	1.161145	0.468979
C35	C	0.064358	0.288763	0.011396
C36	C	0.564358	0.788763	0.511396
C37	C	0.063354	0.206562	0.005846
C38	C	0.563354	0.706562	0.505846
C39	C	0.067783	0.199254	0.156743
C40	C	0.567783	0.699254	0.656743
C41	C	0.068791	0.281449	0.162291
C42	C	0.568791	0.781449	0.662291
C43	C	0.067076	0.326200	0.089618
C44	C	0.567076	0.826200	0.589618
N45	N	0.066577	0.450177	0.030419
N46	N	0.566577	0.950177	0.530419
N47	N	0.068102	0.410216	0.095297
N48	N	0.568102	0.910216	0.595297
C49	C	-0.021020	0.937026	0.063344
C50	C	0.478980	1.437026	0.563344
C51	C	-0.074680	0.936124	0.063290
C52	C	0.425320	1.436124	0.563290
C53	C	-0.413107	1.002490	0.067734
C54	C	0.086893	1.502490	0.567734
C55	C	-0.614786	0.999147	0.067496
C56	C	-0.114786	1.499147	0.567496
O57	O	-0.645687	1.059834	0.071562
O58	O	-0.145687	1.559834	0.571562
N59	N	-0.634334	0.926862	0.062610
N60	N	-0.134334	1.426862	0.562610
C61	C	-0.603458	0.855408	0.057778
C62	C	-0.103458	1.355408	0.557778
O63	O	-0.624713	0.793849	0.053608
O64	O	-0.124713	1.293849	0.553608
C65	C	-0.401780	0.858753	0.058009
C66	C	0.098220	1.358753	0.558009
C67	C	-0.382235	0.931042	0.062904
C68	C	0.117765	1.431042	0.562904
C69	C	-0.393561	1.074773	0.072627
C70	C	0.106439	1.574773	0.572627
C71	C	-0.343144	1.075608	0.072691
C72	C	0.156856	1.575608	0.572691
C73	C	-0.312273	1.004160	0.067862
C74	C	0.187727	1.504160	0.567862
C75	C	-0.331818	0.931877	0.062968
C76	C	0.168182	1.431877	0.562968
C77	C	-0.370906	0.787300	0.053171
C78	C	0.129094	1.287300	0.553171
C79	C	-0.320483	0.788143	0.053227
C80	C	0.179517	1.288143	0.553227
C81	C	-0.300938	0.860432	0.058122
C82	C	0.199062	1.360432	0.558122
C83	C	-0.250529	0.861263	0.058202
C84	C	0.249471	1.361263	0.558202
N85	N	-0.230982	0.933548	0.063089
N86	N	0.269018	1.433548	0.563089
C87	C	-0.261853	1.004996	0.067918
C88	C	0.238147	1.504996	0.567918
C89	C	-0.709343	0.853657	0.057658
C90	C	-0.209343	1.353657	0.557658
C91	C	-0.759762	0.852821	0.057602
C92	C	-0.259762	1.352821	0.557602
C93	C	-0.771087	0.996560	0.067318
C94	C	-0.271087	1.496560	0.567318
C95	C	-0.720666	0.997395	0.067381
C96	C	-0.220666	1.497395	0.567381
C97	C	-0.689795	0.925942	0.062544
C98	C	-0.189795	1.425942	0.562544
C99	C	-0.155973	1.006744	0.068053
C100	C	0.344027	1.506744	0.568053
C101	C	-0.105551	1.007573	0.068120
C102	C	0.394449	1.507573	0.568120
C103	C	-0.094231	0.863834	0.058398
C104	C	0.405769	1.363834	0.558398
C105	C	-0.144649	0.863005	0.058336
C106	C	0.355351	1.363005	0.558336
C107	C	-0.175519	0.934467	0.063161
C108	C	0.324481	1.434467	0.563161
O109	O	-0.219600	0.800609	0.054129
O110	O	0.280400	1.300609	0.554129
O111	O	-0.240590	1.066547	0.072069
O112	O	0.259410	1.566547	0.572069
C113	C	-0.463524	1.001655	0.067670
C114	C	0.036476	1.501655	0.567670
C115	C	-0.483069	0.929372	0.062776
C116	C	0.016931	1.429372	0.562776
C117	C	-0.452197	0.857924	0.057947
C118	C	0.047803	1.357924	0.557947
C119	C	-0.533488	0.928536	0.062720
C120	C	-0.033488	1.428536	0.562720
C121	C	-0.564360	0.999984	0.067550
C122	C	-0.064360	1.499984	0.567550
C123	C	-0.544812	1.072269	0.072436
C124	C	-0.044812	1.572269	0.572436
C125	C	-0.494395	1.073104	0.072500
C126	C	0.005605	1.573104	0.572500
C127	C	-0.471745	0.785639	0.053061
C128	C	0.028255	1.285639	0.553061
C129	C	-0.522163	0.784810	0.052998
C130	C	-0.022163	1.284810	0.552998
C131	C	-0.553034	0.856258	0.057828
C132	C	-0.053034	1.356258	0.557828
C133	C	0.155706	0.923367	0.062382
C134	C	0.655706	1.423367	0.562382
C135	C	0.209366	0.924269	0.062431
C136	C	0.709366	1.424269	0.562431
C137	C	0.064000	1.074331	0.072606
C138	C	0.564000	1.574331	0.572606
C139	C	0.065065	1.161811	0.078514
C140	C	0.565065	1.661811	0.578514
N141	N	0.073667	0.919749	0.278493
N142	N	0.573667	1.419749	0.778493
N143	N	0.061016	0.940651	-0.152764
N144	N	0.561016	1.440651	0.347236
C145	C	0.042169	0.971638	0.325702
C146	C	0.542169	1.471638	0.825702
C147	C	0.044726	0.967429	0.412823
C148	C	0.544726	1.467429	0.912823
C149	C	0.078785	0.911334	0.452735
C150	C	0.578785	1.411334	0.952735
C151	C	0.110286	0.859439	0.405520
C152	C	0.610286	1.359439	0.905520
C153	C	0.107725	0.863645	0.318400
C154	C	0.607725	1.363645	0.818400
C155	C	0.089956	0.892962	0.712900
C156	C	0.589956	1.392962	1.212900
C157	C	0.092515	0.888761	0.800027
C158	C	0.592515	1.388761	1.300027
C159	C	0.026954	0.996751	0.807325
C160	C	0.526954	1.496751	1.307325
C161	C	0.024399	1.000955	0.720202
C162	C	0.524399	1.500955	1.220202
C163	C	0.055897	0.949057	0.672995
C164	C	0.555897	1.449057	1.172995
N165	N	0.081402	0.907032	0.541787
N166	N	0.581402	1.407032	1.041787
N167	N	0.053279	0.953356	0.583944
N168	N	0.553279	1.453356	1.083944
H169	H	0.065508	0.697580	-0.090195
H170	H	0.565508	1.197580	0.409805
H171	H	0.061144	0.176078	-0.057855
H172	H	0.561144	0.676078	0.442145
Cl173	Cl	-0.080984	1.098457	0.074272
Cl174	Cl	0.419016	1.598457	0.574272
Cl175	Cl	0.005127	1.032661	0.472173
Cl176	Cl	0.505127	1.532661	0.972173
H177	H	-0.327236	1.134474	0.076674
H178	H	0.172764	1.634474	0.576674
Cl179	Cl	-0.670540	0.763821	0.051578
Cl180	Cl	-0.170540	1.263821	0.551578
H181	H	0.071001	0.311930	0.225988
H182	H	0.571001	0.811930	0.725988
Cl183	Cl	-0.194774	1.096583	0.074120
Cl184	Cl	0.305226	1.596583	0.574120
Cl185	Cl	0.062203	0.345010	-0.079966
Cl186	Cl	0.562203	0.845010	0.420034
H187	H	-0.418693	1.132959	0.076557
H188	H	0.081307	1.632959	0.576557
H189	H	0.001309	1.039002	0.845769
H190	H	0.501309	1.539002	1.345769
H191	H	0.073548	0.684310	0.183572
H192	H	0.573548	1.184310	0.683572
H193	H	0.115604	0.850706	0.674471
H194	H	0.615604	1.350706	1.174471
H195	H	-0.478487	1.131969	0.076485
H196	H	0.021513	1.631969	0.576485
Cl197	Cl	0.072483	0.515380	0.205680
Cl198	Cl	0.572483	1.015380	0.705680
Cl199	Cl	0.069936	0.142992	0.248098
Cl200	Cl	0.569936	0.642992	0.748098
Cl201	Cl	-0.696101	1.088276	0.073533
Cl202	Cl	-0.196101	1.588276	0.573533
H203	H	0.063679	0.548459	-0.100266
H204	H	0.563679	1.048459	0.399734
Cl205	Cl	-0.395464	0.696417	0.047012
Cl206	Cl	0.104536	1.196417	0.547012
Cl207	Cl	-0.583632	1.162088	0.078511
Cl208	Cl	-0.083632	1.662088	0.578511
Cl209	Cl	-0.809906	1.086380	0.073386
Cl210	Cl	-0.309906	1.586380	0.573386
H211	H	-0.003335	1.046632	0.687708
H212	H	0.496665	1.546632	1.187708
Cl213	Cl	0.153101	0.788915	0.455692
Cl214	Cl	0.653101	1.288915	0.955692
Cl215	Cl	-0.784326	0.761939	0.051464
Cl216	Cl	-0.284326	1.261939	0.551464
H217	H	-0.295350	0.729956	0.049287
H218	H	0.204650	1.229956	0.549287
Cl219	Cl	-0.169220	0.772126	0.052198
Cl220	Cl	0.330780	1.272126	0.552198
Cl221	Cl	-0.055412	0.774019	0.052325
Cl222	Cl	0.444588	1.274019	0.552325
Cl223	Cl	-0.546726	0.693922	0.046848
Cl224	Cl	-0.046726	1.193922	0.546848
H225	H	-0.446614	0.727456	0.049126
H226	H	0.053386	1.227456	0.549126
Cl227	Cl	-0.000649	1.042165	0.275537
Cl228	Cl	0.499351	1.542165	0.775537
H229	H	0.120252	0.843080	0.832518
H230	H	0.620252	1.343080	1.332518
H231	H	0.133374	0.821391	0.279963
H232	H	0.633374	1.321391	0.779963
