data_functionalizedCrystal
_audit_creation_method	'MofGen! by Chris Wilmer'
_symmetry_space_group_name_H-M	'P1'
_symmetry_Int_Tables_number	1
_symmetry_cell_setting	triclinic
loop_
_symmetry_equiv_pos_as_xyz
  x,y,z
_cell_length_a	12.645331
_cell_length_b	29.839131
_cell_length_c	12.645323
_cell_angle_alpha	89.971457
_cell_angle_beta	89.977324
_cell_angle_gamma	90.040681
loop_
_atom_site_label
_atom_site_type_symbol
_atom_site_fract_x
_atom_site_fract_y
_atom_site_fract_z
Zn1	Zn	1.620554	-0.178862	-0.599419
Zn2	Zn	2.120554	0.321138	-0.099419
Zn3	Zn	1.620362	-0.253994	-0.422148
Zn4	Zn	2.120362	0.246006	0.077852
Zn5	Zn	1.443269	-0.178877	-0.422164
Zn6	Zn	1.943269	0.321123	0.077836
Zn7	Zn	1.443176	-0.253964	-0.599363
Zn8	Zn	1.943176	0.246036	-0.099363
O9	O	1.531840	-0.216424	-0.510773
O10	O	2.031840	0.283576	-0.010773
O11	O	1.768876	-0.188834	-0.575921
O12	O	2.268876	0.311166	-0.075921
O13	O	1.596828	-0.244048	-0.273803
O14	O	2.096828	0.255952	0.226197
O15	O	1.466906	-0.116008	-0.445707
O16	O	1.966906	0.383992	0.054293
O17	O	1.768735	-0.244033	-0.445680
O18	O	2.268735	0.255967	0.054320
O19	O	1.597156	-0.115997	-0.575936
O20	O	2.097156	0.384003	-0.075936
O21	O	1.466719	-0.188860	-0.273814
O22	O	1.966719	0.311140	0.226186
O23	O	1.294909	-0.188832	-0.445653
O24	O	1.794909	0.311168	0.054347
O25	O	1.466748	-0.243983	-0.747718
O26	O	1.966748	0.256017	-0.247718
O27	O	1.294841	-0.243998	-0.575840
O28	O	1.794841	0.256002	-0.075840
O29	O	1.597067	-0.188806	-0.747759
O30	O	2.097067	0.311194	-0.247759
O31	O	1.596738	-0.316857	-0.445626
O32	O	2.096738	0.183143	0.054374
O33	O	1.466561	-0.316835	-0.575825
O34	O	1.966561	0.183165	-0.075825
C35	C	1.256411	-0.216414	-0.510743
C36	C	1.756411	0.283586	-0.010743
C37	C	1.138581	-0.216420	-0.510755
C38	C	1.638581	0.283580	-0.010755
C39	C	1.531648	-0.333147	-0.510741
C40	C	2.031648	0.166853	-0.010741
C41	C	1.531662	-0.383081	-0.510762
C42	C	2.031662	0.116919	-0.010762
C43	C	0.971024	-0.181555	-0.429305
C44	C	1.471024	0.318445	0.070695
C45	C	1.093584	-0.181645	-0.428947
C46	C	1.593584	0.318355	0.071053
C47	C	1.094014	-0.263746	-0.480233
C48	C	1.594014	0.236254	0.019767
C49	C	0.971415	-0.263555	-0.479677
C50	C	1.471415	0.236445	0.020323
C51	C	0.971443	-0.204409	-0.623041
C52	C	1.471443	0.295591	-0.123041
C53	C	1.094050	-0.203352	-0.622417
C54	C	1.594050	0.296648	-0.122417
C55	C	1.464101	-0.739673	-0.578564
C56	C	1.964101	-0.239673	-0.078564
C57	C	1.463961	-0.552000	-0.578531
C58	C	1.963961	-0.052000	-0.078531
O59	O	1.406286	-0.527739	-0.636158
O60	O	1.906286	-0.027739	-0.136158
N61	N	1.531774	-0.528526	-0.510794
N62	N	2.031774	-0.028526	-0.010794
C63	C	1.599632	-0.551974	-0.443066
C64	C	2.099632	-0.051974	0.056934
O65	O	1.657317	-0.527702	-0.385459
O66	O	2.157317	-0.027702	0.114541
C67	C	1.599777	-0.739646	-0.443105
C68	C	2.099777	-0.239646	0.056895
C69	C	1.531952	-0.763117	-0.510839
C70	C	2.031952	-0.263117	-0.010839
C71	C	1.396281	-0.763144	-0.646292
C72	C	1.896281	-0.263144	-0.146292
C73	C	1.396313	-0.810059	-0.646296
C74	C	1.896313	-0.310059	-0.146296
C75	C	1.464164	-0.833504	-0.578571
C76	C	1.964164	-0.333504	-0.078571
C77	C	1.531983	-0.810033	-0.510842
C78	C	2.031983	-0.310033	-0.010842
C79	C	1.667640	-0.763093	-0.375383
C80	C	2.167640	-0.263093	0.124617
C81	C	1.667672	-0.810014	-0.375401
C82	C	2.167672	-0.310014	0.124599
C83	C	1.599846	-0.833485	-0.443134
C84	C	2.099846	-0.333485	0.056866
C85	C	1.599866	-0.880393	-0.443121
C86	C	2.099866	-0.380393	0.056879
N87	N	1.532052	-0.903866	-0.510857
N88	N	2.032052	-0.403866	-0.010857
C89	C	1.464201	-0.880422	-0.578582
C90	C	1.964201	-0.380422	-0.078582
C91	C	1.599550	-0.453444	-0.443049
C92	C	2.099550	0.046556	0.056951
C93	C	1.599513	-0.406526	-0.443037
C94	C	2.099513	0.093474	0.056963
C95	C	1.463842	-0.406555	-0.578504
C96	C	1.963842	0.093445	-0.078504
C97	C	1.463875	-0.453473	-0.578509
C98	C	1.963875	0.046527	-0.078509
C99	C	1.531737	-0.476917	-0.510785
C100	C	2.031737	0.023083	-0.010785
C101	C	1.464272	-0.978947	-0.578584
C102	C	1.964272	-0.478947	-0.078584
C103	C	1.464307	-1.025867	-0.578578
C104	C	1.964307	-0.525867	-0.078578
C105	C	1.599981	-1.025834	-0.443116
C106	C	2.099981	-0.525834	0.056884
C107	C	1.599943	-0.978919	-0.443118
C108	C	2.099943	-0.478919	0.056882
C109	C	1.532085	-0.955476	-0.510860
C110	C	2.032085	-0.455476	-0.010860
O111	O	1.657518	-0.904682	-0.385532
O112	O	2.157518	-0.404682	0.114468
O113	O	1.406542	-0.904702	-0.636197
O114	O	1.906542	-0.404702	-0.136197
C115	C	1.464069	-0.692757	-0.578560
C116	C	1.964069	-0.192757	-0.078560
C117	C	1.531888	-0.669286	-0.510832
C118	C	2.031888	-0.169286	-0.010832
C119	C	1.599739	-0.692731	-0.443107
C120	C	2.099739	-0.192731	0.056893
C121	C	1.531851	-0.622369	-0.510820
C122	C	2.031851	-0.122369	-0.010820
C123	C	1.464000	-0.598924	-0.578545
C124	C	1.964000	-0.098924	-0.078545
C125	C	1.396187	-0.622398	-0.646282
C126	C	1.896187	-0.122398	-0.146282
C127	C	1.396218	-0.669313	-0.646285
C128	C	1.896218	-0.169313	-0.146285
C129	C	1.667553	-0.669258	-0.375370
C130	C	2.167553	-0.169258	0.124630
C131	C	1.667515	-0.622342	-0.375371
C132	C	2.167515	-0.122342	0.124629
C133	C	1.599664	-0.598898	-0.443096
C134	C	2.099664	-0.098898	0.056904
C135	C	1.808346	-0.216435	-0.510805
C136	C	2.308346	0.283565	-0.010805
C137	C	1.926176	-0.216440	-0.510818
C138	C	2.426176	0.283560	-0.010818
C139	C	1.531918	-0.216390	-0.787279
C140	C	2.031918	0.283610	-0.287279
C141	C	1.531952	-0.216375	-0.905109
C142	C	2.031952	0.283625	-0.405109
C143	C	1.532063	-0.099246	-0.510829
C144	C	2.032063	0.400754	-0.010829
C145	C	1.532158	-0.049312	-0.510853
C146	C	2.032158	0.450688	-0.010853
C147	C	1.449716	-0.250923	-1.072647
C148	C	1.949716	0.249077	-0.572647
C149	C	1.449931	-0.251094	-0.950087
C150	C	1.949931	0.248906	-0.450087
C151	C	1.643639	-0.229224	-0.949627
C152	C	2.143639	0.270776	-0.449627
C153	C	1.643188	-0.229441	-1.072225
C154	C	2.143188	0.270559	-0.572225
C155	C	1.503558	-0.168784	-1.072314
C156	C	2.003558	0.331216	-0.572314
C157	C	1.501065	-0.169069	-0.949708
C158	C	2.001065	0.330931	-0.449708
C159	C	1.531824	-0.216427	-0.235344
C160	C	2.031824	0.283573	0.264656
C161	C	1.531996	-0.216315	-0.117514
C162	C	2.031996	0.283685	0.382486
H163	H	1.123719	-0.146552	-0.448078
H164	H	1.623719	0.353448	0.051922
F165	F	1.132093	-0.298627	-0.555403
F166	F	1.632093	0.201373	-0.055403
F167	F	1.573687	-0.133583	-0.909701
F168	F	2.073687	0.366417	-0.409701
H169	H	1.655162	-0.959808	-0.387952
H170	H	2.155162	-0.459808	0.112048
H171	H	0.942439	-0.229818	-0.683775
H172	H	1.442439	0.270182	-0.183775
H173	H	1.654731	-0.387419	-0.387871
H174	H	2.154731	0.112581	0.112129
H175	H	0.941595	-0.146356	-0.448232
H176	H	1.441595	0.353644	0.051768
F177	F	1.674700	-0.274856	-1.109618
F178	F	2.174700	0.225144	-0.609618
H179	H	1.706569	-0.205328	-1.101907
H180	H	2.206569	0.294672	-0.601907
F181	F	1.341136	-0.240513	-1.111163
F182	F	1.841136	0.259487	-0.611163
H183	H	0.940580	-0.170502	-0.650797
H184	H	1.440580	0.329498	-0.150797
F185	F	0.932629	-0.298680	-0.553887
F186	F	1.432629	0.201320	-0.053887
F187	F	1.393629	-0.156404	-0.911687
F188	F	1.893629	0.343596	-0.411687
H189	H	1.123188	-0.168526	-0.645432
H190	H	1.623188	0.331474	-0.145432
H191	H	1.409017	-0.959866	-0.633747
H192	H	1.909017	-0.459866	-0.133747
H193	H	1.468302	-0.285940	-1.103461
H194	H	1.968302	0.214060	-0.603461
F195	F	1.324060	-0.738200	-0.718383
F196	F	1.824060	-0.238200	-0.218383
H197	H	1.722807	-0.688341	-0.320220
H198	H	2.222807	-0.188341	0.179780
H199	H	0.940168	-0.189419	-0.346633
H200	H	1.440168	0.310581	0.153367
F201	F	1.134085	-0.234142	-0.706048
F202	F	1.634085	0.265858	-0.206048
F203	F	0.933957	-0.276889	-0.372444
F204	F	1.433957	0.223111	0.127556
F205	F	1.398962	-0.153475	-1.112706
F206	F	1.898962	0.346525	-0.612706
F207	F	1.324135	-0.835033	-0.718400
F208	F	1.824135	-0.335033	-0.218400
H209	H	1.408651	-0.472580	-0.633669
H210	H	1.908651	0.027420	-0.133669
F211	F	1.391627	-0.381596	-0.650580
F212	F	1.891627	0.118404	-0.150580
H213	H	1.122854	-0.189597	-0.345785
H214	H	1.622854	0.310403	0.154215
F215	F	1.134065	-0.277311	-0.374150
F216	F	1.634065	0.222689	0.125850
H217	H	1.563487	-0.142999	-1.101332
H218	H	2.063487	0.357001	-0.601332
F219	F	1.725918	-0.197319	-0.911553
F220	F	2.225918	0.302681	-0.411553
F221	F	1.392114	-1.050844	-0.650672
F222	F	1.892114	-0.550844	-0.150672
F223	F	1.671782	-0.478388	-0.370962
F224	F	2.171782	0.021612	0.129038
F225	F	1.739840	-0.738124	-0.303300
F226	F	2.239840	-0.238124	0.196700
F227	F	1.739904	-0.834962	-0.303320
F228	F	2.239904	-0.334962	0.196680
F229	F	1.672192	-1.050794	-0.371045
F230	F	2.172192	-0.550794	0.128955
F231	F	1.474514	-0.297147	-0.911760
F232	F	1.974514	0.202853	-0.411760
F233	F	1.324031	-0.694287	-0.718380
F234	F	1.824031	-0.194287	-0.218380
F235	F	1.675697	-0.274164	-0.909510
F236	F	2.175697	0.225836	-0.409510
H237	H	1.722744	-0.603235	-0.320205
H238	H	2.222744	-0.103235	0.179795
F239	F	1.323972	-0.597438	-0.718357
F240	F	1.823972	-0.097438	-0.218357
F241	F	1.341679	-0.240582	-0.910740
F242	F	1.841679	0.259418	-0.410740
