data_functionalizedCrystal
_audit_creation_method	'MofGen! by Chris Wilmer'
_symmetry_space_group_name_H-M	'P1'
_symmetry_Int_Tables_number	1
_symmetry_cell_setting	triclinic
loop_
_symmetry_equiv_pos_as_xyz
  x,y,z
_cell_length_a	10.654550
_cell_length_b	17.019294
_cell_length_c	9.730223
_cell_angle_alpha	86.119703
_cell_angle_beta	89.996251
_cell_angle_gamma	83.938066
loop_
_atom_site_label
_atom_site_type_symbol
_atom_site_fract_x
_atom_site_fract_y
_atom_site_fract_z
O1	O	1.666098	0.110791	-0.127512
O2	O	1.300455	0.121346	-0.128739
O3	O	1.493478	0.001292	-0.114536
O4	O	1.473076	0.230845	-0.141715
O5	O	1.493475	0.001295	0.114043
O6	O	1.300452	0.121349	0.099840
O7	O	1.666096	0.110794	0.101067
Zn8	Zn	1.483274	0.116072	0.136746
Zn9	Zn	1.483277	0.116068	-0.164418
O10	O	1.473073	0.230848	0.086864
C11	C	1.253668	0.120573	-0.014355
C12	C	1.114261	0.118254	-0.014072
C13	C	1.492703	-0.028100	0.003231
C14	C	1.490383	-0.115683	0.013593
C15	C	1.033668	0.188940	-0.022461
C16	C	0.902681	0.186757	-0.022226
C17	C	0.932893	0.043195	-0.005218
C18	C	1.063877	0.045379	-0.005443
C19	C	1.084051	0.261815	-0.031090
C20	C	1.003457	0.332507	-0.039481
C21	C	0.872470	0.330324	-0.039247
C22	C	0.822078	0.257448	-0.030620
C23	C	1.489297	-0.156826	-0.106137
C24	C	1.487109	-0.239119	-0.096397
C25	C	1.486016	-0.280267	0.033074
C26	C	1.487098	-0.239118	0.152813
C27	C	1.489277	-0.156826	0.143071
C28	C	1.479429	-0.528735	0.068721
C29	C	1.477254	-0.611033	0.078453
C30	C	1.477262	-0.611029	-0.170758
C31	C	1.479449	-0.528736	-0.180488
C32	C	1.480524	-0.487593	-0.060750
C33	C	1.483784	-0.364384	0.043033
C34	C	1.482748	-0.403477	-0.070710
C35	C	1.712883	0.111567	-0.013320
C36	C	1.852290	0.113886	-0.013612
C37	C	1.473848	0.260240	-0.030906
C38	C	1.476168	0.347823	-0.041277
N39	N	1.483281	0.116074	0.342282
N40	N	1.483280	0.116060	-0.369953
C41	C	1.568773	0.062932	0.420495
C42	C	1.568770	0.062923	0.564379
C43	C	1.397778	0.169204	0.551824
C44	C	1.397777	0.169209	0.407943
C45	C	1.654278	0.009798	0.354834
C46	C	1.739778	-0.043348	0.433048
C47	C	1.739775	-0.043358	0.576932
C48	C	1.654271	0.009778	0.642602
H49	H	1.190705	0.263601	-0.031288
O50	O	0.680800	0.255085	-0.030353
H51	H	0.639757	0.285488	-0.127129
O52	O	1.305579	0.226527	0.622637
H53	H	1.244610	0.192972	0.692179
O54	O	0.878550	-0.035404	0.004074
H55	H	0.773929	-0.025047	0.002808
H56	H	1.654268	0.009761	0.759764
O57	O	1.305546	0.226523	0.323596
H58	H	1.244574	0.192950	0.262045
O59	O	1.057797	0.411107	-0.048781
H60	H	1.162418	0.400752	-0.047547
H61	H	1.129499	-0.012180	0.001384
O62	O	1.480631	-0.484361	-0.320138
H63	H	1.482344	-0.420227	-0.306796
H64	H	0.806853	0.387884	-0.046065
H65	H	1.490194	-0.123330	-0.211567
H66	H	1.486230	-0.272615	-0.193894
O67	O	1.482641	-0.408777	0.182670
H68	H	1.396107	-0.439718	0.192301
H69	H	1.476384	-0.644537	-0.268242
H70	H	1.654291	0.009802	0.237677
H71	H	1.809385	-0.086614	0.379572
H72	H	1.476357	-0.644533	0.183890
H73	H	1.480330	-0.495248	0.166221
H74	H	1.490144	-0.123326	0.240568
O75	O	1.485943	-0.283495	0.292463
H76	H	1.484268	-0.347632	0.279125
O77	O	1.483920	-0.359102	-0.210354
H78	H	1.570468	-0.328176	-0.219977
H79	H	1.809384	-0.086636	0.640613
