data_functionalizedCrystal
_audit_creation_method	'MofGen! by Chris Wilmer'
_symmetry_space_group_name_H-M	'P1'
_symmetry_Int_Tables_number	1
_symmetry_cell_setting	triclinic
loop_
_symmetry_equiv_pos_as_xyz
  x,y,z
_cell_length_a	19.188930
_cell_length_b	17.699083
_cell_length_c	17.666332
_cell_angle_alpha	90.005452
_cell_angle_beta	89.980296
_cell_angle_gamma	96.786103
loop_
_atom_site_label
_atom_site_type_symbol
_atom_site_fract_x
_atom_site_fract_y
_atom_site_fract_z
O1	O	0.926252	-0.094491	-0.063193
O2	O	1.426252	0.405509	0.436807
O3	O	0.722955	-0.107211	-0.063141
O4	O	1.222955	0.392789	0.436859
O5	O	0.830347	0.009346	-0.063162
O6	O	1.330347	0.509346	0.436838
O7	O	0.818860	-0.211048	-0.063173
O8	O	1.318860	0.288952	0.436827
O9	O	0.830335	0.009348	0.062735
O10	O	1.330335	0.509348	0.562735
O11	O	0.722943	-0.107208	0.062755
O12	O	1.222943	0.392792	0.562755
O13	O	0.926240	-0.094488	0.062704
O14	O	1.426240	0.405512	0.562704
Cu15	Cu	0.824590	-0.100848	0.074225
Cu16	Cu	1.324590	0.399152	0.574225
Cu17	Cu	0.824605	-0.100851	-0.074663
Cu18	Cu	1.324605	0.399149	0.425337
O19	O	0.818848	-0.211045	0.062724
O20	O	1.318848	0.288955	0.562724
C21	C	0.696938	-0.106798	-0.000186
C22	C	1.196938	0.393202	0.499814
C23	C	0.619432	-0.105561	-0.000166
C24	C	1.119432	0.394439	0.499834
C25	C	0.829930	0.037543	-0.000214
C26	C	1.329930	0.537543	0.499786
C27	C	0.828695	0.121560	-0.000213
C28	C	1.328695	0.621560	0.499787
N29	N	0.824586	-0.100845	0.178944
N30	N	1.324586	0.399155	0.678944
C31	C	0.574584	-0.173953	-0.000182
C32	C	1.074584	0.326047	0.499818
C33	C	0.501759	-0.172791	-0.000190
C34	C	1.001759	0.327209	0.499810
C35	C	0.473785	-0.103234	-0.000198
C36	C	0.973785	0.396766	0.499802
C37	C	0.518642	-0.034833	-0.000179
C38	C	1.018642	0.465167	0.499821
C39	C	0.591465	-0.035997	-0.000163
C40	C	1.091465	0.464003	0.499837
N41	N	0.365749	-0.050067	-0.043074
N42	N	0.865749	0.449933	0.456926
N43	N	0.296569	-0.048966	-0.043091
N44	N	0.796569	0.451034	0.456909
C45	C	0.254372	-0.099724	-0.000244
C46	C	0.754372	0.400276	0.499756
N47	N	0.283967	-0.151635	0.042610
N48	N	0.783967	0.348365	0.542610
N49	N	0.353153	-0.152738	0.042623
N50	N	0.853153	0.347262	0.542623
C51	C	0.394821	-0.101965	-0.000215
C52	C	0.894821	0.398035	0.499785
C53	C	0.130559	-0.166861	-0.000267
C54	C	0.630559	0.333139	0.499733
C55	C	0.057733	-0.165696	-0.000271
C56	C	0.557733	0.334304	0.499729
C57	C	0.074617	-0.027736	-0.000268
C58	C	0.574617	0.472264	0.499732
C59	C	0.147442	-0.028903	-0.000256
C60	C	0.647442	0.471097	0.499744
C61	C	0.175408	-0.098467	-0.000260
C62	C	0.675408	0.401533	0.499740
C63	C	0.952258	-0.094902	-0.000253
C64	C	1.452258	0.405098	0.499747
C65	C	1.029763	-0.096138	-0.000278
C66	C	1.529763	0.403862	0.499722
C67	C	0.819266	-0.239243	-0.000226
C68	C	1.319266	0.260757	0.499774
C69	C	0.820500	-0.323259	-0.000232
C70	C	1.320500	0.176741	0.499768
C71	C	0.891732	0.170264	-0.000228
C72	C	1.391732	0.670264	0.499772
C73	C	0.890567	0.249206	-0.000234
C74	C	1.390567	0.749206	0.499766
C75	C	0.826365	0.279442	-0.000220
C76	C	1.326365	0.779442	0.499780
C77	C	0.763323	0.230732	-0.000208
C78	C	1.263323	0.730732	0.499792
C79	C	0.764489	0.151792	-0.000207
C80	C	1.264489	0.651792	0.499793
C81	C	0.758623	0.549089	-0.000213
C82	C	1.258623	1.049089	0.499787
C83	C	0.757463	0.628035	-0.000211
C84	C	1.257463	1.128035	0.499789
C85	C	0.884702	0.646503	-0.000240
C86	C	1.384702	1.146503	0.499760
C87	C	0.885867	0.567563	-0.000239
C88	C	1.385867	1.067563	0.499761
C89	C	0.822826	0.518859	-0.000231
C90	C	1.322826	1.018859	0.499769
C91	C	0.824089	0.433262	-0.000225
C92	C	1.324089	0.933262	0.499775
C93	C	0.825101	0.365038	-0.000220
C94	C	1.325101	0.865038	0.499780
N95	N	0.824615	-0.100848	-0.179382
N96	N	1.324615	0.399152	0.320618
C97	C	0.872170	-0.049251	0.780985
C98	C	1.372170	0.450749	1.280985
C99	C	0.872171	-0.049253	0.701738
C100	C	1.372171	0.450747	1.201738
C101	C	0.824605	-0.100845	0.662126
C102	C	1.324605	0.399155	1.162126
C103	C	0.777047	-0.152451	0.701768
C104	C	1.277047	0.347549	1.201768
C105	C	0.777052	-0.152453	0.781014
C106	C	1.277052	0.347547	1.281014
N107	N	0.762805	-0.110653	0.537729
N108	N	1.262805	0.389347	1.037729
N109	N	0.762802	-0.110647	0.462448
N110	N	1.262802	0.389353	0.962448
C111	C	0.824589	-0.100843	0.423362
C112	C	1.324589	0.399157	0.923362
N113	N	0.886380	-0.091031	0.462400
N114	N	1.386380	0.408969	0.962400
N115	N	0.886382	-0.091034	0.537687
N116	N	1.386382	0.408966	1.037687
C117	C	0.824595	-0.100849	0.576197
C118	C	1.324595	0.399151	1.076197
C119	C	0.872149	-0.049245	0.297800
C120	C	1.372149	0.450755	0.797800
C121	C	0.872151	-0.049252	0.218551
C122	C	1.372151	0.450748	0.718551
C123	C	0.777021	-0.152447	0.218583
C124	C	1.277021	0.347553	0.718583
C125	C	0.777025	-0.152444	0.297830
C126	C	1.277025	0.347556	0.797830
C127	C	0.824588	-0.100839	0.337434
C128	C	1.324588	0.399161	0.837434
H129	H	0.465238	-0.228486	-0.000200
H130	H	0.965238	0.271514	0.499800
C131	C	0.682319	0.706098	0.064519
C132	C	1.182319	1.206098	0.564519
C133	C	0.686886	0.661271	-0.000202
C134	C	1.186886	1.161271	0.499798
H135	H	0.638748	0.726612	0.064525
H136	H	1.138748	1.226612	0.564525
H137	H	0.719692	0.746397	0.064509
H138	H	1.219692	1.246397	0.564509
H139	H	0.685407	0.675680	0.108415
H140	H	1.185407	1.175680	0.608415
H141	H	0.683803	0.691691	-0.044099
H142	H	1.183803	1.191691	0.455901
H143	H	0.649502	0.620967	-0.000200
H144	H	1.149502	1.120967	0.499800
H145	H	0.183958	0.026790	-0.000248
H146	H	0.683958	0.526790	0.499752
H147	H	0.738320	-0.194460	0.669512
H148	H	1.238320	0.305540	1.169512
C149	C	0.066554	0.090208	0.064451
C150	C	0.566554	0.590208	0.564451
C151	C	0.043874	0.048723	-0.000274
C152	C	0.543874	0.548723	0.499726
H153	H	0.047567	0.137409	0.064450
H154	H	0.547567	0.637409	0.564450
H155	H	0.116337	0.099304	0.064454
H156	H	0.616337	0.599304	0.564454
H157	H	0.051126	0.062049	0.108345
H158	H	0.551126	0.562049	0.608345
H159	H	0.059306	0.076879	-0.044168
H160	H	0.559306	0.576879	0.455832
H161	H	-0.005920	0.039629	-0.000284
H162	H	0.494080	0.539629	0.499716
C163	C	0.994683	0.558992	-0.064989
C164	C	1.494683	1.058992	0.435011
C165	C	0.956439	0.534327	-0.000258
C166	C	1.456439	1.034327	0.499742
H167	H	1.038250	0.538469	-0.065004
H168	H	1.538250	1.038469	0.434996
H169	H	1.003011	0.612969	-0.064986
H170	H	1.503011	1.112969	0.435014
H171	H	0.968727	0.542251	-0.108879
H172	H	1.468727	1.042251	0.391121
H173	H	0.982392	0.551072	0.043632
H174	H	1.482392	1.051072	0.543632
H175	H	0.948113	0.480338	-0.000255
H176	H	1.448113	0.980338	0.499745
C177	C	0.683020	-0.254454	0.773084
C178	C	1.183020	0.245546	1.273084
C179	C	0.724771	-0.209167	0.824583
C180	C	1.224771	0.290833	1.324583
H181	H	0.650740	-0.289462	0.799984
H182	H	1.150740	0.210538	1.299984
H183	H	0.712033	-0.281602	0.742164
H184	H	1.212033	0.218398	1.242164
H185	H	0.657962	-0.223009	0.742185
H186	H	1.157962	0.276991	1.242185
H187	H	0.749833	-0.240612	0.855479
H188	H	1.249833	0.259388	1.355479
H189	H	0.695754	-0.182017	0.855516
H190	H	1.195754	0.317983	1.355516
C191	C	0.683124	0.042731	0.064574
C192	C	1.183124	0.542731	0.564574
C193	C	0.640766	0.039185	-0.000152
C194	C	1.140766	0.539185	0.499848
H195	H	0.713558	0.089148	0.064579
H196	H	1.213558	0.589148	0.564579
H197	H	0.710201	0.001143	0.064571
H198	H	1.210201	0.501143	0.564571
H199	H	0.654337	0.040319	0.108467
H200	H	1.154337	0.540319	0.608467
H201	H	0.669553	0.041591	-0.044046
H202	H	1.169553	0.541591	0.455954
H203	H	0.613686	0.080785	-0.000157
H204	H	1.113686	0.580785	0.499843
H205	H	0.936033	0.686167	-0.000251
H206	H	1.436033	1.186167	0.499749
H207	H	0.495860	0.021801	-0.000196
H208	H	0.995860	0.521801	0.499804
H209	H	0.707291	0.509443	-0.000205
H210	H	1.207291	1.009443	0.499795
H211	H	0.711049	0.255356	-0.000201
H212	H	1.211049	0.755356	0.499799
C213	C	1.017389	0.196456	-0.000269
C214	C	1.517389	0.696456	0.499731
C215	C	0.962306	0.137032	-0.000249
C216	C	1.462306	0.637032	0.499751
H217	H	1.060959	0.175941	-0.000289
H218	H	1.560959	0.675941	0.499711
H219	H	1.014287	0.226863	0.043633
H220	H	1.514287	0.726863	0.543633
H221	H	1.014282	0.226859	-0.044173
H222	H	1.514282	0.726859	0.455827
H223	H	0.965409	0.106633	0.043659
H224	H	1.465409	0.606633	0.543659
H225	H	0.965410	0.106613	-0.044155
H226	H	1.465410	0.606613	0.455845
H227	H	0.713157	0.112137	-0.000195
H228	H	1.213157	0.612137	0.499805
H229	H	0.941898	0.288858	-0.000245
H230	H	1.441898	0.788858	0.499755
H231	H	0.153330	-0.223504	-0.000259
H232	H	0.653330	0.276496	0.499741
C233	C	0.966207	0.052744	0.772987
C234	C	1.466207	0.552744	1.272987
C235	C	0.924462	0.007460	0.824517
C236	C	1.424462	0.507460	1.324517
H237	H	0.998495	0.087748	0.799865
H238	H	1.498495	0.587748	1.299865
H239	H	0.937191	0.079896	0.742102
H240	H	1.437191	0.579896	1.242102
H241	H	0.991256	0.021296	0.742057
H242	H	1.491256	0.521296	1.242057
H243	H	0.899409	0.038907	0.855444
H244	H	1.399409	0.538907	1.355444
H245	H	0.953482	-0.019694	0.855415
H246	H	1.453482	0.480306	1.355415
C247	C	0.887528	0.053753	0.612562
C248	C	1.387528	0.553753	1.112562
C249	C	0.924463	0.007425	0.658134
C250	C	1.424463	0.507425	1.158134
H251	H	0.919817	0.088727	0.585634
H252	H	1.419817	0.588727	1.085634
H253	H	0.858544	0.080940	0.643479
H254	H	1.358544	0.580940	1.143479
H255	H	0.859181	0.023010	0.577658
H256	H	1.359181	0.523010	1.077658
H257	H	0.952806	0.038168	0.693042
H258	H	1.452806	0.538168	1.193042
H259	H	0.953458	-0.019764	0.627214
H260	H	1.453458	0.480236	1.127214
C261	C	0.966174	0.052763	0.289811
C262	C	1.466174	0.552763	0.789811
C263	C	0.924428	0.007477	0.341338
C264	C	1.424428	0.507477	0.841338
H265	H	0.998449	0.087779	0.316691
H266	H	1.498449	0.587779	0.816691
H267	H	0.937157	0.079902	0.258915
H268	H	1.437157	0.579902	0.758915
H269	H	0.991236	0.021319	0.258892
H270	H	1.491236	0.521319	0.758892
H271	H	0.899361	0.038921	0.372254
H272	H	1.399361	0.538921	0.872254
H273	H	0.953449	-0.019664	0.372248
H274	H	1.453449	0.480336	0.872248
C275	C	0.735801	-0.283584	0.194195
C276	C	1.235801	0.216416	0.694195
C277	C	0.724738	-0.209163	0.175052
C278	C	1.224738	0.290837	0.675052
H279	H	0.703526	-0.318600	0.167315
H280	H	1.203526	0.181400	0.667315
H281	H	0.728995	-0.290961	0.247058
H282	H	1.228995	0.209039	0.747058
H283	H	0.782385	-0.291666	0.181183
H284	H	1.282385	0.208334	0.681183
H285	H	0.678156	-0.201079	0.188069
H286	H	1.178156	0.298921	0.688069
H287	H	0.731538	-0.201783	0.122177
H288	H	1.231538	0.298217	0.622177
H289	H	0.910879	-0.007238	0.186281
H290	H	1.410879	0.492762	0.686281
H291	H	0.738299	-0.194456	0.330101
H292	H	1.238299	0.305544	0.830101
C293	C	0.582623	-0.291902	-0.064906
C294	C	1.082623	0.208098	0.435094
C295	C	0.605314	-0.250423	-0.000181
C296	C	1.105314	0.249577	0.499819
H297	H	0.601590	-0.339114	-0.064902
H298	H	1.101590	0.160886	0.435098
H299	H	0.598057	-0.263753	-0.108795
H300	H	1.098057	0.236247	0.391205
H301	H	0.532832	-0.300979	-0.064909
H302	H	1.032832	0.199021	0.435091
H303	H	0.655105	-0.241341	-0.000181
H304	H	1.155105	0.258659	0.499819
H305	H	0.589883	-0.278579	0.043720
H306	H	1.089883	0.221421	0.543720
C307	C	0.048363	-0.302178	-0.000292
C308	C	0.548363	0.197822	0.499708
C309	C	0.008433	-0.240879	-0.000288
C310	C	0.508433	0.259121	0.499712
H311	H	0.017925	-0.348593	-0.000307
H312	H	0.517925	0.151407	0.499693
H313	H	0.077096	-0.299767	0.043614
H314	H	0.577096	0.200233	0.543614
H315	H	0.077141	-0.299754	-0.044193
H316	H	0.577141	0.200246	0.455807
H317	H	-0.020341	-0.243300	0.043616
H318	H	0.479659	0.256700	0.543616
H319	H	-0.020312	-0.243291	-0.044198
H320	H	0.479688	0.256709	0.455802
