data_functionalizedCrystal
_audit_creation_method	'MofGen! by Chris Wilmer'
_symmetry_space_group_name_H-M	'P1'
_symmetry_Int_Tables_number	1
_symmetry_cell_setting	triclinic
loop_
_symmetry_equiv_pos_as_xyz
  x,y,z
_cell_length_a	10.723024
_cell_length_b	10.723024
_cell_length_c	16.053802
_cell_angle_alpha	92.591250
_cell_angle_beta	87.394595
_cell_angle_gamma	84.467869
loop_
_atom_site_label
_atom_site_type_symbol
_atom_site_fract_x
_atom_site_fract_y
_atom_site_fract_z
O1	O	1.662408	0.169819	-0.069422
O2	O	1.299255	0.186572	-0.069424
O3	O	1.489208	-0.003381	-0.069420
O4	O	1.472455	0.359771	-0.069426
O5	O	1.478752	0.007031	0.069439
O6	O	1.288800	0.196984	0.069434
O7	O	1.651952	0.180231	0.069437
Zn8	Zn	1.468716	0.190261	0.091483
Zn9	Zn	1.482492	0.176542	-0.091470
O10	O	1.461999	0.370183	0.069433
C11	C	1.247528	0.190559	0.000005
C12	C	1.108974	0.186911	0.000004
C13	C	1.033991	0.293198	0.000001
C14	C	0.890788	0.289431	0.000000
C15	C	1.482761	-0.044674	0.000009
C16	C	1.479113	-0.183229	0.000006
C17	C	1.585401	-0.258211	0.000005
C18	C	1.581634	-0.401415	0.000002
C19	C	1.703679	0.176244	0.000006
C20	C	1.842234	0.179891	0.000002
C21	C	1.468446	0.411477	0.000002
C22	C	1.472094	0.550031	-0.000000
N23	N	1.459323	0.199622	0.216343
N24	N	1.491894	0.167171	-0.216330
C25	C	1.540178	0.118826	0.260038
C26	C	1.533619	0.125387	0.347445
C27	C	1.446211	0.212750	0.391154
C28	C	1.365347	0.293550	0.347452
C29	C	1.371901	0.286982	0.260047
C30	C	1.417584	0.241403	0.652563
C31	C	1.411039	0.247966	0.739974
C32	C	1.579310	0.079801	0.739961
C33	C	1.585861	0.073247	0.652554
C34	C	1.504993	0.154042	0.608860
N35	N	1.439507	0.219461	0.480498
N36	N	1.511691	0.147324	0.519518
H37	H	1.075813	0.386985	0.000005
H38	H	0.906659	0.088895	-0.000001
Br39	Br	0.783405	0.441097	-0.000013
H40	H	1.067153	0.093124	-0.000016
H41	H	1.611360	0.047691	0.224456
Br42	Br	1.246709	0.412108	0.406769
H43	H	1.679186	-0.216389	0.000011
H44	H	1.672624	-0.465847	0.000006
Br45	Br	1.320421	-0.342592	0.000011
Br46	Br	1.643348	0.015730	0.406750
Br47	Br	1.704492	-0.045313	0.593233
Br48	Br	1.262155	0.396631	0.200746
H49	H	1.385328	-0.225051	-0.000001
H50	H	1.645148	0.014021	0.775545
H51	H	1.339857	0.319113	0.775558
H52	H	1.351740	0.307191	0.616994
