data_functionalizedCrystal
_audit_creation_method	'MofGen! by Chris Wilmer'
_symmetry_space_group_name_H-M	'P1'
_symmetry_Int_Tables_number	1
_symmetry_cell_setting	triclinic
loop_
_symmetry_equiv_pos_as_xyz
  x,y,z
_cell_length_a	9.065215
_cell_length_b	10.268362
_cell_length_c	9.065218
_cell_angle_alpha	89.996569
_cell_angle_beta	85.015325
_cell_angle_gamma	89.996177
loop_
_atom_site_label
_atom_site_type_symbol
_atom_site_fract_x
_atom_site_fract_y
_atom_site_fract_z
O1	O	-1.960404	0.108273	-0.216339
O2	O	-1.627071	0.441606	0.116995
O3	O	-1.293737	0.774940	0.450328
O4	O	-1.531119	0.108280	-0.234089
O5	O	-1.197785	0.441613	0.099244
O6	O	-0.864452	0.774946	0.432577
O7	O	-1.754634	0.108274	-0.010572
O8	O	-1.421301	0.441607	0.322762
O9	O	-1.087968	0.774940	0.656095
O10	O	-1.736888	0.108279	-0.439857
O11	O	-1.403555	0.441613	-0.106523
O12	O	-1.070221	0.774946	0.226810
O13	O	-1.754615	-0.108327	-0.010562
O14	O	-1.421281	0.225006	0.322771
O15	O	-1.087948	0.558340	0.656105
O16	O	-1.531099	-0.108321	-0.234080
O17	O	-1.197765	0.225012	0.099253
O18	O	-0.864432	0.558346	0.432587
O19	O	-1.960384	-0.108328	-0.216329
O20	O	-1.627051	0.225006	0.117004
O21	O	-1.293717	0.558339	0.450337
Cu22	Cu	-1.745740	-0.128102	-0.225204
Cu23	Cu	-1.412406	0.205232	0.108130
Cu24	Cu	-1.079073	0.538565	0.441463
Cu25	Cu	-1.745763	0.128054	-0.225215
Cu26	Cu	-1.412430	0.461387	0.108118
Cu27	Cu	-1.079096	0.794720	0.441452
O28	O	-1.736868	-0.108321	-0.439847
O29	O	-1.403535	0.225012	-0.106514
O30	O	-1.070202	0.558345	0.226820
C31	C	-1.476122	-0.000020	-0.232380
C32	C	-1.142789	0.333314	0.100954
C33	C	-0.809455	0.666647	0.434287
C34	C	-1.312279	-0.000017	-0.227282
C35	C	-0.978946	0.333316	0.106052
C36	C	-0.645612	0.666650	0.439385
N37	N	-1.745734	-0.308267	-0.225195
N38	N	-1.412401	0.025066	0.108138
N39	N	-1.079067	0.358399	0.441472
C40	C	-1.745756	-0.573938	-0.225212
C41	C	-1.412422	-0.240605	0.108121
C42	C	-1.079089	0.092729	0.441455
C43	C	-1.745739	-0.426100	-0.225207
C44	C	-1.412405	-0.092767	0.108127
C45	C	-1.079072	0.240567	0.441460
C46	C	-1.015381	-0.000025	-0.218039
C47	C	-0.682047	0.333309	0.115295
C48	C	-0.348714	0.666642	0.448628
C49	C	-1.179224	-0.000016	-0.223136
C50	C	-0.845890	0.333317	0.110197
C51	C	-0.512557	0.666650	0.443530
C52	C	-1.752919	-0.000025	0.044420
C53	C	-1.419586	0.333309	0.377753
C54	C	-1.086252	0.666642	0.711086
C55	C	-1.747819	-0.000018	0.208263
C56	C	-1.414486	0.333315	0.541596
C57	C	-1.081153	0.666648	0.874929
N58	N	-1.745780	0.308220	-0.225212
N59	N	-1.412447	0.641553	0.108121
N60	N	-1.079114	0.974886	0.441455
C61	C	-1.738584	-0.000020	-0.494838
C62	C	-1.405250	0.333313	-0.161505
C63	C	-1.071917	0.666646	0.171828
C64	C	-1.743683	-0.000018	-0.658681
C65	C	-1.410350	0.333315	-0.325348
C66	C	-1.077017	0.666649	0.007985
