data_functionalizedCrystal
_audit_creation_method	'MofGen! by Chris Wilmer'
_symmetry_space_group_name_H-M	'P1'
_symmetry_Int_Tables_number	1
_symmetry_cell_setting	triclinic
loop_
_symmetry_equiv_pos_as_xyz
  x,y,z
_cell_length_a	11.792254
_cell_length_b	10.268362
_cell_length_c	14.853559
_cell_angle_alpha	89.999155
_cell_angle_beta	83.915026
_cell_angle_gamma	90.004577
loop_
_atom_site_label
_atom_site_type_symbol
_atom_site_fract_x
_atom_site_fract_y
_atom_site_fract_z
O1	O	1.506133	0.108292	0.123618
O2	O	2.006133	0.608292	0.623618
O3	O	1.175715	0.108295	0.136341
O4	O	1.675715	0.608295	0.636341
O5	O	1.349755	0.108292	-0.001216
O6	O	1.849755	0.608292	0.498784
O7	O	1.332093	0.108295	0.261175
O8	O	1.832093	0.608295	0.761175
O9	O	1.349739	-0.108309	-0.001211
O10	O	1.849739	0.391691	0.498789
O11	O	1.175699	-0.108306	0.136346
O12	O	1.675699	0.391694	0.636346
O13	O	1.506117	-0.108308	0.123623
O14	O	2.006117	0.391692	0.623623
Cu15	Cu	1.340906	-0.128085	0.129985
Cu16	Cu	1.840906	0.371915	0.629985
Cu17	Cu	1.340926	0.128071	0.129979
Cu18	Cu	1.840926	0.628071	0.629979
O19	O	1.332077	-0.108306	0.261180
O20	O	1.832077	0.391694	0.761180
C21	C	1.133421	-0.000005	0.135542
C22	C	1.633421	0.499995	0.635542
C23	C	1.007423	-0.000004	0.133143
C24	C	1.507423	0.499996	0.633143
C25	C	0.905099	0.000001	0.131194
C26	C	1.405099	0.500001	0.631194
C27	C	0.776727	0.000002	0.128757
C28	C	1.276727	0.500002	0.628757
N29	N	1.340901	-0.308250	0.129988
N30	N	1.840901	0.191750	0.629988
C31	C	1.340909	-0.426093	0.129989
C32	C	1.840909	0.073907	0.629989
C33	C	1.340923	-0.573931	0.129981
C34	C	1.840923	-0.073931	0.629981
C35	C	1.548411	-0.000005	0.124422
C36	C	2.048411	0.499995	0.624422
C37	C	1.674409	0.000002	0.126821
C38	C	2.174409	0.500002	0.626821
C39	C	1.348948	-0.000006	-0.034805
C40	C	1.848948	0.499994	0.465195
C41	C	1.346556	0.000001	-0.134899
C42	C	1.846556	0.500001	0.365101
N43	N	1.340940	0.308237	0.129969
N44	N	1.840940	0.808237	0.629969
C45	C	1.336413	0.118071	-0.558116
C46	C	1.836413	0.618071	-0.058116
C47	C	1.336395	-0.118076	-0.558106
C48	C	1.836395	0.381924	-0.058106
C49	C	1.338652	-0.118077	-0.464064
C50	C	1.838652	0.381923	0.035936
C51	C	1.339789	-0.000002	-0.417043
C52	C	1.839789	0.499998	0.082957
C53	C	1.338667	0.118073	-0.464065
C54	C	1.838667	0.618073	0.035935
C55	C	1.339762	-0.236150	-0.417034
C56	C	1.839762	0.263850	0.082966
C57	C	1.342019	-0.236156	-0.322986
C58	C	1.842019	0.263844	0.177014
C59	C	1.343163	-0.118080	-0.275965
C60	C	1.843163	0.381920	0.224035
C61	C	1.342043	0.000000	-0.322992
C62	C	1.842043	0.500000	0.177008
C63	C	1.343180	0.118074	-0.275972
C64	C	1.843180	0.618074	0.224028
C65	C	1.342068	0.236156	-0.322999
C66	C	1.842068	0.736156	0.177001
C67	C	1.339812	0.236149	-0.417044
C68	C	1.839812	0.736149	0.082956
C69	C	1.345419	-0.118073	-0.181919
C70	C	1.845419	0.381927	0.318081
C71	C	1.345434	0.118077	-0.181921
C72	C	1.845434	0.618077	0.318079
C73	C	1.332884	-0.000005	0.294770
C74	C	1.832884	0.499995	0.794770
C75	C	1.335276	-0.000004	0.394863
C76	C	1.835276	0.499996	0.894863
H77	H	1.342985	0.332292	-0.284701
H78	H	1.842985	0.832292	0.215299
H79	H	1.338905	0.332285	-0.455341
H80	H	1.838905	0.832285	0.044659
H81	H	1.335512	0.214210	-0.596410
H82	H	1.835512	0.714210	-0.096410
H83	H	1.335462	-0.214206	-0.596395
H84	H	1.835462	0.285794	-0.096395
H85	H	1.338831	-0.332280	-0.455324
H86	H	1.838831	0.167720	0.044676
C87	C	1.346864	0.246224	-0.130829
C88	C	1.846864	0.746224	0.369171
C89	C	1.445719	0.253160	-0.086497
C90	C	1.945719	0.753160	0.413503
C91	C	1.447065	0.371191	-0.039424
C92	C	1.947065	0.871191	0.460576
H93	H	1.281675	0.251220	-0.087537
H94	H	1.781675	0.751220	0.412463
H95	H	1.345929	0.316596	-0.172271
H96	H	1.845929	0.816596	0.327729
H97	H	1.446644	0.182809	-0.045058
H98	H	1.946644	0.682809	0.454942
H99	H	1.510925	0.248187	-0.129768
H100	H	2.010925	0.748187	0.370232
H101	H	1.446130	0.441562	-0.080866
H102	H	1.946130	0.941562	0.419134
H103	H	1.381871	0.376176	0.003864
H104	H	1.881871	0.876176	0.503864
H105	H	1.514142	0.375918	-0.009345
H106	H	2.014142	0.875918	0.490655
H107	H	1.342929	-0.332305	-0.284705
H108	H	1.842929	0.167695	0.215295
C109	C	1.346654	-0.246397	-0.131027
C110	C	1.846654	0.253603	0.368973
C111	C	1.345185	-0.349801	-0.192336
C112	C	1.845185	0.150199	0.307664
C113	C	1.346328	-0.468038	-0.145489
C114	C	1.846328	0.031962	0.354511
H115	H	1.281412	-0.251465	-0.087791
H116	H	1.781412	0.248535	0.412209
H117	H	1.413687	-0.251399	-0.100908
H118	H	1.913687	0.248601	0.399092
H119	H	1.278159	-0.344800	-0.222440
H120	H	1.778159	0.155200	0.277560
H121	H	1.410422	-0.344775	-0.235574
H122	H	1.910422	0.155225	0.264426
H123	H	1.413361	-0.473040	-0.115369
H124	H	1.913361	0.026960	0.384631
H125	H	1.281085	-0.473092	-0.102254
H126	H	1.781085	0.026908	0.397746
H127	H	1.345342	-0.538211	-0.187080
H128	H	1.845342	-0.038211	0.312920
