data_functionalizedCrystal
_audit_creation_method	'MofGen! by Chris Wilmer'
_symmetry_space_group_name_H-M	'P1'
_symmetry_Int_Tables_number	1
_symmetry_cell_setting	triclinic
loop_
_symmetry_equiv_pos_as_xyz
  x,y,z
_cell_length_a	13.032721
_cell_length_b	13.032951
_cell_length_c	13.034356
_cell_angle_alpha	74.813221
_cell_angle_beta	89.133493
_cell_angle_gamma	89.099524
loop_
_atom_site_label
_atom_site_type_symbol
_atom_site_fract_x
_atom_site_fract_y
_atom_site_fract_z
Zn1	Zn	-0.515096	-1.642122	0.864526
Zn2	Zn	-0.181763	-1.308789	1.197859
Zn3	Zn	0.151570	-0.975456	1.531193
Zn4	Zn	-0.704135	-1.598124	0.708194
Zn5	Zn	-0.370801	-1.264790	1.041527
Zn6	Zn	-0.037468	-0.931457	1.374861
Zn7	Zn	-0.515097	-1.441926	0.664403
Zn8	Zn	-0.181763	-1.108593	0.997736
Zn9	Zn	0.151570	-0.775260	1.331069
Zn10	Zn	-0.665747	-1.447481	0.858917
Zn11	Zn	-0.332413	-1.114148	1.192251
Zn12	Zn	0.000920	-0.780814	1.525584
O13	O	-0.600019	-1.532413	0.774010
O14	O	-0.266685	-1.199080	1.107343
O15	O	0.066648	-0.865747	1.440677
O16	O	-0.556238	-1.783113	0.864462
O17	O	-0.222905	-1.449780	1.197795
O18	O	0.110428	-1.116446	1.531129
O19	O	-0.695124	-1.556665	0.555555
O20	O	-0.361791	-1.223332	0.888888
O21	O	-0.028458	-0.889999	1.222221
O22	O	-0.372936	-1.484572	0.674970
O23	O	-0.039603	-1.151239	1.008303
O24	O	0.293731	-0.817905	1.341637
O25	O	-0.695124	-1.750787	0.749606
O26	O	-0.361791	-1.417454	1.082939
O27	O	-0.028457	-1.084121	1.416273
O28	O	-0.372936	-1.631655	0.821999
O29	O	-0.039602	-1.298322	1.155333
O30	O	0.293731	-0.964988	1.488666
O31	O	-0.556239	-1.441908	0.523381
O32	O	-0.222905	-1.108575	0.856715
O33	O	0.110428	-0.775241	1.190048
O34	O	-0.519015	-1.295836	0.669532
O35	O	-0.185682	-0.962503	1.002865
O36	O	0.147652	-0.629169	1.336198
O37	O	-0.629697	-1.494039	1.006492
O38	O	-0.296363	-1.160706	1.339825
O39	O	0.036970	-0.827372	1.673159
O40	O	-0.629697	-1.299917	0.812441
O41	O	-0.296364	-0.966584	1.145774
O42	O	0.036970	-0.633250	1.479107
O43	O	-0.519015	-1.637041	1.010612
O44	O	-0.185681	-1.303708	1.343946
O45	O	0.147652	-0.970375	1.677279
O46	O	-0.841203	-1.562051	0.744168
O47	O	-0.507870	-1.228718	1.077501
O48	O	-0.174537	-0.895385	1.410834
O49	O	-0.813000	-1.451375	0.854903
O50	O	-0.479666	-1.118042	1.188237
O51	O	-0.146333	-0.784708	1.521570
C52	C	-0.570191	-1.259806	0.735626
C53	C	-0.236858	-0.926473	1.068960
C54	C	0.096476	-0.593139	1.402293
C55	C	-0.557453	-1.143184	0.719233
C56	C	-0.224119	-0.809851	1.052567
C57	C	0.109214	-0.476517	1.385900
C58	C	-0.606646	-1.093212	0.782549
C59	C	-0.273313	-0.759879	1.115882
C60	C	0.060021	-0.426546	1.449216
C61	C	-0.593481	-0.972678	0.765608
C62	C	-0.260148	-0.639344	1.098941
C63	C	0.073185	-0.306011	1.432274
C64	C	-0.863963	-1.502573	0.803706
C65	C	-0.530629	-1.169240	1.137039
C66	C	-0.197296	-0.835907	1.470372
C67	C	-0.976886	-1.489908	0.816458
C68	C	-0.643552	-1.156575	1.149792
C69	C	-0.310219	-0.823242	1.483125
C70	C	-1.041151	-1.539086	0.767409
C71	C	-0.707818	-1.205752	1.100743
C72	C	-0.374485	-0.872419	1.434076
C73	C	-1.157864	-1.525997	0.780589
C74	C	-0.824530	-1.192664	1.113922
C75	C	-0.491197	-0.859330	1.447255
C76	C	-0.335044	-1.562402	0.744225
C77	C	-0.001711	-1.229069	1.077559
C78	C	0.331622	-0.895735	1.410892
C79	C	-0.222128	-1.575181	0.731533
C80	C	0.111205	-1.241848	1.064866
C81	C	0.444538	-0.908515	1.398200
C82	C	-0.570074	-1.571068	1.047688
C83	C	-0.236740	-1.237734	1.381022
C84	C	0.096593	-0.904401	1.714355
C85	C	-0.557313	-1.587540	1.164313
C86	C	-0.223979	-1.254207	1.497647
C87	C	0.109354	-0.920873	1.830980
C88	C	-0.629953	-0.806086	0.812536
C89	C	-0.296619	-0.472752	1.145869
C90	C	0.036714	-0.139419	1.479203
C91	C	-0.642681	-0.922709	0.828932
C92	C	-0.309348	-0.589376	1.162265
C93	C	0.023985	-0.256042	1.495599
C94	C	-0.629780	-1.493978	0.501397
C95	C	-0.296447	-1.160645	0.834730
C96	C	0.036886	-0.827311	1.168064
C97	C	-0.642277	-1.477741	0.384769
C98	C	-0.308944	-1.144408	0.718102
C99	C	0.024389	-0.811075	1.051435
C100	C	-0.593204	-1.541150	1.334809
C101	C	-0.259871	-1.207817	1.668142
C102	C	0.073463	-0.874483	2.001476
C103	C	-0.606393	-1.524123	1.214270
C104	C	-0.273060	-1.190789	1.547604
C105	C	0.060274	-0.857456	1.880937
H106	H	-0.541611	-0.926230	0.698858
H107	H	-0.208277	-0.592896	1.032191
H108	H	0.125056	-0.259563	1.365524
F109	F	-0.674439	-1.153924	0.869795
F110	F	-0.341106	-0.820590	1.203128
F111	F	-0.007772	-0.487257	1.536461
H112	H	-0.694541	-0.969158	0.895692
H113	H	-0.361208	-0.635825	1.229025
H114	H	-0.027875	-0.302492	1.562358
H115	H	-0.694059	-1.410853	1.338304
H116	H	-0.360725	-1.077519	1.671637
H117	H	-0.027392	-0.744186	2.004970
H118	H	-1.009769	-1.590883	0.715664
H119	H	-0.676435	-1.257550	1.048997
H120	H	-0.343102	-0.924216	1.382331
F121	F	-1.017902	-1.422216	0.884106
F122	F	-0.684569	-1.088883	1.217440
F123	F	-0.351236	-0.755550	1.550773
H124	H	-0.505586	-1.096732	0.652488
H125	H	-0.172252	-0.763399	0.985821
H126	H	0.161081	-0.430066	1.319155
H127	H	-1.189244	-1.474206	0.832346
H128	H	-0.855911	-1.140873	1.165680
H129	H	-0.522577	-0.807539	1.499013
F130	F	-1.181119	-1.642889	0.663892
F131	F	-0.847785	-1.309555	0.997225
F132	F	-0.514452	-0.976222	1.330559
H133	H	-0.541431	-1.608046	1.381276
H134	H	-0.208098	-1.274713	1.714609
H135	H	0.125236	-0.941379	2.047943
H136	H	-0.505534	-1.654440	1.210775
H137	H	-0.172201	-1.321106	1.544108
H138	H	0.161132	-0.987773	1.877441
F139	F	-0.674081	-1.436687	1.153547
F140	F	-0.340748	-1.103354	1.486880
F141	F	-0.007414	-0.770020	1.820213
