data_functionalizedCrystal
_audit_creation_method	'MofGen! by Chris Wilmer'
_symmetry_space_group_name_H-M	'P1'
_symmetry_Int_Tables_number	1
_symmetry_cell_setting	triclinic
loop_
_symmetry_equiv_pos_as_xyz
  x,y,z
_cell_length_a	6.817900
_cell_length_b	11.102188
_cell_length_c	11.102193
_cell_angle_alpha	91.949637
_cell_angle_beta	108.604059
_cell_angle_gamma	108.603875
loop_
_atom_site_label
_atom_site_type_symbol
_atom_site_fract_x
_atom_site_fract_y
_atom_site_fract_z
V1	V	-4.111505	-0.175848	-0.396258
O2	O	-4.070548	0.008441	-0.388714
O3	O	-4.088273	-0.348668	-0.393548
O4	O	-4.088279	-0.173147	-0.569079
O5	O	-4.070541	-0.168295	-0.211968
V6	V	-4.588610	-0.153804	-0.374215
O7	O	-4.386842	-0.224202	-0.444610
O8	O	-4.763470	-0.105450	-0.325863
O9	O	-4.388635	0.019016	-0.376925
O10	O	-4.746964	-0.338093	-0.381758
O11	O	-4.746970	-0.161357	-0.558505
O12	O	-4.388629	-0.156505	-0.201393
C13	C	-3.938582	-0.390798	-0.387296
C14	C	-4.001041	-0.532080	-0.386233
C15	C	-3.970221	-0.580303	-0.269348
C16	C	-4.028932	-0.713054	-0.268354
C17	C	-4.149276	-0.749350	-0.501138
C18	C	-4.090580	-0.616601	-0.502132
C19	C	-3.938589	-0.166902	-0.611203
C20	C	-4.001049	-0.165837	-0.752485
C21	C	-4.121365	-0.398615	-0.788813
C22	C	-4.210859	-0.514498	-0.873349
C23	C	-4.269545	-0.513491	-1.006095
C24	C	-4.238739	-0.396587	-1.054306
C25	C	-4.149245	-0.280704	-0.969770
C26	C	-4.090558	-0.281724	-0.837022
C27	C	-4.028945	-0.047929	-0.933443
C28	C	-3.970243	-0.048934	-0.800696
C29	C	-3.998139	0.068974	-0.981654
C30	C	-3.908630	0.184861	-0.897117
C31	C	-3.849940	0.183848	-0.764364
C32	C	-3.880750	0.066950	-0.716160
C33	C	-4.201669	0.061138	-0.383173
C34	C	-4.118449	0.202420	-0.384245
C35	C	-4.201661	-0.162755	-0.159263
C36	C	-4.118438	-0.163813	-0.017979
H37	H	-4.222180	-0.818182	-0.595499
H38	H	-3.883570	0.280034	-0.936383
O39	O	-4.240189	-0.628051	-0.826530
C40	C	-4.149025	-0.820901	-0.810518
C41	C	-4.115924	-0.692404	-0.863719
H42	H	-4.048543	-0.872955	-0.840541
H43	H	-4.331350	-0.883301	-0.850409
H44	H	-4.091572	-0.801527	-0.701124
H45	H	-4.173254	-0.711659	-0.973109
H46	H	-3.933586	-0.630044	-0.823729
O47	O	-4.356735	-0.626148	-1.088103
C48	C	-4.652493	-0.830795	-1.165993
C49	C	-4.553964	-0.703283	-1.073035
H50	H	-4.811992	-0.893183	-1.153862
H51	H	-4.529479	-0.883610	-1.143880
H52	H	-4.689021	-0.809948	-1.269133
H53	H	-4.517440	-0.724016	-0.969863
H54	H	-4.677033	-0.650506	-1.095259
O55	O	-3.763074	0.296301	-0.682074
C56	C	-3.619226	0.397925	-0.461473
C57	C	-3.717620	0.270477	-0.554517
H58	H	-3.582405	0.377092	-0.358322
H59	H	-3.742374	0.450649	-0.483491
H60	H	-3.459898	0.460401	-0.473731
H61	H	-3.876924	0.207901	-0.542311
H62	H	-3.594326	0.217854	-0.532474
H63	H	-3.897315	-0.511489	-0.174975
H64	H	-4.003833	-0.752310	-0.173175
H65	H	-4.115693	-0.577340	-0.597319
H66	H	-4.073555	-0.399446	-0.680725
H67	H	-4.286556	-0.395778	-1.162397
H68	H	-4.045945	0.069786	-1.089745
H69	H	-3.832955	0.066115	-0.608073
