data_functionalizedCrystal
_audit_creation_method	'MofGen! by Chris Wilmer'
_symmetry_space_group_name_H-M	'P1'
_symmetry_Int_Tables_number	1
_symmetry_cell_setting	triclinic
loop_
_symmetry_equiv_pos_as_xyz
  x,y,z
_cell_length_a	6.817900
_cell_length_b	17.982783
_cell_length_c	17.982968
_cell_angle_alpha	95.926085
_cell_angle_beta	102.451960
_cell_angle_gamma	102.448572
loop_
_atom_site_label
_atom_site_type_symbol
_atom_site_fract_x
_atom_site_fract_y
_atom_site_fract_z
V1	V	-4.009918	-0.106127	-0.237867
O2	O	-4.003034	0.004365	-0.233013
O3	O	-3.956470	-0.209725	-0.236553
O4	O	-3.956489	-0.104816	-0.341466
O5	O	-4.003015	-0.101269	-0.127374
V6	V	-4.494852	-0.092872	-0.224613
O7	O	-4.268082	-0.135201	-0.266940
O8	O	-4.686885	-0.063798	-0.195540
O9	O	-4.325093	0.010726	-0.225927
O10	O	-4.619133	-0.203364	-0.229466
O11	O	-4.619152	-0.097730	-0.335106
O12	O	-4.325074	-0.094183	-0.121014
C13	C	-3.800406	-0.234970	-0.232881
C14	C	-3.837959	-0.319665	-0.232498
C15	C	-3.819323	-0.348365	-0.162514
C16	C	-3.854628	-0.427945	-0.162156
C17	C	-3.908554	-0.478825	-0.231782
C18	C	-3.927196	-0.450120	-0.301772
C19	C	-3.891906	-0.370541	-0.302129
C20	C	-4.069522	-0.771054	-0.300333
C21	C	-4.104806	-0.850638	-0.299970
C22	C	-4.032244	-0.828458	-0.160359
C23	C	-3.996953	-0.748879	-0.160716
C24	C	-4.015609	-0.720182	-0.230705
C25	C	-3.977331	-0.633891	-0.231093
C26	C	-3.946818	-0.565113	-0.231396
C27	C	-3.800429	-0.101148	-0.366707
C28	C	-3.837995	-0.100762	-0.451402
C29	C	-4.037378	-0.104398	-0.495085
C30	C	-4.072664	-0.104036	-0.574664
C31	C	-3.908566	-0.100041	-0.610561
C32	C	-3.709166	-0.096402	-0.566872
C33	C	-3.673880	-0.096760	-0.487293
C34	C	-3.851463	-0.094959	-0.887805
C35	C	-3.886766	-0.094604	-0.967390
C36	C	-4.250247	-0.102235	-0.975176
C37	C	-4.214961	-0.102593	-0.895597
C38	C	-4.015563	-0.098949	-0.851915
C39	C	-3.977304	-0.099342	-0.765625
C40	C	-3.946825	-0.099655	-0.696849
C41	C	-4.144500	0.035967	-0.229596
C42	C	-4.086185	0.120661	-0.229985
C43	C	-4.144477	-0.097854	-0.095769
C44	C	-4.086149	-0.098236	-0.011073
H45	H	-4.084688	-0.747698	-0.357321
H46	H	-3.575555	-0.093146	-0.596104
Br47	Br	-4.520865	-0.107179	-1.034463
H48	H	-4.348592	-0.105849	-0.866375
H49	H	-4.171013	-0.107656	-0.465865
Br50	Br	-3.580866	-0.090036	-0.828534
Br51	Br	-3.829365	-0.466892	-0.067174
Br52	Br	-3.923752	-0.679831	-0.066219
H53	H	-3.753126	-0.091350	-0.996613
Br54	Br	-3.917221	-0.331591	-0.397112
H55	H	-4.235015	-0.106992	-0.610227
H56	H	-3.775397	-0.306943	-0.105815
Br57	Br	-4.006932	-0.867408	-0.065371
Br58	Br	-3.403273	-0.091813	-0.428006
H59	H	-4.148719	-0.892063	-0.356672
Br60	Br	-4.000403	-0.519171	-0.396267
