data_functionalizedCrystal
_audit_creation_method	'MofGen! by Chris Wilmer'
_symmetry_space_group_name_H-M	'P1'
_symmetry_Int_Tables_number	1
_symmetry_cell_setting	triclinic
loop_
_symmetry_equiv_pos_as_xyz
  x,y,z
_cell_length_a	29.839135
_cell_length_b	14.908506
_cell_length_c	14.908308
_cell_angle_alpha	96.362085
_cell_angle_beta	93.274633
_cell_angle_gamma	93.322621
loop_
_atom_site_label
_atom_site_type_symbol
_atom_site_fract_x
_atom_site_fract_y
_atom_site_fract_z
Zn1	Zn	0.660298	-0.389823	-0.532654
Zn2	Zn	0.660248	-0.532468	-0.390028
Zn3	Zn	0.589772	-0.381131	-0.381303
Zn4	Zn	0.580557	-0.541148	-0.541327
O5	O	0.622719	-0.461142	-0.461328
O6	O	0.723158	-0.408750	-0.513756
O7	O	0.654735	-0.505123	-0.262210
O8	O	0.603006	-0.255618	-0.394100
O9	O	0.723121	-0.513551	-0.408969
O10	O	0.654821	-0.262004	-0.505296
O11	O	0.602957	-0.393936	-0.255801
O12	O	0.525684	-0.402352	-0.402510
O13	O	0.587299	-0.528344	-0.666837
O14	O	0.518913	-0.519916	-0.520079
O15	O	0.645884	-0.417166	-0.660465
O16	O	0.645799	-0.660285	-0.417379
O17	O	0.587250	-0.666662	-0.528538
C18	C	0.615531	-0.696317	-0.474866
C19	C	0.612496	-0.796928	-0.480688
C20	C	0.505998	-0.461133	-0.461289
C21	C	0.456063	-0.461152	-0.461295
C22	C	0.577715	-0.942083	-0.546714
C23	C	0.580565	-0.847551	-0.541250
C24	C	0.641580	-0.840843	-0.425588
C25	C	0.638729	-0.935376	-0.431052
C26	C	0.606795	-0.985993	-0.491616
C27	C	0.603943	-1.080526	-0.497074
C28	C	0.664959	-1.073817	-0.381417
C29	C	0.667810	-0.979285	-0.375954
C30	C	0.146429	-0.406665	-0.515981
C31	C	-0.041245	-0.406673	-0.516007
O32	O	-0.065499	-0.360323	-0.562459
N33	N	-0.064724	-0.461145	-0.461361
C34	C	-0.041282	-0.515615	-0.406701
O35	O	-0.065559	-0.561941	-0.360215
C36	C	0.146391	-0.515602	-0.406671
C37	C	0.169868	-0.461133	-0.461327
C38	C	0.169906	-0.352200	-0.570632
C39	C	0.216822	-0.352202	-0.570629
C40	C	0.240260	-0.406670	-0.515974
C41	C	0.216783	-0.461135	-0.461323
C42	C	0.169833	-0.570067	-0.352006
C43	C	0.216754	-0.570057	-0.352001
C44	C	0.240231	-0.515587	-0.406657
C45	C	0.287138	-0.515605	-0.406666
N46	N	0.310617	-0.461133	-0.461311
C47	C	0.287179	-0.406665	-0.515966
C48	C	-0.139814	-0.515620	-0.406722
C49	C	-0.186732	-0.515624	-0.406731
C50	C	-0.186691	-0.406680	-0.516036
C51	C	-0.139772	-0.406681	-0.516032
C52	C	-0.116334	-0.461147	-0.461368
C53	C	0.385705	-0.406675	-0.515955
C54	C	0.432624	-0.406685	-0.515950
C55	C	0.432579	-0.515624	-0.406641
C56	C	0.385664	-0.515618	-0.406650
C57	C	0.362228	-0.461136	-0.461309
O58	O	0.311421	-0.561923	-0.360230
O59	O	0.311464	-0.360332	-0.562430
C60	C	0.099514	-0.406663	-0.515985
C61	C	0.076037	-0.461128	-0.461334
C62	C	0.099476	-0.515596	-0.406679
C63	C	0.029119	-0.461133	-0.461342
C64	C	0.005680	-0.406665	-0.515997
C65	C	0.029160	-0.352193	-0.570642
C66	C	0.076075	-0.352195	-0.570639
C67	C	0.075996	-0.570068	-0.352033
C68	C	0.029080	-0.570062	-0.352042
C69	C	0.005642	-0.515595	-0.406696
C70	C	0.739896	-0.461152	-0.461368
C71	C	0.789830	-0.461156	-0.461385
C72	C	0.615569	-0.474693	-0.697411
C73	C	0.612523	-0.480467	-0.798015
C74	C	0.629947	-0.225050	-0.447757
C75	C	0.633027	-0.124442	-0.441974
C76	C	0.667802	-0.375528	-0.980427
C77	C	0.664941	-0.380950	-1.074953
C78	C	0.603937	-0.496729	-1.081597
C79	C	0.606798	-0.491307	-0.987070
C80	C	0.638732	-0.430705	-0.936488
C81	C	0.641595	-0.425288	-0.841960
C82	C	0.580590	-0.541062	-0.848605
C83	C	0.577729	-0.546484	-0.943132
C84	C	0.629868	-0.447579	-0.226160
C85	C	0.633010	-0.441550	-0.125542
H86	H	0.577942	-1.121737	-0.546391
H87	H	0.688611	-0.336016	-1.110724
H88	H	0.688639	-1.109578	-0.336552
H89	H	0.095075	-0.614422	-0.307525
H90	H	0.577938	-0.546068	-1.122796
C91	C	0.242252	-0.629258	-0.292803
C92	C	0.265874	-0.690279	-0.347294
C93	C	0.289372	-0.744821	-0.292795
H94	H	0.221598	-0.661780	-0.260240
H95	H	0.262830	-0.592337	-0.251439
H96	H	0.245299	-0.727195	-0.388641
H97	H	0.286536	-0.657781	-0.379855
H98	H	0.309950	-0.707901	-0.251431
H99	H	0.268714	-0.777338	-0.260235
H100	H	0.305406	-0.786225	-0.329757
C101	C	0.543105	-0.612253	-0.998214
C102	C	0.546826	-0.605208	-1.090402
C103	C	0.514942	-0.665791	-1.141170
H104	H	0.513770	-0.598185	-0.982063
H105	H	0.548292	-0.672204	-0.986277
H106	H	0.541635	-0.545270	-1.102334
H107	H	0.576153	-0.619284	-1.106581
H108	H	0.520129	-0.725742	-1.129233
H109	H	0.485610	-0.651718	-1.125011
H110	H	0.517466	-0.661025	-1.203725
H111	H	0.693806	-0.326187	-0.939243
H112	H	-0.205783	-0.362331	-0.560538
C113	C	0.543029	-0.996887	-0.612553
C114	C	0.518176	-0.938200	-0.659650
C115	C	0.486224	-0.988651	-0.720318
H116	H	0.523364	-1.031832	-0.580123
H117	H	0.557882	-1.035968	-0.654202
H118	H	0.503325	-0.899135	-0.618006
H119	H	0.537829	-0.903254	-0.692098
H120	H	0.501077	-1.027732	-0.761967
H121	H	0.466562	-1.023595	-0.687881
H122	H	0.469361	-0.948840	-0.752286
C123	C	0.549064	-0.799835	-0.601178
C124	C	0.574357	-0.748850	-0.656117
C125	C	0.545353	-0.704891	-0.711347
H126	H	0.531653	-0.760947	-0.564488
H127	H	0.529645	-0.843496	-0.638081
H128	H	0.593768	-0.705194	-0.619219
H129	H	0.591766	-0.787716	-0.692826
H130	H	0.525934	-0.748552	-0.748249
H131	H	0.527944	-0.666008	-0.674650
H132	H	0.562510	-0.670299	-0.748635
C133	C	0.360121	-0.574611	-0.347253
C134	C	0.336501	-0.519943	-0.286380
C135	C	0.312966	-0.574251	-0.231649
H136	H	0.380753	-0.607067	-0.314621
H137	H	0.339540	-0.616072	-0.384056
H138	H	0.357080	-0.478499	-0.249581
H139	H	0.315861	-0.487488	-0.318986
H140	H	0.292385	-0.615711	-0.268452
H141	H	0.333602	-0.606704	-0.199023
H142	H	0.296934	-0.537167	-0.190346
C143	C	0.676206	-0.785718	-0.359868
C144	C	0.672471	-0.693533	-0.366870
C145	C	0.704358	-0.642724	-0.306336
H146	H	0.705540	-0.801804	-0.374005
H147	H	0.671030	-0.797689	-0.299912
H148	H	0.677650	-0.681568	-0.426813
H149	H	0.643144	-0.677419	-0.352725
H150	H	0.699182	-0.654695	-0.246379
H151	H	0.733690	-0.658818	-0.320478
H152	H	0.701825	-0.580171	-0.311072
C153	C	0.003770	-0.292905	-0.629922
C154	C	0.018520	-0.202194	-0.605216
C155	C	-0.004857	-0.147553	-0.659805
H156	H	-0.027539	-0.300591	-0.622142
H157	H	0.009225	-0.309679	-0.691497
H158	H	0.013062	-0.185425	-0.543656
H159	H	0.049825	-0.194479	-0.613000
H160	H	0.000598	-0.164327	-0.721380
H161	H	-0.036165	-0.155248	-0.652021
H162	H	0.005150	-0.086001	-0.643055
C163	C	0.458034	-0.347444	-0.575321
C164	C	0.427462	-0.299726	-0.623164
C165	C	0.450852	-0.245137	-0.677853
H166	H	0.474088	-0.384293	-0.616773
H167	H	0.478579	-0.305920	-0.538505
H168	H	0.406924	-0.341245	-0.659977
H169	H	0.411407	-0.262859	-0.581734
H170	H	0.471397	-0.203613	-0.641037
H171	H	0.466905	-0.281993	-0.719300
H172	H	0.430113	-0.212747	-0.710314
C173	C	0.360200	-0.347679	-0.575365
C174	C	0.329938	-0.402343	-0.636240
C175	C	0.306432	-0.348034	-0.690979
H176	H	0.380853	-0.315231	-0.607996
H177	H	0.344121	-0.306212	-0.538568
H178	H	0.346016	-0.443795	-0.673033
H179	H	0.309276	-0.434791	-0.603635
H180	H	0.290353	-0.306567	-0.654182
H181	H	0.327088	-0.315589	-0.723604
H182	H	0.285894	-0.385115	-0.732283
C183	C	0.548950	-0.600921	-0.801007
C184	C	0.504407	-0.582545	-0.822870
C185	C	0.475249	-0.637676	-0.779048
H186	H	0.555165	-0.589069	-0.737456
H187	H	0.553166	-0.662645	-0.820018
H188	H	0.500193	-0.520836	-0.803854
H189	H	0.498177	-0.594402	-0.886413
H190	H	0.479465	-0.699399	-0.798058
H191	H	0.481469	-0.625819	-0.715499
H192	H	0.445024	-0.625221	-0.793882
C193	C	0.242372	-0.292994	-0.629812
C194	C	0.272635	-0.231974	-0.575311
C195	C	0.296181	-0.177420	-0.629799
H196	H	0.221743	-0.260471	-0.662374
H197	H	0.258454	-0.329907	-0.671176
H198	H	0.256554	-0.195065	-0.533963
H199	H	0.293273	-0.264472	-0.542750
H200	H	0.312263	-0.214334	-0.671163
H201	H	0.275548	-0.144903	-0.662358
H202	H	0.316720	-0.136017	-0.592829
H203	H	0.150828	-0.307840	-0.615138
C204	C	-0.114364	-0.347442	-0.575398
C205	C	-0.144938	-0.299733	-0.623246
C206	C	-0.121551	-0.245142	-0.677936
H207	H	-0.098307	-0.384289	-0.616847
H208	H	-0.093821	-0.305912	-0.538582
H209	H	-0.165473	-0.341259	-0.660059
H210	H	-0.160996	-0.262870	-0.581819
H211	H	-0.101008	-0.203612	-0.641120
H212	H	-0.105494	-0.281995	-0.719379
H213	H	-0.142291	-0.212759	-0.710401
H214	H	0.693811	-0.938062	-0.326646
H215	H	-0.205843	-0.559989	-0.362235
H216	H	0.150726	-0.614420	-0.307498
C217	C	-0.114454	-0.574861	-0.347344
C218	C	-0.145065	-0.622579	-0.299516
C219	C	-0.121723	-0.677173	-0.244821
H220	H	-0.093901	-0.538016	-0.305883
H221	H	-0.098412	-0.616387	-0.384155
H222	H	-0.161099	-0.581059	-0.262708
H223	H	-0.165618	-0.659441	-0.340954
H224	H	-0.105681	-0.718699	-0.281632
H225	H	-0.101171	-0.640321	-0.203365
H226	H	-0.142489	-0.709563	-0.212369
C227	C	0.458115	-0.574659	-0.347329
C228	C	0.504229	-0.562973	-0.359009
C229	C	0.527769	-0.617326	-0.304371
H230	H	0.448227	-0.636288	-0.363914
H231	H	0.452697	-0.557811	-0.285749
H232	H	0.509645	-0.579826	-0.420576
H233	H	0.514131	-0.501356	-0.342419
H234	H	0.522351	-0.600478	-0.242792
H235	H	0.517877	-0.678952	-0.320961
H236	H	0.559060	-0.609398	-0.312283
H237	H	0.095186	-0.307840	-0.615145
C238	C	0.003677	-0.629234	-0.292599
C239	C	0.034253	-0.676912	-0.244719
C240	C	0.010871	-0.731411	-0.189938
H241	H	-0.016880	-0.670789	-0.329327
H242	H	-0.012362	-0.592300	-0.251174
H243	H	0.050285	-0.713843	-0.286139
H244	H	0.054811	-0.635380	-0.207974
H245	H	-0.005169	-0.694477	-0.148513
H246	H	-0.009686	-0.772960	-0.226673
H247	H	0.031613	-0.763760	-0.157439
H248	H	0.667598	-0.375944	-0.800778
