data_functionalizedCrystal
_audit_creation_method	'MofGen! by Chris Wilmer'
_symmetry_space_group_name_H-M	'P1'
_symmetry_Int_Tables_number	1
_symmetry_cell_setting	triclinic
loop_
_symmetry_equiv_pos_as_xyz
  x,y,z
_cell_length_a	15.698487
_cell_length_b	18.878441
_cell_length_c	18.878441
_cell_angle_alpha	90.000507
_cell_angle_beta	60.002752
_cell_angle_gamma	59.998253
loop_
_atom_site_label
_atom_site_type_symbol
_atom_site_fract_x
_atom_site_fract_y
_atom_site_fract_z
Zr1	Zr	0.932365	0.682404	-0.092929
O2	O	1.110075	0.569297	-0.206030
O3	O	0.754654	0.717077	-0.058260
O4	O	0.932358	0.717078	-0.206032
O5	O	0.932376	0.569296	0.058309
O6	O	0.932353	0.833650	-0.206030
O7	O	0.932371	0.569296	-0.058258
O8	O	0.614473	0.833649	0.058307
O9	O	1.250257	0.569297	-0.206028
O10	O	0.827745	0.818861	-0.043470
O11	O	0.827753	0.731864	0.043522
O12	O	1.036977	0.731865	-0.130460
O13	O	1.036984	0.644868	-0.043468
Zr14	Zr	0.932365	0.868321	0.092986
Zr15	Zr	0.932357	0.868322	-0.092926
Zr16	Zr	0.932373	0.682403	0.092983
Zr17	Zr	1.155938	0.682403	-0.092925
Zr18	Zr	0.708792	0.868322	0.092982
O19	O	1.110075	0.833648	0.058317
O20	O	1.110064	0.833649	-0.206027
O21	O	1.110087	0.569295	0.058313
O22	O	0.754654	0.981428	0.206087
O23	O	0.754643	0.981430	-0.058256
O24	O	0.754665	0.717076	0.206084
O25	O	0.932353	0.981429	-0.058253
O26	O	0.932371	0.833647	0.206089
O27	O	0.932376	0.717075	0.206087
O28	O	0.932358	0.981429	0.058315
O29	O	1.250250	0.717077	-0.206026
O30	O	0.614479	0.833648	0.206083
O31	O	0.614473	0.981428	0.206085
O32	O	0.614466	0.981429	0.058309
O33	O	1.250263	0.569296	-0.058252
O34	O	1.250257	0.717076	-0.058250
O35	O	0.827753	0.818860	0.130517
O36	O	0.827745	0.905857	0.043525
O37	O	1.036977	0.818861	-0.043466
O38	O	1.036984	0.731864	0.043526
C39	C	0.652709	0.775363	0.000023
C40	C	0.557796	0.775363	0.000021
C41	C	0.932375	0.775361	0.232576
C42	C	0.932378	0.775361	0.311501
C43	C	0.932355	1.007919	0.000032
C44	C	0.932351	1.086846	0.000033
C45	C	0.384014	0.775361	0.000037
C46	C	0.480718	0.775360	0.000030
C47	C	1.212020	0.775362	0.000034
C48	C	1.306933	0.775362	0.000036
C49	C	0.932375	0.542806	0.000025
C50	C	0.932378	0.463879	0.000024
C51	C	0.823136	1.169337	0.045442
C52	C	0.823140	1.243495	0.045437
C53	C	0.932361	1.235160	0.000026
C54	C	1.041584	1.152660	-0.045389
C55	C	1.041579	1.078504	-0.045388
C56	C	1.041588	1.307227	-0.045386
C57	C	1.041593	1.381388	-0.045386
C58	C	0.823148	1.472218	0.045439
C59	C	0.823143	1.398062	0.045440
C60	C	0.932367	1.315567	0.000026
C61	C	0.932355	0.775364	-0.232519
C62	C	0.932351	0.775364	-0.311444
C63	C	1.041593	0.729951	0.303174
C64	C	1.041589	0.729947	0.377335
C65	C	0.932369	0.775358	0.459822
C66	C	0.823145	0.820769	0.468147
C67	C	0.823150	0.820768	0.393987
C68	C	0.823142	0.820771	0.622717
C69	C	0.823136	0.820774	0.696883
C70	C	1.041581	0.729950	0.606065
C71	C	1.041586	0.729949	0.531905
C72	C	0.932362	0.775361	0.540236
C73	C	0.652699	1.007919	0.000026
C74	C	0.557783	1.086846	0.000026
C75	C	0.652719	0.775362	0.232571
C76	C	0.557810	0.775361	0.311494
C77	C	0.652709	1.007918	0.232574
C78	C	0.557796	1.086845	0.311498
C79	C	1.212020	0.542807	-0.232517
C80	C	1.306933	0.463880	-0.311441
C81	C	1.212030	0.542806	0.000030
C82	C	1.306946	0.463879	0.000031
C83	C	1.212010	0.775363	-0.232514
C84	C	1.306920	0.775364	-0.311437
C85	C	0.513209	1.078501	-0.045393
C86	C	0.424038	1.152654	-0.045411
C87	C	0.379436	1.235153	-0.000005
C88	C	0.424018	1.243497	0.045415
C89	C	0.513194	1.169344	0.045427
C90	C	0.513239	0.820772	0.393975
C91	C	0.424075	0.820769	0.468138
C92	C	0.379476	0.775359	0.459819
C93	C	0.424055	0.729942	0.377329
C94	C	0.513224	0.729941	0.303168
C95	C	0.513221	1.169329	0.303153
C96	C	0.424052	1.243497	0.377303
C97	C	0.379456	1.235178	0.459798
C98	C	0.424040	1.152685	0.468142
C99	C	0.513213	1.078519	0.393992
C100	C	1.351520	0.381396	-0.303096
C101	C	1.440715	0.307228	-0.377246
C102	C	1.485317	0.315547	-0.459741
C103	C	1.440726	0.398040	-0.468085
C104	C	1.351538	0.472206	-0.393935
C105	C	1.351529	0.472224	0.045442
C106	C	1.440725	0.398071	0.045439
C107	C	1.485330	0.315572	0.000031
C108	C	1.440744	0.307228	-0.045385
C109	C	1.351556	0.381381	-0.045387
C110	C	1.351490	0.820782	-0.303090
C111	C	1.440656	0.820800	-0.377239
C112	C	1.485255	0.775393	-0.459735
C113	C	1.440675	0.729973	-0.468080
C114	C	1.351506	0.729961	-0.393932
H115	H	0.734195	1.176135	0.082425
Br116	Br	1.291033	0.584146	-0.405277
Br117	Br	1.189816	0.668326	0.419958
Br118	Br	0.363592	0.882411	0.580077
H119	H	0.734215	0.857740	0.535315
Br120	Br	0.573697	0.668309	0.191232
Br121	Br	0.258410	1.335781	-0.000031
Br122	Br	1.501142	0.882442	-0.365892
H123	H	0.549524	1.011333	-0.082378
H124	H	1.557863	0.775409	-0.520104
Br125	Br	0.573693	0.966579	0.405334
H126	H	1.130531	1.374595	-0.082338
Br127	Br	0.258459	0.775369	0.560477
Br128	Br	1.291017	0.584178	0.107072
Br129	Br	1.291056	0.370039	-0.107018
Br130	Br	0.363470	1.355467	0.107036
H131	H	0.387750	1.145843	-0.082397
H132	H	1.315226	0.692972	-0.400740
Br133	Br	1.291006	0.370082	-0.191148
H134	H	0.549474	1.176152	0.082417
Br135	Br	0.363514	0.668319	0.366053
Br136	Br	0.363561	1.355440	0.365959
H137	H	0.734214	1.539391	0.082417
Br138	Br	0.573731	1.180643	0.191205
H139	H	1.130530	1.240057	-0.082371
Br140	Br	1.189815	1.141345	-0.107012
H141	H	1.130514	1.011335	-0.082367
H142	H	1.477006	0.240066	-0.370435
Br143	Br	0.258434	1.335841	0.560422
H144	H	1.477012	0.404882	0.082426
Br145	Br	1.501226	0.668344	-0.580046
H146	H	0.549542	0.857751	0.400765
Br147	Br	1.606373	0.214944	0.000043
H148	H	1.130515	0.692971	0.599284
H149	H	0.387717	1.145925	0.535319
Br150	Br	1.501267	0.409315	-0.580049
Br151	Br	1.290983	0.882413	-0.191141
Br152	Br	1.501290	0.195258	-0.107005
Br153	Br	0.674912	1.355448	0.107064
Br154	Br	1.189830	0.668326	0.191231
Br155	Br	0.674913	1.409375	0.107083
H156	H	1.557939	0.255149	-0.520111
H157	H	1.130524	0.692971	0.370547
H158	H	0.734199	0.857746	0.629507
Br159	Br	0.674923	0.882391	0.405289
Br160	Br	0.674906	0.882442	0.808830
