data_functionalizedCrystal
_audit_creation_method	'MofGen! by Chris Wilmer'
_symmetry_space_group_name_H-M	'P1'
_symmetry_Int_Tables_number	1
_symmetry_cell_setting	triclinic
loop_
_symmetry_equiv_pos_as_xyz
  x,y,z
_cell_length_a	12.837943
_cell_length_b	12.811457
_cell_length_c	11.295483
_cell_angle_alpha	88.710680
_cell_angle_beta	94.533167
_cell_angle_gamma	90.588324
loop_
_atom_site_label
_atom_site_type_symbol
_atom_site_fract_x
_atom_site_fract_y
_atom_site_fract_z
O1	O	-0.143362	1.403247	-0.052524
O2	O	-0.156263	1.101285	-0.019913
O3	O	0.001170	1.245570	-0.035494
O4	O	-0.300795	1.258961	-0.036942
O5	O	-0.012636	1.232895	-0.232176
O6	O	-0.170069	1.088610	-0.216594
O7	O	-0.157168	1.390572	-0.249206
Cu8	Cu	-0.164879	1.238433	-0.250859
Cu9	Cu	-0.148552	1.253423	-0.018260
O10	O	-0.314601	1.246286	-0.233624
C11	C	-0.162020	1.056029	-0.114050
C12	C	-0.158593	0.940064	-0.101526
C13	C	-0.167186	0.708332	-0.292438
C14	C	-0.163966	0.599372	-0.280676
C15	C	-0.148925	0.613182	-0.066242
C16	C	-0.152145	0.722142	-0.078004
C17	C	-0.161278	0.769713	-0.191105
C18	C	-0.164505	0.878675	-0.202866
C19	C	-0.149457	0.892483	0.011567
C20	C	-0.146236	0.783523	0.023329
C21	C	-0.346373	1.257148	-0.135772
C22	C	-0.461611	1.270640	-0.137230
C23	C	-0.700634	1.108441	-0.119691
C24	C	-0.808911	1.121113	-0.121059
C25	C	-0.786443	1.308656	-0.141326
C26	C	-0.678166	1.295984	-0.139958
C27	C	-0.635266	1.195873	-0.129142
C28	C	-0.526988	1.183201	-0.127782
C29	C	-0.504521	1.370744	-0.148040
C30	C	-0.612797	1.383416	-0.149409
C31	C	0.032942	1.234709	-0.133344
C32	C	0.148180	1.221217	-0.131878
C33	C	-0.151411	1.435828	-0.155065
C34	C	-0.154837	1.551793	-0.167582
N35	N	-0.176362	1.227898	-0.414457
C36	C	-0.054340	1.339800	-0.675831
C37	C	-0.063025	1.331846	-0.799636
C38	C	-0.202413	1.204032	-0.785873
C39	C	-0.193728	1.211986	-0.662069
C40	C	-0.119690	1.279873	-0.607052
C41	C	-0.111010	1.287832	-0.483246
C42	C	-0.250392	1.160013	-0.469485
C43	C	-0.259077	1.152059	-0.593290
N44	N	-0.137060	1.263966	0.145338
H45	H	-0.144651	0.942471	0.094080
H46	H	-0.009809	1.380643	-0.855633
C47	C	-0.170633	0.531847	-0.392137
H48	H	-0.167450	0.460139	-0.368937
H49	H	-0.234682	0.544985	-0.437800
H50	H	-0.113909	0.548746	-0.438434
C51	C	-0.432618	1.466926	-0.158441
H52	H	-0.473680	1.528358	-0.165089
H53	H	-0.385090	1.470309	-0.089748
H54	H	-0.394736	1.461452	-0.226929
C55	C	-0.340516	1.077394	-0.653815
H56	H	-0.336336	1.081244	-0.737400
H57	H	-0.326965	1.007981	-0.625905
H58	H	-0.408502	1.096912	-0.635491
H59	H	-0.141472	0.574431	0.025840
H60	H	0.005938	1.395084	-0.631037
H61	H	-0.492061	1.101685	-0.118985
C62	C	-0.283843	1.129362	-0.846405
H63	H	-0.279655	1.133214	-0.929989
H64	H	-0.270287	1.059950	-0.818495
H65	H	-0.351833	1.148872	-0.828090
C66	C	-0.322292	1.094103	-0.393827
H67	H	-0.306518	1.108562	-0.312213
H68	H	-0.393117	1.111010	-0.416095
H69	H	-0.311584	1.022076	-0.406485
C70	C	-0.880813	1.024938	-0.110669
H71	H	-0.839753	0.963504	-0.104040
H72	H	-0.918707	1.030405	-0.042197
H73	H	-0.928332	1.021560	-0.179379
C74	C	-0.029580	1.362507	-0.422723
H75	H	-0.033773	1.358673	-0.339140
H76	H	0.038406	1.343010	-0.441045
H77	H	-0.043152	1.431921	-0.450639
C78	C	-0.174528	0.931003	-0.327271
H79	H	-0.177569	0.878837	-0.385935
H80	H	-0.236481	0.971279	-0.336131
H81	H	-0.115692	0.975163	-0.336504
C82	C	-0.136211	0.731193	0.147733
H83	H	-0.133154	0.783358	0.206398
H84	H	-0.195036	0.687029	0.156969
H85	H	-0.074248	0.690923	0.156588
H86	H	-0.174636	0.747065	-0.384530
C87	C	-0.653436	0.998329	-0.107804
H88	H	-0.579589	1.003304	-0.108352
H89	H	-0.670980	0.966291	-0.035283
H90	H	-0.680612	0.957462	-0.172467
C91	C	-0.833645	1.418766	-0.153212
H92	H	-0.907493	1.413786	-0.152675
H93	H	-0.806466	1.459640	-0.088565
H94	H	-0.816109	1.450798	-0.225748
H95	H	-0.647742	1.464923	-0.158220
