data_functionalizedCrystal
_audit_creation_method	'MofGen! by Chris Wilmer'
_symmetry_space_group_name_H-M	'P1'
_symmetry_Int_Tables_number	1
_symmetry_cell_setting	triclinic
loop_
_symmetry_equiv_pos_as_xyz
  x,y,z
_cell_length_a	14.519731
_cell_length_b	15.995343
_cell_length_c	12.996460
_cell_angle_alpha	89.989133
_cell_angle_beta	89.994327
_cell_angle_gamma	83.589018
loop_
_atom_site_label
_atom_site_type_symbol
_atom_site_fract_x
_atom_site_fract_y
_atom_site_fract_z
O1	O	1.223654	0.109845	-0.085580
O2	O	1.723654	0.609845	0.414420
O3	O	0.955156	0.122752	-0.085583
O4	O	1.455156	0.622752	0.414417
O5	O	1.096748	-0.005578	-0.085562
O6	O	1.596748	0.494422	0.414438
O7	O	1.082061	0.238175	-0.085601
O8	O	1.582061	0.738175	0.414399
O9	O	1.096733	-0.005585	0.085571
O10	O	1.596733	0.494415	0.585571
O11	O	0.955141	0.122745	0.085551
O12	O	1.455141	0.622745	0.585551
O13	O	1.223639	0.109838	0.085554
O14	O	1.723639	0.609838	0.585554
Cu15	Cu	1.089389	0.116291	0.101178
Cu16	Cu	1.589389	0.616291	0.601178
Cu17	Cu	1.089406	0.116300	-0.101208
Cu18	Cu	1.589406	0.616300	0.398792
O19	O	1.082047	0.238168	0.085533
O20	O	1.582047	0.738168	0.585533
C21	C	0.920790	0.122144	-0.000016
C22	C	1.420790	0.622144	0.499984
C23	C	0.818413	0.120332	-0.000017
C24	C	1.318413	0.620332	0.499983
C25	C	0.735272	0.118859	-0.000020
C26	C	1.235272	0.618859	0.499980
C27	C	0.630966	0.117019	-0.000021
C28	C	1.130966	0.617019	0.499979
C29	C	0.547830	0.115559	-0.000020
C30	C	1.047830	0.615559	0.499980
C31	C	0.443518	0.113719	-0.000022
C32	C	0.943518	0.613719	0.499978
C33	C	1.096135	-0.036777	0.000007
C34	C	1.596135	0.463223	0.500007
C35	C	1.094318	-0.129731	0.000015
C36	C	1.594318	0.370269	0.500015
C37	C	1.091021	-0.299922	-0.000008
C38	C	1.591021	0.200078	0.499992
C39	C	0.988813	-0.323428	-0.000012
C40	C	1.488813	0.176572	0.499988
C41	C	0.986890	-0.420109	-0.000411
C42	C	1.486890	0.079891	0.499589
C43	C	1.087774	-0.467487	-0.000030
C44	C	1.587774	0.032513	0.499970
C45	C	1.139174	-0.438304	-0.097559
C46	C	1.639174	0.061696	0.402441
C47	C	1.140386	-0.341509	-0.097629
C48	C	1.640386	0.158491	0.402371
C49	C	1.141866	-0.341619	0.096989
C50	C	1.641866	0.158381	0.596989
C51	C	1.138092	-0.438120	0.098259
C52	C	1.638092	0.061880	0.598259
C53	C	1.085944	-0.562188	-0.000046
C54	C	1.585944	-0.062188	0.499954
C55	C	1.092854	-0.205221	0.000001
C56	C	1.592854	0.294779	0.500001
C57	C	1.258005	0.110447	-0.000015
C58	C	1.758005	0.610447	0.499985
C59	C	1.360382	0.112259	-0.000022
C60	C	1.860382	0.612259	0.499978
C61	C	1.082660	0.269368	-0.000039
C62	C	1.582660	0.769368	0.499961
C63	C	1.084476	0.362321	-0.000054
C64	C	1.584476	0.862321	0.499946
N65	N	1.089383	0.116285	0.243525
N66	N	1.589383	0.616285	0.743525
N67	N	1.089419	0.116299	-0.243555
N68	N	1.589419	0.616299	0.256445
C69	C	1.089405	0.116300	0.663339
C70	C	1.589405	0.616300	1.163339
C71	C	1.089396	0.116299	0.546534
C72	C	1.589396	0.616299	1.046534
C73	C	1.089394	0.116293	0.453436
C74	C	1.589394	0.616293	0.953436
C75	C	1.089385	0.116290	0.336623
C76	C	1.589385	0.616290	0.836623
H77	H	0.946646	-0.439198	0.069481
H78	H	1.446646	0.060802	0.569481
Cl79	Cl	1.256105	-0.318822	-0.104013
Cl80	Cl	1.756105	0.181178	0.395987
Cl81	Cl	1.253808	-0.487288	-0.102742
Cl82	Cl	1.753808	0.012712	0.397258
H83	H	1.211707	-0.470954	0.104442
H84	H	1.711707	0.029046	0.604442
H85	H	0.949190	-0.295490	0.069919
H86	H	1.449190	0.204510	0.569919
Cl87	Cl	1.080304	-0.466876	0.209662
Cl88	Cl	1.580304	0.033124	0.709662
H89	H	0.949848	-0.294497	-0.069848
H90	H	1.449848	0.205503	0.430152
Cl91	Cl	0.925086	-0.448665	-0.108993
Cl92	Cl	1.425086	0.051335	0.391007
Cl93	Cl	1.092068	-0.298067	0.211163
Cl94	Cl	1.592068	0.201933	0.711163
H95	H	1.105218	-0.314770	-0.170812
H96	H	1.605218	0.185230	0.329188
H97	H	1.217094	-0.327481	0.097937
H98	H	1.717094	0.172519	0.597937
Cl99	Cl	1.084746	-0.469393	-0.210053
Cl100	Cl	1.584746	0.030607	0.289947
