data_functionalizedCrystal
_audit_creation_method	'MofGen! by Chris Wilmer'
_symmetry_space_group_name_H-M	'P1'
_symmetry_Int_Tables_number	1
_symmetry_cell_setting	triclinic
loop_
_symmetry_equiv_pos_as_xyz
  x,y,z
_cell_length_a	12.759401
_cell_length_b	12.827892
_cell_length_c	12.759393
_cell_angle_alpha	89.969663
_cell_angle_beta	89.979527
_cell_angle_gamma	90.016917
loop_
_atom_site_label
_atom_site_type_symbol
_atom_site_fract_x
_atom_site_fract_y
_atom_site_fract_z
Zn1	Zn	1.606257	-0.415934	-0.594025
Zn2	Zn	1.606147	-0.590713	-0.418348
Zn3	Zn	1.430557	-0.415992	-0.418361
Zn4	Zn	1.430545	-0.590639	-0.593985
O5	O	1.518376	-0.503319	-0.506180
O6	O	1.753263	-0.439126	-0.570733
O7	O	1.582813	-0.567591	-0.271328
O8	O	1.453914	-0.269748	-0.441685
O9	O	1.753182	-0.567536	-0.441663
O10	O	1.583000	-0.269706	-0.570745
O11	O	1.453808	-0.439224	-0.271338
O12	O	1.283534	-0.439152	-0.441646
O13	O	1.453894	-0.567408	-0.741011
O14	O	1.283526	-0.567464	-0.570676
O15	O	1.582989	-0.439054	-0.741041
O16	O	1.582802	-0.736939	-0.441624
O17	O	1.453788	-0.736885	-0.570664
C18	C	1.245409	-0.503307	-0.506159
C19	C	1.128632	-0.503326	-0.506175
C20	C	1.518311	-0.774829	-0.506161
C21	C	1.518379	-0.890982	-0.506188
C22	C	1.073793	-0.570240	-0.573255
C23	C	0.964069	-0.570244	-0.573276
C24	C	0.964033	-0.436417	-0.439127
C25	C	1.073755	-0.436409	-0.439112
C26	C	1.582295	-0.942760	-0.442406
C27	C	1.582366	-1.062810	-0.442433
C28	C	1.792410	-0.503333	-0.506201
C29	C	1.909186	-0.503339	-0.506210
C30	C	1.518453	-0.503216	-0.780213
C31	C	1.518485	-0.503173	-0.896990
C32	C	1.518471	-0.230749	-0.506221
C33	C	1.518511	-0.114596	-0.506239
C34	C	1.585731	-0.436288	-1.061600
C35	C	1.585711	-0.436329	-0.951876
C36	C	1.451282	-0.569988	-0.951833
C37	C	1.451309	-0.569952	-1.061556
C38	C	1.518361	-0.503347	-0.233212
C39	C	1.518532	-0.503096	-0.116436
H40	H	0.919424	-0.624731	-0.627901
O41	O	1.453304	-0.944233	-0.571413
C42	C	1.513180	-1.007243	-0.639299
H43	H	1.592845	-1.023443	-0.602305
H44	H	1.524618	-0.965172	-0.717196
C45	C	1.357678	-1.091120	-0.703638
C46	C	1.455520	-1.111025	-0.658197
H47	H	1.322110	-1.155136	-0.715300
H48	H	1.317337	-1.048666	-0.657905
H49	H	1.367223	-1.056059	-0.768547
H50	H	1.445974	-1.146074	-0.593284
H51	H	1.495859	-1.153487	-0.703920
H52	H	1.118406	-0.381913	-0.384487
H53	H	1.396586	-0.624360	-1.106204
O54	O	1.650885	-0.371242	-1.114958
C55	C	1.591113	-0.303736	-1.178451
H56	H	1.508360	-0.297286	-1.145378
H57	H	1.587503	-0.336016	-1.261602
C58	C	1.744121	-0.203026	-1.220781
C59	C	1.642485	-0.195097	-1.180154
H60	H	1.775811	-0.136013	-1.221836
H61	H	1.784392	-0.248508	-1.178008
H62	H	1.741099	-0.229930	-1.290069
H63	H	1.645509	-0.168206	-1.110863
H64	H	1.602215	-0.149608	-1.222916
O65	O	1.647365	-0.889576	-0.377122
C66	C	1.587489	-0.826522	-0.309276
H67	H	1.504796	-0.859559	-0.302690
H68	H	1.583727	-0.743823	-0.341817
C69	C	1.740436	-0.784154	-0.208192
C70	C	1.638873	-0.824736	-0.200096
H71	H	1.772133	-0.783048	-0.140846
H72	H	1.780777	-0.826631	-0.253904
H73	H	1.737287	-0.715242	-0.235314
H74	H	1.642025	-0.893651	-0.172988
H75	H	1.598534	-0.782270	-0.154378
H76	H	1.637084	-1.107337	-0.387824
H77	H	1.640433	-0.381928	-0.907233
O78	O	1.386132	-0.634973	-0.898396
C79	C	1.445920	-0.702500	-0.834941
H80	H	1.525548	-0.665649	-0.818533
H81	H	1.457444	-0.779933	-0.877207
C82	C	1.290293	-0.766707	-0.750850
C83	C	1.388091	-0.721441	-0.730690
H84	H	1.254621	-0.778395	-0.686545
H85	H	1.250012	-0.721215	-0.793603
H86	H	1.299911	-0.831229	-0.786074
H87	H	1.378472	-0.656914	-0.695479
H88	H	1.428369	-0.766922	-0.687928
O89	O	1.453074	-1.061539	-0.571281
C90	C	1.348367	-1.088264	-0.548280
H91	H	1.343093	-1.118402	-0.464377
H92	H	1.320858	-1.151522	-0.604655
C93	C	1.284749	-0.954280	-0.663390
C94	C	1.278271	-0.991287	-0.560336
H95	H	1.241509	-0.894462	-0.670832
H96	H	1.355293	-0.936276	-0.678891
H97	H	1.261827	-1.007003	-0.710358
H98	H	1.301205	-0.938569	-0.513372
H99	H	1.207730	-1.009279	-0.544828
H100	H	1.118471	-0.624726	-0.627864
H101	H	0.919338	-0.381937	-0.384525
