data_functionalizedCrystal
_audit_creation_method	'MofGen! by Chris Wilmer'
_symmetry_space_group_name_H-M	'P1'
_symmetry_Int_Tables_number	1
_symmetry_cell_setting	triclinic
loop_
_symmetry_equiv_pos_as_xyz
  x,y,z
_cell_length_a	12.759395
_cell_length_b	16.625545
_cell_length_c	12.759387
_cell_angle_alpha	90.033397
_cell_angle_beta	89.979491
_cell_angle_gamma	89.974426
loop_
_atom_site_label
_atom_site_type_symbol
_atom_site_fract_x
_atom_site_fract_y
_atom_site_fract_z
Zn1	Zn	1.606201	0.320926	-0.593986
Zn2	Zn	1.606063	0.455781	-0.418299
Zn3	Zn	1.430499	0.320970	-0.418323
Zn4	Zn	1.430462	0.455724	-0.593938
O5	O	1.518306	0.388350	-0.506136
O6	O	1.753203	0.338820	-0.570691
O7	O	1.582731	0.437941	-0.271281
O8	O	1.453879	0.208132	-0.441656
O9	O	1.753102	0.437898	-0.441614
O10	O	1.582966	0.208099	-0.570714
O11	O	1.453745	0.338895	-0.271299
O12	O	1.283473	0.338840	-0.441609
O13	O	1.453817	0.437800	-0.740965
O14	O	1.283446	0.437843	-0.570632
O15	O	1.582931	0.338765	-0.741001
O16	O	1.582696	0.568606	-0.441567
O17	O	1.453683	0.568564	-0.570608
C18	C	1.245339	0.388341	-0.506118
C19	C	1.128562	0.388356	-0.506135
C20	C	1.518199	0.597841	-0.506103
C21	C	1.518250	0.687462	-0.506123
C22	C	1.128573	0.491615	-0.640270
C23	C	1.073717	0.543250	-0.707340
C24	C	0.963996	0.543260	-0.707353
C25	C	0.909127	0.491627	-0.640291
C26	C	0.963982	0.439991	-0.573221
C27	C	1.073706	0.439989	-0.573213
C28	C	0.963972	0.336730	-0.439093
C29	C	1.073693	0.336723	-0.439073
C30	C	0.909103	0.285096	-0.372030
C31	C	0.963958	0.233463	-0.304953
C32	C	1.073686	0.233456	-0.304942
C33	C	1.128549	0.285087	-0.372003
C34	C	1.518421	1.015638	-0.506249
C35	C	1.518370	0.924329	-0.506217
C36	C	1.518334	0.851553	-0.506186
C37	C	1.518285	0.760239	-0.506155
C38	C	1.792339	0.388361	-0.506155
C39	C	1.909116	0.388365	-0.506163
C40	C	1.518385	0.388271	-0.780170
C41	C	1.518419	0.388238	-0.896947
C42	C	1.518433	1.178041	-0.506205
C43	C	1.518464	1.088420	-0.506267
C44	C	1.652875	0.285119	-0.897004
C45	C	1.720117	0.233547	-0.951893
C46	C	1.720143	0.233518	-1.061614
C47	C	1.652916	0.285064	-1.116449
C48	C	1.585674	0.336635	-1.061560
C49	C	1.585658	0.336661	-0.951836
C50	C	1.451215	0.439749	-1.061503
C51	C	1.451193	0.439784	-0.951782
C52	C	1.383988	0.491295	-1.116338
C53	C	1.316750	0.542872	-1.061449
C54	C	1.316728	0.542900	-0.951721
C55	C	1.383950	0.491355	-0.896892
C56	C	1.518287	0.388371	-0.233169
C57	C	1.518457	0.388177	-0.116393
H58	H	1.217914	0.491618	-0.640259
O59	O	1.132893	0.598921	-0.779696
H60	H	1.218406	0.590241	-0.768426
O61	O	0.904819	0.598998	-0.779628
H62	H	0.961401	0.634920	-0.826233
O63	O	1.383935	0.491399	-0.778550
H64	H	1.304699	0.475109	-0.749603
O65	O	0.904763	0.177788	-0.232630
H66	H	0.925846	0.114519	-0.250794
O67	O	1.792623	0.177952	-0.892752
H68	H	1.875072	0.191783	-0.913830
O69	O	0.790784	0.491659	-0.640267
H70	H	0.761858	0.536249	-0.698157
O71	O	0.790760	0.285134	-0.371996
H72	H	0.761831	0.329730	-0.429877
H73	H	1.118343	0.191402	-0.250332
O74	O	1.244245	0.598456	-1.120596
H75	H	1.197480	0.634322	-1.063998
O76	O	1.246891	0.285086	-0.371986
H77	H	1.275866	0.224290	-0.393359
O78	O	1.652848	0.285155	-0.778661
H79	H	1.710885	0.240648	-0.749752
O80	O	1.384004	0.491264	-1.234681
H81	H	1.463236	0.507571	-1.263622
H82	H	1.774891	0.191519	-1.106305
O83	O	1.652932	0.285030	-1.234792
H84	H	1.710983	0.240510	-1.263748
H85	H	1.261959	0.584887	-0.907036
