data_functionalizedCrystal
_audit_creation_method	'MofGen! by Chris Wilmer'
_symmetry_space_group_name_H-M	'P1'
_symmetry_Int_Tables_number	1
_symmetry_cell_setting	triclinic
loop_
_symmetry_equiv_pos_as_xyz
  x,y,z
_cell_length_a	17.038272
_cell_length_b	14.044191
_cell_length_c	13.101039
_cell_angle_alpha	86.337551
_cell_angle_beta	86.388703
_cell_angle_gamma	87.848334
loop_
_atom_site_label
_atom_site_type_symbol
_atom_site_fract_x
_atom_site_fract_y
_atom_site_fract_z
O1	O	-0.185617	1.277886	-0.085138
O2	O	-0.178770	1.001365	-0.085152
O3	O	-0.068263	1.137983	-0.085154
O4	O	-0.296125	1.141269	-0.085136
O5	O	-0.076206	1.128182	0.085276
O6	O	-0.186714	0.991564	0.085278
O7	O	-0.193560	1.268085	0.085292
Zn8	Zn	-0.191398	1.128269	0.112344
Zn9	Zn	-0.180933	1.141182	-0.112205
O10	O	-0.304068	1.131468	0.085294
C11	C	-0.179747	0.960909	0.000061
C12	C	-0.170813	0.854963	0.000055
C13	C	-0.217840	0.608468	0.000069
C14	C	-0.154494	0.660989	0.000062
C15	C	-0.163576	0.768926	0.000058
C16	C	-0.208759	0.500521	0.000073
C17	C	-0.329434	1.139358	0.000081
C18	C	-0.416851	1.148276	0.000088
C19	C	-0.461235	1.066388	0.000084
C20	C	-0.543372	1.074775	0.000071
C21	C	-0.581124	1.165051	0.000071
C22	C	-0.536734	1.246945	0.000072
C23	C	-0.454598	1.238558	0.000077
C24	C	-0.828954	1.194682	0.000049
C25	C	-0.911096	1.203063	0.000047
C26	C	-0.917728	1.030892	0.000044
C27	C	-0.835590	1.022512	0.000055
C28	C	-0.791208	1.104407	0.000051
C29	C	-0.665081	1.173625	0.000061
C30	C	-0.707252	1.095832	0.000053
C31	C	-0.042897	1.130093	0.000056
C32	C	0.044521	1.121175	0.000042
C33	C	-0.192584	1.308542	0.000076
C34	C	-0.201517	1.414488	0.000076
N35	N	-0.198540	1.119463	0.265593
N36	N	-0.173785	1.149995	-0.265453
C37	C	-0.208265	1.107482	0.474636
C38	C	-0.164062	1.161973	0.525510
C39	C	-0.169473	1.155307	0.641829
C40	C	-0.202855	1.114147	0.358306
H41	H	-0.430504	0.992875	0.000096
H42	H	-0.093436	0.624895	-0.000015
H43	H	-0.278890	0.644564	0.000070
H44	H	-0.579505	1.008093	0.000064
H45	H	-0.804858	0.949001	0.000044
H46	H	-0.953873	0.964218	0.000046
H47	H	-0.941831	1.276580	0.000047
H48	H	-0.676510	1.022330	0.000048
H49	H	-0.792828	1.261367	0.000052
H50	H	-0.695829	1.247126	0.000095
H51	H	-0.122156	1.213630	0.481707
H52	H	-0.567478	1.320450	0.000074
H53	H	-0.418462	1.305241	0.000077
H54	H	-0.250170	1.055830	0.518433
