data_functionalizedCrystal
_audit_creation_method	'MofGen! by Chris Wilmer'
_symmetry_space_group_name_H-M	'P1'
_symmetry_Int_Tables_number	1
_symmetry_cell_setting	triclinic
loop_
_symmetry_equiv_pos_as_xyz
  x,y,z
_cell_length_a	16.959455
_cell_length_b	18.050590
_cell_length_c	16.959447
_cell_angle_alpha	89.968143
_cell_angle_beta	89.977004
_cell_angle_gamma	90.015572
loop_
_atom_site_label
_atom_site_type_symbol
_atom_site_fract_x
_atom_site_fract_y
_atom_site_fract_z
Zn1	Zn	1.208413	-0.295703	-0.447028
Zn2	Zn	1.708413	0.204297	0.052972
Zn3	Zn	1.208333	-0.419905	-0.314846
Zn4	Zn	1.708333	0.080095	0.185154
Zn5	Zn	1.076235	-0.295727	-0.314852
Zn6	Zn	1.576235	0.204273	0.185148
Zn7	Zn	1.076209	-0.419849	-0.446971
Zn8	Zn	1.576209	0.080151	0.053029
O9	O	1.142297	-0.357796	-0.380924
O10	O	1.642297	0.142204	0.119076
O11	O	1.319013	-0.312192	-0.429516
O12	O	1.819013	0.187808	0.070484
O13	O	1.190787	-0.403466	-0.204236
O14	O	1.690787	0.096534	0.295764
O15	O	1.093813	-0.191799	-0.332412
O16	O	1.593813	0.308201	0.167588
O17	O	1.318954	-0.403443	-0.332402
O18	O	1.818954	0.096557	0.167598
O19	O	1.190923	-0.191782	-0.429521
O20	O	1.690923	0.308218	0.070479
O21	O	1.093735	-0.312232	-0.204240
O22	O	1.593735	0.187768	0.295760
O23	O	0.965621	-0.312179	-0.332356
O24	O	1.465621	0.187821	0.167644
O25	O	1.093769	-0.403348	-0.557590
O26	O	1.593769	0.096652	-0.057590
O27	O	0.965602	-0.403371	-0.429423
O28	O	1.465602	0.096629	0.070577
O29	O	1.190898	-0.312138	-0.557632
O30	O	1.690898	0.187862	-0.057632
O31	O	1.190762	-0.523822	-0.332347
O32	O	1.690762	-0.023822	0.167653
O33	O	1.093691	-0.523781	-0.429418
O34	O	1.593691	-0.023781	0.070582
C35	C	0.936931	-0.357772	-0.380885
C36	C	1.436931	0.142228	0.119115
C37	C	0.849075	-0.357779	-0.380886
C38	C	1.349075	0.142221	0.119114
C39	C	0.477558	-0.405263	-0.330332
C40	C	0.977558	0.094737	0.169668
C41	C	0.477640	-0.310391	-0.431613
C42	C	0.977640	0.189609	0.068387
C43	C	0.560186	-0.310378	-0.431594
C44	C	1.060186	0.189622	0.068406
C45	C	0.601422	-0.357810	-0.380944
C46	C	1.101422	0.142190	0.119056
C47	C	0.560111	-0.405254	-0.330313
C48	C	1.060111	0.094746	0.169687
C49	C	0.601503	-0.262941	-0.482230
C50	C	1.101503	0.237059	0.017770
C51	C	0.684054	-0.262927	-0.482214
C52	C	1.184054	0.237073	0.017786
C53	C	0.725291	-0.310356	-0.431559
C54	C	1.225291	0.189644	0.068441
C55	C	0.683975	-0.357801	-0.380925
C56	C	1.183975	0.142199	0.119075
C57	C	0.725211	-0.405232	-0.330274
C58	C	1.225211	0.094768	0.169726
C59	C	0.683897	-0.452674	-0.279636
C60	C	1.183897	0.047326	0.220364
C61	C	0.601348	-0.452682	-0.279657
C62	C	1.101348	0.047318	0.220343
C63	C	0.807839	-0.310348	-0.431537
C64	C	1.307839	0.189652	0.068463
C65	C	0.807764	-0.405223	-0.330255
C66	C	1.307764	0.094777	0.169745
C67	C	1.142237	-0.550748	-0.380893
C68	C	1.642237	-0.050748	0.119107
C69	C	1.142283	-0.633294	-0.380906
C70	C	1.642283	-0.133294	0.119094
C71	C	1.195180	-0.832740	-0.328192
C72	C	1.695180	-0.332740	0.171808
C73	C	1.214486	-0.882069	-0.400335
C74	C	1.714486	-0.382069	0.099665
C75	C	1.142328	-0.784424	-0.380937
C76	C	1.642328	-0.284424	0.119063
C77	C	1.123102	-0.882176	-0.308827
C78	C	1.623102	-0.382176	0.191173
C79	C	1.142373	-0.930409	-0.380962
C80	C	1.642373	-0.430409	0.119038
C81	C	1.161671	-0.832667	-0.453118
C82	C	1.661671	-0.332667	0.046882
C83	C	1.070254	-0.832769	-0.361562
C84	C	1.570254	-0.332769	0.138438
C85	C	1.089532	-0.882077	-0.433754
C86	C	1.589532	-0.382077	0.066246
C87	C	1.142304	-0.700326	-0.380922
C88	C	1.642304	-0.200326	0.119078
C89	C	1.142396	-1.014506	-0.380985
C90	C	1.642396	-0.514506	0.119015
C91	C	1.348466	-0.357821	-0.380965
C92	C	1.848466	0.142179	0.119035
C93	C	1.436322	-0.357832	-0.380982
C94	C	1.936322	0.142168	0.119018
C95	C	1.142340	-0.357734	-0.587093
C96	C	1.642340	0.142266	-0.087093
C97	C	1.142358	-0.357708	-0.674949
C98	C	1.642358	0.142292	-0.174949
C99	C	1.142380	-0.164090	-0.380973
C100	C	1.642380	0.335910	0.119027
C101	C	1.142415	-0.081545	-0.380994
C102	C	1.642415	0.418455	0.119006
C103	C	1.091897	-0.310129	-1.046434
C104	C	1.591897	0.189871	-0.546434
C105	C	1.192958	-0.405131	-1.046417
C106	C	1.692958	0.094869	-0.546417
C107	C	1.192944	-0.405148	-0.963871
C108	C	1.692944	0.094852	-0.463871
C109	C	1.142405	-0.357656	-0.922603
C110	C	1.642405	0.142344	-0.422603
C111	C	1.091880	-0.310146	-0.963880
C112	C	1.591880	0.189854	-0.463880
C113	C	1.243462	-0.452662	-0.922587
C114	C	1.743462	0.047338	-0.422587
C115	C	1.243450	-0.452682	-0.840036
C116	C	1.743450	0.047318	-0.340036
C117	C	1.192915	-0.405185	-0.798766
C118	C	1.692915	0.094815	-0.298766
C119	C	1.142388	-0.357673	-0.840049
C120	C	1.642388	0.142327	-0.340049
C121	C	1.091850	-0.310181	-0.798780
C122	C	1.591850	0.189819	-0.298780
C123	C	1.041327	-0.262665	-0.840062
C124	C	1.541327	0.237335	-0.340062
C125	C	1.041345	-0.262650	-0.922610
C126	C	1.541345	0.237350	-0.422610
C127	C	1.192896	-0.405200	-0.716218
C128	C	1.692896	0.094800	-0.216218
C129	C	1.091833	-0.310198	-0.716227
C130	C	1.591833	0.189802	-0.216227
C131	C	1.142301	-0.357804	-0.175558
C132	C	1.642301	0.142196	0.324442
C133	C	1.142436	-0.357621	-0.087702
C134	C	1.642436	0.142379	0.412298
H135	H	0.444061	-0.271778	-0.472855
H136	H	0.944061	0.228222	0.027145
O137	O	0.986824	-0.211438	-0.795544
O138	O	1.486824	0.288562	-0.295544
H139	H	0.924782	-0.224161	-0.811363
H140	H	1.424782	0.275839	-0.311363
O141	O	1.254390	-0.804045	-0.269156
O142	O	1.754390	-0.304045	0.230844
H143	H	1.253454	-0.742561	-0.269264
H144	H	1.753454	-0.242561	0.230736
H145	H	0.717684	-0.224297	-0.523446
H146	H	1.217684	0.275703	-0.023446
O147	O	1.037328	-0.258967	-0.671718
O148	O	1.537328	0.241033	-0.171718
H149	H	0.975288	-0.271689	-0.687541
H150	H	1.475288	0.228311	-0.187541
O151	O	1.247461	-0.456352	-1.090929
O152	O	1.747461	0.043648	-0.590929
H153	H	1.233873	-0.514640	-1.075066
H154	H	1.733873	-0.014640	-0.575066
O155	O	1.101441	-0.910852	-0.228010
O156	O	1.601441	-0.410852	0.271990
H157	H	1.046924	-0.944656	-0.232176
H158	H	1.546924	-0.444656	0.267824
O159	O	1.030350	-0.910592	-0.492915
O160	O	1.530350	-0.410592	0.007085
H161	H	1.030422	-0.972079	-0.492150
H162	H	1.530422	-0.472079	0.007850
O163	O	1.297969	-0.503885	-0.967094
O164	O	1.797969	-0.003885	-0.467094
H165	H	1.289499	-0.495882	-1.031430
H166	H	1.789499	0.004118	-0.531430
O167	O	0.728380	-0.503828	-0.225005
O168	O	1.228380	-0.003828	0.274995
H169	H	0.712543	-0.562134	-0.238452
H170	H	1.212543	-0.062134	0.261548
H171	H	0.567703	-0.491307	-0.238430
H172	H	1.067703	0.008693	0.261570
H173	H	0.841473	-0.271723	-0.472767
H174	H	1.341473	0.228277	0.027233
H175	H	0.567923	-0.224329	-0.523472
H176	H	1.067923	0.275671	-0.023472
H177	H	1.275457	-0.903726	-0.416738
H178	H	1.775457	-0.403726	0.083262
O179	O	1.183339	-0.803993	-0.533934
O180	O	1.683339	-0.303993	-0.033934
H181	H	1.183182	-0.742506	-0.533281
H182	H	1.683182	-0.242506	-0.033281
O183	O	0.989518	-0.804046	-0.339808
O184	O	1.489518	-0.304046	0.160192
H185	H	0.973672	-0.823838	-0.279885
H186	H	1.473672	-0.323838	0.220115
O187	O	0.986870	-0.211389	-0.967131
O188	O	1.486870	0.288611	-0.467131
H189	H	0.995374	-0.219357	-1.031465
H190	H	1.495374	0.280643	-0.531465
H191	H	1.050765	-0.271440	-1.080048
H192	H	1.550765	0.228560	-0.580048
H193	H	1.234037	-0.443882	-0.682611
H194	H	1.734037	0.056118	-0.182611
O195	O	0.852240	-0.456380	-0.275622
O196	O	1.352240	0.043620	0.224378
H197	H	0.809642	-0.489371	-0.240420
H198	H	1.309642	0.010629	0.259580
O199	O	0.433007	-0.456431	-0.275714
O200	O	0.933007	0.043569	0.224286
H201	H	0.368677	-0.448474	-0.284234
H202	H	0.868677	0.051526	0.215766
H203	H	1.284588	-0.491373	-0.806432
H204	H	1.784588	0.008627	-0.306432
