data_functionalizedCrystal
_audit_creation_method	'MofGen! by Chris Wilmer'
_symmetry_space_group_name_H-M	'P1'
_symmetry_Int_Tables_number	1
_symmetry_cell_setting	triclinic
loop_
_symmetry_equiv_pos_as_xyz
  x,y,z
_cell_length_a	33.359672
_cell_length_b	33.359674
_cell_length_c	33.359725
_cell_angle_alpha	90.002336
_cell_angle_beta	59.997790
_cell_angle_gamma	119.999824
loop_
_atom_site_label
_atom_site_type_symbol
_atom_site_fract_x
_atom_site_fract_y
_atom_site_fract_z
O1	O	0.353587	-0.274991	-0.011927
O2	O	0.271501	-0.216698	0.011867
O3	O	0.353584	-0.216698	-0.070218
O4	O	0.271504	-0.274991	0.070158
O5	O	0.286913	-0.283369	-0.070217
O6	O	0.204830	-0.283369	0.011868
O7	O	0.286915	-0.341662	-0.011926
Zn8	Zn	0.235287	-0.323101	-0.000029
Zn9	Zn	0.323130	-0.235259	-0.000030
O10	O	0.204833	-0.341662	0.070158
C11	C	0.117512	-0.073731	0.028809
C12	C	0.068931	-0.098077	0.029147
C13	C	0.117509	-0.146322	0.028814
C14	C	0.068928	-0.170558	0.029151
C15	C	0.044923	-0.146320	0.028809
C16	C	0.141407	-0.098079	0.029151
C17	C	0.196155	0.004722	0.022919
C18	C	0.222880	0.054297	0.019200
C19	C	0.199944	0.079161	0.017331
C20	C	0.228920	0.132913	0.013296
C21	C	0.150277	0.054455	0.019187
C22	C	0.123552	0.004883	0.022908
C23	C	0.146493	-0.019981	0.024772
C24	C	-0.027638	-0.146130	0.022914
C25	C	-0.073493	-0.168979	0.019194
C26	C	-0.096492	-0.216782	0.017330
C27	C	-0.146209	-0.241558	0.013295
C28	C	-0.073644	-0.241744	0.019190
C29	C	-0.027793	-0.218897	0.022912
C30	C	-0.004790	-0.171090	0.024771
C31	C	0.196149	-0.146136	0.022928
C32	C	0.222876	-0.168985	0.019206
C33	C	0.199936	-0.216787	0.017342
C34	C	0.228910	-0.241565	0.013312
C35	C	0.150274	-0.241745	0.019196
C36	C	0.123547	-0.218899	0.022915
C37	C	0.146487	-0.171094	0.024781
O38	O	-0.279069	-0.341655	-0.011947
O39	O	-0.162484	-0.283360	0.011844
O40	O	-0.162479	-0.283364	-0.070239
O41	O	-0.279074	-0.341650	0.070137
O42	O	-0.162476	-0.216692	-0.070243
O43	O	-0.162482	-0.216688	0.011840
O44	O	-0.279066	-0.274982	-0.011951
Zn45	Zn	-0.220774	-0.235249	-0.000056
Zn46	Zn	-0.220777	-0.323093	-0.000051
O47	O	-0.279072	-0.274978	0.070133
C48	C	0.440913	-0.146329	-0.367177
C49	C	0.489495	-0.098086	-0.391412
C50	C	0.440913	-0.146329	-0.294588
C51	C	0.489495	-0.098086	-0.318933
C52	C	0.513502	-0.073740	-0.367176
C53	C	0.417016	-0.170565	-0.318934
C54	C	0.362270	-0.219081	-0.366989
C55	C	0.335546	-0.242087	-0.389839
C56	C	0.358484	-0.217283	-0.437640
C57	C	0.329509	-0.242225	-0.462417
C58	C	0.408152	-0.169473	-0.462601
C59	C	0.434876	-0.146469	-0.439753
C60	C	0.411933	-0.171273	-0.391947
C61	C	0.586065	0.004714	-0.439927
C62	C	0.631921	0.054287	-0.462933
C63	C	0.654919	0.079151	-0.438129
C64	C	0.704637	0.132902	-0.463070
C65	C	0.632069	0.054444	-0.390319
C66	C	0.586218	0.004872	-0.367315
C67	C	0.563216	-0.019991	-0.392119
C68	C	0.362270	-0.219081	-0.216134
C69	C	0.335542	-0.242085	-0.166558
C70	C	0.358480	-0.217281	-0.141694
C71	C	0.329505	-0.242223	-0.087942
C72	C	0.408143	-0.169473	-0.166398
C73	C	0.434872	-0.146467	-0.215972
C74	C	0.411933	-0.171273	-0.240838
C75	C	0.513517	-0.412027	-0.028902
C76	C	0.489511	-0.460269	-0.029242
C77	C	0.440925	-0.412028	-0.028898
C78	C	0.417029	-0.460271	-0.029238
C79	C	0.440928	-0.484616	-0.028901
C80	C	0.489508	-0.387792	-0.029238
C81	C	0.586081	-0.339274	-0.023012
C82	C	0.631938	-0.316267	-0.019295
C83	C	0.654938	-0.341070	-0.017432
C84	C	0.704657	-0.316127	-0.013400
C85	C	0.632089	-0.388880	-0.019290
C86	C	0.586236	-0.411885	-0.023009
C87	C	0.563232	-0.387082	-0.024867
C88	C	0.435229	-0.563069	-0.023015
C89	C	0.408662	-0.612643	-0.019298
C90	C	0.358994	-0.637507	-0.017431
C91	C	0.330184	-0.691258	-0.013399
C92	C	0.335888	-0.612801	-0.019285
C93	C	0.362454	-0.563229	-0.023004
C94	C	0.412123	-0.538365	-0.024867
C95	C	0.435220	-0.339277	-0.023003
C96	C	0.408646	-0.316273	-0.019276
C97	C	0.358978	-0.341078	-0.017410
C98	C	0.330165	-0.316137	-0.013373
C99	C	0.335875	-0.388886	-0.019265
C100	C	0.362444	-0.411892	-0.022990
C101	C	0.412117	-0.387085	-0.024859
O102	O	0.286933	0.291016	-0.011949
O103	O	0.204848	0.150641	0.011842
O104	O	0.286934	0.232718	-0.070242
O105	O	0.204846	0.208939	0.070135
O106	O	0.353602	0.232716	-0.070238
O107	O	0.271516	0.150639	0.011846
O108	O	0.353601	0.291014	-0.011945
Zn109	Zn	0.323143	0.220826	-0.000049
Zn110	Zn	0.235305	0.220829	-0.000054
O111	O	0.271514	0.208937	0.070139
O112	O	0.837498	0.291002	-0.495832
O113	O	0.720911	0.150628	-0.437542
O114	O	0.720908	0.232707	-0.437536
O115	O	0.837501	0.208922	-0.495838
O116	O	0.720909	0.232709	-0.504208
O117	O	0.720912	0.150629	-0.504214
O118	O	0.837499	0.291004	-0.562504
Zn119	Zn	0.779206	0.220817	-0.543945
Zn120	Zn	0.779204	0.220814	-0.456101
O121	O	0.837502	0.208924	-0.562510
O122	O	0.271499	-0.274996	-0.562510
O123	O	0.353583	-0.216699	-0.504219
O124	O	0.271499	-0.216701	-0.504213
O125	O	0.353584	-0.274994	-0.562515
O126	O	0.204829	-0.283371	-0.437542
O127	O	0.286913	-0.283369	-0.437547
O128	O	0.204829	-0.341666	-0.495839
Zn129	Zn	0.235286	-0.323102	-0.456107
Zn130	Zn	0.323126	-0.235262	-0.543950
O131	O	0.286914	-0.341664	-0.495844
C132	C	0.044913	-0.484622	0.367117
C133	C	0.068919	-0.460277	0.391353
C134	C	0.117502	-0.412033	0.294528
C135	C	0.141398	-0.387798	0.318875
C136	C	0.117501	-0.412034	0.367118
C137	C	0.068920	-0.460276	0.318874
C138	C	-0.027650	-0.563076	0.366926
C139	C	-0.073506	-0.612649	0.389775
C140	C	-0.096504	-0.637513	0.437576
C141	C	-0.146222	-0.691265	0.462352
C142	C	-0.073655	-0.612807	0.462538
C143	C	-0.027803	-0.563235	0.439692
C144	C	-0.004801	-0.538372	0.391885
C145	C	0.123202	-0.412223	0.439871
C146	C	0.149770	-0.389374	0.462878
C147	C	0.199437	-0.341572	0.438075
C148	C	0.228247	-0.316796	0.463017
C149	C	0.222541	-0.316611	0.390264
C150	C	0.195974	-0.339458	0.367259
C151	C	0.146307	-0.387264	0.392063
C152	C	0.123205	-0.412221	0.216073
C153	C	0.149777	-0.389373	0.166497
C154	C	0.199444	-0.341571	0.141635
C155	C	0.228255	-0.316795	0.087883
C156	C	0.222548	-0.316613	0.166340
C157	C	0.195980	-0.339459	0.215914
C158	C	0.146308	-0.387263	0.240779
C159	C	0.117538	-0.073747	-0.367204
C160	C	0.141435	-0.098094	-0.391438
C161	C	0.044944	-0.146333	-0.294613
C162	C	0.068952	-0.170570	-0.318957
C163	C	0.117536	-0.146337	-0.367200
C164	C	0.068953	-0.098090	-0.318960
C165	C	0.123241	0.004709	-0.367018
C166	C	0.149810	0.054282	-0.389869
C167	C	0.199480	0.079143	-0.437671
C168	C	0.228292	0.132895	-0.462450
C169	C	0.222584	0.054435	-0.462631
C170	C	0.196015	0.004864	-0.439782
C171	C	0.146346	-0.019997	-0.391975
C172	C	0.196182	-0.146152	-0.439951
C173	C	0.222906	-0.169003	-0.462956
C174	C	0.199966	-0.216805	-0.438150
C175	C	0.228941	-0.241583	-0.463090
C176	C	0.150296	-0.241763	-0.390340
C177	C	0.123571	-0.218914	-0.367337
C178	C	0.146516	-0.171108	-0.392143
C179	C	-0.027622	-0.146140	-0.216160
C180	C	-0.073477	-0.168985	-0.166583
C181	C	-0.096477	-0.216787	-0.141718
C182	C	-0.146198	-0.241561	-0.087966
C183	C	-0.073627	-0.241747	-0.166421
C184	C	-0.027772	-0.218904	-0.215995
C185	C	-0.004772	-0.171100	-0.240863
C186	C	-0.559087	-0.412008	0.367094
C187	C	-0.582986	-0.460250	0.391332
C188	C	-0.486495	-0.412011	0.294506
C189	C	-0.510504	-0.460253	0.318854
C190	C	-0.559088	-0.484598	0.367097
C191	C	-0.510503	-0.387774	0.318851
C192	C	-0.564788	-0.339255	0.366903
C193	C	-0.591356	-0.316247	0.389752
C194	C	-0.641026	-0.341049	0.437554
C195	C	-0.669837	-0.316106	0.462329
C196	C	-0.664132	-0.388859	0.462516
C197	C	-0.637563	-0.411865	0.439670
C198	C	-0.587894	-0.387063	0.391863
C199	C	-0.637735	-0.563049	0.439851
C200	C	-0.664460	-0.612623	0.462858
C201	C	-0.641521	-0.637487	0.438055
C202	C	-0.670498	-0.691239	0.462998
C203	C	-0.591851	-0.612783	0.390245
C204	C	-0.565125	-0.563211	0.367239
C205	C	-0.588069	-0.538347	0.392042
C206	C	-0.413927	-0.339261	0.216051
C207	C	-0.368073	-0.316259	0.166474
C208	C	-0.345074	-0.341064	0.141612
C209	C	-0.295353	-0.316124	0.087860
C210	C	-0.367925	-0.388872	0.166317
C211	C	-0.413780	-0.411877	0.215892
C212	C	-0.436778	-0.387069	0.240756
C213	C	0.513514	0.249625	-0.367189
C214	C	0.489508	0.249961	-0.391427
C215	C	0.440928	0.249639	-0.294605
C216	C	0.417032	0.249974	-0.318952
C217	C	0.440927	0.249627	-0.367194
C218	C	0.489508	0.249973	-0.318948
C219	C	0.586074	0.243733	-0.366995
C220	C	0.631928	0.240010	-0.389841
C221	C	0.654924	0.238136	-0.437642
C222	C	0.704640	0.234097	-0.462414
C223	C	0.632075	0.239990	-0.462604
C224	C	0.586226	0.243715	-0.439760
C225	C	0.563225	0.245584	-0.391956
C226	C	0.435225	0.243725	-0.439945
C227	C	0.408657	0.240003	-0.462953
C228	C	0.358992	0.238143	-0.438152
C229	C	0.330182	0.234106	-0.463094
C230	C	0.335889	0.240008	-0.390343
C231	C	0.362457	0.243732	-0.367337
C232	C	0.412122	0.245588	-0.392139
C233	C	0.435227	0.243760	-0.216150
C234	C	0.408656	0.240045	-0.166575
C235	C	0.358990	0.238184	-0.141715
C236	C	0.330181	0.234160	-0.087964
C237	C	0.335887	0.240036	-0.166421
C238	C	0.362454	0.243749	-0.215994
C239	C	0.412123	0.245612	-0.240856
O240	O	0.353642	0.290996	-0.562541
O241	O	0.271549	0.150620	-0.504250
O242	O	0.353625	0.232694	-0.504240
O243	O	0.271565	0.208921	-0.562552
O244	O	0.286949	0.232697	-0.437571
O245	O	0.204872	0.150622	-0.437582
O246	O	0.286966	0.290998	-0.495873
Zn247	Zn	0.235333	0.220811	-0.456142
Zn248	Zn	0.323182	0.220807	-0.543981
O249	O	0.204889	0.208924	-0.495884
C250	C	0.117521	0.192028	0.367091
C251	C	0.068941	0.191695	0.391324
C252	C	0.117521	0.192017	0.294502
C253	C	0.068941	0.191683	0.318845
C254	C	0.044935	0.192031	0.367086
C255	C	0.141416	0.191681	0.318849
C256	C	0.196161	0.197916	0.366906
C257	C	0.222885	0.201637	0.389757
C258	C	0.199948	0.203511	0.437557
C259	C	0.228922	0.207547	0.462335
C260	C	0.150282	0.201659	0.462515
C261	C	0.123559	0.197936	0.439666
C262	C	0.146500	0.196067	0.391862
C263	C	-0.027624	0.197935	0.439833
C264	C	-0.073477	0.201659	0.462836
C265	C	-0.096474	0.203521	0.438030
C266	C	-0.146190	0.207561	0.462968
C267	C	-0.073626	0.201656	0.390221
C268	C	-0.027777	0.197931	0.367220
C269	C	-0.004776	0.196072	0.392026
C270	C	0.196160	0.197893	0.216052
C271	C	0.222888	0.201609	0.166476
C272	C	0.199950	0.203471	0.141611
C273	C	0.228924	0.207496	0.087861
C274	C	0.150289	0.201622	0.166313
C275	C	0.123561	0.197908	0.215886
C276	C	0.146499	0.196044	0.240753
H277	H	-0.092091	-0.148651	0.017682
C278	C	0.281252	0.237960	-0.363059
C279	C	0.279728	0.277688	-0.384439
C280	C	0.225093	0.275641	-0.357154
C281	C	0.171980	0.233866	-0.308489
C282	C	0.173502	0.194135	-0.287106
C283	C	0.228137	0.196182	-0.314392
H284	H	0.319047	0.308615	-0.420467
H285	H	0.223967	0.305052	-0.372983
H286	H	0.131535	0.232351	-0.288291
H287	H	0.134183	0.163209	-0.251079
H288	H	0.229263	0.166771	-0.298563
C289	C	-0.002647	-0.246342	0.024948
C290	C	0.022084	-0.263946	-0.017864
C291	C	0.047237	-0.291387	-0.015833
C292	C	0.047657	-0.301224	0.029010
C293	C	0.022925	-0.283619	0.071825
C294	C	-0.002228	-0.256178	0.069794
H295	H	0.021774	-0.256665	-0.051063
H296	H	0.065546	-0.304419	-0.047528
H297	H	0.066277	-0.321537	0.030514
H298	H	0.023235	-0.290901	0.105024
H299	H	-0.020537	-0.243146	0.101489
H300	H	0.048850	0.191152	0.430962
H301	H	0.048825	-0.479823	0.299329
C302	C	0.560767	-0.022637	-0.467215
C303	C	0.498139	-0.045528	-0.445842
C304	C	0.472838	-0.072877	-0.473129
C305	C	0.510166	-0.077335	-0.521788
C306	C	0.572798	-0.054443	-0.543164
C307	C	0.598099	-0.027094	-0.515877
H308	H	0.470504	-0.042229	-0.409819
H309	H	0.426474	-0.089823	-0.457305
H310	H	0.491436	-0.097580	-0.541987
H311	H	0.600433	-0.057742	-0.579187
H312	H	0.644463	-0.010148	-0.531701
C313	C	0.041782	-0.486678	0.444901
C314	C	0.036239	-0.534256	0.458060
C315	C	0.009105	-0.560655	0.511605
C316	C	-0.012484	-0.539476	0.551991
C317	C	-0.006941	-0.491895	0.538833
C318	C	0.020192	-0.465497	0.485288
H319	H	0.052221	-0.549936	0.428163
H320	H	0.005002	-0.595877	0.521345
H321	H	-0.032570	-0.559017	0.591628
H322	H	-0.022924	-0.476215	0.568730
H323	H	0.024295	-0.430275	0.475547
C324	C	0.337033	-0.464481	-0.025030
C325	C	0.276615	-0.506814	0.017778
C326	C	0.251202	-0.559405	0.015741
C327	C	0.286208	-0.569663	-0.029105
C328	C	0.346630	-0.527330	-0.071916
C329	C	0.372042	-0.474739	-0.069879
H330	H	0.250698	-0.499221	0.050978
H331	H	0.206474	-0.590743	0.047433
H332	H	0.267396	-0.608594	-0.030613
H333	H	0.372547	-0.534923	-0.105116
H334	H	0.416771	-0.443401	-0.101571
H335	H	0.131614	0.203142	0.146063
C336	C	0.221429	-0.022314	-0.467233
C337	C	0.239915	-0.045168	-0.445984
C338	C	0.265331	-0.072345	-0.473435
C339	C	0.272262	-0.076668	-0.522136
C340	C	0.253776	-0.053813	-0.543388
C341	C	0.228360	-0.026636	-0.515936
H342	H	0.234785	-0.041968	-0.409930
H343	H	0.279016	-0.089263	-0.457703
H344	H	0.291077	-0.096786	-0.542457
H345	H	0.258907	-0.057013	-0.579442
H346	H	0.214675	-0.009718	-0.531669
H347	H	0.427482	-0.632752	-0.017790
C348	C	-0.635802	-0.486661	0.444879
C349	C	-0.633425	-0.505458	0.485266
C350	C	-0.686241	-0.531871	0.538810
C351	C	-0.741435	-0.539487	0.551967
C352	C	-0.743815	-0.520690	0.511578
C353	C	-0.690998	-0.494277	0.458034
H354	H	-0.592565	-0.499820	0.475528
H355	H	-0.684479	-0.545786	0.568708
H356	H	-0.780533	-0.559039	0.591603
H357	H	-0.784674	-0.526327	0.521317
H358	H	-0.692760	-0.480362	0.428136
C359	C	-0.098618	-0.141535	-0.139410
C360	C	-0.161211	-0.162788	-0.116550
C361	C	-0.186355	-0.135339	-0.089372
C362	C	-0.148907	-0.086636	-0.085053
C363	C	-0.086311	-0.065380	-0.107913
C364	C	-0.061167	-0.092829	-0.135091
H365	H	-0.188935	-0.198843	-0.119747
H366	H	-0.232693	-0.151074	-0.072449
H367	H	-0.167520	-0.066316	-0.064934
H368	H	-0.058587	-0.029325	-0.104716
H369	H	-0.014829	-0.077094	-0.152014
C370	C	0.516650	-0.334243	-0.029974
C371	C	0.482224	-0.321081	0.012054
C372	C	0.509365	-0.267535	0.011318
C373	C	0.570931	-0.227152	-0.031447
C374	C	0.605359	-0.240313	-0.073478
C375	C	0.578219	-0.293859	-0.072742
H376	H	0.436646	-0.350976	0.043714
H377	H	0.483878	-0.257793	0.042433
H378	H	0.591022	-0.187514	-0.031991
H379	H	0.650937	-0.210418	-0.105138
H380	H	0.603706	-0.303602	-0.103857
C381	C	-0.098926	-0.294333	-0.139069
C382	C	-0.061599	-0.305664	-0.134613
C383	C	-0.086902	-0.358250	-0.107260
C384	C	-0.149531	-0.399504	-0.084363
C385	C	-0.186862	-0.388174	-0.088819
C386	C	-0.161560	-0.335588	-0.116172
H387	H	-0.015234	-0.275124	-0.151563
H388	H	-0.059267	-0.366637	-0.103962
H389	H	-0.168262	-0.438431	-0.064115
H390	H	-0.233228	-0.418714	-0.071869
H391	H	-0.189195	-0.327201	-0.119470
H392	H	0.131609	0.203185	0.501440
C393	C	0.068567	-0.464806	0.243426
C394	C	0.067049	-0.506058	0.266321
C395	C	0.012414	-0.558645	0.293673
C396	C	-0.040702	-0.569980	0.298129
C397	C	-0.039185	-0.528727	0.275233
C398	C	0.015449	-0.476140	0.247881
H399	H	0.106370	-0.497667	0.263023
H400	H	0.011292	-0.589183	0.310622
H401	H	-0.081146	-0.608908	0.318376
H402	H	-0.078507	-0.537117	0.278531
H403	H	0.016571	-0.445602	0.230932
C404	C	0.657069	-0.263680	-0.017250
C405	C	0.681782	-0.221348	-0.060051
C406	C	0.706917	-0.168759	-0.058008
C407	C	0.707339	-0.158502	-0.013165
C408	C	0.682625	-0.200836	0.029639
C409	C	0.657490	-0.253425	0.027597
H410	H	0.681470	-0.228939	-0.093249
H411	H	0.725212	-0.137420	-0.089695
H412	H	0.725946	-0.119572	-0.011653
H413	H	0.682937	-0.193245	0.062838
H414	H	0.639195	-0.284763	0.059284
C415	C	0.277181	-0.264025	0.362979
C416	C	0.332203	-0.253855	0.353258
C417	C	0.386841	-0.201270	0.325970
C418	C	0.386456	-0.158855	0.308404
C419	C	0.331432	-0.169024	0.318125
C420	C	0.276794	-0.221609	0.345412
H421	H	0.332489	-0.285254	0.366262
H422	H	0.427573	-0.193742	0.318775
H423	H	0.426902	-0.119928	0.288204
H424	H	0.331146	-0.137624	0.305121
H425	H	0.236062	-0.229137	0.352608
H426	H	0.567616	-0.015243	-0.328388
H427	H	0.214866	-0.107227	-0.460154
C428	C	0.561098	-0.464472	-0.025056
C429	C	0.536368	-0.506813	0.017746
C430	C	0.511228	-0.559400	0.015697
C431	C	0.510817	-0.569646	-0.029153
C432	C	0.535547	-0.527303	-0.071958
C433	C	0.560688	-0.474716	-0.069910
H434	H	0.536672	-0.499230	0.050949
H435	H	0.492921	-0.590745	0.047384
H436	H	0.492206	-0.608574	-0.030670
H437	H	0.535244	-0.534886	-0.105162
H438	H	0.578995	-0.443371	-0.101597
C439	C	-0.566617	-0.640137	0.362959
C440	C	-0.506250	-0.622186	0.345392
C441	C	-0.481013	-0.649537	0.318105
C442	C	-0.516143	-0.694839	0.308385
C443	C	-0.576514	-0.712793	0.325952
C444	C	-0.601751	-0.685442	0.353240
H445	H	-0.480241	-0.588649	0.352587
H446	H	-0.436322	-0.636246	0.305100
H447	H	-0.497461	-0.715086	0.288185
H448	H	-0.602523	-0.746330	0.318757
H449	H	-0.646442	-0.698732	0.366244
C450	C	0.277502	-0.141530	0.017169
C451	C	0.332608	-0.131682	-0.027681
C452	C	0.387239	-0.104225	-0.029722
C453	C	0.386764	-0.086617	0.013087
C454	C	0.331655	-0.096464	0.057940
C455	C	0.277025	-0.123921	0.059982
H456	H	0.332961	-0.144717	-0.059374
H457	H	0.428033	-0.096936	-0.062926
H458	H	0.427205	-0.066291	0.011576
H459	H	0.331302	-0.083429	0.089633
H460	H	0.236230	-0.131210	0.093185
H461	H	0.509600	0.250519	-0.299402
H462	H	0.130961	-0.409699	0.146387
H463	H	0.083125	0.196403	0.235997
C464	C	-0.510495	-0.536033	0.314649
C465	C	-0.510968	-0.554116	0.272314
C466	C	-0.456338	-0.526937	0.219722
C467	C	-0.401237	-0.481675	0.209465
C468	C	-0.400762	-0.463590	0.251801
C469	C	-0.455391	-0.490769	0.304393
H470	H	-0.551759	-0.587624	0.279905
H471	H	-0.456690	-0.540325	0.188382
H472	H	-0.360797	-0.461555	0.170533
H473	H	-0.359971	-0.430082	0.244210
H474	H	-0.455040	-0.477381	0.335733
C475	C	-0.098607	0.203711	0.515422
C476	C	-0.161196	0.163981	0.556770
C477	C	-0.186330	0.166033	0.609357
C478	C	-0.148876	0.207815	0.620595
C479	C	-0.086284	0.247548	0.579246
C480	C	-0.061149	0.245496	0.526659
H481	H	-0.188925	0.133049	0.548451
H482	H	-0.232666	0.136620	0.639966
H483	H	-0.167482	0.209334	0.659523
H484	H	-0.058555	0.278480	0.587565
H485	H	-0.014814	0.274909	0.496050
C486	C	-0.002644	0.195880	0.314633
C487	C	0.059947	0.235607	0.273287
C488	C	0.085081	0.233557	0.220699
C489	C	0.047624	0.191780	0.209458
C490	C	-0.014970	0.152050	0.250806
C491	C	-0.040104	0.154100	0.303394
H492	H	0.087678	0.266535	0.281607
H493	H	0.131417	0.262967	0.190091
H494	H	0.066229	0.190263	0.170530
H495	H	-0.042702	0.121122	0.242486
H496	H	-0.086441	0.124689	0.334002
C497	C	-0.098637	-0.639826	0.362319
C498	C	-0.123353	-0.621740	0.344702
C499	C	-0.148489	-0.648919	0.317249
C500	C	-0.148909	-0.694183	0.307413
C501	C	-0.124192	-0.712271	0.325031
C502	C	-0.099056	-0.685093	0.352484
H503	H	-0.123044	-0.588231	0.351982
H504	H	-0.166787	-0.635529	0.304207
H505	H	-0.167516	-0.714303	0.287091
H506	H	-0.124501	-0.745781	0.317750
H507	H	-0.080758	-0.698483	0.365526
C508	C	0.277540	-0.141548	-0.515544
C509	C	0.279152	-0.162791	-0.556891
C510	C	0.333787	-0.135340	-0.609480
C511	C	0.386809	-0.086646	-0.620722
C512	C	0.385198	-0.065401	-0.579375
C513	C	0.330564	-0.092852	-0.526786
H514	H	0.239901	-0.198839	-0.548569
H515	H	0.334978	-0.151067	-0.640088
H516	H	0.427252	-0.066325	-0.659652
H517	H	0.424450	-0.029352	-0.587696
H518	H	0.329372	-0.077124	-0.496178
C519	C	0.124355	-0.416832	0.515466
C520	C	0.117441	-0.465525	0.526706
C521	C	0.092031	-0.492979	0.579294
C522	C	0.073534	-0.471739	0.620642
C523	C	0.080447	-0.423043	0.609403
C524	C	0.105858	-0.395589	0.556815
H525	H	0.131134	-0.481251	0.496096
H526	H	0.086913	-0.529028	0.587614
H527	H	0.054723	-0.492062	0.659572
H528	H	0.066755	-0.407318	0.640013
H529	H	0.110976	-0.359541	0.548495
C530	C	0.194228	0.190942	0.292440
C531	C	0.191842	0.148171	0.273649
C532	C	0.244653	0.147435	0.247238
C533	C	0.299850	0.189470	0.239617
C534	C	0.302238	0.232245	0.258408
C535	C	0.249427	0.232981	0.284820
H536	H	0.150980	0.117051	0.279290
H537	H	0.242885	0.115770	0.233327
H538	H	0.338944	0.188925	0.220066
H539	H	0.343100	0.263364	0.252767
H540	H	0.251195	0.264645	0.298730
H541	H	0.048837	-0.210196	0.029697
H542	H	0.214835	-0.015521	0.024441
C543	C	0.434062	-0.263685	-0.017237
C544	C	0.494477	-0.221350	-0.060048
C545	C	0.519891	-0.168761	-0.058005
C546	C	0.484890	-0.158507	-0.013152
C547	C	0.424472	-0.200843	0.029661
C548	C	0.399058	-0.253432	0.027619
H549	H	0.520390	-0.228940	-0.093254
H550	H	0.564617	-0.137421	-0.089699
H551	H	0.503703	-0.119577	-0.011640
H552	H	0.398559	-0.193253	0.062867
H553	H	0.354332	-0.284772	0.059313
C554	C	0.281247	-0.640155	-0.017230
C555	C	0.226226	-0.685456	0.027621
C556	C	0.171587	-0.712807	0.029674
C557	C	0.171969	-0.694855	-0.013123
C558	C	0.226992	-0.649552	-0.057978
C559	C	0.281631	-0.622202	-0.060031
H560	H	0.225941	-0.698747	0.059305
H561	H	0.130856	-0.746343	0.062879
H562	H	0.131522	-0.715102	-0.011603
H563	H	0.227277	-0.636261	-0.089662
H564	H	0.322363	-0.588665	-0.093236
H565	H	0.567351	0.245258	-0.328072
C566	C	0.433381	-0.142184	-0.139048
C567	C	0.451741	-0.163557	-0.116154
C568	C	0.476977	-0.136270	-0.088803
C569	C	0.483854	-0.087611	-0.084348
C570	C	0.465493	-0.066236	-0.107243
C571	C	0.440257	-0.093522	-0.134593
H572	H	0.446651	-0.199579	-0.119451
H573	H	0.490569	-0.152094	-0.071855
H574	H	0.502535	-0.067412	-0.064102
H575	H	0.470583	-0.030213	-0.103946
H576	H	0.426665	-0.077698	-0.151542
C577	C	0.657051	0.081461	-0.515521
C578	C	0.681768	0.063377	-0.557859
C579	C	0.706901	0.090555	-0.610447
C580	C	0.707317	0.135817	-0.620697
C581	C	0.682599	0.153904	-0.578357
C582	C	0.657466	0.126726	-0.525770
H583	H	0.681461	0.029869	-0.550272
H584	H	0.725199	0.077166	-0.641789
H585	H	0.725922	0.155936	-0.659625
H586	H	0.682906	0.187412	-0.585944
H587	H	0.639168	0.140115	-0.494427
C588	C	-0.098954	-0.640161	0.515123
C589	C	-0.099402	-0.685461	0.525289
C590	C	-0.124698	-0.712812	0.577873
C591	C	-0.149546	-0.694862	0.620292
C592	C	-0.149099	-0.649559	0.610128
C593	C	-0.123803	-0.622208	0.557543
H594	H	-0.081007	-0.698751	0.493887
H595	H	-0.125028	-0.746348	0.585398
H596	H	-0.168272	-0.715108	0.659219
H597	H	-0.167494	-0.636269	0.641530
H598	H	-0.123472	-0.588672	0.550019
H599	H	0.048839	-0.078529	0.029694
C600	C	-0.002328	0.195884	0.467122
C601	C	-0.039659	0.154105	0.515784
C602	C	-0.014361	0.152058	0.543073
C603	C	0.048268	0.191790	0.521700
C604	C	0.085603	0.233572	0.473035
C605	C	0.060304	0.235619	0.445747
H606	H	-0.086024	0.124690	0.531608
H607	H	-0.041999	0.121127	0.579097
H608	H	0.066995	0.190274	0.541901
H609	H	0.131968	0.262987	0.457212
H610	H	0.087942	0.266549	0.409722
H611	H	-0.008914	-0.107205	0.024432
H612	H	0.475308	-0.107538	-0.236084
H613	H	0.180497	-0.078532	0.029700
H614	H	0.426826	-0.149279	-0.501527
H615	H	0.295108	-0.281013	-0.146449
H616	H	0.377933	-0.479817	-0.029780
H617	H	0.130993	0.074394	-0.369545
H618	H	0.214829	-0.107212	0.024450
C619	C	0.657369	0.081797	-0.363032
C620	C	0.682217	0.063846	-0.345465
C621	C	0.707514	0.091195	-0.318176
C622	C	0.707963	0.136496	-0.308454
C623	C	0.683115	0.154450	-0.326021
C624	C	0.657817	0.127101	-0.353310
H625	H	0.681885	0.030309	-0.352662
H626	H	0.725909	0.077904	-0.305172
H627	H	0.726690	0.156742	-0.288254
H628	H	0.683446	0.187987	-0.318825
H629	H	0.639423	0.140392	-0.366314
C630	C	0.657390	-0.416166	-0.017238
C631	C	0.682238	-0.433736	-0.060038
C632	C	0.707536	-0.461024	-0.057986
C633	C	0.707986	-0.470742	-0.013135
C634	C	0.683138	-0.453172	0.029667
C635	C	0.657840	-0.425884	0.027616
H636	H	0.681905	-0.426542	-0.093242
H637	H	0.725930	-0.474030	-0.089672
H638	H	0.726713	-0.490942	-0.011617
H639	H	0.683471	-0.460365	0.062872
H640	H	0.639445	-0.412877	0.059302
H641	H	0.214783	-0.319132	0.328334
H642	H	0.343638	-0.543116	-0.024511
C643	C	0.281235	-0.416176	-0.017212
C644	C	0.226213	-0.425893	0.027638
C645	C	0.171575	-0.453180	0.029690
C646	C	0.171960	-0.470751	-0.013109
C647	C	0.226984	-0.461035	-0.057963
C648	C	0.281621	-0.433748	-0.060014
H649	H	0.225926	-0.412885	0.059324
H650	H	0.130843	-0.460372	0.062894
H651	H	0.131514	-0.490951	-0.011591
H652	H	0.227270	-0.474042	-0.089648
H653	H	0.322354	-0.426555	-0.093218
H654	H	0.509606	-0.479813	-0.029789
C655	C	0.277510	0.081471	0.017157
C656	C	0.279117	0.104321	0.056895
C657	C	0.333747	0.131496	0.054855
C658	C	0.386770	0.135821	0.013078
C659	C	0.385165	0.112970	-0.026663
C660	C	0.330535	0.085795	-0.024623
H661	H	0.239865	0.101120	0.087824
H662	H	0.334935	0.148412	0.084274
H663	H	0.427210	0.155938	0.011568
H664	H	0.424417	0.116171	-0.057592
H665	H	0.329347	0.068879	-0.054042
H666	H	0.475673	-0.542826	-0.024534
H667	H	0.180492	-0.348160	0.299327
C668	C	-0.098925	0.203707	0.362933
C669	C	-0.161556	0.163981	0.384309
C670	C	-0.186852	0.166030	0.357019
C671	C	-0.149517	0.207805	0.308352
C672	C	-0.086882	0.247534	0.286974
C673	C	-0.061585	0.245485	0.314264
H674	H	-0.189198	0.133053	0.420337
H675	H	-0.233219	0.136619	0.372845
H676	H	-0.168243	0.209322	0.288151
H677	H	-0.059240	0.278461	0.250946
H678	H	-0.015218	0.274895	0.298438
C679	C	0.068925	-0.022291	0.024943
C680	C	0.067322	-0.045146	-0.014793
C681	C	0.012697	-0.072318	-0.012760
C682	C	-0.040325	-0.076636	0.029008
C683	C	-0.038724	-0.053780	0.068748
C684	C	0.015901	-0.026608	0.066715
H685	H	0.106574	-0.041950	-0.045715
H686	H	0.011512	-0.089237	-0.042178
H687	H	-0.080762	-0.096750	0.030513
H688	H	-0.077976	-0.056976	0.099670
H689	H	0.017086	-0.009689	0.096133
C690	C	-0.483348	-0.334225	0.292438
C691	C	-0.517754	-0.321054	0.284814
C692	C	-0.490596	-0.267507	0.258398
C693	C	-0.429031	-0.227131	0.239607
C694	C	-0.394622	-0.240301	0.247230
C695	C	-0.421780	-0.293848	0.273646
H696	H	-0.563331	-0.350943	0.298724
H697	H	-0.516068	-0.257757	0.252754
H698	H	-0.408927	-0.187492	0.220052
H699	H	-0.349045	-0.210412	0.233319
H700	H	-0.396308	-0.303598	0.279290
H701	H	0.131604	0.074708	0.017665
C702	C	0.277513	0.203675	0.362305
C703	C	0.279115	0.163938	0.383553
C704	C	0.333743	0.165973	0.356104
C705	C	0.386769	0.207745	0.307406
C706	C	0.385169	0.247485	0.286155
C707	C	0.330540	0.245450	0.313605
H708	H	0.239860	0.133013	0.419604
H709	H	0.334928	0.136554	0.371835
H710	H	0.427208	0.209251	0.287086
H711	H	0.424423	0.278410	0.250104
H712	H	0.329356	0.274869	0.297874
C713	C	0.125035	-0.294332	0.017144
C714	C	0.106671	-0.335588	0.056878
C715	C	0.081432	-0.388175	0.054828
C716	C	0.074558	-0.399506	0.013044
C717	C	0.092922	-0.358249	-0.026693
C718	C	0.118161	-0.305662	-0.024643
H719	H	0.111760	-0.327202	0.087812
H720	H	0.067838	-0.418716	0.084244
H721	H	0.055875	-0.438434	0.011527
H722	H	0.087833	-0.366635	-0.057626
H723	H	0.131755	-0.275121	-0.054059
H724	H	-0.008926	-0.542833	0.328001
H725	H	-0.092379	-0.280672	0.017674
H726	H	0.475667	-0.319074	-0.024528
C727	C	0.221391	-0.312007	0.243092
C728	C	0.281811	-0.294392	0.225006
C729	C	0.307223	-0.266940	0.252184
C730	C	0.272215	-0.257101	0.297448
C731	C	0.211791	-0.274716	0.315537
C732	C	0.186379	-0.302168	0.288359
H733	H	0.307729	-0.301675	0.191496
H734	H	0.351952	-0.253900	0.238793
H735	H	0.291026	-0.236779	0.317567
H736	H	0.185873	-0.267433	0.349046
H737	H	0.141649	-0.315208	0.301750
C738	C	0.516643	-0.071676	-0.292533
C739	C	0.538231	-0.092853	-0.273735
C740	C	0.565381	-0.066442	-0.247338
C741	C	0.570942	-0.018854	-0.239738
C742	C	0.549353	0.002325	-0.258536
C743	C	0.522204	-0.024086	-0.284934
H744	H	0.534115	-0.128083	-0.279360
H745	H	0.581362	-0.082121	-0.233422
H746	H	0.591040	0.000697	-0.220198
H747	H	0.553470	0.037555	-0.252911
H748	H	0.506223	-0.008407	-0.298849
C749	C	0.364205	-0.224113	-0.292530
C750	C	0.366589	-0.264498	-0.273740
C751	C	0.313780	-0.318044	-0.247336
C752	C	0.258587	-0.331204	-0.239723
C753	C	0.256201	-0.290817	-0.258513
C754	C	0.309010	-0.237272	-0.284917
H755	H	0.407449	-0.254757	-0.279375
H756	H	0.315547	-0.347940	-0.233427
H757	H	0.219494	-0.370841	-0.220178
H758	H	0.215341	-0.300558	-0.252878
H759	H	0.307243	-0.207375	-0.298827
H760	H	-0.490409	-0.479799	0.299306
C761	C	0.277186	-0.264027	0.138992
C762	C	0.330300	-0.252696	0.134537
C763	C	0.384937	-0.200110	0.107188
C764	C	0.386459	-0.158854	0.084294
C765	C	0.333344	-0.170184	0.088748
C766	C	0.278707	-0.222770	0.116096
H767	H	0.329175	-0.283237	0.151486
H768	H	0.424256	-0.191723	0.103892
H769	H	0.426904	-0.119927	0.064049
H770	H	0.334469	-0.139643	0.071799
H771	H	0.239387	-0.231157	0.119393
C772	C	0.041811	-0.224118	-0.292555
C773	C	-0.019753	-0.264503	-0.273757
C774	C	-0.046891	-0.318049	-0.247358
C775	C	-0.012465	-0.331210	-0.239758
C776	C	0.049103	-0.290825	-0.258557
C777	C	0.076240	-0.237279	-0.284956
H778	H	-0.045241	-0.254762	-0.279382
H779	H	-0.092468	-0.347945	-0.233442
H780	H	-0.032554	-0.370848	-0.220216
H781	H	0.074590	-0.300566	-0.252931
H782	H	0.121817	-0.207382	-0.298872
H783	H	0.131619	-0.280689	-0.370145
C784	C	-0.719094	-0.639795	0.515446
C785	C	-0.718630	-0.621708	0.557782
C786	C	-0.773265	-0.648884	0.610371
C787	C	-0.828363	-0.694147	0.620624
C788	C	-0.828829	-0.712237	0.578287
C789	C	-0.774195	-0.685060	0.525698
H790	H	-0.677842	-0.588199	0.550194
H791	H	-0.772920	-0.635493	0.641712
H792	H	-0.868807	-0.714265	0.659553
H793	H	-0.869618	-0.745745	0.585876
H794	H	-0.774540	-0.698452	0.494357
H795	H	0.343637	0.245252	-0.236107
H796	H	0.083107	-0.239224	0.024428
H797	H	0.509586	-0.078542	-0.431051
C798	C	0.434077	0.238017	-0.139405
C799	C	0.441012	0.196249	-0.135084
C800	C	0.466433	0.194221	-0.107911
C801	C	0.484919	0.233959	-0.085060
C802	C	0.477985	0.275730	-0.089380
C803	C	0.452564	0.277758	-0.116552
H804	H	0.427326	0.166830	-0.152000
H805	H	0.471566	0.163299	-0.104713
H806	H	0.503738	0.232458	-0.064945
H807	H	0.491670	0.305149	-0.072463
H808	H	0.447431	0.308680	-0.119750
C809	C	0.041811	-0.071689	-0.292536
C810	C	0.076238	-0.024119	-0.284915
C811	C	0.049098	0.002279	-0.258482
C812	C	-0.012469	-0.018893	-0.239670
C813	C	-0.046899	-0.066466	-0.247290
C814	C	-0.019759	-0.092864	-0.273724
H815	H	0.121817	-0.008443	-0.298841
H816	H	0.074586	0.037496	-0.252841
H817	H	-0.032560	0.000648	-0.220102
H818	H	-0.092478	-0.082142	-0.233364
H819	H	-0.045247	-0.128081	-0.279365
H820	H	-0.009205	-0.543119	0.460019
C821	C	0.280916	-0.294674	-0.362384
C822	C	0.227891	-0.305918	-0.313689
C823	C	0.173261	-0.358508	-0.286236
C824	C	0.171655	-0.399852	-0.307480
C825	C	0.224681	-0.388608	-0.356178
C826	C	0.279312	-0.336019	-0.383630
H827	H	0.229078	-0.275312	-0.297961
H828	H	0.134007	-0.366831	-0.250187
H829	H	0.131214	-0.438782	-0.287158
H830	H	0.223494	-0.419215	-0.371906
H831	H	0.318565	-0.327696	-0.419680
C832	C	-0.342627	-0.416163	0.138970
C833	C	-0.379954	-0.464823	0.134516
C834	C	-0.354653	-0.492111	0.107168
C835	C	-0.292024	-0.470738	0.084273
C836	C	-0.254693	-0.422075	0.088725
C837	C	-0.279994	-0.394788	0.116074
H838	H	-0.426320	-0.480646	0.151465
H839	H	-0.382289	-0.528134	0.103871
H840	H	-0.273295	-0.490938	0.064028
H841	H	-0.208328	-0.406252	0.071777
H842	H	-0.252358	-0.358764	0.119370
C843	C	0.364223	0.250717	-0.292556
C844	C	0.366603	0.293485	-0.273763
C845	C	0.313796	0.294227	-0.247370
C846	C	0.258609	0.252201	-0.239770
C847	C	0.256227	0.209429	-0.258563
C848	C	0.309034	0.208687	-0.284956
H849	H	0.407458	0.324599	-0.279388
H850	H	0.315560	0.325890	-0.233457
H851	H	0.219518	0.252750	-0.220232
H852	H	0.215372	0.178315	-0.252938
H853	H	0.307270	0.177024	-0.298869
H854	H	-0.349468	-0.277331	0.146364
H855	H	0.295441	0.238517	-0.146174
C856	C	0.277227	0.081786	-0.515217
C857	C	0.276849	0.063833	-0.557634
C858	C	0.331491	0.091181	-0.610219
C859	C	0.386511	0.136482	-0.620387
C860	C	0.386891	0.154437	-0.577968
C861	C	0.332250	0.127089	-0.525383
H862	H	0.236118	0.030297	-0.550108
H863	H	0.331208	0.077889	-0.641620
H864	H	0.426960	0.156726	-0.659313
H865	H	0.427622	0.187973	-0.585494
H866	H	0.332532	0.140381	-0.493982
H867	H	0.343591	-0.239283	-0.236379
C868	C	-0.565945	-0.263662	0.362295
C869	C	-0.559029	-0.252422	0.313600
C870	C	-0.533618	-0.199834	0.286145
C871	C	-0.515123	-0.158487	0.307385
C872	C	-0.522039	-0.169726	0.356082
C873	C	-0.547450	-0.222313	0.383537
H874	H	-0.572721	-0.283031	0.297875
H875	H	-0.528499	-0.191514	0.250096
H876	H	-0.496312	-0.119558	0.287061
H877	H	-0.508347	-0.139117	0.371808
H878	H	-0.552569	-0.230633	0.419587
H879	H	0.082759	-0.451148	0.460071
H880	H	0.343643	0.245246	-0.328410
H881	H	0.048852	0.191137	0.299295
H882	H	0.083127	-0.239238	-0.328411
H883	H	-0.656382	-0.450794	0.459992
H884	H	0.180534	-0.078545	-0.431075
C885	C	-0.718775	-0.416144	0.515102
C886	C	-0.718397	-0.433713	0.557520
C887	C	-0.773038	-0.461000	0.610105
C888	C	-0.828058	-0.470718	0.620272
C889	C	-0.828438	-0.453149	0.577852
C890	C	-0.773796	-0.425862	0.525267
H891	H	-0.677666	-0.426519	0.549996
H892	H	-0.772757	-0.474005	0.641507
H893	H	-0.868507	-0.490917	0.659198
H894	H	-0.869168	-0.460343	0.585377
H895	H	-0.774078	-0.412856	0.493865
C896	C	0.516644	0.250689	-0.444973
C897	C	0.522186	0.208653	-0.458130
C898	C	0.549319	0.209381	-0.511675
C899	C	0.570910	0.252145	-0.552062
C900	C	0.565369	0.294185	-0.538906
C901	C	0.538236	0.293457	-0.485362
H902	H	0.506202	0.176993	-0.428232
H903	H	0.553420	0.178260	-0.521413
H904	H	0.590996	0.252684	-0.591699
H905	H	0.581353	0.325845	-0.568805
H906	H	0.534134	0.324578	-0.475623
C907	C	0.489862	0.245807	-0.243498
C908	C	0.489470	0.203007	-0.225536
C909	C	0.544102	0.205049	-0.252882
C910	C	0.599127	0.249890	-0.298190
C911	C	0.599521	0.292694	-0.316155
C912	C	0.544889	0.290652	-0.288809
H913	H	0.448735	0.169809	-0.191994
H914	H	0.543810	0.173362	-0.239583
H915	H	0.639569	0.251402	-0.318433
H916	H	0.640256	0.325891	-0.349697
H917	H	0.545181	0.322338	-0.302108
C918	C	0.657060	0.237970	-0.362386
C919	C	0.619609	0.196198	-0.313687
C920	C	0.644746	0.194161	-0.286234
C921	C	0.707334	0.233897	-0.307479
C922	C	0.744789	0.275672	-0.356180
C923	C	0.719652	0.277709	-0.383633
H924	H	0.573274	0.166780	-0.297958
H925	H	0.617019	0.163236	-0.250182
H926	H	0.725942	0.232389	-0.287156
H927	H	0.791124	0.305090	-0.371909
H928	H	0.747378	0.308634	-0.419685
C929	C	0.657372	0.237925	-0.515188
C930	C	0.620035	0.196140	-0.526510
C931	C	0.645329	0.194076	-0.579093
C932	C	0.707960	0.233799	-0.620353
C933	C	0.745301	0.275587	-0.609032
C934	C	0.720007	0.277651	-0.556449
H935	H	0.573668	0.166733	-0.495966
H936	H	0.617687	0.163142	-0.587473
H937	H	0.726685	0.232271	-0.659278
H938	H	0.791668	0.304994	-0.639577
H939	H	0.747650	0.308585	-0.548069
C940	C	0.434070	0.237951	-0.515539
C941	C	0.440980	0.196167	-0.526774
C942	C	0.466388	0.194115	-0.579360
C943	C	0.484887	0.233846	-0.620712
C944	C	0.477977	0.275632	-0.609478
C945	C	0.452569	0.277685	-0.556892
H946	H	0.427286	0.166754	-0.496162
H947	H	0.471503	0.163181	-0.587676
H948	H	0.503696	0.232326	-0.659640
H949	H	0.491671	0.305046	-0.640090
H950	H	0.447454	0.308618	-0.548576
C951	C	0.277510	0.203638	0.139309
C952	C	0.277027	0.160827	0.157398
C953	C	0.331653	0.162860	0.130228
C954	C	0.386763	0.207703	0.084969
C955	C	0.387248	0.250517	0.066877
C956	C	0.332622	0.248485	0.094047
H957	H	0.236230	0.127629	0.190904
H958	H	0.331294	0.131165	0.143620
H959	H	0.427200	0.209207	0.064856
H960	H	0.428045	0.283716	0.033372
H961	H	0.332981	0.280179	0.080655
H962	H	0.343587	-0.239282	-0.328064
H963	H	0.475316	-0.107542	-0.460078
H964	H	0.567355	-0.319073	-0.024528
H965	H	-0.008899	-0.107217	-0.236405
H966	H	0.082795	-0.015532	-0.328093
H967	H	0.214838	0.196372	0.236297
H968	H	-0.432385	-0.450805	0.236006
H969	H	-0.009167	-0.239229	-0.236107
H970	H	-0.432649	-0.319058	0.236294
H971	H	-0.524342	-0.319055	0.327978
H972	H	-0.656419	-0.542806	0.460050
H973	H	0.567625	0.245225	-0.460086
H974	H	0.475667	0.245239	-0.460144
H975	H	0.214842	0.196391	0.327982
H976	H	0.083119	0.196425	0.459990
