data_functionalizedCrystal
_audit_creation_method	'MofGen! by Chris Wilmer'
_symmetry_space_group_name_H-M	'P1'
_symmetry_Int_Tables_number	1
_symmetry_cell_setting	triclinic
loop_
_symmetry_equiv_pos_as_xyz
  x,y,z
_cell_length_a	6.394984
_cell_length_b	11.026607
_cell_length_c	9.482900
_cell_angle_alpha	78.636152
_cell_angle_beta	99.608195
_cell_angle_gamma	97.540684
loop_
_atom_site_label
_atom_site_type_symbol
_atom_site_fract_x
_atom_site_fract_y
_atom_site_fract_z
O1	O	0.853986	1.642127	-0.120890
O2	O	0.753811	1.287290	-0.120892
O3	O	0.501730	1.469748	-0.120887
O4	O	1.106068	1.459669	-0.120895
O5	O	0.553196	1.432691	0.120905
O6	O	0.805278	1.250233	0.120899
O7	O	0.905453	1.605069	0.120902
Cu8	Cu	0.860064	1.424267	0.142978
Cu9	Cu	0.799200	1.468092	-0.142968
O10	O	1.157534	1.422611	0.120896
C11	C	0.761064	1.223268	0.000003
C12	C	0.705973	1.087712	0.000002
C13	C	0.858087	1.016232	-0.000001
C14	C	0.801152	0.876128	-0.000002
C15	C	1.448892	1.449214	0.000013
C16	C	1.210369	1.443140	0.000011
C17	C	0.898199	1.669092	0.000003
C18	C	0.953288	1.804649	-0.000005
N19	N	0.902876	1.393452	0.344097
N20	N	0.756375	1.498916	-0.344088
C21	C	0.811813	1.458994	0.416298
C22	C	0.847452	1.433365	0.583715
H23	H	0.533585	1.045192	-0.000033
H24	H	1.007214	1.318361	0.406225
C25	C	0.593548	1.616061	0.431214
C26	C	0.670938	1.560360	0.332443
H27	H	0.506565	1.678636	0.379445
H28	H	0.709938	1.652409	0.490565
H29	H	0.511623	1.554913	0.490602
H30	H	0.752876	1.621507	0.273062
H31	H	0.554530	1.524013	0.273067
C32	C	1.102161	1.201310	0.000001
C33	C	1.090804	1.073626	-0.000001
H34	H	1.245835	1.236738	-0.000006
H35	H	1.052141	1.213970	0.084315
H36	H	1.016234	1.239816	-0.084322
H37	H	1.176720	1.035118	0.084328
H38	H	1.140852	1.060957	-0.084324
H39	H	0.652012	1.574004	0.593790
C40	C	0.557065	0.691056	-0.000012
C41	C	0.568422	0.818739	-0.000007
H42	H	0.413387	0.655631	-0.000025
H43	H	0.642968	0.652549	0.084302
H44	H	0.607105	0.678399	-0.084335
H45	H	0.518396	0.831396	0.084322
H46	H	0.482488	0.857258	-0.084330
H47	H	0.951797	1.358268	0.645837
H48	H	1.125683	0.847166	0.000002
