data_functionalizedCrystal
_audit_creation_method	'MofGen! by Chris Wilmer'
_symmetry_space_group_name_H-M	'P1'
_symmetry_Int_Tables_number	1
_symmetry_cell_setting	triclinic
loop_
_symmetry_equiv_pos_as_xyz
  x,y,z
_cell_length_a	14.519731
_cell_length_b	11.792241
_cell_length_c	10.268362
_cell_angle_alpha	90.005428
_cell_angle_beta	89.995325
_cell_angle_gamma	96.058866
loop_
_atom_site_label
_atom_site_type_symbol
_atom_site_fract_x
_atom_site_fract_y
_atom_site_fract_z
O1	O	1.224400	-0.148896	-0.108304
O2	O	1.557734	0.184437	0.225030
O3	O	1.891067	0.517770	0.558363
O4	O	0.955990	-0.166392	-0.108306
O5	O	1.289324	0.166941	0.225028
O6	O	1.622657	0.500275	0.558361
O7	O	1.096709	0.007562	-0.108295
O8	O	1.430042	0.340895	0.225038
O9	O	1.763376	0.674229	0.558371
O10	O	1.083682	-0.322850	-0.108314
O11	O	1.417015	0.010483	0.225020
O12	O	1.750348	0.343817	0.558353
O13	O	1.096697	0.007569	0.108305
O14	O	1.430030	0.340902	0.441639
O15	O	1.763363	0.674236	0.774972
O16	O	0.955978	-0.166385	0.108295
O17	O	1.289311	0.166949	0.441628
O18	O	1.622645	0.500282	0.774962
O19	O	1.224388	-0.148889	0.108297
O20	O	1.557721	0.184444	0.441630
O21	O	1.891055	0.517778	0.774964
Cu22	Cu	1.090182	-0.157636	0.128073
Cu23	Cu	1.423515	0.175697	0.461407
Cu24	Cu	1.756848	0.509030	0.794740
Cu25	Cu	1.090196	-0.157645	-0.128082
Cu26	Cu	1.423530	0.175689	0.205251
Cu27	Cu	1.756863	0.509022	0.538585
O28	O	1.083669	-0.322843	0.108287
O29	O	1.417003	0.010490	0.441620
O30	O	1.750336	0.343824	0.774954
C31	C	0.921622	-0.165569	-0.000005
C32	C	1.254955	0.167765	0.333328
C33	C	1.588288	0.501098	0.666661
C34	C	0.819232	-0.163112	-0.000006
C35	C	1.152566	0.170221	0.333327
C36	C	1.485899	0.503555	0.666661
C37	C	0.736081	-0.161116	-0.000011
C38	C	1.069414	0.172217	0.333322
C39	C	1.402748	0.505551	0.666655
C40	C	0.631763	-0.158622	-0.000012
C41	C	0.965096	0.174711	0.333322
C42	C	1.298430	0.508045	0.666655
C43	C	0.548617	-0.156642	-0.000011
C44	C	0.881950	0.176691	0.333322
C45	C	1.215283	0.510024	0.666655
C46	C	0.444292	-0.154149	-0.000014
C47	C	0.777626	0.179185	0.333319
C48	C	1.110959	0.512518	0.666653
C49	C	1.095884	0.049852	0.000004
C50	C	1.429218	0.383185	0.333338
C51	C	1.762551	0.716519	0.666671
C52	C	1.093435	0.175852	0.000003
C53	C	1.426768	0.509186	0.333337
C54	C	1.760102	0.842519	0.666670
C55	C	1.258757	-0.149713	-0.000006
C56	C	1.592090	0.183621	0.333327
C57	C	1.925423	0.516954	0.666661
C58	C	1.361146	-0.152169	-0.000014
C59	C	1.694479	0.181164	0.333319
C60	C	2.027813	0.514498	0.666653
C61	C	1.084494	-0.365133	-0.000016
C62	C	1.417827	-0.031800	0.333317
C63	C	1.751160	0.301534	0.666651
C64	C	1.086943	-0.491133	-0.000023
C65	C	1.420276	-0.157800	0.333310
C66	C	1.753610	0.175533	0.666644
N67	N	1.090178	-0.157630	0.308239
N68	N	1.423512	0.175704	0.641573
N69	N	1.756845	0.509037	0.974906
C70	C	1.088931	0.406540	-0.000019
C71	C	1.422265	0.739873	0.333315
C72	C	1.755598	1.073207	0.666648
C73	C	1.091434	0.278168	-0.000007
C74	C	1.424767	0.611502	0.333327
C75	C	1.758100	0.944835	0.666660
N76	N	1.090207	-0.157642	-0.308248
N77	N	1.423541	0.175691	0.025086
N78	N	1.756874	0.509024	0.358419
C79	C	1.090192	-0.157642	0.573910
C80	C	1.423525	0.175691	0.907243
C81	C	1.756858	0.509024	1.240577
C82	C	1.090181	-0.157639	0.426072
C83	C	1.423515	0.175695	0.759405
C84	C	1.756848	0.509028	1.092739
