data_functionalizedCrystal
_audit_creation_method	'MofGen! by Chris Wilmer'
_symmetry_space_group_name_H-M	'P1'
_symmetry_Int_Tables_number	1
_symmetry_cell_setting	triclinic
loop_
_symmetry_equiv_pos_as_xyz
  x,y,z
_cell_length_a	12.759401
_cell_length_b	16.625539
_cell_length_c	12.759400
_cell_angle_alpha	89.974233
_cell_angle_beta	90.013799
_cell_angle_gamma	89.981415
loop_
_atom_site_label
_atom_site_type_symbol
_atom_site_fract_x
_atom_site_fract_y
_atom_site_fract_z
Zn1	Zn	1.606244	-0.455881	-0.418289
Zn2	Zn	1.606142	-0.321054	-0.593990
Zn3	Zn	1.430549	-0.321066	-0.418323
Zn4	Zn	1.430535	-0.455849	-0.593924
O5	O	1.518368	-0.388462	-0.506132
O6	O	1.753252	-0.438004	-0.441610
O7	O	1.582813	-0.208223	-0.570730
O8	O	1.453905	-0.338968	-0.271298
O9	O	1.753176	-0.338948	-0.570697
O10	O	1.582987	-0.438016	-0.271273
O11	O	1.453806	-0.208232	-0.441668
O12	O	1.283526	-0.338937	-0.441604
O13	O	1.453880	-0.568685	-0.570584
O14	O	1.283516	-0.437961	-0.570617
O15	O	1.582973	-0.568709	-0.441546
O16	O	1.582798	-0.338916	-0.741003
O17	O	1.453780	-0.437949	-0.740954
C18	C	1.245400	-0.388447	-0.506107
C19	C	1.128624	-0.388460	-0.506122
C20	C	1.073736	-0.336993	-0.438857
C21	C	0.964012	-0.337003	-0.438882
C22	C	0.964072	-0.439954	-0.573441
C23	C	1.073794	-0.439939	-0.573420
C24	C	1.073701	-0.277557	-0.361167
C25	C	0.963977	-0.277567	-0.361192
C26	C	1.518436	-0.598771	-0.506053
C27	C	1.518465	-0.688393	-0.506020
C28	C	1.518513	-1.016568	-0.505902
C29	C	1.518497	-0.925260	-0.505939
C30	C	1.518490	-0.852483	-0.505962
C31	C	1.518472	-0.761169	-0.505997
C32	C	1.792401	-0.388478	-0.506157
C33	C	1.909177	-0.388485	-0.506168
C34	C	1.518305	-0.388446	-0.779099
C35	C	1.518375	-0.388465	-0.895876
C36	C	1.518360	-0.178972	-0.506134
C37	C	1.518534	-0.089351	-0.505871
C38	C	1.585629	-0.336956	-0.950728
C39	C	1.585693	-0.336981	-1.060452
C40	C	1.451241	-0.440027	-1.060462
C41	C	1.451182	-0.440005	-0.950740
C42	C	1.663251	-0.277461	-0.950724
C43	C	1.663315	-0.277485	-1.060448
C44	C	1.518459	-0.388497	-0.232098
C45	C	1.518498	-0.388512	-0.115322
H46	H	1.107752	-0.300026	-0.283906
Cl47	Cl	1.119616	-0.181094	-0.394638
H48	H	0.929907	-0.218209	-0.390241
Cl49	Cl	1.366775	-0.504817	-1.129441
H50	H	0.934212	-0.294402	-0.279854
H51	H	1.634127	-0.218116	-0.916768
H52	H	1.396428	-0.481956	-0.906080
Cl53	Cl	1.629759	-0.181061	-1.106548
H54	H	1.118479	-0.481841	-0.628205
H55	H	1.744594	-0.294232	-0.920870
Cl56	Cl	1.782654	-0.312113	-1.112872
H57	H	0.919417	-0.481867	-0.628232
