data_functionalizedCrystal
_audit_creation_method	'MofGen! by Chris Wilmer'
_symmetry_space_group_name_H-M	'P1'
_symmetry_Int_Tables_number	1
_symmetry_cell_setting	triclinic
loop_
_symmetry_equiv_pos_as_xyz
  x,y,z
_cell_length_a	17.000383
_cell_length_b	15.500227
_cell_length_c	15.995350
_cell_angle_alpha	87.169609
_cell_angle_beta	79.546339
_cell_angle_gamma	92.622316
loop_
_atom_site_label
_atom_site_type_symbol
_atom_site_fract_x
_atom_site_fract_y
_atom_site_fract_z
O1	O	1.059806	0.072003	0.026019
O2	O	0.828073	0.071990	0.056406
O3	O	0.950274	0.071996	-0.081142
O4	O	0.937605	0.071997	0.163566
O5	O	0.942858	-0.071893	-0.072826
O6	O	0.820657	-0.071899	0.064722
O7	O	1.052390	-0.071886	0.034335
Cu8	Cu	0.935847	-0.085031	0.050288
Cu9	Cu	0.944616	0.085135	0.040453
O10	O	0.930189	-0.071892	0.171882
C11	C	0.794711	0.000044	0.062196
C12	C	0.706353	0.000039	0.067049
C13	C	0.206137	0.000072	0.098382
C14	C	0.289160	0.000071	0.093816
C15	C	0.340155	0.000064	0.014558
C16	C	0.308123	0.000067	-0.060138
C17	C	0.225102	0.000074	-0.055572
C18	C	0.591300	0.000049	-0.003081
C19	C	0.674326	0.000039	-0.007642
C20	C	0.655358	0.000045	0.146313
C21	C	0.572335	0.000047	0.150872
C22	C	0.540311	0.000054	0.076176
C23	C	0.425017	0.000061	0.009889
C24	C	0.455450	0.000064	0.080845
N25	N	0.929684	-0.204716	0.057204
C26	C	0.981483	-0.249990	-0.001061
C27	C	0.976830	-0.340563	0.004177
C28	C	0.920381	-0.385861	0.067684
C29	C	0.868577	-0.340580	0.125952
C30	C	0.873227	-0.250009	0.120710
C31	C	0.903630	-0.659328	0.086555
C32	C	0.898986	-0.749906	0.091794
C33	C	1.007238	-0.749883	-0.029982
C34	C	1.011887	-0.659310	-0.035216
C35	C	0.960080	-0.614037	0.023049
C36	C	0.915625	-0.478441	0.073041
C37	C	0.964832	-0.521459	0.017688
C38	C	1.085752	0.000061	0.028544
C39	C	1.174111	0.000072	0.023691
C40	C	0.946042	0.000053	-0.108140
C41	C	0.944472	0.000058	-0.200975
N42	N	0.950785	0.204820	0.033529
C43	C	0.938833	0.000055	-0.538307
C44	C	0.851820	0.000373	-0.484485
C45	C	0.853374	0.000048	-0.387892
C46	C	0.941630	0.000057	-0.370953
C47	C	0.980322	-0.082107	-0.410441
C48	C	0.978132	-0.082176	-0.506912
C49	C	0.988362	0.081453	-0.516860
C50	C	0.988398	0.082539	-0.419976
C51	C	0.943216	0.000055	-0.276372
C52	C	0.937250	0.000050	-0.632888
C53	C	0.934421	0.000053	0.198880
C54	C	0.935991	0.000053	0.291715
H55	H	0.565236	0.000052	-0.063904
H56	H	0.530820	0.000055	0.215412
F57	F	0.362397	0.000063	-0.144491
F58	F	0.191017	0.000074	-0.135068
F59	F	0.804997	-0.077070	-0.343740
H60	H	0.869665	-0.515329	0.124752
H61	H	0.963118	0.143728	-0.538904
H62	H	0.315232	0.000079	0.154637
F63	F	0.689447	0.000042	0.225804
H64	H	0.466546	0.000052	-0.054642
H65	H	0.960146	0.143321	-0.393930
F66	F	0.810320	0.077388	-0.509809
F67	F	0.401177	0.000076	0.165194
F68	F	1.072855	0.089037	-0.406461
F69	F	1.072269	0.082184	-0.564590
F70	F	0.848496	-0.611153	0.148566
F71	F	0.728597	0.000033	-0.092002
H72	H	1.019008	-0.377425	-0.043268
F73	F	0.151872	0.000072	0.182740
F74	F	0.933078	-0.162460	-0.523184
F75	F	1.062370	-0.798071	-0.091990
F76	F	1.041568	-0.201790	-0.068651
H77	H	1.057852	-0.622431	-0.086928
H78	H	0.853016	-0.786783	0.143513
H79	H	0.822611	-0.377466	0.177659
F80	F	0.818093	-0.201826	0.182722
F81	F	1.024904	-0.473249	-0.049902
H82	H	0.822667	0.058946	-0.360390
H83	H	0.814170	-0.058224	-0.498143
F84	F	1.061394	-0.087050	-0.554931
F85	F	1.064866	-0.086097	-0.397988
H86	H	0.947356	-0.143256	-0.376331
