data_functionalizedCrystal
_audit_creation_method	'MofGen! by Chris Wilmer'
_symmetry_space_group_name_H-M	'P1'
_symmetry_Int_Tables_number	1
_symmetry_cell_setting	triclinic
loop_
_symmetry_equiv_pos_as_xyz
  x,y,z
_cell_length_a	21.295420
_cell_length_b	21.295418
_cell_length_c	19.805399
_cell_angle_alpha	89.973313
_cell_angle_beta	89.981320
_cell_angle_gamma	90.024169
loop_
_atom_site_label
_atom_site_type_symbol
_atom_site_fract_x
_atom_site_fract_y
_atom_site_fract_z
Zn1	Zn	0.962328	-0.250695	-0.382708
Zn2	Zn	1.295661	0.082639	-0.049374
Zn3	Zn	1.628995	0.415972	0.283959
Zn4	Zn	0.962245	-0.355963	-0.269521
Zn5	Zn	1.295578	-0.022630	0.063812
Zn6	Zn	1.628912	0.310703	0.397145
Zn7	Zn	0.857062	-0.250704	-0.269534
Zn8	Zn	1.190395	0.082629	0.063799
Zn9	Zn	1.523729	0.415962	0.397133
Zn10	Zn	0.857024	-0.355922	-0.382670
Zn11	Zn	1.190358	-0.022589	-0.049336
Zn12	Zn	1.523691	0.310745	0.283997
O13	O	0.909665	-0.303321	-0.326108
O14	O	1.242998	0.030012	0.007225
O15	O	1.576331	0.363346	0.340559
O16	O	1.050406	-0.264672	-0.367704
O17	O	1.383740	0.068661	-0.034370
O18	O	1.717073	0.401995	0.298963
O19	O	0.948273	-0.342022	-0.174806
O20	O	1.281607	-0.008688	0.158527
O21	O	1.614940	0.324645	0.491860
O22	O	0.871076	-0.162614	-0.284568
O23	O	1.204409	0.170720	0.048765
O24	O	1.537743	0.504053	0.382099
O25	O	1.050345	-0.342012	-0.284546
O26	O	1.383679	-0.008679	0.048787
O27	O	1.717012	0.324654	0.382121
O28	O	0.948415	-0.162607	-0.367716
O29	O	1.281748	0.170727	-0.034383
O30	O	1.615081	0.504060	0.298950
O31	O	0.870996	-0.264688	-0.174816
O32	O	1.204329	0.068645	0.158518
O33	O	1.537662	0.401978	0.491851
O34	O	0.768968	-0.264648	-0.284531
O35	O	1.102301	0.068685	0.048802
O36	O	1.435634	0.402018	0.382135
O37	O	0.871012	-0.341942	-0.477391
O38	O	1.204345	-0.008609	-0.144058
O39	O	1.537679	0.324724	0.189275
O40	O	0.768940	-0.341952	-0.367652
O41	O	1.102273	-0.008618	-0.034318
O42	O	1.435607	0.324715	0.299015
O43	O	0.948378	-0.264632	-0.477419
O44	O	1.281711	0.068701	-0.144086
O45	O	1.615045	0.402035	0.189247
O46	O	0.948237	-0.444047	-0.284509
O47	O	1.281570	-0.110714	0.048824
O48	O	1.614904	0.222619	0.382157
O49	O	0.870932	-0.444017	-0.367639
O50	O	1.204265	-0.110684	-0.034306
O51	O	1.537598	0.222650	0.299028
C52	C	0.746113	-0.303297	-0.326089
C53	C	1.079447	0.030036	0.007244
C54	C	1.412780	0.363370	0.340578
C55	C	0.676145	-0.303302	-0.326097
C56	C	1.009478	0.030031	0.007236
C57	C	1.342812	0.363365	0.340570
C58	C	0.176718	-0.263145	-0.369489
C59	C	0.510052	0.070189	-0.036156
C60	C	0.843385	0.403522	0.297178
C61	C	0.242461	-0.263140	-0.369489
C62	C	0.575794	0.070193	-0.036155
C63	C	0.909127	0.403527	0.297178
C64	C	0.275306	-0.303340	-0.326124
C65	C	0.608639	0.029993	0.007209
C66	C	0.941972	0.363326	0.340543
C67	C	0.242403	-0.343559	-0.282768
C68	C	0.575736	-0.010226	0.050565
C69	C	0.909069	0.323107	0.383899
C70	C	0.176661	-0.343567	-0.282774
C71	C	0.509995	-0.010234	0.050559
C72	C	0.843328	0.323099	0.383892
N73	N	0.378501	-0.308085	-0.266858
N74	N	0.711835	0.025249	0.066476
N75	N	1.045168	0.358582	0.399809
N76	N	0.440953	-0.308073	-0.266854
N77	N	0.774286	0.025260	0.066479
N78	N	1.107620	0.358593	0.399813
C79	C	0.473380	-0.303320	-0.326104
C80	C	0.806714	0.030014	0.007229
C81	C	1.140047	0.363347	0.340563
N82	N	0.440997	-0.298565	-0.385359
N83	N	0.774331	0.034768	-0.052026
N84	N	1.107664	0.368102	0.281307
N85	N	0.378540	-0.298573	-0.385362
N86	N	0.711873	0.034760	-0.052029
N87	N	1.045207	0.368094	0.281304
C88	C	0.346591	-0.303336	-0.326113
C89	C	0.679924	0.029997	0.007221
C90	C	1.013258	0.363330	0.340554
C91	C	0.577561	-0.263101	-0.369460
C92	C	0.910894	0.070232	-0.036127
C93	C	1.244228	0.403566	0.297206
C94	C	0.643305	-0.263101	-0.369461
C95	C	0.976638	0.070233	-0.036128
C96	C	1.309971	0.403566	0.297205
C97	C	0.643245	-0.343517	-0.282735
C98	C	0.976579	-0.010183	0.050599
C99	C	1.309912	0.323150	0.383932
C100	C	0.577503	-0.343520	-0.282740
C101	C	0.910836	-0.010187	0.050594
C102	C	1.244170	0.323146	0.383927
C103	C	0.544665	-0.303309	-0.326102
C104	C	0.877998	0.030024	0.007232
C105	C	1.211331	0.363358	0.340565
C106	C	0.909588	-0.466873	-0.326083
C107	C	1.242922	-0.133539	0.007250
C108	C	1.576255	0.199794	0.340583
C109	C	0.909613	-0.536841	-0.326095
C110	C	1.242947	-0.203507	0.007238
C111	C	1.576280	0.129826	0.340571
C112	C	0.950013	-1.036242	-0.369490
C113	C	1.283347	-0.702908	-0.036157
C114	C	1.616680	-0.369575	0.297176
C115	C	0.949995	-0.970499	-0.369479
C116	C	1.283328	-0.637166	-0.036146
C117	C	1.616662	-0.303833	0.297187
C118	C	0.909751	-0.937680	-0.326150
C119	C	1.243084	-0.604347	0.007183
C120	C	1.576417	-0.271014	0.340516
C121	C	0.869533	-0.970609	-0.282816
C122	C	1.202867	-0.637276	0.050517
C123	C	1.536200	-0.303942	0.383850
C124	C	0.869557	-1.036350	-0.282824
C125	C	1.202891	-0.703017	0.050510
C126	C	1.536224	-0.369684	0.383843
N127	N	0.854614	-0.834507	-0.320892
N128	N	1.187947	-0.501173	0.012442
N129	N	1.521280	-0.167840	0.345775
N130	N	0.854593	-0.772055	-0.320889
N131	N	1.187926	-0.438722	0.012445
N132	N	1.521259	-0.105388	0.345778
C133	C	0.909677	-0.739606	-0.326125
C134	C	1.243010	-0.406272	0.007208
C135	C	1.576343	-0.072939	0.340542
N136	N	0.964784	-0.771967	-0.331378
N137	N	1.298117	-0.438633	0.001956
N138	N	1.631450	-0.105300	0.335289
N139	N	0.964804	-0.834424	-0.331384
N140	N	1.298137	-0.501090	0.001949
N141	N	1.631471	-0.167757	0.335283
C142	C	0.909720	-0.866395	-0.326137
C143	C	1.243054	-0.533062	0.007196
C144	C	1.576387	-0.199728	0.340529
C145	C	0.949875	-0.635399	-0.369441
C146	C	1.283208	-0.302066	-0.036108
C147	C	1.616541	0.031268	0.297225
C148	C	0.949857	-0.569655	-0.369426
C149	C	1.283191	-0.236322	-0.036093
C150	C	1.616524	0.097011	0.297241
C151	C	0.869390	-0.569766	-0.282766
C152	C	1.202723	-0.236433	0.050567
C153	C	1.536057	0.096900	0.383900
C154	C	0.869413	-0.635509	-0.282778
C155	C	1.202746	-0.302175	0.050555
C156	C	1.536080	0.031158	0.383888
C157	C	0.909654	-0.668321	-0.326119
C158	C	1.242988	-0.334988	0.007214
C159	C	1.576321	-0.001655	0.340547
C160	C	1.073855	-0.303346	-0.326128
C161	C	1.407188	0.029988	0.007206
C162	C	1.740522	0.363321	0.340539
C163	C	1.143823	-0.303356	-0.326136
C164	C	1.477156	0.029977	0.007197
C165	C	1.810490	0.363310	0.340531
C166	C	0.909700	-0.303281	-0.502651
C167	C	1.243033	0.030052	-0.169318
C168	C	1.576367	0.363385	0.164016
C169	C	0.909715	-0.303265	-0.577883
C170	C	1.243049	0.030069	-0.244550
C171	C	1.576382	0.363402	0.088784
C172	C	0.909759	-0.139131	-0.326148
C173	C	1.243092	0.194203	0.007186
C174	C	1.576425	0.527536	0.340519
C175	C	0.909799	-0.069163	-0.326165
C176	C	1.243132	0.264171	0.007169
C177	C	1.576465	0.597504	0.340502
C178	C	0.950001	-0.263007	-0.613243
C179	C	1.283334	0.070326	-0.279909
C180	C	1.616667	0.403660	0.053424
C181	C	0.950007	-0.262989	-0.683931
C182	C	1.283340	0.070344	-0.350598
C183	C	1.616674	0.403678	-0.017265
C184	C	0.909731	-0.303232	-0.719259
C185	C	1.243064	0.030102	-0.385925
C186	C	1.576397	0.363435	-0.052592
C187	C	0.869441	-0.343491	-0.683894
C188	C	1.202774	-0.010158	-0.350561
C189	C	1.536108	0.323176	-0.017227
C190	C	0.869432	-0.343505	-0.613207
C191	C	1.202765	-0.010172	-0.279873
C192	C	1.536098	0.323161	0.053460
C193	C	0.869477	-0.343432	-0.968967
C194	C	1.202810	-0.010099	-0.635634
C195	C	1.536143	0.323234	-0.302301
C196	C	0.869490	-0.343416	-1.039659
C197	C	1.202823	-0.010082	-0.706326
C198	C	1.536157	0.323251	-0.372993
C199	C	0.950052	-0.262916	-1.039692
C200	C	1.283385	0.070418	-0.706359
C201	C	1.616718	0.403751	-0.373025
C202	C	0.950043	-0.262930	-0.969005
C203	C	1.283376	0.070403	-0.635671
C204	C	1.616709	0.403736	-0.302338
C205	C	0.909751	-0.303187	-0.933646
C206	C	1.243084	0.030147	-0.600313
C207	C	1.576417	0.363480	-0.266979
C208	C	0.909743	-0.303205	-0.856998
C209	C	1.243077	0.030128	-0.523664
C210	C	1.576410	0.363461	-0.190331
C211	C	0.909741	-0.303217	-0.795906
C212	C	1.243074	0.030116	-0.462572
C213	C	1.576408	0.363450	-0.129239
C214	C	0.909666	-0.303315	-0.150252
C215	C	1.242999	0.030018	0.183081
C216	C	1.576333	0.363352	0.516414
C217	C	0.909773	-0.303155	-0.075021
C218	C	1.243106	0.030179	0.258313
C219	C	1.576439	0.363512	0.591646
H220	H	0.670087	-0.230358	-0.404769
H221	H	1.003420	0.102976	-0.071436
H222	H	1.336753	0.436309	0.261897
O223	O	0.830374	-0.382562	-0.718313
O224	O	1.163707	-0.049228	-0.384980
O225	O	1.497041	0.284105	-0.051647
C226	C	0.839009	-0.373907	-0.788287
C227	C	1.172343	-0.040574	-0.454953
C228	C	1.505676	0.292760	-0.121620
H229	H	0.887603	-0.353298	-0.797956
H230	H	1.220936	-0.019965	-0.464623
H231	H	1.554270	0.313369	-0.131290
H232	H	0.834714	-0.421053	-0.815138
H233	H	1.168048	-0.087719	-0.481804
H234	H	1.501381	0.245614	-0.148471
H235	H	0.801694	-0.340374	-0.808348
H236	H	1.135027	-0.007041	-0.475015
H237	H	1.468361	0.326293	-0.141681
H238	H	0.269149	-0.376292	-0.247462
H239	H	0.602483	-0.042959	0.085871
H240	H	0.935816	0.290374	0.419205
O241	O	0.830233	-0.382526	-0.578830
O242	O	1.163567	-0.049193	-0.245496
O243	O	1.496900	0.284140	0.087837
C244	C	0.789598	-0.346694	-0.537930
C245	C	1.122931	-0.013361	-0.204597
C246	C	1.456264	0.319972	0.128737
H247	H	0.785740	-0.297109	-0.559240
H248	H	1.119074	0.036224	-0.225907
H249	H	1.452407	0.369557	0.107426
H250	H	0.741141	-0.369456	-0.537117
H251	H	1.074474	-0.036123	-0.203784
H252	H	1.407808	0.297211	0.129549
H253	H	0.809052	-0.344543	-0.484360
H254	H	1.142385	-0.011210	-0.151027
H255	H	1.475719	0.322123	0.182306
O256	O	0.675240	-0.382510	-0.240633
O257	O	1.008574	-0.049177	0.092700
O258	O	1.341907	0.284156	0.426034
C259	C	0.740320	-0.373896	-0.249938
C260	C	1.073653	-0.040562	0.083395
C261	C	1.406987	0.292771	0.416729
H262	H	0.749324	-0.325340	-0.272193
H263	H	1.082657	0.007993	0.061140
H264	H	1.415990	0.341326	0.394474
H265	H	0.765286	-0.378106	-0.199230
H266	H	1.098619	-0.044773	0.134103
H267	H	1.431953	0.288561	0.467437
H268	H	0.758976	-0.411274	-0.285913
H269	H	1.092309	-0.077940	0.047420
H270	H	1.425642	0.255393	0.380753
H271	H	0.149879	-0.376314	-0.247470
H272	H	0.483212	-0.042980	0.085863
H273	H	0.816545	0.290353	0.419196
H274	H	0.149985	-0.230404	-0.404800
H275	H	0.483319	0.102929	-0.071467
H276	H	0.816652	0.436262	0.261866
H277	H	0.836809	-1.063154	-0.247542
H278	H	1.170142	-0.729821	0.085792
H279	H	1.503475	-0.396487	0.419125
H280	H	0.982608	-0.542851	-0.404704
H281	H	1.315942	-0.209517	-0.071371
H282	H	1.649275	0.123816	0.261962
H283	H	0.836625	-0.543046	-0.247484
H284	H	1.169958	-0.209712	0.085849
H285	H	1.503291	0.123621	0.419182
H286	H	0.269249	-0.230392	-0.404791
H287	H	0.602582	0.102941	-0.071458
H288	H	0.935916	0.436274	0.261876
H289	H	0.836663	-0.662313	-0.247501
H290	H	1.169997	-0.328980	0.085833
H291	H	1.503330	0.004353	0.419166
O292	O	0.989128	-0.223823	-1.074145
O293	O	1.322461	0.109510	-0.740812
O294	O	1.655794	0.442843	-0.407478
C295	C	0.980512	-0.232445	-1.144111
C296	C	1.313845	0.100888	-0.810778
C297	C	1.647178	0.434222	-0.477444
H298	H	0.931921	-0.253050	-1.153752
H299	H	1.265254	0.080283	-0.820419
H300	H	1.598587	0.413616	-0.487085
H301	H	0.984813	-0.185287	-1.170985
H302	H	1.318147	0.148047	-0.837652
H303	H	1.651480	0.481380	-0.504318
H304	H	1.017833	-0.265968	-1.164172
H305	H	1.351166	0.067365	-0.830838
H306	H	1.684500	0.400698	-0.497505
O307	O	0.989059	-0.223823	-0.578960
O308	O	1.322392	0.109510	-0.245627
O309	O	1.655725	0.442843	0.087706
C310	C	0.975347	-0.161080	-0.596262
C311	C	1.308680	0.172253	-0.262929
C312	C	1.642014	0.505586	0.070404
H313	H	0.925062	-0.157893	-0.615683
H314	H	1.258395	0.175440	-0.282350
H315	H	1.591728	0.508774	0.050984
H316	H	0.980782	-0.129989	-0.549787
H317	H	1.314115	0.203344	-0.216453
H318	H	1.647448	0.536678	0.116880
H319	H	1.009109	-0.144623	-0.637306
H320	H	1.342442	0.188710	-0.303973
H321	H	1.675776	0.522044	0.029360
O322	O	0.830301	-0.382527	-1.073873
O323	O	1.163634	-0.049194	-0.740540
O324	O	1.496968	0.284140	-0.407206
C325	C	0.794746	-0.418072	-1.027508
C326	C	1.128079	-0.084739	-0.694175
C327	C	1.461412	0.248594	-0.360841
H328	H	0.792573	-0.392300	-0.977125
H329	H	1.125906	-0.058967	-0.643792
H330	H	1.459239	0.274367	-0.310458
H331	H	0.745148	-0.424770	-1.047925
H332	H	1.078482	-0.091437	-0.714592
H333	H	1.411815	0.241897	-0.381258
H334	H	0.817764	-0.465889	-1.019982
H335	H	1.151097	-0.132555	-0.686649
H336	H	1.484430	0.200778	-0.353315
O337	O	0.545642	-0.382596	-0.240556
O338	O	0.878976	-0.049263	0.092777
O339	O	1.212309	0.284070	0.426110
C340	C	0.588727	-0.418089	-0.202292
C341	C	0.922060	-0.084756	0.131041
C342	C	1.255393	0.248577	0.464375
H343	H	0.635597	-0.392298	-0.199993
H344	H	0.968930	-0.058965	0.133340
H345	H	1.302264	0.274368	0.466674
H346	H	0.569710	-0.424742	-0.148952
H347	H	0.903043	-0.091409	0.184381
H348	H	1.236376	0.241924	0.517714
H349	H	0.595712	-0.465927	-0.226987
H350	H	0.929046	-0.132594	0.106346
H351	H	1.262379	0.200740	0.439679
H352	H	0.836767	-0.943884	-0.247536
H353	H	1.170100	-0.610551	0.085797
H354	H	1.503433	-0.277218	0.419131
H355	H	0.550823	-0.230358	-0.404768
H356	H	0.884156	0.102975	-0.071435
H357	H	1.217489	0.436308	0.261899
H358	H	0.982786	-1.062954	-0.404777
H359	H	1.316119	-0.729620	-0.071443
H360	H	1.649453	-0.396287	0.261890
O361	O	0.989075	-0.938608	-0.411638
O362	O	1.322408	-0.605275	-0.078305
O363	O	1.655742	-0.271942	0.255028
C364	C	1.024608	-0.981667	-0.449882
C365	C	1.357941	-0.648333	-0.116548
C366	C	1.691275	-0.315000	0.216785
H367	H	0.998846	-1.028552	-0.452195
H368	H	1.332179	-0.695219	-0.118862
H369	H	1.665512	-0.361885	0.214471
H370	H	1.031270	-0.962639	-0.503217
H371	H	1.364603	-0.629306	-0.169884
H372	H	1.697936	-0.295972	0.163449
H373	H	1.072441	-0.988627	-0.425158
H374	H	1.405774	-0.655294	-0.091825
H375	H	1.739107	-0.321960	0.241509
O376	O	0.989018	-0.667180	-0.411566
O377	O	1.322351	-0.333847	-0.078233
O378	O	1.655685	-0.000514	0.255100
C379	C	1.024499	-0.624022	-0.449818
C380	C	1.357832	-0.290689	-0.116485
C381	C	1.691165	0.042645	0.216848
H382	H	1.026691	-0.577176	-0.422085
H383	H	1.360025	-0.243843	-0.088751
H384	H	1.693358	0.089490	0.244582
H385	H	1.074094	-0.642981	-0.457108
H386	H	1.407427	-0.309647	-0.123775
H387	H	1.740761	0.023686	0.209558
H388	H	1.001403	-0.617011	-0.501192
H389	H	1.334736	-0.283677	-0.167858
H390	H	1.668070	0.049656	0.165475
H391	H	0.982813	-0.230209	-0.712718
H392	H	1.316146	0.103125	-0.379385
H393	H	1.649480	0.436458	-0.046051
H394	H	0.982842	-0.230162	-0.940245
H395	H	1.316175	0.103171	-0.606911
H396	H	1.649508	0.436504	-0.273578
O397	O	0.830364	-0.382482	-0.934521
O398	O	1.163697	-0.049148	-0.601188
O399	O	1.497031	0.284185	-0.267855
C400	C	0.838998	-0.373880	-0.864555
C401	C	1.172331	-0.040546	-0.531222
C402	C	1.505664	0.292787	-0.197889
H403	H	0.859638	-0.325304	-0.854913
H404	H	1.192971	0.008029	-0.521580
H405	H	1.526304	0.341362	-0.188247
H406	H	0.791839	-0.378152	-0.837683
H407	H	1.125172	-0.044819	-0.504350
H408	H	1.458506	0.288515	-0.171016
H409	H	0.872497	-0.411227	-0.844492
H410	H	1.205830	-0.077893	-0.511159
H411	H	1.539164	0.255440	-0.177826
