data_functionalizedCrystal
_audit_creation_method	'MofGen! by Chris Wilmer'
_symmetry_space_group_name_H-M	'P1'
_symmetry_Int_Tables_number	1
_symmetry_cell_setting	triclinic
loop_
_symmetry_equiv_pos_as_xyz
  x,y,z
_cell_length_a	21.395362
_cell_length_b	19.077068
_cell_length_c	21.395355
_cell_angle_alpha	87.720949
_cell_angle_beta	90.043940
_cell_angle_gamma	92.343691
loop_
_atom_site_label
_atom_site_type_symbol
_atom_site_fract_x
_atom_site_fract_y
_atom_site_fract_z
Zn1	Zn	0.947861	-0.279990	0.364586
Zn2	Zn	1.281194	0.053343	0.697920
Zn3	Zn	1.614527	0.386677	1.031253
Zn4	Zn	0.943561	-0.397672	0.264012
Zn5	Zn	1.276894	-0.064339	0.597345
Zn6	Zn	1.610227	0.268995	0.930679
Zn7	Zn	0.843074	-0.280023	0.259789
Zn8	Zn	1.176408	0.053311	0.593122
Zn9	Zn	1.509741	0.386644	0.926455
Zn10	Zn	0.838842	-0.397686	0.368717
Zn11	Zn	1.172175	-0.064353	0.702051
Zn12	Zn	1.505508	0.268980	1.035384
O13	O	0.893334	-0.338843	0.314276
O14	O	1.226668	-0.005509	0.647609
O15	O	1.560001	0.327824	0.980943
O16	O	1.034969	-0.295581	0.351283
O17	O	1.368302	0.037752	0.684617
O18	O	1.701636	0.371086	1.017950
O19	O	0.930203	-0.382073	0.175774
O20	O	1.263536	-0.048740	0.509108
O21	O	1.596869	0.284594	0.842441
O22	O	0.860546	-0.181525	0.270194
O23	O	1.193879	0.151808	0.603527
O24	O	1.527212	0.485141	0.936861
O25	O	1.031810	-0.382041	0.277392
O26	O	1.365143	-0.048708	0.610725
O27	O	1.698476	0.284625	0.944059
O28	O	0.937532	-0.181501	0.347188
O29	O	1.270865	0.151832	0.680522
O30	O	1.604198	0.485165	1.013855
O31	O	0.856376	-0.295637	0.172671
O32	O	1.189709	0.037697	0.506005
O33	O	1.523043	0.371030	0.839338
O34	O	0.754834	-0.295651	0.274200
O35	O	1.088168	0.037683	0.607533
O36	O	1.421501	0.371016	0.940866
O37	O	0.853331	-0.382066	0.455847
O38	O	1.186665	-0.048733	0.789180
O39	O	1.519998	0.284601	1.122514
O40	O	0.751725	-0.382098	0.354229
O41	O	1.085058	-0.048764	0.687562
O42	O	1.418391	0.284569	1.020896
O43	O	0.933427	-0.295595	0.452812
O44	O	1.266761	0.037738	0.786145
O45	O	1.600094	0.371072	1.119479
O46	O	0.926098	-0.496167	0.281398
O47	O	1.259432	-0.162833	0.614731
O48	O	1.592765	0.170500	0.948065
O49	O	0.849162	-0.496177	0.358324
O50	O	1.182495	-0.162844	0.691658
O51	O	1.515828	0.170489	1.024991
C52	C	0.730545	-0.338880	0.314205
C53	C	1.063879	-0.005547	0.647538
C54	C	1.397212	0.327787	0.980871
C55	C	0.660903	-0.338913	0.314190
C56	C	0.994236	-0.005579	0.647523
C57	C	1.327570	0.327754	0.980856
C58	C	0.626585	-0.383985	0.355803
C59	C	0.959918	-0.050652	0.689136
C60	C	1.293251	0.282681	1.022470
C61	C	0.561150	-0.383968	0.355830
C62	C	0.894483	-0.050635	0.689164
C63	C	1.227817	0.282699	1.022497
C64	C	0.530036	-0.338886	0.314233
C65	C	0.863369	-0.005552	0.647567
C66	C	1.196702	0.327781	0.980900
C67	C	0.564362	-0.293804	0.272617
C68	C	0.897695	0.039529	0.605950
C69	C	1.231029	0.372862	0.939283
C70	C	0.629796	-0.293818	0.272595
C71	C	0.963129	0.039515	0.605928
C72	C	1.296462	0.372849	0.939262
C73	C	0.426513	-0.333216	0.257626
C74	C	0.759847	0.000118	0.590959
C75	C	1.093180	0.333451	0.924292
C76	C	0.361081	-0.333207	0.257647
C77	C	0.694414	0.000126	0.590980
C78	C	1.027747	0.333460	0.924313
C79	C	0.328216	-0.338840	0.314301
C80	C	0.661550	-0.005506	0.647634
C81	C	0.994883	0.327827	0.980968
C82	C	0.360792	-0.344496	0.370937
C83	C	0.694126	-0.011163	0.704270
C84	C	1.027459	0.322171	1.037603
C85	C	0.426226	-0.344510	0.370915
C86	C	0.759559	-0.011176	0.704248
C87	C	1.092893	0.322157	1.037581
C88	C	0.459084	-0.338866	0.314253
C89	C	0.792417	-0.005532	0.647586
C90	C	1.125751	0.327801	0.980919
C91	C	0.222946	-0.383896	0.355947
C92	C	0.556280	-0.050563	0.689281
C93	C	0.889613	0.282771	1.022614
C94	C	0.157511	-0.383874	0.355976
C95	C	0.490844	-0.050541	0.689309
C96	C	0.824177	0.282793	1.022642
C97	C	0.160724	-0.293714	0.272756
C98	C	0.494057	0.039620	0.606090
C99	C	0.827390	0.372953	0.939423
C100	C	0.226158	-0.293732	0.272734
C101	C	0.559492	0.039601	0.606067
C102	C	0.892825	0.372934	0.939400
C103	C	0.257266	-0.338827	0.314328
C104	C	0.590599	-0.005494	0.647662
C105	C	0.923932	0.327840	0.980995
C106	C	0.886721	-0.521710	0.320781
C107	C	1.220054	-0.188377	0.654115
C108	C	1.553388	0.144957	0.987448
C109	C	0.883949	-0.599942	0.323585
C110	C	1.217283	-0.266608	0.656919
C111	C	1.550616	0.066725	0.990252
C112	C	0.922735	-0.636666	0.284884
C113	C	1.256068	-0.303333	0.618218
C114	C	1.589402	0.030001	0.951551
C115	C	0.920132	-0.710173	0.287525
C116	C	1.253465	-0.376839	0.620859
C117	C	1.586798	-0.043506	0.954192
C118	C	0.878739	-0.746954	0.328864
C119	C	1.212072	-0.413620	0.662198
C120	C	1.545406	-0.080287	0.995531
C121	C	0.839952	-0.710224	0.367570
C122	C	1.173285	-0.376891	0.700903
C123	C	1.506619	-0.043558	1.034236
C124	C	0.842559	-0.636719	0.364931
C125	C	1.175892	-0.303386	0.698265
C126	C	1.509225	0.029948	1.031598
C127	C	0.866647	-0.966795	0.341049
C128	C	1.199980	-0.633461	0.674382
C129	C	1.533313	-0.300128	1.007716
C130	C	0.864041	-1.040305	0.343683
C131	C	1.197375	-0.706972	0.677016
C132	C	1.530708	-0.373639	1.010350
C133	C	0.944222	-1.040249	0.263639
C134	C	1.277555	-0.706915	0.596972
C135	C	1.610889	-0.373582	0.930306
C136	C	0.946823	-0.966742	0.261002
C137	C	1.280156	-0.633409	0.594335
C138	C	1.613489	-0.300075	0.927669
C139	C	0.908038	-0.930019	0.299709
C140	C	1.241371	-0.596685	0.633043
C141	C	1.574705	-0.263352	0.966376
N142	N	0.876076	-0.822090	0.331564
N143	N	1.209409	-0.488756	0.664897
N144	N	1.542742	-0.155423	0.998230
N145	N	0.910705	-0.854884	0.297013
N146	N	1.244038	-0.521551	0.630346
N147	N	1.577372	-0.188218	0.963680
C148	C	1.056759	-0.338806	0.314348
C149	C	1.390092	-0.005473	0.647681
C150	C	1.723426	0.327861	0.981015
C151	C	1.126401	-0.338790	0.314379
C152	C	1.459734	-0.005457	0.647712
C153	C	1.793067	0.327877	0.981045
C154	C	0.893387	-0.338828	0.477699
C155	C	1.226720	-0.005495	0.811032
C156	C	1.560053	0.327838	1.144366
C157	C	0.893409	-0.338822	0.547340
C158	C	1.226743	-0.005489	0.880673
C159	C	1.560076	0.327844	1.214007
C160	C	0.899990	-0.155261	0.307759
C161	C	1.233324	0.178072	0.641092
C162	C	1.566657	0.511406	0.974426
C163	C	0.902827	-0.077030	0.304982
C164	C	1.236160	0.256304	0.638315
C165	C	1.569493	0.589637	0.971649
C166	C	0.893320	-0.338806	0.151487
C167	C	1.226653	-0.005473	0.484821
C168	C	1.559987	0.327861	0.818154
C169	C	0.893426	-0.338614	0.081839
C170	C	1.226759	-0.005281	0.415173
C171	C	1.560093	0.328053	0.748506
C172	C	0.935113	-0.293795	0.578474
C173	C	1.268447	0.039538	0.911807
C174	C	1.601780	0.372872	1.245140
C175	C	0.935114	-0.293765	0.643908
C176	C	1.268447	0.039569	0.977241
C177	C	1.601780	0.372902	1.310575
C178	C	0.893416	-0.338774	0.678207
C179	C	1.226749	-0.005441	1.011540
C180	C	1.560082	0.327892	1.344873
C181	C	0.851704	-0.383805	0.647065
C182	C	1.185037	-0.050472	0.980399
C183	C	1.518370	0.282862	1.313732
C184	C	0.851700	-0.383829	0.581632
C185	C	1.185034	-0.050496	0.914965
C186	C	1.518367	0.282838	1.248299
C187	C	0.886177	-0.402150	0.784134
C188	C	1.219510	-0.068817	1.117468
C189	C	1.552843	0.264517	1.450801
C190	C	0.886184	-0.402127	0.849566
C191	C	1.219518	-0.068794	1.182900
C192	C	1.552851	0.264539	1.516233
C193	C	0.893422	-0.338700	0.880025
C194	C	1.226756	-0.005367	1.213358
C195	C	1.560089	0.327967	1.546692
C196	C	0.900666	-0.275294	0.845043
C197	C	1.233999	0.058040	1.178376
C198	C	1.567333	0.391373	1.511710
C199	C	0.900663	-0.275318	0.779610
C200	C	1.233996	0.058016	1.112943
C201	C	1.567329	0.391349	1.446276
C202	C	0.893414	-0.338753	0.749158
C203	C	1.226748	-0.005420	1.082492
C204	C	1.560081	0.327914	1.415825
C205	C	0.935129	-0.293636	0.982110
C206	C	1.268462	0.039697	1.315443
C207	C	1.601796	0.373031	1.648777
C208	C	0.935125	-0.293605	1.047545
C209	C	1.268458	0.039729	1.380879
C210	C	1.601792	0.373062	1.714212
C211	C	0.851718	-0.383651	1.050701
C212	C	1.185051	-0.050318	1.384035
C213	C	1.518385	0.283016	1.717368
C214	C	0.851719	-0.383676	0.985267
C215	C	1.185052	-0.050343	1.318600
C216	C	1.518386	0.282990	1.651934
C217	C	0.893428	-0.338670	0.950975
C218	C	1.226761	-0.005336	1.284308
C219	C	1.560095	0.327997	1.617642
H220	H	0.135391	-0.257003	0.238890
H221	H	0.468724	0.076330	0.572223
H222	H	0.802058	0.409663	0.905557
O223	O	0.263169	-0.245124	0.227837
O224	O	0.596502	0.088210	0.561171
O225	O	0.929836	0.421543	0.894504
H226	H	0.294318	-0.209358	0.254644
H227	H	0.627652	0.123975	0.587978
H228	H	0.960985	0.457308	0.921311
H229	H	0.956438	-0.606724	0.251219
H230	H	1.289772	-0.273390	0.584552
H231	H	1.623105	0.059943	0.917886
H232	H	0.810976	-0.606818	0.396447
H233	H	1.144310	-0.273485	0.729780
H234	H	1.477643	0.059848	1.063113
O235	O	0.806742	-0.432239	0.951673
O236	O	1.140075	-0.098906	1.285006
O237	O	1.473408	0.234428	1.618340
H238	H	0.776010	-0.400740	0.920720
H239	H	1.109344	-0.067407	1.254053
H240	H	1.442677	0.265926	1.587387
O241	O	0.819399	-1.079981	0.388277
O242	O	1.152733	-0.746648	0.721610
O243	O	1.486066	-0.413314	1.054943
H244	H	0.792872	-1.042097	0.414755
H245	H	1.126206	-0.708763	0.748088
H246	H	1.459539	-0.375430	1.081421
O247	O	0.961960	-0.749786	0.245780
O248	O	1.295294	-0.416452	0.579114
O249	O	1.628627	-0.083119	0.912447
H250	H	0.991174	-0.711860	0.216585
H251	H	1.324508	-0.378527	0.549918
H252	H	1.657841	-0.045194	0.883252
O253	O	0.325361	-0.350560	0.432052
O254	O	0.658695	-0.017227	0.765385
O255	O	0.992028	0.316106	1.098719
H256	H	0.293794	-0.398226	0.432703
H257	H	0.627128	-0.064892	0.766036
H258	H	0.960461	0.268441	1.099370
O259	O	0.980105	-0.245089	0.945116
O260	O	1.313438	0.088245	1.278449
O261	O	1.646771	0.421578	1.611782
H262	H	1.009098	-0.213763	0.977761
H263	H	1.342431	0.119570	1.311094
H264	H	1.675765	0.452904	1.644427
O265	O	0.980095	-0.245252	0.541486
O266	O	1.313428	0.088081	0.874819
O267	O	1.646762	0.421414	1.208152
H268	H	1.009092	-0.213933	0.574133
H269	H	1.342426	0.119400	0.907466
H270	H	1.675759	0.452733	1.240799
O271	O	0.325946	-0.327103	0.196566
O272	O	0.659279	0.006230	0.529899
O273	O	0.992613	0.339564	0.863232
H274	H	0.359790	-0.323173	0.157167
H275	H	0.693124	0.010161	0.490501
H276	H	1.026457	0.343494	0.823834
O277	O	0.530797	-0.245188	0.227750
O278	O	0.864130	0.088145	0.561084
O279	O	1.197463	0.421478	0.894417
H280	H	0.545376	-0.189966	0.236608
H281	H	0.878710	0.143368	0.569942
H282	H	1.212043	0.476701	0.903275
O283	O	0.256506	-0.432521	0.400815
O284	O	0.589839	-0.099188	0.734148
O285	O	0.923173	0.234145	1.067481
H286	H	0.221647	-0.463852	0.429765
H287	H	0.554980	-0.130519	0.763098
H288	H	0.888313	0.202814	1.096432
H289	H	0.880115	-0.453787	0.759340
H290	H	1.213449	-0.120454	1.092674
H291	H	1.546782	0.212880	1.426007
H292	H	0.533203	-0.420671	0.389719
H293	H	0.866536	-0.087338	0.723053
H294	H	1.199869	0.245995	1.056386
O295	O	0.120487	-0.432583	0.400781
O296	O	0.453821	-0.099250	0.734114
O297	O	0.787154	0.234084	1.067448
H298	H	0.153113	-0.463979	0.429665
H299	H	0.486446	-0.130645	0.762998
H300	H	0.819779	0.202688	1.096332
H301	H	0.975799	-1.070157	0.232127
H302	H	1.309133	-0.736823	0.565460
H303	H	1.642466	-0.403490	0.898793
H304	H	0.980528	-0.936796	0.227340
H305	H	1.313861	-0.603463	0.560674
H306	H	1.647194	-0.270130	0.894007
H307	H	0.453266	-0.328626	0.211488
H308	H	0.786599	0.004708	0.544821
H309	H	1.119933	0.338041	0.878154
H310	H	0.835065	-0.936900	0.372565
H311	H	1.168399	-0.603567	0.705898
H312	H	1.501732	-0.270234	1.039232
O313	O	0.795298	-0.749890	0.412152
O314	O	1.128631	-0.416557	0.745485
O315	O	1.461965	-0.083223	1.078818
H316	H	0.799993	-0.807173	0.407478
H317	H	1.133326	-0.473840	0.740811
H318	H	1.466660	-0.140506	1.074145
H319	H	0.657737	-0.257112	0.238708
H320	H	0.991071	0.076221	0.572041
H321	H	1.324404	0.409554	0.905375
H322	H	0.969073	-0.257094	0.669262
H323	H	1.302406	0.076239	1.002595
H324	H	1.635740	0.409572	1.335929
H325	H	0.906559	-0.223690	0.751130
H326	H	1.239892	0.109643	1.084464
H327	H	1.573226	0.442977	1.417797
H328	H	0.906561	-0.223645	0.869841
H329	H	1.239894	0.109688	1.203174
H330	H	1.573228	0.443022	1.536507
O331	O	0.980109	-0.245038	1.081131
O332	O	1.313442	0.088295	1.414464
O333	O	1.646776	0.421628	1.747797
H334	H	1.009113	-0.213754	1.046290
H335	H	1.342447	0.119579	1.379623
H336	H	1.675780	0.452912	1.712956
O337	O	0.806741	-0.432199	1.087684
O338	O	1.140074	-0.098866	1.421018
O339	O	1.473408	0.234468	1.754351
H340	H	0.813751	-0.424621	1.138416
H341	H	1.147084	-0.091288	1.471749
H342	H	1.480417	0.242046	1.805082
O343	O	0.878365	-0.470510	0.887296
O344	O	1.211699	-0.137177	1.220629
O345	O	1.545032	0.196157	1.553962
H346	H	0.873316	-0.514618	0.855125
H347	H	1.206650	-0.181284	1.188458
H348	H	1.539983	0.152049	1.521792
O349	O	0.806726	-0.432351	0.684053
O350	O	1.140060	-0.099018	1.017386
O351	O	1.473393	0.234315	1.350720
H352	H	0.813738	-0.424774	0.734784
H353	H	1.147072	-0.091441	1.068117
H354	H	1.480405	0.241892	1.401451
O355	O	0.806705	-0.432380	0.548045
O356	O	1.140038	-0.099047	0.881378
O357	O	1.473371	0.234286	1.214712
H358	H	0.777704	-0.463670	0.582885
H359	H	1.111037	-0.130336	0.916218
H360	H	1.444370	0.202997	1.249552
H361	H	0.452747	-0.349113	0.417029
H362	H	0.786080	-0.015780	0.750363
H363	H	1.119414	0.317554	1.083696
O364	O	0.660138	-0.432611	0.400672
O365	O	0.993472	-0.099278	0.734005
O366	O	1.326805	0.234055	1.067339
H367	H	0.625277	-0.463945	0.429618
H368	H	0.958611	-0.130612	0.762951
H369	H	1.291944	0.202722	1.096285
