data_functionalizedCrystal
_audit_creation_method	'MofGen! by Chris Wilmer'
_symmetry_space_group_name_H-M	'P1'
_symmetry_Int_Tables_number	1
_symmetry_cell_setting	triclinic
loop_
_symmetry_equiv_pos_as_xyz
  x,y,z
_cell_length_a	21.395362
_cell_length_b	18.050589
_cell_length_c	21.395355
_cell_angle_alpha	89.987098
_cell_angle_beta	89.956060
_cell_angle_gamma	90.044101
loop_
_atom_site_label
_atom_site_type_symbol
_atom_site_fract_x
_atom_site_fract_y
_atom_site_fract_z
Zn1	Zn	0.957870	-0.295431	-0.354610
Zn2	Zn	0.957777	-0.419603	-0.249843
Zn3	Zn	0.853085	-0.295465	-0.249811
Zn4	Zn	0.853059	-0.419618	-0.354548
O5	O	0.905448	-0.357529	-0.302203
O6	O	1.045536	-0.311882	-0.340752
O7	O	0.943862	-0.403144	-0.162161
O8	O	0.867035	-0.191536	-0.263726
O9	O	1.045468	-0.403110	-0.263780
O10	O	0.944020	-0.191511	-0.340721
O11	O	0.866945	-0.311940	-0.162138
O12	O	0.765404	-0.311955	-0.263665
O13	O	0.866990	-0.403136	-0.442234
O14	O	0.765385	-0.403170	-0.340615
O15	O	0.943995	-0.311896	-0.442280
O16	O	0.943836	-0.523529	-0.263719
O17	O	0.866900	-0.523540	-0.340645
C18	C	0.742660	-0.357568	-0.302130
C19	C	0.673019	-0.357603	-0.302114
C20	C	0.640312	-0.405161	-0.342121
C21	C	0.574877	-0.405143	-0.342149
C22	C	0.542151	-0.357574	-0.302159
C23	C	0.574865	-0.310007	-0.262148
C24	C	0.640300	-0.310021	-0.262126
C25	C	0.438426	-0.351592	-0.245753
C26	C	0.372993	-0.351583	-0.245774
C27	C	0.340330	-0.357526	-0.302228
C28	C	0.373108	-0.363494	-0.358662
C29	C	0.438542	-0.363508	-0.358640
C30	C	0.471198	-0.357553	-0.302179
C31	C	0.236671	-0.405067	-0.342269
C32	C	0.171234	-0.405044	-0.342298
C33	C	0.171224	-0.309911	-0.262291
C34	C	0.236659	-0.309931	-0.262268
C35	C	0.269379	-0.357513	-0.302256
C36	C	0.905372	-0.550481	-0.302192
C37	C	0.905397	-0.633027	-0.302209
C38	C	0.863601	-0.832511	-0.344027
C39	C	0.848322	-0.881943	-0.286848
C40	C	0.905459	-0.784157	-0.302217
C41	C	0.920768	-0.881806	-0.359402
C42	C	0.905517	-0.930142	-0.302230
C43	C	0.890151	-0.832503	-0.245009
C44	C	0.962623	-0.832361	-0.317601
C45	C	0.947366	-0.881772	-0.260383
C46	C	0.905424	-0.700059	-0.302211
C47	C	0.905552	-1.014239	-0.302230
C48	C	1.068871	-0.357490	-0.302276
C49	C	1.138513	-0.357474	-0.302307
C50	C	0.905500	-0.357514	-0.465626
C51	C	0.905522	-0.357508	-0.535268
C52	C	0.905541	-0.163823	-0.302227
C53	C	0.905581	-0.081278	-0.302237
C54	C	0.945617	-0.309997	-0.568006
C55	C	0.945616	-0.309965	-0.633441
C56	C	0.905527	-0.357457	-0.666136
C57	C	0.865425	-0.404971	-0.633390
C58	C	0.865422	-0.404996	-0.567956
C59	C	0.900554	-0.424328	-0.769805
C60	C	0.900560	-0.424304	-0.835238
C61	C	0.905531	-0.357379	-0.867957
C62	C	0.910508	-0.290475	-0.835234
C63	C	0.910505	-0.290501	-0.769800
C64	C	0.905525	-0.357435	-0.737088
C65	C	0.945627	-0.309829	-0.971647
C66	C	0.945621	-0.309796	-1.037084
C67	C	0.865434	-0.404809	-1.037032
C68	C	0.865436	-0.404835	-0.971596
C69	C	0.905535	-0.357347	-0.938908
C70	C	0.905432	-0.357490	-0.139415
C71	C	0.905531	-0.357288	-0.069774
H72	H	0.548242	-0.443870	-0.374731
C73	C	0.135678	-0.258398	-0.218776
C74	C	0.098056	-0.300385	-0.178561
C75	C	0.065310	-0.252958	-0.138453
H76	H	0.110148	-0.226050	-0.242709
H77	H	0.164520	-0.230101	-0.194907
H78	H	0.069217	-0.328669	-0.202427
H79	H	0.123571	-0.332731	-0.154614
H80	H	0.094152	-0.224661	-0.114584
H81	H	0.039783	-0.220612	-0.162391
H82	H	0.039784	-0.281439	-0.111159
C83	C	0.675847	-0.258296	-0.218787
C84	C	0.713482	-0.210756	-0.254318
C85	C	0.746231	-0.163092	-0.214414
H86	H	0.701368	-0.286579	-0.191425
H87	H	0.647007	-0.229917	-0.194985
H88	H	0.742319	-0.239132	-0.278109
H89	H	0.687976	-0.182458	-0.281678
H90	H	0.717391	-0.134713	-0.190612
H91	H	0.771749	-0.191381	-0.187054
H92	H	0.771766	-0.130826	-0.238516
H93	H	0.978268	-0.271327	-0.541395
C94	C	0.895254	-0.497007	-0.870676
C95	C	0.945517	-0.542904	-0.854779
C96	C	0.940646	-0.609892	-0.887401
H97	H	0.895995	-0.487525	-0.914343
H98	H	0.857113	-0.520805	-0.859912
H99	H	0.983648	-0.519111	-0.865547
H100	H	0.944786	-0.552408	-0.811118
H101	H	0.902505	-0.633689	-0.876637
H102	H	0.941386	-0.600401	-0.931066
H103	H	0.974745	-0.641043	-0.876615
C104	C	0.473855	-0.345296	-0.184426
C105	C	0.457859	-0.404859	-0.145639
C106	C	0.490490	-0.399092	-0.089147
H107	H	0.463177	-0.300093	-0.164375
H108	H	0.517524	-0.346197	-0.192469
H109	H	0.414199	-0.403951	-0.137595
H110	H	0.468538	-0.450070	-0.165670
H111	H	0.534160	-0.399993	-0.097189
H112	H	0.479810	-0.353887	-0.069101
H113	H	0.479646	-0.439507	-0.062825
H114	H	0.832790	-0.443528	-0.944941
H115	H	0.800008	-0.903738	-0.273849
H116	H	0.914556	-0.236026	-0.743160
C117	C	0.816436	-0.803620	-0.391188
C118	C	0.847365	-0.760922	-0.436276
C119	C	0.803938	-0.734304	-0.479731
H120	H	0.786263	-0.773943	-0.370370
H121	H	0.796178	-0.844209	-0.410909
H122	H	0.867613	-0.720339	-0.416556
H123	H	0.877535	-0.790583	-0.457109
H124	H	0.783680	-0.774893	-0.499452
H125	H	0.773767	-0.704631	-0.458908
H126	H	0.824917	-0.705337	-0.510331
H127	H	0.666948	-0.443905	-0.374684
H128	H	0.877170	-0.810935	-0.196640
H129	H	0.978275	-0.271157	-0.945031
C130	C	0.539419	-0.258404	-0.218625
C131	C	0.555271	-0.274458	-0.156606
C132	C	0.522638	-0.226926	-0.116496
H133	H	0.495754	-0.265159	-0.224280
H134	H	0.550206	-0.208512	-0.227826
H135	H	0.544480	-0.324338	-0.147409
H136	H	0.598930	-0.267698	-0.150932
H137	H	0.533425	-0.177033	-0.125697
H138	H	0.478975	-0.233685	-0.122156
H139	H	0.533393	-0.237807	-0.074413
C140	C	0.994517	-0.910400	-0.213095
C141	C	0.978229	-0.885298	-0.153353
C142	C	1.021642	-0.911665	-0.109774
H143	H	1.035006	-0.892689	-0.223589
H144	H	0.994515	-0.963030	-0.213559
H145	H	0.978237	-0.832679	-0.152891
H146	H	0.937748	-0.903007	-0.142840
H147	H	1.021640	-0.964295	-0.110238
H148	H	1.062128	-0.893953	-0.120273
H149	H	1.010594	-0.894644	-0.069234
C150	C	1.027007	-0.803336	-0.335097
C151	C	1.042764	-0.828256	-0.395034
C152	C	1.102067	-0.801523	-0.411183
H153	H	1.056931	-0.820918	-0.305877
H154	H	1.026618	-0.750708	-0.334624
H155	H	1.043159	-0.880873	-0.395503
H156	H	1.012857	-0.810676	-0.424267
H157	H	1.101677	-0.748896	-0.410710
H158	H	1.131986	-0.819108	-0.381960
H159	H	1.112763	-0.818422	-0.451854
C160	C	0.989119	-0.258086	-1.072548
C161	C	0.975526	-0.184618	-1.056596
C162	C	1.015590	-0.136961	-1.089246
H163	H	0.983419	-0.264764	-1.116210
H164	H	1.031221	-0.268910	-1.061843
H165	H	0.933435	-0.173798	-1.067305
H166	H	0.981231	-0.177917	-1.012939
H167	H	1.057692	-0.147785	-1.078541
H168	H	1.009886	-0.143646	-1.132907
H169	H	1.006376	-0.087109	-1.078423
H170	H	0.933693	-0.903463	-0.407758
C171	C	0.989220	-0.258354	-0.668882
C172	C	1.024347	-0.216784	-0.626250
C173	C	1.064528	-0.169241	-0.658873
H174	H	0.965342	-0.225925	-0.694392
H175	H	1.016538	-0.286737	-0.694416
H176	H	0.997033	-0.188403	-0.600728
H177	H	1.048238	-0.249194	-0.600739
H178	H	1.091845	-0.197624	-0.684407
H179	H	1.040644	-0.136817	-0.684382
H180	H	1.088370	-0.141035	-0.629953
H181	H	0.896338	-0.478812	-0.743171
H182	H	0.914556	-0.235979	-0.861872
H183	H	0.832786	-0.443470	-1.063651
C184	C	0.821936	-0.456657	-0.668804
C185	C	0.835532	-0.530137	-0.652888
C186	C	0.795474	-0.577769	-0.685491
H187	H	0.827641	-0.449941	-0.712473
H188	H	0.779833	-0.445845	-0.658036
H189	H	0.877625	-0.540945	-0.663660
H190	H	0.829824	-0.536876	-0.609224
H191	H	0.753371	-0.566957	-0.674723
H192	H	0.801182	-0.571047	-0.729159
H193	H	0.804689	-0.627630	-0.674693
H194	H	0.832770	-0.443684	-0.541301
H195	H	0.465228	-0.368366	-0.404590
H196	H	0.346516	-0.368333	-0.404632
C197	C	0.272087	-0.456744	-0.385758
C198	C	0.229435	-0.498371	-0.420820
C199	C	0.262035	-0.545975	-0.460895
H200	H	0.297562	-0.489135	-0.361807
H201	H	0.297654	-0.428403	-0.413121
H202	H	0.203879	-0.526711	-0.393460
H203	H	0.203959	-0.466000	-0.444784
H204	H	0.287601	-0.517634	-0.488258
H205	H	0.287508	-0.578361	-0.436939
H206	H	0.233100	-0.574220	-0.484693
H207	H	0.144605	-0.443770	-0.374881
H208	H	0.346310	-0.346728	-0.199822
C209	C	0.272061	-0.258272	-0.218756
C210	C	0.229398	-0.216622	-0.183728
C211	C	0.261987	-0.169029	-0.143633
H212	H	0.297642	-0.225896	-0.242692
H213	H	0.297520	-0.286623	-0.191374
H214	H	0.203950	-0.188273	-0.211107
H215	H	0.203816	-0.248978	-0.159780
H216	H	0.287446	-0.197380	-0.116250
H217	H	0.287567	-0.136658	-0.167573
H218	H	0.233045	-0.140768	-0.119857
