data_functionalizedCrystal
_audit_creation_method	'MofGen! by Chris Wilmer'
_symmetry_space_group_name_H-M	'P1'
_symmetry_Int_Tables_number	1
_symmetry_cell_setting	triclinic
loop_
_symmetry_equiv_pos_as_xyz
  x,y,z
_cell_length_a	27.732066
_cell_length_b	10.723024
_cell_length_c	9.198806
_cell_angle_alpha	90.005661
_cell_angle_beta	89.991708
_cell_angle_gamma	83.558986
loop_
_atom_site_label
_atom_site_type_symbol
_atom_site_fract_x
_atom_site_fract_y
_atom_site_fract_z
O1	O	-0.641841	-0.148578	-0.120596
O2	O	-0.501189	-0.171128	-0.120663
O3	O	-0.574759	0.021857	-0.120622
O4	O	-0.568270	-0.341563	-0.120636
O5	O	-0.574759	0.021872	0.121163
O6	O	-0.501188	-0.171113	0.121122
O7	O	-0.641841	-0.148563	0.121189
Cu8	Cu	-0.571515	-0.159837	0.143233
Cu9	Cu	-0.571515	-0.159855	-0.142706
O10	O	-0.568270	-0.341548	0.121149
C11	C	-0.483179	-0.170644	0.000221
C12	C	-0.429516	-0.169208	0.000196
C13	C	-0.051674	-0.045388	0.000263
C14	C	-0.253367	-0.050673	0.000236
O15	O	-0.284023	0.045403	0.000296
N16	N	-0.273205	-0.165110	0.000226
C17	C	-0.242617	-0.278234	0.000233
O18	O	-0.264118	-0.375692	0.000239
C19	C	-0.040925	-0.272948	0.000271
C20	C	-0.021090	-0.158503	0.000266
C21	C	-0.031839	0.069048	0.000260
C22	C	0.018582	0.070368	0.000259
C23	C	0.049166	-0.042748	0.000261
C24	C	0.029331	-0.157183	0.000265
C25	C	-0.010337	-0.386071	0.000288
C26	C	0.040089	-0.384740	0.000301
C27	C	0.059924	-0.270295	0.000296
C28	C	0.110336	-0.268979	0.000266
N29	N	0.130174	-0.154541	0.000276
C30	C	0.099589	-0.041426	0.000273
C31	C	-0.348508	-0.281002	0.000210
C32	C	-0.398931	-0.282324	0.000198
C33	C	-0.409678	-0.054761	0.000204
C34	C	-0.359254	-0.053441	0.000206
C35	C	-0.328670	-0.166564	0.000220
C36	C	0.205476	-0.038662	0.000270
C37	C	0.255901	-0.037352	0.000263
C38	C	0.266644	-0.264914	0.000265
C39	C	0.216223	-0.266225	0.000264
C40	C	0.185640	-0.153089	0.000272
O41	O	0.141020	-0.365003	0.000223
O42	O	0.121100	0.056018	0.000299
C43	C	-0.102094	-0.046708	0.000264
C44	C	-0.121930	-0.161143	0.000268
C45	C	-0.091345	-0.274259	0.000270
C46	C	-0.172353	-0.162465	0.000256
C47	C	-0.202937	-0.049349	0.000254
C48	C	-0.183099	0.065088	0.000263
C49	C	-0.132679	0.066408	0.000262
C50	C	-0.111183	-0.388697	0.000261
C51	C	-0.161604	-0.390007	0.000260
C52	C	-0.192189	-0.276892	0.000258
C53	C	-0.574287	0.068344	0.000268
C54	C	-0.572874	0.206840	0.000262
C55	C	0.340149	-0.149043	0.000289
C56	C	0.286486	-0.150468	0.000265
N57	N	-0.571515	-0.159858	-0.343820
C58	C	-0.568742	-0.388036	0.000255
C59	C	-0.570155	-0.526532	0.000251
C60	C	-0.614040	0.283520	0.000280
C61	C	-0.612581	0.426663	0.000274
C62	C	-0.602473	-0.078648	-0.416000
C63	C	-0.602474	-0.078629	-0.583412
N64	N	-0.571518	-0.159823	0.344347
H65	H	0.180580	0.053464	0.000275
H66	H	-0.534912	0.407591	0.000246
H67	H	-0.536550	0.247166	0.000236
H68	H	-0.647822	0.492548	0.000295
H69	H	-0.545014	-0.229375	-0.405963
C70	C	-0.638282	0.015304	-0.667256
C71	C	-0.638236	0.015180	-0.834661
C72	C	-0.674045	0.109116	-0.918508
C73	C	-0.709900	0.203176	-0.834949
C74	C	-0.709946	0.203304	-0.667534
C75	C	-0.674138	0.109367	-0.583687
H76	H	-0.611694	-0.054453	-0.896525
H77	H	-0.674010	0.109021	-1.042440
H78	H	-0.736407	0.272713	-0.897017
H79	H	-0.736489	0.272936	-0.605670
H80	H	-0.674173	0.109463	-0.459755
H81	H	0.034726	0.163561	0.000261
C82	C	-0.337438	0.072449	0.000214
C83	C	-0.348820	0.166142	0.125768
C84	C	-0.327007	0.292037	0.125781
C85	C	-0.293812	0.324240	0.000241
C86	C	-0.282428	0.230545	-0.125322
C87	C	-0.304241	0.104650	-0.125335
H88	H	-0.373394	0.142305	0.218708
H89	H	-0.335434	0.361396	0.218731
H90	H	-0.277664	0.417436	0.000250
H91	H	-0.257853	0.254382	-0.218263
H92	H	-0.295814	0.035291	-0.218285
H93	H	0.291555	-0.357010	0.000259
H94	H	0.272048	0.055847	0.000255
C95	C	-0.420745	-0.408216	0.000188
C96	C	-0.409383	-0.501882	0.125747
C97	C	-0.431194	-0.627779	0.125747
C98	C	-0.464368	-0.660011	0.000189
C99	C	-0.475733	-0.566344	-0.125378
C100	C	-0.453921	-0.440446	-0.125379
H101	H	-0.384824	-0.478024	0.218701
H102	H	-0.422781	-0.697118	0.218701
H103	H	-0.480515	-0.753208	0.000190
H104	H	-0.500292	-0.590202	-0.218332
H105	H	-0.462334	-0.371107	-0.218333
H106	H	-0.650364	0.243195	0.000306
H107	H	-0.628978	-0.009139	-0.353859
H108	H	-0.545011	-0.229350	-0.593591
H109	H	0.064988	-0.476861	0.000320
C110	C	-0.314870	-0.405450	0.000211
C111	C	-0.278720	-0.435857	-0.125338
C112	C	-0.245085	-0.560306	-0.125346
C113	C	-0.247601	-0.654350	0.000193
C114	C	-0.283752	-0.623946	0.125751
C115	C	-0.317387	-0.499496	0.125760
H116	H	-0.276857	-0.366238	-0.218278
H117	H	-0.218323	-0.582813	-0.218293
H118	H	-0.222702	-0.746475	0.000187
H119	H	-0.285616	-0.693565	0.218692
H120	H	-0.344149	-0.476990	0.218707
C121	C	0.194404	-0.392117	0.000239
C122	C	0.161227	-0.424331	-0.125318
C123	C	0.139414	-0.550227	-0.125335
C124	C	0.150780	-0.643910	0.000204
C125	C	0.183959	-0.611699	0.125771
C126	C	0.205772	-0.485803	0.125788
H127	H	0.152812	-0.354979	-0.218258
H128	H	0.114853	-0.574072	-0.218289
H129	H	0.134633	-0.737107	0.000191
H130	H	0.192374	-0.681051	0.218711
H131	H	0.230333	-0.461958	0.218742
H132	H	-0.056736	0.161166	0.000263
H133	H	-0.026478	-0.479265	0.000286
H134	H	-0.116534	0.159601	0.000258
H135	H	-0.208010	0.157191	0.000253
H136	H	-0.434589	0.037342	0.000197
H137	H	-0.086286	-0.480811	0.000264
H138	H	-0.177749	-0.483209	0.000254
