data_functionalizedCrystal
_audit_creation_method	'MofGen! by Chris Wilmer'
_symmetry_space_group_name_H-M	'P1'
_symmetry_Int_Tables_number	1
_symmetry_cell_setting	triclinic
loop_
_symmetry_equiv_pos_as_xyz
  x,y,z
_cell_length_a	10.723024
_cell_length_b	13.930277
_cell_length_c	10.723023
_cell_angle_alpha	90.003517
_cell_angle_beta	84.467709
_cell_angle_gamma	90.006913
loop_
_atom_site_label
_atom_site_type_symbol
_atom_site_fract_x
_atom_site_fract_y
_atom_site_fract_z
O1	O	1.657193	0.079822	0.175026
O2	O	2.157193	0.579822	0.675026
O3	O	1.294041	0.079825	0.191780
O4	O	1.794041	0.579825	0.691780
O5	O	1.483994	0.079820	0.001827
O6	O	1.983994	0.579820	0.501827
O7	O	1.467240	0.079828	0.364979
O8	O	1.967240	0.579828	0.864979
O9	O	1.483967	-0.079842	0.001823
O10	O	1.983967	0.420158	0.501823
O11	O	1.294014	-0.079836	0.191775
O12	O	1.794014	0.420164	0.691775
O13	O	1.657166	-0.079839	0.175022
O14	O	2.157166	0.420161	0.675022
Zn15	Zn	1.475586	-0.105188	0.183398
Zn16	Zn	1.975586	0.394812	0.683398
Zn17	Zn	1.475621	0.105174	0.183404
Zn18	Zn	1.975621	0.605174	0.683404
O19	O	1.467213	-0.079834	0.364975
O20	O	1.967213	0.420166	0.864975
C21	C	1.247528	-0.000005	0.190558
C22	C	1.747528	0.499995	0.690558
C23	C	1.108973	-0.000004	0.186911
C24	C	1.608973	0.499996	0.686911
N25	N	1.475571	-0.248754	0.183394
N26	N	1.975571	0.251246	0.683394
C27	C	1.033991	-0.000001	0.293198
C28	C	1.533991	0.499999	0.793198
C29	C	0.890787	0.000000	0.289431
C30	C	1.390787	0.500000	0.789431
C31	C	1.391506	-0.701021	0.267482
C32	C	1.891506	-0.201021	0.767482
C33	C	1.559770	-0.700995	0.099317
C34	C	2.059770	-0.200995	0.599317
C35	C	1.559755	-0.600499	0.099312
C36	C	2.059755	-0.100499	0.599312
C37	C	1.475616	-0.550260	0.183395
C38	C	1.975616	-0.050260	0.683395
C39	C	1.391491	-0.600516	0.267483
C40	C	1.891491	-0.100516	0.767483
C41	C	1.643887	-0.550236	0.015235
C42	C	2.143887	-0.050236	0.515235
C43	C	1.643876	-0.449734	0.015229
C44	C	2.143876	0.050266	0.515229
C45	C	1.559730	-0.399492	0.099307
C46	C	2.059730	0.100508	0.599307
C47	C	1.475601	-0.449754	0.183397
C48	C	1.975601	0.050246	0.683397
C49	C	1.391461	-0.399515	0.267480
C50	C	1.891461	0.100485	0.767480
C51	C	1.307325	-0.449775	0.351564
C52	C	1.807325	0.050225	0.851564
C53	C	1.307345	-0.550274	0.351561
C54	C	1.807345	-0.050274	0.851561
C55	C	1.559711	-0.298993	0.099310
C56	C	2.059711	0.201007	0.599310
C57	C	1.391446	-0.299010	0.267481
C58	C	1.891446	0.200990	0.767481
C59	C	1.703679	-0.000007	0.176243
C60	C	2.203679	0.499993	0.676243
C61	C	1.842234	-0.000002	0.179891
C62	C	2.342234	0.499998	0.679891
C63	C	1.482762	-0.000010	-0.044675
C64	C	1.982762	0.499990	0.455325
C65	C	1.479114	-0.000007	-0.183229
C66	C	1.979114	0.499993	0.316771
N67	N	1.475646	0.248740	0.183399
N68	N	1.975646	0.748740	0.683399
C69	C	1.477502	0.082704	-0.244993
C70	C	1.977502	0.582704	0.255007
C71	C	1.473733	0.082709	-0.388196
C72	C	1.973733	0.582709	0.111804
C73	C	1.468445	-0.000002	0.411477
C74	C	1.968445	0.499998	0.911477
C75	C	1.472093	0.000001	0.550031
C76	C	1.972093	0.500001	1.050031
H77	H	0.826354	0.000007	0.380421
H78	H	1.326354	0.500007	0.880421
H79	H	1.075812	-0.000004	0.386984
H80	H	1.575812	0.499996	0.886984
H81	H	0.906659	0.000002	0.088896
H82	H	1.406659	0.500002	0.588896
O83	O	1.479358	0.176503	-0.174615
O84	O	1.979358	0.676503	0.325385
H85	H	1.563609	0.218270	-0.209923
H86	H	2.063609	0.718270	0.290077
O87	O	1.053597	-0.000013	0.062669
O88	O	1.553597	0.499987	0.562669
H89	H	0.994950	0.065065	0.055744
H90	H	1.494950	0.565065	0.555744
O91	O	1.734633	-0.604425	-0.075443
O92	O	2.234633	-0.104425	0.424557
H93	H	1.793142	-0.552595	-0.133901
H94	H	2.293142	-0.052595	0.366099
H95	H	1.473485	-0.070814	-0.396863
H96	H	1.973485	0.429186	0.103137
H97	H	1.322925	-0.258111	0.335947
H98	H	1.822925	0.241889	0.835947
H99	H	1.238824	-0.408859	0.420031
H100	H	1.738824	0.091141	0.920031
H101	H	1.238845	-0.591202	0.420020
H102	H	1.738845	-0.091202	0.920020
O103	O	1.300767	-0.755219	0.358178
O104	O	1.800767	-0.255219	0.858178
H105	H	1.314912	-0.833544	0.344063
H106	H	1.814912	-0.333544	0.844063
H107	H	1.477696	-0.070815	-0.236368
H108	H	1.977696	0.429185	0.263632
H109	H	1.712383	-0.408818	-0.053238
H110	H	2.212383	0.091182	0.446762
O111	O	1.650520	-0.755174	0.008630
O112	O	2.150520	-0.255174	0.508630
H113	H	1.636394	-0.833501	0.022753
H114	H	2.136394	-0.333501	0.522753
H115	H	1.628219	-0.258076	0.030856
H116	H	2.128219	0.241924	0.530856
O117	O	1.471889	0.176516	-0.458535
O118	O	1.971889	0.676516	0.041465
H119	H	1.469206	0.161800	-0.559972
H120	H	1.969206	0.661800	-0.059972
