data_functionalizedCrystal
_audit_creation_method	'MofGen! by Chris Wilmer'
_symmetry_space_group_name_H-M	'P1'
_symmetry_Int_Tables_number	1
_symmetry_cell_setting	triclinic
loop_
_symmetry_equiv_pos_as_xyz
  x,y,z
_cell_length_a	15.944551
_cell_length_b	10.654554
_cell_length_c	9.130313
_cell_angle_alpha	89.999583
_cell_angle_beta	89.996359
_cell_angle_gamma	96.007210
loop_
_atom_site_label
_atom_site_type_symbol
_atom_site_fract_x
_atom_site_fract_y
_atom_site_fract_z
O1	O	-0.117992	1.666304	-0.121788
O2	O	0.382008	2.166304	0.378212
O3	O	-0.129227	1.300681	-0.121788
O4	O	0.370773	1.800681	0.378212
O5	O	-0.001393	1.493477	-0.121797
O6	O	0.498607	1.993477	0.378203
O7	O	-0.245826	1.473508	-0.121780
O8	O	0.254174	1.973508	0.378220
O9	O	-0.001396	1.493474	0.121802
O10	O	0.498604	1.993474	0.621802
O11	O	-0.129231	1.300678	0.121811
O12	O	0.370769	1.800678	0.621811
O13	O	-0.117995	1.666302	0.121811
O14	O	0.382005	2.166302	0.621811
Cu15	Cu	-0.123613	1.483490	0.144053
Cu16	Cu	0.376387	1.983490	0.644053
Cu17	Cu	-0.123609	1.483493	-0.144031
Cu18	Cu	0.376391	1.983493	0.355969
O19	O	-0.245830	1.473506	0.121819
O20	O	0.254170	1.973506	0.621819
C21	C	-0.128403	1.253892	0.000011
C22	C	0.371597	1.753892	0.500011
C23	C	-0.125933	1.114481	0.000010
C24	C	0.374067	1.614481	0.500010
C25	C	-0.046019	0.932954	-0.000008
C26	C	0.453981	1.432954	0.499992
C27	C	-0.048340	1.063945	0.000003
C28	C	0.451660	1.563945	0.500003
C29	C	-0.201209	1.034018	0.000022
C30	C	0.298791	1.534018	0.500022
C31	C	-0.198887	0.903029	0.000022
C32	C	0.301113	1.403029	0.500022
C33	C	0.031578	0.882425	-0.000030
C34	C	0.531578	1.382425	0.499970
C35	C	0.106854	0.962879	-0.000038
C36	C	0.606854	1.462879	0.499962
C37	C	0.104533	1.093871	-0.000028
C38	C	0.604533	1.593871	0.499972
C39	C	0.026936	1.144408	-0.000008
C40	C	0.526936	1.644408	0.499992
C41	C	-0.277127	1.474336	0.000022
C42	C	0.222873	1.974336	0.500022
C43	C	-0.370387	1.476821	0.000028
C44	C	0.129613	1.976821	0.500028
C45	C	-0.585972	1.602265	0.000006
C46	C	-0.085972	2.102265	0.500006
C47	C	-0.646652	1.544012	0.120114
C48	C	-0.146652	2.044012	0.620114
C49	C	-0.541139	1.481317	0.000015
C50	C	-0.041139	1.981317	0.500015
C51	C	-0.646634	1.543986	-0.120055
C52	C	-0.146634	2.043986	0.379945
C53	C	-0.706077	1.485669	-0.000004
C54	C	-0.206077	1.985669	0.499996
C55	C	-0.600591	1.423031	0.120223
C56	C	-0.100591	1.923031	0.620223
C57	C	-0.600567	1.423021	-0.120055
C58	C	-0.100567	1.923021	0.379945
C59	C	-0.661229	1.364680	0.000083
C60	C	-0.161229	1.864680	0.500083
C61	C	-0.446123	1.478814	0.000027
C62	C	0.053877	1.978814	0.500027
C63	C	-0.801093	1.488163	-0.000005
C64	C	-0.301093	1.988163	0.499995
C65	C	0.029904	1.492647	-0.000002
C66	C	0.529904	1.992647	0.499998
C67	C	0.123165	1.490161	-0.000018
C68	C	0.623165	1.990161	0.499982
C69	C	-0.118819	1.713090	0.000008
C70	C	0.381181	2.213090	0.500008
C71	C	-0.121290	1.852501	-0.000001
C72	C	0.378710	2.352501	0.499999
N73	N	-0.123616	1.483497	0.346676
N74	N	0.376384	1.983497	0.846676
N75	N	-0.123600	1.483495	-0.346653
N76	N	0.376400	1.983495	0.153347
C77	C	-0.067030	1.568889	0.423324
C78	C	0.432970	2.068889	0.923324
C79	C	-0.067020	1.568885	0.576661
C80	C	0.432980	2.068885	1.076661
C81	C	-0.180189	1.398095	0.576688
C82	C	0.319811	1.898095	1.076688
C83	C	-0.180194	1.398093	0.423354
C84	C	0.319806	1.898093	0.923354
C85	C	-0.010451	1.654293	0.346646
C86	C	0.489549	2.154293	0.846646
C87	C	0.046138	1.739692	0.423294
C88	C	0.546138	2.239692	0.923294
C89	C	0.046149	1.739689	0.576631
C90	C	0.546149	2.239689	1.076631
C91	C	-0.010431	1.654286	0.653320
C92	C	0.489569	2.154286	1.153320
H93	H	0.170032	0.921722	-0.000066
H94	H	0.670032	1.421722	0.499934
H95	H	0.092209	1.809218	0.360847
H96	H	0.592209	2.309218	0.860847
H97	H	0.165827	1.159373	-0.000021
H98	H	0.665827	1.659373	0.499979
N99	N	-0.010425	1.654291	0.818705
N100	N	0.489575	2.154291	1.318705
H101	H	-0.054857	1.587240	0.855651
H102	H	0.445143	2.087240	1.355651
H103	H	0.046790	1.636067	0.855514
H104	H	0.546790	2.136067	1.355514
H105	H	-0.580305	1.371913	0.221875
H106	H	-0.080305	1.871913	0.721875
H107	H	0.092232	1.809216	0.639037
H108	H	0.592232	2.309216	1.139037
N109	N	-0.704382	1.231586	0.000155
N110	N	-0.204382	1.731586	0.500155
H111	H	-0.687645	1.186077	0.090914
H112	H	-0.187645	1.686077	0.590914
H113	H	-0.767526	1.234082	-0.000763
H114	H	-0.267526	1.734082	0.499237
H115	H	-0.553248	1.702659	0.000124
H116	H	-0.053248	2.202659	0.500124
H117	H	-0.260179	0.837522	0.000033
H118	H	0.239821	1.337522	0.500033
H119	H	0.025052	1.251072	0.000014
H120	H	0.525052	1.751072	0.500014
N121	N	-0.284898	1.088521	0.000038
N122	N	0.215102	1.588521	0.500038
H123	H	-0.274947	1.183710	0.000033
H124	H	0.225053	1.683710	0.500033
H125	H	-0.317868	1.059091	-0.090265
H126	H	0.182132	1.559091	0.409735
H127	H	-0.580140	1.371909	-0.221602
H128	H	-0.080140	1.871909	0.278398
N129	N	-0.673695	1.611766	0.254611
N130	N	-0.173695	2.111766	0.754611
H131	H	-0.646058	1.701501	0.254522
H132	H	-0.146058	2.201501	0.754522
H133	H	-0.737010	1.612120	0.253999
H134	H	-0.237010	2.112120	0.753999
H135	H	-0.667019	1.595166	-0.221592
H136	H	-0.167019	2.095166	0.278408
N137	N	-0.010466	1.654287	0.181264
N138	N	0.489534	2.154287	0.681264
H139	H	-0.023226	1.739603	0.144333
H140	H	0.476774	2.239603	0.644333
H141	H	0.046727	1.635974	0.144425
H142	H	0.546727	2.135974	0.644425
N143	N	-0.241211	1.305987	0.659394
N144	N	0.258789	1.805987	1.159394
H145	H	-0.232621	1.318948	0.768161
H146	H	0.267379	1.818948	1.268161
H147	H	-0.300891	1.320490	0.632605
H148	H	0.199109	1.820490	1.132605
N149	N	-0.241224	1.305989	0.340678
N150	N	0.258776	1.805989	0.840678
H151	H	-0.300932	1.320446	0.367368
H152	H	0.199068	1.820446	0.867368
H153	H	-0.232566	1.318990	0.231934
H154	H	0.267434	1.818990	0.731934
H155	H	0.033476	0.775767	-0.000042
H156	H	0.533476	1.275767	0.499958
