data_functionalizedCrystal
_audit_creation_method	'MofGen! by Chris Wilmer'
_symmetry_space_group_name_H-M	'P1'
_symmetry_Int_Tables_number	1
_symmetry_cell_setting	triclinic
loop_
_symmetry_equiv_pos_as_xyz
  x,y,z
_cell_length_a	9.065218
_cell_length_b	8.140239
_cell_length_c	14.971486
_cell_angle_alpha	90.003728
_cell_angle_beta	84.315007
_cell_angle_gamma	90.002802
loop_
_atom_site_label
_atom_site_type_symbol
_atom_site_fract_x
_atom_site_fract_y
_atom_site_fract_z
O1	O	1.957738	0.136619	0.131152
O2	O	2.291072	0.469952	0.464485
O3	O	2.624405	0.803285	0.797819
O4	O	1.528235	0.136621	0.141910
O5	O	1.861569	0.469955	0.475243
O6	O	2.194902	0.803288	0.808577
O7	O	1.754499	0.136608	0.006417
O8	O	2.087832	0.469942	0.339750
O9	O	2.421165	0.803275	0.673083
O10	O	1.731475	0.136632	0.266645
O11	O	2.064808	0.469965	0.599979
O12	O	2.398142	0.803298	0.933312
O13	O	1.754486	-0.136619	0.006415
O14	O	2.087820	0.196714	0.339748
O15	O	2.421153	0.530048	0.673082
O16	O	1.528223	-0.136606	0.141908
O17	O	1.861556	0.196727	0.475242
O18	O	2.194890	0.530061	0.808575
O19	O	1.957726	-0.136608	0.131151
O20	O	2.291059	0.196725	0.464484
O21	O	2.624393	0.530058	0.797817
Zn22	Zn	1.742972	-0.179988	0.136529
Zn23	Zn	2.076306	0.153346	0.469862
Zn24	Zn	2.409639	0.486679	0.803196
Zn25	Zn	1.742989	0.180001	0.136531
Zn26	Zn	2.076322	0.513334	0.469865
Zn27	Zn	2.409656	0.846667	0.803198
O28	O	1.731463	-0.136595	0.266644
O29	O	2.064796	0.196738	0.599977
O30	O	2.398129	0.530071	0.933310
C31	C	1.473263	0.000008	0.140875
C32	C	1.806597	0.333341	0.474209
C33	C	2.139930	0.666675	0.807542
C34	C	1.309483	0.000009	0.137784
C35	C	1.642817	0.333342	0.471117
C36	C	1.976150	0.666675	0.804450
N37	N	1.742972	-0.425670	0.136527
N38	N	2.076305	-0.092337	0.469861
N39	N	2.409639	0.240996	0.803194
C40	C	2.012698	0.000009	0.132185
C41	C	2.346031	0.333342	0.465519
C42	C	2.679364	0.666675	0.798852
C43	C	2.176478	0.000019	0.135277
C44	C	2.509811	0.333352	0.468610
C45	C	2.843145	0.666685	0.801943
C46	C	1.753463	-0.000005	-0.026916
C47	C	2.086796	0.333329	0.306417
C48	C	2.420129	0.666662	0.639750
C49	C	1.750377	-0.000003	-0.126237
C50	C	2.083711	0.333330	0.207097
C51	C	2.417044	0.666663	0.540430
N52	N	1.743001	0.425683	0.136526
N53	N	2.076334	0.759017	0.469860
N54	N	2.409668	1.092350	0.803193
C55	C	1.883301	-0.000005	-0.182471
C56	C	2.216634	0.333328	0.150862
C57	C	2.549967	0.666661	0.484196
C58	C	1.880393	0.000011	-0.275792
C59	C	2.213726	0.333345	0.057541
C60	C	2.547059	0.666678	0.390874
C61	C	1.744560	0.000018	-0.312877
C62	C	2.077893	0.333351	0.020456
C63	C	2.411226	0.666685	0.353790
C64	C	1.611626	0.000025	-0.256635
C65	C	1.944959	0.333358	0.076698
C66	C	2.278293	0.666692	0.410032
C67	C	1.614535	0.000020	-0.163316
C68	C	1.947869	0.333353	0.170018
C69	C	2.281202	0.666687	0.503351
C70	C	1.605571	0.000031	-0.451143
C71	C	1.938904	0.333364	-0.117809
C72	C	2.272238	0.666698	0.215524
C73	C	1.602660	0.000033	-0.544468
C74	C	1.935994	0.333366	-0.211135
C75	C	2.269327	0.666699	0.122198
C76	C	1.871428	0.000022	-0.563619
C77	C	2.204761	0.333355	-0.230286
C78	C	2.538095	0.666689	0.103047
C79	C	1.874338	0.000017	-0.470300
C80	C	2.207671	0.333351	-0.136967
C81	C	2.541004	0.666684	0.196367
C82	C	1.741403	0.000021	-0.414064
C83	C	2.074737	0.333354	-0.080731
C84	C	2.408070	0.666688	0.252602
C85	C	1.732498	0.000021	0.299977
C86	C	2.065832	0.333355	0.633310
C87	C	2.399165	0.666688	0.966644
C88	C	1.735584	0.000031	0.399297
C89	C	2.068917	0.333364	0.732630
C90	C	2.402251	0.666697	1.065964
H91	H	1.993912	-0.000021	-0.152285
H92	H	2.327245	0.333313	0.181049
H93	H	2.660578	0.666646	0.514382
H94	H	1.506295	0.000022	-0.117530
H95	H	1.839629	0.333355	0.215804
H96	H	2.172962	0.666689	0.549137
H97	H	1.492053	0.000012	-0.574659
H98	H	1.825387	0.333345	-0.241326
H99	H	2.158720	0.666678	0.092007
Cl100	Cl	2.047505	0.000004	-0.346484
Cl101	Cl	2.380838	0.333337	-0.013151
Cl102	Cl	2.714171	0.666671	0.320183
H103	H	1.984945	-0.000000	-0.440109
H104	H	2.318278	0.333333	-0.106776
H105	H	2.651611	0.666667	0.226558
Cl106	Cl	2.038546	0.000026	-0.634315
Cl107	Cl	2.371879	0.333359	-0.300981
Cl108	Cl	2.705212	0.666693	0.032352
H109	H	1.497321	0.000038	-0.405358
H110	H	1.830654	0.333372	-0.072024
H111	H	2.163988	0.666705	0.261309
H112	H	1.501028	0.000041	-0.286837
H113	H	1.834361	0.333374	0.046497
H114	H	2.167695	0.666707	0.379830
