data_functionalizedCrystal
_audit_creation_method	'MofGen! by Chris Wilmer'
_symmetry_space_group_name_H-M	'P1'
_symmetry_Int_Tables_number	1
_symmetry_cell_setting	triclinic
loop_
_symmetry_equiv_pos_as_xyz
  x,y,z
_cell_length_a	19.288864
_cell_length_b	15.944551
_cell_length_c	17.766277
_cell_angle_alpha	89.992686
_cell_angle_beta	89.976791
_cell_angle_gamma	83.317492
loop_
_atom_site_label
_atom_site_type_symbol
_atom_site_fract_x
_atom_site_fract_y
_atom_site_fract_z
O1	O	0.921629	0.104784	-0.062837
O2	O	0.719406	0.118919	-0.062786
O3	O	0.826040	-0.010445	-0.062806
O4	O	0.814995	0.234147	-0.062817
O5	O	0.826021	-0.010451	0.062382
O6	O	0.719387	0.118912	0.062403
O7	O	0.921610	0.104777	0.062351
Cu8	Cu	0.820497	0.111844	0.073808
Cu9	Cu	0.820519	0.111852	-0.074242
O10	O	0.814976	0.234141	0.062372
C11	C	0.693519	0.118461	-0.000185
C12	C	0.616411	0.117095	-0.000165
C13	C	0.571915	0.193000	-0.000181
C14	C	0.499465	0.191717	-0.000189
C15	C	0.471514	0.114526	-0.000197
C16	C	0.516020	0.038611	-0.000178
C17	C	0.588469	0.039896	-0.000162
C18	C	0.363099	0.053847	-0.044079
C19	C	0.290651	0.052565	-0.044099
C20	C	0.248058	0.110560	-0.000242
C21	C	0.277920	0.169850	0.043625
C22	C	0.350369	0.171135	0.043641
C23	C	0.392956	0.113124	-0.000214
C24	C	0.125002	0.185079	-0.000265
C25	C	0.052550	0.183793	-0.000269
C26	C	0.069107	0.030684	-0.000265
C27	C	0.141557	0.031972	-0.000254
C28	C	0.169500	0.109172	-0.000258
C29	C	0.825572	-0.041740	-0.000212
C30	C	0.824197	-0.134981	-0.000211
C31	C	0.754815	-0.349571	-0.000204
C32	C	0.787024	-0.410715	0.061514
C33	C	0.821710	-0.305697	-0.000216
C34	C	0.787059	-0.410692	-0.061912
C35	C	0.819303	-0.470601	-0.000224
C36	C	0.853938	-0.365614	0.061552
C37	C	0.853963	-0.365585	-0.061929
C38	C	0.886222	-0.426712	-0.000197
C39	C	0.823095	-0.210700	-0.000211
C40	C	0.817924	-0.565597	-0.000224
C41	C	0.947497	0.105235	-0.000251
C42	C	1.024605	0.106600	-0.000276
C43	C	0.815444	0.265436	-0.000225
C44	C	0.816819	0.358677	-0.000230
N45	N	0.820486	0.111838	0.177938
N46	N	0.820535	0.111851	-0.178373
C47	C	0.867719	0.054584	0.217316
C48	C	0.867723	0.054580	0.296118
C49	C	0.820501	0.111845	0.335539
C50	C	0.773259	0.169103	0.296151
C51	C	0.773252	0.169100	0.217351
C52	C	0.811404	0.188378	0.460375
C53	C	0.811416	0.188382	0.539173
C54	C	0.820520	0.111855	0.578585
C55	C	0.829626	0.035319	0.539188
C56	C	0.829618	0.035316	0.460387
C57	C	0.820503	0.111854	0.420984
C58	C	0.867759	0.054592	0.703409
C59	C	0.867759	0.054587	0.782212
C60	C	0.773298	0.169117	0.782244
C61	C	0.773295	0.169115	0.703442
C62	C	0.820530	0.111853	0.664029
H63	H	0.594661	0.255862	-0.000185
C64	C	0.801389	0.272570	0.417030
N65	N	0.793846	0.335981	0.384384
H66	H	0.177787	-0.029838	-0.000246
H67	H	0.804006	0.250702	0.571244
H68	H	0.734788	0.215724	0.185289
H69	H	0.734846	0.215740	0.814340
C70	C	0.231073	0.233647	0.091875
N71	N	0.195785	0.281698	0.128214
H72	H	0.941797	-0.460084	-0.000176
H73	H	0.758722	-0.430717	0.113705
C74	C	0.892165	-0.338529	-0.132442
N75	N	0.920933	-0.318148	-0.185558
H76	H	0.882201	-0.345735	0.113786
H77	H	0.758764	-0.430657	-0.114093
C78	C	0.485273	-0.046300	-0.000187
N79	N	0.462114	-0.110258	-0.000193
C80	C	0.721312	0.232091	0.339516
N81	N	0.682181	0.279533	0.372178
C82	C	0.919672	-0.008414	0.173966
N83	N	0.958801	-0.055868	0.141314
C84	C	0.257810	-0.012660	-0.092349
N85	N	0.233076	-0.061792	-0.128689
C86	C	0.839639	-0.048868	0.582534
N87	N	0.847181	-0.112276	0.615186
H88	H	0.906187	0.007955	0.328185
C89	C	0.839626	-0.048871	0.417054
N90	N	0.847159	-0.112282	0.384415
C91	C	0.409944	-0.009953	-0.092331
N92	N	0.445227	-0.058004	-0.128675
H93	H	0.734837	0.215740	0.671378
H94	H	0.463229	0.253530	-0.000199
H95	H	0.906219	0.007963	0.671318
C96	C	0.383216	0.236345	0.091902
N97	N	0.407956	0.285459	0.128257
C98	C	0.919710	-0.008415	0.825528
N99	N	0.958837	-0.055873	0.858153
H100	H	0.147754	0.247939	-0.000257
H101	H	0.016321	0.245606	-0.000277
H102	H	0.624699	-0.021917	-0.000150
C103	C	0.038366	-0.054228	-0.000273
N104	N	0.015208	-0.118186	-0.000278
H105	H	0.699288	-0.316049	-0.000128
