data_functionalizedCrystal
_audit_creation_method	'MofGen! by Chris Wilmer'
_symmetry_space_group_name_H-M	'P1'
_symmetry_Int_Tables_number	1
_symmetry_cell_setting	triclinic
loop_
_symmetry_equiv_pos_as_xyz
  x,y,z
_cell_length_a	18.101398
_cell_length_b	18.101395
_cell_length_c	19.076919
_cell_angle_alpha	92.272317
_cell_angle_beta	92.290393
_cell_angle_gamma	90.026661
loop_
_atom_site_label
_atom_site_type_symbol
_atom_site_fract_x
_atom_site_fract_y
_atom_site_fract_z
Zn1	Zn	1.115288	-0.311748	-0.397786
Zn2	Zn	1.365288	-0.061748	-0.147786
Zn3	Zn	1.615288	0.188252	0.102214
Zn4	Zn	1.865288	0.438252	0.352214
Zn5	Zn	1.120164	-0.430617	-0.280094
Zn6	Zn	1.370164	-0.180617	-0.030094
Zn7	Zn	1.620164	0.069383	0.219906
Zn8	Zn	1.870164	0.319383	0.469906
Zn9	Zn	0.996426	-0.306785	-0.280123
Zn10	Zn	1.246426	-0.056785	-0.030123
Zn11	Zn	1.496426	0.193215	0.219877
Zn12	Zn	1.746426	0.443215	0.469877
Zn13	Zn	0.991398	-0.435542	-0.397769
Zn14	Zn	1.241398	-0.185542	-0.147769
Zn15	Zn	1.491398	0.064458	0.102231
Zn16	Zn	1.741398	0.314458	0.352231
O17	O	1.055819	-0.371173	-0.338943
O18	O	1.305819	-0.121173	-0.088943
O19	O	1.555819	0.128827	0.161057
O20	O	1.805819	0.378827	0.411057
O21	O	1.219568	-0.327532	-0.382169
O22	O	1.469568	-0.077532	-0.132169
O23	O	1.719568	0.172468	0.117831
O24	O	1.969568	0.422468	0.367831
O25	O	1.107895	-0.410053	-0.181608
O26	O	1.357895	-0.160053	0.068392
O27	O	1.607895	0.089947	0.318392
O28	O	1.857895	0.339947	0.568392
O29	O	1.012257	-0.203812	-0.295751
O30	O	1.262257	0.046188	-0.045751
O31	O	1.512257	0.296188	0.204249
O32	O	1.762257	0.546188	0.454249
O33	O	1.223150	-0.414864	-0.295701
O34	O	1.473150	-0.164864	-0.045701
O35	O	1.723150	0.085136	0.204299
O36	O	1.973150	0.335136	0.454299
O37	O	1.099584	-0.207457	-0.382197
O38	O	1.349584	0.042543	-0.132197
O39	O	1.599584	0.292543	0.117803
O40	O	1.849584	0.542543	0.367803
O41	O	1.016985	-0.319074	-0.181630
O42	O	1.266985	-0.069074	0.068370
O43	O	1.516985	0.180926	0.318370
O44	O	1.766985	0.430926	0.568370
O45	O	0.892126	-0.323849	-0.295734
O46	O	1.142126	-0.073849	-0.045734
O47	O	1.392126	0.176151	0.204266
O48	O	1.642126	0.426151	0.454266
O49	O	1.003688	-0.423258	-0.496261
O50	O	1.253688	-0.173258	-0.246261
O51	O	1.503688	0.076742	0.003739
O52	O	1.753688	0.326742	0.253739
O53	O	0.888432	-0.418446	-0.382168
O54	O	1.138432	-0.168446	-0.132168
O55	O	1.388432	0.081554	0.117832
O56	O	1.638432	0.331554	0.367832
O57	O	1.094709	-0.332307	-0.496274
O58	O	1.344709	-0.082307	-0.246274
O59	O	1.594709	0.167693	0.003726
O60	O	1.844709	0.417693	0.253726
O61	O	1.103020	-0.534902	-0.295684
O62	O	1.353020	-0.284902	-0.045684
O63	O	1.603020	-0.034902	0.204316
O64	O	1.853020	0.215098	0.454316
O65	O	1.008416	-0.538520	-0.382140
O66	O	1.258416	-0.288520	-0.132140
O67	O	1.508416	-0.038520	0.117860
O68	O	1.758416	0.211480	0.367860
C69	C	0.863408	-0.371144	-0.338953
C70	C	1.113408	-0.121144	-0.088953
C71	C	1.363408	0.128856	0.161047
C72	C	1.613408	0.378856	0.411047
C73	C	0.781093	-0.371151	-0.338974
C74	C	1.031093	-0.121151	-0.088974
C75	C	1.281093	0.128849	0.161026
C76	C	1.531093	0.378849	0.411026
C77	C	1.055721	-0.563583	-0.338922
C78	C	1.305721	-0.313583	-0.088922
C79	C	1.555721	-0.063583	0.161078
C80	C	1.805721	0.186417	0.411078
C81	C	1.055746	-0.645897	-0.338937
C82	C	1.305746	-0.395897	-0.088937
C83	C	1.555746	-0.145897	0.161063
C84	C	1.805746	0.104103	0.411063
C85	C	0.482003	-0.371193	-0.338944
C86	C	0.732003	-0.121193	-0.088944
C87	C	0.982003	0.128807	0.161056
C88	C	1.232003	0.378807	0.411056
C89	C	0.511041	-0.430976	-0.393058
C90	C	0.761041	-0.180976	-0.143058
C91	C	1.011041	0.069024	0.106942
C92	C	1.261041	0.319024	0.356942
C93	C	0.596650	-0.430805	-0.393280
C94	C	0.846650	-0.180805	-0.143280
C95	C	1.096650	0.069195	0.106720
C96	C	1.346650	0.319195	0.356720
C97	C	0.630385	-0.371172	-0.338959
C98	C	0.880385	-0.121172	-0.088959
C99	C	1.130385	0.128828	0.161041
C100	C	1.380385	0.378828	0.411041
C101	C	0.598473	-0.294027	-0.359226
C102	C	0.848473	-0.044027	-0.109226
C103	C	1.098473	0.205973	0.140774
C104	C	1.348473	0.455973	0.390774
C105	C	0.512812	-0.294389	-0.359611
C106	C	0.762812	-0.044389	-0.109611
C107	C	1.012812	0.205611	0.140389
C108	C	1.262812	0.455611	0.390389
C109	C	0.516704	-0.387862	-0.264433
C110	C	0.766704	-0.137862	-0.014433
C111	C	1.016704	0.112138	0.235567
C112	C	1.266704	0.362138	0.485567
C113	C	0.602337	-0.389590	-0.264831
C114	C	0.852337	-0.139590	-0.014831
C115	C	1.102337	0.110410	0.235169
C116	C	1.352337	0.360410	0.485169
C117	C	0.714245	-0.371156	-0.338966
C118	C	0.964245	-0.121156	-0.088966
C119	C	1.214245	0.128844	0.161034
C120	C	1.464245	0.378844	0.411034
C121	C	0.398144	-0.371204	-0.338939
C122	C	0.648144	-0.121204	-0.088939
C123	C	0.898144	0.128796	0.161061
C124	C	1.148144	0.378796	0.411061
C125	C	1.055907	-0.944990	-0.338975
C126	C	1.305907	-0.694990	-0.088975
C127	C	1.555907	-0.444990	0.161025
C128	C	1.805907	-0.194990	0.411025
C129	C	0.996511	-0.915978	-0.393505
C130	C	1.246511	-0.665978	-0.143505
C131	C	1.496511	-0.415978	0.106495
C132	C	1.746511	-0.165978	0.356495
C133	C	0.996247	-0.830353	-0.393335
C134	C	1.246247	-0.580353	-0.143335
C135	C	1.496247	-0.330353	0.106665
C136	C	1.746247	-0.080353	0.356665
C137	C	1.055827	-0.796607	-0.338957
C138	C	1.305827	-0.546607	-0.088957
C139	C	1.555827	-0.296607	0.161043
C140	C	1.805827	-0.046607	0.411043
C141	C	1.037836	-0.824618	-0.264784
C142	C	1.287836	-0.574618	-0.014784
C143	C	1.537836	-0.324618	0.235216
C144	C	1.787836	-0.074618	0.485216
C145	C	1.037454	-0.910277	-0.265110
C146	C	1.287454	-0.660277	-0.015110
C147	C	1.537454	-0.410277	0.234890
C148	C	1.787454	-0.160277	0.484890
C149	C	1.133445	-0.914143	-0.357964
C150	C	1.383445	-0.664143	-0.107964
C151	C	1.633445	-0.414143	0.142036
C152	C	1.883445	-0.164143	0.392036
C153	C	1.132915	-0.828561	-0.359591
C154	C	1.382915	-0.578561	-0.109591
C155	C	1.632915	-0.328561	0.140409
C156	C	1.882915	-0.078561	0.390409
C157	C	1.055783	-0.712746	-0.338942
C158	C	1.305783	-0.462746	-0.088942
C159	C	1.555783	-0.212746	0.161058
C160	C	1.805783	0.037254	0.411058
C161	C	1.055949	-1.028850	-0.338985
C162	C	1.305949	-0.778850	-0.088985
C163	C	1.555949	-0.528850	0.161015
C164	C	1.805949	-0.278850	0.411015
C165	C	1.248981	-0.371202	-0.338934
C166	C	1.498981	-0.121202	-0.088934
C167	C	1.748981	0.128798	0.161066
C168	C	1.998981	0.378798	0.411066
C169	C	1.331296	-0.371215	-0.338930
C170	C	1.581296	-0.121215	-0.088930
C171	C	1.831296	0.128785	0.161070
C172	C	2.081296	0.378785	0.411070
C173	C	1.048094	-0.378885	-0.522519
C174	C	1.298094	-0.128885	-0.272519
C175	C	1.548094	0.121115	-0.022519
C176	C	1.798094	0.371115	0.227481
C177	C	1.044801	-0.382172	-0.600748
C178	C	1.294801	-0.132172	-0.350748
C179	C	1.544801	0.117828	-0.100748
C180	C	1.794801	0.367828	0.149252
C181	C	1.055937	-0.178013	-0.338979
C182	C	1.305937	0.071987	-0.088979
C183	C	1.555937	0.321987	0.161021
C184	C	1.805937	0.571987	0.411021
C185	C	1.055988	-0.095699	-0.338995
C186	C	1.305988	0.154301	-0.088995
C187	C	1.555988	0.404301	0.161005
C188	C	1.805988	0.654301	0.411005
C189	C	1.090642	-0.336365	-0.637507
C190	C	1.340642	-0.086365	-0.387507
C191	C	1.590642	0.163635	-0.137507
C192	C	1.840642	0.413635	0.112493
C193	C	1.087540	-0.339450	-0.711012
C194	C	1.337540	-0.089450	-0.461012
C195	C	1.587540	0.160550	-0.211012
C196	C	1.837540	0.410550	0.038988
C197	C	1.038600	-0.388347	-0.747755
C198	C	1.288600	-0.138347	-0.497755
C199	C	1.538600	0.111653	-0.247755
C200	C	1.788600	0.361653	0.002245
C201	C	0.992754	-0.434156	-0.710990
C202	C	1.242754	-0.184156	-0.460990
C203	C	1.492754	0.065844	-0.210990
C204	C	1.742754	0.315844	0.039010
C205	C	0.995853	-0.431066	-0.637487
C206	C	1.245853	-0.181066	-0.387487
C207	C	1.495853	0.068934	-0.137487
C208	C	1.745853	0.318934	0.112513
C209	C	1.024246	-0.402661	-0.967585
C210	C	1.274246	-0.152661	-0.717585
C211	C	1.524246	0.097339	-0.467585
C212	C	1.774246	0.347339	-0.217585
C213	C	1.021152	-0.405749	-1.041093
C214	C	1.271152	-0.155749	-0.791093
C215	C	1.521152	0.094251	-0.541093
C216	C	1.771152	0.344251	-0.291093
C217	C	1.115937	-0.311042	-1.041110
C218	C	1.365937	-0.061042	-0.791110
C219	C	1.615937	0.188958	-0.541110
C220	C	1.865937	0.438958	-0.291110
C221	C	1.119035	-0.307960	-0.967605
C222	C	1.369035	-0.057960	-0.717605
C223	C	1.619035	0.192040	-0.467605
C224	C	1.869035	0.442040	-0.217605
C225	C	1.073187	-0.353766	-0.930847
C226	C	1.323187	-0.103766	-0.680847
C227	C	1.573187	0.146234	-0.430847
C228	C	1.823187	0.396234	-0.180847
N229	N	1.035429	-0.391503	-0.822888
N230	N	1.285429	-0.141503	-0.572888
N231	N	1.535429	0.108497	-0.322888
N232	N	1.785429	0.358497	-0.072888
N233	N	1.076354	-0.350605	-0.855715
N234	N	1.326354	-0.100605	-0.605715
N235	N	1.576354	0.149395	-0.355715
N236	N	1.826354	0.399395	-0.105715
C237	C	1.063557	-0.363437	-0.156082
C238	C	1.313557	-0.113437	0.093918
C239	C	1.563557	0.136563	0.343918
C240	C	1.813557	0.386563	0.593918
C241	C	1.066993	-0.359942	-0.077853
C242	C	1.316993	-0.109942	0.172147
C243	C	1.566993	0.140058	0.422147
C244	C	1.816993	0.390058	0.672147
H245	H	0.618182	-0.488111	-0.380578
H246	H	0.868182	-0.238111	-0.130578
H247	H	1.118182	0.011889	0.119422
H248	H	1.368182	0.261889	0.369422
F249	F	0.963492	-0.935582	-0.244083
F250	F	1.213492	-0.685582	0.005917
F251	F	1.463492	-0.435582	0.255917
F252	F	1.713492	-0.185582	0.505917
F253	F	0.627204	-0.234404	-0.309320
F254	F	0.877204	0.015596	-0.059320
F255	F	1.127204	0.265596	0.190680
F256	F	1.377204	0.515596	0.440680
H257	H	0.981868	-0.802536	-0.248408
H258	H	1.231868	-0.552536	0.001592
H259	H	1.481868	-0.302536	0.251592
H260	H	1.731868	-0.052536	0.501592
H261	H	0.952904	-0.473966	-0.740912
H262	H	1.202904	-0.223966	-0.490912
H263	H	1.452904	0.026034	-0.240912
H264	H	1.702904	0.276034	0.009088
F265	F	0.492454	-0.330897	-0.211732
F266	F	0.742454	-0.080897	0.038268
F267	F	0.992454	0.169103	0.288268
F268	F	1.242454	0.419103	0.538268
H269	H	0.495870	-0.442989	-0.246015
H270	H	0.745870	-0.192989	0.003985
H271	H	0.995870	0.057011	0.253985
H272	H	1.245870	0.307011	0.503985
H273	H	1.146539	-0.810508	-0.414178
H274	H	1.396539	-0.560508	-0.164178
H275	H	1.646539	-0.310508	0.085822
H276	H	1.896539	-0.060508	0.335822
H277	H	1.124870	-0.302151	-0.740938
H278	H	1.374870	-0.052151	-0.490938
H279	H	1.624870	0.197849	-0.240938
H280	H	1.874870	0.447849	0.009062
F281	F	1.092782	-0.795691	-0.210229
F282	F	1.342782	-0.545691	0.039771
F283	F	1.592782	-0.295691	0.289771
F284	F	1.842782	-0.045691	0.539771
H285	H	0.986924	-0.439971	-0.937665
H286	H	1.236924	-0.189971	-0.687665
H287	H	1.486924	0.060029	-0.437665
H288	H	1.736924	0.310029	-0.187665
F289	F	0.620398	-0.416716	-0.465441
F290	F	0.870398	-0.166716	-0.215441
F291	F	1.120398	0.083284	0.034559
F292	F	1.370398	0.333284	0.284559
F293	F	1.171124	-0.255918	-0.928506
F294	F	1.421124	-0.005918	-0.678506
F295	F	1.671124	0.244082	-0.428506
F296	F	1.921124	0.494082	-0.178506
H297	H	1.079009	-0.929220	-0.223096
H298	H	1.329009	-0.679220	0.026904
H299	H	1.579009	-0.429220	0.276904
H300	H	1.829009	-0.179220	0.526904
H301	H	1.153263	-0.273748	-1.071047
H302	H	1.403263	-0.023748	-0.821047
H303	H	1.653263	0.226252	-0.571047
H304	H	1.903263	0.476252	-0.321047
F305	F	1.142735	-0.284326	-0.598409
F306	F	1.392735	-0.034326	-0.348409
F307	F	1.642735	0.215674	-0.098409
F308	F	1.892735	0.465674	0.151591
H309	H	1.177658	-0.932716	-0.318248
H310	H	1.427658	-0.682716	-0.068248
H311	H	1.677658	-0.432716	0.181752
H312	H	1.927658	-0.182716	0.431752
H313	H	0.939321	-0.937034	-0.381086
H314	H	1.189321	-0.687034	-0.131086
H315	H	1.439321	-0.437034	0.118914
H316	H	1.689321	-0.187034	0.368914
H317	H	0.981297	-0.445568	-1.071008
H318	H	1.231297	-0.195568	-0.821008
H319	H	1.481297	0.054432	-0.571008
H320	H	1.731297	0.304432	-0.321008
H321	H	0.490957	-0.488476	-0.380498
H322	H	0.740957	-0.238476	-0.130498
H323	H	0.990957	0.011524	0.119502
H324	H	1.240957	0.261524	0.369502
F325	F	0.479877	-0.417100	-0.464800
F326	F	0.729877	-0.167100	-0.214800
F327	F	0.979877	0.082900	0.035200
F328	F	1.229877	0.332900	0.285200
H329	H	0.490546	-0.279882	-0.414082
H330	H	0.740546	-0.029882	-0.164082
H331	H	0.990546	0.220118	0.085918
H332	H	1.240546	0.470118	0.335918
F333	F	0.487809	-0.234416	-0.310343
F334	F	0.737809	0.015584	-0.060343
F335	F	0.987809	0.265584	0.189657
F336	F	1.237809	0.515584	0.439657
H337	H	1.179257	-0.805594	-0.322768
H338	H	1.429257	-0.555594	-0.072768
H339	H	1.679257	-0.305594	0.177232
H340	H	1.929257	-0.055594	0.427232
F341	F	1.155684	-0.945249	-0.427454
F342	F	1.405684	-0.695249	-0.177454
F343	F	1.655684	-0.445249	0.072546
F344	F	1.905684	-0.195249	0.322546
H345	H	0.958517	-0.468360	-0.607558
H346	H	1.208517	-0.218360	-0.357558
H347	H	1.458517	0.031640	-0.107558
H348	H	1.708517	0.281640	0.142442
H349	H	0.617658	-0.279192	-0.413105
H350	H	0.867658	-0.029192	-0.163105
H351	H	1.117658	0.220808	0.086895
H352	H	1.367658	0.470808	0.336895
H353	H	1.007265	-0.938861	-0.448682
H354	H	1.257265	-0.688861	-0.198682
H355	H	1.507265	-0.438861	0.051318
H356	H	1.757265	-0.188861	0.301318
F357	F	0.629710	-0.463774	-0.244855
F358	F	0.879710	-0.213774	0.005145
F359	F	1.129710	0.036226	0.255145
F360	F	1.379710	0.286226	0.505145
F361	F	0.632653	-0.336478	-0.209300
F362	F	0.882653	-0.086478	0.040700
F363	F	1.132653	0.163522	0.290700
F364	F	1.382653	0.413522	0.540700
F365	F	1.010482	-0.805861	-0.465222
F366	F	1.260482	-0.555861	-0.215222
F367	F	1.510482	-0.305861	0.034778
F368	F	1.760482	-0.055861	0.284778
H369	H	0.938711	-0.809393	-0.380757
H370	H	1.188711	-0.559393	-0.130757
H371	H	1.438711	-0.309393	0.119243
H372	H	1.688711	-0.059393	0.369243
