data_functionalizedCrystal
_audit_creation_method	'MofGen! by Chris Wilmer'
_symmetry_space_group_name_H-M	'P1'
_symmetry_Int_Tables_number	1
_symmetry_cell_setting	triclinic
loop_
_symmetry_equiv_pos_as_xyz
  x,y,z
_cell_length_a	12.837943
_cell_length_b	15.944551
_cell_length_c	11.295483
_cell_angle_alpha	94.094426
_cell_angle_beta	85.461227
_cell_angle_gamma	89.163839
loop_
_atom_site_label
_atom_site_type_symbol
_atom_site_fract_x
_atom_site_fract_y
_atom_site_fract_z
O1	O	1.382450	0.213265	-0.099009
O2	O	1.080644	0.202478	-0.099016
O3	O	1.239788	0.086257	-0.099002
O4	O	1.223306	0.329487	-0.099023
O5	O	1.225810	0.096448	0.099048
O6	O	1.066666	0.212669	0.099034
O7	O	1.368472	0.223456	0.099040
Cu8	Cu	1.216293	0.218993	0.117121
Cu9	Cu	1.232823	0.206941	-0.117096
O10	O	1.209328	0.339677	0.099026
C11	C	1.035034	0.203930	0.000008
C12	C	0.919957	0.193062	0.000006
C13	C	1.232115	0.060004	0.000023
C14	C	1.230063	-0.033407	0.000024
C15	C	0.679007	0.323714	0.000011
C16	C	0.570881	0.313507	0.000010
C17	C	0.595575	0.162440	0.000011
C18	C	0.703701	0.172648	0.000012
C19	C	0.745413	0.253287	0.000011
C20	C	0.853542	0.263494	0.000003
C21	C	0.878234	0.112428	0.000013
C22	C	0.770107	0.102221	0.000011
C23	C	1.126515	-0.256548	0.000005
C24	C	1.167708	-0.308694	0.097657
C25	C	1.226352	-0.204430	0.000015
C26	C	1.181513	-0.318722	-0.097604
C27	C	1.222761	-0.369631	0.000001
C28	C	1.267567	-0.255341	0.097747
C29	C	1.281364	-0.265369	-0.097602
C30	C	1.322627	-0.317491	0.000073
C31	C	1.228418	-0.109262	0.000024
C32	C	1.220702	-0.464796	0.000000
C33	C	1.414082	0.222005	0.000014
C34	C	1.529160	0.232872	0.000008
C35	C	1.217002	0.365931	-0.000001
C36	C	1.219054	0.459340	-0.000010
N37	N	1.204674	0.227469	0.281856
N38	N	1.244451	0.198459	-0.281831
C39	C	1.328092	0.137394	0.531156
C40	C	1.319318	0.143806	0.655819
C41	C	1.178349	0.246701	0.655847
C42	C	1.187123	0.240289	0.531184
C43	C	1.261997	0.185634	0.468843
C44	C	1.270775	0.179227	0.344178
C45	C	1.129802	0.282117	0.344208
C46	C	1.121028	0.288530	0.468871
H47	H	0.712969	0.389374	0.000008
N48	N	1.101868	0.302511	0.719556
N49	N	1.094042	0.308219	0.830861
H50	H	1.040026	0.347635	0.875859
H51	H	0.561586	0.096792	0.000111
N52	N	0.503062	0.385456	0.000020
N53	N	0.540323	0.457447	0.000025
H54	H	0.492426	0.508265	0.000035
N55	N	1.022545	-0.223081	0.000128
N56	N	0.956215	-0.235463	0.083845
H57	H	0.882787	-0.211827	0.083936
H58	H	0.736129	0.036567	0.000026
H59	H	0.932315	0.055081	0.000004
N60	N	1.107417	-0.332825	0.201216
N61	N	1.013020	-0.311620	0.218613
H62	H	0.970432	-0.328660	0.291747
H63	H	1.303925	-0.227723	0.180394
N64	N	1.426675	-0.350753	0.000149
N65	N	1.481030	-0.329900	0.084067
H66	H	1.554513	-0.353391	0.084126
H67	H	1.373138	0.104523	0.706551
H68	H	1.329382	-0.246112	-0.180161
H69	H	1.145100	-0.346426	-0.180167
N70	N	1.347191	0.123356	0.280474
N71	N	1.344705	0.046321	0.294408
H72	H	1.398651	0.006845	0.249406
H73	H	0.887502	0.329155	0.000004
N74	N	1.404483	0.081483	0.467488
N75	N	1.463429	0.038360	0.523141
H76	H	1.517345	-0.001162	0.478177
N77	N	1.044550	0.344346	0.532573
N78	N	1.036722	0.350062	0.643878
H79	H	0.982708	0.389484	0.688869
N80	N	1.062301	0.331402	0.280537
N81	N	1.070151	0.325678	0.169232
H82	H	1.022485	0.360488	0.124262
