data_functionalizedCrystal
_audit_creation_method	'MofGen! by Chris Wilmer'
_symmetry_space_group_name_H-M	'P1'
_symmetry_Int_Tables_number	1
_symmetry_cell_setting	triclinic
loop_
_symmetry_equiv_pos_as_xyz
  x,y,z
_cell_length_a	9.730223
_cell_length_b	10.654543
_cell_length_c	10.654550
_cell_angle_alpha	95.516448
_cell_angle_beta	90.004929
_cell_angle_gamma	90.004221
loop_
_atom_site_label
_atom_site_type_symbol
_atom_site_fract_x
_atom_site_fract_y
_atom_site_fract_z
O1	O	0.114142	-1.667839	0.176360
O2	O	0.114177	-1.302359	0.193175
O3	O	0.114150	-1.493502	0.002028
O4	O	0.114169	-1.476696	0.367507
O5	O	-0.114430	-1.493500	0.002019
O6	O	-0.114403	-1.302357	0.193166
O7	O	-0.114438	-1.667837	0.176351
Zn8	Zn	-0.150713	-1.485097	0.184757
Zn9	Zn	0.150451	-1.485099	0.184769
O10	O	-0.114411	-1.476694	0.367498
C11	C	-0.000109	-1.255560	0.191938
C12	C	-0.000095	-1.116116	0.188249
N13	N	-0.356249	-1.485105	0.184749
N14	N	0.355988	-1.485101	0.184768
C15	C	-0.000092	-1.036631	0.300793
C16	C	-0.000112	-0.905609	0.297319
C17	C	-0.000135	-0.933573	0.068749
C18	C	-0.000124	-1.064591	0.072224
C19	C	0.427902	-1.569900	0.100296
C20	C	0.571785	-1.569905	0.100289
C21	C	0.571827	-1.400302	0.269230
C22	C	0.427947	-1.400304	0.269242
C23	C	-0.000139	-1.492267	-0.044774
C24	C	-0.000137	-1.488575	-0.184217
C25	C	-0.000143	-0.714635	0.177595
C26	C	-0.000127	-0.854077	0.181301
C27	C	-0.000147	-1.601117	-0.263706
C28	C	-0.000130	-1.597641	-0.394726
C29	C	-0.000098	-1.369070	-0.366758
C30	C	-0.000105	-1.372548	-0.235740
C31	C	-0.000119	-1.477929	0.414300
C32	C	-0.000113	-1.481621	0.553744
H33	H	-0.000112	-0.840896	0.388964
O34	O	-0.000151	-1.726257	-0.208136
H35	H	-0.093310	-1.780401	-0.240009
H36	H	-0.000135	-1.689284	-0.459442
H37	H	-0.000166	-0.891604	-0.025715
O38	O	0.350297	-1.661374	0.009197
H39	H	0.284744	-1.608115	-0.052455
O40	O	-0.000136	-1.150328	-0.049173
H41	H	-0.000143	-1.250089	-0.027262
H42	H	0.630333	-1.638957	0.031505
H43	H	-0.000093	-1.280897	-0.171016
O44	O	-0.000084	-1.092198	0.425934
H45	H	0.093091	-1.151199	0.433002
O46	O	0.649437	-1.308809	0.360305
H47	H	0.761569	-1.323033	0.346088
O48	O	0.350366	-1.308871	0.360387
H49	H	0.424572	-1.249905	0.419125
H50	H	-0.000075	-1.274605	-0.408724
