data_functionalizedCrystal
_audit_creation_method	'MofGen! by Chris Wilmer'
_symmetry_space_group_name_H-M	'P1'
_symmetry_Int_Tables_number	1
_symmetry_cell_setting	triclinic
loop_
_symmetry_equiv_pos_as_xyz
  x,y,z
_cell_length_a	18.101398
_cell_length_b	25.639240
_cell_length_c	18.101389
_cell_angle_alpha	90.027631
_cell_angle_beta	90.024802
_cell_angle_gamma	90.030487
loop_
_atom_site_label
_atom_site_type_symbol
_atom_site_fract_x
_atom_site_fract_y
_atom_site_fract_z
Zn1	Zn	1.132112	-0.208237	0.418801
Zn2	Zn	1.632112	0.291763	0.918801
Zn3	Zn	1.132005	-0.295659	0.294939
Zn4	Zn	1.632005	0.204341	0.794939
Zn5	Zn	1.008271	-0.208236	0.294961
Zn6	Zn	1.508271	0.291764	0.794961
Zn7	Zn	1.008219	-0.295640	0.418727
Zn8	Zn	1.508219	0.204360	0.918727
O9	O	1.070152	-0.251943	0.356857
O10	O	1.570152	0.248057	0.856857
O11	O	1.235731	-0.219842	0.402392
O12	O	1.735731	0.280158	0.902392
O13	O	1.115568	-0.284069	0.191309
O14	O	1.615568	0.215931	0.691309
O15	O	1.024766	-0.135071	0.311428
O16	O	1.524766	0.364929	0.811428
O17	O	1.235652	-0.284070	0.311392
O18	O	1.735652	0.215930	0.811392
O19	O	1.115752	-0.135072	0.402413
O20	O	1.615752	0.364928	0.902413
O21	O	1.024662	-0.219840	0.191325
O22	O	1.524662	0.280160	0.691325
O23	O	0.904632	-0.219821	0.311357
O24	O	1.404632	0.280179	0.811357
O25	O	1.024676	-0.284039	0.522370
O26	O	1.524676	0.215961	1.022370
O27	O	0.904593	-0.284037	0.402287
O28	O	1.404593	0.215963	0.902287
O29	O	1.115701	-0.219824	0.522424
O30	O	1.615701	0.280176	1.022424
O31	O	1.115517	-0.368821	0.311320
O32	O	1.615517	0.131179	0.811320
O33	O	1.024572	-0.368808	0.402266
O34	O	1.524572	0.131192	0.902266
C35	C	0.877741	-0.251927	0.356817
C36	C	1.377741	0.248073	0.856817
C37	C	0.795427	-0.251933	0.356817
C38	C	1.295427	0.248067	0.856817
C39	C	1.070047	-0.387785	0.356799
C40	C	1.570047	0.112215	0.856799
C41	C	1.070070	-0.445899	0.356799
C42	C	1.570070	0.054101	0.856799
C43	C	0.644719	-0.251944	0.356850
C44	C	1.144719	0.248056	0.856850
C45	C	0.613365	-0.211484	0.299735
C46	C	1.113365	0.288516	0.799735
C47	C	0.527747	-0.211331	0.299922
C48	C	1.027747	0.288669	0.799922
C49	C	0.496336	-0.251955	0.356882
C50	C	0.996336	0.248045	0.856882
C51	C	0.527477	-0.237256	0.435020
C52	C	1.027477	0.262744	0.935020
C53	C	0.613122	-0.236957	0.434672
C54	C	1.113122	0.263043	0.934672
C55	C	0.613113	-0.307208	0.336516
C56	C	1.113113	0.192792	0.836516
C57	C	0.527461	-0.306917	0.334814
C58	C	1.027461	0.193083	0.834814
C59	C	0.412477	-0.251962	0.356904
C60	C	0.912477	0.248038	0.856904
C61	C	0.728578	-0.251936	0.356833
C62	C	1.228578	0.248064	0.856833
C63	C	1.117551	-0.806225	0.404318
C64	C	1.617551	-0.306225	0.904318
C65	C	1.117573	-0.860829	0.404333
C66	C	1.617573	-0.360829	0.904333
O67	O	1.157819	-0.889034	0.444676
O68	O	1.657819	-0.389034	0.944676
N69	N	1.070255	-0.888182	0.356928
N70	N	1.570255	-0.388182	0.856928
C71	C	1.022906	-0.860928	0.309511
C72	C	1.522906	-0.360928	0.809511
O73	O	0.982659	-0.889207	0.269192
O74	O	1.482659	-0.389207	0.769192
C75	C	1.022881	-0.806324	0.309500
C76	C	1.522881	-0.306324	0.809500
C77	C	1.070208	-0.778974	0.356903
C78	C	1.570208	-0.278974	0.856903
C79	C	1.164874	-0.778875	0.451717
C80	C	1.664874	-0.278875	0.951717
C81	C	1.164853	-0.724274	0.451701
C82	C	1.664853	-0.224274	0.951701
C83	C	1.117509	-0.697024	0.404286
C84	C	1.617509	-0.197024	0.904286
C85	C	1.070187	-0.724374	0.356886
C86	C	1.570187	-0.224374	0.856886
C87	C	0.975528	-0.779071	0.262087
C88	C	1.475528	-0.279071	0.762087
C89	C	0.975507	-0.724464	0.262081
C90	C	1.475507	-0.224464	0.762081
C91	C	1.022834	-0.697114	0.309483
C92	C	1.522834	-0.197114	0.809483
C93	C	1.022822	-0.642523	0.309455
C94	C	1.522822	-0.142523	0.809455
N95	N	1.070141	-0.615170	0.356859
N96	N	1.570141	-0.115170	0.856859
C97	C	1.117484	-0.642420	0.404275
C98	C	1.617484	-0.142420	0.904275
C99	C	1.022961	-0.975598	0.309538
C100	C	1.522961	-0.475598	0.809538
C101	C	1.022989	-1.030201	0.309545
C102	C	1.522989	-0.530201	0.809545
C103	C	1.117656	-1.030098	0.404368
C104	C	1.617656	-0.530098	0.904368
C105	C	1.117631	-0.975495	0.404357
C106	C	1.617631	-0.475495	0.904357
C107	C	1.070280	-0.948245	0.356943
C108	C	1.570280	-0.448245	0.856943
C109	C	1.117437	-0.527755	0.404237
C110	C	1.617437	-0.027755	0.904237
C111	C	1.117414	-0.473150	0.404214
C112	C	1.617414	0.026850	0.904214
C113	C	1.022745	-0.473257	0.309394
C114	C	1.522745	0.026743	0.809394
C115	C	1.022770	-0.527858	0.309414
C116	C	1.522770	-0.027858	0.809414
C117	C	1.070119	-0.555105	0.356841
C118	C	1.570119	-0.055105	0.856841
O119	O	0.982594	-0.614284	0.269135
O120	O	1.482594	-0.114284	0.769135
O121	O	1.157717	-0.614134	0.444594
O122	O	1.657717	-0.114134	0.944594
C123	C	1.263314	-0.251959	0.356898
C124	C	1.763314	0.248041	0.856898
C125	C	1.345628	-0.251965	0.356915
C126	C	1.845628	0.248035	0.856915
C127	C	1.070195	-0.251930	0.550019
C128	C	1.570195	0.248070	1.050019
C129	C	1.070213	-0.251924	0.632333
C130	C	1.570213	0.248076	1.132333
C131	C	1.070277	-0.115570	0.356931
C132	C	1.570277	0.384430	0.856931
C133	C	1.070330	-0.057456	0.356963
C134	C	1.570330	0.442544	0.856963
C135	C	1.070152	-0.251918	0.164446
C136	C	1.570152	0.248082	0.664446
C137	C	1.070277	-0.251777	0.082133
C138	C	1.570277	0.248223	0.582133
C139	C	1.070256	-0.251826	0.931424
C140	C	1.570256	0.248174	1.431424
C141	C	1.012789	-0.292099	0.900065
C142	C	1.512789	0.207901	1.400065
C143	C	1.012944	-0.292286	0.814446
C144	C	1.512944	0.207714	1.314446
C145	C	1.070234	-0.251875	0.783042
C146	C	1.570234	0.248125	1.283042
C147	C	1.148259	-0.266833	0.814145
C148	C	1.648259	0.233167	1.314145
C149	C	1.147939	-0.267097	0.899789
C150	C	1.647939	0.232903	1.399789
C151	C	1.050377	-0.196505	0.899861
C152	C	1.550377	0.303495	1.399861
C153	C	1.048641	-0.196824	0.814210
C154	C	1.548641	0.303176	1.314210
C155	C	1.070226	-0.251901	0.699182
C156	C	1.570226	0.248099	1.199182
C157	C	1.070269	-0.251801	1.015284
C158	C	1.570269	0.248199	1.515284
H159	H	0.633905	-0.220548	0.241613
H160	H	1.133905	0.279452	0.741613
H161	H	0.954756	-0.282835	0.920652
H162	H	1.454756	0.217165	1.420652
H163	H	0.506058	-0.197314	0.452509
H164	H	1.006058	0.302686	0.952509
O165	O	0.499850	-0.223479	0.223190
O166	O	0.999850	0.276521	0.723190
H167	H	0.438532	-0.223385	0.223248
H168	H	0.938532	0.276615	0.723248
O169	O	1.215910	-0.694777	0.502817
O170	O	1.715910	-0.194777	1.002817
H171	H	1.248831	-0.722907	0.535785
H172	H	1.748831	-0.222907	1.035785
O173	O	1.206507	-0.229204	0.787206
O174	O	1.706507	0.270796	1.287206
H175	H	1.248949	-0.250829	0.755287
H176	H	1.748949	0.249171	1.255287
O177	O	0.924480	-0.808563	0.210962
O178	O	1.424480	-0.308563	0.710962
H179	H	0.866349	-0.798109	0.223615
H180	H	1.366349	-0.298109	0.723615
O181	O	1.215945	-0.808262	0.502859
O182	O	1.715945	-0.308262	1.002859
H183	H	1.248845	-0.780062	0.535808
H184	H	1.748845	-0.280062	1.035808
O185	O	0.971683	-0.443861	0.258253
O186	O	1.471683	0.056139	0.758253
H187	H	0.933976	-0.418994	0.291360
H188	H	1.433976	0.081006	0.791360
O189	O	0.500498	-0.321611	0.258642
O190	O	1.000498	0.178389	0.758642
H191	H	0.465072	-0.289907	0.236587
H192	H	0.965072	0.210093	0.736587
O193	O	0.641908	-0.157546	0.317377
O194	O	1.141908	0.342454	0.817377
H195	H	0.678325	-0.159429	0.366651
H196	H	1.178325	0.340571	0.866651
O197	O	0.936308	-0.279872	0.786590
O198	O	1.436308	0.220128	1.286590
H199	H	0.896922	-0.309716	0.807133
H200	H	1.396922	0.190284	1.307133
H201	H	0.633386	-0.337350	0.378116
H202	H	1.133386	0.162650	0.878116
H203	H	1.164791	-0.307538	0.919764
H204	H	1.664791	0.192462	1.419764
H205	H	1.156168	-0.953230	0.442957
H206	H	1.656168	-0.453230	0.942957
O207	O	0.972586	-0.181881	0.787273
O208	O	1.472586	0.318119	1.287273
H209	H	0.935543	-0.175921	0.835388
H210	H	1.435543	0.324079	1.335388
H211	H	0.936945	-0.702280	0.223471
H212	H	1.436945	-0.202280	0.723471
O213	O	1.168712	-1.059499	0.455518
O214	O	1.668712	-0.559499	0.955518
H215	H	1.226842	-1.048999	0.442877
H216	H	1.726842	-0.548999	0.942877
O217	O	0.499147	-0.348968	0.385867
O218	O	0.999147	0.151032	0.885867
H219	H	0.462287	-0.331271	0.427958
H220	H	0.962287	0.168729	0.927958
H221	H	0.633128	-0.196567	0.451858
H222	H	1.133128	0.303433	0.951858
H223	H	0.633867	-0.265158	0.478702
H224	H	1.133867	0.234842	0.978702
H225	H	0.984458	-1.052464	0.270937
H226	H	1.484458	-0.552464	0.770937
H227	H	1.192207	-0.239037	0.920537
H228	H	1.692207	0.260963	1.420537
O229	O	0.500633	-0.157094	0.317808
O230	O	1.000633	0.342906	0.817808
H231	H	0.548694	-0.130873	0.326365
H232	H	1.048694	0.369127	0.826365
O233	O	1.029967	-0.346083	0.928593
O234	O	1.529967	0.153917	1.428593
H235	H	1.079262	-0.344355	0.965004
H236	H	1.579262	0.155645	1.465004
H237	H	0.507135	-0.265829	0.478755
H238	H	1.007135	0.234171	0.978755
H239	H	1.165403	-0.306844	0.792693
H240	H	1.665403	0.193156	1.292693
O241	O	0.976315	-0.178454	0.928438
O242	O	1.476315	0.321546	1.428438
H243	H	0.952846	-0.208714	0.965462
H244	H	1.452846	0.291286	1.465462
O245	O	1.100040	-0.154963	0.785907
O246	O	1.600040	0.345037	1.285907
H247	H	1.141969	-0.172821	0.749022
H248	H	1.641969	0.327179	1.249022
O249	O	1.030232	-0.346617	0.787292
O250	O	1.530232	0.153383	1.287292
H251	H	1.038538	-0.372856	0.835333
H252	H	1.538538	0.127144	1.335333
O253	O	1.105812	-0.156754	0.926728
O254	O	1.605812	0.343246	1.426728
H255	H	1.147324	-0.176269	0.962389
H256	H	1.647324	0.323731	1.462389
O257	O	0.641679	-0.324994	0.262306
O258	O	1.141679	0.175006	0.762306
H259	H	0.618606	-0.364043	0.249243
H260	H	1.118606	0.135957	0.749243
O261	O	1.168470	-0.443649	0.455334
O262	O	1.668470	0.056351	0.955334
H263	H	1.201391	-0.471775	0.488308
H264	H	1.701391	0.028225	0.988308
H265	H	0.984404	-0.953414	0.270922
H266	H	1.484404	-0.453414	0.770922
O267	O	1.168509	-0.557141	0.455384
O268	O	1.668509	-0.057141	0.955384
H269	H	1.201413	-0.528942	0.488331
H270	H	1.701413	-0.028942	0.988331
O271	O	0.971728	-0.557362	0.258287
O272	O	1.471728	-0.057362	0.758287
H273	H	0.938802	-0.529237	0.225316
H274	H	1.438802	-0.029237	0.725316
