data_functionalizedCrystal
_audit_creation_method	'MofGen! by Chris Wilmer'
_symmetry_space_group_name_H-M	'P1'
_symmetry_Int_Tables_number	1
_symmetry_cell_setting	triclinic
loop_
_symmetry_equiv_pos_as_xyz
  x,y,z
_cell_length_a	13.897448
_cell_length_b	13.897449
_cell_length_c	13.897441
_cell_angle_alpha	89.979267
_cell_angle_beta	90.030599
_cell_angle_gamma	89.981028
loop_
_atom_site_label
_atom_site_type_symbol
_atom_site_fract_x
_atom_site_fract_y
_atom_site_fract_z
Zn1	Zn	-0.383951	-1.474703	0.545381
Zn2	Zn	-0.133951	-1.224703	0.795381
Zn3	Zn	0.116049	-0.974703	1.045381
Zn4	Zn	0.366049	-0.724703	1.295381
Zn5	Zn	-0.545273	-1.474597	0.384083
Zn6	Zn	-0.295273	-1.224597	0.634083
Zn7	Zn	-0.045273	-0.974597	0.884083
Zn8	Zn	0.204727	-0.724597	1.134083
Zn9	Zn	-0.383997	-1.313392	0.384100
Zn10	Zn	-0.133997	-1.063392	0.634100
Zn11	Zn	0.116003	-0.813392	0.884100
Zn12	Zn	0.366003	-0.563392	1.134100
Zn13	Zn	-0.545210	-1.313373	0.545335
Zn14	Zn	-0.295210	-1.063373	0.795335
Zn15	Zn	-0.045210	-0.813373	1.045335
Zn16	Zn	0.204790	-0.563373	1.295335
O17	O	-0.464608	-1.394016	0.464725
O18	O	-0.214608	-1.144016	0.714725
O19	O	0.035392	-0.894016	0.964725
O20	O	0.285392	-0.644016	1.214725
O21	O	-0.405358	-1.609670	0.523997
O22	O	-0.155358	-1.359670	0.773997
O23	O	0.094642	-1.109670	1.023997
O24	O	0.344642	-0.859670	1.273997
O25	O	-0.523925	-1.453176	0.249103
O26	O	-0.273925	-1.203176	0.499103
O27	O	-0.023925	-0.953176	0.749103
O28	O	0.226075	-0.703176	0.999103
O29	O	-0.249009	-1.334842	0.405520
O30	O	0.000991	-1.084842	0.655520
O31	O	0.250991	-0.834842	0.905520
O32	O	0.500991	-0.584842	1.155520
O33	O	-0.523881	-1.609592	0.405491
O34	O	-0.273881	-1.359592	0.655491
O35	O	-0.023881	-1.109592	0.905491
O36	O	0.226119	-0.859592	1.155491
O37	O	-0.248976	-1.453356	0.524013
O38	O	0.001024	-1.203356	0.774013
O39	O	0.251024	-0.953356	1.024013
O40	O	0.501024	-0.703356	1.274013
O41	O	-0.405436	-1.334739	0.249116
O42	O	-0.155436	-1.084739	0.499116
O43	O	0.094564	-0.834739	0.749116
O44	O	0.344564	-0.584739	0.999116
O45	O	-0.405375	-1.178408	0.405476
O46	O	-0.155375	-0.928408	0.655476
O47	O	0.094625	-0.678408	0.905476
O48	O	0.344625	-0.428408	1.155476
O49	O	-0.523773	-1.334811	0.680323
O50	O	-0.273773	-1.084811	0.930323
O51	O	-0.023773	-0.834811	1.180323
O52	O	0.226227	-0.584811	1.430323
O53	O	-0.523817	-1.178394	0.523935
O54	O	-0.273817	-0.928394	0.773935
O55	O	-0.023817	-0.678394	1.023935
O56	O	0.226183	-0.428394	1.273935
O57	O	-0.405297	-1.453339	0.680357
O58	O	-0.155297	-1.203339	0.930357
O59	O	0.094703	-0.953339	1.180357
O60	O	0.344703	-0.703339	1.430357
O61	O	-0.680246	-1.453158	0.405447
O62	O	-0.430246	-1.203158	0.655447
O63	O	-0.180246	-0.953158	0.905447
O64	O	0.069754	-0.703158	1.155447
O65	O	-0.680200	-1.334708	0.523918
O66	O	-0.430200	-1.084708	0.773918
O67	O	-0.180200	-0.834708	1.023918
O68	O	0.069800	-0.584708	1.273918
C69	C	-0.464595	-1.143402	0.464703
C70	C	-0.214595	-0.893402	0.714703
C71	C	0.035405	-0.643402	0.964703
C72	C	0.285405	-0.393402	1.214703
C73	C	-0.464613	-1.036188	0.464716
C74	C	-0.214613	-0.786188	0.714716
C75	C	0.035387	-0.536188	0.964716
C76	C	0.285387	-0.286188	1.214716
C77	C	-0.464522	-1.394085	0.716318
C78	C	-0.214522	-1.144085	0.966318
C79	C	0.035478	-0.894085	1.216318
C80	C	0.285478	-0.644085	1.466318
C81	C	-0.464486	-1.394114	0.823532
C82	C	-0.214486	-1.144114	1.073532
C83	C	0.035514	-0.894114	1.323532
C84	C	0.285514	-0.644114	1.573532
C85	C	-0.715222	-1.393946	0.464697
C86	C	-0.465222	-1.143946	0.714697
C87	C	-0.215222	-0.893946	0.964697
C88	C	0.034778	-0.643946	1.214697
C89	C	-0.822436	-1.394004	0.464717
C90	C	-0.572436	-1.144004	0.714717
C91	C	-0.322436	-0.894004	0.964717
C92	C	-0.072436	-0.644004	1.214717
C93	C	-1.018731	-1.394105	0.464778
C94	C	-0.768731	-1.144105	0.714778
C95	C	-0.518731	-0.894105	0.964778
C96	C	-0.268731	-0.644105	1.214778
C97	C	-0.909499	-1.394046	0.464747
C98	C	-0.659499	-1.144046	0.714747
C99	C	-0.409499	-0.894046	0.964747
C100	C	-0.159499	-0.644046	1.214747
C101	C	-0.213015	-1.394113	0.464774
C102	C	0.036985	-1.144113	0.714774
C103	C	0.286985	-0.894113	0.964774
C104	C	0.536985	-0.644113	1.214774
C105	C	-0.105801	-1.394154	0.464795
C106	C	0.144199	-1.144154	0.714795
C107	C	0.394199	-0.894154	0.964795
C108	C	0.644199	-0.644154	1.214795
C109	C	-0.464621	-1.645609	0.464747
C110	C	-0.214621	-1.395609	0.714747
C111	C	0.035379	-1.145609	0.964747
C112	C	0.285379	-0.895609	1.214747
C113	C	-0.464627	-1.752823	0.464757
C114	C	-0.214627	-1.502823	0.714757
C115	C	0.035373	-1.252823	0.964757
C116	C	0.285373	-1.002823	1.214757
C117	C	-0.464616	-0.839893	0.464741
C118	C	-0.214616	-0.589893	0.714741
C119	C	0.035384	-0.339893	0.964741
C120	C	0.285384	-0.089893	1.214741
C121	C	-0.464611	-0.949125	0.464725
C122	C	-0.214611	-0.699125	0.714725
C123	C	0.035389	-0.449125	0.964725
C124	C	0.285389	-0.199125	1.214725
C125	C	-0.464623	-1.394003	0.214110
C126	C	-0.214623	-1.144003	0.464110
C127	C	0.035377	-0.894003	0.714110
C128	C	0.285377	-0.644003	0.964110
C129	C	-0.464388	-1.394161	0.106897
C130	C	-0.214388	-1.144161	0.356897
C131	C	0.035612	-0.894161	0.606897
C132	C	0.285612	-0.644161	0.856897
C133	C	-0.464421	-1.394140	1.019827
C134	C	-0.214421	-1.144140	1.269827
C135	C	0.035579	-0.894140	1.519827
C136	C	0.285579	-0.644140	1.769827
C137	C	-0.464460	-1.394122	0.910594
C138	C	-0.214460	-1.144122	1.160594
C139	C	0.035540	-0.894122	1.410594
C140	C	0.285540	-0.644122	1.660594
