data_functionalizedCrystal
_audit_creation_method	'MofGen! by Chris Wilmer'
_symmetry_space_group_name_H-M	'P1'
_symmetry_Int_Tables_number	1
_symmetry_cell_setting	triclinic
loop_
_symmetry_equiv_pos_as_xyz
  x,y,z
_cell_length_a	18.215407
_cell_length_b	13.031981
_cell_length_c	18.215399
_cell_angle_alpha	97.211043
_cell_angle_beta	90.019833
_cell_angle_gamma	97.192004
loop_
_atom_site_label
_atom_site_type_symbol
_atom_site_fract_x
_atom_site_fract_y
_atom_site_fract_z
Zn1	Zn	1.087918	-0.416110	0.378877
Zn2	Zn	1.421251	-0.082776	0.712211
Zn3	Zn	1.754585	0.250557	1.045544
Zn4	Zn	1.072220	-0.590902	0.240168
Zn5	Zn	1.405553	-0.257568	0.573502
Zn6	Zn	1.738886	0.075765	0.906835
Zn7	Zn	0.964848	-0.416144	0.255822
Zn8	Zn	1.298181	-0.082810	0.589155
Zn9	Zn	1.631514	0.250523	0.922488
Zn10	Zn	0.949215	-0.590844	0.363199
Zn11	Zn	1.282548	-0.257510	0.696532
Zn12	Zn	1.615881	0.075823	1.029865
O13	O	1.018550	-0.503500	0.309516
O14	O	1.351883	-0.170166	0.642850
O15	O	1.685217	0.163167	0.976183
O16	O	1.188819	-0.439306	0.360488
O17	O	1.522152	-0.105973	0.693821
O18	O	1.855486	0.227361	1.027155
O19	O	1.057949	-0.567758	0.139257
O20	O	1.391282	-0.234425	0.472590
O21	O	1.724616	0.098908	0.805924
O22	O	0.994285	-0.269876	0.285258
O23	O	1.327619	0.063458	0.618591
O24	O	1.660952	0.396791	0.951924
O25	O	1.177285	-0.567725	0.258579
O26	O	1.510619	-0.234392	0.591912
O27	O	1.843952	0.098941	0.925246
O28	O	1.084705	-0.269851	0.375666
O29	O	1.418038	0.063483	0.708999
O30	O	1.751371	0.396816	1.042333
O31	O	0.979063	-0.439364	0.150757
O32	O	1.312397	-0.106031	0.484091
O33	O	1.645730	0.227302	0.817424
O34	O	0.859791	-0.439308	0.270055
O35	O	1.193124	-0.105975	0.603388
O36	O	1.526457	0.227359	0.936721
O37	O	0.967642	-0.567626	0.468266
O38	O	1.300975	-0.234293	0.801599
O39	O	1.634308	0.099041	1.134933
O40	O	0.848305	-0.567659	0.348944
O41	O	1.181638	-0.234326	0.682277
O42	O	1.514972	0.099007	1.015611
O43	O	1.069546	-0.439250	0.479785
O44	O	1.402880	-0.105916	0.813119
O45	O	1.736213	0.227417	1.146452
O46	O	1.042790	-0.737158	0.243376
O47	O	1.376124	-0.403824	0.576709
O48	O	1.709457	-0.070491	0.910043
O49	O	0.952419	-0.737115	0.333766
O50	O	1.285753	-0.403781	0.667099
O51	O	1.619086	-0.070448	1.000432
C52	C	0.827345	-0.503482	0.309497
C53	C	1.160679	-0.170148	0.642830
C54	C	1.494012	0.163185	0.976164
C55	C	0.745545	-0.503499	0.309504
C56	C	1.078878	-0.170166	0.642837
C57	C	1.412212	0.163167	0.976170
C58	C	0.551380	-0.570437	0.350513
C59	C	0.884714	-0.237103	0.683846
C60	C	1.218047	0.096230	1.017180
C61	C	0.474521	-0.570440	0.350522
C62	C	0.807855	-0.237107	0.683855
C63	C	1.141188	0.096227	1.017189
C64	C	0.486470	-0.436581	0.268534
C65	C	0.819803	-0.103248	0.601868
C66	C	1.153137	0.230085	0.935201
C67	C	0.563328	-0.436574	0.268530
C68	C	0.896661	-0.103240	0.601863
C69	C	1.229995	0.230093	0.935197
C70	C	0.595781	-0.503507	0.309518
C71	C	0.929114	-0.170174	0.642851
C72	C	1.262447	0.163159	0.976184
C73	C	0.442064	-0.503518	0.309531
C74	C	0.775397	-0.170185	0.642864
C75	C	1.108730	0.163148	0.976198
C76	C	0.358730	-0.503521	0.309540
C77	C	0.692063	-0.170188	0.642874
C78	C	1.025396	0.163145	0.976207
C79	C	0.679120	-0.503503	0.309510
C80	C	1.012453	-0.170170	0.642843
C81	C	1.345787	0.163164	0.976176
C82	C	0.994225	-0.775061	0.285187
C83	C	1.327558	-0.441727	0.618520
C84	C	1.660892	-0.108394	0.951854
C85	C	0.983886	-0.891236	0.274803
C86	C	1.317219	-0.557902	0.608137
C87	C	1.650553	-0.224569	0.941470
C88	C	1.023985	-0.942934	0.314950
C89	C	1.357318	-0.609601	0.648284
C90	C	1.690652	-0.276268	0.981617
C91	C	1.013300	-1.063007	0.304219
C92	C	1.346634	-0.729674	0.637553
C93	C	1.679967	-0.396341	0.970886
C94	C	1.210501	-0.503518	0.309536
C95	C	1.543835	-0.170185	0.642870
C96	C	1.877168	0.163148	0.976203
C97	C	1.292299	-0.503526	0.309545
C98	C	1.625633	-0.170193	0.642878
C99	C	1.958966	0.163140	0.976212
C100	C	1.018601	-0.503428	0.501476
C101	C	1.351935	-0.170094	0.834809
C102	C	1.685268	0.163239	1.168143
C103	C	1.018623	-0.503397	0.583278
C104	C	1.351956	-0.170064	0.916611
C105	C	1.685290	0.163270	1.249944
C106	C	1.042990	-0.230878	0.333957
C107	C	1.376323	0.102455	0.667290
C108	C	1.709657	0.435788	1.000624
C109	C	1.053405	-0.114703	0.344372
C110	C	1.386738	0.218630	0.677705
C111	C	1.720072	0.551964	1.011039
C112	C	1.018548	-0.503496	0.118311
C113	C	1.351881	-0.170163	0.451644
C114	C	1.685215	0.163171	0.784977
C115	C	1.018695	-0.503232	0.036536
C116	C	1.352028	-0.169899	0.369869
C117	C	1.685362	0.163434	0.703202
C118	C	1.071707	-0.436489	0.777476
C119	C	1.405041	-0.103155	1.110810
C120	C	1.738374	0.230178	1.444143
C121	C	1.071719	-0.436458	0.854338
C122	C	1.405052	-0.103125	1.187671
C123	C	1.738386	0.230208	1.521005
C124	C	0.965605	-0.570143	0.842331
C125	C	1.298939	-0.236810	1.175665
C126	C	1.632272	0.096523	1.508998
C127	C	0.965591	-0.570168	0.765472
C128	C	1.298925	-0.236834	1.098805
C129	C	1.632258	0.096499	1.432138
C130	C	1.018646	-0.503342	0.733046
C131	C	1.351980	-0.170009	1.066379
C132	C	1.685313	0.163325	1.399713
C133	C	1.018672	-0.503287	0.886767
C134	C	1.352005	-0.169954	1.220100
C135	C	1.685339	0.163380	1.553434
C136	C	1.018684	-0.503255	0.970104
C137	C	1.352017	-0.169921	1.303437
C138	C	1.685351	0.163412	1.636770
C139	C	1.018634	-0.503373	0.649704
C140	C	1.351967	-0.170040	0.983038
C141	C	1.685300	0.163294	1.316371
H142	H	0.438374	-0.624939	0.383906
H143	H	0.771707	-0.291606	0.717239
H144	H	1.105040	0.041727	1.050572
H145	H	0.922411	-0.624553	0.868741
H146	H	1.255744	-0.291219	1.202075
H147	H	1.589078	0.042114	1.535408
H148	H	0.577801	-0.624936	0.383890
H149	H	0.911134	-0.291603	0.717223
H150	H	1.244468	0.041731	1.050557
H151	H	0.941642	-0.935868	0.232491
H152	H	1.274975	-0.602535	0.565825
H153	H	1.608308	-0.269201	0.899158
C154	C	1.110475	-1.054430	0.401542
C155	C	1.443808	-0.721097	0.734875
C156	C	1.777141	-0.387763	1.068208
H157	H	1.134243	-1.102438	0.425340
H158	H	1.467576	-0.769104	0.758674
H159	H	1.800909	-0.435771	1.092007
H160	H	1.146320	-1.011828	0.377201
H161	H	1.479653	-0.678494	0.710535
H162	H	1.812986	-0.345161	1.043868
H163	H	1.086062	-1.011851	0.437364
H164	H	1.419396	-0.678518	0.770697
H165	H	1.752729	-0.345184	1.104031
H166	H	1.066223	-0.898304	0.357269
H167	H	1.399557	-0.564971	0.690603
H168	H	1.732890	-0.231638	1.023936
H169	H	1.114907	-0.382072	0.751078
H170	H	1.448240	-0.048739	1.084412
H171	H	1.781573	0.284594	1.417745
H172	H	0.460037	-0.382088	0.235162
H173	H	0.793371	-0.048755	0.568496
H174	H	1.126704	0.284579	0.901829
C175	C	0.612171	-0.362949	0.223432
C176	C	0.945505	-0.029616	0.556765
C177	C	1.278838	0.303718	0.890098
H178	H	0.581836	-0.323097	0.199013
H179	H	0.915170	0.010236	0.532347
H180	H	1.248503	0.343569	0.865680
H181	H	0.646239	-0.317457	0.255709
H182	H	0.979573	0.015876	0.589043
H183	H	1.312906	0.349209	0.922376
H184	H	0.638564	-0.402880	0.187741
H185	H	0.971897	-0.069546	0.521074
H186	H	1.305230	0.263787	0.854407
C187	C	1.130089	-0.362925	0.903208
C188	C	1.463423	-0.029591	1.236541
C189	C	1.796756	0.303742	1.569874
H190	H	1.161686	-0.323138	0.872885
H191	H	1.495019	0.010195	1.206218
H192	H	1.828352	0.343529	1.539552
H193	H	1.106028	-0.317369	0.937270
H194	H	1.439362	0.015964	1.270603
H195	H	1.772695	0.349297	1.603936
H196	H	1.158577	-0.402908	0.929610
H197	H	1.491910	-0.069574	1.262943
H198	H	1.825244	0.263759	1.596277
H199	H	0.971053	-1.107636	0.261904
H200	H	1.304386	-0.774302	0.595238
H201	H	1.637720	-0.440969	0.928571
H202	H	0.922377	-0.624607	0.729295
H203	H	1.255711	-0.291273	1.062628
H204	H	1.589044	0.042060	1.395962
