data_functionalizedCrystal
_audit_creation_method	'MofGen! by Chris Wilmer'
_symmetry_space_group_name_H-M	'P1'
_symmetry_Int_Tables_number	1
_symmetry_cell_setting	triclinic
loop_
_symmetry_equiv_pos_as_xyz
  x,y,z
_cell_length_a	17.699083
_cell_length_b	11.026607
_cell_length_c	16.176319
_cell_angle_alpha	89.996049
_cell_angle_beta	89.998611
_cell_angle_gamma	95.934516
loop_
_atom_site_label
_atom_site_type_symbol
_atom_site_fract_x
_atom_site_fract_y
_atom_site_fract_z
O1	O	1.025155	0.153399	-0.068626
O2	O	0.807518	0.173357	-0.068652
O3	O	0.898299	-0.013222	-0.068638
O4	O	0.934374	0.339978	-0.068640
O5	O	0.898282	-0.013234	0.068855
O6	O	0.807501	0.173345	0.068841
O7	O	1.025137	0.153387	0.068867
Cu8	Cu	0.916317	0.163365	0.081408
Cu9	Cu	0.916338	0.163379	-0.081193
O10	O	0.934357	0.339966	0.068853
C11	C	0.779214	0.172636	0.000091
C12	C	0.694902	0.170490	0.000080
C13	C	0.661328	0.280008	0.000080
C14	C	0.582106	0.277985	0.000091
C15	C	0.536460	0.166443	0.000096
C16	C	0.570039	0.056917	0.000099
C17	C	0.649259	0.058941	0.000094
C18	C	0.250554	0.048751	0.000119
C19	C	0.171329	0.046735	0.000121
C20	C	0.183402	0.267794	0.000116
C21	C	0.262621	0.269819	0.000111
C22	C	0.296194	0.160293	0.000118
C23	C	0.382094	0.162488	0.000108
C24	C	0.450561	0.164247	0.000100
C25	C	0.891635	-0.058419	0.000106
C26	C	0.871796	-0.193075	0.000101
C27	C	0.926576	-0.267042	0.000107
C28	C	0.906072	-0.406216	0.000101
C29	C	1.053441	0.154108	0.000122
C30	C	1.137754	0.156254	0.000127
C31	C	0.941021	0.385163	0.000107
C32	C	0.960860	0.519819	0.000106
N33	N	0.916308	0.163354	0.195773
N34	N	0.916352	0.163380	-0.195559
C35	C	0.956526	0.080771	0.239044
C36	C	0.956530	0.080770	0.325591
C37	C	0.916320	0.163358	0.368866
C38	C	0.876097	0.245946	0.325590
C39	C	0.876089	0.245940	0.239044
C40	C	0.876126	0.245969	0.674618
C41	C	0.876138	0.245970	0.761169
C42	C	0.956566	0.080798	0.761165
C43	C	0.956559	0.080792	0.674619
C44	C	0.916333	0.163375	0.631350
C45	C	0.916328	0.163374	0.537506
C46	C	0.916328	0.163366	0.462709
H47	H	0.156058	0.356975	0.000115
H48	H	0.989274	0.013523	0.203815
C49	C	0.787932	-0.246705	0.000090
H50	H	0.785153	-0.333210	0.000093
H51	H	0.763457	-0.219991	-0.047858
H52	H	0.763448	-0.220010	0.048042
H53	H	0.843392	0.313226	0.796403
C54	C	0.312828	0.392514	0.000109
H55	H	0.281486	0.457451	0.000119
H56	H	0.343984	0.397907	-0.047837
H57	H	0.343980	0.397887	0.048062
H58	H	0.843339	0.313186	0.203814
C59	C	1.000778	-0.010061	0.373185
H60	H	1.024734	-0.059235	0.335017
H61	H	0.966693	-0.060508	0.406956
H62	H	1.038221	0.033533	0.406936
C63	C	1.000807	-0.010056	0.808759
H64	H	1.024759	-0.059234	0.770589
H65	H	0.966716	-0.060500	0.842527
H66	H	1.038253	0.033525	0.842513
H67	H	0.843990	-0.445918	0.000088
H68	H	0.843353	0.313187	0.360829
C69	C	0.287474	-0.071722	0.000121
H70	H	0.248941	-0.138439	0.000116
H71	H	0.318127	-0.075536	0.048067
H72	H	0.318126	-0.075527	-0.047833
C73	C	1.000787	-0.010058	0.627021
H74	H	1.024734	-0.059252	0.665187
H75	H	1.038223	0.033508	0.593249
H76	H	0.966680	-0.060503	0.593271
H77	H	0.988654	-0.227333	0.000119
H78	H	1.022943	-0.440480	0.000052
C79	C	0.686194	-0.061525	0.000093
H80	H	0.739912	-0.044345	0.000098
H81	H	0.670733	-0.107274	-0.047851
H82	H	0.670732	-0.107270	0.048049
C83	C	0.711532	0.402706	0.000074
H84	H	0.680187	0.467640	0.000083
H85	H	0.742686	0.408098	-0.047874
H86	H	0.742686	0.408086	0.048026
C87	C	0.545178	0.398454	0.000088
H88	H	0.583709	0.465174	0.000074
H89	H	0.514528	0.402263	0.048037
H90	H	0.514524	0.402259	-0.047863
H91	H	0.134166	-0.044102	0.000127
C92	C	0.519831	-0.065777	0.000103
H93	H	0.467842	-0.051299	0.000097
H94	H	0.530334	-0.110868	0.048049
H95	H	0.530336	-0.110853	-0.047851
C96	C	0.831887	0.336815	0.627033
H97	H	0.807950	0.386010	0.665203
H98	H	0.794443	0.293247	0.593279
H99	H	0.865985	0.387259	0.593265
