data_functionalizedCrystal
_audit_creation_method	'MofGen! by Chris Wilmer'
_symmetry_space_group_name_H-M	'P1'
_symmetry_Int_Tables_number	1
_symmetry_cell_setting	triclinic
loop_
_symmetry_equiv_pos_as_xyz
  x,y,z
_cell_length_a	18.215407
_cell_length_b	12.645330
_cell_length_c	18.215399
_cell_angle_alpha	90.025165
_cell_angle_beta	90.019833
_cell_angle_gamma	90.013094
loop_
_atom_site_label
_atom_site_type_symbol
_atom_site_fract_x
_atom_site_fract_y
_atom_site_fract_z
Zn1	Zn	1.125135	-0.422038	0.416130
Zn2	Zn	1.125069	-0.599320	0.293070
Zn3	Zn	1.002067	-0.422072	0.293077
Zn4	Zn	1.002059	-0.599261	0.416095
O5	O	1.063583	-0.510673	0.354593
O6	O	1.228110	-0.445565	0.399818
O7	O	1.108729	-0.575847	0.190087
O8	O	1.018423	-0.273720	0.309419
O9	O	1.228062	-0.575813	0.309406
O10	O	1.108840	-0.273695	0.399825
O11	O	1.018360	-0.445624	0.190092
O12	O	0.899082	-0.445566	0.309384
O13	O	1.018410	-0.575713	0.519084
O14	O	0.899076	-0.575746	0.399765
O15	O	1.108832	-0.445507	0.519110
O16	O	1.108721	-0.747659	0.309371
O17	O	1.018346	-0.747616	0.399757
C18	C	0.872376	-0.510654	0.354572
C19	C	0.790577	-0.510672	0.354580
C20	C	0.602400	-0.578563	0.401582
C21	C	0.525541	-0.578567	0.401591
C22	C	0.525517	-0.442801	0.307620
C23	C	0.602375	-0.442793	0.307615
C24	C	0.640814	-0.510680	0.354595
C25	C	0.487098	-0.510692	0.354609
C26	C	0.403764	-0.510695	0.354619
C27	C	0.724153	-0.510676	0.354587
C28	C	1.063546	-0.786102	0.354576
C29	C	1.063597	-0.903932	0.354593
C30	C	1.120361	-1.071479	0.297616
C31	C	1.120546	-0.948919	0.297755
C32	C	1.084628	-0.948318	0.432167
C33	C	1.085079	-1.070916	0.431865
C34	C	0.985781	-1.071260	0.334760
C35	C	0.986153	-0.948655	0.333020
C36	C	1.255535	-0.510692	0.354615
C37	C	1.337334	-0.510700	0.354624
C38	C	1.063627	-0.510599	0.546546
C39	C	1.063646	-0.510568	0.628345
C40	C	1.063640	-0.234167	0.354627
C41	C	1.063664	-0.116337	0.354641
C42	C	1.063580	-0.510669	0.163387
C43	C	1.063704	-0.510401	0.081588
C44	C	1.110747	-0.442707	0.816554
C45	C	1.110755	-0.442676	0.893413
C46	C	1.016598	-0.578266	0.893374
C47	C	1.016586	-0.578290	0.816517
C48	C	1.063665	-0.510513	0.778109
C49	C	1.063685	-0.510457	0.931825
C50	C	1.063695	-0.510424	1.015158
C51	C	1.063655	-0.510544	0.694770
H52	H	0.633695	-0.633839	0.439838
H53	H	0.966655	-1.102266	0.279178
Cl54	Cl	0.957422	-0.663473	0.941664
Cl55	Cl	1.169928	-0.357497	0.768272
Cl56	Cl	1.100307	-1.117109	0.208546
H57	H	0.633652	-0.387508	0.269352
H58	H	0.494268	-0.633842	0.439854
Cl59	Cl	1.022808	-0.903338	0.499525
H60	H	1.178231	-0.919511	0.310905
H61	H	0.978242	-0.633505	0.785214
Cl62	Cl	1.169953	-0.357440	0.941740
Cl63	Cl	1.100183	-0.902588	0.208959
H64	H	1.177737	-1.102210	0.310618
Cl65	Cl	0.477189	-0.357465	0.248561
H66	H	1.142007	-1.099429	0.448705
H67	H	1.045592	-1.100586	0.475817
H68	H	1.140914	-0.917530	0.449288
Cl69	Cl	0.961664	-0.903876	0.244883
Cl70	Cl	0.917411	-0.901396	0.392445
H71	H	0.943537	-1.100270	0.376294
