data_functionalizedCrystal
_audit_creation_method	'MofGen! by Chris Wilmer'
_symmetry_space_group_name_H-M	'P1'
_symmetry_Int_Tables_number	1
_symmetry_cell_setting	triclinic
loop_
_symmetry_equiv_pos_as_xyz
  x,y,z
_cell_length_a	18.101395
_cell_length_b	12.759401
_cell_length_c	12.759393
_cell_angle_alpha	90.020086
_cell_angle_beta	89.968265
_cell_angle_gamma	89.970687
loop_
_atom_site_label
_atom_site_type_symbol
_atom_site_fract_x
_atom_site_fract_y
_atom_site_fract_z
Zn1	Zn	-0.294834	-1.606142	-0.593996
Zn2	Zn	0.205166	-1.106142	-0.093996
Zn3	Zn	-0.418692	-1.605984	-0.418310
Zn4	Zn	0.081308	-1.105984	0.081690
Zn5	Zn	-0.294865	-1.430442	-0.418332
Zn6	Zn	0.205135	-0.930442	0.081668
Zn7	Zn	-0.418634	-1.430382	-0.593949
Zn8	Zn	0.081366	-0.930382	-0.093949
O9	O	-0.356756	-1.518237	-0.506147
O10	O	0.143244	-1.018237	-0.006147
O11	O	-0.311275	-1.753142	-0.570701
O12	O	0.188725	-1.253142	-0.070701
O13	O	-0.402303	-1.582657	-0.271292
O14	O	0.097697	-1.082657	0.228708
O15	O	-0.191228	-1.453840	-0.441663
O16	O	0.308772	-0.953840	0.058337
O17	O	-0.402273	-1.753026	-0.441626
O18	O	0.097727	-1.253026	0.058374
O19	O	-0.191205	-1.582926	-0.570723
O20	O	0.308795	-1.082926	-0.070723
O21	O	-0.311328	-1.453687	-0.271308
O22	O	0.188672	-0.953687	0.228692
O23	O	-0.311272	-1.283413	-0.441618
O24	O	0.188728	-0.783413	0.058382
O25	O	-0.402175	-1.453738	-0.740976
O26	O	0.097825	-0.953738	-0.240976
O27	O	-0.402205	-1.283369	-0.570642
O28	O	0.097795	-0.783369	-0.070642
O29	O	-0.311219	-1.582868	-0.741011
O30	O	0.188781	-1.082868	-0.241011
O31	O	-0.522317	-1.582599	-0.441580
O32	O	-0.022317	-1.082599	0.058420
O33	O	-0.522275	-1.453585	-0.570621
O34	O	-0.022275	-0.953585	-0.070621
C35	C	-0.356736	-1.245270	-0.506128
C36	C	0.143264	-0.745270	-0.006128
C37	C	-0.356745	-1.128493	-0.506144
C38	C	0.143255	-0.628493	-0.006144
C39	C	-0.309447	-1.073692	-0.573457
C40	C	0.190553	-0.573692	-0.073457
C41	C	-0.309451	-0.963968	-0.573462
C42	C	0.190549	-0.463968	-0.073462
C43	C	-0.404059	-0.963856	-0.438840
C44	C	0.095941	-0.463856	0.061160
C45	C	-0.404050	-1.073578	-0.438830
C46	C	0.095950	-0.573578	0.061170
C47	C	-0.549167	-1.518097	-0.506116
C48	C	-0.049167	-1.018097	-0.006116
C49	C	-0.631481	-1.518133	-0.506138
C50	C	-0.131481	-1.018133	-0.006138
C51	C	-0.930572	-1.518363	-0.506194
C52	C	-0.430572	-1.018363	-0.006194
C53	C	-0.899251	-1.437379	-0.587585
C54	C	-0.399251	-0.937379	-0.087585
C55	C	-0.813633	-1.436995	-0.587330
C56	C	-0.313633	-0.936995	-0.087330
C57	C	-0.782189	-1.518249	-0.506167
C58	C	-0.282189	-1.018249	-0.006167
C59	C	-0.813346	-1.488267	-0.395442
C60	C	-0.313346	-0.988267	0.104558
C61	C	-0.898991	-1.487745	-0.395929
C62	C	-0.398991	-0.987745	0.104071
C63	C	-0.898916	-1.629506	-0.534555
C64	C	-0.398916	-1.129506	-0.034555
C65	C	-0.813265	-1.628853	-0.536983
C66	C	-0.313265	-1.128853	-0.036983
C67	C	-0.698330	-1.518186	-0.506145
C68	C	-0.198330	-1.018186	-0.006145
C69	C	-1.014431	-1.518424	-0.506209
C70	C	-0.514431	-1.018424	-0.006209
C71	C	-0.163594	-1.518407	-0.506201
C72	C	0.336406	-1.018407	-0.006201
C73	C	-0.081280	-1.518479	-0.506224
C74	C	0.418720	-1.018479	-0.006224
C75	C	-0.356687	-1.518314	-0.780180
C76	C	0.143313	-1.018314	-0.280180
C77	C	-0.356658	-1.518346	-0.896957
C78	C	0.143342	-1.018346	-0.396957
C79	C	-0.356770	-0.792271	-0.506163
C80	C	0.143230	-0.292271	-0.006163
C81	C	-0.356759	-0.909047	-0.506159
C82	C	0.143241	-0.409047	-0.006159
C83	C	-0.403974	-1.585529	-1.061546
C84	C	0.096026	-1.085529	-0.561546
C85	C	-0.404009	-1.585503	-0.951822
C86	C	0.095991	-1.085503	-0.451822
C87	C	-0.309274	-1.451203	-0.951822
C88	C	0.190726	-0.951203	-0.451822
C89	C	-0.309244	-1.451224	-1.061544
C90	C	0.190756	-0.951224	-0.561544
C91	C	-0.356771	-1.518222	-0.233179
C92	C	0.143229	-1.018222	0.266821
C93	C	-0.356592	-1.518393	-0.116403
C94	C	0.143408	-1.018393	0.383597
H95	H	-0.442567	-1.118198	-0.384010
H96	H	0.057433	-0.618198	0.115990
H97	H	-0.270925	-1.118401	-0.628265
H98	H	0.229075	-0.618401	-0.128265
C99	C	-0.257134	-1.377358	-1.121896
C100	C	0.242866	-0.877358	-0.621896
H101	H	-0.263907	-1.386979	-1.195099
H102	H	0.236093	-0.886979	-0.695099
H103	H	-0.207377	-1.392755	-1.103940
H104	H	0.292623	-0.892755	-0.603940
H105	H	-0.267988	-1.306755	-1.103893
H106	H	0.232012	-0.806755	-0.603893
H107	H	-0.792898	-1.651462	-0.618471
H108	H	-0.292898	-1.151462	-0.118471
H109	H	-0.270724	-1.396518	-0.907142
H110	H	0.229276	-0.896518	-0.407142
H111	H	-0.920836	-1.355499	-0.569036
H112	H	-0.420836	-0.855499	-0.069036
H113	H	-0.792980	-1.545396	-0.333146
H114	H	-0.292980	-1.045396	0.166854
H115	H	-0.919794	-1.455952	-0.669953
H116	H	-0.419794	-0.955952	-0.169953
H117	H	-0.442574	-0.919130	-0.384036
H118	H	0.057426	-0.419130	0.115964
C119	C	-0.926204	-1.710993	-0.454405
C120	C	-0.426204	-1.210993	0.045595
H121	H	-0.956749	-1.677505	-0.403910
H122	H	-0.456749	-1.177505	0.096090
H123	H	-0.884975	-1.741961	-0.420325
H124	H	-0.384975	-1.241961	0.079675
H125	H	-0.953718	-1.763767	-0.489513
H126	H	-0.453718	-1.263767	0.010487
C127	C	-0.926993	-1.563961	-0.311214
C128	C	-0.426993	-1.063961	0.188786
H129	H	-0.979476	-1.564164	-0.310943
H130	H	-0.479476	-1.064164	0.189057
H131	H	-0.909401	-1.542181	-0.244549
H132	H	-0.409401	-1.042181	0.255451
H133	H	-0.909382	-1.632565	-0.325900
H134	H	-0.409382	-1.132565	0.174100
C135	C	-0.785167	-1.462298	-0.698248
C136	C	-0.285167	-0.962298	-0.198248
H137	H	-0.825946	-1.472904	-0.743870
H138	H	-0.325946	-0.972904	-0.243870
H139	H	-0.755865	-1.524043	-0.696110
H140	H	-0.255865	-1.024043	-0.196110
H141	H	-0.756141	-1.405529	-0.723206
H142	H	-0.256141	-0.905529	-0.223206
C143	C	-0.784470	-1.379669	-0.362407
C144	C	-0.284470	-0.879669	0.137593
H145	H	-0.753436	-1.352455	-0.415936
H146	H	-0.253436	-0.852455	0.084064
H147	H	-0.757140	-1.385950	-0.299183
H148	H	-0.257140	-0.885950	0.200817
H149	H	-0.825028	-1.333592	-0.351745
H150	H	-0.325028	-0.833592	0.148255
C151	C	-0.456127	-1.659350	-0.891478
C152	C	0.043873	-1.159350	-0.391478
H153	H	-0.449372	-1.649712	-0.818274
H154	H	0.050628	-1.149712	-0.318274
H155	H	-0.445290	-1.729955	-0.909471
H156	H	0.054710	-1.229955	-0.409471
H157	H	-0.505880	-1.643927	-0.909452
H158	H	-0.005880	-1.143927	-0.409452
H159	H	-0.919034	-1.406500	-0.371904
H160	H	-0.419034	-0.906500	0.128096
H161	H	-0.442529	-1.640221	-1.106209
H162	H	0.057471	-1.140221	-0.606209
H163	H	-0.793209	-1.354613	-0.568545
H164	H	-0.293209	-0.854613	-0.068545
C165	C	-0.257427	-0.903691	-0.647511
C166	C	0.242573	-0.403691	-0.147511
H167	H	-0.229258	-0.952115	-0.687602
H168	H	0.270742	-0.452115	-0.187602
H169	H	-0.225125	-0.860890	-0.607412
H170	H	0.274875	-0.360890	-0.107412
H171	H	-0.285805	-0.860894	-0.693222
H172	H	0.214195	-0.360894	-0.193222
H173	H	-0.920461	-1.656840	-0.613919
H174	H	-0.420461	-1.156840	-0.113919
H175	H	-0.791857	-1.692382	-0.482023
H176	H	-0.291857	-1.192382	0.017977
