data_functionalizedCrystal
_audit_creation_method	'MofGen! by Chris Wilmer'
_symmetry_space_group_name_H-M	'P1'
_symmetry_Int_Tables_number	1
_symmetry_cell_setting	triclinic
loop_
_symmetry_equiv_pos_as_xyz
  x,y,z
_cell_length_a	27.440280
_cell_length_b	21.606444
_cell_length_c	21.606444
_cell_angle_alpha	60.001331
_cell_angle_beta	90.005497
_cell_angle_gamma	59.997270
loop_
_atom_site_label
_atom_site_type_symbol
_atom_site_fract_x
_atom_site_fract_y
_atom_site_fract_z
Zr1	Zr	0.469493	0.677381	-0.081126
O2	O	0.391669	0.806515	-0.179961
O3	O	0.493351	0.548258	-0.050831
O4	O	0.493344	0.677382	-0.179949
O5	O	0.391679	0.677387	0.051011
O6	O	0.573547	0.677370	-0.179936
O7	O	0.391675	0.677391	-0.050843
O8	O	0.573558	0.446391	0.051033
O9	O	0.391668	0.908366	-0.179958
O10	O	0.563379	0.601355	-0.037897
O11	O	0.503528	0.601361	0.038106
O12	O	0.503520	0.753388	-0.113914
O13	O	0.443669	0.753393	-0.037911
Zr14	Zr	0.597413	0.677355	0.081340
Zr15	Zr	0.597407	0.677362	-0.081106
Zr16	Zr	0.469499	0.677374	0.081319
Zr17	Zr	0.469491	0.839821	-0.081121
Zr18	Zr	0.597415	0.514915	0.081335
O19	O	0.573555	0.806478	0.051044
O20	O	0.573546	0.806488	-0.179932
O21	O	0.391678	0.806505	0.051016
O22	O	0.675237	0.548221	0.180175
O23	O	0.675228	0.548231	-0.050802
O24	O	0.493360	0.548248	0.180146
O25	O	0.675227	0.677349	-0.050798
O26	O	0.573561	0.677354	0.180163
O27	O	0.493359	0.677366	0.180150
O28	O	0.675231	0.677345	0.051056
O29	O	0.493342	0.908351	-0.179942
O30	O	0.573563	0.446385	0.180155
O31	O	0.675238	0.446370	0.180172
O32	O	0.675233	0.446376	0.051049
O33	O	0.391673	0.908361	-0.050835
O34	O	0.493348	0.908345	-0.050819
O35	O	0.563385	0.601349	0.114128
O36	O	0.623237	0.601343	0.038125
O37	O	0.563378	0.753375	-0.037892
O38	O	0.503527	0.753381	0.038111
C39	C	0.533455	0.474180	0.000100
C40	C	0.533455	0.405220	0.000098
C41	C	0.564696	0.372819	-0.039576
C42	C	0.564698	0.308019	-0.039571
C43	C	0.533456	0.275626	0.000104
C44	C	0.502214	0.308029	0.039783
C45	C	0.502216	0.372823	0.039782
C46	C	0.502207	0.046720	0.039789
C47	C	0.502206	-0.018078	0.039786
C48	C	0.564689	-0.018084	-0.039563
C49	C	0.564691	0.046710	-0.039564
C50	C	0.533452	0.079104	0.000117
C51	C	0.533451	0.149367	0.000112
C52	C	0.533453	0.205369	0.000105
C53	C	0.373452	0.677392	0.000081
C54	C	0.319149	0.677400	0.000073
C55	C	0.013697	0.597994	0.039808
C56	C	-0.037322	0.597990	0.039815
O57	O	-0.037136	0.530497	0.073584
N58	N	-0.094084	0.677348	0.000134
C59	C	-0.099827	0.756716	-0.039550
O60	O	-0.152793	0.824217	-0.073301
C61	C	-0.048809	0.756720	-0.039552
C62	C	0.007952	0.677357	0.000125
C63	C	0.070456	0.518637	0.079483
C64	C	0.121471	0.518642	0.079475
C65	C	0.115726	0.598005	0.039792
C66	C	0.058967	0.677362	0.000117
C67	C	-0.054553	0.836088	-0.079231
C68	C	-0.003529	0.836085	-0.079229
C69	C	0.053233	0.756721	-0.039552
C70	C	0.104238	0.756729	-0.039574
N71	N	0.161000	0.677371	0.000107
C72	C	0.166744	0.598009	0.039790
C73	C	-0.206966	0.756702	-0.039542
C74	C	-0.257983	0.756699	-0.039545
C75	C	-0.195474	0.597972	0.039821
C76	C	-0.144456	0.597976	0.039819
C77	C	-0.150204	0.677344	0.000139
C78	C	0.273877	0.598025	0.039770
C79	C	0.324893	0.598038	0.039756
C80	C	0.262380	0.756764	-0.039607
C81	C	0.211367	0.756753	-0.039597
C82	C	0.217120	0.677376	0.000097
O83	O	0.104098	0.824187	-0.073323
O84	O	0.219712	0.530520	0.073543
C85	C	0.693454	0.677344	0.000132
C86	C	0.747757	0.677336	0.000141
C87	C	0.533445	0.677377	-0.203088
C88	C	0.533442	0.677380	-0.272050
C89	C	0.533451	0.880556	0.000113
C90	C	0.533451	0.949516	0.000116
C91	C	0.502196	0.756739	-0.344129
C92	C	0.502201	0.756736	-0.408924
C93	C	0.533449	0.677374	-0.401638
C94	C	0.564699	0.598009	-0.329552
C95	C	0.564697	0.598013	-0.264759
C96	C	0.564708	0.597994	-0.590855
C97	C	0.564707	0.597997	-0.655656
C98	C	0.502213	0.756718	-0.735020
C99	C	0.502211	0.756721	-0.670227
C100	C	0.533463	0.677357	-0.598146
C101	C	0.533458	0.677360	-0.527889
C102	C	0.533451	0.677370	-0.471894
C103	C	0.533461	0.677359	0.203301
C104	C	0.533464	0.677356	0.272264
C105	C	0.693456	0.474156	0.000126
C106	C	0.747759	0.405188	0.000132
C107	C	0.533463	0.474171	0.203295
C108	C	0.533466	0.405208	0.272255
C109	C	0.693464	0.474148	0.203320
C110	C	0.747770	0.405176	0.272289
C111	C	0.373442	0.880589	-0.203107
C112	C	0.319136	0.949560	-0.272075
C113	C	0.373450	0.880580	0.000088
C114	C	0.319147	0.949548	0.000082
C115	C	0.533443	0.880565	-0.203081
C116	C	0.533440	0.949528	-0.272041
C117	C	0.742016	0.372806	-0.039554
C118	C	0.793035	0.308012	-0.039564
C119	C	0.849797	0.275597	0.000119
C120	C	0.855539	0.307985	0.039806
C121	C	0.804521	0.372782	0.039811
C122	C	0.564713	0.372816	0.344329
C123	C	0.564713	0.308027	0.409131
C124	C	0.533471	0.275627	0.401857
C125	C	0.502220	0.308025	0.329775
C126	C	0.502217	0.372818	0.264975
C127	C	0.804520	0.372784	0.265005
C128	C	0.855551	0.307987	0.329802
C129	C	0.849832	0.275580	0.401883
C130	C	0.793076	0.307979	0.409166
C131	C	0.742046	0.372779	0.344369
C132	C	0.262386	0.981960	-0.264791
C133	C	0.211354	1.046777	-0.329588
C134	C	0.217074	1.079188	-0.401669
C135	C	0.273830	1.046785	-0.408952
C136	C	0.324860	0.981974	-0.344156
C137	C	0.324890	0.981937	0.039761
C138	C	0.273871	1.046749	0.039753
C139	C	0.217109	1.079166	0.000068
C140	C	0.211367	1.046775	-0.039617
C141	C	0.262385	0.981969	-0.039612
C142	C	0.564688	0.981908	-0.264743
C143	C	0.564697	1.046697	-0.329532
C144	C	0.533453	1.079110	-0.401619
C145	C	0.502203	1.046724	-0.408916
C146	C	0.502199	0.981932	-0.344127
H147	H	0.590128	-0.044469	-0.071872
N148	N	0.533479	0.205742	0.471751
H149	H	0.558018	0.190141	0.518511
H150	H	0.551249	0.152015	0.471720
H151	H	0.371067	0.955594	-0.350096
H152	H	-0.211654	0.821337	-0.071858
N153	N	0.162034	1.149087	-0.471557
H154	H	0.137478	1.202852	-0.471581
H155	H	0.137526	1.126458	-0.471542
N156	N	0.598432	0.273080	0.486868
H157	H	0.593696	0.227119	0.526820
H158	H	0.582034	0.322571	0.492863
H159	H	0.476759	0.821358	-0.467612
N160	N	0.256198	0.842354	-0.082399
H161	H	0.233664	0.877043	-0.061581
H162	H	0.233669	0.876992	-0.137900
H163	H	0.590154	0.533367	-0.649715
H164	H	0.590131	0.955527	-0.206052
N165	N	0.598398	0.512419	-0.187013
H166	H	0.629838	0.508883	-0.158361
H167	H	0.618155	0.462193	-0.192293
H168	H	0.901760	0.281614	0.323859
H169	H	0.476775	0.399205	0.072086
H170	H	0.590137	0.281639	-0.071876
H171	H	-0.100763	0.900714	-0.111540
H172	H	0.476773	0.073084	0.072104
H173	H	0.476764	-0.044451	0.072096
H174	H	0.257700	0.955600	-0.071922
N175	N	0.386109	0.946987	0.082557
H176	H	0.408677	0.881941	0.122493
H177	H	0.381948	0.977413	0.107637
H178	H	0.590143	1.073059	-0.323576
N179	N	0.810706	0.407718	0.187270
H180	H	0.833242	0.434601	0.181205
H181	H	0.769753	0.453650	0.147362
H182	H	0.695802	0.399198	-0.071878
H183	H	0.590145	0.533391	-0.323624
H184	H	0.165148	0.821377	-0.071915
H185	H	-0.304197	0.821325	-0.071864
H186	H	0.476784	0.281635	0.323864
H187	H	0.175571	1.131936	0.000070
H188	H	0.788427	0.281583	0.467863
N189	N	0.786834	0.273088	-0.082372
H190	H	0.743133	0.303453	-0.107501
H191	H	0.806645	0.208039	-0.045944
H192	H	0.891334	0.222834	0.000110
N193	N	0.468512	0.273100	0.082574
H194	H	0.484905	0.246212	0.138083
H195	H	0.473258	0.227173	0.076495
H196	H	0.590156	0.533371	-0.532172
H197	H	0.371111	0.533407	0.072068
H198	H	0.533461	1.131869	-0.454368
H199	H	0.476763	0.821346	-0.676166
N200	N	0.280084	0.512415	0.082582
H201	H	0.323786	0.462150	0.107710
H202	H	0.260275	0.508954	0.046153
N203	N	0.598383	0.081655	-0.082362
H204	H	0.618176	0.051295	-0.107494
H205	H	0.629796	0.070373	-0.045925
N206	N	0.916762	0.273020	0.082604
H207	H	0.948206	0.227056	0.076577
H208	H	0.921496	0.246172	0.138095
H209	H	0.278558	1.073111	0.072072
N210	N	0.468506	1.081688	-0.486668
H211	H	0.473252	1.127650	-0.526598
H212	H	0.424811	1.108540	-0.492682
H213	H	0.476750	0.955575	-0.350080
N214	N	0.279995	1.081746	-0.486698
H215	H	0.239053	1.127716	-0.526635
H216	H	0.302550	1.032262	-0.492705
N217	N	0.810720	0.407702	0.082621
H218	H	0.854421	0.377329	0.107758
H219	H	0.790919	0.396418	0.122514
N220	N	0.904870	0.205683	0.471772
H221	H	0.929427	0.228232	0.471802
H222	H	0.929379	0.151943	0.471755
N223	N	0.150142	1.081733	-0.082403
H224	H	0.145342	1.108627	-0.137915
H225	H	0.118739	1.127660	-0.076312
H226	H	0.695839	0.399144	0.350311
N227	N	0.598388	0.407762	-0.082375
H228	H	0.618180	0.377400	-0.107506
H229	H	0.629801	0.396481	-0.045940
N230	N	0.182689	0.433043	0.122267
H231	H	0.178577	0.382773	0.147404
H232	H	0.205226	0.429577	0.162159
H233	H	0.075144	0.454007	0.111801
N234	N	-0.083237	0.512378	0.082611
H235	H	-0.087346	0.462106	0.107746
H236	H	-0.060702	0.508913	0.122504
H237	H	0.257717	0.955575	-0.206105
N238	N	0.150148	1.081700	-0.321714
H239	H	0.127582	1.070433	-0.346836
H240	H	0.127626	1.146733	-0.346804
N241	N	0.598414	0.407752	0.352186
H242	H	0.618204	0.377395	0.407682
H243	H	0.569724	0.472802	0.327023
N244	N	0.468477	0.407797	0.187239
H245	H	0.448677	0.377450	0.192471
H246	H	0.497133	0.396545	0.158589
H247	H	-0.008216	0.900718	-0.111532
N248	N	-0.189287	0.512374	0.082623
H249	H	-0.209059	0.508841	0.122550
H250	H	-0.145578	0.462144	0.107714
N251	N	0.468494	0.842334	-0.351985
H252	H	0.424785	0.877037	-0.380619
H253	H	0.484931	0.876954	-0.380582
N254	N	0.468505	0.842321	-0.812766
H255	H	0.473248	0.830282	-0.852709
H256	H	0.484906	0.876977	-0.818763
