data_functionalizedCrystal
_audit_creation_method	'MofGen! by Chris Wilmer'
_symmetry_space_group_name_H-M	'P1'
_symmetry_Int_Tables_number	1
_symmetry_cell_setting	triclinic
loop_
_symmetry_equiv_pos_as_xyz
  x,y,z
_cell_length_a	19.121241
_cell_length_b	19.121063
_cell_length_c	18.101389
_cell_angle_alpha	87.580609
_cell_angle_beta	92.462998
_cell_angle_gamma	95.003121
loop_
_atom_site_label
_atom_site_type_symbol
_atom_site_fract_x
_atom_site_fract_y
_atom_site_fract_z
Zn1	Zn	1.063740	-0.234412	0.477195
Zn2	Zn	1.563740	0.265588	0.977195
Zn3	Zn	1.058629	-0.352065	0.358407
Zn4	Zn	1.558629	0.147935	0.858407
Zn5	Zn	0.946073	-0.239422	0.348290
Zn6	Zn	1.446073	0.260578	0.848290
Zn7	Zn	0.941015	-0.357051	0.477132
Zn8	Zn	1.441015	0.142949	0.977132
O9	O	1.002364	-0.295738	0.415256
O10	O	1.502364	0.204262	0.915256
O11	O	1.161527	-0.245835	0.465698
O12	O	1.661527	0.254165	0.965698
O13	O	1.043676	-0.337133	0.253432
O14	O	1.543676	0.162867	0.753432
O15	O	0.965937	-0.140291	0.361182
O16	O	1.465937	0.359709	0.861182
O17	O	1.157772	-0.332275	0.378425
O18	O	1.657772	0.167725	0.878425
O19	O	1.052386	-0.136610	0.455887
O20	O	1.552386	0.363390	0.955887
O21	O	0.960981	-0.254375	0.245999
O22	O	1.460981	0.245625	0.745999
O23	O	0.846936	-0.259210	0.361121
O24	O	1.346936	0.240790	0.861121
O25	O	0.957317	-0.340772	0.580773
O26	O	1.457317	0.159228	1.080773
O27	O	0.843220	-0.345631	0.455780
O28	O	1.343220	0.154369	0.955780
O29	O	1.047482	-0.250669	0.580820
O30	O	1.547482	0.249331	1.080820
O31	O	1.038771	-0.451193	0.378364
O32	O	1.538771	0.048807	0.878364
O33	O	0.952361	-0.454856	0.465590
O34	O	1.452361	0.045144	0.965590
C35	C	0.819547	-0.303506	0.407346
C36	C	1.319547	0.196494	0.907346
C37	C	0.741337	-0.306846	0.403981
C38	C	1.241337	0.193154	0.903981
C39	C	0.706546	-0.263482	0.447913
C40	C	1.206546	0.236518	0.947913
C41	C	0.633059	-0.266617	0.444744
C42	C	1.133059	0.233383	0.944744
C43	C	0.594364	-0.313120	0.397647
C44	C	1.094364	0.186880	0.897647
C45	C	0.629160	-0.356486	0.353709
C46	C	1.129160	0.143514	0.853709
C47	C	0.702645	-0.353347	0.356875
C48	C	1.202645	0.146653	0.856875
C49	C	0.372386	-0.324843	0.385809
C50	C	0.872386	0.175157	0.885809
C51	C	0.298895	-0.327980	0.382648
C52	C	0.798895	0.172020	0.882648
C53	C	0.302800	-0.238111	0.473683
C54	C	0.802800	0.261889	0.973683
C55	C	0.376287	-0.234979	0.476847
C56	C	0.876287	0.265021	0.976847
C57	C	0.411076	-0.278341	0.432907
C58	C	0.911076	0.221659	0.932907
C59	C	0.519248	-0.316327	0.394408
C60	C	1.019248	0.183673	0.894408
C61	C	0.486191	-0.275130	0.436142
C62	C	0.986191	0.224870	0.936142
C63	C	0.994482	-0.478555	0.423085
C64	C	1.494482	0.021445	0.923085
C65	C	0.991174	-0.556763	0.426462
C66	C	1.491174	-0.056763	0.926462
C67	C	1.034644	-0.591573	0.382675
C68	C	1.534644	-0.091573	0.882675
C69	C	1.031538	-0.665057	0.385856
C70	C	1.531538	-0.165057	0.885856
C71	C	0.984957	-0.703729	0.432819
C72	C	1.484957	-0.203729	0.932819
C73	C	0.941485	-0.668914	0.476611
C74	C	1.441485	-0.168914	0.976611
C75	C	0.944595	-0.595431	0.473434
C76	C	1.444595	-0.095431	0.973434
C77	C	0.973315	-0.925697	0.444686
C78	C	1.473315	-0.425697	0.944686
C79	C	0.970206	-0.999185	0.447858
C80	C	1.470206	-0.499185	0.947858
C81	C	1.060260	-0.995322	0.357103
C82	C	1.560260	-0.495322	0.857103
C83	C	1.063364	-0.921838	0.353927
C84	C	1.563364	-0.421838	0.853927
C85	C	1.019895	-0.887029	0.397721
C86	C	1.519895	-0.387029	0.897721
C87	C	0.981778	-0.778842	0.436070
C88	C	1.481778	-0.278842	0.936070
C89	C	1.023077	-0.811918	0.394474
C90	C	1.523077	-0.311918	0.894474
C91	C	1.185895	-0.287940	0.423197
C92	C	1.685895	0.212060	0.923197
C93	C	1.264105	-0.284617	0.426581
C94	C	1.764105	0.215383	0.926581
C95	C	1.002405	-0.295718	0.608419
C96	C	1.502405	0.204282	1.108419
C97	C	1.002423	-0.295710	0.690733
C98	C	1.502423	0.204290	1.190733
C99	C	1.010296	-0.112205	0.407413
C100	C	1.510296	0.387795	0.907413
C101	C	1.013676	-0.033995	0.404071
C102	C	1.513676	0.466005	0.904071
C103	C	1.002365	-0.295705	0.222844
C104	C	1.502365	0.204295	0.722844
C105	C	1.002493	-0.295509	0.140527
C106	C	1.502493	0.204491	0.640527
C107	C	1.002470	-0.295576	0.989821
C108	C	1.502470	0.204424	1.489821
C109	C	0.945560	-0.352101	0.958451
C110	C	1.445560	0.147899	1.458451
C111	C	0.945697	-0.352347	0.872850
C112	C	1.445697	0.147653	1.372850
C113	C	1.002446	-0.295642	0.841440
C114	C	1.502446	0.204358	1.341440
C115	C	1.075724	-0.312614	0.876603
C116	C	1.575724	0.187386	1.376603
C117	C	1.075404	-0.312983	0.962250
C118	C	1.575404	0.187017	1.462250
C119	C	0.986751	-0.221931	0.954231
C120	C	1.486751	0.278069	1.454231
C121	C	0.985083	-0.222431	0.868527
C122	C	1.485083	0.277569	1.368527
C123	C	1.002437	-0.295679	0.757582
C124	C	1.502437	0.204321	1.257582
C125	C	1.002483	-0.295542	1.073679
C126	C	1.502483	0.204458	1.573679
H127	H	0.738046	-0.225616	0.486267
H128	H	1.238046	0.274384	0.986267
Br129	Br	1.086296	-0.759432	0.330744
Br130	Br	1.586296	-0.259432	0.830744
Br131	Br	0.918564	-0.831333	0.499806
Br132	Br	1.418564	-0.331333	0.999806
Br133	Br	0.246380	-0.391116	0.318748
Br134	Br	0.746380	0.108884	0.818748
Br135	Br	1.099058	-0.401203	0.845894
Br136	Br	1.599058	0.098797	1.345894
H137	H	0.730971	-0.388658	0.321100
H138	H	1.230971	0.111342	0.821100
H139	H	0.407787	-0.197113	0.515202
H140	H	0.907787	0.302887	1.015202
Br141	Br	0.255582	-0.179264	0.533312
Br142	Br	0.755582	0.320736	1.033312
H143	H	0.909198	-0.567090	0.509091
H144	H	1.409198	-0.067090	1.009091
H145	H	0.517699	-0.237265	0.474486
H146	H	1.017699	0.262735	0.974486
Br147	Br	0.962607	-0.443428	0.843555
Br148	Br	1.462607	0.056572	1.343555
H149	H	1.072572	-0.560090	0.344429
H150	H	1.572572	-0.060090	0.844429
H151	H	0.597648	-0.394346	0.315358
H152	H	1.097648	0.105654	0.815358
Br153	Br	1.119255	-1.042566	0.297675
Br154	Br	1.619255	-0.542566	0.797675
Br155	Br	0.906973	-1.051670	0.511586
Br156	Br	1.406973	-0.551670	1.011586
H157	H	0.400703	-0.360153	0.350030
H158	H	0.900703	0.139847	0.850030
H159	H	0.890952	-0.341982	0.976127
H160	H	1.390952	0.158018	1.476127
Br161	Br	0.854965	-0.335249	0.832942
Br162	Br	1.354965	0.164751	1.332942
Br163	Br	0.878273	-0.721398	0.540356
Br164	Br	1.378273	-0.221398	1.040356
H165	H	1.028240	-0.179856	0.974482
H166	H	1.528240	0.320144	1.474482
Br167	Br	0.895223	-0.201006	0.829650
Br168	Br	1.395223	0.298994	1.329650
H169	H	0.604735	-0.231307	0.480520
H170	H	1.104735	0.268693	0.980520
H171	H	0.937919	-0.897361	0.480344
H172	H	1.437919	-0.397361	0.980344
H173	H	0.955571	-0.406423	0.982866
H174	H	1.455571	0.093577	1.482866
Br175	Br	0.466728	-0.379436	0.330491
Br176	Br	0.966728	0.120564	0.830491
H177	H	1.089100	-0.366725	0.985263
H178	H	1.589100	0.133275	1.485263
H179	H	0.934413	-0.205854	0.972741
H180	H	1.434413	0.294146	1.472741
Br181	Br	1.126592	-0.869358	0.290198
Br182	Br	1.626592	-0.369358	0.790198
Br183	Br	1.148147	-0.247014	0.997131
Br184	Br	1.648147	0.252986	1.497131
Br185	Br	1.049557	-0.148932	0.832496
Br186	Br	1.549557	0.351068	1.332496
H187	H	1.066935	-0.693396	0.350199
H188	H	1.566935	-0.193396	0.850199
Br189	Br	1.148069	-0.245920	0.842955
Br190	Br	1.648069	0.254080	1.342955
