data_functionalizedCrystal
_audit_creation_method	'MofGen! by Chris Wilmer'
_symmetry_space_group_name_H-M	'P1'
_symmetry_Int_Tables_number	1
_symmetry_cell_setting	triclinic
loop_
_symmetry_equiv_pos_as_xyz
  x,y,z
_cell_length_a	19.077068
_cell_length_b	12.759393
_cell_length_c	12.759401
_cell_angle_alpha	89.981425
_cell_angle_beta	92.327351
_cell_angle_gamma	92.261180
loop_
_atom_site_label
_atom_site_type_symbol
_atom_site_fract_x
_atom_site_fract_y
_atom_site_fract_z
Zn1	Zn	-0.280150	-0.610736	1.589361
Zn2	Zn	0.219850	-0.110736	2.089361
Zn3	Zn	-0.397866	-0.442095	1.582157
Zn4	Zn	0.102134	0.057905	2.082157
Zn5	Zn	-0.280188	-0.435078	1.413661
Zn6	Zn	0.219812	0.064922	1.913661
Zn7	Zn	-0.397812	-0.617733	1.406557
Zn8	Zn	0.102188	-0.117733	1.906557
O9	O	-0.339004	-0.526410	1.497934
O10	O	0.160996	-0.026410	1.997934
O11	O	-0.295772	-0.588374	1.735426
O12	O	0.204228	-0.088374	2.235426
O13	O	-0.382294	-0.294145	1.559764
O14	O	0.117706	0.205855	2.059764
O15	O	-0.181692	-0.452514	1.442956
O16	O	0.318308	0.047486	1.942956
O17	O	-0.382258	-0.464474	1.730133
O18	O	0.117742	0.035526	2.230133
O19	O	-0.181665	-0.581570	1.572042
O20	O	0.318335	-0.081570	2.072042
O21	O	-0.295836	-0.288990	1.435971
O22	O	0.204164	0.211010	1.935971
O23	O	-0.295784	-0.459298	1.265698
O24	O	0.204216	0.040702	1.765698
O25	O	-0.382166	-0.763824	1.430848
O26	O	0.117834	-0.263824	1.930848
O27	O	-0.382202	-0.593495	1.260478
O28	O	0.117798	-0.093495	1.760478
O29	O	-0.295720	-0.758683	1.565153
O30	O	0.204280	-0.258683	2.065153
O31	O	-0.496350	-0.471259	1.552875
O32	O	0.003650	0.028741	2.052875
O33	O	-0.496310	-0.600299	1.423862
O34	O	0.003690	-0.100299	1.923862
C35	C	-0.338992	-0.526395	1.224967
C36	C	0.161008	-0.026395	1.724967
C37	C	-0.339004	-0.526414	1.108190
C38	C	0.160996	-0.026414	1.608190
C39	C	-0.521867	-0.537323	1.486845
C40	C	-0.021867	-0.037323	1.986845
C41	C	-0.600097	-0.542026	1.482197
C42	C	-0.100097	-0.042026	1.982197
C43	C	-0.338933	-0.800440	1.498012
C44	C	0.161067	-0.300440	1.998012
C45	C	-0.338903	-0.917215	1.498045
C46	C	0.161097	-0.417215	1.998045
C47	C	-0.636847	-0.477107	1.547235
C48	C	-0.136847	0.022893	2.047235
C49	C	-0.710352	-0.481537	1.542870
C50	C	-0.210352	0.018463	2.042870
C51	C	-0.747106	-0.550882	1.473460
C52	C	-0.247106	-0.050882	1.973460
C53	C	-0.710351	-0.615808	1.408418
C54	C	-0.210351	-0.115808	1.908418
C55	C	-0.636847	-0.611382	1.412790
C56	C	-0.136847	-0.111382	1.912790
C57	C	-0.966939	-0.571321	1.453182
C58	C	-0.466939	-0.071321	1.953182
C59	C	-1.040447	-0.575739	1.448813
C60	C	-0.540447	-0.075739	1.948813
C61	C	-1.040443	-0.441469	1.583267
C62	C	-0.540443	0.058531	2.083267
C63	C	-0.966938	-0.437046	1.587627
C64	C	-0.466938	0.062954	2.087627
C65	C	-0.930190	-0.501975	1.522590
C66	C	-0.430190	-0.001975	2.022590
N67	N	-0.822240	-0.555409	1.468993
N68	N	-0.322240	-0.055409	1.968993
N69	N	-0.855057	-0.497452	1.527062
N70	N	-0.355057	0.002548	2.027062
C71	C	-0.155427	-0.515479	1.509095
C72	C	0.344573	-0.015479	2.009095
C73	C	-0.077197	-0.510820	1.513852
C74	C	0.422803	-0.010820	2.013852
C75	C	-0.293876	-0.969391	1.433610
C76	C	0.206124	-0.469391	1.933610
C77	C	-0.293854	-1.079114	1.433636
C78	C	0.206146	-0.579114	1.933636
C79	C	-0.383888	-1.084474	1.562540
C80	C	0.116112	-0.584474	2.062540
C81	C	-0.383913	-0.974754	1.562508
C82	C	0.116087	-0.474754	2.062508
C83	C	-0.339024	-0.253444	1.497920
C84	C	0.160976	0.246556	1.997920
C85	C	-0.338856	-0.136658	1.498103
C86	C	0.161144	0.363342	1.998103
C87	C	-0.294052	-0.591037	1.056080
C88	C	0.205948	-0.091037	1.556080
C89	C	-0.294059	-0.591045	0.946355
C90	C	0.205941	-0.091045	1.446355
C91	C	-0.383976	-0.461803	0.940861
C92	C	0.116024	0.038197	1.440861
C93	C	-0.383964	-0.461791	1.050583
C94	C	0.116036	0.038209	1.550583
C95	C	-0.339017	-0.526427	1.771967
C96	C	0.160983	-0.026427	2.271967
C97	C	-0.339022	-0.526434	1.888743
C98	C	0.160978	-0.026434	2.388743
H99	H	-0.606926	-0.420635	1.603752
H100	H	-0.106926	0.079365	2.103752
Br101	Br	-0.232756	-1.149922	1.346166
Br102	Br	0.267244	-0.649922	1.846166
H103	H	-0.420582	-0.932271	1.614981
H104	H	0.079418	-0.432271	2.114981
H105	H	-0.257440	-0.643654	1.102980
H106	H	0.242560	-0.143654	1.602980
Br107	Br	-0.232793	-0.891305	1.346123
Br108	Br	0.267207	-0.391305	1.846123
H109	H	-0.420570	-0.409162	1.093012
H110	H	0.079430	0.090838	1.593012
Br111	Br	-0.233048	-0.678747	0.875638
Br112	Br	0.266952	-0.178747	1.375638
Br113	Br	-0.444992	-0.374106	0.862674
Br114	Br	0.055008	0.125894	1.362674
H115	H	-0.740282	-0.672274	1.351908
H116	H	-0.240282	-0.172274	1.851908
Br117	Br	-0.444970	-1.162569	1.650022
Br118	Br	0.055030	-0.662569	2.150022
H119	H	-0.606926	-0.664248	1.359830
H120	H	-0.106926	-0.164248	1.859830
H121	H	-0.740270	-0.428673	1.595830
H122	H	-0.240270	0.071327	2.095830
H123	H	-1.070372	-0.388609	1.636218
H124	H	-0.570372	0.111391	2.136218
Br125	Br	-0.917062	-0.342945	1.681844
Br126	Br	-0.417062	0.157055	2.181844
H127	H	-0.937024	-0.624187	1.400224
H128	H	-0.437024	-0.124187	1.900224
Br129	Br	-1.090328	-0.669838	1.354589
Br130	Br	-0.590328	-0.169838	1.854589
