data_functionalizedCrystal
_audit_creation_method	'MofGen! by Chris Wilmer'
_symmetry_space_group_name_H-M	'P1'
_symmetry_Int_Tables_number	1
_symmetry_cell_setting	triclinic
loop_
_symmetry_equiv_pos_as_xyz
  x,y,z
_cell_length_a	10.489741
_cell_length_b	10.489741
_cell_length_c	9.565339
_cell_angle_alpha	90.000900
_cell_angle_beta	90.000516
_cell_angle_gamma	95.460826
loop_
_atom_site_label
_atom_site_type_symbol
_atom_site_fract_x
_atom_site_fract_y
_atom_site_fract_z
O1	O	0.179959	-1.694053	-0.116173
O2	O	0.196852	-1.322857	-0.116194
O3	O	0.002807	-1.516901	-0.116175
O4	O	0.374003	-1.500009	-0.116192
O5	O	0.002819	-1.516886	0.116345
O6	O	0.196864	-1.322842	0.116326
O7	O	0.179971	-1.694038	0.116347
Zn8	Zn	0.188419	-1.508437	0.153254
Zn9	Zn	0.188403	-1.508458	-0.153101
O10	O	0.374015	-1.499993	0.116328
C11	C	0.195582	-1.275318	0.000063
C12	C	0.191765	-1.133688	0.000055
C13	C	-0.044718	-1.515618	0.000084
C14	C	-0.186348	-1.511801	0.000082
C15	C	0.181241	-1.741577	0.000087
C16	C	0.185058	-1.883206	0.000086
C17	C	-0.254488	-1.388336	0.000064
C18	C	-0.346604	-1.446652	0.114712
C19	C	-0.346591	-1.446696	-0.114534
C20	C	-0.276599	-1.570168	0.114824
C21	C	-0.276576	-1.570195	-0.114525
C22	C	-0.368665	-1.628600	0.000150
C23	C	0.421541	-1.501277	0.000066
C24	C	0.563170	-1.505094	0.000059
N25	N	0.188429	-1.508433	0.362334
C26	C	0.068300	-1.065548	0.000074
C27	C	0.126617	-0.973429	-0.114571
C28	C	0.126659	-0.973448	0.114676
C29	C	0.250133	-1.043435	-0.114684
C30	C	0.250157	-1.043463	0.114665
C31	C	0.308564	-0.951371	-0.000007
N32	N	0.188383	-1.508472	-0.362180
C33	C	0.278138	-1.418666	0.453528
C34	C	0.303949	-1.534163	0.546712
C35	C	0.162629	-1.392986	0.546704
C36	C	0.214298	-1.623988	0.453466
C37	C	0.072928	-1.482735	0.453451
C38	C	0.098690	-1.598314	0.546593
H39	H	-0.377611	-1.394405	0.211633
H40	H	0.302360	-1.074503	0.211590
N41	N	0.003492	-1.693678	0.597523
N42	N	0.009754	-1.808854	0.567339
H43	H	-0.057475	-1.876209	0.603309
N44	N	-0.237903	-1.635619	0.236560
N45	N	-0.162152	-1.578881	0.321932
H46	H	-0.134819	-1.625100	0.407910
N47	N	-0.059033	-1.127862	-0.000041
N48	N	-0.095969	-1.200549	0.098428
H49	H	-0.185895	-1.244561	0.098344
N50	N	0.426463	-1.561458	0.598088
N51	N	0.524155	-1.488892	0.568273
H52	H	0.610686	-1.508161	0.604551
N53	N	0.436018	-0.889357	-0.000130
N54	N	0.472397	-0.815398	-0.097712
H55	H	0.562410	-0.771597	-0.097814
H56	H	-0.418089	-1.730204	0.000220
H57	H	0.074372	-0.942421	-0.211491
H58	H	-0.377560	-1.394447	-0.211470
N59	N	0.061090	-0.934580	0.236256
N60	N	-0.053174	-0.975711	0.256654
H61	H	-0.099492	-0.948264	0.342514
N62	N	-0.049546	-1.455380	0.402032
N63	N	-0.092272	-1.351505	0.431852
H64	H	-0.178770	-1.332173	0.395538
N65	N	0.373374	-1.323522	0.402224
N66	N	0.341375	-1.234158	0.327481
H67	H	0.408636	-1.166967	0.291244
N68	N	0.135296	-1.270485	0.598091
N69	N	0.207831	-1.172772	0.568275
H70	H	0.188540	-1.086253	0.604566
N71	N	0.315637	-1.082122	-0.236388
N72	N	0.329117	-1.197876	-0.256057
H73	H	0.375386	-1.225203	-0.342004
N74	N	0.241784	-1.746513	0.402294
N75	N	0.246281	-1.766257	0.273595
H76	H	0.265695	-1.852787	0.237450
H77	H	-0.204837	-1.286824	0.000174
H78	H	-0.245536	-1.622398	-0.211451
