data_functionalizedCrystal
_audit_creation_method	'MofGen! by Chris Wilmer'
_symmetry_space_group_name_H-M	'P1'
_symmetry_Int_Tables_number	1
_symmetry_cell_setting	triclinic
loop_
_symmetry_equiv_pos_as_xyz
  x,y,z
_cell_length_a	15.712078
_cell_length_b	15.625325
_cell_length_c	11.295471
_cell_angle_alpha	67.881839
_cell_angle_beta	95.341168
_cell_angle_gamma	101.032154
loop_
_atom_site_label
_atom_site_type_symbol
_atom_site_fract_x
_atom_site_fract_y
_atom_site_fract_z
O1	O	1.140655	0.499436	-0.116377
O2	O	0.890688	0.429519	-0.086242
O3	O	1.025730	0.333083	-0.044571
O4	O	1.005612	0.595871	-0.158047
O5	O	1.013861	0.341524	-0.246270
O6	O	0.878819	0.437960	-0.287941
O7	O	1.128786	0.507877	-0.318075
Cu8	Cu	1.002719	0.473689	-0.321424
Cu9	Cu	1.016755	0.463706	-0.082893
O10	O	0.993743	0.604312	-0.359746
C11	C	0.852826	0.422317	-0.182166
C12	C	0.757694	0.388271	-0.167486
C13	C	0.383607	0.677330	-0.292224
C14	C	0.294222	0.645316	-0.278371
C15	C	0.318720	0.484907	-0.209101
C16	C	0.408109	0.516908	-0.222943
C17	C	0.440545	0.613120	-0.264506
C18	C	0.465048	0.452698	-0.195225
C19	C	0.554429	0.484696	-0.209073
C20	C	0.586872	0.580905	-0.250638
C21	C	0.529926	0.645119	-0.278354
C22	C	0.432609	0.356486	-0.153670
C23	C	0.489548	0.292276	-0.125952
C24	C	0.578931	0.324274	-0.139791
C25	C	0.611374	0.420483	-0.181357
C26	C	0.635877	0.260060	-0.112075
C27	C	0.725258	0.292059	-0.125923
C28	C	0.700755	0.452481	-0.195204
C29	C	1.020060	0.302893	-0.130559
C30	C	1.020836	0.200358	-0.086277
C31	C	0.991065	-0.113852	-0.490388
C32	C	0.991800	-0.210200	-0.448758
C33	C	1.004739	-0.219392	-0.228879
C34	C	1.004001	-0.123044	-0.270490
C35	C	0.997165	-0.070281	-0.401246
C36	C	1.010101	-0.079473	-0.181348
C37	C	1.009367	0.016868	-0.222957
C38	C	1.002534	0.069637	-0.353708
C39	C	0.996432	0.026059	-0.442855
C40	C	1.016943	-0.132236	-0.050593
C41	C	1.023042	-0.088665	0.038549
C42	C	1.022303	0.007676	-0.003059
C43	C	1.015470	0.060446	-0.133810
C44	C	1.028406	0.051255	0.086088
C45	C	1.027672	0.147595	0.044479
C46	C	1.014737	0.156787	-0.175419
C47	C	1.166647	0.515078	-0.222148
C48	C	1.261780	0.549124	-0.236820
C49	C	0.999414	0.634502	-0.273755
C50	C	0.998638	0.737037	-0.318029
N51	N	0.992853	0.480712	-0.489196
C52	C	0.921880	0.531376	-0.698111
C53	C	0.929321	0.526050	-0.571145
C54	C	1.048946	0.440694	-0.534218
C55	C	1.041505	0.446021	-0.661184
C56	C	0.977971	0.491364	-0.743127
C57	C	0.970535	0.496696	-0.870097
C58	C	1.090155	0.411335	-0.833165
C59	C	1.097596	0.406009	-0.706200
N60	N	1.026628	0.456679	0.084881
H61	H	0.556337	0.723465	-0.312201
H62	H	1.149322	0.369087	-0.639466
H63	H	1.135830	0.378758	-0.869832
H64	H	0.727166	0.530827	-0.229051
C65	C	0.185615	0.698070	-0.199312
C66	C	0.231628	0.715899	-0.308837
H67	H	0.146969	0.741639	-0.218128
H68	H	0.225150	0.704292	-0.132958
H69	H	0.153509	0.636188	-0.172587
H70	H	0.263739	0.777778	-0.335557
H71	H	0.192087	0.709685	-0.375213
H72	H	0.985470	-0.070895	-0.596860
C73	C	0.623109	0.117803	-0.152451
C74	C	0.600215	0.154306	-0.066397
H75	H	0.601089	0.052515	-0.124253
H76	H	0.684484	0.127668	-0.156714
H77	H	0.599268	0.148461	-0.234745
H78	H	0.624062	0.123653	0.015895
H79	H	0.538828	0.144434	-0.062120
H80	H	0.410017	0.755676	-0.326071
C81	C	0.727709	0.578759	-0.147928
C82	C	0.685121	0.616088	-0.265855
H83	H	0.788363	0.600486	-0.157323
H84	H	0.716546	0.512280	-0.119224
H85	H	0.707110	0.598211	-0.087267
H86	H	0.705716	0.596631	-0.326515
H87	H	0.696290	0.682582	-0.294576
H88	H	1.010308	-0.262363	-0.122417
H89	H	0.883645	0.558630	-0.534497
C90	C	0.192584	0.364623	-0.157105
C91	C	0.283061	0.379152	-0.163409
H92	H	0.170574	0.299333	-0.128886
H93	H	0.168751	0.395262	-0.239398
H94	H	0.177068	0.389408	-0.098738
H95	H	0.298576	0.354373	-0.221783
H96	H	0.306903	0.348501	-0.081104
H97	H	1.017542	-0.210682	-0.016719
C98	C	1.035282	-0.100510	0.247506
C99	C	1.035923	-0.006749	0.229811
H100	H	1.039918	-0.136317	0.336237
H101	H	1.082878	-0.104480	0.204882
H102	H	0.982608	-0.124325	0.213417
H103	H	1.088600	0.017068	0.263892
H104	H	0.988324	-0.002774	0.272452
H105	H	0.359828	0.330436	-0.142412
C106	C	0.363412	0.171992	-0.073957
C107	C	0.453889	0.186521	-0.080260
H108	H	0.341402	0.106701	-0.045738
H109	H	0.339579	0.202631	-0.156250
H110	H	0.347896	0.196777	-0.015590
H111	H	0.469404	0.161742	-0.138635
H112	H	0.477731	0.155870	0.002045
H113	H	1.032639	0.183071	0.117068
C114	C	0.929544	0.179666	-0.369339
C115	C	1.007197	0.214797	-0.319145
H116	H	0.924888	0.215479	-0.458065
H117	H	0.881967	0.183638	-0.326681
H118	H	0.929121	0.116058	-0.357330
H119	H	1.007617	0.278404	-0.331146
H120	H	1.054786	0.210834	-0.361816
C121	C	0.907096	-0.246668	-0.617081
C122	C	0.985093	-0.258104	-0.546743
H123	H	0.902958	-0.276249	-0.677562
H124	H	0.905687	-0.181747	-0.660578
H125	H	0.859745	-0.274267	-0.560804
H126	H	1.032445	-0.230499	-0.603019
H127	H	0.986510	-0.323037	-0.503244
C128	C	1.166437	0.356847	-0.510450
C129	C	1.118773	0.390848	-0.444132
H130	H	1.209542	0.326069	-0.454830
H131	H	1.193453	0.407619	-0.580963
H132	H	1.128642	0.313782	-0.540516
H133	H	1.156567	0.433919	-0.414074
H134	H	1.091757	0.340069	-0.373596
H135	H	0.870154	0.568305	-0.764834
H136	H	0.771619	0.239772	-0.103349
H137	H	1.001941	0.148085	-0.387584
H138	H	0.990836	0.069016	-0.549327
H139	H	1.028612	-0.131636	0.145011
H140	H	0.918804	0.533620	-0.936816
