data_functionalizedCrystal
_audit_creation_method	'MofGen! by Chris Wilmer'
_symmetry_space_group_name_H-M	'P1'
_symmetry_Int_Tables_number	1
_symmetry_cell_setting	triclinic
loop_
_symmetry_equiv_pos_as_xyz
  x,y,z
_cell_length_a	10.654550
_cell_length_b	9.065218
_cell_length_c	8.140239
_cell_angle_alpha	90.002802
_cell_angle_beta	89.996625
_cell_angle_gamma	95.249592
loop_
_atom_site_label
_atom_site_type_symbol
_atom_site_fract_x
_atom_site_fract_y
_atom_site_fract_z
O1	O	0.184157	-1.959391	-0.136617
O2	O	0.199263	-1.530024	-0.136620
O3	O	0.009010	-1.754580	-0.136608
O4	O	0.374410	-1.734836	-0.136629
O5	O	0.009008	-1.754567	0.136619
O6	O	0.199261	-1.530011	0.136607
O7	O	0.184155	-1.959379	0.136610
Zn8	Zn	0.191708	-1.744693	0.179989
Zn9	Zn	0.191711	-1.744710	-0.179999
O10	O	0.374408	-1.734823	0.136598
C11	C	0.197810	-1.475039	-0.000006
C12	C	0.193469	-1.311220	-0.000007
C13	C	-0.037795	-1.753124	0.000005
C14	C	-0.177255	-1.748786	0.000002
C15	C	0.185608	-2.014364	-0.000007
C16	C	0.189949	-2.178183	-0.000017
C17	C	-0.256217	-1.881001	0.000002
C18	C	-0.387254	-1.876917	-0.000018
C19	C	-0.360354	-1.608391	-0.000031
C20	C	-0.229320	-1.612477	-0.000023
C21	C	-0.582482	-2.032639	-0.095750
C22	C	-0.661449	-2.164861	-0.095722
C23	C	-0.630803	-2.284719	0.000029
C24	C	-0.521192	-2.272361	0.095790
C25	C	-0.442232	-2.140137	0.095777
C26	C	-0.472876	-2.020284	-0.000012
C27	C	-0.034091	-1.456765	0.095723
C28	C	0.044872	-1.324539	0.095721
C29	C	0.014230	-1.204668	-0.000020
C30	C	-0.095383	-1.217011	-0.095757
C31	C	-0.174347	-1.349237	-0.095755
C32	C	-0.143695	-1.469109	-0.000018
C33	C	0.421213	-1.736279	-0.000018
C34	C	0.560673	-1.740616	-0.000026
N35	N	0.191705	-1.744693	0.425672
N36	N	0.191704	-1.744722	-0.425682
H37	H	-0.213831	-1.991993	0.000019
Br38	Br	0.007509	-1.619457	0.225652
H39	H	-0.120351	-1.119389	-0.173682
Br40	Br	0.193611	-1.307768	0.225699
Br41	Br	-0.810201	-2.181631	-0.225677
H42	H	-0.263590	-1.359287	-0.173733
H43	H	0.078524	-1.096996	0.000009
H44	H	-0.607436	-1.935055	-0.173741
Br45	Br	-0.431022	-1.423409	-0.000070
H46	H	-0.496258	-2.369961	0.173771
H47	H	-0.352992	-2.130073	0.173750
H48	H	-0.695107	-2.392377	0.000049
