data_functionalizedCrystal
_audit_creation_method	'MofGen! by Chris Wilmer'
_symmetry_space_group_name_H-M	'P1'
_symmetry_Int_Tables_number	1
_symmetry_cell_setting	triclinic
loop_
_symmetry_equiv_pos_as_xyz
  x,y,z
_cell_length_a	17.699077
_cell_length_b	8.559649
_cell_length_c	16.776229
_cell_angle_alpha	89.994739
_cell_angle_beta	89.993415
_cell_angle_gamma	76.529620
loop_
_atom_site_label
_atom_site_type_symbol
_atom_site_fract_x
_atom_site_fract_y
_atom_site_fract_z
O1	O	0.992512	0.202065	-0.066274
O2	O	1.492512	0.702065	0.433726
O3	O	0.770627	0.228370	-0.066277
O4	O	1.270627	0.728370	0.433723
O5	O	0.901118	-0.017462	-0.066275
O6	O	1.401118	0.482538	0.433725
O7	O	0.862021	0.447896	-0.066277
O8	O	1.362021	0.947896	0.433723
O9	O	0.901103	-0.017477	0.066302
O10	O	1.401103	0.482523	0.566302
O11	O	0.770612	0.228355	0.066299
O12	O	1.270612	0.728355	0.566299
O13	O	0.992498	0.202050	0.066303
O14	O	1.492498	0.702050	0.566303
Zn15	Zn	0.881553	0.215200	0.087350
Zn16	Zn	1.381553	0.715200	0.587350
Zn17	Zn	0.881572	0.215220	-0.087325
Zn18	Zn	1.381572	0.715220	0.412675
O19	O	0.862007	0.447881	0.066300
O20	O	1.362007	0.947881	0.566300
C21	C	0.742477	0.227421	0.000010
C22	C	1.242477	0.727421	0.500010
C23	C	0.658620	0.224598	0.000009
C24	C	1.158620	0.724598	0.500009
C25	C	0.619221	0.223260	0.072277
C26	C	1.119221	0.723260	0.572277
C27	C	0.540431	0.220582	0.072278
C28	C	1.040431	0.720582	0.572278
C29	C	0.501042	0.219254	0.000010
C30	C	1.001042	0.719254	0.500010
C31	C	0.540447	0.220588	-0.072264
C32	C	1.040447	0.720588	0.427736
C33	C	0.619236	0.223254	-0.072264
C34	C	1.119236	0.723254	0.427736
C35	C	0.222699	0.209832	-0.072266
C36	C	0.722699	0.709832	0.427734
C37	C	0.143904	0.207171	-0.072260
C38	C	0.643904	0.707171	0.427740
C39	C	0.143895	0.207160	0.072277
C40	C	0.643895	0.707160	0.572277
C41	C	0.222684	0.209827	0.072277
C42	C	0.722684	0.709827	0.572277
C43	C	0.262083	0.211152	0.000003
C44	C	0.762083	0.711152	0.500003
C45	C	0.347516	0.214052	0.000003
C46	C	0.847516	0.714052	0.500003
C47	C	0.415609	0.216365	0.000009
C48	C	0.915609	0.716365	0.500009
C49	C	0.904073	-0.077011	0.000012
C50	C	1.404073	0.422989	0.500012
C51	C	0.912893	-0.254425	0.000008
C52	C	1.412893	0.245575	0.500008
C53	C	1.020648	0.202998	0.000013
C54	C	1.520648	0.702998	0.500013
C55	C	1.104505	0.205821	0.000009
C56	C	1.604505	0.705821	0.500009
C57	C	0.859051	0.507430	0.000011
C58	C	1.359051	1.007430	0.500011
C59	C	0.850232	0.684845	0.000010
C60	C	1.350232	1.184845	0.500010
N61	N	0.881545	0.215185	0.206561
N62	N	1.381545	0.715185	0.706561
N63	N	0.881586	0.215221	-0.206536
N64	N	1.381586	0.715221	0.293464
C65	C	0.939340	0.106376	0.248280
C66	C	1.439340	0.606376	0.748280
C67	C	0.939344	0.106374	0.331732
C68	C	1.439344	0.606374	0.831732
C69	C	0.881556	0.215191	0.373464
C70	C	1.381556	0.715191	0.873464
C71	C	0.823756	0.324006	0.331740
C72	C	1.323756	0.824006	0.831740
C73	C	0.823749	0.323998	0.248289
C74	C	1.323749	0.823998	0.748289
C75	C	0.823782	0.324037	0.668287
C76	C	1.323782	0.824037	1.168287
C77	C	0.823794	0.324040	0.751744
C78	C	1.323794	0.824040	1.251744
C79	C	0.939376	0.106413	0.751730
C80	C	1.439376	0.606413	1.251730
C81	C	0.939369	0.106406	0.668279
C82	C	1.439369	0.606406	1.168279
C83	C	0.881567	0.215214	0.626562
C84	C	1.381567	0.715214	1.126562
C85	C	0.881563	0.215212	0.536074
C86	C	1.381563	0.715212	1.036074
C87	C	0.881564	0.215202	0.463951
C88	C	1.381564	0.715202	0.963951
H89	H	0.254769	0.210906	-0.131115
H90	H	0.754769	0.710906	0.368885
H91	H	0.651313	0.224347	-0.131112
H92	H	1.151313	0.724347	0.368888
H93	H	0.776734	0.412655	0.785721
H94	H	1.276734	0.912655	1.285721
Br95	Br	1.013562	-0.393990	0.000024
Br96	Br	1.513562	0.106010	0.500024
H97	H	0.986400	0.017771	0.214307
H98	H	1.486400	0.517771	0.714307
Br99	Br	1.017778	-0.041303	0.388353
Br100	Br	1.517778	0.458697	0.888353
Br101	Br	0.486998	0.218715	-0.170344
Br102	Br	0.986998	0.718715	0.329656
Br103	Br	0.486961	0.218792	0.170361
Br104	Br	0.986961	0.718792	0.670361
H105	H	0.789838	-0.231421	0.000012
H106	H	1.289838	0.268579	0.500012
H107	H	0.776701	0.412602	0.365723
H108	H	1.276701	0.912602	0.865723
H109	H	0.111835	0.206088	-0.131113
H110	H	0.611835	0.706088	0.368887
H111	H	0.254750	0.210916	0.131125
H112	H	0.754750	0.710916	0.631125
Br113	Br	1.017801	-0.041270	0.611645
Br114	Br	1.517801	0.458730	1.111645
Br115	Br	1.017823	-0.041262	0.808349
Br116	Br	1.517823	0.458738	1.308349
H117	H	0.111807	0.206074	0.131125
H118	H	0.611807	0.706074	0.631125
Br119	Br	0.745340	0.471704	0.611676
Br120	Br	1.245340	0.971704	1.111676
H121	H	0.651285	0.224355	0.131127
H122	H	1.151285	0.724355	0.631127
Br123	Br	0.745306	0.471665	0.191672
Br124	Br	1.245306	0.971665	0.691672
