data_functionalizedCrystal
_audit_creation_method	'MofGen! by Chris Wilmer'
_symmetry_space_group_name_H-M	'P1'
_symmetry_Int_Tables_number	1
_symmetry_cell_setting	triclinic
loop_
_symmetry_equiv_pos_as_xyz
  x,y,z
_cell_length_a	16.109318
_cell_length_b	16.109301
_cell_length_c	14.048226
_cell_angle_alpha	89.992144
_cell_angle_beta	89.997121
_cell_angle_gamma	83.465022
loop_
_atom_site_label
_atom_site_type_symbol
_atom_site_fract_x
_atom_site_fract_y
_atom_site_fract_z
O1	O	1.103125	0.106938	-0.079084
O2	O	0.861065	0.120222	-0.079104
O3	O	0.988745	-0.007451	-0.079084
O4	O	0.975445	0.234610	-0.079105
O5	O	0.988729	-0.007458	0.079237
O6	O	0.861050	0.120214	0.079217
O7	O	1.103110	0.106930	0.079237
Zn8	Zn	0.982077	0.113571	0.104364
Zn9	Zn	0.982097	0.113581	-0.104231
O10	O	0.975430	0.234603	0.079217
C11	C	0.830083	0.119677	0.000054
C12	C	0.737788	0.118057	0.000047
C13	C	0.438723	0.112826	-0.086237
C14	C	0.525444	0.114343	-0.086243
C15	C	0.525446	0.114324	0.086368
C16	C	0.438727	0.112800	0.086373
C17	C	0.395367	0.112056	0.000068
C18	C	0.568807	0.115096	0.000057
C19	C	0.662835	0.116742	0.000051
C20	C	0.301334	0.110409	0.000073
C21	C	0.988198	-0.038430	0.000077
C22	C	0.986583	-0.130725	0.000078
C23	C	1.058590	-0.352993	0.000069
C24	C	1.057066	-0.439713	0.000061
C25	C	0.905579	-0.419848	0.000053
C26	C	0.907104	-0.333130	0.000054
C27	C	0.983612	-0.299704	0.000067
C28	C	0.980563	-0.473144	0.000058
C29	C	0.978910	-0.567170	0.000049
C30	C	0.985265	-0.205672	0.000074
C31	C	1.134092	0.107474	0.000077
C32	C	1.226387	0.109095	0.000077
C33	C	0.975976	0.265581	0.000054
C34	C	0.977592	0.357877	0.000046
N35	N	0.982070	0.113564	0.246725
N36	N	0.982112	0.113582	-0.246592
C37	C	1.038624	0.057054	0.296552
C38	C	1.038629	0.057053	0.396209
C39	C	0.982084	0.113567	0.446038
C40	C	0.925524	0.170080	0.396204
C41	C	0.925515	0.170076	0.296548
C42	C	0.925548	0.170086	0.603918
C43	C	0.925558	0.170092	0.703581
C44	C	1.038662	0.057063	0.703579
C45	C	1.038653	0.057059	0.603923
C46	C	0.982094	0.113573	0.554096
H47	H	1.120888	-0.325781	0.000078
H48	H	1.118121	-0.483098	0.000061
C49	C	0.447435	0.112992	-0.256854
C50	C	0.391062	0.111999	-0.181102
H51	H	0.418012	0.112475	-0.315420
H52	H	0.474905	0.162036	-0.253267
H53	H	0.487613	0.065128	-0.253256
H54	H	0.350887	0.159866	-0.184696
H55	H	0.363579	0.062950	-0.184690
C56	C	1.056763	-0.056096	0.815652
C57	C	1.100833	-0.005065	0.758340
H58	H	1.095147	-0.094451	0.849455
H59	H	1.023097	-0.022443	0.859589
H60	H	1.022167	-0.086014	0.776776
H61	H	1.135424	0.024858	0.797217
H62	H	1.134514	-0.038722	0.714397
C63	C	0.835977	-0.543963	0.000059
C64	C	0.821484	-0.456593	0.000052
H65	H	0.784058	-0.566644	0.000067
H66	H	0.866843	-0.562245	-0.055147
H67	H	0.866848	-0.562251	0.055273
H68	H	0.790618	-0.438304	-0.055166
H69	H	0.790604	-0.438303	0.055264
H70	H	0.846043	-0.289740	0.000049
C71	C	1.150416	-0.054675	0.306570
C72	C	1.100780	-0.005072	0.241784
H73	H	1.188784	-0.093034	0.272759
H74	H	1.180313	-0.020054	0.345423
H75	H	1.115813	-0.084589	0.345455
H76	H	1.135383	0.024847	0.202904
H77	H	1.070881	-0.039697	0.202915
C78	C	0.331827	0.182494	0.186514
C79	C	0.391060	0.111949	0.181243
H80	H	0.302396	0.181960	0.245077
H81	H	0.359302	0.231536	0.182938
H82	H	0.293601	0.181820	0.135108
H83	H	0.429289	0.112626	0.232646
H84	H	0.363583	0.062894	0.184828
C85	C	1.056736	-0.056098	0.508286
C86	C	1.100802	-0.005064	0.450972
H87	H	1.095123	-0.094452	0.542086
H88	H	1.023070	-0.022447	0.552225
H89	H	1.022140	-0.086017	0.469411
H90	H	1.135393	0.024859	0.489848
H91	H	1.134482	-0.038720	0.407027
H92	H	1.084701	0.011045	0.563353
C93	C	0.812379	0.188089	0.491870
C94	C	0.863376	0.232208	0.549149
H95	H	0.773998	0.226443	0.458063
H96	H	0.846052	0.154438	0.447936
H97	H	0.782491	0.153474	0.530770
H98	H	0.893269	0.266819	0.510248
H99	H	0.829699	0.265873	0.593088
H100	H	0.879512	0.216111	0.744147
C101	C	0.613604	0.187494	-0.186380
C102	C	0.573102	0.115194	-0.181110
H103	H	0.643029	0.188014	-0.244948
H104	H	0.573423	0.235345	-0.182792
H105	H	0.651838	0.188147	-0.134980
H106	H	0.534863	0.114544	-0.232507
H107	H	0.613287	0.067330	-0.184707
C108	C	0.876649	0.313990	0.265834
C109	C	0.863353	0.232196	0.241772
H110	H	0.838273	0.352338	0.232013
H111	H	0.868558	0.322076	0.332308
H112	H	0.932131	0.323029	0.249484
H113	H	0.807872	0.223155	0.258129
H114	H	0.871437	0.224106	0.175284
C115	C	0.658381	0.116661	0.163004
C116	C	0.573109	0.115155	0.181231
H117	H	0.687801	0.117181	0.221571
H118	H	0.678942	0.068462	0.127553
H119	H	0.666227	0.165370	0.127538
H120	H	0.565261	0.066442	0.216691
H121	H	0.552541	0.163358	0.216697
H122	H	0.879479	0.216093	0.436781
