data_functionalizedCrystal
_audit_creation_method	'MofGen! by Chris Wilmer'
_symmetry_space_group_name_H-M	'P1'
_symmetry_Int_Tables_number	1
_symmetry_cell_setting	triclinic
loop_
_symmetry_equiv_pos_as_xyz
  x,y,z
_cell_length_a	11.792241
_cell_length_b	10.268362
_cell_length_c	14.519709
_cell_angle_alpha	89.993769
_cell_angle_beta	96.063220
_cell_angle_gamma	90.000374
loop_
_atom_site_label
_atom_site_type_symbol
_atom_site_fract_x
_atom_site_fract_y
_atom_site_fract_z
O1	O	-1.506208	-0.108177	0.126405
O2	O	-1.006208	0.391823	0.626405
O3	O	-1.175795	-0.108207	0.139432
O4	O	-0.675795	0.391793	0.639432
O5	O	-1.349762	-0.108180	-0.001288
O6	O	-0.849762	0.391820	0.498712
O7	O	-1.332241	-0.108205	0.267125
O8	O	-0.832241	0.391795	0.767125
O9	O	-1.349747	0.108421	-0.001294
O10	O	-0.849747	0.608421	0.498706
O11	O	-1.175780	0.108393	0.139426
O12	O	-0.675780	0.608393	0.639426
O13	O	-1.506193	0.108424	0.126399
O14	O	-1.006193	0.608424	0.626399
Cu15	Cu	-1.340985	0.128186	0.132912
Cu16	Cu	-0.840985	0.628186	0.632912
Cu17	Cu	-1.341003	-0.127969	0.132919
Cu18	Cu	-0.841003	0.372031	0.632919
O19	O	-1.332226	0.108396	0.267119
O20	O	-0.832226	0.608396	0.767119
C21	C	-1.133501	0.000089	0.138611
C22	C	-0.633501	0.500089	0.638611
C23	C	-1.007501	0.000078	0.136161
C24	C	-0.507501	0.500078	0.636161
C25	C	-1.348938	0.000121	-0.035654
C26	C	-0.848938	0.500121	0.464346
C27	C	-1.346491	0.000121	-0.138044
C28	C	-0.846491	0.500121	0.361956
C29	C	-1.548487	0.000124	0.127220
C30	C	-1.048487	0.500124	0.627220
C31	C	-1.674487	0.000127	0.129669
C32	C	-1.174487	0.500127	0.629669
N33	N	-1.340981	0.308352	0.132906
N34	N	-0.840981	0.808352	0.632906
C35	C	-0.776813	0.000116	0.131657
C36	C	-0.276813	0.500116	0.631657
C37	C	-0.905185	0.000095	0.134160
C38	C	-0.405185	0.500095	0.634160
N39	N	-1.341016	-0.308135	0.132917
N40	N	-0.841016	0.191865	0.632917
C41	C	-1.340997	0.574022	0.132917
C42	C	-0.840997	1.074022	0.632917
C43	C	-1.340984	0.426184	0.132914
C44	C	-0.840984	0.926184	0.632914
C45	C	-1.337483	0.000087	-0.512973
C46	C	-0.837483	0.500087	-0.012973
C47	C	-1.339984	0.000097	-0.408656
C48	C	-0.839984	0.500097	0.091344
C49	C	-1.341987	0.000105	-0.325512
C50	C	-0.841987	0.500105	0.174488
C51	C	-1.344489	0.000113	-0.221188
C52	C	-0.844489	0.500113	0.278812
C53	C	-1.333050	0.000093	0.301484
C54	C	-0.833050	0.500093	0.801484
C55	C	-1.335497	0.000084	0.403875
C56	C	-0.835497	0.500084	0.903875
