data_functionalizedCrystal
_audit_creation_method	'MofGen! by Chris Wilmer'
_symmetry_space_group_name_H-M	'P1'
_symmetry_Int_Tables_number	1
_symmetry_cell_setting	triclinic
loop_
_symmetry_equiv_pos_as_xyz
  x,y,z
_cell_length_a	17.640112
_cell_length_b	12.827893
_cell_length_c	12.827885
_cell_angle_alpha	90.025242
_cell_angle_beta	78.824418
_cell_angle_gamma	101.227192
loop_
_atom_site_label
_atom_site_type_symbol
_atom_site_fract_x
_atom_site_fract_y
_atom_site_fract_z
Zn1	Zn	1.208361	-0.092695	0.268431
Zn2	Zn	1.708361	0.407305	0.768431
Zn3	Zn	1.208308	-0.267487	0.093720
Zn4	Zn	1.708308	0.232513	0.593720
Zn5	Zn	1.076194	-0.128107	0.128973
Zn6	Zn	1.576194	0.371893	0.628973
Zn7	Zn	1.076210	-0.302750	0.303670
Zn8	Zn	1.576210	0.197250	0.803670
O9	O	1.142268	-0.197760	0.198698
O10	O	1.642268	0.302240	0.698698
O11	O	1.318950	-0.086304	0.215753
O12	O	1.818950	0.413696	0.715753
O13	O	1.190754	-0.249060	-0.047832
O14	O	1.690754	0.250940	0.452168
O15	O	1.093741	0.022831	0.147479
O16	O	1.593741	0.522831	0.647479
O17	O	1.318912	-0.214723	0.087394
O18	O	1.818912	0.285277	0.587394
O19	O	1.190844	0.048848	0.249937
O20	O	1.690844	0.548848	0.749937
O21	O	1.093690	-0.146658	-0.021932
O22	O	1.593690	0.353342	0.478068
O23	O	0.965599	-0.180851	0.181649
O24	O	1.465599	0.319149	0.681649
O25	O	1.093769	-0.274824	0.445224
O26	O	1.593769	0.225176	0.945224
O27	O	0.965611	-0.309161	0.309998
O28	O	1.465611	0.190839	0.809998
O29	O	1.190860	-0.120497	0.419334
O30	O	1.690860	0.379503	0.919334
O31	O	1.190770	-0.418405	0.121564
O32	O	1.690770	0.081595	0.621564
O33	O	1.093718	-0.444313	0.275814
O34	O	1.593718	0.055687	0.775814
C35	C	0.936929	-0.252676	0.253474
C36	C	1.436929	0.247324	0.753474
C37	C	0.849084	-0.276195	0.276931
C38	C	1.349084	0.223805	0.776931
C39	C	1.142261	-0.469271	0.198704
C40	C	1.642261	0.030729	0.698704
C41	C	1.142331	-0.585406	0.198722
C42	C	1.642331	-0.085406	0.698722
C43	C	1.142322	-0.197644	0.471254
C44	C	1.642322	0.302356	0.971254
C45	C	1.142345	-0.197595	0.587401
C46	C	1.642345	0.302405	1.087401
C47	C	0.560032	-0.019072	0.020501
C48	C	1.060032	0.480928	0.520501
C49	C	0.477488	-0.041193	0.042557
C50	C	0.977488	0.458807	0.542557
C51	C	0.477555	-0.174986	0.175976
C52	C	0.977555	0.325014	0.675976
C53	C	0.560100	-0.152873	0.153935
C54	C	1.060100	0.347127	0.653935
C55	C	0.601332	-0.074916	0.076195
C56	C	1.101332	0.425084	0.576195
C57	C	0.601401	-0.208717	0.209629
C58	C	1.101401	0.291283	0.709629
C59	C	0.683939	-0.186609	0.187585
C60	C	1.183939	0.313391	0.687585
C61	C	0.725177	-0.108658	0.109847
C62	C	1.225177	0.391342	0.609847
C63	C	0.683871	-0.052808	0.054151
C64	C	1.183871	0.447192	0.554151
C65	C	0.560167	-0.286679	0.287363
C66	C	1.060167	0.213321	0.787363
C67	C	0.601468	-0.342523	0.343058
C68	C	1.101468	0.157477	0.843058
C69	C	0.684007	-0.320410	0.321019
C70	C	1.184007	0.179590	0.821019
C71	C	0.725245	-0.242459	0.243281
C72	C	1.225245	0.257541	0.743281
C73	C	0.725314	-0.376260	0.376715
C74	C	1.225314	0.123740	0.876715
C75	C	0.807852	-0.354152	0.354671
C76	C	1.307852	0.145848	0.854671
C77	C	0.807783	-0.220351	0.221237
C78	C	1.307783	0.279649	0.721237
C79	C	1.348409	-0.142629	0.143710
C80	C	1.848409	0.357371	0.643710
C81	C	1.436254	-0.119136	0.120277
C82	C	1.936254	0.380864	0.620277
C83	C	1.142297	0.074818	0.198710
C84	C	1.642297	0.574818	0.698710
C85	C	1.142309	0.190974	0.198714
C86	C	1.642309	0.690974	0.698714
C87	C	1.094269	0.229888	0.148022
C88	C	1.594269	0.729888	0.648022
C89	C	1.094281	0.349941	0.148026
C90	C	1.594281	0.849941	0.648026
C91	C	1.142260	-0.197787	-0.072809
C92	C	1.642260	0.302213	0.427191
C93	C	1.142390	-0.197501	-0.188997
C94	C	1.642390	0.302499	0.311003
C95	C	1.190381	-0.248239	0.626368
C96	C	1.690381	0.251761	1.126368
C97	C	1.190405	-0.248190	0.746412
C98	C	1.690405	0.251810	1.246412
H99	H	0.841357	-0.156855	0.157949
H100	H	1.341357	0.343145	0.657949
C101	C	0.469372	-0.310995	0.311611
C102	C	0.969372	0.189005	0.811611
N103	N	0.400985	-0.329308	0.329874
N104	N	0.900985	0.170692	0.829874
H105	H	0.792385	-0.090662	0.091898
H106	H	1.292385	0.409338	0.591898
C107	C	1.086830	-0.138917	0.765676
C108	C	1.586830	0.361083	1.265676
N109	N	1.044984	-0.094788	0.731527
N110	N	1.544984	0.405212	1.231527
C111	C	1.038743	0.154841	0.089307
C112	C	1.538743	0.654841	0.589307
N113	N	0.996937	0.098322	0.045052
N114	N	1.496937	0.598322	0.545052
H115	H	1.231530	-0.291550	0.779972
H116	H	1.731530	0.208450	1.279972
C117	C	1.197885	0.266034	0.257351
C118	C	1.697885	0.766034	0.757351
N119	N	1.239748	0.322569	0.301516
N120	N	1.739748	0.822569	0.801516
H121	H	1.053156	0.383455	0.104621
H122	H	1.553156	0.883455	0.604621
C123	C	0.556103	-0.428271	0.428571
C124	C	1.056103	0.071729	0.928571
N125	N	0.521935	-0.492856	0.492984
N126	N	1.021935	0.007144	0.992984
H127	H	0.717444	0.010688	-0.009137
H128	H	1.217444	0.510688	0.490863
C129	C	1.245916	-0.306867	0.551380
C130	C	1.745916	0.193133	1.051380
N131	N	1.287746	-0.351029	0.494900
N132	N	1.787746	0.148971	0.994900
H133	H	1.183464	0.381088	0.242120
H134	H	1.683464	0.881088	0.742120
H135	H	0.593605	0.044424	-0.042787
H136	H	1.093605	0.544424	0.457213
H137	H	0.443864	0.004295	-0.002795
H138	H	0.943864	0.504295	0.497205
H139	H	1.101242	-0.154194	0.642912
H140	H	1.601242	0.345806	1.142912
H141	H	0.443973	-0.238462	0.239269
H142	H	0.943973	0.261538	0.739269
H143	H	0.691730	-0.439739	0.440003
H144	H	1.191730	0.060261	0.940003
H145	H	0.841480	-0.399625	0.400024
H146	H	1.341480	0.100375	0.900024
