data_functionalizedCrystal
_audit_creation_method	'MofGen! by Chris Wilmer'
_symmetry_space_group_name_H-M	'P1'
_symmetry_Int_Tables_number	1
_symmetry_cell_setting	triclinic
loop_
_symmetry_equiv_pos_as_xyz
  x,y,z
_cell_length_a	11.169417
_cell_length_b	12.594516
_cell_length_c	11.169409
_cell_angle_alpha	89.966970
_cell_angle_beta	89.980487
_cell_angle_gamma	90.013065
loop_
_atom_site_label
_atom_site_type_symbol
_atom_site_fract_x
_atom_site_fract_y
_atom_site_fract_z
Zn1	Zn	1.834950	-0.423620	-0.678527
Zn2	Zn	1.834834	-0.601647	-0.477841
Zn3	Zn	1.634236	-0.423686	-0.477862
Zn4	Zn	1.634238	-0.601561	-0.678487
O5	O	1.734565	-0.512629	-0.578180
O6	O	2.002884	-0.447244	-0.651913
O7	O	1.808175	-0.578103	-0.309894
O8	O	1.660909	-0.274732	-0.504506
O9	O	2.002799	-0.578039	-0.504471
O10	O	1.808372	-0.274683	-0.651934
O11	O	1.660796	-0.447357	-0.309910
O12	O	1.466287	-0.447274	-0.504468
O13	O	1.660912	-0.577894	-0.846443
O14	O	1.466288	-0.577958	-0.651866
O15	O	1.808375	-0.447161	-0.846472
O16	O	1.808177	-0.750581	-0.504432
O17	O	1.660800	-0.750518	-0.651846
C18	C	1.422740	-0.512614	-0.578166
C19	C	1.289340	-0.512634	-0.578188
C20	C	1.734509	-0.789170	-0.578159
C21	C	1.734595	-0.907475	-0.578190
C22	C	1.814846	-0.976724	-0.498097
C23	C	1.844180	-1.047411	-0.607640
C24	C	1.705412	-1.047587	-0.468717
C25	C	1.763984	-0.976604	-0.687790
C26	C	1.625165	-0.976774	-0.548793
C27	C	1.654457	-1.047429	-0.658412
C28	C	2.047607	-0.512644	-0.578194
C29	C	2.181007	-0.512650	-0.578200
C30	C	1.734657	-0.512510	-0.891222
C31	C	1.734696	-0.512460	-1.024622
C32	C	1.734653	-0.235008	-0.578227
C33	C	1.734691	-0.116702	-0.578247
C34	C	1.734542	-0.512670	-0.266355
C35	C	1.734735	-0.512420	-0.132955
H36	H	1.882723	-0.945677	-0.430426
H37	H	1.936763	-1.078442	-0.632536
Cl38	Cl	1.802340	-0.928678	-0.830801
H39	H	1.586632	-1.078279	-0.726246
H40	H	1.532609	-0.945720	-0.523865
H41	H	1.680689	-1.078765	-0.376114
