data_functionalizedCrystal
_audit_creation_method	'MofGen! by Chris Wilmer'
_symmetry_space_group_name_H-M	'P1'
_symmetry_Int_Tables_number	1
_symmetry_cell_setting	triclinic
loop_
_symmetry_equiv_pos_as_xyz
  x,y,z
_cell_length_a	10.654562
_cell_length_b	10.489741
_cell_length_c	9.130313
_cell_angle_alpha	90.005193
_cell_angle_beta	90.003553
_cell_angle_gamma	84.514639
loop_
_atom_site_label
_atom_site_type_symbol
_atom_site_fract_x
_atom_site_fract_y
_atom_site_fract_z
O1	O	1.667909	0.179241	0.121895
O2	O	1.302440	0.196294	0.121877
O3	O	1.493491	0.002166	0.121877
O4	O	1.476859	0.373369	0.121894
O5	O	1.493488	0.002156	-0.121721
O6	O	1.302438	0.196283	-0.121722
O7	O	1.667906	0.179231	-0.121704
Cu8	Cu	1.485172	0.187756	-0.143956
Cu9	Cu	1.485175	0.187768	0.144128
O10	O	1.476856	0.373359	-0.121705
C11	C	1.255641	0.195033	0.000075
C12	C	1.116197	0.191277	0.000068
C13	C	1.050664	0.189519	-0.132707
C14	C	0.919640	0.186000	-0.132682
C15	C	0.919693	0.186002	0.132902
C16	C	1.050715	0.189512	0.132877
C17	C	1.116145	0.191284	-0.265516
C18	C	1.050612	0.189528	-0.398301
C19	C	0.919588	0.186009	-0.398276
C20	C	0.854097	0.184246	-0.265467
C21	C	1.492233	-0.045370	0.000079
C22	C	1.488475	-0.186998	0.000081
C23	C	1.366915	-0.255085	0.000086
C24	C	1.424338	-0.347238	-0.120018
C25	C	1.424369	-0.347202	0.120151
C26	C	1.545947	-0.277285	-0.120122
C27	C	1.545962	-0.277240	0.120155
C28	C	1.603472	-0.369366	0.000022
C29	C	1.714706	0.180492	0.000101
C30	C	1.854150	0.184248	0.000118
C31	C	1.478113	0.420895	0.000097
C32	C	1.481872	0.562523	0.000104
N33	N	1.485178	0.187768	0.346751
N34	N	1.485179	0.187747	-0.346578
C35	C	1.569934	0.101977	0.423403
C36	C	1.569938	0.101969	0.576740
C37	C	1.400418	0.273547	0.576759
C38	C	1.400421	0.273560	0.423425
C39	C	1.654690	0.016185	0.346730
C40	C	1.739453	-0.069613	0.423382
C41	C	1.739457	-0.069621	0.576719
C42	C	1.654698	0.016170	0.653403
H43	H	1.104073	0.190949	0.240993
C44	C	1.231906	-0.187941	-0.000080
H45	H	1.188920	-0.211744	-0.085530
H46	H	1.188285	-0.212880	0.084375
H47	H	1.235228	-0.097764	0.000779
C48	C	1.654680	0.016190	0.178065
H49	H	1.592055	0.079565	0.143394
H50	H	1.735053	0.034556	0.143372
H51	H	1.636894	-0.065554	0.143375
C52	C	1.738603	-0.436207	-0.000059
H53	H	1.781572	-0.412275	-0.085454
H54	H	1.782111	-0.411183	0.084452
H55	H	1.735485	-0.526411	0.000740
C56	C	1.354858	-0.389116	-0.257190
H57	H	1.270814	-0.349617	-0.257052
H58	H	1.397235	-0.364020	-0.342479
H59	H	1.353635	-0.479553	-0.256645
H60	H	0.747409	0.181377	-0.265458
C61	C	1.615358	-0.235679	-0.257453
H62	H	1.617283	-0.145322	-0.256650
H63	H	1.699140	-0.275831	-0.257802
H64	H	1.572448	-0.260198	-0.342638
C65	C	1.615384	-0.235311	0.257335
H66	H	1.572077	-0.258988	0.342594
H67	H	1.698945	-0.276021	0.258205
H68	H	1.617931	-0.145039	0.255855
C69	C	1.832679	-0.163974	0.339037
H70	H	1.820532	-0.151692	0.236737
H71	H	1.916579	-0.149169	0.364171
H72	H	1.818423	-0.249284	0.364153
H73	H	1.372920	-0.378139	0.221699
C74	C	1.832690	-0.163991	0.661033
H75	H	1.883158	-0.215086	0.593404
H76	H	1.885290	-0.117511	0.720864
H77	H	1.787131	-0.217622	0.720831
C78	C	1.654704	0.016171	0.822070
H79	H	1.592091	0.079552	0.856758
H80	H	1.636942	-0.065571	0.856748
H81	H	1.735085	0.034556	0.856760
C82	C	1.307186	0.367899	0.661108
H83	H	1.319316	0.355595	0.763406
H84	H	1.321427	0.453208	0.636003
H85	H	1.223285	0.353080	0.635966
C86	C	1.307193	0.367923	0.339094
H87	H	1.319346	0.355651	0.236794
H88	H	1.223292	0.353117	0.364205
H89	H	1.321449	0.453231	0.364243
C90	C	1.260267	0.195149	-0.265548
H91	H	1.289883	0.195939	-0.363657
H92	H	1.281022	0.270194	-0.216497
H93	H	1.298811	0.121677	-0.216525
H94	H	1.103944	0.190954	-0.506429
H95	H	0.866359	0.184570	0.241029
C96	C	0.847504	0.184075	-0.544330
H97	H	0.905271	0.185639	-0.623423
H98	H	0.805286	0.108452	-0.549855
H99	H	0.787497	0.256969	-0.549828
