data_functionalizedCrystal
_audit_creation_method	'MofGen! by Chris Wilmer'
_symmetry_space_group_name_H-M	'P1'
_symmetry_Int_Tables_number	1
_symmetry_cell_setting	triclinic
loop_
_symmetry_equiv_pos_as_xyz
  x,y,z
_cell_length_a	18.215407
_cell_length_b	25.639239
_cell_length_c	18.215399
_cell_angle_alpha	89.969965
_cell_angle_beta	89.980167
_cell_angle_gamma	90.039134
loop_
_atom_site_label
_atom_site_type_symbol
_atom_site_fract_x
_atom_site_fract_y
_atom_site_fract_z
Zn1	Zn	1.125001	-0.208150	-0.416105
Zn2	Zn	1.625001	0.291850	0.083895
Zn3	Zn	1.124880	-0.295586	-0.293034
Zn4	Zn	1.624880	0.204414	0.206966
Zn5	Zn	1.001934	-0.208167	-0.293053
Zn6	Zn	1.501934	0.291833	0.206947
Zn7	Zn	1.001870	-0.295557	-0.416059
Zn8	Zn	1.501870	0.204443	0.083941
O9	O	1.063421	-0.251865	-0.354563
O10	O	1.563421	0.248135	0.145437
O11	O	1.227970	-0.219754	-0.399791
O12	O	1.727970	0.280246	0.100209
O13	O	1.108547	-0.284009	-0.190052
O14	O	1.608547	0.215991	0.309948
O15	O	1.018337	-0.135000	-0.309403
O16	O	1.518337	0.365000	0.190597
O17	O	1.227880	-0.283992	-0.309372
O18	O	1.727880	0.216008	0.190628
O19	O	1.108754	-0.134987	-0.399809
O20	O	1.608754	0.365013	0.100191
O21	O	1.018219	-0.219783	-0.190066
O22	O	1.518219	0.280217	0.309934
O23	O	0.898941	-0.219754	-0.309358
O24	O	1.398941	0.280246	0.190642
O25	O	1.018228	-0.283943	-0.519050
O26	O	1.518228	0.216057	-0.019050
O27	O	0.898894	-0.283959	-0.399731
O28	O	1.398894	0.216041	0.100269
O29	O	1.108692	-0.219725	-0.519083
O30	O	1.608692	0.280275	-0.019083
O31	O	1.108485	-0.368747	-0.309327
O32	O	1.608485	0.131253	0.190673
O33	O	1.018110	-0.368726	-0.399713
O34	O	1.518110	0.131274	0.100287
C35	C	0.872215	-0.251856	-0.354542
C36	C	1.372215	0.248144	0.145458
C37	C	0.790416	-0.251865	-0.354550
C38	C	1.290416	0.248135	0.145450
C39	C	0.602217	-0.285349	-0.401548
C40	C	1.102217	0.214651	0.098452
C41	C	0.525358	-0.285350	-0.401557
C42	C	1.025358	0.214650	0.098443
C43	C	0.525378	-0.218391	-0.307594
C44	C	1.025378	0.281609	0.192406
C45	C	0.602235	-0.218387	-0.307589
C46	C	1.102235	0.281613	0.192411
C47	C	0.640653	-0.251869	-0.354565
C48	C	1.140653	0.248131	0.145435
C49	C	0.486937	-0.251874	-0.354579
C50	C	0.986937	0.248126	0.145421
C51	C	0.403603	-0.251876	-0.354589
C52	C	0.903603	0.248124	0.145411
C53	C	0.723992	-0.251867	-0.354556
C54	C	1.223992	0.248133	0.145444
C55	C	1.063298	-0.387708	-0.354529
C56	C	1.563298	0.112292	0.145471
C57	C	1.063312	-0.445822	-0.354539
C58	C	1.563312	0.054178	0.145461
C59	C	1.110602	-0.806183	-0.307579
C60	C	1.610602	-0.306183	0.192421
C61	C	1.110631	-0.860787	-0.307589
C62	C	1.610631	-0.360787	0.192411
O63	O	1.150711	-0.889023	-0.267625
O64	O	1.650711	-0.389023	0.232375
N65	N	1.063551	-0.888104	-0.354612
N66	N	1.563551	-0.388104	0.145388
C67	C	1.016444	-0.860813	-0.401633
C68	C	1.516444	-0.360813	0.098367
O69	O	0.976402	-0.889062	-0.441631
O70	O	1.476402	-0.389062	0.058369
C71	C	1.016420	-0.806210	-0.401626
C72	C	1.516420	-0.306210	0.098374
C73	C	1.063498	-0.778896	-0.354595
C74	C	1.563498	-0.278896	0.145405
C75	C	1.157677	-0.778869	-0.260553
C76	C	1.657677	-0.278869	0.239447
C77	C	1.157647	-0.724269	-0.260542
C78	C	1.657647	-0.224269	0.239458
C79	C	1.110543	-0.696982	-0.307558
C80	C	1.610543	-0.196982	0.192442
C81	C	1.063468	-0.724296	-0.354584
C82	C	1.563468	-0.224296	0.145416
C83	C	0.969318	-0.778920	-0.448650
C84	C	1.469318	-0.278920	0.051350
C85	C	0.969298	-0.724313	-0.448640
C86	C	1.469298	-0.224313	0.051360
C87	C	1.016376	-0.697000	-0.401609
C88	C	1.516376	-0.197000	0.098391
C89	C	1.016334	-0.642408	-0.401590
C90	C	1.516334	-0.142408	0.098410
N91	N	1.063414	-0.615092	-0.354567
N92	N	1.563414	-0.115092	0.145433
C93	C	1.110519	-0.642379	-0.307551
C94	C	1.610519	-0.142379	0.192449
C95	C	1.016500	-0.975484	-0.401644
C96	C	1.516500	-0.475484	0.098356
C97	C	1.016520	-1.030086	-0.401648
C98	C	1.516520	-0.530086	0.098352
C99	C	1.110708	-1.030057	-0.307605
C100	C	1.610708	-0.530057	0.192395
C101	C	1.110683	-0.975453	-0.307598
C102	C	1.610683	-0.475453	0.192402
C103	C	1.063580	-0.948167	-0.354621
C104	C	1.563580	-0.448167	0.145379
C105	C	1.110452	-0.527714	-0.307532
C106	C	1.610452	-0.027714	0.192468
C107	C	1.110416	-0.473108	-0.307523
C108	C	1.610416	0.026892	0.192477
C109	C	1.016232	-0.473143	-0.401569
C110	C	1.516232	0.026857	0.098431
C111	C	1.016265	-0.527743	-0.401575
C112	C	1.516265	-0.027743	0.098425
C113	C	1.063381	-0.555027	-0.354554
C114	C	1.563381	-0.055027	0.145446
O115	O	0.976277	-0.614138	-0.441536
O116	O	1.476277	-0.114138	0.058464
O117	O	1.150561	-0.614123	-0.267567
O118	O	1.650561	-0.114123	0.232433
C119	C	1.255374	-0.251874	-0.354584
C120	C	1.755374	0.248126	0.145416
C121	C	1.337173	-0.251878	-0.354594
C122	C	1.837173	0.248122	0.145406
C123	C	1.063466	-0.251829	-0.546516
C124	C	1.563466	0.248171	-0.046516
C125	C	1.063485	-0.251814	-0.628315
C126	C	1.563485	0.248186	-0.128315
C127	C	1.063566	-0.115492	-0.354613
C128	C	1.563566	0.384508	0.145387
C129	C	1.063627	-0.057378	-0.354634
C130	C	1.563627	0.442622	0.145366
C131	C	1.110607	-0.218344	-0.816528
C132	C	1.610607	0.281656	-0.316528
C133	C	1.110616	-0.218329	-0.893386
C134	C	1.610616	0.281671	-0.393386
C135	C	1.016416	-0.285202	-0.893340
C136	C	1.516416	0.214798	-0.393340
C137	C	1.016404	-0.285214	-0.816483
C138	C	1.516404	0.214786	-0.316483
C139	C	1.063504	-0.251786	-0.778078
C140	C	1.563504	0.248214	-0.278078
C141	C	1.063524	-0.251759	-0.931795
C142	C	1.563524	0.248241	-0.431795
C143	C	1.063534	-0.251742	-1.015128
C144	C	1.563534	0.248258	-0.515128
C145	C	1.063494	-0.251801	-0.694739
C146	C	1.563494	0.248199	-0.194739
C147	C	1.063419	-0.251863	-0.163357
C148	C	1.563419	0.248137	0.336643
C149	C	1.063543	-0.251731	-0.081558
C150	C	1.563543	0.248269	0.418442
H151	H	0.494089	-0.191131	-0.269346
H152	H	0.994089	0.308869	0.230654
C153	C	1.152658	-1.113751	-0.265962
C154	C	1.652658	-0.613751	0.234038
C155	C	1.162553	-1.060057	-0.255988
C156	C	1.662553	-0.560057	0.244012
H157	H	1.184684	-1.132272	-0.234119
H158	H	1.684684	-0.632272	0.265881
H159	H	1.103248	-1.122759	-0.255086
H160	H	1.603248	-0.622759	0.244914
H161	H	1.163343	-1.122638	-0.315445
H162	H	1.663343	-0.622638	0.184555
H163	H	1.151862	-1.051170	-0.206506
H164	H	1.651862	-0.551170	0.293494
H165	H	1.211974	-1.051047	-0.266859
H166	H	1.711974	-0.551047	0.233141
C167	C	0.923419	-1.024617	-0.494604
C168	C	1.423419	-0.524617	0.005396
C169	C	0.964766	-1.060106	-0.453341
C170	C	1.464766	-0.560106	0.046659
H171	H	0.891474	-1.043150	-0.526523
H172	H	1.391474	-0.543150	-0.026523
H173	H	0.895279	-1.003358	-0.462507
H174	H	1.395279	-0.503358	0.037493
H175	H	0.955467	-1.003281	-0.522774
H176	H	1.455467	-0.503281	-0.022774
H177	H	0.932718	-1.081439	-0.425166
H178	H	1.432718	-0.581439	0.074834
H179	H	0.992908	-1.081374	-0.485442
H180	H	1.492908	-0.581374	0.014558
H181	H	0.978136	-0.953270	-0.439934
H182	H	1.478136	-0.453270	0.060066
H183	H	0.930941	-0.702100	-0.486935
H184	H	1.430941	-0.202100	0.013065
C185	C	0.923147	-0.478643	-0.494543
C186	C	1.423147	0.021357	0.005457
C187	C	0.964463	-0.443143	-0.453256
C188	C	1.464463	0.056857	0.046744
H189	H	0.891189	-0.460120	-0.526453
H190	H	1.391189	0.039880	-0.026453
H191	H	0.955207	-0.499906	-0.522717
H192	H	1.455207	0.000094	-0.022717
H193	H	0.895014	-0.499974	-0.462456
H194	H	1.395014	0.000026	0.037544
H195	H	0.992601	-0.421814	-0.485343
H196	H	1.492601	0.078186	0.014657
H197	H	0.932399	-0.421871	-0.425079
H198	H	1.432399	0.078129	0.074921
H199	H	0.930978	-0.801150	-0.486945
H200	H	1.430978	-0.301150	0.013055
H201	H	0.978071	-0.312419	-0.924618
H202	H	1.478071	0.187581	-0.424618
H203	H	1.148971	-0.191096	-0.924688
H204	H	1.648971	0.308904	-0.424688
H205	H	1.149019	-0.953218	-0.269302
H206	H	1.649019	-0.453218	0.230698
C207	C	1.120792	-0.589161	-0.208566
C208	C	1.620792	-0.089161	0.291434
C209	C	1.162246	-0.557706	-0.255858
C210	C	1.662246	-0.057706	0.244142
H211	H	1.152768	-0.607680	-0.176670
H212	H	1.652768	-0.107680	0.323330
H213	H	1.088742	-0.567900	-0.180376
H214	H	1.588742	-0.067900	0.319624
H215	H	1.092760	-0.613242	-0.236580
H216	H	1.592760	-0.113242	0.263420
H217	H	1.190274	-0.533622	-0.227843
H218	H	1.690274	-0.033622	0.272157
H219	H	1.194309	-0.578969	-0.284050
H220	H	1.694309	-0.078969	0.215950
H221	H	1.148956	-0.191123	-0.785261
H222	H	1.648956	0.308877	-0.285261
C223	C	0.923296	-0.351322	-0.824151
C224	C	1.423296	0.148678	-0.324151
C225	C	0.964627	-0.321979	-0.774213
C226	C	1.464627	0.178021	-0.274213
H227	H	0.891335	-0.374019	-0.798054
H228	H	1.391335	0.125981	-0.298054
H229	H	0.895172	-0.328538	-0.854130
H230	H	1.395172	0.171462	-0.354130
H231	H	0.955352	-0.371317	-0.854127
H232	H	1.455352	0.128683	-0.354127
H233	H	0.932571	-0.301981	-0.744240
H234	H	1.432571	0.198019	-0.244240
H235	H	0.992753	-0.344765	-0.744221
H236	H	1.492753	0.155235	-0.244221
H237	H	1.196039	-0.801080	-0.222266
H238	H	1.696039	-0.301080	0.277734
C239	C	0.594476	-0.351530	-0.494435
C240	C	1.094476	0.148470	0.005565
C241	C	0.644447	-0.322146	-0.453192
C242	C	1.144447	0.177854	0.046808
H243	H	0.620546	-0.374243	-0.526323
H244	H	1.120546	0.125757	-0.026323
H245	H	0.564471	-0.371503	-0.462325
H246	H	1.064471	0.128497	0.037675
H247	H	0.564527	-0.328769	-0.522639
H248	H	1.064527	0.171231	-0.022639
H249	H	0.674392	-0.344907	-0.424984
H250	H	1.174392	0.155093	0.075016
H251	H	0.674464	-0.302171	-0.485306
H252	H	1.174464	0.197829	0.014694
H253	H	0.977932	-0.549983	-0.439874
H254	H	1.477932	-0.049983	0.060126
C255	C	0.407535	-0.315085	-0.443293
C256	C	0.907535	0.184915	0.056707
C257	C	0.483109	-0.322153	-0.453202
C258	C	0.983109	0.177847	0.046798
H259	H	0.381454	-0.337804	-0.475183
H260	H	0.881454	0.162196	0.024817
H261	H	0.394914	-0.322694	-0.393835
H262	H	0.894914	0.177306	0.106165
H263	H	0.394984	-0.279964	-0.454155
H264	H	0.894984	0.220036	0.045845
H265	H	0.495661	-0.357273	-0.442335
H266	H	0.995661	0.142727	0.057665
H267	H	0.495736	-0.314547	-0.502672
H268	H	0.995736	0.185453	-0.002672
C269	C	0.594540	-0.152201	-0.214700
C270	C	1.094540	0.347799	0.285300
C271	C	0.644489	-0.181584	-0.255938
C272	C	1.144489	0.318416	0.244062
H273	H	0.620628	-0.129484	-0.182814
H274	H	1.120628	0.370516	0.317186
H275	H	0.564595	-0.132232	-0.246814
H276	H	1.064595	0.367768	0.253186
H277	H	0.564530	-0.174963	-0.186495
H278	H	1.064530	0.325037	0.313505
H279	H	0.674496	-0.158823	-0.284147
H280	H	1.174496	0.341177	0.215853
H281	H	0.674447	-0.201555	-0.223820
H282	H	1.174447	0.298445	0.276180
C283	C	1.203525	-0.478572	-0.214567
C284	C	1.703525	0.021428	0.285433
C285	C	1.162171	-0.443086	-0.255826
C286	C	1.662171	0.056914	0.244174
H287	H	1.235478	-0.460038	-0.182657
H288	H	1.735478	0.039962	0.317343
H289	H	1.171488	-0.499905	-0.186393
H290	H	1.671488	0.000095	0.313607
H291	H	1.231664	-0.499834	-0.246672
H292	H	1.731664	0.000166	0.253328
H293	H	1.134028	-0.421826	-0.223722
H294	H	1.634028	0.078174	0.276278
H295	H	1.194213	-0.421744	-0.284003
H296	H	1.694213	0.078256	0.215997
C297	C	1.250759	-0.729741	-0.167600
C298	C	1.750759	-0.229741	0.332400
C299	C	1.209409	-0.694250	-0.208854
C300	C	1.709409	-0.194250	0.291146
H301	H	1.282721	-0.711210	-0.135695
H302	H	1.782721	-0.211210	0.364305
H303	H	1.218720	-0.751070	-0.139421
H304	H	1.718720	-0.251070	0.360579
H305	H	1.278888	-0.751007	-0.199708
H306	H	1.778888	-0.251007	0.300292
H307	H	1.181275	-0.672987	-0.176746
H308	H	1.681275	-0.172987	0.323254
H309	H	1.241451	-0.672912	-0.237035
H310	H	1.741451	-0.172912	0.262965
