data_functionalizedCrystal
_audit_creation_method	'MofGen! by Chris Wilmer'
_symmetry_space_group_name_H-M	'P1'
_symmetry_Int_Tables_number	1
_symmetry_cell_setting	triclinic
loop_
_symmetry_equiv_pos_as_xyz
  x,y,z
_cell_length_a	21.295418
_cell_length_b	10.685741
_cell_length_c	10.685453
_cell_angle_alpha	90.325438
_cell_angle_beta	94.355604
_cell_angle_gamma	85.650063
loop_
_atom_site_label
_atom_site_type_symbol
_atom_site_fract_x
_atom_site_fract_y
_atom_site_fract_z
Zn1	Zn	0.950691	-0.444604	-0.748325
Zn2	Zn	1.450691	0.055396	-0.248325
Zn3	Zn	0.966733	-0.670421	-0.554664
Zn4	Zn	1.466733	-0.170421	-0.054664
Zn5	Zn	0.854104	-0.460743	-0.538499
Zn6	Zn	1.354104	0.039257	-0.038499
Zn7	Zn	0.852843	-0.654380	-0.764309
Zn8	Zn	1.352843	-0.154380	-0.264309
O9	O	0.906093	-0.557537	-0.651449
O10	O	1.406093	-0.057537	-0.151449
O11	O	1.040904	-0.474518	-0.722711
O12	O	1.540904	0.025482	-0.222711
O13	O	0.959034	-0.656075	-0.376970
O14	O	1.459034	-0.156075	0.123030
O15	O	0.860731	-0.283060	-0.552879
O16	O	1.360731	0.216940	-0.052879
O17	O	1.052690	-0.640425	-0.580429
O18	O	1.552690	-0.140425	-0.080429
O19	O	0.931692	-0.271202	-0.707037
O20	O	1.431692	0.228798	-0.207037
O21	O	0.876286	-0.502026	-0.365093
O22	O	1.376286	-0.002026	0.134907
O23	O	0.765852	-0.486471	-0.568378
O24	O	1.265852	0.013529	-0.068378
O25	O	0.858581	-0.613084	-0.937739
O26	O	1.358581	-0.113084	-0.437739
O27	O	0.764926	-0.628734	-0.734280
O28	O	1.264926	-0.128734	-0.234280
O29	O	0.930469	-0.458963	-0.925995
O30	O	1.430469	0.041037	-0.425995
O31	O	0.957811	-0.843836	-0.595928
O32	O	1.457811	-0.343836	-0.095928
O33	O	0.874137	-0.832050	-0.749954
O34	O	1.374137	-0.332050	-0.249954
C35	C	0.917594	-0.883458	-0.676457
C36	C	1.417594	-0.383458	-0.176457
C37	C	0.922570	-1.022885	-0.687197
C38	C	1.422570	-0.522885	-0.187197
C39	C	0.742549	-0.557614	-0.651310
C40	C	1.242549	-0.057614	-0.151310
C41	C	0.672585	-0.557675	-0.651282
C42	C	1.172585	-0.057675	-0.151282
C43	C	0.892595	-0.532434	-0.978658
C44	C	1.392595	-0.032434	-0.478658
C45	C	0.886843	-0.521736	-1.118095
C46	C	1.386843	-0.021736	-0.618095
C47	C	0.639261	-0.631867	-0.737556
C48	C	1.139261	-0.131867	-0.237556
C49	C	0.573515	-0.631832	-0.737610
C50	C	1.073515	-0.131832	-0.237610
C51	C	0.541097	-0.557619	-0.651369
C52	C	1.041097	-0.057619	-0.151369
C53	C	0.574428	-0.483412	-0.565089
C54	C	1.074428	0.016588	-0.065089
C55	C	0.640172	-0.483440	-0.565046
C56	C	1.140172	0.016560	-0.065046
N57	N	0.442015	-0.556210	-0.540891
N58	N	0.942015	-0.056210	-0.040891
N59	N	0.379561	-0.556191	-0.540936
N60	N	0.879561	-0.056191	-0.040936
C61	C	0.343014	-0.557529	-0.651496
C62	C	0.843014	-0.057529	-0.151496
N63	N	0.371280	-0.558912	-0.762013
N64	N	0.871280	-0.058912	-0.262013
N65	N	0.433740	-0.558938	-0.761967
N66	N	0.933740	-0.058938	-0.261967
C67	C	0.469808	-0.557580	-0.651407
C68	C	0.969808	-0.057580	-0.151407
C69	C	0.238400	-0.631687	-0.737835
C70	C	0.738400	-0.131687	-0.237835
C71	C	0.172653	-0.631643	-0.737890
C72	C	0.672653	-0.131643	-0.237890
C73	C	0.173568	-0.483230	-0.565359
C74	C	0.673568	0.016770	-0.065359
C75	C	0.239314	-0.483267	-0.565314
C76	C	0.739314	0.016733	-0.065314
C77	C	0.271726	-0.557502	-0.651551
C78	C	0.771726	-0.057502	-0.151551
C79	C	1.070275	-0.557461	-0.651590
C80	C	1.570275	-0.057461	-0.151590
C81	C	1.140239	-0.557428	-0.651650
C82	C	1.640239	-0.057428	-0.151650
C83	C	0.894563	-0.230342	-0.626371
C84	C	1.394563	0.269658	-0.126371
C85	C	0.889649	-0.090910	-0.615685
C86	C	1.389649	0.409090	-0.115685
C87	C	0.919571	-0.582452	-0.325507
C88	C	1.419571	-0.082452	0.174493
C89	C	0.925432	-0.592796	-0.186043
C90	C	1.425432	-0.092796	0.313957
H91	H	0.665647	-0.692313	-0.807778
H92	H	1.165647	-0.192313	-0.307778
Br93	Br	0.975820	-0.103599	-0.802863
Br94	Br	1.475820	0.396401	-0.302863
H95	H	0.857706	-0.042477	-0.546275
H96	H	1.357706	0.457523	-0.046275
Br97	Br	0.824302	-0.407126	-0.198963
Br98	Br	1.324302	0.092874	0.301037
H99	H	0.546377	-0.692247	-0.807868
H100	H	1.046377	-0.192247	-0.307868
H101	H	0.548029	-0.422985	-0.494873
H102	H	1.048029	0.077015	0.005127
Br103	Br	0.282392	-0.732426	-0.854872
Br104	Br	0.782392	-0.232426	-0.354872
Br105	Br	0.685401	-0.382740	-0.447954
Br106	Br	1.185401	0.117260	0.052046
Br107	Br	0.127425	-0.732329	-0.854996
Br108	Br	0.627425	-0.232329	-0.354996
H109	H	0.147174	-0.422799	-0.495145
H110	H	0.647174	0.077201	0.004855
Br111	Br	0.987980	-0.707380	-0.105178
Br112	Br	1.487980	-0.207380	0.394822
H113	H	0.266447	-0.422859	-0.495055
H114	H	0.766447	0.077141	0.004945
