data_functionalizedCrystal
_audit_creation_method	'MofGen! by Chris Wilmer'
_symmetry_space_group_name_H-M	'P1'
_symmetry_Int_Tables_number	1
_symmetry_cell_setting	triclinic
loop_
_symmetry_equiv_pos_as_xyz
  x,y,z
_cell_length_a	31.640172
_cell_length_b	16.704486
_cell_length_c	16.704493
_cell_angle_alpha	60.347015
_cell_angle_beta	94.158009
_cell_angle_gamma	57.651401
loop_
_atom_site_label
_atom_site_type_symbol
_atom_site_fract_x
_atom_site_fract_y
_atom_site_fract_z
Zr1	Zr	0.364180	0.947475	-0.174340
O2	O	0.284351	1.128092	-0.315647
O3	O	0.393801	0.766869	-0.121905
O4	O	0.379956	0.947473	-0.302505
O5	O	0.303260	0.947485	-0.002957
O6	O	0.449512	0.947459	-0.302509
O7	O	0.298197	0.947488	-0.135047
O8	O	0.474279	0.624391	0.020552
O9	O	0.278494	1.270553	-0.326018
O10	O	0.452122	0.841140	-0.110560
O11	O	0.403992	0.841148	-0.011980
O12	O	0.387691	1.053786	-0.224613
O13	O	0.339560	1.053795	-0.126033
Zr14	Zr	0.483191	0.947447	0.036321
Zr15	Zr	0.475115	0.947451	-0.174347
Zr16	Zr	0.372256	0.947470	0.036328
Zr17	Zr	0.354837	1.174683	-0.190881
Zr18	Zr	0.492533	0.720239	0.052861
O19	O	0.453569	1.128052	-0.016114
O20	O	0.442086	1.128059	-0.315657
O21	O	0.295834	1.128085	-0.016105
O22	O	0.563019	0.766830	0.177628
O23	O	0.551536	0.766836	-0.121914
O24	O	0.405284	0.766863	0.177638
O25	O	0.544110	0.947436	-0.135062
O26	O	0.467415	0.947448	0.164486
O27	O	0.397858	0.947463	0.164490
O28	O	0.549174	0.947433	-0.002972
O29	O	0.366672	1.270534	-0.326024
O30	O	0.480698	0.624388	0.188004
O31	O	0.568877	0.624369	0.187999
O32	O	0.562457	0.624373	0.020546
O33	O	0.284913	1.270549	-0.158566
O34	O	0.373091	1.270530	-0.158571
O35	O	0.459680	0.841135	0.086594
O36	O	0.507810	0.841127	-0.011986
O37	O	0.443379	1.053773	-0.126040
O38	O	0.395248	1.053782	-0.027459
C39	C	0.435371	0.663258	-0.048320
C40	C	0.439337	0.566802	-0.041298
C41	C	0.358112	0.542557	-0.185096
C42	C	0.361836	0.451933	-0.178504
C43	C	0.450511	0.294930	-0.021527
C44	C	0.446787	0.385554	-0.028119
C45	C	0.400585	0.509367	-0.109905
C46	C	0.396860	0.599992	-0.116493
C47	C	0.485536	0.442988	0.040480
C48	C	0.489260	0.352364	0.047072
C49	C	0.284923	0.947490	-0.069001
C50	C	0.237828	0.947500	-0.068998
C51	C	-0.056965	0.947440	-0.141775
C52	C	-0.233951	0.947425	-0.141782
O53	O	-0.259193	0.947372	-0.203641
N54	N	-0.253292	0.947426	-0.069013
C55	C	-0.228382	0.947423	0.003766
O56	O	-0.248890	0.947410	0.065666
C57	C	-0.051394	0.947429	0.003776
C58	C	-0.032059	0.947441	-0.069004
C59	C	-0.037629	0.947451	-0.214548
C60	C	0.006612	0.947461	-0.214550
C61	C	0.031519	0.947461	-0.141778
C62	C	0.012183	0.947451	-0.069005
C63	C	-0.026481	0.947417	0.076559
C64	C	0.017769	0.947416	0.076557
C65	C	0.037104	0.947427	0.003777
C66	C	0.081331	0.947462	0.003765
N67	N	0.100672	0.947461	-0.069003
C68	C	0.075766	0.947461	-0.141775
C69	C	-0.321304	0.947421	0.003754
C70	C	-0.365551	0.947422	0.003751
C71	C	-0.371117	0.947422	-0.141796
C72	C	-0.326871	0.947430	-0.141796
C73	C	-0.301963	0.947421	-0.069014
C74	C	0.168677	0.947484	-0.141772
C75	C	0.212922	0.947500	-0.141770
C76	C	0.218485	0.947493	0.003779
C77	C	0.174243	0.947484	0.003774
C78	C	0.149341	0.947475	-0.069006
O79	O	0.106603	0.947501	0.065600
O80	O	0.096290	0.947446	-0.203651
C81	C	-0.101207	0.947430	-0.141774
C82	C	-0.120543	0.947420	-0.069001
C83	C	-0.095636	0.947420	0.003770
C84	C	-0.164790	0.947420	-0.069005
C85	C	-0.189696	0.947420	-0.141776
C86	C	-0.170355	0.947419	-0.214544
C87	C	-0.126113	0.947430	-0.214546
C88	C	-0.114978	0.947421	0.076539
C89	C	-0.159220	0.947412	0.076533
C90	C	-0.184126	0.947411	0.003762
C91	C	0.562448	0.947432	-0.069018
C92	C	0.609542	0.947422	-0.069021
C93	C	0.413583	0.947467	-0.332523
C94	C	0.410155	0.947469	-0.421957
C95	C	0.411999	1.231664	-0.089699
C96	C	0.408033	1.328119	-0.096721
C97	C	0.480367	0.947434	-0.590007
C98	C	0.477148	0.947435	-0.674038
C99	C	0.400500	0.947465	-0.674047
C100	C	0.403720	0.947463	-0.590016
C101	C	0.443654	0.947450	-0.548000
C102	C	0.446870	0.947457	-0.463972
C103	C	0.370225	0.947477	-0.463978
C104	C	0.367006	0.947479	-0.548009
C105	C	0.433787	0.947455	0.194504
C106	C	0.437215	0.947453	0.283938
C107	C	0.574134	0.663229	-0.048328
C108	C	0.625194	0.566763	-0.041309
C109	C	0.445473	0.663252	0.215193
C110	C	0.452867	0.566794	0.311649
C111	C	0.584235	0.663223	0.215185
C112	C	0.638725	0.566755	0.311638
C113	C	0.263135	1.231699	-0.353204
C114	C	0.208646	1.328166	-0.449657
C115	C	0.273237	1.231693	-0.089691
C116	C	0.222176	1.328158	-0.096710
C117	C	0.401898	1.231669	-0.353213
C118	C	0.394503	1.328127	-0.449669
C119	C	0.620104	0.521469	-0.089477
C120	C	0.668076	0.430841	-0.082902
C121	C	0.721137	0.385504	-0.028154
C122	C	0.726226	0.430808	0.020014
C123	C	0.678255	0.521439	0.013433
C124	C	0.485409	0.521490	0.408409
C125	C	0.492355	0.430870	0.499047
C126	C	0.466762	0.385551	0.492923
C127	C	0.434216	0.430864	0.396152
C128	C	0.427267	0.521488	0.305516
C129	C	0.689441	0.521448	0.305476
C130	C	0.740643	0.430819	0.396094
C131	C	0.741127	0.385493	0.492875
C132	C	0.690405	0.430808	0.499035
C133	C	0.639204	0.521442	0.408417
C134	C	0.157928	1.373484	-0.443496
C135	C	0.106725	1.464141	-0.534117
C136	C	0.106241	1.509473	-0.630898
C137	C	0.156964	1.464151	-0.637057
C138	C	0.208166	1.373502	-0.546438
C139	C	0.227266	1.373462	-0.048552
C140	C	0.179292	1.464115	-0.055152
C141	C	0.126230	1.509455	-0.109903
C142	C	0.121141	1.464147	-0.158067
C143	C	0.169114	1.373503	-0.151473
C144	C	0.420104	1.373418	-0.443511
C145	C	0.413167	1.464039	-0.534132
C146	C	0.380625	1.509372	-0.630911
C147	C	0.355024	1.464072	-0.637067
C148	C	0.361965	1.373448	-0.546446
H149	H	0.520119	0.415968	0.101710
H150	H	0.065431	1.501027	-0.529081
H151	H	0.238769	0.947498	0.063027
C152	C	0.370514	0.512334	0.212939
C153	C	0.391503	0.571266	0.199159
H154	H	0.348437	0.543057	0.147279
H155	H	0.347853	0.527212	0.246764
H156	H	0.401021	0.426764	0.254106
H157	H	0.360997	0.656835	0.157999
H158	H	0.414166	0.556397	0.165318
H159	H	0.689058	0.558340	0.226680
H160	H	0.228662	0.947512	-0.201039
C161	C	0.181035	1.565888	-0.758140
C162	C	0.156473	1.513810	-0.743401
H163	H	0.180742	1.596498	-0.823784
H164	H	0.218771	1.505446	-0.705020
H165	H	0.160243	1.631056	-0.755628
H166	H	0.177268	1.448636	-0.745906
H167	H	0.118731	1.574259	-0.796536
C168	C	0.486279	1.052097	-0.824677
C169	C	0.517503	0.947421	-0.720216
H170	H	0.511196	1.052079	-0.853183
H171	H	0.464433	1.123094	-0.829975
H172	H	0.462038	1.052094	-0.861720
H173	H	0.541741	0.947428	-0.683171
H174	H	0.539359	0.876405	-0.714910
C175	C	0.106808	1.382637	-0.253837
C176	C	0.163514	1.323696	-0.204399
H177	H	0.103350	1.351884	-0.286507
H178	H	0.085462	1.468190	-0.304478
H179	H	0.093158	1.367789	-0.204047
H180	H	0.177163	1.338551	-0.254190
H181	H	0.184868	1.238122	-0.153752
C182	C	0.005546	1.639295	-0.704642
C183	C	0.049957	1.609107	-0.730502
H184	H	-0.029202	1.700797	-0.766132
H185	H	0.005791	1.668996	-0.668796
H186	H	0.009926	1.568566	-0.661473
H187	H	0.045579	1.679835	-0.773666
H188	H	0.049710	1.579410	-0.766364
C189	C	0.485876	0.947321	-0.335090
C190	C	0.490791	0.947353	-0.417737
H191	H	0.512999	0.947236	-0.306538
H192	H	0.492144	0.876350	-0.283276
H193	H	0.449153	1.018372	-0.359412
H194	H	0.527513	0.876297	-0.393413
H195	H	0.484528	1.018332	-0.469560
H196	H	0.249460	1.336605	-0.551467
H197	H	0.367991	0.947464	-0.708261
H198	H	0.087172	1.583264	-0.115264
H199	H	0.340329	0.947495	-0.429769
C200	C	0.549138	0.439970	0.591634
C201	C	0.528136	0.381063	0.605409
H202	H	0.571231	0.409215	0.657297
H203	H	0.518643	0.525529	0.550491
H204	H	0.571793	0.425097	0.557786
H205	H	0.505478	0.395944	0.639250
H206	H	0.558636	0.295484	0.646569
H207	H	0.760194	0.311705	-0.022802
H208	H	0.472424	0.311759	0.566733
C209	C	0.825582	0.291831	0.075807
C210	C	0.784556	0.380953	0.080203
H211	H	0.861593	0.261044	0.112975
H212	H	0.817647	0.327206	0.005540
H213	H	0.825333	0.226792	0.105942
H214	H	0.784802	0.445998	0.050060
H215	H	0.792493	0.345580	0.150483
C216	C	0.279912	1.382567	0.052498
C217	C	0.285588	1.323638	0.011635
H218	H	0.315917	1.351817	0.089649
H219	H	0.263839	1.367716	0.097990
H220	H	0.256138	1.468133	-0.002437
H221	H	0.309359	1.238072	0.066571
H222	H	0.301669	1.338480	-0.033860
H223	H	-0.190643	0.947425	-0.273802
C224	C	0.303784	1.382629	-0.657313
C225	C	0.333813	1.323685	-0.553226
H226	H	0.286401	1.351914	-0.661503
H227	H	0.328866	1.367750	-0.686855
H228	H	0.275714	1.468198	-0.694167
H229	H	0.361887	1.238116	-0.516373
H230	H	0.308730	1.338553	-0.523671
H231	H	0.183447	1.500989	-0.015926
H232	H	0.434015	1.500912	-0.529101
C233	C	0.167627	0.947501	-0.285648
C234	C	0.141306	0.947484	-0.221778
H235	H	0.150725	0.947515	-0.335046
H236	H	0.206517	0.876496	-0.244534
H237	H	0.163481	1.018519	-0.320694
H238	H	0.145456	0.876462	-0.186726
H239	H	0.102407	1.018497	-0.262897
H240	H	0.506251	0.558379	0.413416
C241	C	0.021788	1.603102	-0.213838
C242	C	0.062813	1.513985	-0.218238
H243	H	-0.014221	1.633860	-0.250976
H244	H	0.022024	1.668152	-0.243993
H245	H	0.029734	1.567725	-0.143558
H246	H	0.054869	1.549365	-0.288518
H247	H	0.062575	1.448924	-0.188087
H248	H	0.488130	0.194111	0.045050
H249	H	0.682408	0.558306	0.052664
H250	H	0.781939	0.393932	0.391061
H251	H	0.413380	0.393951	0.391181
C252	C	0.326172	0.735555	-0.332095
C253	C	0.307328	0.678656	-0.274986
H254	H	0.294819	0.819578	-0.387585
H255	H	0.345533	0.696944	-0.359183
H256	H	0.350938	0.728747	-0.288247
H257	H	0.282566	0.685456	-0.318832
H258	H	0.287959	0.717278	-0.247898
H259	H	0.782822	0.311693	0.566655
H260	H	0.446601	1.336521	-0.364717
C261	C	0.635614	0.439886	0.591710
C262	C	0.690942	0.380983	0.605422
H263	H	0.635948	0.409126	0.657392
H264	H	0.618754	0.425024	0.557891
H265	H	0.614621	0.525455	0.550562
H266	H	0.711934	0.295414	0.646564
H267	H	0.707809	0.395835	0.639257
C268	C	0.578401	0.842756	-0.507964
C269	C	0.524253	0.947435	-0.543813
H270	H	0.605492	0.842760	-0.479440
H271	H	0.581743	0.842763	-0.564017
H272	H	0.584695	0.771753	-0.456109
H273	H	0.517958	1.018439	-0.595674
H274	H	0.520909	0.947440	-0.487754
H275	H	0.374978	1.583165	-0.704693
H276	H	0.359236	0.700804	-0.183079
H277	H	0.597910	0.558319	0.413449
C278	C	0.039036	1.052098	0.104849
C279	C	0.045149	0.947415	0.156553
H280	H	0.055942	1.052095	0.154234
H281	H	0.000144	1.123091	0.063751
H282	H	0.056886	1.052091	0.061510
H283	H	0.027295	0.947426	0.199887
H284	H	0.084049	0.876404	0.197670
C285	C	0.520742	0.660413	-0.145279
C286	C	0.561781	0.571296	-0.149665
H287	H	0.484738	0.691166	-0.182437
H288	H	0.520976	0.725465	-0.175419
H289	H	0.528676	0.625036	-0.075003
H290	H	0.553849	0.606674	-0.219940
H291	H	0.561546	0.506232	-0.119528
H292	H	0.327250	0.478967	-0.239734
C293	C	0.328035	0.947502	-0.676832
C294	C	0.323110	0.947502	-0.594202
H295	H	0.300931	0.947527	-0.705352
H296	H	0.364763	0.876486	-0.652509
H297	H	0.321742	1.018508	-0.728680
H298	H	0.329407	0.876492	-0.542350
H299	H	0.286373	1.018526	-0.618523
H300	H	0.328529	1.500997	-0.715876
H301	H	-0.311131	0.947439	-0.201059
H302	H	0.526877	0.251546	0.113658
H303	H	0.022354	0.947465	-0.273810
H304	H	0.158312	1.336580	-0.364700
C305	C	-0.038681	0.947473	-0.358420
C306	C	-0.065005	0.947461	-0.294554
H307	H	-0.055585	0.947494	-0.407823
H308	H	0.000207	0.876462	-0.317303
H309	H	-0.042822	1.018484	-0.393459
H310	H	-0.060860	0.876444	-0.259509
H311	H	-0.103903	1.018479	-0.335676
H312	H	-0.391404	0.947424	-0.201051
C313	C	0.605769	0.439968	-0.185264
C314	C	0.662474	0.381044	-0.135841
H315	H	0.602312	0.409219	-0.217939
H316	H	0.584417	0.525525	-0.235900
H317	H	0.592126	0.425102	-0.135465
H318	H	0.676116	0.395918	-0.185641
H319	H	0.683833	0.295467	-0.085199
C320	C	-0.355592	0.947413	0.147619
C321	C	-0.386805	0.947421	0.083746
H322	H	-0.368709	0.947400	0.197013
H323	H	-0.359969	1.018422	0.106506
H324	H	-0.316930	0.876399	0.182670
H325	H	-0.425466	1.018440	0.048689
H326	H	-0.382433	0.876405	0.124864
H327	H	-0.042217	0.947407	0.135823
C328	C	-0.236598	0.842739	0.144362
C329	C	-0.293929	0.947419	0.083758
H330	H	-0.219702	0.842740	0.193754
H331	H	-0.218748	0.842746	0.101031
H332	H	-0.232464	0.771736	0.179415
H333	H	-0.298063	1.018422	0.048699
H334	H	-0.311784	0.947423	0.127095
C335	C	0.159442	0.842791	0.144361
C336	C	0.152984	0.947480	0.083768
H337	H	0.146320	0.842786	0.193747
H338	H	0.198103	0.771802	0.179412
H339	H	0.138274	0.842797	0.101015
H340	H	0.174156	0.947469	0.127114
H341	H	0.114317	1.018487	0.048715
C342	C	-0.199806	1.052072	0.144471
C343	C	-0.180468	0.947399	0.156542
H344	H	-0.212916	1.052049	0.193873
H345	H	-0.229724	1.123072	0.076497
H346	H	-0.169887	1.052068	0.154875
H347	H	-0.210389	0.947407	0.146131
H348	H	-0.150547	0.876381	0.224532
C349	C	-0.093720	1.052113	0.104834
C350	C	-0.087607	0.947428	0.156533
H351	H	-0.076822	1.052115	0.154222
H352	H	-0.132612	1.123104	0.063725
H353	H	-0.075863	1.052101	0.061506
H354	H	-0.105467	0.947444	0.199855
H355	H	-0.048707	0.876418	0.197659
H356	H	-0.110374	0.947439	-0.273809
