data_functionalizedCrystal
_audit_creation_method	'MofGen! by Chris Wilmer'
_symmetry_space_group_name_H-M	'P1'
_symmetry_Int_Tables_number	1
_symmetry_cell_setting	triclinic
loop_
_symmetry_equiv_pos_as_xyz
  x,y,z
_cell_length_a	12.827893
_cell_length_b	18.050590
_cell_length_c	12.827885
_cell_angle_alpha	90.034683
_cell_angle_beta	90.019272
_cell_angle_gamma	90.018713
loop_
_atom_site_label
_atom_site_type_symbol
_atom_site_fract_x
_atom_site_fract_y
_atom_site_fract_z
Zn1	Zn	1.597647	-0.295620	0.590813
Zn2	Zn	1.597531	-0.419828	0.416058
Zn3	Zn	1.422888	-0.295657	0.416087
Zn4	Zn	1.422864	-0.419773	0.590758
O5	O	1.510232	-0.357720	0.503429
O6	O	1.743867	-0.312104	0.567643
O7	O	1.574326	-0.403395	0.269826
O8	O	1.446129	-0.191727	0.439299
O9	O	1.743782	-0.403359	0.439251
O10	O	1.574523	-0.191701	0.567670
O11	O	1.446017	-0.312167	0.269847
O12	O	1.276649	-0.312114	0.439246
O13	O	1.446087	-0.403266	0.737002
O14	O	1.276631	-0.403301	0.567577
O15	O	1.574499	-0.312051	0.737042
O16	O	1.574303	-0.523745	0.439198
O17	O	1.445975	-0.523705	0.567549
C18	C	1.238722	-0.357706	0.503409
C19	C	1.122569	-0.357718	0.503426
C20	C	1.070826	-0.312642	0.567057
C21	C	0.950776	-0.312654	0.567075
C22	C	1.510152	-0.550672	0.503388
C23	C	1.510213	-0.633218	0.503405
C24	C	1.580143	-0.832663	0.433705
C25	C	1.605673	-0.881988	0.529080
C26	C	1.510273	-0.784348	0.503446
C27	C	1.484849	-0.882104	0.408114
C28	C	1.510332	-0.930333	0.503478
C29	C	1.535851	-0.832586	0.598872
C30	C	1.414984	-0.832698	0.477842
C31	C	1.440477	-0.882000	0.573282
C32	C	1.510241	-0.700250	0.503427
C33	C	1.510363	-1.014429	0.503509
C34	C	1.782802	-0.357734	0.503450
C35	C	1.898956	-0.357740	0.503459
C36	C	1.510303	-0.357648	0.776000
C37	C	1.510334	-0.357618	0.892153
C38	C	1.510341	-0.164014	0.503494
C39	C	1.510388	-0.081468	0.503521
C40	C	1.510222	-0.357737	0.231919
C41	C	1.510394	-0.357558	0.115767
C42	C	1.573883	-0.312473	0.943957
C43	C	1.573916	-0.312441	1.064008
H44	H	1.115404	-0.274040	0.621516
O45	O	0.897585	-0.266716	0.632121
C46	C	0.834492	-0.309103	0.699481
H47	H	0.818215	-0.365364	0.662471
H48	H	0.876530	-0.317296	0.776934
C49	C	0.750766	-0.199234	0.763885
C50	C	0.730767	-0.268333	0.718425
H51	H	0.686785	-0.174085	0.775576
H52	H	0.793275	-0.170676	0.718507
H53	H	0.785801	-0.206071	0.828424
H54	H	0.695746	-0.261495	0.653882
H55	H	0.688250	-0.296889	0.763793
H56	H	1.463322	-0.903855	0.327480
O57	O	1.638726	-0.266351	1.117309
C58	C	1.624341	-0.276587	1.225306
H59	H	1.543673	-0.300914	1.240095
H60	H	1.686288	-0.316147	1.256274
C61	C	1.732996	-0.171586	1.263302
C62	C	1.633914	-0.201460	1.281467
H63	H	1.738905	-0.125246	1.297947
H64	H	1.742690	-0.164692	1.190543
H65	H	1.784607	-0.204561	1.289110
H66	H	1.582306	-0.168491	1.255648
H67	H	1.624211	-0.208348	1.354224
H68	H	0.943447	-0.396337	0.448985
O69	O	1.445628	-0.403709	1.062516
C70	C	1.505143	-0.451666	0.999391
H71	H	1.584363	-0.425470	0.983165
H72	H	1.516566	-0.506718	1.041375
C73	C	1.350412	-0.497244	0.915570
C74	C	1.447708	-0.465068	0.895634
H75	H	1.314983	-0.505514	0.851570
H76	H	1.310314	-0.464937	0.958101
H77	H	1.359945	-0.543118	0.950559
H78	H	1.438174	-0.419191	0.860658
H79	H	1.487803	-0.497368	0.853095
O80	O	1.650793	-0.806846	0.363534
C81	C	1.751182	-0.831977	0.390930
H82	H	1.753110	-0.845783	0.477616
H83	H	1.770824	-0.883677	0.343786
C84	C	1.829333	-0.753982	0.260975
C85	C	1.831704	-0.770933	0.367446
H86	H	1.879004	-0.716330	0.246485
H87	H	1.761699	-0.737053	0.242514
H88	H	1.845698	-0.797071	0.221701
H89	H	1.815326	-0.727848	0.406717
H90	H	1.899337	-0.787854	0.385913
O91	O	1.445304	-0.403623	0.945216
C92	C	1.341129	-0.387427	0.918602
H93	H	1.335847	-0.328126	0.888545
H94	H	1.313717	-0.427302	0.855316
C95	C	1.277986	-0.468811	1.052535
C96	C	1.271497	-0.395975	1.015628
H97	H	1.235032	-0.474087	1.112383
H98	H	1.348171	-0.479725	1.070463
H99	H	1.255144	-0.502032	0.999788
H100	H	1.294351	-0.362756	1.068370
H101	H	1.201314	-0.385055	0.997710
O102	O	1.069514	-0.403874	0.438499
C103	C	1.096078	-0.477926	0.461143
H104	H	1.175372	-0.479542	0.501228
H105	H	1.034691	-0.502949	0.514872
C106	C	1.003521	-0.520844	0.309917
C107	C	1.100914	-0.522830	0.359142
H108	H	1.006499	-0.548545	0.247000
H109	H	0.985620	-0.470955	0.294663
H110	H	0.952374	-0.541696	0.354702
H111	H	1.152056	-0.501970	0.314363
H112	H	1.118824	-0.572718	0.374387
H113	H	1.686282	-0.903642	0.550757
H114	H	1.557299	-0.810927	0.679575
H115	H	1.334397	-0.811028	0.456136
O116	O	1.370134	-0.907653	0.643877
C117	C	1.397342	-0.882266	0.744231
H118	H	1.484037	-0.868439	0.746293
H119	H	1.350206	-0.830526	0.763586
C120	C	1.267149	-0.960089	0.822392
C121	C	1.373630	-0.943112	0.824926
H122	H	1.252518	-0.997620	0.872170
H123	H	1.248814	-0.977191	0.754781
H124	H	1.227881	-0.916967	0.838518
H125	H	1.412895	-0.986231	0.808787
H126	H	1.391971	-0.926019	0.892536
H127	H	1.628262	-0.273845	0.899432
