data_functionalizedCrystal
_audit_creation_method	'MofGen! by Chris Wilmer'
_symmetry_space_group_name_H-M	'P1'
_symmetry_Int_Tables_number	1
_symmetry_cell_setting	triclinic
loop_
_symmetry_equiv_pos_as_xyz
  x,y,z
_cell_length_a	6.817900
_cell_length_b	15.301126
_cell_length_c	12.200875
_cell_angle_alpha	94.042470
_cell_angle_beta	107.143593
_cell_angle_gamma	104.177575
loop_
_atom_site_label
_atom_site_type_symbol
_atom_site_fract_x
_atom_site_fract_y
_atom_site_fract_z
V1	V	-4.071837	-0.124964	-0.358010
V2	V	-3.571837	0.375036	0.141990
O3	O	-4.054876	0.005794	-0.350836
O4	O	-3.554876	0.505794	0.149164
O5	O	-4.026524	-0.247580	-0.355907
O6	O	-3.526524	0.252420	0.144093
O7	O	-4.041509	-0.123134	-0.513993
O8	O	-3.541509	0.376866	-0.013993
O9	O	-4.039788	-0.119513	-0.191655
O10	O	-3.539788	0.380487	0.308345
V11	V	-4.552723	-0.109313	-0.338071
V12	V	-4.052723	0.390687	0.161929
O13	O	-4.338879	-0.159296	-0.401749
O14	O	-3.838879	0.340704	0.098251
O15	O	-4.735879	-0.074981	-0.294332
O16	O	-4.235879	0.425019	0.205668
O17	O	-4.374830	0.013303	-0.340174
O18	O	-3.874830	0.513303	0.159826
O19	O	-4.687081	-0.240071	-0.345245
O20	O	-4.187081	0.259929	0.154755
O21	O	-4.702170	-0.114764	-0.504426
O22	O	-4.202170	0.385236	-0.004426
O23	O	-4.359845	-0.111142	-0.182088
O24	O	-3.859845	0.388858	0.317912
C25	C	-3.871691	-0.277468	-0.350348
C26	C	-3.371691	0.222532	0.149652
C27	C	-3.916049	-0.377708	-0.349668
C28	C	-3.416049	0.122292	0.150332
C29	C	-4.119790	-0.429397	-0.355083
C30	C	-3.619790	0.070603	0.144917
C31	C	-4.161461	-0.523585	-0.354451
C32	C	-3.661461	-0.023585	0.145549
C33	C	-3.999384	-0.566080	-0.348395
C34	C	-3.499384	-0.066080	0.151605
C35	C	-3.795627	-0.514384	-0.342983
C36	C	-3.295627	-0.014384	0.157017
C37	C	-3.753964	-0.420200	-0.343623
C38	C	-3.253964	0.079800	0.156377
C39	C	-3.882480	-0.710694	-0.341645
C40	C	-3.382480	-0.210694	0.158355
C41	C	-3.924144	-0.804885	-0.341002
C42	C	-3.424144	-0.304885	0.158998
C43	C	-4.289977	-0.814079	-0.352472
C44	C	-3.789977	-0.314079	0.147528
C45	C	-4.248314	-0.719895	-0.353113
C46	C	-3.748314	-0.219895	0.146887
C47	C	-4.044558	-0.668205	-0.347699
C48	C	-3.544558	-0.168205	0.152301
C49	C	-3.890804	-0.118724	-0.552002
C50	C	-3.390804	0.381276	-0.052002
C51	C	-3.947311	-0.118039	-0.679521
C52	C	-3.447311	0.381961	-0.179521
C53	C	-4.050728	-0.116787	-0.912992
C54	C	-3.550728	0.383213	-0.412992
C55	C	-3.993171	-0.117483	-0.783072
C56	C	-3.493171	0.382517	-0.283072
C57	C	-4.193005	0.043186	-0.345730
C58	C	-3.693005	0.543186	0.154270
C59	C	-4.127886	0.143426	-0.346418
C60	C	-3.627886	0.643426	0.153582
C61	C	-4.173891	-0.115555	-0.144073
C62	C	-3.673891	0.384445	0.355927
C63	C	-4.096622	-0.116236	-0.016553
C64	C	-3.596622	0.383764	0.483447
H65	H	-4.327365	-0.565666	-0.358862
H66	H	-3.827365	-0.065666	0.141138
H67	H	-3.663668	-0.548992	-0.338059
H68	H	-3.163668	-0.048992	0.161941
H69	H	-4.380291	-0.685297	-0.358037
H70	H	-3.880291	-0.185297	0.141963
H71	H	-4.251773	-0.394804	-0.360003
H72	H	-3.751773	0.105196	0.139997
H73	H	-3.792181	-0.839486	-0.336105
H74	H	-3.292181	-0.339486	0.163895
H75	H	-4.455875	-0.856167	-0.356864
H76	H	-3.955875	-0.356167	0.143136
H77	H	-3.716568	-0.668612	-0.337245
H78	H	-3.216568	-0.168612	0.162755
H79	H	-3.588061	-0.378116	-0.339219
H80	H	-3.088061	0.121884	0.160781
