data_functionalizedCrystal
_audit_creation_method	'MofGen! by Chris Wilmer'
_symmetry_space_group_name_H-M	'P1'
_symmetry_Int_Tables_number	1
_symmetry_cell_setting	triclinic
loop_
_symmetry_equiv_pos_as_xyz
  x,y,z
_cell_length_a	12.784890
_cell_length_b	11.892095
_cell_length_c	10.654550
_cell_angle_alpha	93.928097
_cell_angle_beta	101.204269
_cell_angle_gamma	93.486694
loop_
_atom_site_label
_atom_site_type_symbol
_atom_site_fract_x
_atom_site_fract_y
_atom_site_fract_z
O1	O	1.417105	0.093968	0.000910
O2	O	1.108046	0.093977	-0.052830
O3	O	1.269681	0.093969	0.157628
O4	O	1.255470	0.093977	-0.209548
O5	O	1.256204	-0.094038	0.140105
O6	O	1.094569	-0.094029	-0.070353
O7	O	1.403628	-0.094038	-0.016613
Zn8	Zn	1.246959	-0.123884	-0.046265
Zn9	Zn	1.264716	0.123823	-0.023178
O10	O	1.241993	-0.094029	-0.227071
C11	C	1.061734	-0.000025	-0.065086
C12	C	0.943817	-0.000021	-0.075486
N13	N	1.234848	-0.292937	-0.062020
C14	C	0.765802	-0.000017	-0.205824
C15	C	0.876595	-0.000017	-0.196061
C16	C	0.900240	-0.000022	0.035334
C17	C	0.789447	-0.000022	0.025571
C18	C	0.722231	-0.000021	-0.095013
C19	C	0.611436	-0.000029	-0.104776
C20	C	0.635083	-0.000026	0.126619
C21	C	0.745876	-0.000026	0.136382
C22	C	1.361105	-0.529592	0.102288
C23	C	1.352648	-0.647934	0.091268
C24	C	1.209472	-0.647964	-0.095075
C25	C	1.217929	-0.529622	-0.084055
C26	C	1.293749	-0.470441	0.014629
C27	C	1.302211	-0.352097	0.025644
C28	C	1.159031	-0.352130	-0.160693
C29	C	1.150573	-0.470471	-0.171714
C30	C	1.449941	-0.000034	-0.004356
C31	C	1.567858	-0.000030	0.006044
C32	C	1.261899	-0.000033	0.195540
C33	C	1.258778	-0.000029	0.334611
N34	N	1.276834	0.292876	-0.007412
C35	C	1.249775	-0.000025	-0.264982
C36	C	1.252897	-0.000022	-0.404052
C37	C	1.353946	-0.000036	0.425469
C38	C	1.351006	-0.000028	0.556139
C39	C	1.157722	-0.000012	0.505079
C40	C	1.160663	-0.000012	0.374412
C41	C	1.465537	-0.000049	0.454949
C42	C	1.462597	-0.000041	0.585619
H43	H	0.556709	-0.000034	-0.202961
H44	H	1.422848	-0.481406	0.182633
H45	H	1.514824	0.078624	0.438140
H46	H	0.711072	-0.000029	-0.304009
H47	H	0.912065	-0.000016	-0.286295
H48	H	0.954986	-0.000014	0.133507
H49	H	1.495252	-0.081228	0.416003
H50	H	0.800618	-0.000023	0.234558
H51	H	1.088839	-0.518670	-0.252058
H52	H	1.104188	-0.303955	-0.232074
H53	H	0.599603	0.000061	0.216858
H54	H	1.147733	-0.696165	-0.175414
H55	H	1.363950	-0.303912	0.105994
H56	H	1.407494	-0.696091	0.162650
H57	H	1.083169	0.000009	0.300439
H58	H	1.077841	0.000003	0.537502
H59	H	1.502141	0.081134	0.642859
H60	H	1.499003	-0.078722	0.625071
