data_functionalizedCrystal
_audit_creation_method	'MofGen! by Chris Wilmer'
_symmetry_space_group_name_H-M	'P1'
_symmetry_Int_Tables_number	1
_symmetry_cell_setting	triclinic
loop_
_symmetry_equiv_pos_as_xyz
  x,y,z
_cell_length_a	12.837943
_cell_length_b	12.837942
_cell_length_c	11.892095
_cell_angle_alpha	94.302569
_cell_angle_beta	85.689438
_cell_angle_gamma	94.828940
loop_
_atom_site_label
_atom_site_type_symbol
_atom_site_fract_x
_atom_site_fract_y
_atom_site_fract_z
O1	O	1.408367	0.266110	-0.093982
O2	O	1.105234	0.252667	-0.093989
O3	O	1.250078	0.107822	-0.093979
O4	O	1.263522	0.410955	-0.093992
O5	O	1.237999	0.119879	0.094028
O6	O	1.093155	0.264723	0.094018
O7	O	1.396288	0.278167	0.094025
Zn8	Zn	1.242803	0.273359	0.123871
Zn9	Zn	1.258718	0.257474	-0.123836
O10	O	1.251443	0.423011	0.094014
C11	C	1.060125	0.254153	0.000014
C12	C	0.943710	0.240609	0.000011
C13	C	0.718835	0.403439	0.000020
C14	C	0.609453	0.390717	0.000019
C15	C	0.615561	0.202446	0.000015
C16	C	0.724943	0.215167	0.000017
C17	C	0.776577	0.315667	0.000017
C18	C	0.885961	0.328387	0.000011
C19	C	0.892066	0.140117	0.000015
C20	C	0.782684	0.127395	0.000014
C21	C	1.239497	0.074781	0.000024
C22	C	1.225953	-0.041634	0.000022
C23	C	1.388784	-0.266509	0.000002
C24	C	1.376062	-0.375892	-0.000000
C25	C	1.187791	-0.369784	0.000007
C26	C	1.200512	-0.260402	0.000009
C27	C	1.301011	-0.208768	0.000008
C28	C	1.313731	-0.099383	0.000019
C29	C	1.125461	-0.093278	0.000018
C30	C	1.112740	-0.202660	0.000016
C31	C	1.441397	0.276680	0.000020
C32	C	1.557812	0.290224	0.000015
C33	C	1.262024	0.456052	0.000009
C34	C	1.275569	0.572467	0.000004
N35	N	1.231950	0.284200	0.292925
N36	N	1.269579	0.246626	-0.292889
C37	C	1.345098	0.171130	0.529580
C38	C	1.337519	0.178716	0.647922
C39	C	1.209210	0.306952	0.647951
C40	C	1.216788	0.299366	0.529610
C41	C	1.284736	0.231454	0.470428
C42	C	1.292319	0.223874	0.352085
C43	C	1.164005	0.352104	0.352116
C44	C	1.156426	0.359690	0.470458
H45	H	0.740628	0.045572	0.000026
O46	O	0.774532	0.511829	0.000025
H47	H	0.756992	0.549619	-0.076600
H48	H	1.030916	-0.244716	0.000012
O49	O	1.030790	-0.030990	0.000030
H50	H	0.978300	-0.045607	0.076667
H51	H	0.928000	0.410219	0.000013
O52	O	0.547180	0.485390	0.000020
H53	H	0.492285	0.489012	0.076654
H54	H	1.395563	-0.057344	0.000022
O55	O	0.954341	0.045438	0.000018
H56	H	1.039076	0.071164	0.000026
O57	O	0.559862	0.094057	0.000032
H58	H	0.474102	0.099963	0.000033
H59	H	1.101102	0.414980	0.518656
H60	H	1.386671	0.129593	0.696080
H61	H	1.114857	0.401227	0.303941
H62	H	1.347647	0.168579	0.303901
H63	H	1.153882	0.362237	0.696151
O64	O	1.497171	-0.210807	-0.000001
H65	H	1.556070	-0.269337	-0.000011
O66	O	1.470728	-0.438175	0.000006
H67	H	1.542743	-0.383889	0.000016
H68	H	1.105969	-0.411844	-0.000004
H69	H	1.400430	0.115841	0.481394
