data_functionalizedCrystal
_audit_creation_method	'MofGen! by Chris Wilmer'
_symmetry_space_group_name_H-M	'P1'
_symmetry_Int_Tables_number	1
_symmetry_cell_setting	triclinic
loop_
_symmetry_equiv_pos_as_xyz
  x,y,z
_cell_length_a	6.817900
_cell_length_b	15.301126
_cell_length_c	10.992410
_cell_angle_alpha	93.551656
_cell_angle_beta	108.764651
_cell_angle_gamma	104.177575
loop_
_atom_site_label
_atom_site_type_symbol
_atom_site_fract_x
_atom_site_fract_y
_atom_site_fract_z
V1	V	-4.090843	-0.124759	-0.400984
O2	O	-4.073501	0.005995	-0.392949
O3	O	-4.045418	-0.247376	-0.398628
O4	O	-4.068795	-0.122840	-0.575690
O5	O	-4.049962	-0.119403	-0.214660
V6	V	-4.570670	-0.109119	-0.378651
O7	O	-4.360207	-0.159066	-0.449972
O8	O	-4.751504	-0.074812	-0.329662
O9	O	-4.392889	0.013498	-0.381007
O10	O	-4.705409	-0.239873	-0.386686
O11	O	-4.728948	-0.114475	-0.564974
O12	O	-4.369512	-0.111038	-0.203944
C13	C	-3.890289	-0.277267	-0.392402
C14	C	-3.934612	-0.377508	-0.391640
C15	C	-3.920108	-0.118408	-0.618261
C16	C	-3.983385	-0.117650	-0.761087
C17	C	-4.138640	-0.429194	-0.397705
C18	C	-4.180278	-0.523382	-0.396997
C19	C	-4.017879	-0.565880	-0.390214
C20	C	-3.813835	-0.514188	-0.384153
C21	C	-3.772205	-0.420003	-0.384870
C22	C	-3.900616	-0.710499	-0.382654
C23	C	-3.942247	-0.804689	-0.381934
C24	C	-4.308689	-0.813877	-0.394781
C25	C	-4.267059	-0.719692	-0.395499
C26	C	-4.063016	-0.668006	-0.389434
C27	C	-3.851803	-0.110746	-0.956188
C28	C	-3.786035	-0.111908	-0.807709
C29	C	-4.164721	-0.206559	-0.838469
C30	C	-4.229182	-0.205773	-0.987033
C31	C	-4.139246	-0.033613	-0.948462
C32	C	-4.068616	-0.033192	-0.799448
C33	C	-4.211358	0.043384	-0.387229
C34	C	-4.146276	0.143624	-0.387999
C35	C	-4.181539	-0.115473	-0.161367
C36	C	-4.097501	-0.116226	-0.018540
H37	H	-4.270884	-0.394598	-0.403216
H38	H	-4.346416	-0.565461	-0.401938
H39	H	-3.681614	-0.548798	-0.378638
H40	H	-3.649573	-0.047979	-0.754168
H41	H	-3.937701	0.032579	-0.746884
C42	C	-4.443270	-0.673450	-0.403058
C43	C	-4.485139	-0.631780	-0.514915
C44	C	-4.647432	-0.589161	-0.521916
H45	H	-4.570913	-0.717626	-0.406643
H46	H	-4.397291	-0.628613	-0.328347
H47	H	-4.531127	-0.676612	-0.589607
H48	H	-4.357543	-0.587590	-0.511355
H49	H	-4.601453	-0.544325	-0.447205
H50	H	-4.775061	-0.633344	-0.525497
H51	H	-4.675847	-0.560876	-0.597803
H52	H	-4.409733	-0.213504	-1.029689
C53	C	-4.530416	-0.869908	-0.401573
C54	C	-4.685974	-0.861910	-0.516688
C55	C	-4.890241	-0.913509	-0.522970
H56	H	-4.532265	-0.932114	-0.400254
H57	H	-4.561625	-0.848114	-0.329069
H58	H	-4.654774	-0.883709	-0.589172
H59	H	-4.684194	-0.799716	-0.518032
H60	H	-4.921450	-0.891715	-0.450466
H61	H	-4.892067	-0.975712	-0.521647
H62	H	-4.995814	-0.908083	-0.601068
H63	H	-4.210925	-0.032148	-0.766933
C64	C	-3.550508	-0.363899	-0.378010
C65	C	-3.394984	-0.371860	-0.262855
C66	C	-3.190736	-0.320182	-0.256488
H67	H	-3.519105	-0.385629	-0.450453
H68	H	-3.548851	-0.301701	-0.379338
H69	H	-3.396635	-0.434045	-0.261538
H70	H	-3.426316	-0.350124	-0.190392
H71	H	-3.189079	-0.257985	-0.257817
H72	H	-3.159355	-0.341917	-0.328936
H73	H	-3.085191	-0.325570	-0.178351
H74	H	-3.810024	-0.839293	-0.376450
C75	C	-3.803478	-0.189769	-1.020561
C76	C	-3.649571	-0.155671	-1.077523
C77	C	-3.605035	-0.228440	-1.136856
H78	H	-3.749009	-0.225460	-0.957128
H79	H	-3.932148	-0.226564	-1.085627
H80	H	-3.520926	-0.118892	-1.012464
H81	H	-3.703996	-0.119989	-1.140974
H82	H	-3.733705	-0.265235	-1.201922
H83	H	-3.550573	-0.264126	-1.073414
H84	H	-3.500621	-0.205315	-1.175521
H85	H	-3.734471	-0.668419	-0.377726
H86	H	-4.313706	-0.213971	-0.809689
H87	H	-3.746675	-0.046378	-0.974816
H88	H	-3.717564	-0.172090	-0.783082
C89	C	-4.087870	-0.290101	-0.804328
C90	C	-4.038023	-0.292145	-0.670818
C91	C	-3.967181	-0.369080	-0.639318
H92	H	-4.198573	-0.343633	-0.851515
H93	H	-3.962886	-0.287360	-0.826321
H94	H	-4.162991	-0.294894	-0.648837
H95	H	-3.927305	-0.238631	-0.623601
H96	H	-3.842198	-0.366339	-0.661311
H97	H	-4.077894	-0.422607	-0.686512
H98	H	-3.933333	-0.370473	-0.548727
C99	C	-4.018658	0.056322	-0.975415
C100	C	-3.904599	0.039199	-1.055514
C101	C	-3.793447	0.122021	-1.080356
H102	H	-4.118735	0.088009	-1.017646
H103	H	-3.920513	0.092428	-0.895691
H104	H	-4.002734	0.003109	-1.135223
H105	H	-3.804486	0.007526	-1.013307
H106	H	-3.695302	0.158126	-1.000633
H107	H	-3.893539	0.153701	-1.122583
H108	H	-3.716030	0.110415	-1.134695
H109	H	-4.201884	-0.268325	-1.033499
H110	H	-4.317624	-0.036845	-0.989313
