data_functionalizedCrystal
_audit_creation_method	'MofGen! by Chris Wilmer'
_symmetry_space_group_name_H-M	'P1'
_symmetry_Int_Tables_number	1
_symmetry_cell_setting	triclinic
loop_
_symmetry_equiv_pos_as_xyz
  x,y,z
_cell_length_a	12.827892
_cell_length_b	11.169417
_cell_length_c	11.169409
_cell_angle_alpha	89.980487
_cell_angle_beta	89.966914
_cell_angle_gamma	90.016641
loop_
_atom_site_label
_atom_site_type_symbol
_atom_site_fract_x
_atom_site_fract_y
_atom_site_fract_z
Zn1	Zn	-0.415914	1.834920	-0.678527
Zn2	Zn	-0.590701	1.834792	-0.477841
Zn3	Zn	-0.415978	1.634206	-0.477862
Zn4	Zn	-0.590617	1.634196	-0.678487
O5	O	-0.503303	1.734528	-0.578179
O6	O	-0.439108	2.002853	-0.651913
O7	O	-0.567586	1.808134	-0.309894
O8	O	-0.269734	1.660889	-0.504506
O9	O	-0.567523	2.002759	-0.504470
O10	O	-0.269686	1.808353	-0.651933
O11	O	-0.439218	1.660765	-0.309909
O12	O	-0.439137	1.466255	-0.504468
O13	O	-0.567380	1.660872	-0.846442
O14	O	-0.567443	1.466248	-0.651866
O15	O	-0.439026	1.808343	-0.846471
O16	O	-0.736926	1.808124	-0.504431
O17	O	-0.736864	1.660747	-0.651845
C18	C	-0.503288	1.422704	-0.578165
C19	C	-0.503308	1.289304	-0.578188
C20	C	-0.774812	1.734453	-0.578158
C21	C	-0.890966	1.734531	-0.578189
C22	C	-0.942746	1.807544	-0.505325
C23	C	-1.062796	1.807626	-0.505355
C24	C	-0.230732	1.734637	-0.578227
C25	C	-0.114579	1.734683	-0.578247
C26	C	-0.503186	1.734621	-0.891222
C27	C	-0.503137	1.734660	-1.024622
C28	C	-0.503317	2.047571	-0.578194
C29	C	-0.503324	2.180971	-0.578200
C30	C	-0.503343	1.734506	-0.266354
C31	C	-0.503098	1.734699	-0.132955
H32	H	-0.898203	1.869999	-0.442924
H33	H	-1.107327	1.870133	-0.442971
F34	F	-1.056386	1.652965	-0.659784
H35	H	-0.935511	1.672087	-0.640598
