data_functionalizedCrystal
_audit_creation_method	'MofGen! by Chris Wilmer'
_symmetry_space_group_name_H-M	'P1'
_symmetry_Int_Tables_number	1
_symmetry_cell_setting	triclinic
loop_
_symmetry_equiv_pos_as_xyz
  x,y,z
_cell_length_a	6.817900
_cell_length_b	19.551823
_cell_length_c	14.125465
_cell_angle_alpha	96.298245
_cell_angle_beta	100.398878
_cell_angle_gamma	101.663376
loop_
_atom_site_label
_atom_site_type_symbol
_atom_site_fract_x
_atom_site_fract_y
_atom_site_fract_z
V1	V	-3.982343	-0.096074	-0.300423
O2	O	-3.979997	0.005234	-0.294242
O3	O	-3.925224	-0.191092	-0.298814
O4	O	-3.918648	-0.094325	-0.431245
O5	O	-3.986618	-0.092203	-0.160894
V6	V	-4.469083	-0.083988	-0.283680
O7	O	-4.236546	-0.122585	-0.337151
O8	O	-4.665077	-0.057477	-0.246953
O9	O	-4.302995	0.011030	-0.285290
O10	O	-4.588825	-0.185296	-0.289862
O11	O	-4.582204	-0.087859	-0.423210
O12	O	-4.309571	-0.085737	-0.152859
C13	C	-3.768599	-0.214264	-0.294190
C14	C	-3.803082	-0.291941	-0.293746
C15	C	-4.000485	-0.331978	-0.298348
C16	C	-4.032890	-0.404965	-0.297941
C17	C	-3.867873	-0.437910	-0.292911
C18	C	-3.670443	-0.397865	-0.288314
C19	C	-3.638048	-0.324880	-0.288731
C20	C	-3.761777	-0.544520	-0.231903
C21	C	-3.794177	-0.617502	-0.231480
C22	C	-3.967785	-0.663018	-0.291629
C23	C	-4.109018	-0.635542	-0.352189
C24	C	-4.076622	-0.562558	-0.352606
C25	C	-3.902980	-0.517049	-0.292459
C26	C	-4.200338	-0.782196	-0.295791
C27	C	-4.232737	-0.855185	-0.295390
C28	C	-3.870282	-0.848082	-0.285753
C29	C	-3.837891	-0.775096	-0.286164
C30	C	-4.002925	-0.742157	-0.291179
C31	C	-3.760210	-0.090827	-0.463118
C32	C	-3.789359	-0.090026	-0.570068
C33	C	-3.842786	-0.088557	-0.765884
C34	C	-4.028008	-0.091504	-0.818219
C35	C	-4.057738	-0.090686	-0.927178
C36	C	-3.813049	-0.089374	-0.656916
C37	C	-4.122962	0.034198	-0.289912
C38	C	-4.067716	0.111875	-0.290362
C39	C	-4.131351	-0.089237	-0.120981
C40	C	-4.081442	-0.090035	-0.014030
H41	H	-4.191619	-0.540190	-0.401917
C42	C	-4.299968	-0.685601	-0.418371
H43	H	-4.299023	-0.733004	-0.409465
H44	H	-4.419702	-0.674012	-0.402031
H45	H	-4.298952	-0.680681	-0.484458
C46	C	-3.620739	-0.731052	-0.281086
H47	H	-3.527095	-0.761124	-0.278024
H48	H	-3.619062	-0.708701	-0.337441
H49	H	-3.582072	-0.696165	-0.224645
H50	H	-4.134874	-0.305164	-0.302438
C51	C	-3.658745	-0.084328	-0.815898
H52	H	-3.703196	-0.084334	-0.883632
H53	H	-3.558883	-0.042107	-0.788488
H54	H	-3.600641	-0.123949	-0.806449
C55	C	-4.449891	-0.899225	-0.300451
H56	H	-4.543526	-0.869151	-0.303488
H57	H	-4.488581	-0.934114	-0.356884
H58	H	-4.451540	-0.921573	-0.244087
H59	H	-4.334718	-0.755375	-0.299873
C60	C	-4.250042	-0.449012	-0.302996
H61	H	-4.343685	-0.418941	-0.306036
H62	H	-4.288728	-0.483905	-0.359425
H63	H	-4.251681	-0.471356	-0.246627
H64	H	-3.735923	-0.874906	-0.281664
H65	H	-3.679183	-0.639867	-0.182163
C66	C	-4.212075	-0.095753	-0.768211
H67	H	-4.167643	-0.095762	-0.700479
H68	H	-4.270229	-0.056147	-0.777659
H69	H	-4.311896	-0.137987	-0.795634
C70	C	-3.420891	-0.280837	-0.283657
H71	H	-3.327246	-0.310908	-0.280598
H72	H	-3.419215	-0.258484	-0.340009
H73	H	-3.382226	-0.245952	-0.227213
H74	H	-3.620390	-0.507466	-0.182926
H75	H	-3.536088	-0.424694	-0.284221
