data_functionalizedCrystal
_audit_creation_method	'MofGen! by Chris Wilmer'
_symmetry_space_group_name_H-M	'P1'
_symmetry_Int_Tables_number	1
_symmetry_cell_setting	triclinic
loop_
_symmetry_equiv_pos_as_xyz
  x,y,z
_cell_length_a	12.784890
_cell_length_b	17.699083
_cell_length_c	11.295663
_cell_angle_alpha	85.906482
_cell_angle_beta	86.335828
_cell_angle_gamma	101.805214
loop_
_atom_site_label
_atom_site_type_symbol
_atom_site_fract_x
_atom_site_fract_y
_atom_site_fract_z
O1	O	1.403136	-0.010299	0.098987
O2	O	1.093596	-0.042720	0.098998
O3	O	1.257112	0.084245	0.098982
O4	O	1.239620	-0.137263	0.099003
O5	O	1.271444	0.095378	-0.099065
O6	O	1.107927	-0.031587	-0.099049
O7	O	1.417468	0.000834	-0.099060
Cu8	Cu	1.264006	-0.014360	-0.117137
Cu9	Cu	1.247057	-0.027526	0.117076
O10	O	1.253951	-0.126130	-0.099043
C11	C	1.061157	-0.039262	-0.000024
C12	C	0.943146	-0.045536	-0.000020
C13	C	0.763966	-0.124166	-0.000011
C14	C	0.874846	-0.118276	-0.000011
C15	C	0.900559	0.021319	-0.000025
C16	C	0.789678	0.015429	-0.000024
C17	C	0.721385	-0.057316	-0.000019
C18	C	0.610504	-0.063205	-0.000027
C19	C	0.636218	0.076388	-0.000032
C20	C	0.747098	0.082278	-0.000032
C21	C	1.263651	0.117968	-0.000042
C22	C	1.261771	0.201865	-0.000042
C23	C	1.449907	-0.002624	-0.000035
C24	C	1.567917	0.003650	-0.000031
C25	C	1.247412	-0.159853	-0.000017
C26	C	1.249292	-0.243751	-0.000009
N27	N	1.275935	-0.005099	-0.281870
C28	C	1.357751	0.256677	-0.000047
C29	C	1.355977	0.335506	-0.000037
C30	C	1.258223	0.359520	-0.000030
C31	C	1.162235	0.304701	-0.000021
C32	C	1.164009	0.225873	-0.000023
C33	C	1.155078	0.622601	-0.000011
C34	C	1.153311	0.701435	-0.000012
C35	C	1.347046	0.732234	-0.000025
C36	C	1.348820	0.653406	-0.000027
C37	C	1.252832	0.598593	-0.000012
C38	C	1.254756	0.513119	-0.000021
C39	C	1.256298	0.444994	-0.000029
C40	C	1.361912	0.061613	-0.468865
C41	C	1.352875	0.054606	-0.344204
C42	C	1.208030	-0.057802	-0.344206
C43	C	1.217067	-0.050796	-0.468867
C44	C	1.294010	0.008914	-0.531192
C45	C	1.303042	0.015923	-0.655855
C46	C	1.158203	-0.096488	-0.655856
C47	C	1.149165	-0.103494	-0.531195
N48	N	1.235137	-0.036780	0.281808
H49	H	0.554901	-0.122437	-0.000029
H50	H	0.956180	0.080543	-0.000020
C51	C	1.450097	0.833017	0.101791
C52	C	1.452561	0.792485	-0.000023
H53	H	1.515240	0.870208	0.101791
H54	H	1.391636	0.858600	0.101790
H55	H	1.441764	0.797730	0.170843
H56	H	1.460886	0.827772	-0.069075
H57	H	1.511039	0.766901	-0.000032
C58	C	0.631363	0.199281	-0.101857
C59	C	0.589408	0.149875	-0.000043
H60	H	0.602457	0.244644	-0.101869
H61	H	0.707162	0.213199	-0.101845
H62	H	0.612905	0.173509	-0.170909
H63	H	0.607873	0.175645	0.069009
H64	H	0.513591	0.135958	-0.000045
C65	C	1.046273	0.777938	-0.101804
C66	C	1.045850	0.727832	0.000005
H67	H	0.979932	0.794230	-0.101795
H68	H	1.103178	0.821858	-0.101806
H69	H	1.055979	0.751700	-0.170859
H70	H	1.036152	0.754071	0.069061
H71	H	0.988928	0.683904	0.000018
H72	H	1.408169	0.097518	-0.293460
C73	C	1.549075	0.295046	-0.000040
C74	C	1.465207	0.230285	-0.000047
H75	H	1.615414	0.278751	-0.000028
H76	H	1.549356	0.329033	-0.069100
H77	H	1.539342	0.321265	0.069027
H78	H	1.474937	0.204068	-0.069119
H79	H	1.464928	0.196284	0.069020
C80	C	0.989193	0.296995	0.101808
C81	C	1.054781	0.331097	-0.000007
H82	H	0.922858	0.313295	0.101816
H83	H	0.976513	0.242211	0.101800
H84	H	1.023722	0.312363	0.170859
H85	H	1.020256	0.315725	-0.069058
H86	H	1.067459	0.385893	-0.000009
C87	C	1.046245	0.113632	0.101795
C88	C	1.058505	0.165620	-0.000017
H89	H	0.981105	0.076438	0.101804
H90	H	1.104711	0.088053	0.101782
H91	H	1.044586	0.141149	0.170848
H92	H	1.060172	0.138103	-0.069071
H93	H	1.000023	0.191201	-0.000014
H94	H	0.802716	0.141505	-0.000032
H95	H	1.424555	0.110235	-0.519610
C96	C	1.037292	0.510374	0.101812
C97	C	1.049566	0.562362	-0.000000
H98	H	0.972146	0.473186	0.101820
H99	H	1.095750	0.484786	0.101802
H100	H	1.035639	0.537892	0.170865
H101	H	1.051227	0.534844	-0.069053
H102	H	0.991093	0.587952	-0.000000
H103	H	1.102909	-0.139397	-0.706617
C104	C	1.459023	0.436282	0.101778
C105	C	1.461486	0.395752	-0.000038
H106	H	1.524167	0.473470	0.101782
H107	H	1.400564	0.461867	0.101777
H108	H	1.450686	0.400992	0.170828
H109	H	1.469815	0.431041	-0.069089
H110	H	1.519962	0.370165	-0.000048
H111	H	0.708361	-0.183397	-0.000021
H112	H	1.428422	0.633860	-0.000039
C113	C	1.142488	-0.195094	-0.305789
C114	C	1.123468	-0.123434	-0.275677
H115	H	1.090287	-0.235611	-0.263473
H116	H	1.138134	-0.198464	-0.388940
H117	H	1.211938	-0.199810	-0.285355
H118	H	1.054021	-0.118716	-0.296119
H119	H	1.127812	-0.120062	-0.192508
H120	H	1.086522	-0.152111	-0.480436
H121	H	0.909510	-0.172712	-0.000007
C122	C	1.445307	0.126328	-0.643327
C123	C	1.387614	0.081556	-0.724366
H124	H	1.497523	0.166845	-0.685623
H125	H	1.397606	0.147929	-0.594716
H126	H	1.479933	0.094575	-0.594694
H127	H	1.352981	0.113308	-0.772993
H128	H	1.435322	0.059954	-0.772998
