data_functionalizedCrystal
_audit_creation_method	'MofGen! by Chris Wilmer'
_symmetry_space_group_name_H-M	'P1'
_symmetry_Int_Tables_number	1
_symmetry_cell_setting	triclinic
loop_
_symmetry_equiv_pos_as_xyz
  x,y,z
_cell_length_a	17.699083
_cell_length_b	14.853559
_cell_length_c	16.176319
_cell_angle_alpha	89.995393
_cell_angle_beta	89.998611
_cell_angle_gamma	83.457234
loop_
_atom_site_label
_atom_site_type_symbol
_atom_site_fract_x
_atom_site_fract_y
_atom_site_fract_z
O1	O	1.004372	0.114009	-0.068627
O2	O	1.337705	0.447342	0.264707
O3	O	1.671038	0.780675	0.598040
O4	O	0.784031	0.128842	-0.068653
O5	O	1.117365	0.462175	0.264680
O6	O	1.450698	0.795508	0.598013
O7	O	0.900091	-0.009827	-0.068638
O8	O	1.233424	0.323507	0.264695
O9	O	1.566757	0.656840	0.598028
O10	O	0.888313	0.252677	-0.068641
O11	O	1.221646	0.586010	0.264692
O12	O	1.554979	0.919344	0.598025
O13	O	0.900075	-0.009836	0.068855
O14	O	1.233408	0.323498	0.402188
O15	O	1.566741	0.656831	0.735521
O16	O	0.784015	0.128833	0.068840
O17	O	1.117349	0.462166	0.402173
O18	O	1.450682	0.795499	0.735507
O19	O	1.004356	0.114000	0.068867
O20	O	1.337689	0.447333	0.402200
O21	O	1.671022	0.780667	0.735533
Cu22	Cu	0.894184	0.121416	0.081407
Cu23	Cu	1.227517	0.454749	0.414741
Cu24	Cu	1.560851	0.788082	0.748074
Cu25	Cu	0.894203	0.121426	-0.081194
Cu26	Cu	1.227536	0.454759	0.252139
Cu27	Cu	1.560870	0.788093	0.585473
O28	O	0.888297	0.252668	0.068852
O29	O	1.221630	0.586002	0.402185
O30	O	1.554963	0.919335	0.735518
C31	C	0.755825	0.128306	0.000090
C32	C	1.089158	0.461639	0.333423
C33	C	1.422492	0.794972	0.666757
C34	C	0.671803	0.126711	0.000080
C35	C	1.005136	0.460044	0.333413
C36	C	1.338470	0.793378	0.666746
C37	C	0.623391	0.208107	0.000079
C38	C	0.956724	0.541440	0.333412
C39	C	1.290058	0.874773	0.666746
C40	C	0.544444	0.206603	0.000090
C41	C	0.877777	0.539936	0.333423
C42	C	1.211111	0.873270	0.666756
C43	C	0.513910	0.123703	0.000095
C44	C	0.847243	0.457036	0.333429
C45	C	1.180577	0.790370	0.666762
C46	C	0.562328	0.042301	0.000098
C47	C	0.895661	0.375635	0.333432
C48	C	1.228995	0.708968	0.666765
C49	C	0.641274	0.043806	0.000094
C50	C	0.974607	0.377139	0.333427
C51	C	1.307940	0.710473	0.666760
C52	C	0.243949	0.036232	0.000119
C53	C	0.577283	0.369566	0.333452
C54	C	0.910616	0.702899	0.666786
C55	C	0.164998	0.034734	0.000121
C56	C	0.498331	0.368067	0.333455
C57	C	0.831664	0.701401	0.666788
C58	C	0.147120	0.199029	0.000115
C59	C	0.480453	0.532363	0.333448
C60	C	0.813786	0.865696	0.666782
C61	C	0.226065	0.200534	0.000110
C62	C	0.559399	0.533867	0.333443
C63	C	0.892732	0.867200	0.666777
C64	C	0.274476	0.119133	0.000118
C65	C	0.607810	0.452466	0.333451
C66	C	0.941143	0.785799	0.666784
C67	C	0.360080	0.120764	0.000108
C68	C	0.693413	0.454097	0.333441
C69	C	1.026746	0.787431	0.666774
C70	C	0.428308	0.122071	0.000099
C71	C	0.761642	0.455404	0.333433
C72	C	1.094975	0.788738	0.666766
C73	C	0.899550	-0.043418	0.000107
C74	C	1.232883	0.289915	0.333440
C75	C	1.566217	0.623249	0.666773
C76	C	0.897954	-0.143496	0.000102
C77	C	1.231288	0.189837	0.333435
C78	C	1.564621	0.523170	0.666769
C79	C	0.891193	-0.566642	-0.074847
C80	C	1.224527	-0.233308	0.258487
C81	C	1.557860	0.100025	0.591820
C82	C	0.891176	-0.566646	0.075054
C83	C	1.224509	-0.233313	0.408387
C84	C	1.557842	0.100021	0.741720
C85	C	0.892681	-0.472618	0.075055
C86	C	1.226015	-0.139285	0.408388
C87	C	1.559348	0.194048	0.741721
C88	C	0.893442	-0.425598	0.000104
C89	C	1.226775	-0.092264	0.333437
C90	C	1.560109	0.241069	0.666770
C91	C	0.892697	-0.472605	-0.074848
C92	C	1.226030	-0.139272	0.258485
C93	C	1.559363	0.194062	0.591819
C94	C	0.893419	-0.425603	0.150005
C95	C	1.226752	-0.092269	0.483338
C96	C	1.560086	0.241064	0.816672
C97	C	0.894924	-0.331569	0.150009
C98	C	1.228257	0.001764	0.483342
C99	C	1.561590	0.335098	0.816676
C100	C	0.895690	-0.284548	0.075057
C101	C	1.229023	0.048786	0.408390
C102	C	1.562356	0.382119	0.741724
C103	C	0.894945	-0.331561	0.000102
C104	C	1.228279	0.001772	0.333436
C105	C	1.561612	0.335106	0.666769
C106	C	0.895706	-0.284540	-0.074849
C107	C	1.229039	0.048793	0.258485
C108	C	1.562372	0.382126	0.591818
C109	C	0.894967	-0.331553	-0.149804
C110	C	1.228300	0.001781	0.183529
C111	C	1.561634	0.335114	0.516862
C112	C	0.893463	-0.425583	-0.149800
C113	C	1.226796	-0.092250	0.183533
C114	C	1.560129	0.241083	0.516867
C115	C	0.897194	-0.190517	0.075053
C116	C	1.230527	0.142816	0.408386
C117	C	1.563861	0.476150	0.741719
C118	C	0.897209	-0.190503	-0.074850
C119	C	1.230543	0.142830	0.258483
C120	C	1.563876	0.476163	0.591817
C121	C	1.032562	0.114536	0.000122
C122	C	1.365895	0.447869	0.333455
C123	C	1.699229	0.781202	0.666788
C124	C	1.116584	0.116130	0.000126
C125	C	1.449918	0.449464	0.333460
C126	C	1.783251	0.782797	0.666793
C127	C	0.888837	0.286260	0.000105
C128	C	1.222170	0.619593	0.333438
C129	C	1.555504	0.952926	0.666772
C130	C	0.890433	0.386338	0.000104
C131	C	1.223766	0.719671	0.333438
C132	C	1.557100	1.053004	0.666771
N133	N	0.894176	0.121408	0.195773
N134	N	1.227510	0.454741	0.529106
N135	N	1.560843	0.788074	0.862439
N136	N	0.894217	0.121427	-0.195559
N137	N	1.227550	0.454760	0.137774
N138	N	1.560883	0.788093	0.471107
C139	C	0.945583	0.060030	0.239043
C140	C	1.278916	0.393364	0.572377
C141	C	1.612249	0.726697	0.905710
C142	C	0.945587	0.060029	0.325591
C143	C	1.278920	0.393363	0.658924
C144	C	1.612253	0.726696	0.992257
C145	C	0.894187	0.121411	0.368865
C146	C	1.227520	0.454744	0.702199
C147	C	1.560854	0.788077	1.035532
C148	C	0.842775	0.182791	0.325588
C149	C	1.176108	0.516124	0.658922
C150	C	1.509442	0.849458	0.992255
C151	C	0.842768	0.182787	0.239043
C152	C	1.176102	0.516120	0.572376
C153	C	1.509435	0.849454	0.905710
C154	C	0.842801	0.182808	0.674617
C155	C	1.176134	0.516141	1.007950
C156	C	1.509468	0.849475	1.341283
C157	C	0.842813	0.182809	0.761168
C158	C	1.176147	0.516142	1.094502
C159	C	1.509480	0.849476	1.427835
C160	C	0.945619	0.060050	0.761164
C161	C	1.278953	0.393384	1.094498
C162	C	1.612286	0.726717	1.427831
C163	C	0.945613	0.060046	0.674619
C164	C	1.278946	0.393380	1.007952
C165	C	1.612279	0.726713	1.341285
C166	C	0.894198	0.121423	0.631350
C167	C	1.227532	0.454756	0.964683
C168	C	1.560865	0.788090	1.298016
C169	C	0.894194	0.121422	0.537505
C170	C	1.227527	0.454755	0.870839
C171	C	1.560860	0.788089	1.204172
C172	C	0.894195	0.121417	0.462708
C173	C	1.227528	0.454750	0.796041
C174	C	1.560861	0.788083	1.129375
H175	H	0.140141	-0.032777	0.000127
H176	H	0.473474	0.300556	0.333460
H177	H	0.806807	0.633890	0.666794
H178	H	0.890595	-0.604924	-0.135874
H179	H	1.223928	-0.271590	0.197460
H180	H	1.557261	0.061743	0.530793
F181	F	0.788085	0.248131	0.628573
F182	F	1.121418	0.581464	0.961906
F183	F	1.454752	0.914797	1.295240
F184	F	1.000321	-0.005280	0.628566
F185	F	1.333654	0.328053	0.961899
F186	F	1.666988	0.661386	1.295233
H187	H	0.987441	0.010050	0.203815
H188	H	1.320775	0.343384	0.537148
H189	H	1.654108	0.676717	0.870482
F190	F	0.788067	0.248114	0.371645
F191	F	1.121401	0.581448	0.704979
F192	F	1.454734	0.914781	1.038312
H193	H	0.537461	-0.025197	0.000115
H194	H	0.870795	0.308136	0.333448
H195	H	1.204128	0.641469	0.666781
H196	H	0.648245	0.275613	0.000074
H197	H	0.981578	0.608947	0.333407
H198	H	1.314912	0.942280	0.666740
H199	H	0.897832	-0.152227	-0.135885
H200	H	1.231165	0.181107	0.197448
H201	H	1.564499	0.514440	0.530782
H202	H	0.680691	-0.022475	0.000094
H203	H	1.014024	0.310859	0.333427
H204	H	1.347357	0.644192	0.666760
H205	H	0.800955	0.232795	0.796401
H206	H	1.134288	0.566128	1.129735
H207	H	1.467621	0.899461	1.463068
H208	H	0.892860	-0.463869	-0.210825
H209	H	1.226194	-0.130536	0.122509
H210	H	1.559527	0.202798	0.455842
H211	H	0.895581	-0.293255	-0.210829
H212	H	1.228914	0.040078	0.122504
H213	H	1.562247	0.373411	0.455837
H214	H	0.800907	0.232765	0.203813
H215	H	1.134240	0.566099	0.537146
H216	H	1.467574	0.899432	0.870479
H217	H	0.505030	0.272883	0.000088
H218	H	0.838363	0.606217	0.333421
H219	H	1.171696	0.939550	0.666755
F220	F	0.890355	-0.616689	0.154817
F221	F	1.223688	-0.283356	0.488150
F222	F	1.557022	0.049978	0.821484
H223	H	0.250921	0.268039	0.000102
H224	H	0.584254	0.601373	0.333435
H225	H	0.917588	0.934706	0.666769
F226	F	1.000298	-0.005296	0.371643
F227	F	1.333631	0.328037	0.704976
F228	F	1.666965	0.661371	1.038309
F229	F	0.892595	-0.475647	0.229767
F230	F	1.225928	-0.142314	0.563100
F231	F	1.559261	0.191019	0.896434
H232	H	0.897778	-0.152241	0.136080
H233	H	1.231112	0.181092	0.469414
H234	H	1.564445	0.514426	0.802747
F235	F	0.095591	0.285665	0.000110
F236	F	0.428924	0.618998	0.333444
F237	F	0.762257	0.952331	0.666777
H238	H	0.283357	-0.030050	0.000126
H239	H	0.616690	0.303283	0.333459
H240	H	0.950023	0.636617	0.666792
F241	F	0.895707	-0.281543	0.229782
F242	F	1.229040	0.051790	0.563116
F243	F	1.562374	0.385123	0.896449
H244	H	0.987482	0.010071	0.796403
H245	H	1.320815	0.343404	1.129737
H246	H	1.654148	0.676738	1.463070
