data_functionalizedCrystal
_audit_creation_method	'MofGen! by Chris Wilmer'
_symmetry_space_group_name_H-M	'P1'
_symmetry_Int_Tables_number	1
_symmetry_cell_setting	triclinic
loop_
_symmetry_equiv_pos_as_xyz
  x,y,z
_cell_length_a	10.489741
_cell_length_b	11.792241
_cell_length_c	10.868271
_cell_angle_alpha	90.005281
_cell_angle_beta	90.001615
_cell_angle_gamma	84.366295
loop_
_atom_site_label
_atom_site_type_symbol
_atom_site_fract_x
_atom_site_fract_y
_atom_site_fract_z
O1	O	-1.693508	-0.160137	-0.102247
O2	O	-1.322261	-0.175169	-0.102266
O3	O	-1.516893	-0.002507	-0.102247
O4	O	-1.498875	-0.332799	-0.102265
O5	O	-1.516877	-0.002500	0.102397
O6	O	-1.322245	-0.175162	0.102379
O7	O	-1.693492	-0.160130	0.102398
Zn8	Zn	-1.507866	-0.167645	0.134880
Zn9	Zn	-1.507887	-0.167654	-0.134748
O10	O	-1.498859	-0.332792	0.102379
C11	C	-1.515753	0.039791	0.000075
C12	C	-1.512366	0.165813	0.000073
C13	C	-1.274725	-0.174030	0.000054
C14	C	-1.133107	-0.170633	0.000047
C15	C	-1.741027	-0.161269	0.000075
C16	C	-1.882645	-0.164666	0.000074
C17	C	-1.065341	-0.060774	0.000065
C18	C	-0.973046	-0.112674	-0.100836
C19	C	-0.973064	-0.112693	0.100927
C20	C	-1.042676	-0.222579	-0.100937
C21	C	-1.042704	-0.222583	0.100917
C22	C	-0.950436	-0.274563	-0.000008
C23	C	-1.499999	-0.375090	0.000055
C24	C	-1.503387	-0.501113	0.000048
N25	N	-1.507860	-0.167638	0.318894
C26	C	-1.506136	0.396542	0.000052
C27	C	-1.509598	0.268148	0.000064
N28	N	-1.507902	-0.167652	-0.318762
C29	C	-1.507880	-0.167652	0.569900
C30	C	-1.507865	-0.167648	0.430223
H31	H	-0.942196	-0.066193	-0.186137
H32	H	-0.900704	-0.364970	-0.000068
H33	H	-0.942237	-0.066186	0.186231
O34	O	-1.079398	-0.278098	-0.202698
C35	C	-1.182290	-0.436742	-0.282158
C36	C	-1.140797	-0.373969	-0.166814
H37	H	-1.231915	-0.514279	-0.253188
H38	H	-1.251268	-0.376913	-0.338770
H39	H	-1.094309	-0.465547	-0.339919
H40	H	-1.228701	-0.345157	-0.108958
H41	H	-1.071775	-0.433838	-0.110294
O42	O	-1.124903	0.046997	-0.000268
C43	C	-1.157120	0.226631	-0.106989
C44	C	-1.089602	0.104610	-0.106770
H45	H	-1.128583	0.273254	-0.193074
H46	H	-1.265335	0.223090	-0.106197
H47	H	-1.127355	0.273909	-0.021797
H48	H	-1.119262	0.057262	-0.191948
H49	H	-0.981400	0.108233	-0.107499
O50	O	-1.079597	-0.278156	0.202552
C51	C	-1.181894	-0.437246	0.281700
C52	C	-1.140150	-0.374450	0.166484
H53	H	-1.230884	-0.515099	0.252580
H54	H	-1.094213	-0.465527	0.340093
H55	H	-1.251572	-0.377543	0.337732
H56	H	-1.070501	-0.434088	0.110357
H57	H	-1.227892	-0.346151	0.108183
