data_functionalizedCrystal
_audit_creation_method	'MofGen! by Chris Wilmer'
_symmetry_space_group_name_H-M	'P1'
_symmetry_Int_Tables_number	1
_symmetry_cell_setting	triclinic
loop_
_symmetry_equiv_pos_as_xyz
  x,y,z
_cell_length_a	15.944551
_cell_length_b	10.654550
_cell_length_c	9.730223
_cell_angle_alpha	89.998306
_cell_angle_beta	89.998822
_cell_angle_gamma	83.991821
loop_
_atom_site_label
_atom_site_type_symbol
_atom_site_fract_x
_atom_site_fract_y
_atom_site_fract_z
O1	O	-1.115463	-0.161963	0.114143
O2	O	-0.871029	-0.181931	0.114177
O3	O	-0.998866	0.010865	0.114154
O4	O	-0.987626	-0.354759	0.114166
O5	O	-0.998852	0.010864	-0.114426
O6	O	-0.871015	-0.181933	-0.114403
O7	O	-1.115449	-0.161964	-0.114437
Zn8	Zn	-0.993229	-0.171949	-0.150712
Zn9	Zn	-0.993249	-0.171947	0.150452
O10	O	-0.987612	-0.354760	-0.114414
C11	C	-0.839723	-0.181103	-0.000109
C12	C	-0.746463	-0.178618	-0.000096
C13	C	-0.998034	0.057652	-0.000134
C14	C	-0.995565	0.197063	-0.000129
C15	C	-1.146755	-0.162792	-0.000148
C16	C	-1.240015	-0.165278	-0.000152
C17	C	-0.530880	-0.053173	-0.000127
C18	C	-0.470204	-0.111425	0.112577
C19	C	-0.575711	-0.174122	-0.000112
C20	C	-0.470212	-0.111455	-0.112785
C21	C	-0.410773	-0.169770	-0.000134
C22	C	-0.516263	-0.232406	0.112684
C23	C	-0.516278	-0.232420	-0.112779
C24	C	-0.455620	-0.290759	-0.000047
C25	C	-0.670728	-0.176625	-0.000099
C26	C	-0.315757	-0.167276	-0.000138
C27	C	-0.988444	-0.401547	-0.000123
C28	C	-0.990913	-0.540958	-0.000119
N29	N	-0.993222	-0.171949	-0.356249
C30	C	-1.070833	0.277522	-0.000144
C31	C	-1.068508	0.408513	-0.000134
C32	C	-0.915639	0.378572	-0.000100
C33	C	-0.917965	0.247584	-0.000101
C34	C	-1.148432	0.227002	-0.000172
C35	C	-1.223707	0.307463	-0.000188
C36	C	-1.221382	0.438453	-0.000178
C37	C	-1.143782	0.488983	-0.000152
C38	C	-1.044636	-0.248153	-0.572055
C39	C	-1.044614	-0.248163	-0.428172
C40	C	-0.941843	-0.095730	-0.428215
C41	C	-0.941861	-0.095727	-0.572095
C42	C	-1.096037	-0.324362	-0.643972
C43	C	-1.147416	-0.400583	-0.572015
C44	C	-1.147394	-0.400594	-0.428132
C45	C	-1.095994	-0.324382	-0.356206
N46	N	-0.993262	-0.171936	0.355988
H47	H	-0.563632	0.047204	0.000009
H48	H	-1.150334	0.120344	-0.000185
C49	C	-1.309059	0.251885	-0.000216
H50	H	-1.299666	0.162349	-0.000233
H51	H	-1.340092	0.279496	0.079488
H52	H	-1.340072	0.279510	-0.079943
C53	C	-0.885338	-0.011910	-0.651253
H54	H	-0.854727	0.033483	-0.587818
H55	H	-0.846994	-0.063357	-0.707382
H56	H	-0.919423	0.045865	-0.707381
C57	C	-1.095963	-0.324397	-0.197938
H58	H	-1.057993	-0.268097	-0.165411
H59	H	-1.151156	-0.297957	-0.165360
H60	H	-1.078707	-0.407149	-0.165403
H61	H	-0.899995	-0.033681	-0.369641
H62	H	-1.141895	0.595646	-0.000130
H63	H	-0.856675	0.182071	-0.000091
C64	C	-0.411603	-0.426491	0.000040
H65	H	-0.427366	-0.469247	0.080172
H66	H	-0.428075	-0.469773	-0.079258
H67	H	-0.352204	-0.424186	-0.000711
H68	H	-0.449824	-0.060277	-0.208064
C69	C	-0.830288	0.434153	-0.000089
H70	H	-0.839684	0.523689	-0.000104
H71	H	-0.799266	0.406538	0.079625
H72	H	-0.799263	0.406535	-0.079807
C73	C	-1.096054	-0.324359	-0.802237
H74	H	-1.058097	-0.268049	-0.834793
H75	H	-1.078820	-0.407104	-0.834790
H76	H	-1.151258	-0.297897	-0.834768
H77	H	-1.282674	0.503962	-0.000177
H78	H	-1.189259	-0.462640	-0.630587
H79	H	-0.449804	-0.060268	0.207857
H80	H	-1.189223	-0.462666	-0.369549
H81	H	-0.536553	-0.283524	0.208071
H82	H	-0.536699	-0.283534	-0.208063
