data_functionalizedCrystal
_audit_creation_method	'MofGen! by Chris Wilmer'
_symmetry_space_group_name_H-M	'P1'
_symmetry_Int_Tables_number	1
_symmetry_cell_setting	triclinic
loop_
_symmetry_equiv_pos_as_xyz
  x,y,z
_cell_length_a	11.169417
_cell_length_b	10.685194
_cell_length_c	11.169409
_cell_angle_alpha	85.594584
_cell_angle_beta	89.979436
_cell_angle_gamma	94.378129
loop_
_atom_site_label
_atom_site_type_symbol
_atom_site_fract_x
_atom_site_fract_y
_atom_site_fract_z
Zn1	Zn	1.798370	-0.502285	-0.641889
Zn2	Zn	2.298370	-0.002285	-0.141889
Zn3	Zn	1.782876	-0.713364	-0.425803
Zn4	Zn	2.282876	-0.213364	0.074197
Zn5	Zn	1.597648	-0.502361	-0.441218
Zn6	Zn	2.097648	-0.002361	0.058782
Zn7	Zn	1.582290	-0.713261	-0.626455
Zn8	Zn	2.082290	-0.213261	-0.126455
O9	O	1.690296	-0.607818	-0.533841
O10	O	2.190296	-0.107818	-0.033841
O11	O	1.964264	-0.530296	-0.613233
O12	O	2.464264	-0.030296	-0.113233
O13	O	1.758248	-0.685449	-0.259892
O14	O	2.258248	-0.185449	0.240108
O15	O	1.637186	-0.325752	-0.480748
O16	O	2.137186	0.174248	0.019252
O17	O	1.952880	-0.685374	-0.454475
O18	O	2.452880	-0.185374	0.045525
O19	O	1.784656	-0.325695	-0.628180
O20	O	2.284656	0.174305	-0.128180
O21	O	1.622162	-0.530426	-0.271218
O22	O	2.122162	-0.030426	0.228782
O23	O	1.427662	-0.530327	-0.465782
O24	O	1.927662	-0.030327	0.034218
O25	O	1.611010	-0.685200	-0.796458
O26	O	2.111010	-0.185200	-0.296458
O27	O	1.416378	-0.685274	-0.601875
O28	O	1.916378	-0.185274	-0.101875
O29	O	1.769764	-0.530196	-0.807797
O30	O	2.269764	-0.030196	-0.307797
O31	O	1.743356	-0.889950	-0.439509
O32	O	2.243356	-0.389950	0.060491
O33	O	1.595986	-0.889875	-0.586928
O34	O	2.095986	-0.389875	-0.086928
C35	C	1.378473	-0.607799	-0.533827
C36	C	1.878473	-0.107799	-0.033827
C37	C	1.245071	-0.607821	-0.533848
C38	C	1.745071	-0.107821	-0.033848
C39	C	1.666356	-0.935702	-0.509897
C40	C	2.166356	-0.435702	-0.009897
C41	C	1.656224	-1.075973	-0.499694
C42	C	2.156224	-0.575973	0.000306
C43	C	2.003337	-0.607838	-0.533856
C44	C	2.503337	-0.107838	-0.033856
C45	C	2.136736	-0.607846	-0.533862
C46	C	2.636736	-0.107846	-0.033862
C47	C	1.690402	-0.607678	-0.846894
C48	C	2.190402	-0.107678	-0.346894
C49	C	1.690448	-0.607618	-0.980299
C50	C	2.190448	-0.107618	-0.480299
C51	C	1.714362	-0.278653	-0.557905
C52	C	2.214362	0.221347	-0.057905
C53	C	1.724618	-0.138382	-0.568160
C54	C	2.224618	0.361618	-0.068160
C55	C	1.690266	-0.607866	-0.222013
C56	C	2.190266	-0.107866	0.277987
C57	C	1.690479	-0.607570	-0.088635
C58	C	2.190479	-0.107570	0.411365
H59	H	1.790926	-1.084504	-0.634588
H60	H	2.290926	-0.584504	-0.134588
H61	H	1.589901	-1.129859	-0.433272
H62	H	2.089901	-0.629859	0.066728
