data_functionalizedCrystal
_audit_creation_method	'MofGen! by Chris Wilmer'
_symmetry_space_group_name_H-M	'P1'
_symmetry_Int_Tables_number	1
_symmetry_cell_setting	triclinic
loop_
_symmetry_equiv_pos_as_xyz
  x,y,z
_cell_length_a	19.188930
_cell_length_b	10.654541
_cell_length_c	9.730217
_cell_angle_alpha	90.000068
_cell_angle_beta	89.991643
_cell_angle_gamma	96.185645
loop_
_atom_site_label
_atom_site_type_symbol
_atom_site_fract_x
_atom_site_fract_y
_atom_site_fract_z
O1	O	0.098053	-1.665764	-0.114265
O2	O	0.107397	-1.300087	-0.114279
O3	O	0.001138	-1.493478	-0.114245
O4	O	0.204312	-1.472373	-0.114299
O5	O	0.001137	-1.493472	0.114335
O6	O	0.107396	-1.300081	0.114301
O7	O	0.098052	-1.665758	0.114315
Zn8	Zn	0.102724	-1.482918	0.150600
Zn9	Zn	0.102725	-1.482926	-0.150564
O10	O	0.204311	-1.472367	0.114281
C11	C	-0.024878	-1.492792	0.000049
C12	C	-0.102396	-1.490740	0.000061
C13	C	0.106711	-1.253300	0.000010
C14	C	0.104659	-1.113900	0.000006
N15	N	0.102723	-1.482922	0.356137
C16	C	-0.146578	-1.604215	0.000072
C17	C	-0.219414	-1.602288	0.000050
C18	C	-0.248065	-1.486878	0.000044
C19	C	-0.203873	-1.373388	0.000026
C20	C	-0.131038	-1.375319	0.000034
N21	N	-0.356647	-1.398660	0.077831
N22	N	-0.425838	-1.396833	0.077826
C23	C	-0.467512	-1.481054	0.000016
N24	N	-0.437383	-1.567190	-0.077771
N25	N	-0.368186	-1.569020	-0.077760
C26	C	-0.327041	-1.484772	0.000034
C27	C	-0.590672	-1.592448	0.000001
C28	C	-0.663510	-1.590515	-0.000029
C29	C	-0.647967	-1.361612	-0.000039
C30	C	-0.575131	-1.363548	-0.000023
C31	C	-0.546488	-1.478969	0.000004
C32	C	0.230327	-1.473053	-0.000016
C33	C	0.307845	-1.475105	-0.000037
C34	C	0.098738	-1.712544	0.000023
C35	C	0.100790	-1.851944	0.000018
C36	C	0.231721	-1.083241	-0.000045
C37	C	0.294284	-1.002423	-0.000076
C38	C	0.292352	-0.871446	-0.000077
C39	C	0.227849	-0.821285	-0.000043
C40	C	0.165286	-0.902103	-0.000012
C41	C	0.167225	-1.033082	-0.000015
C42	C	0.038226	-0.932762	0.000049
C43	C	0.040156	-1.063740	0.000040
C44	C	-0.026277	-0.882602	0.000083
C45	C	-0.088842	-0.963421	0.000104
C46	C	-0.086908	-1.094405	0.000104
C47	C	-0.022408	-1.144558	0.000071
N48	N	0.102721	-1.482932	-0.356101
C49	C	0.008658	-1.654239	0.356157
C50	C	-0.038372	-1.739906	0.428108
C51	C	-0.038373	-1.739919	0.571987
C52	C	0.008661	-1.654253	0.643920
C53	C	0.055691	-1.568586	0.571970
C54	C	0.055688	-1.568585	0.428087
C55	C	0.149751	-1.397265	0.571949
C56	C	0.149756	-1.397257	0.428069
C57	C	0.196785	-1.311600	0.643882
C58	C	0.243819	-1.225937	0.571932
C59	C	0.243818	-1.225928	0.428043
C60	C	0.196786	-1.311590	0.356119
H61	H	-0.123262	-1.698200	0.000089
N62	N	0.196772	-1.311617	0.790851
N63	N	0.154778	-1.388109	0.855079
H64	H	0.154770	-1.388122	0.958878
N65	N	0.360164	-1.053682	-0.000100
N66	N	0.361884	-1.170626	-0.000099
H67	H	0.408411	-1.206826	-0.000112
N68	N	-0.154717	-0.912163	0.000157
N69	N	-0.156433	-0.795217	0.000174
H70	H	-0.202958	-0.759010	0.000211
H71	H	0.282108	-1.156188	0.630508
H72	H	-0.076671	-1.809672	0.630570
N73	N	-0.561420	-1.710352	0.000032
N74	N	-0.600881	-1.811665	0.000033
H75	H	-0.580225	-1.894938	0.000058
H76	H	0.282114	-1.156163	0.369469
N77	N	0.196806	-1.311568	0.209150
N78	N	0.250861	-1.332014	0.144922
H79	H	0.250876	-1.331996	0.041123
N80	N	-0.233147	-1.255511	0.000008
N81	N	-0.298178	-1.253801	0.000002
H82	H	-0.318854	-1.170547	-0.000017
H83	H	-0.137855	-1.160201	0.000134
H84	H	-0.076668	-1.809652	0.369528
N85	N	-0.264547	-1.718216	0.000087
N86	N	-0.261622	-1.795045	0.096458
H87	H	-0.293495	-1.876921	0.096489
H88	H	-0.095064	-1.282910	0.000026
H89	H	-0.020826	-1.251205	0.000054
H90	H	0.233300	-1.189888	-0.000075
H91	H	-0.699483	-1.682925	-0.000028
H92	H	-0.671293	-1.267643	-0.000050
H93	H	0.343297	-0.805642	-0.000093
H94	H	0.008659	-1.654248	0.239003
N95	N	0.008641	-1.654243	0.790889
N96	N	-0.045415	-1.633776	0.855104
H97	H	-0.045432	-1.633766	0.958903
N98	N	-0.529996	-1.247633	-0.000043
N99	N	-0.532917	-1.170791	-0.096403
H100	H	-0.501040	-1.088920	-0.096423
N101	N	0.225875	-0.687496	-0.000004
N102	N	0.253377	-0.622202	0.096348
H103	H	0.251982	-0.527712	0.096378
N104	N	-0.028241	-0.748811	0.000094
N105	N	0.027623	-0.676663	0.000064
H106	H	0.026236	-0.582171	0.000068
