data_functionalizedCrystal
_audit_creation_method	'MofGen! by Chris Wilmer'
_symmetry_space_group_name_H-M	'P1'
_symmetry_Int_Tables_number	1
_symmetry_cell_setting	triclinic
loop_
_symmetry_equiv_pos_as_xyz
  x,y,z
_cell_length_a	16.956995
_cell_length_b	16.974823
_cell_length_c	12.996460
_cell_angle_alpha	93.655544
_cell_angle_beta	89.990890
_cell_angle_gamma	100.268316
loop_
_atom_site_label
_atom_site_type_symbol
_atom_site_fract_x
_atom_site_fract_y
_atom_site_fract_z
O1	O	1.058003	-0.032767	-0.088366
O2	O	1.558003	0.467233	0.411634
O3	O	0.825816	-0.060528	-0.090664
O4	O	1.325816	0.439472	0.409336
O5	O	0.948383	0.068879	-0.079889
O6	O	1.448383	0.568879	0.420111
O7	O	0.935436	-0.162174	-0.099141
O8	O	1.435436	0.337826	0.400859
O9	O	0.948367	0.068871	0.091244
O10	O	1.448367	0.568871	0.591244
O11	O	0.825800	-0.060536	0.080469
O12	O	1.325800	0.439464	0.580469
O13	O	1.057988	-0.032775	0.082767
O14	O	1.557988	0.467225	0.582767
Cu15	Cu	0.941892	-0.046656	0.097244
Cu16	Cu	1.441892	0.453344	0.597244
Cu17	Cu	0.941911	-0.046647	-0.105141
Cu18	Cu	1.441911	0.453353	0.394859
O19	O	0.935420	-0.162182	0.071992
O20	O	1.435420	0.337818	0.571992
C21	C	0.796098	-0.061953	-0.005214
C22	C	1.296098	0.438047	0.494786
C23	C	0.707573	-0.066179	-0.005561
C24	C	1.207573	0.433821	0.494439
C25	C	0.947883	0.098301	0.008127
C26	C	1.447883	0.598301	0.508127
C27	C	0.946407	0.185981	0.015427
C28	C	1.446407	0.685981	0.515427
C29	C	0.208238	-0.097792	-0.008233
C30	C	0.708238	0.402208	0.491767
C31	C	0.291417	-0.093815	-0.007901
C32	C	0.791417	0.406185	0.492099
C33	C	0.342588	-0.019170	-0.001674
C34	C	0.842588	0.480830	0.498326
C35	C	0.310575	0.051503	0.004212
C36	C	0.810575	0.551503	0.504212
C37	C	0.227397	0.047526	0.003872
C38	C	0.727397	0.547526	0.503872
C39	C	0.592382	0.000517	-0.000015
C40	C	1.092382	0.500517	0.499985
C41	C	0.675565	0.004489	0.000327
C42	C	1.175565	0.504489	0.500327
C43	C	0.656402	-0.140830	-0.011788
C44	C	1.156402	0.359170	0.488212
C45	C	0.573223	-0.144801	-0.012120
C46	C	1.073223	0.355199	0.487880
C47	C	0.541217	-0.074128	-0.006241
C48	C	1.041217	0.425872	0.493759
N49	N	0.427611	-0.015103	-0.001331
N50	N	0.927611	0.484897	0.498669
N51	N	0.456196	-0.078195	-0.006591
N52	N	0.956196	0.421805	0.493409
C53	C	1.087705	-0.031350	-0.002685
C54	C	1.587705	0.468650	0.497315
C55	C	1.176230	-0.027124	-0.002345
C56	C	1.676230	0.472876	0.497655
C57	C	0.945724	0.227173	-0.074427
C58	C	1.445724	0.727173	0.425573
C59	C	0.944331	0.309557	-0.067565
C60	C	1.444331	0.809557	0.432435
C61	C	0.943628	0.350748	0.029152
C62	C	1.443628	0.850748	0.529152
C63	C	0.944309	0.309549	0.119013
C64	C	1.444309	0.809549	0.619013
C65	C	0.945695	0.227166	0.112150
C66	C	1.445695	0.727166	0.612150
C67	C	0.939475	0.597136	0.059681
C68	C	1.439475	1.097136	0.559681
C69	C	0.938091	0.679526	0.066537
C70	C	1.438091	1.179526	0.566537
C71	C	0.938112	0.679527	-0.120042
C72	C	1.438112	1.179527	0.379958
C73	C	0.939503	0.597143	-0.126897
C74	C	1.439503	1.097143	0.373103
C75	C	0.940180	0.555951	-0.037036
C76	C	1.440180	1.055951	0.462964
N77	N	0.942207	0.434958	0.036169
N78	N	1.442207	0.934958	0.536169
N79	N	0.941595	0.471742	-0.044053
N80	N	1.441595	0.971742	0.455947
C81	C	0.935923	0.808397	-0.016023
C82	C	1.435923	1.308397	0.483977
C83	C	0.937408	0.720718	-0.023317
C84	C	1.437408	1.220718	0.476683
N85	N	0.941885	-0.046662	0.239590
N86	N	1.441885	0.453338	0.739590
N87	N	0.941925	-0.046634	-0.247487
N88	N	1.441925	0.453366	0.252513
C89	C	0.941889	-0.046664	0.332696
C90	C	1.441889	0.453336	0.832696
C91	C	0.941896	-0.046658	0.449502
C92	C	1.441896	0.453342	0.949502
C93	C	0.941906	-0.046649	0.542601
C94	C	1.441906	0.453351	1.042601
C95	C	0.941915	-0.046644	0.659414
C96	C	1.441915	0.453356	1.159414
H97	H	0.317473	-0.151361	-0.012705
H98	H	0.817473	0.348639	0.487295
C99	C	0.366861	0.133611	0.011065
C100	C	0.866861	0.633611	0.511065
H101	H	0.420983	0.125860	0.010435
H102	H	0.920983	0.625860	0.510435
H103	H	0.357179	0.162822	-0.046177
H104	H	0.857179	0.662822	0.453823
H105	H	0.357150	0.162804	0.073185
H106	H	0.857150	0.662804	0.573185
C107	C	0.943532	0.354853	0.225403
C108	C	1.443532	0.854853	0.725403
H109	H	0.944129	0.318517	0.277934
H110	H	1.444129	0.818517	0.777934
H111	H	0.989470	0.396058	0.232715
H112	H	1.489470	0.896058	0.732715
H113	H	0.896503	0.377921	0.231202
H114	H	1.396503	0.877921	0.731202
C115	C	0.940233	0.551838	0.158525
C116	C	1.440233	1.051838	0.658525
H117	H	0.939627	0.588173	0.217106
H118	H	1.439627	1.088173	0.717106
H119	H	0.894295	0.510632	0.158984
H120	H	1.394295	1.010632	0.658984
H121	H	0.987262	0.528771	0.160474
H122	H	1.487262	1.028771	0.660474
H123	H	0.166579	-0.158577	-0.013297
H124	H	0.666579	0.341423	0.486703
H125	H	0.717228	0.065277	0.005394
H126	H	1.217228	0.565277	0.505394
H127	H	0.940077	0.563612	-0.205655
H128	H	1.440077	1.063612	0.294345
H129	H	0.943778	0.343093	-0.140735
H130	H	1.443778	0.843093	0.359265
H131	H	0.531564	-0.205585	-0.017195
H132	H	1.031564	0.294415	0.482805
H133	H	0.946301	0.193642	-0.153185
H134	H	1.446301	0.693642	0.346815
H135	H	0.201339	0.105071	0.008665
H136	H	0.701339	0.605071	0.508665
H137	H	0.682470	-0.198368	-0.016576
H138	H	1.182470	0.301632	0.483424
C139	C	0.937357	0.724838	-0.218880
C140	C	1.437357	1.224838	0.281120
H141	H	0.936423	0.779801	-0.200945
H142	H	1.436423	1.279801	0.299055
H143	H	0.984066	0.720405	-0.257587
H144	H	1.484066	1.220405	0.242413
H145	H	0.891099	0.702267	-0.259081
H146	H	1.391099	1.202267	0.240919
H147	H	0.946240	0.193626	0.185319
H148	H	1.446240	0.693626	0.685319
H149	H	0.566334	0.058064	0.004776
H150	H	1.066334	0.558064	0.504776
C151	C	0.937308	0.724833	0.172931
C152	C	1.437308	1.224833	0.672931
H153	H	0.937901	0.688500	0.225467
H154	H	1.437901	1.188500	0.725467
H155	H	0.983247	0.766038	0.180245
H156	H	1.483247	1.266038	0.680245
H157	H	0.890280	0.747902	0.178720
H158	H	1.390280	1.247902	0.678720
