data_functionalizedCrystal
_audit_creation_method	'MofGen! by Chris Wilmer'
_symmetry_space_group_name_H-M	'P1'
_symmetry_Int_Tables_number	1
_symmetry_cell_setting	triclinic
loop_
_symmetry_equiv_pos_as_xyz
  x,y,z
_cell_length_a	23.532407
_cell_length_b	26.210047
_cell_length_c	23.532407
_cell_angle_alpha	90.000177
_cell_angle_beta	97.151326
_cell_angle_gamma	89.997435
loop_
_atom_site_label
_atom_site_type_symbol
_atom_site_fract_x
_atom_site_fract_y
_atom_site_fract_z
O1	O	-0.755264	0.042358	0.069127
O2	O	-0.255264	0.542358	0.569127
O3	O	-0.589401	0.042376	0.079130
O4	O	-0.089401	0.542376	0.579130
O5	O	-0.677334	0.042357	-0.008804
O6	O	-0.177334	0.542357	0.491196
O7	O	-0.667331	0.042377	0.157060
O8	O	-0.167331	0.542377	0.657060
O9	O	-0.677317	-0.042501	-0.008790
O10	O	-0.177317	0.457499	0.491210
O11	O	-0.589384	-0.042482	0.079144
O12	O	-0.089384	0.457518	0.579144
O13	O	-0.755247	-0.042500	0.069140
O14	O	-0.255247	0.457500	0.569140
Cu15	Cu	-0.672314	-0.050239	0.074143
Cu16	Cu	-0.172314	0.449761	0.574143
Cu17	Cu	-0.672334	0.050115	0.074127
Cu18	Cu	-0.172334	0.550115	0.574127
O19	O	-0.667314	-0.042481	0.157074
O20	O	-0.167314	0.457519	0.657074
C21	C	-0.568176	-0.000051	0.078882
C22	C	-0.068176	0.499949	0.578882
C23	C	-0.504959	-0.000044	0.078116
C24	C	-0.004959	0.499956	0.578116
C25	C	-0.105856	-0.000055	0.125350
C26	C	0.394144	0.499945	0.625350
C27	C	-0.046456	-0.000057	0.124638
C28	C	0.453544	0.499943	0.624638
O29	O	-0.009711	-0.000070	0.168424
O30	O	0.490289	0.499930	0.668424
N31	N	-0.023830	-0.000062	0.072362
N32	N	0.476170	0.499938	0.572362
C33	C	-0.060607	-0.000070	0.020794
C34	C	0.439393	0.499930	0.520794
O35	O	-0.035908	-0.000075	-0.023737
O36	O	0.464092	0.499925	0.476263
C37	C	-0.120006	-0.000071	0.021506
C38	C	0.379994	0.499929	0.521506
C39	C	-0.142629	-0.000061	0.073785
C40	C	0.357371	0.499939	0.573785
C41	C	-0.128479	-0.000045	0.177625
C42	C	0.371521	0.499955	0.677625
C43	C	-0.187876	-0.000042	0.178336
C44	C	0.312124	0.499958	0.678336
C45	C	-0.224649	-0.000048	0.126772
C46	C	0.275351	0.499952	0.626772
C47	C	-0.202025	-0.000058	0.074496
C48	C	0.297975	0.499942	0.574496
C49	C	-0.156783	-0.000083	-0.030062
C50	C	0.343217	0.499917	0.469938
C51	C	-0.216185	-0.000085	-0.029345
C52	C	0.283815	0.499915	0.470655
C53	C	-0.238808	-0.000075	0.022934
C54	C	0.261192	0.499925	0.522934
C55	C	-0.298194	-0.000061	0.023643
C56	C	0.201806	0.499939	0.523643
N57	N	-0.320820	-0.000056	0.075920
N58	N	0.179180	0.499944	0.575920
C59	C	-0.284048	-0.000050	0.127484
C60	C	0.215952	0.499950	0.627484
C61	C	0.064135	-0.000068	0.019302
C62	C	0.564135	0.499932	0.519302
C63	C	0.123533	-0.000063	0.018589
C64	C	0.623533	0.499937	0.518589
C65	C	0.137680	-0.000051	0.122434
C66	C	0.637680	0.499949	0.622434
C67	C	0.078281	-0.000052	0.123146
C68	C	0.578281	0.499948	0.623146
C69	C	0.041509	-0.000063	0.071578
C70	C	0.541509	0.499937	0.571578
C71	C	-0.408784	-0.000043	0.128974
C72	C	0.091216	0.499957	0.628974
C73	C	-0.468186	-0.000038	0.129680
C74	C	0.031814	0.499962	0.629680
C75	C	-0.482329	-0.000052	0.025836
C76	C	0.017671	0.499948	0.525836
C77	C	-0.422932	-0.000055	0.025129
C78	C	0.077068	0.499945	0.525129
C79	C	-0.386160	-0.000052	0.076702
C80	C	0.113840	0.499948	0.576702
O81	O	-0.334974	-0.000051	-0.020119
O82	O	0.165026	0.499949	0.479881
O83	O	-0.308755	-0.000052	0.172007
O84	O	0.191245	0.499948	0.672007
N85	N	-0.672304	-0.120823	0.074154
N86	N	-0.172304	0.379177	0.574154
C87	C	-0.711267	-0.473346	0.035199
C88	C	-0.211267	0.026654	0.535199
C89	C	-0.711280	-0.687004	0.035191
C90	C	-0.211280	-0.187004	0.535191
O91	O	-0.744385	-0.714633	0.002072
O92	O	-0.244385	-0.214633	0.502072
N93	N	-0.672337	-0.713717	0.074114
N94	N	-0.172337	-0.213717	0.574114
C95	C	-0.633386	-0.687012	0.113040
C96	C	-0.133386	-0.187012	0.613040
O97	O	-0.600260	-0.714635	0.146143
O98	O	-0.100260	-0.214635	0.646143
C99	C	-0.633372	-0.473354	0.113045
C100	C	-0.133372	0.026646	0.613045
C101	C	-0.672320	-0.446644	0.074123
C102	C	-0.172320	0.053356	0.574123
C103	C	-0.750212	-0.446636	-0.003721
C104	C	-0.250212	0.053364	0.496279
C105	C	-0.750211	-0.393224	-0.003716
C106	C	-0.250211	0.106776	0.496284
C107	C	-0.711264	-0.366523	0.035208
C108	C	-0.211264	0.133477	0.535208
C109	C	-0.672319	-0.393233	0.074127
C110	C	-0.172319	0.106767	0.574127
C111	C	-0.594419	-0.446650	0.151968
C112	C	-0.094419	0.053350	0.651968
C113	C	-0.594417	-0.393232	0.151964
C114	C	-0.094417	0.106768	0.651964
C115	C	-0.633366	-0.366522	0.113042
C116	C	-0.133366	0.133478	0.613042
C117	C	-0.633371	-0.313120	0.113056
C118	C	-0.133371	0.186880	0.613056
N119	N	-0.672313	-0.286407	0.074132
N120	N	-0.172313	0.213593	0.574132
C121	C	-0.711260	-0.313109	0.035208
C122	C	-0.211260	0.186891	0.535208
C123	C	-0.633398	-0.799185	0.113036
C124	C	-0.133398	-0.299185	0.613036
C125	C	-0.633402	-0.852600	0.113035
C126	C	-0.133402	-0.352600	0.613035
C127	C	-0.711295	-0.852588	0.035185
C128	C	-0.211295	-0.352588	0.535185
C129	C	-0.711293	-0.799173	0.035189
C130	C	-0.211293	-0.299173	0.535189
C131	C	-0.672340	-0.772473	0.074112
C132	C	-0.172340	-0.272473	0.574112
C133	C	-0.711254	-0.200941	0.035221
C134	C	-0.211254	0.299059	0.535221
C135	C	-0.711251	-0.147525	0.035230
C136	C	-0.211251	0.352475	0.535230
C137	C	-0.633356	-0.147541	0.113078
C138	C	-0.133356	0.352459	0.613078
C139	C	-0.633361	-0.200952	0.113071
C140	C	-0.133361	0.299048	0.613071
C141	C	-0.672312	-0.227651	0.074137
C142	C	-0.172312	0.272349	0.574137
O143	O	-0.600278	-0.285458	0.146153
O144	O	-0.100278	0.214542	0.646153
O145	O	-0.744373	-0.285476	0.002102
O146	O	-0.244373	0.214524	0.502102
C147	C	-0.711268	-0.526757	0.035194
C148	C	-0.211268	-0.026757	0.535194
C149	C	-0.672323	-0.553467	0.074114
C150	C	-0.172323	-0.053467	0.574114
C151	C	-0.633377	-0.526766	0.113038
C152	C	-0.133377	-0.026766	0.613038
C153	C	-0.672328	-0.606881	0.074113
C154	C	-0.172328	-0.106881	0.574113
C155	C	-0.711274	-0.633583	0.035190
C156	C	-0.211274	-0.133583	0.535190
C157	C	-0.750217	-0.606870	-0.003734
C158	C	-0.250217	-0.106870	0.496266
C159	C	-0.750215	-0.553459	-0.003730
C160	C	-0.250215	-0.053459	0.496270
C161	C	-0.594434	-0.553479	0.151961
C162	C	-0.094434	-0.053479	0.651961
C163	C	-0.594439	-0.606890	0.151954
C164	C	-0.094439	-0.106890	0.651954
C165	C	-0.633386	-0.633592	0.113030
C166	C	-0.133386	-0.133592	0.613030
C167	C	0.223528	-0.000068	0.069388
C168	C	0.723528	0.499932	0.569388
C169	C	0.160311	-0.000059	0.070154
C170	C	0.660311	0.499941	0.570154
C171	C	-0.677071	-0.000073	-0.030013
C172	C	-0.177071	0.499927	0.469987
C173	C	-0.676305	-0.000077	-0.093230
C174	C	-0.176305	0.499923	0.406770
N175	N	-0.672349	0.120699	0.074111
N176	N	-0.172349	0.620699	0.574111
C177	C	-0.723539	-0.000054	-0.492333
C178	C	-0.223539	0.499946	0.007667
C179	C	-0.722827	-0.000050	-0.551733
C180	C	-0.222827	0.499950	-0.051733
O181	O	-0.766613	-0.000036	-0.588478
O182	O	-0.266613	0.499964	-0.088478
N183	N	-0.670551	-0.000045	-0.574359
N184	N	-0.170551	0.499955	-0.074359
C185	C	-0.618983	-0.000038	-0.537582
C186	C	-0.118983	0.499962	-0.037582
O187	O	-0.574452	-0.000033	-0.562281
O188	O	-0.074452	0.499967	-0.062281
C189	C	-0.619695	-0.000039	-0.478183
C190	C	-0.119695	0.499961	0.021817
C191	C	-0.671974	-0.000049	-0.455560
C192	C	-0.171974	0.499951	0.044440
C193	C	-0.775814	-0.000064	-0.469710
C194	C	-0.275814	0.499936	0.030290
C195	C	-0.776525	-0.000069	-0.410313
C196	C	-0.276525	0.499931	0.089687
C197	C	-0.724961	-0.000064	-0.373541
C198	C	-0.224961	0.499936	0.126459
C199	C	-0.672685	-0.000054	-0.396164
C200	C	-0.172685	0.499946	0.103836
C201	C	-0.568127	-0.000028	-0.441406
C202	C	-0.068127	0.499972	0.058594
C203	C	-0.568844	-0.000028	-0.382004
C204	C	-0.068844	0.499972	0.117996
C205	C	-0.621123	-0.000039	-0.359381
C206	C	-0.121123	0.499961	0.140619
C207	C	-0.621832	-0.000054	-0.299995
C208	C	-0.121832	0.499946	0.200005
N209	N	-0.674109	-0.000059	-0.277369
N210	N	-0.174109	0.499941	0.222631
C211	C	-0.725673	-0.000064	-0.314141
C212	C	-0.225673	0.499936	0.185859
C213	C	-0.617491	-0.000037	-0.662324
C214	C	-0.117491	0.499963	-0.162324
C215	C	-0.616778	-0.000040	-0.721722
C216	C	-0.116778	0.499960	-0.221722
C217	C	-0.720623	-0.000051	-0.735869
C218	C	-0.220623	0.499949	-0.235869
C219	C	-0.721335	-0.000052	-0.676470
C220	C	-0.221335	0.499948	-0.176470
C221	C	-0.669767	-0.000042	-0.639698
C222	C	-0.169767	0.499958	-0.139698
C223	C	-0.727163	-0.000075	-0.189405
C224	C	-0.227163	0.499925	0.310595
C225	C	-0.727869	-0.000082	-0.130003
C226	C	-0.227869	0.499918	0.369997
C227	C	-0.624025	-0.000068	-0.115860
C228	C	-0.124025	0.499932	0.384140
C229	C	-0.623318	-0.000064	-0.175257
C230	C	-0.123318	0.499936	0.324743
C231	C	-0.674891	-0.000066	-0.212029
C232	C	-0.174891	0.499934	0.287971
O233	O	-0.578070	-0.000066	-0.263215
O234	O	-0.078070	0.499934	0.236785
O235	O	-0.770196	-0.000063	-0.289434
O236	O	-0.270196	0.499937	0.210566
C237	C	-0.667577	-0.000050	0.178283
C238	C	-0.167577	0.499950	0.678283
C239	C	-0.668343	-0.000043	0.241500
C240	C	-0.168343	0.499957	0.741500
H241	H	-0.098544	-0.000042	0.219617
H242	H	0.401456	0.499958	0.719617
H243	H	-0.575496	-0.000033	-0.632387
H244	H	-0.075496	0.499967	-0.132387
O245	O	-0.517974	-0.000035	-0.024304
O246	O	-0.017974	0.499965	0.475696
C247	C	-0.485275	-0.000057	-0.070602
C248	C	0.014725	0.499943	0.429398
H249	H	-0.440859	0.016010	-0.055898
H250	H	0.059141	0.516010	0.444102
H251	H	-0.507392	0.024573	-0.106714
H252	H	-0.007392	0.524573	0.393286
H253	H	-0.481133	-0.040771	-0.086634
H254	H	0.018867	0.459229	0.413366
H255	H	-0.486602	-0.000029	0.172254
H256	H	0.013398	0.499971	0.672254
O257	O	-0.517292	0.000007	-0.463277
O258	O	-0.017292	0.500007	0.036723
C259	C	-0.471940	0.000002	-0.418073
C260	C	0.028060	0.500002	0.081927
H261	H	-0.487684	0.016061	-0.377809
H262	H	0.012316	0.516061	0.122191
H263	H	-0.435426	0.024648	-0.430277
H264	H	0.064574	0.524648	0.069723
H265	H	-0.456039	-0.040705	-0.409579
H266	H	0.043961	0.459295	0.090421
O267	O	-0.518764	0.000070	-0.346260
O268	O	-0.018764	0.500070	0.153740
C269	C	-0.516084	0.044010	-0.311465
C270	C	-0.016084	0.544010	0.188535
H271	H	-0.545342	0.074724	-0.333377
H272	H	-0.045342	0.574724	0.166623
H273	H	-0.470174	0.058770	-0.304536
H274	H	0.029826	0.558770	0.195464
H275	H	-0.530567	0.034068	-0.268348
H276	H	-0.030567	0.534068	0.231652
O277	O	-0.770767	-0.000074	-0.771516
O278	O	-0.270767	0.499926	-0.271516
C279	C	-0.817066	-0.000067	-0.738817
C280	C	-0.317066	0.499933	-0.238817
H281	H	-0.802356	-0.016134	-0.694400
H282	H	-0.302356	0.483866	-0.194400
H283	H	-0.853168	-0.024704	-0.760934
H284	H	-0.353168	0.475296	-0.260934
H285	H	-0.833112	0.040643	-0.734674
H286	H	-0.333112	0.540643	-0.234674
H287	H	0.167632	-0.000048	0.164421
H288	H	0.667632	0.499952	0.664421
H289	H	-0.378851	-0.000042	0.170970
H290	H	0.121149	0.499958	0.670970
H291	H	-0.817806	-0.000067	-0.499645
H292	H	-0.317806	0.499933	0.000355
O293	O	-0.749181	-0.878452	-0.002651
O294	O	-0.249181	-0.378452	0.497349
C295	C	-0.783543	-0.843428	-0.037023
C296	C	-0.283543	-0.343428	0.462977
H297	H	-0.784061	-0.805351	-0.013680
H298	H	-0.284061	-0.305351	0.486320
H299	H	-0.829071	-0.858862	-0.045949
H300	H	-0.329071	-0.358862	0.454051
H301	H	-0.765286	-0.837749	-0.079234
H302	H	-0.265286	-0.337749	0.420766
O303	O	-0.209752	-0.000061	0.229171
O304	O	0.290248	0.499939	0.729171
C305	C	-0.164549	-0.000045	0.274524
C306	C	0.335451	0.499955	0.774524
H307	H	-0.124283	-0.016109	0.258788
H308	H	0.375717	0.483891	0.758788
H309	H	-0.176753	-0.024681	0.311047
H310	H	0.323247	0.475319	0.811047
H311	H	-0.156058	0.040667	0.290410
H312	H	0.343942	0.540667	0.790410
O313	O	-0.565944	-0.000013	-0.743599
O314	O	-0.065944	0.499987	-0.243599
C315	C	-0.520589	-0.000023	-0.698398
C316	C	-0.020589	0.499977	-0.198398
H317	H	-0.536326	0.016037	-0.658132
H318	H	-0.036326	0.516037	-0.158132
H319	H	-0.484072	0.024619	-0.710606
H320	H	0.015928	0.524619	-0.210606
H321	H	-0.504693	-0.040733	-0.689907
H322	H	-0.004693	0.459267	-0.189907
H323	H	0.141947	-0.000063	-0.023982
H324	H	0.641947	0.499937	0.476018
H325	H	-0.742969	-0.125779	0.003535
H326	H	-0.242969	0.374221	0.503535
O327	O	-0.134912	-0.000120	-0.080897
O328	O	0.365088	0.499880	0.419103
C329	C	-0.180116	-0.000118	-0.126249
C330	C	0.319884	0.499882	0.373751
H331	H	-0.220379	-0.016176	-0.110505
H332	H	0.279621	0.483824	0.389495
H333	H	-0.167911	-0.024766	-0.162762
H334	H	0.332089	0.475234	0.337238
H335	H	-0.188613	0.040589	-0.142151
H336	H	0.311387	0.540589	0.357849
O337	O	-0.573990	-0.000040	-0.080053
O338	O	-0.073990	0.499960	0.419947
C339	C	-0.585835	-0.000057	-0.022777
C340	C	-0.085835	0.499943	0.477223
H341	H	-0.630560	0.015999	-0.020751
H342	H	-0.130560	0.515999	0.479249
H343	H	-0.552957	0.024586	0.004321
H344	H	-0.052957	0.524586	0.504321
H345	H	-0.583565	-0.040767	-0.005585
H346	H	-0.083565	0.459233	0.494415
O347	O	0.028440	0.000021	-0.030810
O348	O	0.528440	0.500021	0.469190
C349	C	0.038663	0.043961	-0.062578
C350	C	0.538663	0.543961	0.437422
H351	H	0.059126	0.074680	-0.032393
H352	H	0.559126	0.574680	0.467607
H353	H	-0.003607	0.058712	-0.085669
H354	H	0.496393	0.558712	0.414331
H355	H	0.068736	0.034022	-0.095359
H356	H	0.568736	0.534022	0.404641
O357	O	0.056377	0.000022	0.173966
O358	O	0.556377	0.500022	0.673966
C359	C	0.075182	0.043983	0.205363
C360	C	0.575182	0.543983	0.705363
H361	H	0.116293	0.058635	0.190074
H362	H	0.616293	0.558635	0.690074
H363	H	0.083696	0.034105	0.252839
H364	H	0.583696	0.534105	0.752839
H365	H	0.040766	0.074754	0.198566
H366	H	0.540766	0.574754	0.698566
H367	H	-0.763906	-0.000060	-0.658056
H368	H	-0.263906	0.499940	-0.158056
O369	O	-0.595516	-0.878463	0.150870
O370	O	-0.095516	-0.378463	0.650870
C371	C	-0.561151	-0.843435	0.185231
C372	C	-0.061151	-0.343435	0.685231
H373	H	-0.560644	-0.805361	0.161881
H374	H	-0.060644	-0.305361	0.661881
H375	H	-0.515621	-0.858869	0.194150
H376	H	-0.015621	-0.358869	0.694150
H377	H	-0.579400	-0.837752	0.227446
H378	H	-0.079400	-0.337752	0.727446
O379	O	-0.556527	-0.472509	0.189798
O380	O	-0.056527	0.027491	0.689798
C381	C	-0.522164	-0.437477	0.224155
C382	C	-0.022164	0.062523	0.724155
H383	H	-0.521662	-0.399404	0.200803
H384	H	-0.021662	0.100596	0.700803
H385	H	-0.476632	-0.452907	0.233071
H386	H	0.023368	0.047093	0.733071
H387	H	-0.540410	-0.431794	0.266371
H388	H	-0.040410	0.068206	0.766371
H389	H	-0.580748	-0.000070	-0.193677
H390	H	-0.080748	0.499930	0.306323
H391	H	-0.246123	-0.000094	-0.071339
H392	H	0.253877	0.499906	0.428661
O393	O	-0.595451	-0.226881	0.150823
O394	O	-0.095451	0.273119	0.650823
C395	C	-0.539132	-0.213816	0.141856
C396	C	-0.039132	0.286184	0.641856
H397	H	-0.539120	-0.199125	0.096262
H398	H	-0.039120	0.300875	0.596262
H399	H	-0.510512	-0.248944	0.148541
H400	H	-0.010512	0.251056	0.648541
H401	H	-0.522224	-0.182817	0.173514
H402	H	-0.022224	0.317183	0.673514
H403	H	-0.742971	-0.222673	0.003517
H404	H	-0.242971	0.277327	0.503517
O405	O	-0.400887	-0.000129	-0.025619
O406	O	0.099113	0.499871	0.474381
C407	C	-0.366967	-0.044089	-0.029139
C408	C	0.133033	0.455911	0.470861
H409	H	-0.351924	-0.058736	0.015837
H410	H	0.148076	0.441264	0.515837
H411	H	-0.328194	-0.034214	-0.051619
H412	H	0.171806	0.465786	0.448381
H413	H	-0.393356	-0.074864	-0.054479
H414	H	0.106644	0.425136	0.445521
O415	O	-0.788063	-0.367361	-0.041585
O416	O	-0.288063	0.132639	0.458415
C417	C	-0.822442	-0.402391	-0.075928
C418	C	-0.322442	0.097609	0.424072
H419	H	-0.799095	-0.440467	-0.076445
H420	H	-0.299095	0.059533	0.423555
H421	H	-0.831387	-0.386963	-0.121458
H422	H	-0.331387	0.113037	0.378542
H423	H	-0.864643	-0.408069	-0.057653
H424	H	-0.364643	0.091931	0.442347
H425	H	-0.781927	-0.468371	-0.035420
H426	H	-0.281927	0.031629	0.464580
O427	O	-0.556657	-0.367240	0.189801
O428	O	-0.056657	0.132760	0.689801
C429	C	-0.586951	-0.336354	0.224798
C430	C	-0.086951	0.163646	0.724798
H431	H	-0.631643	-0.328345	0.201891
H432	H	-0.131643	0.171655	0.701891
H433	H	-0.563125	-0.298796	0.233932
H434	H	-0.063125	0.201204	0.733932
H435	H	-0.590579	-0.356943	0.266868
H436	H	-0.090579	0.143057	0.766868
O437	O	-0.595602	-0.121541	0.150908
O438	O	-0.095602	0.378459	0.650908
C439	C	-0.625896	-0.090650	0.185901
C440	C	-0.125896	0.409350	0.685901
H441	H	-0.670591	-0.082649	0.162997
H442	H	-0.170591	0.417351	0.662997
H443	H	-0.602075	-0.053088	0.195023
H444	H	-0.102075	0.446912	0.695023
H445	H	-0.629517	-0.111231	0.227977
H446	H	-0.129517	0.388769	0.727977
O447	O	-0.749031	-0.773188	-0.002676
O448	O	-0.249031	-0.273188	0.497324
C449	C	-0.718705	-0.742328	-0.037667
C450	C	-0.218705	-0.242328	0.462333
H451	H	-0.674027	-0.734312	-0.014732
H452	H	-0.174027	-0.234312	0.485268
H453	H	-0.742525	-0.704772	-0.046850
H454	H	-0.242525	-0.204772	0.453150
H455	H	-0.715041	-0.762944	-0.079714
H456	H	-0.215041	-0.262944	0.420286
H457	H	-0.769159	-0.000075	-0.219338
H458	H	-0.269159	0.499925	0.280662
O459	O	-0.595639	-0.773198	0.150878
O460	O	-0.095639	-0.273198	0.650878
C461	C	-0.625935	-0.742310	0.185872
C462	C	-0.125935	-0.242310	0.685872
H463	H	-0.670623	-0.734295	0.162959
H464	H	-0.170623	-0.234295	0.662959
H465	H	-0.602106	-0.704756	0.195015
H466	H	-0.102106	-0.204756	0.695015
H467	H	-0.629575	-0.762903	0.227938
H468	H	-0.129575	-0.262903	0.727938
O469	O	-0.787991	-0.527577	-0.041657
O470	O	-0.287991	-0.027577	0.458343
C471	C	-0.779014	-0.540697	-0.097957
C472	C	-0.279014	-0.040697	0.402043
H473	H	-0.733403	-0.555356	-0.097951
H474	H	-0.233403	-0.055356	0.402049
H475	H	-0.785740	-0.505606	-0.126629
H476	H	-0.285740	-0.005606	0.373371
H477	H	-0.810637	-0.571738	-0.114819
H478	H	-0.310637	-0.071738	0.385181
O479	O	-0.788126	-0.632789	-0.041492
O480	O	-0.288126	-0.132789	0.458508
C481	C	-0.844451	-0.619730	-0.032537
C482	C	-0.344451	-0.119730	0.467463
H483	H	-0.844477	-0.605047	0.013059
H484	H	-0.344477	-0.105047	0.513059
H485	H	-0.873065	-0.654859	-0.039236
H486	H	-0.373065	-0.154859	0.460764
H487	H	-0.861358	-0.588727	-0.064191
H488	H	-0.361358	-0.088727	0.435809
H489	H	-0.562719	-0.531743	0.183657
H490	H	-0.062719	-0.031743	0.683657
O491	O	-0.556547	-0.632754	0.189789
O492	O	-0.056547	-0.132754	0.689789
C493	C	-0.522183	-0.597726	0.224150
C494	C	-0.022183	-0.097726	0.724150
H495	H	-0.521681	-0.559650	0.200804
H496	H	-0.021681	-0.059650	0.700804
H497	H	-0.476651	-0.613156	0.233064
H498	H	0.023349	-0.113156	0.733064
H499	H	-0.540428	-0.592048	0.266368
H500	H	-0.040428	-0.092048	0.766368
O501	O	-0.778707	-0.000068	-0.108123
O502	O	-0.278707	0.499932	0.391877
C503	C	-0.824064	-0.000082	-0.153322
C504	C	-0.324064	0.499918	0.346678
H505	H	-0.808335	0.015988	-0.193587
H506	H	-0.308335	0.515988	0.306413
H507	H	-0.860588	0.024550	-0.141109
H508	H	-0.360588	0.524550	0.358891
H509	H	-0.839945	-0.040794	-0.161818
H510	H	-0.339945	0.459206	0.338182
O511	O	-0.827360	-0.000053	-0.388437
O512	O	-0.327360	0.499947	0.111563
C513	C	-0.872713	-0.000068	-0.433640
C514	C	-0.372713	0.499932	0.066360
H515	H	-0.856979	0.015999	-0.473904
H516	H	-0.356979	0.515999	0.026096
H517	H	-0.909239	0.024565	-0.421433
H518	H	-0.409239	0.524565	0.078567
H519	H	-0.888595	-0.040780	-0.442136
H520	H	-0.388595	0.459220	0.057864
