data_functionalizedCrystal
_audit_creation_method	'MofGen! by Chris Wilmer'
_symmetry_space_group_name_H-M	'P1'
_symmetry_Int_Tables_number	1
_symmetry_cell_setting	triclinic
loop_
_symmetry_equiv_pos_as_xyz
  x,y,z
_cell_length_a	10.908937
_cell_length_b	26.210047
_cell_length_c	11.026607
_cell_angle_alpha	90.000229
_cell_angle_beta	95.664014
_cell_angle_gamma	90.017815
loop_
_atom_site_label
_atom_site_type_symbol
_atom_site_fract_x
_atom_site_fract_y
_atom_site_fract_z
O1	O	1.662469	0.042445	0.179066
O2	O	1.309537	0.042442	0.088529
O3	O	1.456752	0.042441	0.304548
O4	O	1.515254	0.042445	-0.036953
O5	O	1.456693	-0.042417	0.304536
O6	O	1.309477	-0.042416	0.088517
O7	O	1.662410	-0.042413	0.179054
Cu8	Cu	1.485938	-0.050163	0.133785
Cu9	Cu	1.486008	0.050191	0.133798
O10	O	1.515194	-0.042413	-0.036965
C11	C	1.263622	0.000012	0.080062
C12	C	1.126895	0.000011	0.054865
C13	C	0.915317	0.000020	0.120775
C14	C	1.056631	0.000013	0.146820
N15	N	1.485898	-0.120747	0.133778
C16	C	1.576664	-0.473260	0.078463
C17	C	1.576700	-0.686918	0.078471
O18	O	1.653841	-0.714539	0.031447
N19	N	1.486035	-0.713641	0.133816
C20	C	1.395359	-0.686946	0.189170
O21	O	1.318251	-0.714578	0.236256
C22	C	1.395329	-0.473288	0.189169
C23	C	1.485993	-0.446568	0.133809
C24	C	1.667321	-0.446540	0.023109
C25	C	1.667307	-0.393128	0.023101
C26	C	1.576636	-0.366437	0.078448
C27	C	1.485979	-0.393157	0.133802
C28	C	1.304660	-0.446594	0.244530
C29	C	1.304662	-0.393176	0.244527
C30	C	1.395326	-0.366456	0.189168
C31	C	1.395294	-0.313054	0.189141
N32	N	1.485959	-0.286331	0.133796
C33	C	1.576630	-0.313023	0.078449
C34	C	1.395380	-0.799119	0.189165
C35	C	1.395386	-0.852533	0.189163
C36	C	1.576728	-0.852502	0.078466
C37	C	1.576716	-0.799087	0.078460
C38	C	1.486045	-0.772396	0.133819
C39	C	1.576593	-0.200855	0.078438
C40	C	1.576568	-0.147438	0.078431
C41	C	1.395230	-0.147474	0.189134
C42	C	1.395251	-0.200886	0.189135
C43	C	1.485943	-0.227575	0.133786
O44	O	1.318201	-0.285400	0.236152
O45	O	1.653742	-0.285381	0.031394
C46	C	1.576678	-0.526671	0.078470
C47	C	1.486020	-0.553391	0.133824
C48	C	1.395350	-0.526700	0.189170
C49	C	1.486026	-0.606805	0.133822
C50	C	1.576697	-0.633497	0.078476
C51	C	1.667362	-0.606774	0.023130
C52	C	1.667348	-0.553362	0.023123
C53	C	1.304685	-0.553422	0.244516
C54	C	1.304705	-0.606834	0.244517
C55	C	1.395376	-0.633525	0.189170
C56	C	1.708325	0.000017	0.187521
C57	C	1.845052	0.000021	0.212718
C58	C	1.445930	0.000013	0.347575
C59	C	1.413757	0.000014	0.475796
N60	N	1.486057	0.120775	0.133817
C61	C	1.526016	0.000017	-0.079992
C62	C	1.558189	0.000019	-0.208213
C63	C	1.502592	0.000016	0.567529
C64	C	1.469342	0.000017	0.700053
H65	H	1.650398	-0.125685	0.033345
H66	H	1.650444	-0.222578	0.033368
C67	C	0.855265	0.000023	-0.011613
H68	H	0.768164	0.000023	-0.011750
H69	H	0.880317	0.029613	-0.052379
H70	H	0.880256	-0.029574	-0.052380
C71	C	1.066857	0.000017	-0.077533
H72	H	1.129268	0.000019	-0.131837
H73	H	1.017104	-0.029571	-0.091231
H74	H	1.017173	0.029616	-0.091214
C75	C	1.295646	-0.881919	0.250044
H76	H	1.241657	-0.858368	0.283013
H77	H	1.250156	-0.902764	0.191174
H78	H	1.333600	-0.902749	0.313533
C79	C	1.116672	0.000011	0.279217
H80	H	1.054263	0.000017	0.333524
H81	H	1.166366	-0.029581	0.292906
H82	H	1.166415	0.029606	0.292906
H83	H	1.313087	0.000017	0.495373
C84	C	0.905098	0.000019	0.345108
H85	H	0.842688	0.000026	0.399415
H86	H	0.954792	-0.029573	0.358796
H87	H	0.954841	0.029614	0.358796
H88	H	1.741139	-0.371377	-0.021972
H89	H	1.741162	-0.468266	-0.021960
H90	H	1.658866	0.000058	0.772219
C91	C	1.204969	-0.636222	0.305413
H92	H	1.217949	-0.671858	0.297491
H93	H	1.209437	-0.627462	0.389328
H94	H	1.125990	-0.627482	0.266971
C95	C	1.676456	-0.769700	0.017582
H96	H	1.730457	-0.793251	-0.015371
H97	H	1.638518	-0.748865	-0.045897
H98	H	1.721949	-0.748860	0.076471
H99	H	1.650552	-0.874243	0.033395
H100	H	1.321540	-0.777392	0.234247
H101	H	1.230833	-0.468340	0.289612
H102	H	1.230825	-0.371447	0.289610
H103	H	1.321413	-0.222642	0.234196
H104	H	1.321406	-0.125733	0.234192
H105	H	1.741176	-0.531612	-0.021957
C106	C	1.767099	-0.636141	-0.037747
H107	H	1.754117	-0.671779	-0.029801
H108	H	1.762644	-0.627394	-0.121668
H109	H	1.846074	-0.627377	0.000700
H110	H	1.230850	-0.531696	0.289589
H111	H	1.603262	0.000013	0.547952
H112	H	1.368665	0.000020	0.719623
