data_functionalizedCrystal
_audit_creation_method	'MofGen! by Chris Wilmer'
_symmetry_space_group_name_H-M	'P1'
_symmetry_Int_Tables_number	1
_symmetry_cell_setting	triclinic
loop_
_symmetry_equiv_pos_as_xyz
  x,y,z
_cell_length_a	14.446369
_cell_length_b	14.446369
_cell_length_c	14.628931
_cell_angle_alpha	90.000536
_cell_angle_beta	59.999295
_cell_angle_gamma	60.000221
loop_
_atom_site_label
_atom_site_type_symbol
_atom_site_fract_x
_atom_site_fract_y
_atom_site_fract_z
Zr1	Zr	1.013160	0.891804	-0.119933
O2	O	1.206280	0.744002	-0.265900
O3	O	0.820044	0.937109	-0.075186
O4	O	1.013157	0.937116	-0.265892
O5	O	1.013168	0.743995	0.075238
O6	O	1.013148	1.089453	-0.265887
O7	O	1.013168	0.743995	-0.075194
O8	O	0.667706	1.089441	0.075252
O9	O	1.358611	0.744007	-0.265901
O10	O	0.899467	1.070124	-0.056098
O11	O	0.899474	0.956437	0.056163
O12	O	1.126839	0.956445	-0.168369
O13	O	1.126845	0.842757	-0.056108
Zr14	Zr	1.013147	1.134764	0.119997
Zr15	Zr	1.013146	1.134765	-0.119924
Zr16	Zr	1.013160	0.891804	0.119988
Zr17	Zr	1.256110	0.891812	-0.119935
Zr18	Zr	0.770197	1.134756	0.119998
O19	O	1.206262	1.089459	0.075249
O20	O	1.206261	1.089460	-0.265888
O21	O	1.206281	0.744001	0.075237
O22	O	0.820026	1.282567	0.265964
O23	O	0.820025	1.282567	-0.075173
O24	O	0.820045	0.937109	0.265951
O25	O	1.013138	1.282574	-0.075174
O26	O	1.013150	1.089452	0.265956
O27	O	1.013158	0.937115	0.265950
O28	O	1.013139	1.282574	0.075257
O29	O	1.358600	0.937128	-0.265894
O30	O	0.667706	1.089441	0.265957
O31	O	0.667696	1.282562	0.265964
O32	O	0.667695	1.282562	0.075259
O33	O	1.358611	0.744006	-0.075196
O34	O	1.358601	0.937127	-0.075189
O35	O	0.899468	1.070124	0.168433
O36	O	0.899461	1.183812	0.056171
O37	O	1.126833	1.070132	-0.056100
O38	O	1.126839	0.956444	0.056162
C39	C	0.709260	1.013274	0.000033
C40	C	0.606121	1.013271	0.000034
C41	C	0.566837	0.941563	0.070846
C42	C	0.459201	0.941892	0.071222
C43	C	0.371397	1.136859	0.051309
C44	C	0.478643	1.136450	0.051847
C45	C	0.653844	0.962418	-0.122099
C46	C	0.547670	0.959939	-0.121917
C47	C	1.013170	0.709378	0.000021
C48	C	1.013176	0.606235	0.000017
C49	C	1.156564	0.387871	-0.070435
C50	C	1.156660	0.495103	-0.070831
C51	C	0.941946	0.602909	-0.051630
C52	C	0.942856	0.495141	-0.052146
C53	C	0.939904	0.496504	0.122206
C54	C	0.942606	0.602473	0.122013
C55	C	1.317047	1.013294	0.000030
C56	C	1.420185	1.013298	0.000030
C57	C	1.013152	1.013285	-0.300073
C58	C	1.013152	1.013285	-0.401926
C59	C	1.013137	1.317190	0.000043
C60	C	1.013131	1.420333	0.000046
C61	C	1.125944	0.956892	-0.503029
C62	C	1.125946	0.956891	-0.608300
C63	C	1.013154	1.013284	0.300136
C64	C	1.013154	1.013284	0.401989
C65	C	0.709243	1.317180	0.000044
C66	C	0.606099	1.420320	0.000049
C67	C	0.709261	1.013274	0.300138
C68	C	0.606122	1.013270	0.401991
C69	C	0.709244	1.317180	0.300149
C70	C	0.606100	1.420319	0.402006
C71	C	1.317063	0.709389	-0.300086
C72	C	1.420207	0.606249	-0.401943
C73	C	1.317063	0.709388	0.000019
C74	C	1.420208	0.606249	0.000015
C75	C	1.317046	1.013295	-0.300075
C76	C	1.420184	1.013298	-0.401928
C77	C	0.560117	1.409906	-0.055643
C78	C	0.453512	1.516505	-0.055640
C79	C	0.560137	1.069665	0.503094
C80	C	0.453538	1.069663	0.608366
C81	C	0.560112	1.522699	0.391728
C82	C	0.453507	1.629300	0.497001
H83	H	0.655550	0.850346	0.036668
C84	C	0.400126	1.134887	0.725529
H85	H	0.335494	1.126321	0.780913
H86	H	0.362274	1.212974	0.733988
H87	H	0.469663	1.105584	0.733976
C88	C	0.508562	0.818997	0.024807
H89	H	0.594727	0.768419	0.005556
H90	H	0.509241	0.809837	-0.039875
H91	H	0.452178	0.802907	0.080123
C92	C	0.518363	0.988799	0.191837
H93	H	0.521958	1.052034	0.199384
H94	H	0.572534	0.931635	0.208716
H95	H	0.430671	1.011896	0.242055
H96	H	1.212888	0.492659	-0.160944
C97	C	0.400100	1.504689	-0.120054
H98	H	0.335463	1.577885	-0.111608
H99	H	0.362255	1.464448	-0.091133
H100	H	0.469635	1.464458	-0.197173
C101	C	1.232625	0.314967	-0.023890
H102	H	1.177596	0.303663	0.038940
H103	H	1.260098	0.352571	-0.001707
H104	H	1.307102	0.243666	-0.080190
H105	H	0.599690	1.117944	0.511716
C106	C	0.423515	1.191396	0.173239
H107	H	0.335919	1.213751	0.221762
H108	H	0.425140	1.256037	0.178546
H109	H	0.475466	1.138280	0.194308
H110	H	0.447098	0.964987	0.511348
C111	C	1.256397	0.891666	-0.514689
H112	H	1.239282	0.900217	-0.442404
H113	H	1.305196	0.920954	-0.554423
H114	H	1.305190	0.813573	-0.554422
C115	C	0.552712	0.948036	0.390327
H116	H	0.595392	0.912648	0.313244
H117	H	0.461212	0.999287	0.425266
H118	H	0.568607	0.891907	0.425257
H119	H	0.447058	1.627626	0.047746
H120	H	0.680107	1.014391	-0.175103
C121	C	0.552672	1.538967	0.064470
H122	H	0.595350	1.531677	0.099405
H123	H	0.461174	1.579205	0.119891
H124	H	0.568558	1.579209	0.013849
C125	C	0.882690	1.078510	-0.480853
H126	H	0.811927	1.113883	-0.488055
H127	H	0.877818	1.134633	-0.441107
H128	H	0.877829	1.027243	-0.441121
H129	H	0.587125	0.868905	-0.160228
H130	H	0.566554	1.411588	0.488742
C131	C	0.613530	1.534505	0.274561
H132	H	0.678166	1.461308	0.219176
H133	H	0.651377	1.574745	0.266106
H134	H	0.543995	1.574736	0.266111
C135	C	0.339026	0.989602	0.192925
H136	H	0.355870	1.008867	0.242328
H137	H	0.321920	0.934040	0.209439
H138	H	0.265143	1.055359	0.202096
C139	C	0.613540	1.291259	-0.120061
H140	H	0.570874	1.298549	-0.155007
H141	H	0.597667	1.251014	-0.069448
H142	H	0.705044	1.251024	-0.175492
C143	C	0.400090	1.747940	0.485334
H144	H	0.442757	1.740647	0.408252
H145	H	0.415962	1.788188	0.520271
H146	H	0.308587	1.788175	0.520267
C147	C	0.460941	1.500244	0.609772
H148	H	0.418261	1.507537	0.686854
H149	H	0.552439	1.460002	0.574834
H150	H	0.445052	1.460004	0.574840
C151	C	0.780268	0.841319	-0.180018
H152	H	0.806549	0.811697	-0.253127
H153	H	0.764767	0.794549	-0.137715
H154	H	0.847494	0.843005	-0.184954
C155	C	0.508682	1.212607	-0.013335
H156	H	0.455342	1.243664	-0.040020
H157	H	0.598283	1.168865	-0.074926
H158	H	0.490916	1.272300	0.034752
H159	H	0.342888	1.192637	0.002185
H160	H	0.526485	1.006843	-0.179035
C161	C	0.246538	1.192218	0.171538
H162	H	0.217768	1.266975	0.201854
H163	H	0.264873	1.148784	0.216406
H164	H	0.179934	1.195061	0.170521
C165	C	1.011227	0.427128	-0.173576
H166	H	1.012375	0.360801	-0.174961
H167	H	1.098479	0.406207	-0.218021
H168	H	0.964983	0.472422	-0.202656
C169	C	0.800704	0.531127	0.012705
H170	H	0.800297	0.465569	0.012832
H171	H	0.761119	0.573028	-0.022300
H172	H	0.753005	0.576976	0.087598
C173	C	0.799426	0.708633	0.014369
H174	H	0.758185	0.704886	-0.018268
H175	H	0.798570	0.774762	0.012187
H176	H	0.753591	0.711463	0.089910
C177	C	1.008782	0.605784	-0.171917
H178	H	1.080084	0.609005	-0.190844
H179	H	0.947411	0.670752	-0.176741
H180	H	1.040113	0.539345	-0.222382
C181	C	1.001916	0.428941	0.180484
H182	H	1.073054	0.353639	0.130852
H183	H	0.938228	0.427365	0.245837
H184	H	1.032759	0.464128	0.200690
C185	C	0.801212	0.709426	0.198948
H186	H	0.761000	0.704858	0.272052
H187	H	0.753188	0.714845	0.170174
H188	H	0.802224	0.774572	0.202100
H189	H	1.212831	0.493345	-0.036458
C190	C	1.012746	0.601796	0.174148
H191	H	1.084734	0.603803	0.121797
H192	H	1.043466	0.534864	0.193079
H193	H	0.953305	0.666329	0.239728
H194	H	0.834244	0.523939	0.174969
H195	H	1.212583	0.332888	-0.160005
H196	H	1.222511	0.908604	-0.695033
H197	H	0.916589	1.061567	-0.393303
