data_functionalizedCrystal
_audit_creation_method	'MofGen! by Chris Wilmer'
_symmetry_space_group_name_H-M	'P1'
_symmetry_Int_Tables_number	1
_symmetry_cell_setting	triclinic
loop_
_symmetry_equiv_pos_as_xyz
  x,y,z
_cell_length_a	23.532407
_cell_length_b	27.731996
_cell_length_c	22.610064
_cell_angle_alpha	89.998076
_cell_angle_beta	89.997161
_cell_angle_gamma	82.735033
loop_
_atom_site_label
_atom_site_type_symbol
_atom_site_fract_x
_atom_site_fract_y
_atom_site_fract_z
O1	O	0.755125	0.058674	-0.049118
O2	O	1.005125	0.308674	0.200882
O3	O	1.255125	0.558674	0.450882
O4	O	1.505125	0.808674	0.700882
O5	O	0.589242	0.067164	-0.049137
O6	O	0.839242	0.317164	0.200863
O7	O	1.089242	0.567164	0.450863
O8	O	1.339242	0.817164	0.700863
O9	O	0.677351	-0.007472	-0.049114
O10	O	0.927351	0.242528	0.200886
O11	O	1.177351	0.492528	0.450886
O12	O	1.427351	0.742528	0.700886
O13	O	0.667016	0.133309	-0.049141
O14	O	0.917016	0.383309	0.200859
O15	O	1.167016	0.633309	0.450859
O16	O	1.417016	0.883309	0.700859
O17	O	0.677335	-0.007461	0.049255
O18	O	0.927335	0.242539	0.299255
O19	O	1.177335	0.492539	0.549255
O20	O	1.427335	0.742539	0.799255
O21	O	0.589226	0.067175	0.049232
O22	O	0.839226	0.317175	0.299232
O23	O	1.089226	0.567175	0.549232
O24	O	1.339226	0.817175	0.799232
O25	O	0.755110	0.058684	0.049251
O26	O	1.005110	0.308684	0.299251
O27	O	1.255110	0.558684	0.549251
O28	O	1.505110	0.808684	0.799251
Zn29	Zn	0.672166	0.062931	0.064860
Zn30	Zn	0.922166	0.312931	0.314860
Zn31	Zn	1.172166	0.562931	0.564860
Zn32	Zn	1.422166	0.812931	0.814860
Zn33	Zn	0.672186	0.062917	-0.064746
Zn34	Zn	0.922186	0.312917	0.185254
Zn35	Zn	1.172186	0.562917	0.435254
Zn36	Zn	1.422186	0.812917	0.685254
O37	O	0.667001	0.133320	0.049228
O38	O	0.917001	0.383320	0.299228
O39	O	1.167001	0.633320	0.549228
O40	O	1.417001	0.883320	0.799228
C41	C	0.568019	0.066953	0.000046
C42	C	0.818019	0.316953	0.250046
C43	C	1.068019	0.566953	0.500046
C44	C	1.318019	0.816953	0.750046
C45	C	0.504803	0.066303	0.000039
C46	C	0.754803	0.316303	0.250039
C47	C	1.004803	0.566303	0.500039
C48	C	1.254803	0.816303	0.750039
C49	C	0.105606	0.106394	0.000058
C50	C	0.355606	0.356394	0.250058
C51	C	0.605606	0.606394	0.500058
C52	C	0.855606	0.856394	0.750058
C53	C	0.046207	0.105790	0.000062
C54	C	0.296207	0.355790	0.250062
C55	C	0.546207	0.605790	0.500062
C56	C	0.796207	0.855790	0.750062
O57	O	0.009375	0.142955	0.000077
O58	O	0.259375	0.392955	0.250077
O59	O	0.509375	0.642955	0.500077
O60	O	0.759375	0.892955	0.750077
N61	N	0.023685	0.061419	0.000070
N62	N	0.273685	0.311419	0.250070
N63	N	0.523685	0.561419	0.500070
N64	N	0.773685	0.811419	0.750070
C65	C	0.060566	0.017649	0.000079
C66	C	0.310566	0.267649	0.250079
C67	C	0.560566	0.517649	0.500079
C68	C	0.810566	0.767649	0.750079
O69	O	0.035955	-0.020147	0.000086
O70	O	0.285955	0.229853	0.250086
O71	O	0.535955	0.479853	0.500086
O72	O	0.785955	0.729853	0.750086
C73	C	0.119963	0.018253	0.000080
C74	C	0.369963	0.268253	0.250080
C75	C	0.619963	0.518253	0.500080
C76	C	0.869963	0.768253	0.750080
C77	C	0.142482	0.062627	0.000066
C78	C	0.392482	0.312627	0.250066
C79	C	0.642482	0.562627	0.500066
C80	C	0.892482	0.812627	0.750066
C81	C	0.128124	0.150764	0.000046
C82	C	0.378124	0.400764	0.250046
C83	C	0.628124	0.650764	0.500046
C84	C	0.878124	0.900764	0.750046
C85	C	0.187519	0.151368	0.000041
C86	C	0.437519	0.401368	0.250041
C87	C	0.687519	0.651368	0.500041
C88	C	0.937519	0.901368	0.750041
C89	C	0.224395	0.107601	0.000049
C90	C	0.474395	0.357601	0.250049
C91	C	0.724395	0.607601	0.500049
C92	C	0.974395	0.857601	0.750049
C93	C	0.201876	0.063231	0.000061
C94	C	0.451876	0.313231	0.250061
C95	C	0.701876	0.563231	0.500061
C96	C	0.951876	0.813231	0.750061
C97	C	0.156843	-0.025516	0.000094
C98	C	0.406843	0.224484	0.250094
C99	C	0.656843	0.474484	0.500094
C100	C	0.906843	0.724484	0.750094
C101	C	0.216244	-0.024908	0.000095
C102	C	0.466244	0.225092	0.250095
C103	C	0.716244	0.475092	0.500095
C104	C	0.966244	0.725092	0.750095
C105	C	0.238762	0.019466	0.000081
C106	C	0.488762	0.269466	0.250081
C107	C	0.738762	0.519466	0.500081
C108	C	0.988762	0.769466	0.750081
C109	C	0.298147	0.020068	0.000065
C110	C	0.548147	0.270068	0.250065
C111	C	0.798147	0.520068	0.500065
C112	C	1.048147	0.770068	0.750065
N113	N	0.320669	0.064439	0.000057
N114	N	0.570669	0.314439	0.250057
N115	N	0.820669	0.564439	0.500057
N116	N	1.070669	0.814439	0.750057
C117	C	0.283793	0.108206	0.000049
C118	C	0.533793	0.358206	0.250049
C119	C	0.783793	0.608206	0.500049
C120	C	1.033793	0.858206	0.750049
C121	C	-0.064174	0.016383	0.000079
C122	C	0.185826	0.266383	0.250079
C123	C	0.435826	0.516383	0.500079
C124	C	0.685826	0.766383	0.750079
C125	C	-0.123570	0.015778	0.000075
C126	C	0.126430	0.265778	0.250075
C127	C	0.376430	0.515778	0.500075
C128	C	0.626430	0.765778	0.750075
C129	C	-0.137925	0.103920	0.000058
C130	C	0.112075	0.353920	0.250058
C131	C	0.362075	0.603920	0.500058
C132	C	0.612075	0.853920	0.750058
C133	C	-0.078528	0.104524	0.000059
C134	C	0.171472	0.354524	0.250059
C135	C	0.421472	0.604524	0.500059
C136	C	0.671472	0.854524	0.750059
C137	C	-0.041652	0.060754	0.000072
C138	C	0.208348	0.310754	0.250072
C139	C	0.458348	0.560754	0.500072
C140	C	0.708348	0.810754	0.750072
C141	C	0.408526	0.109470	0.000039
C142	C	0.658526	0.359470	0.250039
C143	C	0.908526	0.609470	0.500039
C144	C	1.158526	0.859470	0.750039
C145	C	0.467927	0.110070	0.000031
C146	C	0.717927	0.360070	0.250031
C147	C	0.967927	0.610070	0.500031
C148	C	1.217927	0.860070	0.750031
C149	C	0.482277	0.021929	0.000050
C150	C	0.732277	0.271929	0.250050
C151	C	0.982277	0.521929	0.500050
C152	C	1.232277	0.771929	0.750050
C153	C	0.422881	0.021329	0.000055
C154	C	0.672881	0.271329	0.250055
C155	C	0.922881	0.521329	0.500055
C156	C	1.172881	0.771329	0.750055
C157	C	0.386007	0.065103	0.000051
C158	C	0.636007	0.315103	0.250051
C159	C	0.886007	0.565103	0.500051
C160	C	1.136007	0.815103	0.750051
O161	O	0.335014	-0.017077	0.000053
O162	O	0.585014	0.232923	0.250053
O163	O	0.835014	0.482923	0.500053
O164	O	1.085014	0.732923	0.750053
O165	O	0.308412	0.145996	0.000050
O166	O	0.558412	0.395996	0.250050
O167	O	0.808412	0.645996	0.500050
O168	O	1.058412	0.895996	0.750050
C169	C	0.677131	-0.025474	0.000072
C170	C	0.927131	0.224526	0.250072
C171	C	1.177131	0.474526	0.500072
C172	C	1.427131	0.724526	0.750072
C173	C	0.676491	-0.079131	0.000078
C174	C	0.926491	0.170869	0.250078
C175	C	1.176491	0.420869	0.500078
C176	C	1.426491	0.670869	0.750078
C177	C	0.672477	-0.411860	-0.053572
C178	C	0.922477	-0.161860	0.196428
C179	C	1.172477	0.088140	0.446428
C180	C	1.422477	0.338140	0.696428
C181	C	0.670048	-0.613522	-0.053583
C182	C	0.920048	-0.363522	0.196417
C183	C	1.170048	-0.113522	0.446417
C184	C	1.420048	0.136478	0.696417
O185	O	0.669717	-0.639598	-0.099186
O186	O	0.919717	-0.389598	0.150814
O187	O	1.169717	-0.139598	0.400814
O188	O	1.419717	0.110402	0.650814
N189	N	0.669738	-0.638733	0.000038
N190	N	0.919738	-0.388733	0.250038
N191	N	1.169738	-0.138733	0.500038
N192	N	1.419738	0.111267	0.750038
C193	C	0.670032	-0.613526	0.053665
C194	C	0.920032	-0.363526	0.303665
C195	C	1.170032	-0.113526	0.553665
C196	C	1.420032	0.136474	0.803665
O197	O	0.669706	-0.639597	0.099272
O198	O	0.919706	-0.389597	0.349272
O199	O	1.169706	-0.139597	0.599272
O200	O	1.419706	0.110403	0.849272
C201	C	0.672456	-0.411864	0.053675
C202	C	0.922456	-0.161864	0.303675
C203	C	1.172456	0.088136	0.553675
C204	C	1.422456	0.338136	0.803675
C205	C	0.672772	-0.386656	0.000051
C206	C	0.922772	-0.136656	0.250051
C207	C	1.172772	0.113344	0.500051
C208	C	1.422772	0.363344	0.750051
C209	C	0.672792	-0.386651	-0.107192
C210	C	0.922792	-0.136651	0.142808
C211	C	1.172792	0.113349	0.392808
C212	C	1.422792	0.363349	0.642808
C213	C	0.673402	-0.336239	-0.107188
C214	C	0.923402	-0.086239	0.142812
C215	C	1.173402	0.163761	0.392812
C216	C	1.423402	0.413761	0.642812
C217	C	0.673697	-0.311036	-0.053566
C218	C	0.923697	-0.061036	0.196434
C219	C	1.173697	0.188964	0.446434
C220	C	1.423697	0.438964	0.696434
C221	C	0.673382	-0.336244	0.000054
C222	C	0.923382	-0.086244	0.250054
C223	C	1.173382	0.163756	0.500054
C224	C	1.423382	0.413756	0.750054
C225	C	0.672745	-0.386658	0.107301
C226	C	0.922745	-0.136658	0.357301
C227	C	1.172745	0.113342	0.607301
C228	C	1.422745	0.363342	0.857301
C229	C	0.673350	-0.336239	0.107299
C230	C	0.923350	-0.086239	0.357299
C231	C	1.173350	0.163761	0.607299
C232	C	1.423350	0.413761	0.857299
C233	C	0.673665	-0.311030	0.053675
C234	C	0.923665	-0.061030	0.303675
C235	C	1.173665	0.188970	0.553675
C236	C	1.423665	0.438970	0.803675
C237	C	0.674287	-0.260628	0.053680
C238	C	0.924287	-0.010628	0.303680
C239	C	1.174287	0.239372	0.553680
C240	C	1.424287	0.489372	0.803680
N241	N	0.674597	-0.235417	0.000060
N242	N	0.924597	0.014583	0.250060
N243	N	1.174597	0.264583	0.500060
N244	N	1.424597	0.514583	0.750060
C245	C	0.674302	-0.260620	-0.053563
C246	C	0.924302	-0.010620	0.196437
C247	C	1.174302	0.239380	0.446437
C248	C	1.424302	0.489380	0.696437
C249	C	0.668760	-0.719401	0.053656
C250	C	0.918760	-0.469401	0.303656
C251	C	1.168760	-0.219401	0.553656
C252	C	1.418760	0.030599	0.803656
C253	C	0.668155	-0.769817	0.053653
C254	C	0.918155	-0.519817	0.303653
C255	C	1.168155	-0.269817	0.553653
C256	C	1.418155	-0.019817	0.803653
C257	C	0.668171	-0.769809	-0.053594
C258	C	0.918171	-0.519809	0.196406
C259	C	1.168171	-0.269809	0.446406
C260	C	1.418171	-0.019809	0.696406
C261	C	0.668780	-0.719393	-0.053591
C262	C	0.918780	-0.469393	0.196409
C263	C	1.168780	-0.219393	0.446409
C264	C	1.418780	0.030607	0.696409
C265	C	0.669070	-0.694190	0.000035
C266	C	0.919070	-0.444190	0.250035
C267	C	1.169070	-0.194190	0.500035
C268	C	1.419070	0.055810	0.750035
C269	C	0.675584	-0.154751	-0.053552
C270	C	0.925584	0.095249	0.196448
C271	C	1.175584	0.345249	0.446448
C272	C	1.425584	0.595249	0.696448
C273	C	0.676197	-0.104335	-0.053545
C274	C	0.926197	0.145665	0.196455
C275	C	1.176197	0.395665	0.446455
C276	C	1.426197	0.645665	0.696455
C277	C	0.676178	-0.104347	0.053703
C278	C	0.926178	0.145653	0.303703
C279	C	1.176178	0.395653	0.553703
C280	C	1.426178	0.645653	0.803703
C281	C	0.675568	-0.154759	0.053695
C282	C	0.925568	0.095241	0.303695
C283	C	1.175568	0.345241	0.553695
C284	C	1.425568	0.595241	0.803695
C285	C	0.675269	-0.179960	0.000063
C286	C	0.925269	0.070040	0.250063
C287	C	1.175269	0.320040	0.500063
C288	C	1.425269	0.570040	0.750063
O289	O	0.674612	-0.234520	0.099259
O290	O	0.924612	0.015480	0.349259
O291	O	1.174612	0.265480	0.599259
O292	O	1.424612	0.515480	0.849259
O293	O	0.674615	-0.234539	-0.099164
O294	O	0.924615	0.015461	0.150836
O295	O	1.174615	0.265461	0.400836
O296	O	1.424615	0.515461	0.650836
C297	C	0.671867	-0.462272	-0.053575
C298	C	0.921867	-0.212272	0.196425
C299	C	1.171867	0.037728	0.446425
C300	C	1.421867	0.287728	0.696425
C301	C	0.671551	-0.487480	0.000044
C302	C	0.921551	-0.237480	0.250044
C303	C	1.171551	0.012520	0.500044
C304	C	1.421551	0.262520	0.750044
C305	C	0.671846	-0.462277	0.053667
C306	C	0.921846	-0.212277	0.303667
C307	C	1.171846	0.037723	0.553667
C308	C	1.421846	0.287723	0.803667
C309	C	0.670946	-0.537896	0.000042
C310	C	0.920946	-0.287896	0.250042
C311	C	1.170946	-0.037896	0.500042
C312	C	1.420946	0.212104	0.750042
C313	C	0.670651	-0.563099	-0.053581
C314	C	0.920651	-0.313099	0.196419
C315	C	1.170651	-0.063099	0.446419
C316	C	1.420651	0.186901	0.696419
C317	C	0.670961	-0.537888	-0.107201
C318	C	0.920961	-0.287888	0.142799
C319	C	1.170961	-0.037888	0.392799
C320	C	1.420961	0.212112	0.642799
C321	C	0.671572	-0.487475	-0.107198
C322	C	0.921572	-0.237475	0.142802
C323	C	1.171572	0.012525	0.392802
C324	C	1.421572	0.262525	0.642802
C325	C	0.671536	-0.487488	0.107288
C326	C	0.921536	-0.237488	0.357288
C327	C	1.171536	0.012512	0.607288
C328	C	1.421536	0.262512	0.857288
C329	C	0.670927	-0.537901	0.107280
C330	C	0.920927	-0.287901	0.357280
C331	C	1.170927	-0.037901	0.607280
C332	C	1.420927	0.212099	0.857280
C333	C	0.670632	-0.563104	0.053657
C334	C	0.920632	-0.313104	0.303657
C335	C	1.170632	-0.063104	0.553657
C336	C	1.420632	0.186896	0.803657
C337	C	0.776333	0.058895	0.000067
C338	C	1.026333	0.308895	0.250067
C339	C	1.276333	0.558895	0.500067
C340	C	1.526333	0.808895	0.750067
C341	C	0.839549	0.059545	0.000070
C342	C	1.089549	0.309545	0.250070
C343	C	1.339549	0.559545	0.500070
C344	C	1.589549	0.809545	0.750070
C345	C	0.667221	0.151323	0.000040
C346	C	0.917221	0.401323	0.250040
C347	C	1.167221	0.651323	0.500040
C348	C	1.417221	0.901323	0.750040
C349	C	0.667860	0.204980	0.000031
C350	C	0.917860	0.454980	0.250031
C351	C	1.167860	0.704980	0.500031
C352	C	1.417860	0.954980	0.750031
N353	N	0.672156	0.062941	0.153312
N354	N	0.922156	0.312941	0.403312
N355	N	1.172156	0.562941	0.653312
N356	N	1.422156	0.812941	0.903312
N357	N	0.672200	0.062904	-0.153198
N358	N	0.922200	0.312904	0.096802
N359	N	1.172200	0.562904	0.346802
N360	N	1.422200	0.812904	0.596802
C361	C	0.711202	0.029873	0.561964
C362	C	0.961202	0.279873	0.811964
C363	C	1.211202	0.529873	1.061964
C364	C	1.461202	0.779873	1.311964
C365	C	0.711205	0.029870	0.623884
C366	C	0.961205	0.279870	0.873884
C367	C	1.211205	0.529870	1.123884
C368	C	1.461205	0.779870	1.373884
O369	O	0.744380	0.001762	0.655911
O370	O	0.994380	0.251762	0.905911
O371	O	1.244380	0.501762	1.155911
O372	O	1.494380	0.751762	1.405911
N373	N	0.672186	0.062907	0.654849
N374	N	0.922186	0.312907	0.904849
N375	N	1.172186	0.562907	1.154849
N376	N	1.422186	0.812907	1.404849
C377	C	0.633157	0.095947	0.623892
C378	C	0.883157	0.345947	0.873892
C379	C	1.133157	0.595947	1.123892
C380	C	1.383157	0.845947	1.373892
O381	O	0.599967	0.124047	0.655917
O382	O	0.849967	0.374047	0.905917
O383	O	1.099967	0.624047	1.155917
O384	O	1.349967	0.874047	1.405917
C385	C	0.633151	0.095947	0.561973
C386	C	0.883151	0.345947	0.811973
C387	C	1.133151	0.595947	1.061973
C388	C	1.383151	0.845947	1.311973
C389	C	0.672178	0.062911	0.531011
C390	C	0.922178	0.312911	0.781011
C391	C	1.172178	0.562911	1.031011
C392	C	1.422178	0.812911	1.281011
C393	C	0.750225	-0.003160	0.531001
C394	C	1.000225	0.246840	0.781001
C395	C	1.250225	0.496840	1.031001
C396	C	1.500225	0.746840	1.281001
C397	C	0.750223	-0.003156	0.469085
C398	C	1.000223	0.246844	0.719085
C399	C	1.250223	0.496844	0.969085
C400	C	1.500223	0.746844	1.219085
C401	C	0.711198	0.029882	0.438132
C402	C	0.961198	0.279882	0.688132
C403	C	1.211198	0.529882	0.938132
C404	C	1.461198	0.779882	1.188132
C405	C	0.672175	0.062916	0.469095
C406	C	0.922175	0.312916	0.719095
C407	C	1.172175	0.562916	0.969095
C408	C	1.422175	0.812916	1.219095
C409	C	0.594120	0.128984	0.531017
C410	C	0.844120	0.378984	0.781017
C411	C	1.094120	0.628984	1.031017
C412	C	1.344120	0.878984	1.281017
C413	C	0.594118	0.128982	0.469094
C414	C	0.844118	0.378982	0.719094
C415	C	1.094118	0.628982	0.969094
C416	C	1.344118	0.878982	1.219094
C417	C	0.633144	0.095946	0.438132
C418	C	0.883144	0.345946	0.688132
C419	C	1.133144	0.595946	0.938132
C420	C	1.383144	0.845946	1.188132
C421	C	0.633148	0.095958	0.376227
C422	C	0.883148	0.345958	0.626227
C423	C	1.133148	0.595958	0.876227
C424	C	1.383148	0.845958	1.126227
N425	N	0.672168	0.062921	0.345261
N426	N	0.922168	0.312921	0.595261
N427	N	1.172168	0.562921	0.845261
N428	N	1.422168	0.812921	1.095261
C429	C	0.711193	0.029883	0.376214
C430	C	0.961193	0.279883	0.626214
C431	C	1.211193	0.529883	0.876214
C432	C	1.461193	0.779883	1.126214
C433	C	0.633170	0.095942	0.753926
C434	C	0.883170	0.345942	1.003926
C435	C	1.133170	0.595942	1.253926
C436	C	1.383170	0.845942	1.503926
C437	C	0.633177	0.095944	0.815843
C438	C	0.883177	0.345944	1.065843
C439	C	1.133177	0.595944	1.315843
C440	C	1.383177	0.845944	1.565843
C441	C	0.711225	0.029866	0.815831
C442	C	0.961225	0.279866	1.065831
C443	C	1.211225	0.529866	1.315831
C444	C	1.461225	0.779866	1.565831
C445	C	0.711220	0.029867	0.753912
C446	C	0.961220	0.279867	1.003912
C447	C	1.211220	0.529867	1.253912
C448	C	1.461220	0.779867	1.503912
C449	C	0.672190	0.062905	0.722960
C450	C	0.922190	0.312905	0.972960
C451	C	1.172190	0.562905	1.222960
C452	C	1.422190	0.812905	1.472960
C453	C	0.711185	0.029894	0.246186
C454	C	0.961185	0.279894	0.496186
C455	C	1.211185	0.529894	0.746186
C456	C	1.461185	0.779894	0.996186
C457	C	0.711181	0.029903	0.184265
C458	C	0.961181	0.279903	0.434265
C459	C	1.211181	0.529903	0.684265
C460	C	1.461181	0.779903	0.934265
C461	C	0.633131	0.095978	0.184283
C462	C	0.883131	0.345978	0.434283
C463	C	1.133131	0.595978	0.684283
C464	C	1.383131	0.845978	0.934283
C465	C	0.633137	0.095972	0.246199
C466	C	0.883137	0.345972	0.496199
C467	C	1.133137	0.595972	0.746199
C468	C	1.383137	0.845972	0.996199
C469	C	0.672166	0.062926	0.277149
C470	C	0.922166	0.312926	0.527149
C471	C	1.172166	0.562926	0.777149
C472	C	1.422166	0.812926	1.027149
O473	O	0.599989	0.124050	0.344160
O474	O	0.849989	0.374050	0.594160
O475	O	1.099989	0.624050	0.844160
O476	O	1.349989	0.874050	1.094160
O477	O	0.744371	0.001783	0.344182
O478	O	0.994371	0.251783	0.594182
O479	O	1.244371	0.501783	0.844182
O480	O	1.494371	0.751783	1.094182
H481	H	-0.167961	0.139557	0.000055
H482	H	0.082039	0.389557	0.250055
H483	H	0.332039	0.639557	0.500055
H484	H	0.582039	0.889557	0.750055
F485	F	0.591606	0.131138	0.279151
F486	F	0.841606	0.381138	0.529151
F487	F	1.091606	0.631138	0.779151
F488	F	1.341606	0.881138	1.029151
H489	H	0.378510	0.145116	0.000037
H490	H	0.628510	0.395116	0.250037
H491	H	0.878510	0.645116	0.500037
H492	H	1.128510	0.895116	0.750037
H493	H	0.742965	0.002985	0.271379
H494	H	0.992965	0.252985	0.521379
H495	H	1.242965	0.502985	0.771379
H496	H	1.492965	0.752985	1.021379
H497	H	0.512312	-0.013705	0.000055
H498	H	0.762312	0.236295	0.250055
H499	H	1.012312	0.486295	0.500055
H500	H	1.262312	0.736295	0.750055
H501	H	0.670724	-0.558417	-0.150863
H502	H	0.920724	-0.308417	0.099137
H503	H	1.170724	-0.058417	0.349137
H504	H	1.420724	0.191583	0.599137
F505	F	0.670594	-0.564724	0.164358
F506	F	0.920594	-0.314724	0.414358
F507	F	1.170594	-0.064724	0.664358
F508	F	1.420594	0.185276	0.914358
F509	F	0.752756	-0.005295	0.720965
F510	F	1.002756	0.244705	0.970965
F511	F	1.252756	0.494705	1.220965
F512	F	1.502756	0.744705	1.470965
F513	F	0.671846	-0.460671	0.164364
F514	F	0.921846	-0.210671	0.414364
F515	F	1.171846	0.039329	0.664364
F516	F	1.421846	0.289329	0.914364
H517	H	0.675316	-0.175285	0.097360
H518	H	0.925316	0.074715	0.347360
H519	H	1.175316	0.324715	0.597360
H520	H	1.425316	0.574715	0.847360
F521	F	-0.147529	-0.031450	0.000075
F522	F	0.102471	0.218550	0.250075
F523	F	0.352471	0.468550	0.500075
F524	F	0.602471	0.718550	0.750075
H525	H	0.781999	-0.030058	0.443879
H526	H	1.031999	0.219942	0.693879
H527	H	1.281999	0.469942	0.943879
H528	H	1.531999	0.719942	1.193879
H529	H	0.246266	-0.060551	0.000106
H530	H	0.496266	0.189449	0.250106
H531	H	0.746266	0.439449	0.500106
H532	H	0.996266	0.689449	0.750106
H533	H	0.676455	-0.083813	-0.097214
H534	H	0.926455	0.166187	0.152786
H535	H	1.176455	0.416187	0.402786
H536	H	1.426455	0.666187	0.652786
F537	F	0.669066	-0.692584	0.110736
F538	F	0.919066	-0.442584	0.360736
F539	F	1.169066	-0.192584	0.610736
F540	F	1.419066	0.057416	0.860736
F541	F	0.791763	-0.038328	0.563935
F542	F	1.041763	0.211672	0.813935
F543	F	1.291763	0.461672	1.063935
F544	F	1.541763	0.711672	1.313935
F545	F	0.211477	0.198597	0.000029
F546	F	0.461477	0.448597	0.250029
F547	F	0.711477	0.698597	0.500029
F548	F	0.961477	0.948597	0.750029
H549	H	0.742962	0.003001	0.159057
H550	H	0.992962	0.253001	0.409057
H551	H	1.242962	0.503001	0.659057
H552	H	1.492962	0.753001	0.909057
H553	H	0.672550	-0.407166	-0.150860
H554	H	0.922550	-0.157166	0.099140
H555	H	1.172550	0.092834	0.349140
H556	H	1.422550	0.342834	0.599140
F557	F	0.752758	-0.005297	0.848785
F558	F	1.002758	0.244703	1.098785
F559	F	1.252758	0.494703	1.348785
F560	F	1.502758	0.744703	1.598785
H561	H	0.601405	0.122850	0.841049
H562	H	0.851405	0.372850	1.091049
H563	H	1.101405	0.622850	1.341049
H564	H	1.351405	0.872850	1.591049
H565	H	0.601388	0.122849	0.728728
H566	H	0.851388	0.372849	0.978728
H567	H	1.101388	0.622849	1.228728
H568	H	1.351388	0.872849	1.478728
F569	F	-0.024932	-0.030206	0.000087
F570	F	0.225068	0.219794	0.250087
F571	F	0.475068	0.469794	0.500087
F572	F	0.725068	0.719794	0.750087
F573	F	0.672406	-0.413475	0.164376
F574	F	0.922406	-0.163475	0.414376
F575	F	1.172406	0.086525	0.664376
F576	F	1.422406	0.336525	0.914376
H577	H	0.404547	-0.014804	0.000057
H578	H	0.654547	0.235196	0.250057
H579	H	0.904547	0.485196	0.500057
H580	H	1.154547	0.735196	0.750057
F581	F	0.669115	-0.692569	-0.110665
F582	F	0.919115	-0.442569	0.139335
F583	F	1.169115	-0.192569	0.389335
F584	F	1.419115	0.057431	0.639335
H585	H	0.138520	-0.061650	0.000105
H586	H	0.388520	0.188350	0.250105
H587	H	0.638520	0.438350	0.500105
H588	H	0.888520	0.688350	0.750105
F589	F	0.667829	-0.796641	0.110727
F590	F	0.917829	-0.546641	0.360727
F591	F	1.167829	-0.296641	0.610727
F592	F	1.417829	-0.046641	0.860727
F593	F	0.671907	-0.460653	-0.164273
F594	F	0.921907	-0.210653	0.085727
F595	F	1.171907	0.039347	0.335727
F596	F	1.421907	0.289347	0.585727
H597	H	0.562341	0.155885	0.556218
H598	H	0.812341	0.405885	0.806218
H599	H	1.062341	0.655885	1.056218
H600	H	1.312341	0.905885	1.306218
F601	F	0.675266	-0.181565	-0.110634
F602	F	0.925266	0.068435	0.139366
F603	F	1.175266	0.318435	0.389366
F604	F	1.425266	0.568435	0.639366
H605	H	0.562333	0.155885	0.443896
H606	H	0.812333	0.405885	0.693896
H607	H	1.062333	0.655885	0.943896
H608	H	1.312333	0.905885	1.193896
F609	F	0.591600	0.131140	0.151332
F610	F	0.841600	0.381140	0.401332
F611	F	1.091600	0.631140	0.651332
F612	F	1.341600	0.881140	0.901332
H613	H	0.673577	-0.315720	0.150969
H614	H	0.923577	-0.065720	0.400969
H615	H	1.173577	0.184280	0.650969
H616	H	1.423577	0.434280	0.900969
H617	H	0.486258	0.146206	0.000020
H618	H	0.736258	0.396206	0.250020
H619	H	0.986258	0.646206	0.500020
H620	H	1.236258	0.896206	0.750020
H621	H	0.098105	0.186406	0.000041
H622	H	0.348105	0.436406	0.250041
H623	H	0.598105	0.686406	0.500041
H624	H	0.848105	0.936406	0.750041
F625	F	0.667855	-0.796641	-0.110664
F626	F	0.917855	-0.546641	0.139336
F627	F	1.167855	-0.296641	0.389336
F628	F	1.417855	-0.046641	0.639336
F629	F	-0.054568	0.151752	0.000046
F630	F	0.195432	0.401752	0.250046
F631	F	0.445432	0.651752	0.500046
F632	F	0.695432	0.901752	0.750046
H633	H	0.676420	-0.083817	0.097361
H634	H	0.926420	0.166183	0.347361
H635	H	1.176420	0.416183	0.597361
H636	H	1.426420	0.666183	0.847361
F637	F	0.673734	-0.309416	-0.164263
F638	F	0.923734	-0.059416	0.085737
F639	F	1.173734	0.190584	0.335737
F640	F	1.423734	0.440584	0.585737
