data_functionalizedCrystal
_audit_creation_method	'MofGen! by Chris Wilmer'
_symmetry_space_group_name_H-M	'P1'
_symmetry_Int_Tables_number	1
_symmetry_cell_setting	triclinic
loop_
_symmetry_equiv_pos_as_xyz
  x,y,z
_cell_length_a	6.817900
_cell_length_b	11.102289
_cell_length_c	9.582880
_cell_angle_alpha	90.972692
_cell_angle_beta	111.207034
_cell_angle_gamma	108.605707
loop_
_atom_site_label
_atom_site_type_symbol
_atom_site_fract_x
_atom_site_fract_y
_atom_site_fract_z
V1	V	-4.142615	-0.175303	-0.466601
O2	O	-4.101056	0.008976	-0.457719
O3	O	-4.119180	-0.348127	-0.463410
O4	O	-4.132953	-0.172364	-0.670102
O5	O	-4.087187	-0.168003	-0.249596
V6	V	-4.617989	-0.153290	-0.440646
O7	O	-4.421750	-0.223591	-0.523537
O8	O	-4.789051	-0.105002	-0.383710
O9	O	-4.418218	0.019534	-0.443837
O10	O	-4.776945	-0.337568	-0.449527
O11	O	-4.790814	-0.160589	-0.657651
O12	O	-4.404444	-0.156228	-0.237145
C13	C	-3.969000	-0.390265	-0.456049
C14	C	-4.031384	-0.531549	-0.454796
C15	C	-3.986568	-0.166061	-0.719704
C16	C	-4.060117	-0.164802	-0.886067
C17	C	-4.245196	-0.604390	-0.461672
C18	C	-4.303807	-0.737142	-0.460508
C19	C	-3.934767	-0.724202	-0.445584
C20	C	-3.876166	-0.591453	-0.446759
C21	C	-4.458256	-0.611861	-0.470282
C22	C	-4.516866	-0.744614	-0.469118
C23	C	-4.231739	0.061666	-0.451194
C24	C	-4.148596	0.202949	-0.452456
C25	C	-4.214170	-0.162536	-0.187535
C26	C	-4.119858	-0.163788	-0.021171
H27	H	-3.702073	-0.532153	-0.441177
H28	H	-4.656061	-0.802353	-0.579987
O29	O	-4.600656	-0.588926	-0.600091
C30	C	-4.822494	-0.640630	-0.607618
H31	H	-4.835429	-0.720207	-0.534202
H32	H	-4.869358	-0.561677	-0.564847
C33	C	-4.968151	-0.598527	-0.862963
C34	C	-4.984043	-0.696273	-0.772801
H35	H	-5.067805	-0.632846	-0.964855
H36	H	-4.818695	-0.563689	-0.857890
H37	H	-5.007200	-0.532742	-0.827302
H38	H	-4.944967	-0.762048	-0.808451
H39	H	-5.133497	-0.731124	-0.777884
O40	O	-4.570053	-0.774779	-0.347253
C41	C	-4.628935	-0.908491	-0.346279
H42	H	-4.686060	-0.959512	-0.465838
H43	H	-4.477116	-0.930368	-0.267763
C44	C	-4.751009	-0.893415	-0.142932
C45	C	-4.821189	-0.956080	-0.289778
H46	H	-4.869593	-0.922771	-0.108073
H47	H	-4.711332	-0.803330	-0.143583
H48	H	-4.624491	-0.911651	-0.077520
H49	H	-4.947686	-0.937830	-0.355191
H50	H	-4.860892	-1.046164	-0.289137
O51	O	-4.449757	-0.548290	-0.344475
C52	C	-4.390088	-0.415629	-0.353145
H53	H	-4.297355	-0.391370	-0.432650
H54	H	-4.548187	-0.389486	-0.398167
C55	C	-4.350507	-0.368599	-0.096749
C56	C	-4.236593	-0.338801	-0.194390
H57	H	-4.255832	-0.321207	0.001178
H58	H	-4.390715	-0.457975	-0.090909
H59	H	-4.482251	-0.346813	-0.134286
H60	H	-4.104868	-0.360603	-0.156862
H61	H	-4.196359	-0.249427	-0.200220
H62	H	-3.808404	-0.772991	-0.439042
