data_functionalizedCrystal
_audit_creation_method	'MofGen! by Chris Wilmer'
_symmetry_space_group_name_H-M	'P1'
_symmetry_Int_Tables_number	1
_symmetry_cell_setting	triclinic
loop_
_symmetry_equiv_pos_as_xyz
  x,y,z
_cell_length_a	8.559649
_cell_length_b	6.394989
_cell_length_c	7.681481
_cell_angle_alpha	95.906187
_cell_angle_beta	94.913240
_cell_angle_gamma	101.861812
loop_
_atom_site_label
_atom_site_type_symbol
_atom_site_fract_x
_atom_site_fract_y
_atom_site_fract_z
O1	O	2.104046	0.048509	-0.146402
O2	O	1.641007	-0.059017	-0.146408
O3	O	1.879099	0.299864	-0.146406
O4	O	1.865954	-0.310373	-0.146404
O5	O	1.908402	0.344125	0.146452
O6	O	1.670310	-0.014756	0.146450
O7	O	2.133349	0.092770	0.146456
Zn8	Zn	1.906482	0.046035	0.192951
Zn9	Zn	1.867874	-0.012282	-0.192902
O10	O	1.895257	-0.266111	0.146454
C11	C	1.596293	-0.045035	0.000021
C12	C	1.419401	-0.069291	0.000018
C13	C	2.178063	0.078787	0.000024
C14	C	2.354954	0.103041	0.000015
C15	C	1.891151	0.399398	0.000016
C16	C	1.883208	0.634359	0.000015
N17	N	1.932843	0.085837	0.456285
N18	N	1.841525	-0.052066	-0.456237
H19	H	1.339239	-0.235400	0.000009
H20	H	2.026079	0.226592	0.531491
C21	C	1.544578	0.329230	-0.150527
C22	C	1.463150	0.327275	0.000016
H23	H	1.611387	0.467662	-0.150518
H24	H	1.468893	0.297017	-0.252634
H25	H	1.608701	0.224355	-0.150507
H26	H	1.399017	0.432139	-0.000011
H27	H	1.538845	0.359513	0.102149
H28	H	1.748308	-0.192824	0.468566
