data_functionalizedCrystal
_audit_creation_method	'MofGen! by Chris Wilmer'
_symmetry_space_group_name_H-M	'P1'
_symmetry_Int_Tables_number	1
_symmetry_cell_setting	triclinic
loop_
_symmetry_equiv_pos_as_xyz
  x,y,z
_cell_length_a	11.792254
_cell_length_b	11.792254
_cell_length_c	9.198806
_cell_angle_alpha	89.996642
_cell_angle_beta	89.996104
_cell_angle_gamma	84.198598
loop_
_atom_site_label
_atom_site_type_symbol
_atom_site_fract_x
_atom_site_fract_y
_atom_site_fract_z
O1	O	1.506907	0.155633	-0.120892
O2	O	1.176568	0.171651	-0.120895
O3	O	1.349746	-0.001527	-0.120883
O4	O	1.333728	0.328811	-0.120904
O5	O	1.349733	-0.001528	0.120902
O6	O	1.176554	0.171650	0.120890
O7	O	1.506893	0.155632	0.120893
Cu8	Cu	1.341722	0.163641	0.142968
Cu9	Cu	1.341739	0.163642	-0.142970
O10	O	1.333715	0.328811	0.120881
C11	C	1.134271	0.170642	-0.000003
C12	C	1.008257	0.167621	-0.000004
C13	C	1.348730	-0.043818	0.000009
C14	C	1.345710	-0.169832	0.000008
C15	C	0.905921	0.165168	-0.000010
C16	C	0.777534	0.162099	-0.000011
C17	C	1.343256	-0.272168	0.000002
C18	C	1.340188	-0.400555	-0.000011
C19	C	1.549190	0.156642	-0.000002
C20	C	1.675204	0.159662	-0.000011
C21	C	1.334731	0.371102	-0.000014
C22	C	1.337751	0.497115	-0.000022
N23	N	1.341719	0.163640	0.344082
N24	N	1.341751	0.163634	-0.344084
C25	C	1.414432	0.090608	0.416284
C26	C	1.414450	0.090604	0.583697
H27	H	1.476669	0.028080	0.354163
H28	H	1.279475	0.226159	0.406206
C29	C	1.497644	0.007354	0.666397
C30	C	1.609395	0.026186	0.629476
C31	C	1.686064	-0.050476	0.705646
H32	H	1.484801	-0.068489	0.641592
H33	H	1.486701	0.018436	0.767928
H34	H	1.620333	0.015095	0.527968
H35	H	1.622274	0.102014	0.654285
H36	H	1.675121	-0.039394	0.807177
H37	H	1.673211	-0.126314	0.680835
H38	H	1.761896	-0.037702	0.680617
H39	H	1.279499	0.226167	0.593834
