data_functionalizedCrystal
_audit_creation_method	'MofGen! by Chris Wilmer'
_symmetry_space_group_name_H-M	'P1'
_symmetry_Int_Tables_number	1
_symmetry_cell_setting	triclinic
loop_
_symmetry_equiv_pos_as_xyz
  x,y,z
_cell_length_a	16.109301
_cell_length_b	17.699083
_cell_length_c	15.186229
_cell_angle_alpha	89.995368
_cell_angle_beta	89.999362
_cell_angle_gamma	83.372248
loop_
_atom_site_label
_atom_site_type_symbol
_atom_site_fract_x
_atom_site_fract_y
_atom_site_fract_z
O1	O	1.102963	0.097285	-0.073175
O2	O	1.602963	0.597285	0.426825
O3	O	0.860880	0.109391	-0.073189
O4	O	1.360880	0.609391	0.426811
O5	O	0.988761	-0.006841	-0.073174
O6	O	1.488761	0.493159	0.426826
O7	O	0.975082	0.213517	-0.073190
O8	O	1.475082	0.713517	0.426810
O9	O	0.988753	-0.006843	0.073284
O10	O	1.488753	0.493157	0.573284
O11	O	0.860872	0.109390	0.073268
O12	O	1.360872	0.609390	0.573268
O13	O	1.102955	0.097283	0.073283
O14	O	1.602955	0.597283	0.573283
Zn15	Zn	0.981912	0.103336	0.096529
Zn16	Zn	1.481912	0.603336	0.596529
Zn17	Zn	0.981923	0.103338	-0.096435
Zn18	Zn	1.481923	0.603338	0.403565
O19	O	0.975074	0.213516	0.073267
O20	O	1.475074	0.713516	0.573267
C21	C	0.829902	0.108900	0.000038
C22	C	1.329902	0.608900	0.500038
C23	C	0.737609	0.107430	0.000033
C24	C	1.237609	0.607430	0.500033
C25	C	0.515224	0.172981	0.000038
C26	C	1.015224	0.672981	0.500038
C27	C	0.428506	0.171594	0.000044
C28	C	0.928506	0.671594	0.500044
C29	C	0.448618	0.033688	0.000050
C30	C	0.948618	0.533688	0.500050
C31	C	0.535334	0.035076	0.000051
C32	C	1.035334	0.535076	0.500051
C33	C	0.568635	0.104725	0.000040
C34	C	1.068635	0.604725	0.500040
C35	C	0.395200	0.101949	0.000046
C36	C	0.895200	0.601949	0.500046
C37	C	0.301177	0.100445	0.000052
C38	C	0.801177	0.600445	0.500052
C39	C	0.662664	0.106230	0.000036
C40	C	1.162664	0.606230	0.500036
C41	C	0.988267	-0.035040	0.000055
C42	C	1.488267	0.464960	0.500055
C43	C	0.986796	-0.119060	0.000055
C44	C	1.486796	0.380940	0.500055
C45	C	1.061860	-0.167574	0.000061
C46	C	1.561860	0.332426	0.500061
C47	C	1.060473	-0.246519	0.000053
C48	C	1.560473	0.253481	0.500053
C49	C	0.984022	-0.276949	0.000046
C50	C	1.484022	0.223051	0.500046
C51	C	0.908953	-0.228429	0.000038
C52	C	1.408953	0.271571	0.500038
C53	C	0.910341	-0.149485	0.000039
C54	C	1.410341	0.350515	0.500039
C55	C	0.903356	-0.546800	0.000030
C56	C	1.403356	-0.046800	0.500030
C57	C	0.901974	-0.625750	0.000031
C58	C	1.401974	-0.125750	0.500031
C59	C	1.053488	-0.643834	0.000044
C60	C	1.553488	-0.143834	0.500044
C61	C	1.054876	-0.564890	0.000046
C62	C	1.554876	-0.064890	0.500046
C63	C	0.979807	-0.516377	0.000033
C64	C	1.479807	-0.016377	0.500033
C65	C	0.981312	-0.430776	0.000040
C66	C	1.481312	0.069224	0.500040
C67	C	0.982517	-0.362549	0.000045
C68	C	1.482517	0.137451	0.500045
C69	C	1.133933	0.097774	0.000054
C70	C	1.633933	0.597774	0.500054
C71	C	1.226226	0.099244	0.000053
C72	C	1.726226	0.599244	0.500053
C73	C	0.975568	0.241714	0.000037
C74	C	1.475568	0.741714	0.500037
C75	C	0.977039	0.325734	0.000031
C76	C	1.477039	0.825734	0.500031
N77	N	0.981910	0.103334	0.228221
N78	N	1.481910	0.603334	0.728221
N79	N	0.981931	0.103334	-0.228128
N80	N	1.481931	0.603334	0.271872
C81	C	1.038555	0.051884	0.453951
C82	C	1.538555	0.551884	0.953951
C83	C	1.038558	0.051882	0.546141
C84	C	1.538558	0.551882	1.046141
C85	C	0.925280	0.154787	0.546136
C86	C	1.425280	0.654787	1.046136
C87	C	0.925274	0.154785	0.453948
C88	C	1.425274	0.654785	0.953948
C89	C	0.981916	0.103334	0.407858
C90	C	1.481916	0.603334	0.907858
C91	C	0.981925	0.103334	0.592236
C92	C	1.481925	0.603334	1.092236
C93	C	0.981927	0.103333	0.692192
C94	C	1.481927	0.603333	1.192192
C95	C	0.981913	0.103334	0.307896
C96	C	1.481913	0.603334	0.807896
H97	H	0.578824	-0.020510	0.000055
H98	H	1.078824	0.479490	0.500055
C99	C	0.828779	-0.096899	-0.000103
C100	C	1.328779	0.403101	0.499897
C101	C	0.782734	-0.110655	-0.075446
C102	C	1.282734	0.389345	0.424554
C103	C	0.707588	-0.062234	-0.075606
C104	C	1.207588	0.437766	0.424394
H105	H	0.840436	-0.045499	-0.000149
H106	H	1.340436	0.454501	0.499851
H107	H	0.797372	-0.106132	0.050940
H108	H	1.297372	0.393868	0.550940
H109	H	0.814134	-0.101415	-0.126476
H110	H	1.314134	0.398585	0.373524
H111	H	0.771054	-0.162045	-0.075415
H112	H	1.271054	0.337955	0.424585
H113	H	0.676182	-0.071468	-0.024563
H114	H	1.176182	0.428532	0.475437
H115	H	0.719254	-0.010838	-0.075650
H116	H	1.219254	0.489162	0.424350
H117	H	0.676334	-0.071566	-0.126720
H118	H	1.176334	0.428434	0.373280
C119	C	0.370420	0.245645	-0.000102
C120	C	0.870420	0.745645	0.499898
C121	C	0.320033	0.248869	-0.075438
C122	C	0.820033	0.748869	0.424562
C123	C	0.266507	0.317071	-0.075596
C124	C	0.766507	0.817071	0.424404
H125	H	0.402571	0.287383	-0.000153
H126	H	0.902571	0.787383	0.499847
H127	H	0.336125	0.247978	0.050946
H128	H	0.836125	0.747978	0.550946
H129	H	0.354324	0.246543	-0.126472
H130	H	0.854324	0.746543	0.373528
H131	H	0.287864	0.207147	-0.075403
H132	H	0.787864	0.707147	0.424597
H133	H	0.232213	0.319404	-0.024549
H134	H	0.732213	0.819404	0.475451
H135	H	0.298666	0.358804	-0.075646
H136	H	0.798666	0.858804	0.424354
H137	H	0.232309	0.319265	-0.126707
H138	H	0.732309	0.819265	0.373293
C139	C	0.863885	0.210618	0.596338
C140	C	1.363885	0.710618	1.096338
C141	C	0.876028	0.199625	0.686939
C142	C	1.376028	0.699625	1.186939
C143	C	0.819495	0.251052	0.733210
C144	C	1.319495	0.751052	1.233210
H145	H	0.808378	0.202435	0.581345
H146	H	1.308378	0.702435	1.081345
H147	H	0.872819	0.261149	0.581271
H148	H	1.372819	0.761149	1.081271
H149	H	0.867087	0.149106	0.702000
H150	H	1.367087	0.649106	1.202000
H151	H	0.931524	0.207814	0.701959
H152	H	1.431524	0.707814	1.201959
H153	H	0.828428	0.301583	0.718143
H154	H	1.328428	0.801583	1.218143
H155	H	0.763991	0.242865	0.718209
H156	H	1.263991	0.742865	1.218209
H157	H	0.827731	0.243605	0.794687
H158	H	1.327731	0.743605	1.294687
C159	C	0.863912	0.210689	0.403786
C160	C	1.363912	0.710689	0.903786
C161	C	0.908102	0.257016	0.350834
C162	C	1.408102	0.757016	0.850834
C163	C	0.851605	0.308513	0.304604
C164	C	1.351605	0.808513	0.804604
H165	H	0.830160	0.241409	0.444338
H166	H	1.330160	0.741409	0.944338
H167	H	0.829369	0.183473	0.367779
H168	H	1.329369	0.683473	0.867779
H169	H	0.942630	0.284230	0.386838
H170	H	1.442630	0.784230	0.886838
H171	H	0.941851	0.226317	0.310266
H172	H	1.441851	0.726317	0.810266
H173	H	0.817062	0.281296	0.268597
H174	H	1.317062	0.781296	0.768597
H175	H	0.817856	0.339227	0.345162
H176	H	1.317856	0.839227	0.845162
H177	H	0.881580	0.339947	0.268665
H178	H	1.381580	0.839947	0.768665
H179	H	1.084675	0.009988	0.416427
H180	H	1.584675	0.509988	0.916427
H181	H	0.839715	-0.650523	0.000027
H182	H	1.339715	-0.150523	0.500027
C183	C	0.551264	0.248653	-0.000102
C184	C	1.051264	0.748653	0.499898
C185	C	0.524084	0.289928	-0.075439
C186	C	1.024084	0.789928	0.424561
C187	C	0.557255	0.359646	-0.075589
C188	C	1.057255	0.859646	0.424411
H189	H	0.610556	0.239816	-0.000148
H190	H	1.110556	0.739816	0.499852
H191	H	0.532896	0.276794	0.050945
H192	H	1.032896	0.776794	0.550945
H193	H	0.542457	0.261794	-0.126473
H194	H	1.042457	0.761794	0.373527
H195	H	0.464797	0.298785	-0.075409
H196	H	0.964797	0.798785	0.424591
H197	H	0.538886	0.387786	-0.024542
H198	H	1.038886	0.887786	0.475458
H199	H	0.616546	0.350801	-0.075633
H200	H	1.116546	0.850801	0.424367
H201	H	0.538812	0.387662	-0.126700
H202	H	1.038812	0.887662	0.373300
C203	C	0.412299	-0.041851	0.000009
C204	C	0.912299	0.458149	0.500009
C205	C	0.324924	-0.028460	-0.000018
C206	C	0.824924	0.471540	0.499982
C207	C	0.291442	-0.098030	-0.000071
C208	C	0.791442	0.401970	0.499929
H209	H	0.430548	-0.070016	0.051069
H210	H	0.930548	0.429984	0.551069
H211	H	0.430598	-0.069959	-0.051084
H212	H	0.930598	0.430041	0.448916
H213	H	0.306634	-0.000364	0.051069
H214	H	0.806634	0.499636	0.551069
H215	H	0.306652	-0.000307	-0.051074
H216	H	0.806652	0.499693	0.448926
H217	H	0.309740	-0.126137	-0.051163
H218	H	0.809740	0.373863	0.448837
H219	H	0.309697	-0.126189	0.050990
H220	H	0.809697	0.373811	0.550990
H221	H	0.232155	-0.088953	-0.000097
H222	H	0.732155	0.411047	0.499903
C223	C	1.144781	-0.134393	0.000113
C224	C	1.644781	0.365607	0.500113
C225	C	1.129934	-0.054873	0.000136
C226	C	1.629934	0.445127	0.500136
C227	C	1.206303	-0.024284	0.000192
C228	C	1.706303	0.475716	0.500192
H229	H	1.175747	-0.150960	-0.050945
H230	H	1.675747	0.349040	0.449055
H231	H	1.175687	-0.151009	0.051207
H232	H	1.675687	0.348991	0.551207
H233	H	1.099042	-0.038264	-0.050953
H234	H	1.599042	0.461736	0.449047
H235	H	1.098981	-0.038286	0.051191
H236	H	1.598981	0.461714	0.551191
H237	H	1.237209	-0.040900	0.051287
H238	H	1.737209	0.459100	0.551287
H239	H	1.237264	-0.040856	-0.050866
H240	H	1.737264	0.459144	0.449134
H241	H	1.196240	0.029673	0.000217
H242	H	1.696240	0.529673	0.500217
H243	H	1.121597	-0.286017	0.000060
H244	H	1.621597	0.213983	0.500060
H245	H	1.084677	0.009985	0.583667
H246	H	1.584677	0.509985	1.083667
H247	H	1.117130	-0.540119	0.000056
H248	H	1.617130	-0.040119	0.500056
H249	H	1.114613	-0.683343	0.000050
H250	H	1.614613	-0.183343	0.500050
C251	C	0.821765	-0.494262	0.000075
C252	C	1.321765	0.005738	0.500075
C253	C	0.754520	-0.537811	0.000098
C254	C	1.254520	-0.037811	0.500098
C255	C	0.679343	-0.489435	0.000155
C256	C	1.179343	0.010565	0.500155
H257	H	0.819034	-0.463067	-0.050983
H258	H	1.319034	0.036933	0.449017
H259	H	0.819110	-0.463106	0.051169
H260	H	1.319110	0.036894	0.551169
H261	H	0.757174	-0.568954	-0.050991
H262	H	1.257174	-0.068954	0.449009
H263	H	0.757224	-0.569004	0.051152
H264	H	1.257224	-0.069004	0.551152
H265	H	0.676688	-0.458279	0.051249
H266	H	1.176688	0.041721	0.551249
H267	H	0.676620	-0.458243	-0.050904
H268	H	1.176620	0.041757	0.449096
H269	H	0.633708	-0.518976	0.000179
H270	H	1.133708	-0.018976	0.500179
H271	H	0.846705	-0.253211	0.000026
H272	H	1.346705	0.246789	0.500026
