data_functionalizedCrystal
_audit_creation_method	'MofGen! by Chris Wilmer'
_symmetry_space_group_name_H-M	'P1'
_symmetry_Int_Tables_number	1
_symmetry_cell_setting	triclinic
loop_
_symmetry_equiv_pos_as_xyz
  x,y,z
_cell_length_a	17.077404
_cell_length_b	19.077068
_cell_length_c	17.077396
_cell_angle_alpha	92.266197
_cell_angle_beta	89.982756
_cell_angle_gamma	92.327269
loop_
_atom_site_label
_atom_site_type_symbol
_atom_site_fract_x
_atom_site_fract_y
_atom_site_fract_z
Zn1	Zn	1.187457	-0.280191	-0.456376
Zn2	Zn	1.182084	-0.397897	-0.330374
Zn3	Zn	1.056193	-0.280218	-0.325125
Zn4	Zn	1.050874	-0.397853	-0.461596
O5	O	1.119152	-0.339040	-0.393368
O6	O	1.296591	-0.295812	-0.439673
O7	O	1.165362	-0.382315	-0.219832
O8	O	1.078080	-0.181723	-0.338154
O9	O	1.292644	-0.382290	-0.347101
O10	O	1.174519	-0.181704	-0.434583
O11	O	1.072870	-0.295857	-0.215975
O12	O	0.945641	-0.295815	-0.343216
O13	O	1.069014	-0.382216	-0.570749
O14	O	0.941733	-0.382241	-0.443481
O15	O	1.169361	-0.295770	-0.566914
O16	O	1.160205	-0.496382	-0.352163
O17	O	1.063805	-0.496350	-0.448571
C18	C	0.915205	-0.339027	-0.393345
C19	C	0.827954	-0.339038	-0.393355
C20	C	0.784947	-0.384108	-0.445486
C21	C	0.702966	-0.384110	-0.445498
C22	C	0.663995	-0.339044	-0.393376
C23	C	0.707008	-0.293969	-0.341243
C24	C	0.788987	-0.293965	-0.341235
C25	C	0.536137	-0.293983	-0.341263
C26	C	0.454153	-0.293988	-0.341270
C27	C	0.450117	-0.384128	-0.445526
C28	C	0.532096	-0.384124	-0.445518
C29	C	0.575103	-0.339049	-0.393384
C30	C	1.110866	-0.521903	-0.401520
C31	C	1.107393	-0.600133	-0.405034
C32	C	1.155990	-0.636879	-0.356533
C33	C	1.152728	-0.710384	-0.359842
C34	C	1.100864	-0.747143	-0.411651
C35	C	1.052265	-0.710392	-0.460158
C36	C	1.055531	-0.636888	-0.456851
C37	C	1.085713	-0.966977	-0.426921
C38	C	1.082448	-1.040486	-0.430222
C39	C	1.182913	-1.040474	-0.329907
C40	C	1.186172	-0.966968	-0.326602
C41	C	1.137575	-0.930224	-0.375112
N42	N	1.097527	-0.822277	-0.415033
N43	N	1.140917	-0.855091	-0.371733
C44	C	1.323896	-0.339053	-0.393391
C45	C	1.411145	-0.339059	-0.393400
C46	C	1.119194	-0.338985	-0.598110
C47	C	1.119212	-0.338962	-0.685358
C48	C	1.127492	-0.155462	-0.385200
C49	C	1.131046	-0.077232	-0.381720
C50	C	1.071067	-0.293938	-0.724339
C51	C	1.071080	-0.293922	-0.806319
C52	C	1.119243	-0.338927	-0.849316
C53	C	1.167390	-0.383956	-0.810330
C54	C	1.167372	-0.383975	-0.728352
C55	C	1.167426	-0.383912	-0.981198
C56	C	1.167446	-0.383892	-1.063182
C57	C	1.071134	-0.293859	-1.059166
C58	C	1.071116	-0.293878	-0.977187
C59	C	1.119264	-0.338906	-0.938207
C60	C	1.119158	-0.339043	-0.189420
C61	C	1.119301	-0.338868	-0.102163
H62	H	0.571152	-0.257273	-0.298816
H63	H	1.222479	-1.070399	-0.290414
H64	H	1.040224	-1.070412	-0.472424
C65	C	1.018637	-0.245162	-0.677705
C66	C	0.940279	-0.260494	-0.698307
C67	C	0.891954	-0.215584	-0.655358
H68	H	1.032171	-0.197844	-0.689004
H69	H	1.025468	-0.251626	-0.623291
H70	H	0.933452	-0.254023	-0.752708
H71	H	0.926721	-0.307803	-0.687005
H72	H	0.898785	-0.222048	-0.600944
H73	H	0.905495	-0.168269	-0.666660
H74	H	0.838783	-0.225984	-0.669324
H75	H	0.675271	-0.257273	-0.298808
H76	H	1.228403	-0.937041	-0.284415
H77	H	0.415096	-0.420827	-0.487978
H78	H	0.816671	-0.420808	-0.487927
H79	H	0.667953	-0.420811	-0.487948
H80	H	0.422424	-0.257284	-0.298836
H81	H	1.031931	-0.257194	-1.090908
H82	H	1.031901	-0.257227	-0.942181
C83	C	1.219759	-0.432835	-1.109729
C84	C	1.261901	-0.472291	-1.058048
C85	C	1.310092	-0.517391	-1.100899
H86	H	1.255259	-0.405986	-1.140520
H87	H	1.188355	-0.463525	-1.143055
H88	H	1.293302	-0.441605	-1.024735
H89	H	1.226421	-0.499154	-1.027255
H90	H	1.278688	-0.548081	-1.134225
H91	H	1.345587	-0.490537	-1.131689
H92	H	1.338686	-0.544172	-1.065840
H93	H	1.046142	-0.937065	-0.466418
H94	H	1.206641	-0.420573	-0.949462
C95	C	1.018931	-0.245007	-0.848749
C96	C	1.065427	-0.199903	-0.893839
C97	C	1.017408	-0.154844	-0.932947
H98	H	0.990226	-0.218136	-0.811494
H99	H	0.983529	-0.271913	-0.881960
H100	H	1.100815	-0.173000	-0.860631
H101	H	1.094132	-0.226755	-0.931107
H102	H	0.982006	-0.181750	-0.966158
H103	H	0.988704	-0.127978	-0.895687
H104	H	1.048947	-0.124240	-0.963551
C105	C	1.219710	-0.432896	-0.856872
C106	C	1.261855	-0.472344	-0.805185
C107	C	1.310055	-0.517441	-0.848029
H108	H	1.255209	-0.406045	-0.887663
H109	H	1.188313	-0.463591	-0.890198
H110	H	1.293249	-0.441654	-0.771872
H111	H	1.226376	-0.499210	-0.774393
H112	H	1.278658	-0.548135	-0.881355
H113	H	1.345549	-0.490584	-0.878818
H114	H	1.338650	-0.544216	-0.812966
C115	C	0.995978	-0.750425	-0.516328
C116	C	1.003501	-0.822662	-0.508827
C117	C	0.951652	-0.859561	-0.560549
H118	H	1.007916	-0.738422	-0.568573
H119	H	0.943758	-0.738464	-0.504244
H120	H	1.055709	-0.834619	-0.520916
H121	H	0.991556	-0.834686	-0.456593
H122	H	0.899432	-0.847599	-0.548466
H123	H	0.963594	-0.847552	-0.612791
H124	H	0.956744	-0.908577	-0.555462
H125	H	0.563824	-0.420824	-0.487956
H126	H	1.198220	-0.606956	-0.314341
C127	C	1.219510	-0.432945	-0.685987
C128	C	1.172998	-0.478075	-0.640943
C129	C	1.220996	-0.523205	-0.601914
H130	H	1.254940	-0.406115	-0.652751
H131	H	1.248183	-0.459788	-0.723310
H132	H	1.144338	-0.451235	-0.603624
H133	H	1.137569	-0.504920	-0.674159
H134	H	1.249669	-0.550048	-0.639237
H135	H	1.256424	-0.496369	-0.568683
H136	H	1.189445	-0.553835	-0.571353
C137	C	0.835641	-0.245123	-0.284505
C138	C	0.814995	-0.260375	-0.207491
C139	C	0.857963	-0.215401	-0.155211
H140	H	0.824387	-0.197821	-0.293865
H141	H	0.890052	-0.251581	-0.291914
H142	H	0.760596	-0.253912	-0.200086
H143	H	0.826251	-0.307669	-0.198106
H144	H	0.912375	-0.221859	-0.162620
H145	H	0.846707	-0.168101	-0.164579
H146	H	0.843967	-0.225748	-0.102952
C147	C	1.205525	-0.750153	-0.307088
C148	C	1.251625	-0.702230	-0.260990
C149	C	1.300265	-0.738838	-0.212375
H150	H	1.238509	-0.778784	-0.338344
H151	H	1.174258	-0.778858	-0.274109
H152	H	1.282889	-0.673537	-0.293965
H153	H	1.218661	-0.673598	-0.229718
H154	H	1.268999	-0.767543	-0.179396
H155	H	1.333245	-0.767467	-0.243638
H156	H	1.331545	-0.706328	-0.181087
H157	H	1.015959	-0.606970	-0.496348
