data_functionalizedCrystal
_audit_creation_method	'MofGen! by Chris Wilmer'
_symmetry_space_group_name_H-M	'P1'
_symmetry_Int_Tables_number	1
_symmetry_cell_setting	triclinic
loop_
_symmetry_equiv_pos_as_xyz
  x,y,z
_cell_length_a	10.723024
_cell_length_b	10.723024
_cell_length_c	9.798715
_cell_angle_alpha	89.998022
_cell_angle_beta	89.996609
_cell_angle_gamma	84.467869
loop_
_atom_site_label
_atom_site_type_symbol
_atom_site_fract_x
_atom_site_fract_y
_atom_site_fract_z
O1	O	1.657187	0.175024	-0.113478
O2	O	1.294035	0.191778	-0.113483
O3	O	1.483988	0.001825	-0.113475
O4	O	1.467234	0.364977	-0.113486
O5	O	1.483974	0.001824	0.113507
O6	O	1.294021	0.191777	0.113499
O7	O	1.657173	0.175024	0.113504
Zn8	Zn	1.475595	0.183401	0.149540
Zn9	Zn	1.475613	0.183401	-0.149519
O10	O	1.467220	0.364977	0.113496
C11	C	1.247528	0.190558	0.000008
C12	C	1.108974	0.186911	0.000006
C13	C	1.033991	0.293198	0.000002
C14	C	0.890788	0.289431	0.000001
C15	C	1.482762	-0.044675	0.000014
C16	C	1.479114	-0.183229	0.000009
C17	C	1.585401	-0.258212	0.000009
C18	C	1.581634	-0.401415	0.000004
C19	C	1.703680	0.176243	0.000010
C20	C	1.842234	0.179891	0.000003
C21	C	1.468447	0.411477	0.000004
C22	C	1.472094	0.550031	-0.000000
N23	N	1.475591	0.183399	0.353640
N24	N	1.475627	0.183393	-0.353619
C25	C	1.555347	0.103292	0.421420
C26	C	1.555367	0.103288	0.578582
H27	H	0.826355	0.380421	-0.000008
C28	C	1.349158	-0.362943	0.000001
C29	C	1.254991	-0.369247	-0.117867
C30	C	1.132055	-0.282210	-0.117866
C31	C	1.103286	-0.188869	0.000003
C32	C	1.197455	-0.182562	0.117879
C33	C	1.320391	-0.269599	0.117878
H34	H	1.276285	-0.438346	-0.205128
H35	H	1.062344	-0.286880	-0.205126
H36	H	1.012281	-0.124439	0.000003
H37	H	1.176161	-0.113462	0.205140
H38	H	1.390102	-0.264929	0.205138
H39	H	1.623654	0.034709	0.636870
C40	C	1.647579	0.010638	0.342647
C41	C	1.647312	0.010653	0.185491
C42	C	1.739548	-0.082005	0.106723
C43	C	1.832051	-0.174678	0.185112
C44	C	1.832322	-0.174697	0.342277
C45	C	1.740086	-0.082039	0.421045
H46	H	1.578832	0.079259	0.127455
H47	H	1.739347	-0.081991	-0.009621
H48	H	1.900329	-0.243269	0.126804
H49	H	1.900801	-0.243303	0.400314
H50	H	1.740286	-0.082053	0.537389
C51	C	1.052490	0.060204	0.000009
C52	C	1.081732	-0.033036	0.117877
C53	C	1.025252	-0.159747	0.117880
C54	C	0.939530	-0.193219	0.000014
C55	C	0.910284	-0.099978	-0.117863
C56	C	0.966763	0.026734	-0.117866
H57	H	1.145192	-0.008260	0.205137
H58	H	1.046903	-0.228771	0.205142
H59	H	0.897720	-0.287019	0.000017
H60	H	0.846823	-0.124754	-0.205122
H61	H	0.945113	0.095757	-0.205127
C62	C	1.383372	0.276054	0.567658
C63	C	1.288099	0.226635	0.468590
C64	C	1.195845	0.319296	0.389854
C65	C	1.198863	0.461375	0.410188
C66	C	1.294140	0.510801	0.509261
C67	C	1.386395	0.418140	0.587996
H68	H	1.285861	0.121453	0.453534
H69	H	1.125314	0.282707	0.316514
H70	H	1.130571	0.529969	0.351903
H71	H	1.296378	0.615983	0.524316
H72	H	1.456925	0.454729	0.661336
H73	H	1.679187	-0.216390	0.000018
H74	H	1.075814	0.386984	0.000007
H75	H	1.407319	0.251975	0.411961
H76	H	1.385328	-0.225051	-0.000001
H77	H	0.906659	0.088896	-0.000002
H78	H	1.672624	-0.465848	0.000009
