data_functionalizedCrystal
_audit_creation_method	'MofGen! by Chris Wilmer'
_symmetry_space_group_name_H-M	'P1'
_symmetry_Int_Tables_number	1
_symmetry_cell_setting	triclinic
loop_
_symmetry_equiv_pos_as_xyz
  x,y,z
_cell_length_a	19.188933
_cell_length_b	19.188924
_cell_length_c	18.266242
_cell_angle_alpha	89.991576
_cell_angle_beta	89.992377
_cell_angle_gamma	83.143767
loop_
_atom_site_label
_atom_site_type_symbol
_atom_site_fract_x
_atom_site_fract_y
_atom_site_fract_z
O1	O	0.926146	0.087175	-0.060860
O2	O	0.722835	0.098908	-0.060867
O3	O	0.830360	-0.008614	-0.060855
O4	O	0.818621	0.194698	-0.060872
O5	O	0.830342	-0.008620	0.060907
O6	O	0.722817	0.098903	0.060895
O7	O	0.926128	0.087170	0.060902
Zn8	Zn	0.824469	0.093036	0.080231
Zn9	Zn	0.824493	0.093043	-0.080196
O10	O	0.818603	0.194692	0.060890
C11	C	0.696815	0.098525	0.000013
C12	C	0.619310	0.097384	0.000011
C13	C	0.829972	-0.034628	0.000027
C14	C	0.828833	-0.112133	0.000029
C15	C	0.066065	0.089242	-0.066353
C16	C	0.138889	0.090310	-0.066356
C17	C	0.175296	0.090844	0.000016
C18	C	0.138876	0.090293	0.066396
C19	C	0.066054	0.089217	0.066397
N20	N	0.284308	0.132261	0.049416
N21	N	0.353486	0.133284	0.049411
C22	C	0.394705	0.094082	0.000017
N23	N	0.364132	0.053828	-0.049382
N24	N	0.294948	0.052808	-0.049379
C25	C	0.254260	0.092010	0.000022
C26	C	0.510082	0.095787	-0.066362
C27	C	0.582908	0.096851	-0.066362
C28	C	0.582892	0.096841	0.066392
C29	C	0.510068	0.095770	0.066390
C30	C	0.473667	0.095246	0.000011
C31	C	0.828311	-0.148529	-0.066344
C32	C	0.827231	-0.221351	-0.066349
C33	C	0.826687	-0.257777	0.000021
C34	C	0.827205	-0.221372	0.066403
C35	C	0.828278	-0.148550	0.066407
N36	N	0.864728	-0.377442	0.049421
N37	N	0.863710	-0.446621	0.049413
C38	C	0.823453	-0.477186	0.000014
N39	N	0.784261	-0.435962	-0.049387
N40	N	0.785282	-0.366777	-0.049381
C41	C	0.825523	-0.336741	0.000025
C42	C	0.821760	-0.592545	-0.066369
C43	C	0.820675	-0.665368	-0.066372
C44	C	0.820656	-0.665389	0.066382
C45	C	0.821733	-0.592566	0.066383
C46	C	0.822288	-0.556149	0.000006
C47	C	0.952148	0.087553	0.000020
C48	C	1.029653	0.088694	0.000018
C49	C	0.818991	0.220706	0.000006
C50	C	0.820130	0.298211	-0.000000
N51	N	0.824458	0.093030	0.189718
N52	N	0.824510	0.093043	-0.189683
C53	C	0.872086	0.045442	0.228032
C54	C	0.872090	0.045439	0.304677
C55	C	0.824474	0.093036	0.343005
C56	C	0.776837	0.140627	0.304681
C57	C	0.776829	0.140624	0.228038
N58	N	0.815397	0.154843	0.463331
N59	N	0.815408	0.154844	0.536140
C60	C	0.824493	0.093046	0.573927
N61	N	0.833580	0.031245	0.536156
N62	N	0.833572	0.031246	0.463341
C63	C	0.824477	0.093044	0.426112
C64	C	0.872129	0.045451	0.695349
C65	C	0.872128	0.045446	0.771995
C66	C	0.776878	0.140640	0.771997
C67	C	0.776875	0.140638	0.695353
C68	C	0.824504	0.093044	0.657033
H69	H	0.168542	0.090760	-0.120405
O70	O	0.828893	-0.109252	-0.137937
H71	H	0.876264	-0.129596	-0.169769
O72	O	0.470815	0.095205	-0.137951
H73	H	0.508374	0.095751	-0.184106
O74	O	0.622181	0.097440	-0.137956
H75	H	0.661722	0.050347	-0.141137
H76	H	0.826802	-0.250990	-0.120400
O77	O	0.820086	-0.704626	-0.137963
H78	H	0.820649	-0.667065	-0.184115
H79	H	0.822164	-0.562932	0.120431
H80	H	0.910867	0.006687	0.196834
O81	O	0.826631	-0.260655	0.137991
H82	H	0.825808	-0.317410	0.126839
O83	O	0.923469	-0.005882	0.346017
H84	H	0.956590	-0.038973	0.306494
H85	H	0.828700	-0.118916	0.120457
O86	O	0.725522	0.191991	0.813314
H87	H	0.691678	0.162699	0.848254
O88	O	0.026836	0.088797	0.138037
H89	H	-0.012643	0.135945	0.141135
H90	H	0.738066	0.179380	0.335891
H91	H	0.612534	0.097273	0.120433
O92	O	0.923498	-0.005884	0.813327
H93	H	0.957330	0.023431	0.848239
O94	O	0.178136	0.090875	0.137986
H95	H	0.234890	0.091723	0.126835
H96	H	0.738044	0.179376	0.196841
H97	H	0.910909	0.006694	0.664147
O98	O	0.822342	-0.553258	-0.137958
H99	H	0.869712	-0.573603	-0.169792
O100	O	0.026807	0.088638	-0.137944
H101	H	0.064369	0.089181	-0.184097
O102	O	0.470785	0.095192	0.137976
H103	H	0.508333	0.095750	0.184130
O104	O	0.725513	0.191973	0.654020
H105	H	0.692406	0.225075	0.693545
O106	O	0.820074	-0.704665	0.137972
H107	H	0.819246	-0.761419	0.126820
