data_functionalizedCrystal
_audit_creation_method	'MofGen! by Chris Wilmer'
_symmetry_space_group_name_H-M	'P1'
_symmetry_Int_Tables_number	1
_symmetry_cell_setting	triclinic
loop_
_symmetry_equiv_pos_as_xyz
  x,y,z
_cell_length_a	14.971482
_cell_length_b	11.026607
_cell_length_c	13.448316
_cell_angle_alpha	89.996104
_cell_angle_beta	89.993798
_cell_angle_gamma	96.099312
loop_
_atom_site_label
_atom_site_type_symbol
_atom_site_fract_x
_atom_site_fract_y
_atom_site_fract_z
O1	O	1.212291	0.158159	-0.082676
O2	O	1.712291	0.658159	0.417324
O3	O	0.954926	0.177106	-0.082680
O4	O	1.454926	0.677106	0.417320
O5	O	1.062278	-0.009051	-0.082675
O6	O	1.562278	0.490949	0.417325
O7	O	1.104939	0.344316	-0.082681
O8	O	1.604939	0.844316	0.417319
O9	O	1.062259	-0.009063	0.082709
O10	O	1.562259	0.490937	0.582709
O11	O	0.954907	0.177094	0.082703
O12	O	1.454907	0.677094	0.582703
O13	O	1.212272	0.158147	0.082708
O14	O	1.712272	0.658147	0.582708
Cu15	Cu	1.083588	0.167620	0.097807
Cu16	Cu	1.583588	0.667620	0.597807
Cu17	Cu	1.083610	0.167633	-0.097779
Cu18	Cu	1.583610	0.667633	0.402221
O19	O	1.104919	0.344304	0.082702
O20	O	1.604919	0.844304	0.582702
C21	C	0.921456	0.176254	0.000011
C22	C	1.421456	0.676254	0.500011
C23	C	0.821752	0.173717	0.000009
C24	C	1.321752	0.673717	0.500009
C25	C	0.774906	0.172516	0.090161
C26	C	1.274906	0.672516	0.590161
C27	C	0.681222	0.170113	0.090162
C28	C	1.181222	0.670113	0.590162
C29	C	0.634388	0.168919	0.000010
C30	C	1.134388	0.668919	0.500010
C31	C	0.681240	0.170117	-0.090148
C32	C	1.181240	0.670117	0.409852
C33	C	0.774922	0.172511	-0.090148
C34	C	1.274922	0.672511	0.409852
C35	C	0.485979	0.165129	-0.090142
C36	C	0.985979	0.665129	0.409858
C37	C	0.392292	0.162737	-0.090142
C38	C	0.892292	0.662737	0.409858
C39	C	0.392280	0.162731	0.090169
C40	C	0.892280	0.662731	0.590169
C41	C	0.485961	0.165125	0.090169
C42	C	0.985961	0.665125	0.590169
C43	C	0.532808	0.166325	0.000009
C44	C	1.032808	0.666325	0.500009
C45	C	1.054399	-0.054279	0.000016
C46	C	1.554399	0.445721	0.500016
C47	C	1.030938	-0.189027	0.000012
C48	C	1.530938	0.310973	0.500012
C49	C	1.095717	-0.262740	0.000011
C50	C	1.595717	0.237260	0.500011
C51	C	1.071471	-0.402009	0.000007
C52	C	1.571471	0.097991	0.500007
C53	C	1.245742	0.158999	0.000014
C54	C	1.745742	0.658999	0.500014
C55	C	1.345445	0.161536	0.000010
C56	C	1.845445	0.661536	0.500010
C57	C	1.112799	0.389532	0.000010
C58	C	1.612799	0.889532	0.500010
C59	C	1.136260	0.524280	0.000007
C60	C	1.636260	1.024280	0.500007
N61	N	1.083578	0.167609	0.235371
N62	N	1.583578	0.667609	0.735371
N63	N	1.083625	0.167634	-0.235343
N64	N	1.583625	0.667634	0.264657
C65	C	1.131138	0.085213	0.287414
C66	C	1.631138	0.585213	0.787414
C67	C	1.131143	0.085212	0.391517
C68	C	1.631143	0.585212	0.891517
C69	C	1.083594	0.167614	0.443575
C70	C	1.583594	0.667614	0.943575
C71	C	1.036028	0.250015	0.391525
C72	C	1.536028	0.750015	0.891525
C73	C	1.036018	0.250009	0.287424
C74	C	1.536018	0.750009	0.787424
C75	C	1.036054	0.250023	0.608505
C76	C	1.536054	0.750023	1.108505
C77	C	1.036065	0.250030	0.712614
C78	C	1.536065	0.750030	1.212614
C79	C	1.131180	0.085226	0.712598
C80	C	1.631180	0.585226	1.212598
C81	C	1.131170	0.085220	0.608497
C82	C	1.631170	0.585220	1.108497
C83	C	1.083605	0.167622	0.556454
C84	C	1.583605	0.667622	1.056454
H85	H	0.524092	0.166104	0.163578
H86	H	1.024092	0.666104	0.663578
H87	H	0.997307	0.317104	0.433917
H88	H	1.497307	0.817104	0.933917
Cl89	Cl	0.976221	0.353594	0.222000
Cl90	Cl	1.476221	0.853594	0.722000
H91	H	0.643083	0.169114	0.163573
H92	H	1.143083	0.669114	0.663573
Cl93	Cl	0.333388	0.161223	0.203512
Cl94	Cl	0.833388	0.661223	0.703512
H95	H	1.169908	0.018131	0.754978
H96	H	1.669908	0.518131	1.254978
H97	H	0.354162	0.161767	-0.163552
H98	H	0.854162	0.661767	0.336448
Cl99	Cl	0.958122	-0.463744	-0.000005
Cl100	Cl	1.458122	0.036256	0.499995
H101	H	0.957527	-0.229024	0.000004
H102	H	1.457527	0.270976	0.500004
H103	H	0.643100	0.169137	-0.163552
H104	H	1.143100	0.669137	0.336448
Cl105	Cl	1.209061	-0.200999	0.000007
Cl106	Cl	1.709061	0.299001	0.500007
Cl107	Cl	1.249609	-0.413989	0.000004
Cl108	Cl	1.749609	0.086011	0.500004
H109	H	1.169863	0.018117	0.245034
H110	H	1.669863	0.518117	0.745034
H111	H	1.169869	0.018118	0.433890
H112	H	1.669869	0.518118	0.933890
H113	H	0.524119	0.166107	-0.163559
H114	H	1.024119	0.666107	0.336441
Cl115	Cl	1.190953	-0.018364	0.543050
Cl116	Cl	1.690953	0.481636	1.043050
Cl117	Cl	0.976283	0.353624	0.778051
Cl118	Cl	1.476283	0.853624	1.278051
Cl119	Cl	0.833814	0.174015	-0.203487
Cl120	Cl	1.333814	0.674015	0.296513
H121	H	0.813033	0.173497	0.163573
H122	H	1.313033	0.673497	0.663573
Cl123	Cl	0.976254	0.353614	0.543084
Cl124	Cl	1.476254	0.853614	1.043084
