data_functionalizedCrystal
_audit_creation_method	'MofGen! by Chris Wilmer'
_symmetry_space_group_name_H-M	'P1'
_symmetry_Int_Tables_number	1
_symmetry_cell_setting	triclinic
loop_
_symmetry_equiv_pos_as_xyz
  x,y,z
_cell_length_a	9.565339
_cell_length_b	11.792241
_cell_length_c	11.792241
_cell_angle_alpha	84.193416
_cell_angle_beta	90.000085
_cell_angle_gamma	90.000624
loop_
_atom_site_label
_atom_site_type_symbol
_atom_site_fract_x
_atom_site_fract_y
_atom_site_fract_z
O1	O	0.116125	-1.506908	-0.155560
O2	O	0.449458	-1.173575	0.177774
O3	O	0.782791	-0.840241	0.511107
O4	O	0.116157	-1.176567	-0.171593
O5	O	0.449491	-0.843234	0.161741
O6	O	0.782824	-0.509900	0.495074
O7	O	0.116130	-1.349754	0.001594
O8	O	0.449464	-1.016421	0.334928
O9	O	0.782797	-0.683087	0.668261
O10	O	0.116152	-1.333721	-0.328747
O11	O	0.449485	-1.000388	0.004587
O12	O	0.782818	-0.667054	0.337920
O13	O	-0.116390	-1.349740	0.001584
O14	O	0.216944	-1.016407	0.334917
O15	O	0.550277	-0.683074	0.668250
O16	O	-0.116363	-1.176553	-0.171603
O17	O	0.216971	-0.843220	0.161730
O18	O	0.550304	-0.509887	0.495063
O19	O	-0.116395	-1.506894	-0.155570
O20	O	0.216938	-1.173561	0.177763
O21	O	0.550271	-0.840228	0.511096
Zn22	Zn	-0.153297	-1.341722	-0.163589
Zn23	Zn	0.180037	-1.008388	0.169745
Zn24	Zn	0.513370	-0.675055	0.503078
Zn25	Zn	0.153059	-1.341740	-0.163574
Zn26	Zn	0.486392	-1.008406	0.169759
Zn27	Zn	0.819725	-0.675073	0.503092
O28	O	-0.116368	-1.333707	-0.328757
O29	O	0.216965	-1.000374	0.004576
O30	O	0.550298	-0.667041	0.337909
C31	C	-0.000099	-1.134269	-0.170591
C32	C	0.333235	-0.800936	0.162742
C33	C	0.666568	-0.467603	0.496076
C34	C	-0.000086	-1.008255	-0.167576
C35	C	0.333247	-0.674922	0.165757
C36	C	0.666580	-0.341589	0.499090
N37	N	-0.362376	-1.341718	-0.163598
N38	N	-0.029043	-1.008384	0.169736
N39	N	0.304291	-0.675051	0.503069
C40	C	-0.000129	-1.348740	0.043880
C41	C	0.333204	-1.015407	0.377213
C42	C	0.666538	-0.682073	0.710547
C43	C	-0.000127	-1.345726	0.169894
C44	C	0.333206	-1.012392	0.503227
C45	C	0.666539	-0.679059	0.836560
C46	C	-0.453567	-1.261600	-0.243664
C47	C	-0.120233	-0.928267	0.089669
C48	C	0.213100	-0.594933	0.423003
C49	C	-0.546754	-1.364301	-0.266319
C50	C	-0.213421	-1.030968	0.067014
C51	C	0.119912	-0.697635	0.400348
C52	C	-0.546744	-1.239061	-0.140952
C53	C	-0.213410	-0.905727	0.192382
C54	C	0.119923	-0.572394	0.525715
C55	C	-0.453512	-1.444471	-0.186304
C56	C	-0.120178	-1.111138	0.147029
C57	C	0.213155	-0.777804	0.480363
C58	C	-0.453493	-1.319163	-0.060892
C59	C	-0.120160	-0.985829	0.272442
C60	C	0.213173	-0.652496	0.605775
C61	C	-0.546639	-1.421938	-0.083503
C62	C	-0.213305	-1.088604	0.249830
C63	C	0.120028	-0.755271	0.583163
N64	N	0.362138	-1.341753	-0.163556
N65	N	0.695471	-1.008419	0.169777
N66	N	1.028805	-0.675086	0.503110
C67	C	-0.000136	-1.549192	-0.156572
C68	C	0.333197	-1.215859	0.176761
C69	C	0.666530	-0.882525	0.510094
C70	C	-0.000139	-1.675206	-0.159587
C71	C	0.333194	-1.341873	0.173747
C72	C	0.666527	-1.008539	0.507080
C73	C	-0.000127	-0.777543	-0.162034
C74	C	0.333206	-0.444210	0.171300
C75	C	0.666540	-0.110877	0.504633
C76	C	-0.000105	-0.905928	-0.165113
C77	C	0.333229	-0.572595	0.168220
C78	C	0.666562	-0.239262	0.501553
C79	C	-0.000106	-1.334721	-0.371043
C80	C	0.333227	-1.001388	-0.037710
C81	C	0.666561	-0.668055	0.295624
C82	C	-0.000098	-1.337736	-0.497057
C83	C	0.333235	-1.004402	-0.163723
C84	C	0.666568	-0.671069	0.169610
C85	C	-0.000103	-1.340183	0.400606
C86	C	0.333230	-1.006849	0.733939
C87	C	0.666563	-0.673516	1.067272
C88	C	-0.000116	-1.343262	0.272221
C89	C	0.333217	-1.009929	0.605554
C90	C	0.666550	-0.676596	0.938887
H91	H	-0.412701	-1.193909	-0.311436
H92	H	-0.079368	-0.860576	0.021897
H93	H	0.253965	-0.527242	0.355230
H94	H	-0.587248	-1.489780	-0.015773
H95	H	-0.253914	-1.156447	0.317561
H96	H	0.079419	-0.823113	0.650894
H97	H	-0.412497	-1.300030	0.025919
H98	H	-0.079163	-0.966696	0.359252
H99	H	0.254170	-0.633363	0.692586
H100	H	-0.587718	-1.383402	-0.353157
H101	H	-0.254385	-1.050069	-0.019824
H102	H	0.078949	-0.716736	0.313509
H103	H	-0.412731	-1.531320	-0.205544
H104	H	-0.079398	-1.197987	0.127789
H105	H	0.253936	-0.864654	0.461122
H106	H	-0.587700	-1.152231	-0.121816
H107	H	-0.254367	-0.818898	0.211517
H108	H	0.078966	-0.485564	0.544851
