data_functionalizedCrystal
_audit_creation_method	'MofGen! by Chris Wilmer'
_symmetry_space_group_name_H-M	'P1'
_symmetry_Int_Tables_number	1
_symmetry_cell_setting	triclinic
loop_
_symmetry_equiv_pos_as_xyz
  x,y,z
_cell_length_a	13.897441
_cell_length_b	11.169417
_cell_length_c	11.169416
_cell_angle_alpha	90.011219
_cell_angle_beta	90.025897
_cell_angle_gamma	90.018542
loop_
_atom_site_label
_atom_site_type_symbol
_atom_site_fract_x
_atom_site_fract_y
_atom_site_fract_z
Zn1	Zn	-0.545356	-1.834947	0.477741
Zn2	Zn	-0.384071	-1.834841	0.678464
Zn3	Zn	-0.384081	-1.634237	0.477796
Zn4	Zn	-0.545330	-1.634240	0.678384
O5	O	-0.464709	-1.734567	0.578096
O6	O	-0.523968	-2.002883	0.504377
O7	O	-0.249091	-1.808185	0.651902
O8	O	-0.405490	-1.660905	0.309839
O9	O	-0.405473	-2.002805	0.651848
O10	O	-0.523978	-1.808366	0.309798
O11	O	-0.249098	-1.660802	0.504472
O12	O	-0.405464	-1.466288	0.504395
O13	O	-0.680315	-1.660910	0.651711
O14	O	-0.523933	-1.466290	0.651765
O15	O	-0.680334	-1.808369	0.504300
O16	O	-0.405447	-1.808188	0.846403
O17	O	-0.523923	-1.660807	0.846344
C18	C	-0.464702	-1.734519	0.889921
C19	C	-0.464731	-1.734608	1.023321
C20	C	-0.464697	-1.422742	0.578078
C21	C	-0.464715	-1.289342	0.578099
C22	C	-0.716303	-1.734652	0.577990
C23	C	-0.823517	-1.734688	0.577945
C24	C	-1.019812	-1.734721	0.577864
C25	C	-0.910579	-1.734699	0.577912
C26	C	-0.214095	-1.734551	0.578115
C27	C	-0.106882	-1.734747	0.577822
C28	C	-0.464722	-2.047609	0.578115
C29	C	-0.464728	-2.181009	0.578123
C30	C	-0.464738	-1.734647	0.265054
C31	C	-0.464750	-1.734681	0.131654
