data_functionalizedCrystal
_audit_creation_method	'MofGen! by Chris Wilmer'
_symmetry_space_group_name_H-M	'P1'
_symmetry_Int_Tables_number	1
_symmetry_cell_setting	triclinic
loop_
_symmetry_equiv_pos_as_xyz
  x,y,z
_cell_length_a	19.077105
_cell_length_b	12.759400
_cell_length_c	19.076919
_cell_angle_alpha	92.274856
_cell_angle_beta	90.076224
_cell_angle_gamma	87.711168
loop_
_atom_site_label
_atom_site_type_symbol
_atom_site_fract_x
_atom_site_fract_y
_atom_site_fract_z
Zn1	Zn	1.058328	-0.508276	-0.440436
Zn2	Zn	1.062987	-0.677203	-0.322935
Zn3	Zn	0.945544	-0.494202	-0.318229
Zn4	Zn	0.940808	-0.676569	-0.435688
O5	O	1.001917	-0.589062	-0.379322
O6	O	1.157278	-0.536840	-0.428806
O7	O	1.051339	-0.647302	-0.223980
O8	O	0.960537	-0.349051	-0.334457
O9	O	1.160701	-0.660950	-0.342479
O10	O	1.043399	-0.359391	-0.424243
O11	O	0.965055	-0.512852	-0.220522
O12	O	0.846583	-0.512238	-0.329853
O13	O	0.952466	-0.659870	-0.534649
O14	O	0.843104	-0.646223	-0.416150
O15	O	1.038807	-0.536225	-0.538138
O16	O	1.046747	-0.824137	-0.337875
O17	O	0.956983	-0.823671	-0.420714
C18	C	0.819347	-0.577635	-0.371976
C19	C	0.741242	-0.572772	-0.368850
C20	C	0.702758	-0.640344	-0.412241
C21	C	0.629371	-0.635761	-0.409307
C22	C	0.594468	-0.563612	-0.362979
C23	C	0.632957	-0.496033	-0.319586
C24	C	0.706344	-0.500611	-0.322524
C25	C	0.375179	-0.542424	-0.349385
C26	C	0.301787	-0.537853	-0.346449
C27	C	0.298205	-0.677581	-0.436172
C28	C	0.371593	-0.682157	-0.439102
C29	C	0.410076	-0.614574	-0.395712
N30	N	0.519454	-0.558928	-0.359977
N31	N	0.485088	-0.619253	-0.398718
C32	C	1.001876	-0.862026	-0.379306
C33	C	1.001921	-0.978807	-0.379325
C34	C	1.048709	-1.033882	-0.336242
C35	C	1.048751	-1.143610	-0.336266
C36	C	0.955212	-1.143177	-0.422456
C37	C	0.955173	-1.033452	-0.422436
C38	C	1.095457	-0.979237	-0.293132
C39	C	1.142248	-1.034313	-0.250045
C40	C	1.142290	-1.144041	-0.250068
C41	C	1.095542	-1.198693	-0.293178
C42	C	1.185199	-0.600535	-0.386697
C43	C	1.263303	-0.605424	-0.389840
C44	C	0.994588	-0.599547	-0.562603
C45	C	0.991465	-0.604015	-0.640706
C46	C	1.001976	-0.315035	-0.379355
C47	C	1.002002	-0.198260	-0.379368
C48	C	1.034949	-0.541742	-0.679216
C49	C	1.032006	-0.545935	-0.752602
C50	C	0.985583	-0.612408	-0.787477
C51	C	0.942094	-0.674683	-0.748961
C52	C	0.945034	-0.670484	-0.675576
C53	C	0.971967	-0.631866	-1.006758
C54	C	0.969032	-0.636063	-1.080148
C55	C	1.058943	-0.507313	-1.083785
C56	C	1.061882	-0.503124	-1.010398
C57	C	1.018391	-0.565395	-0.971889
N58	N	0.982575	-0.616698	-0.862489
N59	N	1.021396	-0.561099	-0.896878
C60	C	1.009257	-0.578545	-0.196756
C61	C	1.012516	-0.573790	-0.118659
H62	H	0.604534	-0.437283	-0.281867
O63	O	1.187592	-0.981064	-0.208192
C64	C	1.229014	-0.812221	-0.169988
C65	C	1.177612	-0.872390	-0.217409
H66	H	1.220974	-0.724349	-0.177434
H67	H	1.218993	-0.829761	-0.112812
H68	H	1.285171	-0.838027	-0.184649
H69	H	1.121437	-0.846619	-0.202811
H70	H	1.187695	-0.854848	-0.274572
O71	O	0.412585	-0.476682	-0.307337
C72	C	0.495860	-0.339495	-0.301361
C73	C	0.453519	-0.413873	-0.349065
H74	H	0.528977	-0.288711	-0.335079
H75	H	0.458341	-0.287071	-0.267754
H76	H	0.531645	-0.387704	-0.265925
H77	H	0.417731	-0.365748	-0.384543
H78	H	0.491078	-0.466301	-0.382624
O79	O	0.405534	-0.752341	-0.484012
C80	C	0.488044	-0.899853	-0.496626
C81	C	0.449639	-0.820450	-0.445688
H82	H	0.523723	-0.954926	-0.465663
H83	H	0.447968	-0.947442	-0.527129
H84	H	0.520911	-0.855918	-0.534807
H85	H	0.416773	-0.864302	-0.407464
H86	H	0.489751	-0.772862	-0.415236
H87	H	0.917075	-0.988609	-0.457518
H88	H	1.180395	-1.188881	-0.214990
H89	H	0.737676	-0.445582	-0.287194
O90	O	0.909896	-1.196387	-0.464364
C91	C	0.896617	-1.325013	-0.558891
C92	C	0.948017	-1.264846	-0.511468
H93	H	0.927418	-1.380359	-0.596996
H94	H	0.861220	-1.372378	-0.525170
H95	H	0.863154	-1.266777	-0.589648
H96	H	0.981526	-1.323008	-0.480702
H97	H	0.983367	-1.217464	-0.545228
H98	H	1.095585	-1.288042	-0.293200
O99	O	1.106898	-0.438377	-0.976566
C100	C	1.141956	-0.260508	-0.955586
C101	C	1.090918	-0.333720	-0.993920
H102	H	1.129064	-0.175880	-0.969614
H103	H	1.136599	-0.268087	-0.896509
H104	H	1.198030	-0.283377	-0.972294
H105	H	1.034823	-0.310899	-0.977270
H106	H	1.096337	-0.326130	-1.052990
O107	O	0.267771	-0.467828	-0.301480
C108	C	0.156298	-0.398763	-0.257265
C109	C	0.194732	-0.478140	-0.308198
H110	H	0.097239	-0.407058	-0.262689
H111	H	0.172915	-0.414690	-0.201132
H112	H	0.170292	-0.315716	-0.270301
H113	H	0.180757	-0.561217	-0.295225
H114	H	0.178113	-0.462121	-0.364316
O115	O	1.080064	-0.477078	-0.645452
C116	C	1.168959	-0.349860	-0.656814
C117	C	1.117888	-0.423032	-0.695137
H118	H	1.199564	-0.306161	-0.696967
H119	H	1.138119	-0.290873	-0.621184
H120	H	1.207039	-0.398441	-0.623912
H121	H	1.079797	-0.374537	-0.728077
H122	H	1.148773	-0.482022	-0.730724
O123	O	1.074143	-0.485317	-0.790033
C124	C	1.080302	-0.348823	-0.873298
C125	C	1.032503	-0.417400	-0.830940
H126	H	1.046656	-0.293911	-0.906393
H127	H	1.113971	-0.300522	-0.835792
H128	H	1.115676	-0.401330	-0.909106
H129	H	0.997086	-0.364971	-0.795130
H130	H	0.998882	-0.465710	-0.868486
H131	H	0.266865	-0.732601	-0.471498
H132	H	1.094350	-0.456614	-1.115147
H133	H	0.931226	-0.690196	-1.108541
H134	H	0.936564	-0.682588	-0.975413
H135	H	0.904293	-0.728803	-0.777361
H136	H	0.909618	-0.721182	-0.644221
H137	H	1.095426	-0.889891	-0.293106
H138	H	0.731171	-0.699099	-0.449965
H139	H	0.598040	-0.690786	-0.444640
