data_functionalizedCrystal
_audit_creation_method	'MofGen! by Chris Wilmer'
_symmetry_space_group_name_H-M	'P1'
_symmetry_Int_Tables_number	1
_symmetry_cell_setting	triclinic
loop_
_symmetry_equiv_pos_as_xyz
  x,y,z
_cell_length_a	18.215407
_cell_length_b	18.215405
_cell_length_c	12.759393
_cell_angle_alpha	89.963505
_cell_angle_beta	89.980045
_cell_angle_gamma	90.022344
loop_
_atom_site_label
_atom_site_type_symbol
_atom_site_fract_x
_atom_site_fract_y
_atom_site_fract_z
Zn1	Zn	1.125094	-0.292999	-0.593949
Zn2	Zn	1.124996	-0.416083	-0.418250
Zn3	Zn	1.002020	-0.293029	-0.418287
Zn4	Zn	1.001993	-0.416022	-0.593891
O5	O	1.063526	-0.354533	-0.506094
O6	O	1.228065	-0.309338	-0.570651
O7	O	1.108653	-0.399797	-0.271234
O8	O	1.018399	-0.190041	-0.441628
O9	O	1.227993	-0.399768	-0.441566
O10	O	1.108821	-0.190018	-0.570686
O11	O	1.018304	-0.309390	-0.271261
O12	O	0.899032	-0.309332	-0.441572
O13	O	1.018352	-0.399665	-0.740919
O14	O	0.899012	-0.399695	-0.570587
O15	O	1.108794	-0.309280	-0.740962
O16	O	1.108627	-0.519059	-0.441510
O17	O	1.018257	-0.519015	-0.570552
C18	C	0.872319	-0.354511	-0.506078
C19	C	0.790521	-0.354519	-0.506096
C20	C	0.525472	-0.401662	-0.573180
C21	C	0.602330	-0.401656	-0.573175
C22	C	0.602321	-0.307421	-0.439027
C23	C	0.525464	-0.307431	-0.439027
C24	C	0.487041	-0.354551	-0.506110
C25	C	0.640757	-0.354534	-0.506104
C26	C	0.724091	-0.354527	-0.506098
C27	C	0.403702	-0.354559	-0.506115
C28	C	1.063448	-0.545739	-0.506044
C29	C	1.063482	-0.627538	-0.506057
C30	C	1.110648	-0.815731	-0.438989
C31	C	1.110681	-0.892590	-0.439014
C32	C	1.016497	-0.892583	-0.573275
C33	C	1.016469	-0.815726	-0.573254
C34	C	1.063543	-0.777302	-0.506105
C35	C	1.063605	-0.931018	-0.506151
C36	C	1.063640	-1.014351	-0.506179
C37	C	1.063509	-0.693963	-0.506078
C38	C	1.255479	-0.354556	-0.506111
C39	C	1.337277	-0.354566	-0.506118
C40	C	1.063581	-0.354463	-0.780128
C41	C	1.063604	-0.354432	-0.896904
C42	C	1.063624	-0.162580	-0.506168
C43	C	1.063666	-0.080781	-0.506199
C44	C	1.110701	-0.307361	-0.951790
C45	C	1.110713	-0.307330	-1.061514
C46	C	1.016530	-0.401446	-1.061457
C47	C	1.016515	-0.401474	-0.951735
C48	C	1.063513	-0.354550	-0.233127
C49	C	1.063632	-0.354373	-0.116351
H50	H	0.633614	-0.269056	-0.384412
H51	H	0.633617	-0.440020	-0.627789
H52	H	0.978110	-0.784435	-0.627914
H53	H	1.149040	-0.923875	-0.384362
H54	H	1.149042	-0.269055	-0.907150
H55	H	0.978193	-0.439747	-1.106114
H56	H	0.494172	-0.269066	-0.384405
C57	C	1.162525	-0.255549	-1.121884
N58	N	1.201553	-0.216546	-1.167353
C59	C	0.964700	-0.453256	-0.891357
N60	N	0.925672	-0.492255	-0.845880
C61	C	1.162435	-0.773467	-0.365128
N62	N	1.201445	-0.741636	-0.309497
C63	C	0.964710	-0.934857	-0.647124
N64	N	0.925700	-0.966697	-0.702744
H65	H	0.494190	-0.440031	-0.627803
