data_functionalizedCrystal
_audit_creation_method	'MofGen! by Chris Wilmer'
_symmetry_space_group_name_H-M	'P1'
_symmetry_Int_Tables_number	1
_symmetry_cell_setting	triclinic
loop_
_symmetry_equiv_pos_as_xyz
  x,y,z
_cell_length_a	11.026607
_cell_length_b	17.699083
_cell_length_c	16.776229
_cell_angle_alpha	90.001529
_cell_angle_beta	89.996357
_cell_angle_gamma	84.065484
loop_
_atom_site_label
_atom_site_type_symbol
_atom_site_fract_x
_atom_site_fract_y
_atom_site_fract_z
O1	O	0.153399	-1.025155	-0.066172
O2	O	0.653399	-0.525155	0.433828
O3	O	0.173356	-0.807519	-0.066197
O4	O	0.673356	-0.307519	0.433803
O5	O	-0.013223	-0.898299	-0.066184
O6	O	0.486777	-0.398299	0.433816
O7	O	0.339977	-0.934374	-0.066186
O8	O	0.839977	-0.434374	0.433814
O9	O	-0.013233	-0.898281	0.066393
O10	O	0.486767	-0.398281	0.566393
O11	O	0.173345	-0.807501	0.066379
O12	O	0.673345	-0.307501	0.566379
O13	O	0.153388	-1.025137	0.066405
O14	O	0.653388	-0.525137	0.566405
Zn15	Zn	0.163365	-0.916316	0.087441
Zn16	Zn	0.663365	-0.416316	0.587441
Zn17	Zn	0.163379	-0.916340	-0.087234
Zn18	Zn	0.663379	-0.416340	0.412766
O19	O	0.339966	-0.934356	0.066391
O20	O	0.839966	-0.434356	0.566391
C21	C	0.172636	-0.779214	0.000087
C22	C	0.672636	-0.279214	0.500087
C23	C	0.170490	-0.694902	0.000078
C24	C	0.670490	-0.194902	0.500078
C25	C	-0.058419	-0.891635	0.000103
C26	C	0.441581	-0.391635	0.500103
C27	C	-0.193075	-0.871796	0.000097
C28	C	0.306925	-0.371796	0.500097
C29	C	0.154108	-1.053441	0.000118
C30	C	0.654108	-0.553441	0.500118
C31	C	0.156254	-1.137754	0.000123
C32	C	0.656254	-0.637754	0.500123
C33	C	-0.267042	-0.926576	0.000103
C34	C	0.232958	-0.426576	0.500103
C35	C	-0.406216	-0.906072	0.000097
C36	C	0.093784	-0.406072	0.500097
C37	C	0.385163	-0.941021	0.000103
C38	C	0.885163	-0.441021	0.500103
C39	C	0.519819	-0.960860	0.000103
C40	C	1.019819	-0.460860	0.500103
N41	N	0.163354	-0.916305	0.206652
N42	N	0.663354	-0.416305	0.706652
C43	C	0.280008	-0.661328	0.000077
C44	C	0.780008	-0.161328	0.500077
C45	C	0.277985	-0.582106	0.000088
C46	C	0.777985	-0.082106	0.500088
C47	C	0.166443	-0.536460	0.000092
C48	C	0.666443	-0.036460	0.500092
C49	C	0.056917	-0.570039	0.000095
C50	C	0.556917	-0.070039	0.500095
C51	C	0.058941	-0.649259	0.000090
C52	C	0.558941	-0.149259	0.500090
C53	C	0.048751	-0.250554	0.000115
C54	C	0.548751	0.249446	0.500115
C55	C	0.046735	-0.171329	0.000117
C56	C	0.546735	0.328671	0.500117
C57	C	0.267794	-0.183402	0.000112
C58	C	0.767794	0.316598	0.500112
C59	C	0.269819	-0.262621	0.000107
C60	C	0.769819	0.237379	0.500107
C61	C	0.160293	-0.296194	0.000114
C62	C	0.660293	0.203806	0.500114
C63	C	0.162488	-0.382094	0.000104
C64	C	0.662488	0.117906	0.500104
C65	C	0.164247	-0.450561	0.000096
C66	C	0.664247	0.049439	0.500096
C67	C	0.080771	-0.956523	0.248375
C68	C	0.580771	-0.456523	0.748375
C69	C	0.080771	-0.956527	0.331828
C70	C	0.580771	-0.456527	0.831828
C71	C	0.163360	-0.916316	0.373555
C72	C	0.663360	-0.416316	0.873555
C73	C	0.245947	-0.876094	0.331826
C74	C	0.745947	-0.376094	0.831826
C75	C	0.245941	-0.876086	0.248376
C76	C	0.745941	-0.376086	0.748376
C77	C	0.245972	-0.876122	0.668374
C78	C	0.745972	-0.376122	1.168374
C79	C	0.245974	-0.876135	0.751830
C80	C	0.745974	-0.376135	1.251830
C81	C	0.080802	-0.956563	0.751826
C82	C	0.580802	-0.456563	1.251826
C83	C	0.080796	-0.956555	0.668375
C84	C	0.580796	-0.456555	1.168375
C85	C	0.163378	-0.916329	0.626653
C86	C	0.663378	-0.416329	1.126653
C87	C	0.163376	-0.916325	0.536165
C88	C	0.663376	-0.416325	1.036165
C89	C	0.163368	-0.916325	0.464042
C90	C	0.663368	-0.416325	0.964042
N91	N	0.163385	-0.916348	0.793555
N92	N	0.663385	-0.416348	1.293555
H93	H	-0.445918	-0.843990	0.000085
H94	H	0.054082	-0.343990	0.500085
O95	O	-0.069374	-0.286761	0.000122
O96	O	0.430626	0.213239	0.500122
H97	H	-0.147272	-0.241709	0.000119
H98	H	0.352728	0.258291	0.500119
H99	H	-0.033903	-0.532868	0.000110
H100	H	0.466097	-0.032868	0.500110
H101	H	-0.440480	-1.022943	0.000050
H102	H	0.059520	-0.522943	0.500050
O103	O	-0.245653	-0.789562	0.000093
O104	O	0.254347	-0.289562	0.500093
H105	H	-0.346715	-0.786362	0.000098
H106	H	0.153285	-0.286362	0.500098
O107	O	-0.073576	-0.122092	0.000136
O108	O	0.426424	0.377908	0.500136
H109	H	-0.149397	-0.158745	0.000151
H110	H	0.350603	0.341255	0.500151
O111	O	0.335049	-0.832747	0.623377
O112	O	0.835049	-0.332747	1.123377
H113	H	0.392487	-0.804797	0.666416
H114	H	0.892487	-0.304797	1.166416
H115	H	0.356975	-0.156058	0.000111
H116	H	0.856975	0.343942	0.500111
O117	O	-0.059180	-0.685477	0.000088
O118	O	0.440820	-0.185477	0.500088
H119	H	-0.137084	-0.640429	0.000085
H120	H	0.362916	-0.140429	0.500085
O121	O	-0.008312	-0.999890	0.203370
O122	O	0.491688	-0.499890	0.703370
H123	H	-0.065746	-1.027848	0.246406
H124	H	0.434254	-0.527848	0.746406
O125	O	0.400315	-0.710560	0.000080
O126	O	0.900315	-0.210560	0.500080
H127	H	0.476128	-0.673901	0.000092
H128	H	0.976128	-0.173901	0.500092
O129	O	-0.214452	-1.008808	0.000113
O130	O	0.285548	-0.508808	0.500113
H131	H	-0.245687	-1.037368	-0.053924
H132	H	0.254313	-0.537368	0.446076
H133	H	0.367165	-0.554775	0.000086
H134	H	0.867165	-0.054775	0.500086
H135	H	0.013525	-0.989274	0.365798
H136	H	0.513525	-0.489274	0.865798
H137	H	0.360648	-0.299783	0.000100
H138	H	0.860648	0.200217	0.500100
H139	H	0.013548	-0.989301	0.634403
H140	H	0.513548	-0.489301	1.134403
H141	H	0.013555	-0.989314	0.785804
H142	H	0.513555	-0.489314	1.285804
O143	O	0.335074	-0.832777	0.796842
O144	O	0.835074	-0.332777	1.296842
H145	H	0.392500	-0.804805	0.753811
H146	H	0.892500	-0.304805	1.253811
O147	O	0.335034	-0.832726	0.376826
O148	O	0.835034	-0.332726	0.876826
H149	H	0.321177	-0.839495	0.441865
H150	H	0.821177	-0.339495	0.941865
H151	H	0.313187	-0.843336	0.214405
H152	H	0.813187	-0.343336	0.714405
