data_functionalizedCrystal
_audit_creation_method	'MofGen! by Chris Wilmer'
_symmetry_space_group_name_H-M	'P1'
_symmetry_Int_Tables_number	1
_symmetry_cell_setting	triclinic
loop_
_symmetry_equiv_pos_as_xyz
  x,y,z
_cell_length_a	8.559649
_cell_length_b	10.489741
_cell_length_c	7.088929
_cell_angle_alpha	83.712943
_cell_angle_beta	95.325015
_cell_angle_gamma	77.158919
loop_
_atom_site_label
_atom_site_type_symbol
_atom_site_fract_x
_atom_site_fract_y
_atom_site_fract_z
O1	O	2.103400	-0.028523	-0.158957
O2	O	1.638952	0.037276	-0.158967
O3	O	1.881746	-0.182335	-0.158950
O4	O	1.860607	0.191088	-0.158973
O5	O	1.914192	-0.211743	0.159027
O6	O	1.671399	0.007868	0.159010
O7	O	2.135846	-0.057931	0.159021
Cu8	Cu	1.906585	-0.027717	0.188049
Cu9	Cu	1.868214	0.007062	-0.187996
O10	O	1.893053	0.161680	0.159004
C11	C	1.595703	0.027558	0.000020
C12	C	1.418493	0.042401	0.000017
C13	C	1.896372	-0.244403	0.000037
C14	C	1.891596	-0.385529	0.000034
C15	C	1.737113	-0.437401	0.000016
C16	C	1.826086	-0.551707	0.156797
C17	C	1.794133	-0.522692	-0.156703
C18	C	1.980646	-0.497989	0.156944
C19	C	1.948657	-0.468948	-0.156697
C20	C	2.037747	-0.583242	0.000122
C21	C	2.179096	-0.048213	0.000029
C22	C	2.356304	-0.063054	0.000020
C23	C	1.878426	0.223748	0.000012
C24	C	1.883201	0.364876	0.000003
N25	N	1.933585	-0.052180	0.452539
N26	N	1.841226	0.031513	-0.452486
H27	H	1.336155	0.144049	-0.000000
C28	C	1.565554	-0.352266	0.000214
C29	C	1.467901	-0.378024	0.166307
C30	C	1.296349	-0.292889	0.166515
C31	C	1.222450	-0.181994	0.000630
C32	C	1.320103	-0.156231	-0.165475
C33	C	1.491655	-0.241366	-0.165683
H34	H	1.522605	-0.460119	0.289116
H35	H	1.224061	-0.311961	0.289478
H36	H	1.095457	-0.118972	0.000784
H37	H	1.265399	-0.074136	-0.288284
H38	H	1.563944	-0.222294	-0.288646
H39	H	1.745507	0.118244	0.465862
H40	H	2.059494	-0.486305	0.289639
C41	C	1.756060	-0.600873	0.335854
C42	C	1.839602	-0.596765	0.536330
C43	C	1.769563	-0.645920	0.715379
C44	C	1.615983	-0.699183	0.693951
C45	C	1.532432	-0.703293	0.493466
C46	C	1.602471	-0.654138	0.314418
H47	H	1.953299	-0.557335	0.552200
H48	H	1.831414	-0.642878	0.863791
H49	H	1.564136	-0.735571	0.826493
H50	H	1.418735	-0.742723	0.477596
H51	H	1.540620	-0.657180	0.166006
C52	C	2.209494	-0.668113	0.000228
C53	C	2.341036	-0.672800	0.166205
C54	C	2.512781	-0.757670	0.166319
C55	C	2.552985	-0.837854	0.000457
C56	C	2.421439	-0.833170	-0.165531
C57	C	2.249694	-0.748299	-0.165646
H58	H	2.311278	-0.613440	0.288996
H59	H	2.610160	-0.761137	0.289195
H60	H	2.680121	-0.900680	0.000542
H61	H	2.451197	-0.892529	-0.288323
H62	H	2.152315	-0.744832	-0.288522
C63	C	2.062916	-0.169353	0.562843
C64	C	2.013225	-0.273248	0.700526
C65	C	2.142552	-0.390419	0.810830
C66	C	2.321571	-0.403695	0.783451
C67	C	2.371271	-0.299797	0.645762
C68	C	2.241943	-0.182626	0.535458
H69	H	1.880697	-0.263423	0.720799
H70	H	2.105761	-0.467331	0.912756
H71	H	2.417307	-0.490432	0.865104
H72	H	2.503799	-0.309621	0.625489
H73	H	2.278735	-0.105714	0.433532
H74	H	1.438631	-0.164693	0.000017
H75	H	2.000441	-0.432522	-0.289249
H76	H	1.715223	-0.534512	-0.289262
