data_functionalizedCrystal
_audit_creation_method	'MofGen! by Chris Wilmer'
_symmetry_space_group_name_H-M	'P1'
_symmetry_Int_Tables_number	1
_symmetry_cell_setting	triclinic
loop_
_symmetry_equiv_pos_as_xyz
  x,y,z
_cell_length_a	19.851628
_cell_length_b	19.851628
_cell_length_c	14.560438
_cell_angle_alpha	59.997086
_cell_angle_beta	60.000527
_cell_angle_gamma	89.991587
loop_
_atom_site_label
_atom_site_type_symbol
_atom_site_fract_x
_atom_site_fract_y
_atom_site_fract_z
Zr1	Zr	-0.088378	0.649008	1.005165
O2	O	-0.195932	0.682001	1.005144
O3	O	-0.055408	0.541437	1.005184
O4	O	-0.195931	0.541465	1.196759
O5	O	0.055439	0.792811	0.662436
O6	O	-0.195929	0.541469	1.347895
O7	O	-0.055409	0.681973	0.813568
O8	O	0.055441	0.541419	1.005201
O9	O	-0.195931	0.792861	1.005130
O10	O	-0.041344	0.613307	1.117968
O11	O	0.041379	0.696021	0.892389
O12	O	-0.124069	0.696055	1.117944
O13	O	-0.041346	0.778769	0.892365
Zr14	Zr	0.088414	0.825788	1.005171
Zr15	Zr	-0.088375	0.649014	1.246209
Zr16	Zr	0.088411	0.825782	0.764127
Zr17	Zr	-0.088377	0.825818	1.005143
Zr18	Zr	0.088413	0.648978	1.005193
O19	O	0.055444	0.933359	1.005152
O20	O	-0.195928	0.682009	1.347877
O21	O	0.055440	0.933351	0.662418
O22	O	0.195968	0.792795	1.005192
O23	O	-0.055404	0.541446	1.347917
O24	O	0.195964	0.792787	0.662459
O25	O	-0.055403	0.681985	1.347900
O26	O	0.195967	0.933331	0.813577
O27	O	0.195965	0.933327	0.662441
O28	O	0.055445	0.792824	1.196768
O29	O	-0.195929	0.792866	1.196728
O30	O	0.195965	0.681930	0.813608
O31	O	0.195967	0.681935	1.005206
O32	O	0.055443	0.541423	1.196799
O33	O	-0.055407	0.933373	0.813537
O34	O	-0.055405	0.933378	1.005134
O35	O	0.124105	0.778741	0.892392
O36	O	0.041382	0.696027	1.117971
O37	O	-0.041343	0.778775	1.117947
O38	O	0.041380	0.861489	0.892368
C39	C	0.000016	0.516236	1.005196
C40	C	0.000015	0.441176	1.005205
C41	C	-0.045089	0.169836	1.128172
C42	C	-0.077789	0.237300	1.066703
C43	C	0.000018	0.171031	1.005154
C44	C	0.032677	0.237280	1.066687
C45	C	0.000015	0.303760	1.005186
C46	C	-0.032727	0.237507	0.943684
C47	C	0.077782	0.237476	0.943686
C48	C	0.045102	0.304954	0.882126
C49	C	0.000018	0.094567	1.005139
C50	C	0.000015	0.380225	1.005191
C51	C	-0.221121	0.737435	1.005133
C52	C	-0.296173	0.737448	1.005121
C53	C	-0.432435	0.782507	0.882154
C54	C	-0.499898	0.815202	0.943629
C55	C	-0.433604	0.737415	1.005154
C56	C	-0.499876	0.704726	0.943671
C57	C	-0.566354	0.737384	1.005178
C58	C	-0.500079	0.770155	1.066629
C59	C	-0.500047	0.659636	1.066654
C60	C	-0.567523	0.692311	1.128219
C61	C	-0.357130	0.737435	1.005137
C62	C	-0.642830	0.737365	1.005204
C63	C	0.221157	0.737361	1.005203
C64	C	0.296209	0.737348	1.005215
C65	C	0.000014	0.737391	0.703658
C66	C	0.000013	0.737388	0.601329
C67	C	0.000020	0.958560	1.005140
C68	C	0.000020	1.033620	1.005131
C69	C	0.043194	0.694196	0.553263
C70	C	0.043202	0.694208	0.457098
C71	C	-0.043160	0.780605	0.457077
C72	C	-0.043162	0.780598	0.553234
C73	C	0.093052	0.644312	0.553278
C74	C	0.093059	0.644324	0.457113
C75	C	0.000021	0.737405	1.306677
C76	C	0.000023	0.737408	1.409007
C77	C	-0.221119	0.516281	1.306670
C78	C	-0.296171	0.441236	1.408997
C79	C	0.000020	0.516244	1.306705
C80	C	0.000020	0.441186	1.409044
C81	C	0.221153	0.737354	0.703694
C82	C	0.296204	0.737339	0.601376
C83	C	0.000016	0.958552	0.703631
C84	C	0.000016	1.033610	0.601292
C85	C	0.221155	0.958515	0.703666
C86	C	0.296207	1.033561	0.601339
C87	C	-0.221117	0.737442	1.306642
C88	C	-0.296168	0.737458	1.408960
C89	C	-0.374605	0.449187	1.457049
C90	C	-0.445131	0.378681	1.553209
C91	C	-0.437221	0.300224	1.601310
C92	C	-0.358779	0.292274	1.553254
C93	C	-0.288254	0.362780	1.457102
C94	C	-0.043169	0.362752	1.457112
C95	C	-0.043185	0.292220	1.553284
C96	C	-0.000006	0.300125	1.601379
C97	C	0.043184	0.378567	1.553307
C98	C	0.043195	0.449097	1.457144
C99	C	0.374638	0.780518	0.553318
C100	C	0.445164	0.780520	0.457167
C101	C	0.437253	0.737338	0.409081
C102	C	0.358810	0.694157	0.457143
C103	C	0.288287	0.694160	0.553287
C104	C	0.043197	1.112045	0.553234
C105	C	0.043194	1.182576	0.457089
C106	C	0.000013	1.174671	0.408997
C107	C	-0.043174	1.096229	0.457064
C108	C	-0.043175	1.025699	0.553214
C109	C	0.288270	1.112003	0.553263
C110	C	0.358783	1.182523	0.457102
C111	C	0.437231	1.174598	0.409026
C112	C	0.445165	1.096147	0.457107
C113	C	0.374654	1.025629	0.553259
C114	C	-0.288231	0.780644	1.457020
C115	C	-0.358743	0.780655	1.553171
C116	C	-0.437191	0.737485	1.601253
C117	C	-0.445127	0.694293	1.553189
C118	C	-0.374616	0.694278	1.457046
H119	H	-0.060428	0.236928	0.891728
O120	O	0.180507	0.681032	0.503208
H121	H	0.207481	0.745319	0.415572
O122	O	0.089791	0.533693	1.405292
H123	H	0.137521	0.567874	1.299235
H124	H	0.083237	0.362707	0.778048
H125	H	0.078366	1.118496	0.592372
O126	O	-0.203661	0.354191	1.405306
H127	H	-0.155941	0.416394	1.330379
O128	O	0.089762	0.387089	1.605174
H129	H	0.082503	0.324863	1.680103
H130	H	-0.078321	0.815772	0.592361
O131	O	0.164875	0.236530	0.874893
H132	H	0.202539	0.292535	0.773348
H133	H	-0.078340	0.356300	1.417977
O134	O	0.529764	0.827090	0.405346
H135	H	0.563962	0.783486	0.423794
H136	H	-0.508995	0.385170	1.592320
H137	H	-0.000021	0.242688	1.679680
O138	O	-0.089746	1.087715	0.405184
H139	H	-0.064794	1.053469	0.361379
H140	H	0.224401	1.118472	0.592394
H141	H	0.381095	0.815685	0.592455
H142	H	-0.499333	0.593885	1.118602
H143	H	0.352306	1.246394	0.417970
O144	O	-0.383155	0.533800	1.405192
H145	H	-0.353109	0.567989	1.299134
H146	H	-0.078356	0.228356	1.592409
O147	O	0.056302	0.556871	0.507203
H148	H	0.093595	0.519619	0.532617
H149	H	0.352382	0.659000	0.417977
O150	O	0.529793	1.087638	0.405287
H151	H	0.564021	1.117713	0.299216
H152	H	0.000020	1.232108	0.330705
H153	H	-0.143555	0.237974	1.118690
H154	H	0.494685	0.737343	0.330795
O155	O	-0.095653	0.093217	1.265926
H156	H	-0.094728	0.037754	1.264715
O157	O	0.049471	0.559747	0.680150
H158	H	0.026372	0.514917	0.669647
O159	O	-0.355832	0.833096	0.744391
H160	H	-0.300361	0.832192	0.745580
H161	H	-0.494653	0.242821	1.679605
H162	H	0.494639	1.232025	0.330732
O163	O	0.177631	0.687873	0.330261
H164	H	0.222465	0.710950	0.340776
O165	O	-0.500699	0.668129	0.874762
H166	H	-0.557119	0.667907	0.876164
O167	O	-0.089743	0.941101	0.605034
H168	H	-0.119759	0.947463	0.555422
O169	O	0.203689	0.647453	0.605300
H170	H	0.210046	0.617377	0.555775
H171	H	-0.352351	0.228385	1.592434
O172	O	0.089788	1.267176	0.405237
H173	H	0.119826	1.260816	0.454818
H174	H	0.381127	0.961760	0.592400
O175	O	0.069280	0.238130	1.135578
H176	H	0.031729	0.182712	1.237648
H177	H	-0.224361	0.815802	1.417882
H178	H	-0.381090	0.659111	1.417919
H179	H	-0.352265	0.815831	1.592289
O180	O	-0.513241	0.737516	1.704935
H181	H	-0.494534	0.774811	1.730257
O182	O	-0.499312	0.806862	1.135433
H183	H	-0.443217	0.862004	1.067264
O184	O	-0.529741	0.647742	1.605039
H185	H	-0.577430	0.655024	1.679952
H186	H	-0.500582	0.880967	0.891639
H187	H	-0.078312	0.815784	0.417907
O188	O	-0.644016	0.641795	1.266083
H189	H	-0.644546	0.669095	1.316813
