data_functionalizedCrystal
_audit_creation_method	'MofGen! by Chris Wilmer'
_symmetry_space_group_name_H-M	'P1'
_symmetry_Int_Tables_number	1
_symmetry_cell_setting	triclinic
loop_
_symmetry_equiv_pos_as_xyz
  x,y,z
_cell_length_a	27.732048
_cell_length_b	16.992695
_cell_length_c	16.053967
_cell_angle_alpha	87.288060
_cell_angle_beta	92.895882
_cell_angle_gamma	93.344561
loop_
_atom_site_label
_atom_site_type_symbol
_atom_site_fract_x
_atom_site_fract_y
_atom_site_fract_z
O1	O	0.643037	-0.090332	-0.069321
O2	O	0.502856	-0.104510	-0.069346
O3	O	0.572384	0.016714	-0.069327
O4	O	0.573508	-0.211557	-0.069340
O5	O	0.576228	0.010866	0.069529
O6	O	0.506700	-0.110359	0.069510
O7	O	0.646881	-0.096180	0.069535
Zn8	Zn	0.577400	-0.104198	0.091569
Zn9	Zn	0.572336	-0.096493	-0.091380
O10	O	0.577352	-0.217405	0.069516
C11	C	0.486758	-0.107137	0.000079
C12	C	0.433064	-0.106240	0.000069
N13	N	0.568880	-0.091229	-0.216237
C14	C	0.572861	0.042985	0.000101
C15	C	0.568547	0.129977	0.000100
C16	C	0.097103	-0.172235	0.000102
C17	C	-0.104700	-0.168910	0.000109
O18	O	-0.133346	-0.229259	0.000142
N19	N	-0.126932	-0.097029	0.000112
C20	C	-0.098709	-0.025974	0.000118
O21	O	-0.122249	0.035242	0.000129
C22	C	0.103093	-0.029300	0.000116
C23	C	0.125322	-0.101186	0.000105
C24	C	0.119332	-0.244115	0.000091
C25	C	0.169779	-0.244946	0.000085
C26	C	0.197998	-0.173896	0.000089
C27	C	0.175769	-0.102016	0.000099
C28	C	0.131315	0.041754	0.000128
C29	C	0.181769	0.040916	0.000130
C30	C	0.203997	-0.030970	0.000119
C31	C	0.254436	-0.031796	0.000096
N32	N	0.276668	-0.103678	0.000093
C33	C	0.248449	-0.174728	0.000090
C34	C	-0.204658	-0.024232	0.000117
C35	C	-0.255109	-0.023401	0.000116
C36	C	-0.261097	-0.166338	0.000109
C37	C	-0.210645	-0.167168	0.000104
C38	C	-0.182427	-0.096114	0.000115
C39	C	0.354393	-0.176466	0.000075
C40	C	0.404845	-0.177290	0.000065
C41	C	0.410828	-0.034353	0.000077
C42	C	0.360380	-0.033529	0.000083
C43	C	0.332164	-0.104592	0.000085
O44	O	0.283112	0.028519	0.000073
O45	O	0.271998	-0.235935	0.000097
C46	C	0.046655	-0.171405	0.000108
C47	C	0.024426	-0.099525	0.000118
C48	C	0.052645	-0.028475	0.000122
C49	C	-0.026024	-0.098693	0.000117
C50	C	-0.054243	-0.169743	0.000113
C51	C	-0.032011	-0.241625	0.000111
C52	C	0.018436	-0.242455	0.000104
C53	C	0.030414	0.043406	0.000124
C54	C	-0.020034	0.044231	0.000130
C55	C	-0.048253	-0.026819	0.000126
C56	C	0.662978	-0.093554	0.000108
C57	C	0.716672	-0.094450	0.000112
C58	C	0.576876	-0.243676	0.000086
C59	C	0.581189	-0.330668	0.000082
C60	C	0.610170	0.180722	0.000108
C61	C	0.606114	0.262459	0.000099
C62	C	0.560433	0.293451	0.000088
C63	C	0.518807	0.242700	0.000077
C64	C	0.522863	0.160964	0.000080
C65	C	0.543620	0.536846	0.000074
C66	C	0.539566	0.618588	0.000074
C67	C	0.626873	0.638342	0.000094
C68	C	0.630926	0.556603	0.000102
C69	C	0.589299	0.505860	0.000086
N70	N	0.556286	0.377000	0.000082
N71	N	0.593447	0.422313	0.000087
C72	C	0.598744	-0.136685	-0.259956
C73	C	0.596313	-0.132989	-0.347360
C74	C	0.564020	-0.083833	-0.391045
C75	C	0.534153	-0.038375	-0.347321
C76	C	0.536581	-0.042075	-0.259917
C77	C	0.553422	-0.067698	-0.652446
C78	C	0.550996	-0.064000	-0.739855
C79	C	0.613156	-0.158615	-0.739889
C80	C	0.615584	-0.162308	-0.652484
C81	C	0.585715	-0.116853	-0.608767
N82	N	0.561536	-0.080053	-0.480387
N83	N	0.588197	-0.120638	-0.519427
N84	N	0.580860	-0.109456	0.216426
H85	H	0.422941	-0.235830	0.000056
O86	O	0.651007	0.317193	0.000122
H87	H	0.683453	0.281911	0.000146
O88	O	0.323963	-0.253111	0.000081
H89	H	0.299259	-0.253770	-0.056509
H90	H	0.187873	-0.303483	0.000076
H91	H	0.433813	0.023494	0.000077
H92	H	0.529101	-0.030683	-0.616862
H93	H	0.512262	-0.005062	-0.224323
O94	O	-0.062456	-0.318256	0.000114
H95	H	-0.055790	-0.350307	-0.056485
H96	H	0.036530	-0.300992	0.000096
O97	O	0.477969	0.106229	0.000072
H98	H	0.479298	0.066133	0.056665
H99	H	0.096361	-0.301976	0.000091
H100	H	0.342281	0.025007	0.000079
O101	O	0.498722	0.482125	0.000061
H102	H	0.509213	0.420081	0.000053
O103	O	0.516161	-0.010985	-0.786978
H104	H	0.495795	0.019995	-0.741896
O105	O	0.633575	-0.189699	-0.212836
H106	H	0.624940	-0.251731	-0.229621
O107	O	0.499349	0.014693	-0.394431
H108	H	0.502690	0.009654	-0.462554
H109	H	-0.192550	-0.225704	0.000100
H110	H	-0.273203	0.035137	0.000112
O111	O	-0.291536	-0.242974	0.000117
H112	H	-0.330350	-0.230312	0.000128
O113	O	0.490293	0.652012	0.000068
H114	H	0.494468	0.717373	0.000083
H115	H	0.668124	0.531376	0.000111
H116	H	0.660763	0.679665	0.000105
H117	H	-0.181687	0.033632	0.000126
O118	O	0.650415	-0.215328	-0.605372
H119	H	0.629939	-0.259329	-0.565555
O120	O	-0.044002	0.121774	0.000147
H121	H	-0.068415	0.127973	-0.056445
O122	O	0.645365	-0.207652	-0.787038
H123	H	0.638248	-0.196830	-0.855154
O124	O	0.107348	0.119288	0.000158
H125	H	0.135454	0.168545	0.000176
O126	O	0.469536	0.276120	0.000074
H127	H	0.473707	0.341481	0.000086
H128	H	0.053385	0.101265	0.000129
H129	H	0.204742	0.098779	0.000139
H130	H	0.620632	-0.170003	-0.382952
H131	H	0.647368	0.155495	0.000122
