data_functionalizedCrystal
_audit_creation_method	'MofGen! by Chris Wilmer'
_symmetry_space_group_name_H-M	'P1'
_symmetry_Int_Tables_number	1
_symmetry_cell_setting	triclinic
loop_
_symmetry_equiv_pos_as_xyz
  x,y,z
_cell_length_a	6.817900
_cell_length_b	14.125469
_cell_length_c	16.305550
_cell_angle_alpha	95.884114
_cell_angle_beta	103.455250
_cell_angle_gamma	100.398878
loop_
_atom_site_label
_atom_site_type_symbol
_atom_site_fract_x
_atom_site_fract_y
_atom_site_fract_z
V1	V	-4.010572	-0.133925	-0.262704
O2	O	-4.014497	0.005600	-0.258038
O3	O	-3.946712	-0.264747	-0.260584
O4	O	-3.962176	-0.132231	-0.377425
O5	O	-3.998925	-0.127833	-0.140389
V6	V	-4.496202	-0.117193	-0.248113
O7	O	-4.267207	-0.170628	-0.294709
O8	O	-4.689764	-0.080489	-0.216107
O9	O	-4.336856	0.013629	-0.250232
O10	O	-4.609674	-0.256718	-0.252778
O11	O	-4.625245	-0.123285	-0.370428
O12	O	-4.321392	-0.118886	-0.133392
C13	C	-3.787951	-0.296627	-0.256357
C14	C	-3.817025	-0.403578	-0.255389
C15	C	-3.807677	-0.127589	-0.405397
C16	C	-3.849289	-0.127070	-0.499180
C17	C	-3.870323	-0.599398	-0.253629
C18	C	-4.055817	-0.651731	-0.257190
C19	C	-4.085475	-0.760692	-0.256211
C20	C	-3.840658	-0.490427	-0.254608
C21	C	-4.000611	-0.125059	-0.839931
C22	C	-3.765262	-0.119090	-0.799017
C23	C	-3.721959	-0.120028	-0.701520
C24	C	-3.925537	-0.126056	-0.670880
C25	C	-4.081450	-0.221074	-0.721274
C26	C	-4.123376	-0.220536	-0.818825
C27	C	-4.065699	-0.036771	-0.794304
C28	C	-4.017858	-0.036019	-0.696463
C29	C	-3.883121	-0.126623	-0.575341
C30	C	-4.043036	-0.124499	-0.935471
C31	C	-4.158957	0.045504	-0.254457
C32	C	-4.109122	0.152455	-0.255431
C33	C	-4.139232	-0.123532	-0.105415
C34	C	-4.076859	-0.124046	-0.011631
H35	H	-4.192349	-0.614702	-0.260973
O36	O	-3.967038	0.049137	-0.810555
C37	C	-4.113827	0.098957	-0.851845
H38	H	-4.263952	0.044624	-0.884556
H39	H	-4.143566	0.154533	-0.802857
C40	C	-3.846817	0.218429	-0.878759
C41	C	-4.031199	0.151695	-0.918941
H42	H	-3.795847	0.250964	-0.920145
H43	H	-3.747920	0.184867	-0.850938
H44	H	-3.871625	0.264733	-0.837937
H45	H	-4.006384	0.105386	-0.959754
H46	H	-4.130089	0.185251	-0.946771
H47	H	-4.018192	-0.287928	-0.704298
O48	O	-4.329579	-0.230602	-0.852326
C49	C	-4.404072	-0.315515	-0.913392
H50	H	-4.271610	-0.335383	-0.938374
H51	H	-4.472914	-0.377915	-0.882629
C52	C	-4.734078	-0.272738	-0.957223
C53	C	-4.571388	-0.297135	-0.987912
H54	H	-4.837293	-0.261403	-1.003189
H55	H	-4.683895	-0.215532	-0.916079
H56	H	-4.791422	-0.324743	-0.931587
H57	H	-4.514032	-0.245126	-1.013537
H58	H	-4.621566	-0.354332	-1.029061
H59	H	-3.733802	-0.636425	-0.249844
H60	H	-3.603457	-0.051711	-0.666663
H61	H	-4.079409	-0.287373	-0.849043
H62	H	-3.667157	-0.050450	-0.811548
O63	O	-3.634008	-0.196621	-0.681800
C64	C	-3.760093	-0.258900	-0.643649
H65	H	-3.861119	-0.216261	-0.614873
H66	H	-3.862172	-0.321363	-0.693941
C67	C	-3.499375	-0.352519	-0.608255
C68	C	-3.623446	-0.300147	-0.572905
H69	H	-3.415088	-0.377966	-0.564619
H70	H	-3.414432	-0.310563	-0.633961
H71	H	-3.584463	-0.404565	-0.650164
H72	H	-3.538358	-0.248096	-0.531005
H73	H	-3.708372	-0.342096	-0.547190
O74	O	-3.883073	0.047736	-0.655567
C75	C	-3.705987	0.025077	-0.604075
H76	H	-3.746090	-0.051741	-0.588417
H77	H	-3.580065	0.029441	-0.639742
C78	C	-3.579222	0.192551	-0.540031
C79	C	-3.628481	0.098204	-0.520793
H80	H	-3.531405	0.237661	-0.488660
H81	H	-3.698524	0.207818	-0.574724
H82	H	-3.474294	0.196174	-0.569755
H83	H	-3.733424	0.094580	-0.491079
H84	H	-3.509195	0.082939	-0.486093
O85	O	-4.270478	-0.041092	-0.826404
C86	C	-4.354673	-0.123500	-0.889758
H87	H	-4.226796	-0.146006	-0.916485
H88	H	-4.429547	-0.185984	-0.860702
C89	C	-4.675302	-0.071070	-0.929283
C90	C	-4.518244	-0.098707	-0.962114
H91	H	-4.776207	-0.055780	-0.973914
H92	H	-4.618583	-0.015552	-0.886598
H93	H	-4.737673	-0.123145	-0.905070
H94	H	-4.455859	-0.046628	-0.986316
H95	H	-4.574957	-0.154216	-1.004805
H96	H	-3.712748	-0.182521	-0.830374
H97	H	-4.233687	-0.228922	-0.702342
H98	H	-4.165284	-0.034837	-0.675118
