data_functionalizedCrystal
_audit_creation_method	'MofGen! by Chris Wilmer'
_symmetry_space_group_name_H-M	'P1'
_symmetry_Int_Tables_number	1
_symmetry_cell_setting	triclinic
loop_
_symmetry_equiv_pos_as_xyz
  x,y,z
_cell_length_a	8.559649
_cell_length_b	9.065218
_cell_length_c	8.140239
_cell_angle_alpha	90.001686
_cell_angle_beta	90.002379
_cell_angle_gamma	77.397275
loop_
_atom_site_label
_atom_site_type_symbol
_atom_site_fract_x
_atom_site_fract_y
_atom_site_fract_z
O1	O	-2.119401	0.049968	-0.136587
O2	O	-1.786068	0.383302	0.196746
O3	O	-1.452734	0.716635	0.530079
O4	O	-1.655298	-0.026097	-0.136594
O5	O	-1.321965	0.307236	0.196739
O6	O	-0.988631	0.640570	0.530073
O7	O	-1.896942	0.227784	-0.136587
O8	O	-1.563609	0.561117	0.196746
O9	O	-1.230276	0.894450	0.530079
O10	O	-1.877757	-0.203912	-0.136594
O11	O	-1.544423	0.129421	0.196739
O12	O	-1.211090	0.462755	0.530072
O13	O	-1.896929	0.227785	0.136640
O14	O	-1.563596	0.561118	0.469973
O15	O	-1.230262	0.894451	0.803306
O16	O	-1.655284	-0.026096	0.136633
O17	O	-1.321951	0.307237	0.469966
O18	O	-0.988618	0.640571	0.803300
O19	O	-2.119387	0.049969	0.136640
O20	O	-1.786054	0.383303	0.469973
O21	O	-1.452721	0.716636	0.803306
Zn22	Zn	-1.887334	0.011937	0.180017
Zn23	Zn	-1.554000	0.345270	0.513350
Zn24	Zn	-1.220667	0.678604	0.846684
Zn25	Zn	-1.887352	0.011936	-0.179971
Zn26	Zn	-1.554018	0.345269	0.153362
Zn27	Zn	-1.220685	0.678602	0.486695
O28	O	-1.877743	-0.203911	0.136633
O29	O	-1.544410	0.129422	0.469966
O30	O	-1.211076	0.462756	0.803299
C31	C	-1.895092	0.282539	0.000024
C32	C	-1.561758	0.615872	0.333357
C33	C	-1.228425	0.949206	0.666690
C34	C	-1.889578	0.445689	0.000016
C35	C	-1.556245	0.779022	0.333349
C36	C	-1.222912	1.112356	0.666682
C37	C	-1.595845	-0.031861	0.000018
C38	C	-1.262511	0.301472	0.333352
C39	C	-0.929178	0.634806	0.666685
C40	C	-1.418713	-0.049020	0.000016
C41	C	-1.085380	0.284314	0.333349
C42	C	-0.752046	0.617647	0.666682
C43	C	-2.178841	0.055733	0.000023
C44	C	-1.845507	0.389067	0.333357
C45	C	-1.512174	0.722400	0.666690
C46	C	-2.355972	0.072892	0.000015
C47	C	-2.022639	0.406225	0.333349
C48	C	-1.689306	0.739559	0.666682
C49	C	-1.879594	-0.258667	0.000018
C50	C	-1.546260	0.074667	0.333352
C51	C	-1.212927	0.408000	0.666685
C52	C	-1.885107	-0.421817	0.000015
C53	C	-1.551774	-0.088483	0.333349
C54	C	-1.218440	0.244850	0.666682
N55	N	-1.887333	0.011940	0.425700
N56	N	-1.554000	0.345273	0.759033
N57	N	-1.220667	0.678607	1.092366
N58	N	-1.887365	0.011946	-0.425654
N59	N	-1.554031	0.345279	-0.092321
N60	N	-1.220698	0.678612	0.241013
H61	H	-1.336908	-0.166528	0.000005
H62	H	-1.003574	0.166805	0.333338
H63	H	-0.670241	0.500139	0.666672
H64	H	-1.437769	0.190393	0.000009
H65	H	-1.104435	0.523726	0.333342
H66	H	-0.771102	0.857060	0.666676
