data_functionalizedCrystal
_audit_creation_method	'MofGen! by Chris Wilmer'
_symmetry_space_group_name_H-M	'P1'
_symmetry_Int_Tables_number	1
_symmetry_cell_setting	triclinic
loop_
_symmetry_equiv_pos_as_xyz
  x,y,z
_cell_length_a	18.050591
_cell_length_b	13.897448
_cell_length_c	13.897441
_cell_angle_alpha	89.969401
_cell_angle_beta	90.027901
_cell_angle_gamma	89.986302
loop_
_atom_site_label
_atom_site_type_symbol
_atom_site_fract_x
_atom_site_fract_y
_atom_site_fract_z
Zn1	Zn	1.135398	0.384087	0.545566
Zn2	Zn	1.468731	0.717420	0.878899
Zn3	Zn	1.802065	1.050754	1.212232
Zn4	Zn	1.135316	0.545409	0.384267
Zn5	Zn	1.468650	0.878742	0.717600
Zn6	Zn	1.801983	1.212075	1.050934
Zn7	Zn	1.011202	0.384118	0.384264
Zn8	Zn	1.344535	0.717451	0.717597
Zn9	Zn	1.677869	1.050785	1.050930
Zn10	Zn	1.011188	0.545330	0.545499
Zn11	Zn	1.344521	0.878664	0.878833
Zn12	Zn	1.677855	1.211997	1.212166
O13	O	1.073276	0.464736	0.464899
O14	O	1.406609	0.798069	0.798232
O15	O	1.739943	1.131403	1.131566
O16	O	1.239312	0.405506	0.524198
O17	O	1.572645	0.738840	0.857531
O18	O	1.905978	1.072173	1.190865
O19	O	1.118824	0.524059	0.249285
O20	O	1.452157	0.857392	0.582618
O21	O	1.785491	1.190725	0.915951
O22	O	1.027717	0.249132	0.405687
O23	O	1.361050	0.582465	0.739021
O24	O	1.694384	0.915799	1.072354
O25	O	1.239252	0.524029	0.405693
O26	O	1.572585	0.857362	0.739026
O27	O	1.905919	1.190695	1.072359
O28	O	1.118963	0.249109	0.524195
O29	O	1.452297	0.582443	0.857528
O30	O	1.785630	0.915776	1.190862
O31	O	1.027638	0.405559	0.249282
O32	O	1.360971	0.738893	0.582616
O33	O	1.694305	1.072226	0.915949
O34	O	0.907276	0.405483	0.405623
O35	O	1.240609	0.738817	0.738956
O36	O	1.573942	1.072150	1.072290
O37	O	1.027693	0.523895	0.680490
O38	O	1.361026	0.857229	1.013823
O39	O	1.694360	1.190562	1.347157
O40	O	0.907265	0.523925	0.524082
O41	O	1.240599	0.857259	0.857415
O42	O	1.573932	1.190592	1.190749
O43	O	1.118950	0.405430	0.680539
O44	O	1.452283	0.738764	1.013872
O45	O	1.785616	1.072097	1.347205
O46	O	1.118810	0.680380	0.405628
O47	O	1.452144	1.013713	0.738962
O48	O	1.785477	1.347046	1.072295
O49	O	1.027614	0.680322	0.524085
O50	O	1.360947	1.013656	0.857419
O51	O	1.694281	1.346989	1.190752
C52	C	1.073222	0.715350	0.464871
C53	C	1.406555	1.048684	0.798204
C54	C	1.739889	1.382017	1.131538
C55	C	1.073267	0.822564	0.464891
C56	C	1.406600	1.155897	0.798225
C57	C	1.739933	1.489231	1.131558
C58	C	0.880324	0.464700	0.464846
C59	C	1.213657	0.798033	0.798179
C60	C	1.546991	1.131367	1.131512
C61	C	0.797778	0.464708	0.464846
C62	C	1.131112	0.798041	0.798179
C63	C	1.464445	1.131375	1.131512
C64	C	1.073329	0.464651	0.716492
C65	C	1.406662	0.797984	1.049825
C66	C	1.739996	1.131317	1.383159
C67	C	1.073351	0.464614	0.823706
C68	C	1.406685	0.797948	1.157039
C69	C	1.740018	1.131281	1.490373
C70	C	0.598312	0.400224	0.400576
C71	C	0.931645	0.733558	0.733909
C72	C	1.264978	1.066891	1.067243
C73	C	0.548902	0.488207	0.376841
C74	C	0.882236	0.821540	0.710174
C75	C	1.215569	1.154873	1.043507
C76	C	0.646648	0.464737	0.464889
C77	C	0.979981	0.798070	0.798223
C78	C	1.313315	1.131404	1.131556
C79	C	0.548976	0.376785	0.488622
C80	C	0.882309	0.710119	0.821955
C81	C	1.215642	1.043452	1.155289
C82	C	0.500663	0.464758	0.464930
C83	C	0.833996	0.798091	0.798263
C84	C	1.167329	1.131424	1.131596
C85	C	0.598326	0.552766	0.441108
C86	C	0.931659	0.886099	0.774441
C87	C	1.264992	1.219432	1.107775
C88	C	0.598403	0.441285	0.552930
C89	C	0.931737	0.774618	0.886264
C90	C	1.265070	1.107952	1.219597
C91	C	0.549016	0.529328	0.529228
C92	C	0.882350	0.862661	0.862562
C93	C	1.215683	1.195995	1.195895
C94	C	0.730746	0.464724	0.464864
C95	C	1.064080	0.798057	0.798197
C96	C	1.397413	1.131391	1.131530
C97	C	0.416566	0.464781	0.464955
C98	C	0.749900	0.798114	0.798289
C99	C	1.083233	1.131447	1.131622
C100	C	1.266982	0.464773	0.464953
C101	C	1.600315	0.798106	0.798286
C102	C	1.933648	1.131439	1.131620
C103	C	1.349528	0.464788	0.464976
C104	C	1.682861	0.798122	0.798309
C105	C	2.016194	1.131455	1.131643
C106	C	1.073351	0.213143	0.464948
C107	C	1.406684	0.546476	0.798281
C108	C	1.740017	0.879810	1.131615
C109	C	1.073383	0.105929	0.464969
C110	C	1.406716	0.439262	0.798302
C111	C	1.740049	0.772596	1.131636
C112	C	1.073345	1.018859	0.464952
C113	C	1.406678	1.352193	0.798285
C114	C	1.740011	1.685526	1.131619
C115	C	1.073299	0.909627	0.464921
C116	C	1.406633	1.242960	0.798254
C117	C	1.739966	1.576293	1.131588
C118	C	1.073266	0.464751	0.214285
C119	C	1.406600	0.798085	0.547618
C120	C	1.739933	1.131418	0.880951
C121	C	1.073388	0.464516	0.107071
C122	C	1.406721	0.797849	0.440405
C123	C	1.740055	1.131183	0.773738
C124	C	1.073371	0.464549	1.020001
C125	C	1.406705	0.797882	1.353335
C126	C	1.740038	1.131216	1.686668
C127	C	1.073358	0.464588	0.910769
C128	C	1.406691	0.797921	1.244102
C129	C	1.740025	1.131255	1.577435
H130	H	0.619957	0.345727	0.346129
H131	H	0.953290	0.679060	0.679463
H132	H	1.286623	1.012393	1.012796
Cl133	Cl	0.515804	0.613665	0.613227
Cl134	Cl	0.849138	0.946998	0.946560
Cl135	Cl	1.182471	1.280332	1.279893
Cl136	Cl	0.631999	0.410597	0.667825
Cl137	Cl	0.965332	0.743931	1.001158
Cl138	Cl	1.298665	1.077264	1.334491
H139	H	0.527259	0.302407	0.508645
H140	H	0.860593	0.635740	0.841978
H141	H	1.193926	0.969074	1.175312
H142	H	0.527160	0.508058	0.302403
H143	H	0.860494	0.841391	0.635737
H144	H	1.193827	1.174725	0.969070
Cl145	Cl	0.631650	0.667649	0.410008
Cl146	Cl	0.964983	1.000982	0.743341
Cl147	Cl	1.298316	1.334316	1.076675
