data_functionalizedCrystal
_audit_creation_method	'MofGen! by Chris Wilmer'
_symmetry_space_group_name_H-M	'P1'
_symmetry_Int_Tables_number	1
_symmetry_cell_setting	triclinic
loop_
_symmetry_equiv_pos_as_xyz
  x,y,z
_cell_length_a	27.731988
_cell_length_b	26.809956
_cell_length_c	19.188930
_cell_angle_alpha	90.000789
_cell_angle_beta	97.118427
_cell_angle_gamma	90.003127
loop_
_atom_site_label
_atom_site_type_symbol
_atom_site_fract_x
_atom_site_fract_y
_atom_site_fract_z
O1	O	-0.641203	0.041347	0.082870
O2	O	-0.141203	0.541347	0.582870
O3	O	-0.500444	0.041379	0.095546
O4	O	-0.000444	0.541379	0.595546
O5	O	-0.574886	0.041352	-0.012475
O6	O	-0.074886	0.541352	0.487525
O7	O	-0.566762	0.041374	0.190891
O8	O	-0.066762	0.541374	0.690891
O9	O	-0.574872	-0.041607	-0.012458
O10	O	-0.074872	0.458393	0.487542
O11	O	-0.500430	-0.041580	0.095562
O12	O	-0.000430	0.458420	0.595562
O13	O	-0.641189	-0.041612	0.082887
O14	O	-0.141189	0.458388	0.582887
Zn15	Zn	-0.570808	-0.054768	0.089227
Zn16	Zn	-0.070808	0.445232	0.589227
Zn17	Zn	-0.570826	0.054535	0.089205
Zn18	Zn	-0.070826	0.554535	0.589205
O19	O	-0.566748	-0.041586	0.190907
O20	O	-0.066748	0.458414	0.690907
C21	C	-0.482429	-0.000097	0.095294
C22	C	0.017571	0.499903	0.595294
C23	C	-0.428770	-0.000085	0.094512
C24	C	0.071230	0.499915	0.594512
N25	N	-0.570798	-0.129364	0.089241
N26	N	-0.070798	0.370636	0.589241
C27	C	-0.045600	0.045114	0.088836
C28	C	0.454400	0.545114	0.588836
C29	C	-0.247267	0.045126	0.091816
C30	C	0.252733	0.545126	0.591816
O31	O	-0.273347	0.083586	0.092166
O32	O	0.226653	0.583586	0.592166
N33	N	-0.272480	-0.000094	0.092198
N34	N	0.227520	0.499906	0.592198
C35	C	-0.247275	-0.045320	0.091830
C36	C	0.252725	0.454680	0.591830
O37	O	-0.273349	-0.083783	0.092216
O38	O	0.226651	0.416217	0.592216
C39	C	-0.045609	-0.045332	0.088845
C40	C	0.454391	0.454668	0.588845
C41	C	-0.020397	-0.000109	0.088470
C42	C	0.479603	0.499891	0.588470
C43	C	-0.020388	0.090333	0.088460
C44	C	0.479612	0.590333	0.588460
C45	C	0.030026	0.090330	0.087719
C46	C	0.530026	0.590330	0.587719
C47	C	0.055229	0.045107	0.087353
C48	C	0.555229	0.545107	0.587353
C49	C	0.030017	-0.000113	0.087729
C50	C	0.530017	0.499887	0.587729
C51	C	-0.020405	-0.090558	0.088472
C52	C	0.479595	0.409442	0.588472
C53	C	0.030015	-0.090557	0.087724
C54	C	0.530015	0.409443	0.587724
C55	C	0.055226	-0.045334	0.087349
C56	C	0.555226	0.454666	0.587349
C57	C	0.105633	-0.045340	0.086622
C58	C	0.605633	0.454660	0.586622
N59	N	0.130847	-0.000119	0.086240
N60	N	0.630847	0.499881	0.586240
C61	C	0.105645	0.045104	0.086606
C62	C	0.605645	0.545104	0.586606
C63	C	-0.353152	-0.045311	0.093399
C64	C	0.146848	0.454689	0.593399
C65	C	-0.403568	-0.045308	0.094147
C66	C	0.096432	0.454692	0.594147
C67	C	-0.403556	0.045139	0.094131
C68	C	0.096444	0.545139	0.594131
C69	C	-0.353139	0.045136	0.093389
C70	C	0.146861	0.545136	0.593389
C71	C	-0.327938	-0.000091	0.093017
C72	C	0.172062	0.499909	0.593017
C73	C	0.211518	0.045093	0.085050
C74	C	0.711518	0.545093	0.585050
C75	C	0.261937	0.045085	0.084311
C76	C	0.761937	0.545085	0.584311
C77	C	0.261920	-0.045361	0.084323
C78	C	0.761920	0.454639	0.584323
C79	C	0.211506	-0.045354	0.085065
C80	C	0.711506	0.454646	0.585065
C81	C	0.186306	-0.000123	0.085426
C82	C	0.686306	0.499877	0.585426
O83	O	0.131744	-0.083779	0.086264
O84	O	0.631744	0.416221	0.586264
O85	O	0.131726	0.083560	0.086204
O86	O	0.631726	0.583560	0.586204
C87	C	-0.096014	0.045117	0.089577
C88	C	0.403986	0.545117	0.589577
C89	C	-0.121225	-0.000102	0.089953
C90	C	0.378775	0.499898	0.589953
C91	C	-0.096023	-0.045325	0.089587
C92	C	0.403977	0.454675	0.589587
C93	C	-0.171642	-0.000099	0.090700
C94	C	0.328358	0.499901	0.590700
C95	C	-0.196844	0.045124	0.091066
C96	C	0.303156	0.545124	0.591066
C97	C	-0.171630	0.090344	0.090684
C98	C	0.328370	0.590344	0.590684
C99	C	-0.121216	0.090340	0.089943
C100	C	0.378784	0.590340	0.589943
C101	C	-0.121237	-0.090545	0.089969
C102	C	0.378763	0.409455	0.589969
C103	C	-0.171651	-0.090538	0.090711
C104	C	0.328349	0.409462	0.590711
C105	C	-0.196853	-0.045315	0.091077
C106	C	0.303147	0.454685	0.591077
C107	C	-0.603784	-0.474002	0.041386
C108	C	-0.103784	0.025998	0.541386
C109	C	-0.603796	-0.682879	0.041375
C110	C	-0.103796	-0.182879	0.541375
O111	O	-0.631822	-0.709893	0.000690
O112	O	-0.131822	-0.209893	0.500690
N113	N	-0.570829	-0.708991	0.089190
N114	N	-0.070829	-0.208991	0.589190
C115	C	-0.537854	-0.682880	0.137008
C116	C	-0.037854	-0.182880	0.637008
O117	O	-0.509810	-0.709882	0.177673
O118	O	-0.009810	-0.209882	0.677673
C119	C	-0.537841	-0.474003	0.137015
C120	C	-0.037841	0.025997	0.637015
C121	C	-0.570813	-0.447894	0.089201
C122	C	-0.070813	0.052106	0.589201
C123	C	-0.636754	-0.447893	-0.006425
C124	C	-0.136754	0.052107	0.493575
C125	C	-0.636753	-0.395677	-0.006419
C126	C	-0.136753	0.104323	0.493581
C127	C	-0.603782	-0.369569	0.041397
C128	C	-0.103782	0.130431	0.541397
C129	C	-0.570812	-0.395678	0.089207
C130	C	-0.070812	0.104322	0.589207
C131	C	-0.504864	-0.447893	0.184829
C132	C	-0.004864	0.052107	0.684829
C133	C	-0.504863	-0.395670	0.184825
C134	C	-0.004863	0.104330	0.684825
C135	C	-0.537836	-0.369562	0.137012
C136	C	-0.037836	0.130438	0.637012
C137	C	-0.537839	-0.317354	0.137029
C138	C	-0.037839	0.182646	0.637029
N139	N	-0.570807	-0.291243	0.089213
N140	N	-0.070807	0.208757	0.589213
C141	C	-0.603778	-0.317350	0.041398
C142	C	-0.103778	0.182650	0.541398
C143	C	-0.537864	-0.792543	0.137002
C144	C	-0.037864	-0.292543	0.637002
C145	C	-0.537868	-0.844762	0.137001
C146	C	-0.037868	-0.344762	0.637001
C147	C	-0.603809	-0.844758	0.041367
C148	C	-0.103809	-0.344758	0.541367
C149	C	-0.603807	-0.792538	0.041372
C150	C	-0.103807	-0.292538	0.541372
C151	C	-0.570831	-0.766432	0.089187
C152	C	-0.070831	-0.266432	0.589187
C153	C	-0.603773	-0.207692	0.041414
C154	C	-0.103773	0.292308	0.541414
C155	C	-0.603770	-0.155471	0.041426
C156	C	-0.103770	0.344529	0.541426
C157	C	-0.537827	-0.155480	0.137057
C158	C	-0.037827	0.344520	0.637057
C159	C	-0.537831	-0.207696	0.137048
C160	C	-0.037831	0.292304	0.637048
C161	C	-0.570806	-0.233801	0.089220
C162	C	-0.070806	0.266199	0.589220
O163	O	-0.509824	-0.290308	0.177686
O164	O	-0.009824	0.209692	0.677686
O165	O	-0.631810	-0.290339	0.000729
O166	O	-0.131810	0.209661	0.500729
C167	C	-0.603786	-0.526218	0.041380
C168	C	-0.103786	-0.026218	0.541380
C169	C	-0.570816	-0.552327	0.089190
C170	C	-0.070816	-0.052327	0.589190
C171	C	-0.537845	-0.526219	0.137006
C172	C	-0.037845	-0.026219	0.637006
C173	C	-0.570820	-0.604546	0.089189
C174	C	-0.070820	-0.104546	0.589189
C175	C	-0.603791	-0.630653	0.041373
C176	C	-0.103791	-0.130653	0.541373
C177	C	-0.636758	-0.604542	-0.006442
C178	C	-0.136758	-0.104542	0.493558
C179	C	-0.636757	-0.552325	-0.006436
C180	C	-0.136757	-0.052325	0.493564
C181	C	-0.504878	-0.552331	0.184821
C182	C	-0.004878	-0.052331	0.684821
C183	C	-0.504882	-0.604547	0.184812
C184	C	-0.004882	-0.104547	0.684812
C185	C	-0.537854	-0.630655	0.136996
C186	C	-0.037854	-0.130655	0.636996
C187	C	0.340796	-0.000134	0.083144
C188	C	0.840796	0.499866	0.583144
C189	C	0.287139	-0.000138	0.083946
C190	C	0.787139	0.499862	0.583946
C191	C	-0.574616	-0.000129	-0.038476
C192	C	-0.074616	0.499871	0.461524
C193	C	-0.573826	-0.000133	-0.115975
C194	C	-0.073826	0.499867	0.384025
N195	N	-0.570839	0.129130	0.089185
N196	N	-0.070839	0.629130	0.589185
C197	C	-0.617506	-0.000145	-0.161191
C198	C	-0.117506	0.499855	0.338809
C199	C	-0.616764	-0.000137	-0.234010
C200	C	-0.116764	0.499863	0.265990
C201	C	-0.572340	-0.000127	-0.261610
C202	C	-0.072340	0.499873	0.238390
C203	C	-0.528654	-0.000111	-0.216384
C204	C	-0.028654	0.499889	0.283616
C205	C	-0.529397	-0.000115	-0.143566
C206	C	-0.029397	0.499885	0.356434
N207	N	-0.538378	-0.028351	-0.369382
N208	N	-0.038378	0.471649	0.130618
N209	N	-0.537675	-0.028349	-0.438556
N210	N	-0.037675	0.471651	0.061444
C211	C	-0.570098	-0.000116	-0.481003
C212	C	-0.070098	0.499884	0.018997
N213	N	-0.603258	0.028109	-0.451665
N214	N	-0.103258	0.528109	0.048335
N215	N	-0.603962	0.028105	-0.382485
N216	N	-0.103962	0.528105	0.117515
C217	C	-0.571529	-0.000123	-0.340567
C218	C	-0.071529	0.499877	0.159433
C219	C	-0.612976	-0.000119	-0.605178
C220	C	-0.112976	0.499881	-0.105178
C221	C	-0.612232	-0.000107	-0.677998
C222	C	-0.112232	0.499893	-0.177998
C223	C	-0.524121	-0.000087	-0.660370
C224	C	-0.024121	0.499913	-0.160370
C225	C	-0.524866	-0.000093	-0.587552
C226	C	-0.024866	0.499907	-0.087552
C227	C	-0.569295	-0.000111	-0.559961
C228	C	-0.069295	0.499889	-0.059961
C229	C	-0.567018	-0.000104	0.216908
C230	C	-0.067018	0.499896	0.716908
C231	C	-0.567808	-0.000096	0.294407
C232	C	-0.067808	0.499904	0.794407
H233	H	0.282462	0.081913	0.084008
H234	H	0.782462	0.581913	0.584008
H235	H	-0.489297	-0.000086	-0.550736
H236	H	0.010703	0.499914	-0.050736
C237	C	-0.475252	-0.000077	-0.690717
C238	C	0.024748	0.499923	-0.190717
C239	C	-0.462617	-0.043152	-0.738354
C240	C	0.037383	0.456848	-0.238354
C241	C	-0.413746	-0.043142	-0.768704
C242	C	0.086254	0.456858	-0.268704
C243	C	-0.377510	-0.000057	-0.751416
C244	C	0.122490	0.499943	-0.251416
C245	C	-0.390144	0.043021	-0.703777
C246	C	0.109856	0.543021	-0.203777
C247	C	-0.439015	0.043011	-0.673428
C248	C	0.060985	0.543011	-0.173428
H249	H	-0.489442	-0.075049	-0.751153
H250	H	0.010558	0.424951	-0.251153
H251	H	-0.404394	-0.075031	-0.803969
H252	H	0.095606	0.424969	-0.303969
H253	H	-0.341333	-0.000049	-0.773883
H254	H	0.158667	0.499951	-0.273883
H255	H	-0.363319	0.074918	-0.690978
H256	H	0.136681	0.574918	-0.190978
H257	H	-0.448368	0.074900	-0.638162
H258	H	0.051632	0.574900	-0.138162
H259	H	-0.649153	-0.000131	-0.582712
H260	H	-0.149153	0.499869	-0.082712
H261	H	-0.510987	-0.228954	0.175989
H262	H	-0.010987	0.271046	0.675989
C263	C	0.289650	-0.095104	0.083918
C264	C	0.789650	0.404896	0.583918
C265	C	0.329935	-0.107537	0.144055
C266	C	0.829935	0.392463	0.644055
C267	C	0.357666	-0.157280	0.143644
C268	C	0.857666	0.342720	0.643644
C269	C	0.345113	-0.194590	0.083095
C270	C	0.845113	0.305410	0.583095
C271	C	0.304826	-0.182158	0.022953
C272	C	0.804826	0.317842	0.522953
C273	C	0.277095	-0.132415	0.023364
C274	C	0.777095	0.367585	0.523364
H275	H	0.339230	-0.079917	0.188881
H276	H	0.839230	0.420083	0.688881
H277	H	0.387490	-0.166483	0.188165
H278	H	0.887490	0.333517	0.688165
H279	H	0.365641	-0.231413	0.082790
H280	H	0.865641	0.268587	0.582790
H281	H	0.295531	-0.209778	-0.021873
H282	H	0.795531	0.290222	0.478127
H283	H	0.247271	-0.123213	-0.021157
H284	H	0.747271	0.376787	0.478843
H285	H	-0.647803	-0.000115	-0.714813
H286	H	-0.147803	0.499885	-0.214813
H287	H	-0.100693	0.127166	0.089638
H288	H	0.399307	0.627166	0.589638
H289	H	0.191006	0.081924	0.085345
H290	H	0.691006	0.581924	0.585345
C291	C	-0.468609	-0.633264	0.237411
C292	C	0.031391	-0.133264	0.737411
C293	C	-0.487373	-0.669167	0.290619
C294	C	0.012627	-0.169167	0.790619
C295	C	-0.451098	-0.697882	0.343211
C296	C	0.048902	-0.197882	0.843211
C297	C	-0.396059	-0.690694	0.342594
C298	C	0.103941	-0.190694	0.842594
C299	C	-0.377293	-0.654790	0.289384
C300	C	0.122707	-0.154790	0.789384
C301	C	-0.413568	-0.626075	0.236792
C302	C	0.086432	-0.126075	0.736792
H303	H	-0.528118	-0.674489	0.291078
H304	H	-0.028118	-0.174489	0.791078
H305	H	-0.464990	-0.724461	0.382601
H306	H	0.035010	-0.224461	0.882601
H307	H	-0.369206	-0.711951	0.381526
H308	H	0.130794	-0.211951	0.881526
H309	H	-0.336548	-0.649467	0.288926
H310	H	0.163452	-0.149467	0.788926
H311	H	-0.399676	-0.599496	0.197402
H312	H	0.100324	-0.099496	0.697402
C313	C	-0.640040	-0.126752	-0.011174
C314	C	-0.140040	0.373248	0.488826
C315	C	-0.676305	-0.155473	-0.063773
C316	C	-0.176305	0.344527	0.436227
C317	C	-0.712573	-0.126756	-0.116372
C318	C	-0.212573	0.373244	0.383628
C319	C	-0.712576	-0.069317	-0.116371
C320	C	-0.212576	0.430683	0.383629
C321	C	-0.676310	-0.040592	-0.063771
C322	C	-0.176310	0.459408	0.436229
C323	C	-0.640042	-0.069310	-0.011172
C324	C	-0.140042	0.430690	0.488828
H325	H	-0.676303	-0.197996	-0.063775
H326	H	-0.176303	0.302004	0.436225
H327	H	-0.739420	-0.148020	-0.155310
H328	H	-0.239420	0.351980	0.344690
H329	H	-0.739424	-0.048059	-0.155308
H330	H	-0.239424	0.451941	0.344692
H331	H	-0.676312	0.001930	-0.063769
H332	H	-0.176312	0.501930	0.436231
H333	H	-0.613196	-0.048046	0.027767
H334	H	-0.113196	0.451954	0.527767
H335	H	-0.493827	-0.000105	-0.106751
H336	H	0.006173	0.499895	0.393249
H337	H	-0.492484	-0.000102	-0.238860
H338	H	0.007516	0.499898	0.261140
C339	C	0.057756	0.140075	0.087297
C340	C	0.557756	0.640075	0.587297
C341	C	0.098039	0.152526	0.147431
C342	C	0.598039	0.652526	0.647431
C343	C	0.125765	0.202274	0.147004
C344	C	0.625765	0.702274	0.647004
C345	C	0.113208	0.239572	0.086444
C346	C	0.613208	0.739572	0.586444
C347	C	0.072923	0.227122	0.026305
C348	C	0.572923	0.727122	0.526305
C349	C	0.045197	0.177374	0.026732
C350	C	0.545197	0.677374	0.526732
H351	H	0.107337	0.124915	0.192265
H352	H	0.607337	0.624915	0.692265
H353	H	0.155587	0.211490	0.191523
H354	H	0.655587	0.711490	0.691523
H355	H	0.133733	0.276398	0.086128
H356	H	0.633733	0.776398	0.586128
H357	H	0.063625	0.254733	-0.018529
H358	H	0.563625	0.754733	0.481471
H359	H	0.015375	0.168158	-0.017787
H360	H	0.515375	0.668158	0.482213
H361	H	-0.040902	0.127161	0.088756
H362	H	0.459098	0.627161	0.588756
C363	C	-0.664814	-0.000156	-0.283760
C364	C	-0.164814	0.499844	0.216240
C365	C	-0.713683	-0.000177	-0.253411
C366	C	-0.213683	0.499823	0.246589
C367	C	-0.761733	-0.000197	-0.303158
C368	C	-0.261733	0.499803	0.196842
C369	C	-0.760914	-0.000196	-0.383254
C370	C	-0.260914	0.499804	0.116746
C371	C	-0.712043	-0.000175	-0.413607
C372	C	-0.212043	0.499825	0.086393
C373	C	-0.663994	-0.000155	-0.363860
C374	C	-0.163994	0.499845	0.136140
H375	H	-0.714291	-0.000177	-0.194115
H376	H	-0.214291	0.499823	0.305885
H377	H	-0.797910	-0.000213	-0.280688
H378	H	-0.297910	0.499787	0.219312
H379	H	-0.796484	-0.000212	-0.420079
H380	H	-0.296484	0.499788	0.079921
H381	H	-0.711436	-0.000175	-0.472902
H382	H	-0.211436	0.499825	0.027098
H383	H	-0.627816	-0.000139	-0.386329
H384	H	-0.127816	0.499861	0.113671
H385	H	-0.511010	-0.771291	0.175941
H386	H	-0.011010	-0.271291	0.675941
C387	C	-0.468591	-0.476605	0.237420
C388	C	0.031409	0.023395	0.737420
C389	C	-0.413553	-0.469418	0.236799
C390	C	0.086447	0.030582	0.736799
C391	C	-0.377276	-0.498130	0.289391
C392	C	0.122724	0.001870	0.789391
C393	C	-0.396037	-0.534030	0.342605
C394	C	0.103963	-0.034030	0.842605
C395	C	-0.451078	-0.541219	0.343229
C396	C	0.048922	-0.041219	0.843229
C397	C	-0.487355	-0.512507	0.290636
C398	C	0.012645	-0.012507	0.790636
H399	H	-0.399662	-0.442841	0.197405
H400	H	0.100338	0.057159	0.697405
H401	H	-0.336531	-0.492808	0.288930
H402	H	0.163469	0.007192	0.788930
H403	H	-0.369183	-0.555285	0.381538
H404	H	0.130817	-0.055285	0.881538
H405	H	-0.464969	-0.567796	0.382623
H406	H	0.035031	-0.067796	0.882623
H407	H	-0.528100	-0.517829	0.291098
H408	H	-0.028100	-0.017829	0.791098
H409	H	-0.040924	-0.127384	0.088775
H410	H	0.459076	0.372616	0.588775
H411	H	-0.332615	0.081960	0.093083
H412	H	0.167385	0.581960	0.593083
C413	C	-0.431285	0.094886	0.094526
C414	C	0.068715	0.594886	0.594526
C415	C	-0.471566	0.107308	0.034379
C416	C	0.028434	0.607308	0.534379
C417	C	-0.499297	0.157052	0.034767
C418	C	0.000703	0.657052	0.534767
C419	C	-0.486747	0.194374	0.095302
C420	C	0.013253	0.694374	0.595302
C421	C	-0.446463	0.181953	0.155454
C422	C	0.053537	0.681953	0.655454
C423	C	-0.418732	0.132209	0.155066
C424	C	0.081268	0.632209	0.655066
H425	H	-0.480858	0.079679	-0.010436
H426	H	0.019142	0.579679	0.489564
H427	H	-0.529118	0.166247	-0.009762
H428	H	-0.029118	0.666247	0.490238
H429	H	-0.507275	0.231198	0.095589
H430	H	-0.007275	0.731198	0.595589
H431	H	-0.437171	0.209582	0.200269
H432	H	0.062829	0.709582	0.700269
H433	H	-0.388912	0.123014	0.199594
H434	H	0.111088	0.623014	0.699594
C435	C	-0.431296	-0.095055	0.094561
C436	C	0.068704	0.404945	0.594561
C437	C	-0.418740	-0.132363	0.155109
C438	C	0.081260	0.367637	0.655109
C439	C	-0.446465	-0.182113	0.155516
C440	C	0.053535	0.317887	0.655516
C441	C	-0.486746	-0.194555	0.095375
C442	C	0.013254	0.305445	0.595375
C443	C	-0.499304	-0.157246	0.034822
C444	C	0.000696	0.342754	0.534822
C445	C	-0.471578	-0.107497	0.034415
C446	C	0.028422	0.392503	0.534415
H447	H	-0.388920	-0.123153	0.199634
H448	H	0.111080	0.376847	0.699634
H449	H	-0.437168	-0.209731	0.200342
H450	H	0.062832	0.290269	0.700342
H451	H	-0.507270	-0.231383	0.095676
H452	H	-0.007270	0.268617	0.595676
H453	H	-0.529124	-0.166456	-0.009702
H454	H	-0.029124	0.333544	0.490298
H455	H	-0.480875	-0.079878	-0.010410
H456	H	0.019125	0.420122	0.489590
C457	C	-0.199359	0.140090	0.091085
C458	C	0.300641	0.640090	0.591085
C459	C	-0.239640	0.152517	0.030939
C460	C	0.260360	0.652517	0.530939
C461	C	-0.267372	0.202260	0.031336
C462	C	0.232628	0.702260	0.531336
C463	C	-0.254824	0.239576	0.091878
C464	C	0.245176	0.739576	0.591878
C465	C	-0.214540	0.227151	0.152028
C466	C	0.285460	0.727151	0.652028
C467	C	-0.186808	0.177408	0.151632
C468	C	0.313192	0.677408	0.651632
H469	H	-0.248931	0.124892	-0.013882
H470	H	0.251069	0.624892	0.486118
H471	H	-0.297193	0.211458	-0.013191
H472	H	0.202807	0.711458	0.486809
H473	H	-0.275353	0.276399	0.092172
H474	H	0.224647	0.776399	0.592172
H475	H	-0.205249	0.254776	0.196849
H476	H	0.294751	0.754776	0.696849
H477	H	-0.156988	0.168210	0.196159
H478	H	0.343012	0.668210	0.696159
C479	C	-0.199379	-0.140290	0.091115
C480	C	0.300621	0.359710	0.591115
C481	C	-0.186828	-0.177602	0.151658
C482	C	0.313172	0.322398	0.651658
C483	C	-0.214554	-0.227353	0.152050
C484	C	0.285446	0.272647	0.652050
C485	C	-0.254829	-0.239791	0.091899
C486	C	0.245171	0.260209	0.591899
C487	C	-0.267381	-0.202477	0.031351
C488	C	0.232619	0.297523	0.531351
C489	C	-0.239656	-0.152726	0.030959
C490	C	0.260344	0.347274	0.530959
H491	H	-0.157012	-0.168396	0.196189
H492	H	0.342988	0.331604	0.696189
H493	H	-0.205261	-0.254975	0.196872
H494	H	0.294739	0.245025	0.696872
H495	H	-0.275353	-0.276619	0.092189
H496	H	0.224647	0.223381	0.592189
H497	H	-0.297198	-0.211683	-0.013180
H498	H	0.202802	0.288317	0.486820
H499	H	-0.248948	-0.125104	-0.013863
H500	H	0.251052	0.374896	0.486137
H501	H	-0.511024	-0.866016	0.175942
H502	H	-0.011024	-0.366016	0.675942
H503	H	-0.332638	-0.082142	0.093094
H504	H	0.167362	0.417858	0.593094
H505	H	0.050531	-0.127387	0.087427
H506	H	0.550531	0.372613	0.587427
H507	H	-0.630656	-0.771283	0.002437
H508	H	-0.130656	-0.271283	0.502437
C509	C	0.183765	-0.095094	0.085507
C510	C	0.683765	0.404906	0.585507
C511	C	0.196313	-0.132384	0.146080
C512	C	0.696313	0.367616	0.646080
C513	C	0.168572	-0.182122	0.146526
C514	C	0.668572	0.317878	0.646526
C515	C	0.128282	-0.194570	0.086399
C516	C	0.628282	0.305430	0.586399
C517	C	0.115732	-0.157279	0.025823
C518	C	0.615732	0.342721	0.525823
C519	C	0.143473	-0.107541	0.025376
C520	C	0.643473	0.392459	0.525376
H521	H	0.226140	-0.123170	0.190593
H522	H	0.726140	0.376830	0.690593
H523	H	0.177863	-0.209727	0.191369
H524	H	0.677863	0.290273	0.691369
H525	H	0.107747	-0.231389	0.086730
H526	H	0.607747	0.268611	0.586730
H527	H	0.085905	-0.166493	-0.018691
H528	H	0.585905	0.333507	0.481309
H529	H	0.134182	-0.079936	-0.019467
H530	H	0.634182	0.420064	0.480533
H531	H	-0.478008	-0.374417	0.223762
H532	H	0.021992	0.125583	0.723762
C533	C	-0.640076	-0.873483	-0.011235
C534	C	-0.140076	-0.373483	0.488765
C535	C	-0.639429	-0.866307	-0.090736
C536	C	-0.139429	-0.366307	0.409264
C537	C	-0.675690	-0.895035	-0.143339
C538	C	-0.175690	-0.395035	0.356661
C539	C	-0.712598	-0.930938	-0.116440
C540	C	-0.212598	-0.430938	0.383560
C541	C	-0.713246	-0.938115	-0.036935
C542	C	-0.213246	-0.438115	0.463065
C543	C	-0.676985	-0.909388	0.015667
C544	C	-0.176985	-0.409388	0.515667
H545	H	-0.612106	-0.839728	-0.110651
H546	H	-0.112106	-0.339728	0.389349
H547	H	-0.675210	-0.889722	-0.202194
H548	H	-0.175210	-0.389722	0.297806
H549	H	-0.739441	-0.952204	-0.155380
H550	H	-0.239441	-0.452204	0.344620
H551	H	-0.740569	-0.964695	-0.017020
H552	H	-0.240569	-0.464695	0.482980
H553	H	-0.677465	-0.914701	0.074522
H554	H	-0.177465	-0.414701	0.574522
C555	C	-0.093520	-0.140295	0.089571
C556	C	0.406480	0.359705	0.589571
C557	C	-0.053243	-0.152733	0.149718
C558	C	0.446757	0.347267	0.649718
C559	C	-0.025529	-0.202487	0.149326
C560	C	0.474471	0.297513	0.649326
C561	C	-0.038091	-0.239803	0.088787
C562	C	0.461909	0.260197	0.588787
C563	C	-0.078370	-0.227366	0.028636
C564	C	0.421630	0.272634	0.528636
C565	C	-0.106084	-0.177612	0.029028
C566	C	0.393916	0.322388	0.529028
H567	H	-0.043942	-0.125108	0.194537
H568	H	0.456058	0.374892	0.694537
H569	H	0.004288	-0.211693	0.193854
H570	H	0.504288	0.288307	0.693854
H571	H	-0.017575	-0.276634	0.088496
H572	H	0.482425	0.223366	0.588496
H573	H	-0.087671	-0.254991	-0.016183
H574	H	0.412329	0.245009	0.483817
H575	H	-0.135901	-0.168406	-0.015500
H576	H	0.364099	0.331594	0.484500
C577	C	-0.673018	-0.366960	-0.059021
C578	C	-0.173018	0.133040	0.440979
C579	C	-0.672373	-0.374145	-0.138521
C580	C	-0.172373	0.125855	0.361479
C581	C	-0.708638	-0.345431	-0.191128
C582	C	-0.208638	0.154569	0.308872
C583	C	-0.745549	-0.309532	-0.164235
C584	C	-0.245549	0.190468	0.335765
C585	C	-0.746196	-0.302345	-0.084731
C586	C	-0.246196	0.197655	0.415269
C587	C	-0.709930	-0.331059	-0.032124
C588	C	-0.209930	0.168941	0.467876
H589	H	-0.645048	-0.400721	-0.158432
H590	H	-0.145048	0.099279	0.341568
H591	H	-0.708159	-0.350751	-0.249982
H592	H	-0.208159	0.149249	0.250018
H593	H	-0.772395	-0.288276	-0.203178
H594	H	-0.272395	0.211724	0.296822
H595	H	-0.773520	-0.275769	-0.064820
H596	H	-0.273520	0.224231	0.435180
H597	H	-0.710409	-0.325739	0.026730
H598	H	-0.210409	0.174261	0.526730
H599	H	-0.630623	-0.228941	0.002467
H600	H	-0.130623	0.271059	0.502467
C601	C	-0.673025	-0.523610	-0.059036
C602	C	-0.173025	-0.023610	0.440964
C603	C	-0.672383	-0.530794	-0.138536
C604	C	-0.172383	-0.030794	0.361464
C605	C	-0.708652	-0.502082	-0.191140
C606	C	-0.208652	-0.002082	0.308860
C607	C	-0.745563	-0.466185	-0.164244
C608	C	-0.245563	0.033815	0.335756
C609	C	-0.746207	-0.458999	-0.084739
C610	C	-0.246207	0.041001	0.415261
C611	C	-0.709937	-0.487711	-0.032135
C612	C	-0.209937	0.012289	0.467865
H613	H	-0.645058	-0.557368	-0.158451
H614	H	-0.145058	-0.057368	0.341549
H615	H	-0.708176	-0.507402	-0.249995
H616	H	-0.208176	-0.007402	0.250005
H617	H	-0.772412	-0.444931	-0.203184
H618	H	-0.272412	0.055069	0.296816
H619	H	-0.773532	-0.432425	-0.064825
H620	H	-0.273532	0.067575	0.435175
H621	H	-0.710414	-0.482392	0.026720
H622	H	-0.210414	0.017608	0.526720
H623	H	-0.510983	-0.134215	0.175990
H624	H	-0.010983	0.365785	0.675990
C625	C	-0.673027	-0.633266	-0.059041
C626	C	-0.173027	-0.133266	0.440959
C627	C	-0.654249	-0.669164	-0.112243
C628	C	-0.154249	-0.169164	0.387757
C629	C	-0.690513	-0.697891	-0.164843
C630	C	-0.190513	-0.197891	0.335157
C631	C	-0.745554	-0.690721	-0.164240
C632	C	-0.245554	-0.190721	0.335760
C633	C	-0.764334	-0.654821	-0.111037
C634	C	-0.264334	-0.154821	0.388963
C635	C	-0.728070	-0.626094	-0.058437
C636	C	-0.228070	-0.126094	0.441563
H637	H	-0.613502	-0.674473	-0.112690
H638	H	-0.113502	-0.174473	0.387310
H639	H	-0.676610	-0.724466	-0.204227
H640	H	-0.176610	-0.224466	0.295773
H641	H	-0.772398	-0.711986	-0.203178
H642	H	-0.272398	-0.211986	0.296822
H643	H	-0.805081	-0.649512	-0.110589
H644	H	-0.305081	-0.149512	0.389411
H645	H	-0.741973	-0.599519	-0.019053
H646	H	-0.241973	-0.099519	0.480947
H647	H	-0.663603	-0.469145	-0.045365
H648	H	-0.163603	0.030855	0.454635
H649	H	-0.478028	-0.531078	0.223758
H650	H	0.021972	-0.031078	0.723758
H651	H	-0.653683	-0.000158	-0.138732
H652	H	-0.153683	0.499842	0.361268
