data_functionalizedCrystal
_audit_creation_method	'MofGen! by Chris Wilmer'
_symmetry_space_group_name_H-M	'P1'
_symmetry_Int_Tables_number	1
_symmetry_cell_setting	triclinic
loop_
_symmetry_equiv_pos_as_xyz
  x,y,z
_cell_length_a	21.395362
_cell_length_b	11.169416
_cell_length_c	21.395355
_cell_angle_alpha	89.989073
_cell_angle_beta	89.956060
_cell_angle_gamma	90.026221
loop_
_atom_site_label
_atom_site_type_symbol
_atom_site_fract_x
_atom_site_fract_y
_atom_site_fract_z
Zn1	Zn	0.957948	-0.477437	-0.354619
Zn2	Zn	1.457948	0.022563	0.145381
Zn3	Zn	0.957888	-0.678108	-0.249855
Zn4	Zn	1.457888	-0.178108	0.250145
Zn5	Zn	0.853163	-0.477493	-0.249820
Zn6	Zn	1.353163	0.022507	0.250180
Zn7	Zn	0.853169	-0.678133	-0.354560
Zn8	Zn	1.353169	-0.178133	0.145440
O9	O	0.905542	-0.577793	-0.302213
O10	O	1.405542	-0.077793	0.197787
O11	O	1.045618	-0.504023	-0.340761
O12	O	1.545618	-0.004023	0.159239
O13	O	0.943968	-0.651509	-0.162172
O14	O	1.443968	-0.151509	0.337828
O15	O	0.867086	-0.309536	-0.263732
O16	O	1.367086	0.190464	0.236268
O17	O	1.045574	-0.651455	-0.263792
O18	O	1.545574	-0.151455	0.236208
O19	O	0.944071	-0.309495	-0.340727
O20	O	1.444071	0.190505	0.159273
O21	O	0.867027	-0.504118	-0.162147
O22	O	1.367027	-0.004118	0.337853
O23	O	0.765486	-0.504142	-0.263675
O24	O	1.265486	-0.004142	0.236325
O25	O	0.867096	-0.651497	-0.442246
O26	O	1.367096	-0.151497	0.057754
O27	O	0.765491	-0.651551	-0.340627
O28	O	1.265491	-0.151551	0.159373
O29	O	0.944077	-0.504047	-0.442289
O30	O	1.444077	-0.004047	0.057711
O31	O	0.943974	-0.846061	-0.263734
O32	O	1.443974	-0.346061	0.236266
O33	O	0.867038	-0.846079	-0.340661
O34	O	1.367038	-0.346079	0.159339
C35	C	0.742754	-0.577856	-0.302141
C36	C	1.242754	-0.077856	0.197859
C37	C	0.673113	-0.577912	-0.302124
C38	C	1.173113	-0.077912	0.197876
C39	C	0.640419	-0.654770	-0.342133
C40	C	1.140419	-0.154770	0.157867
C41	C	0.574984	-0.654741	-0.342161
C42	C	1.074984	-0.154741	0.157839
C43	C	0.542245	-0.577866	-0.302169
C44	C	1.042245	-0.077866	0.197831
C45	C	0.574947	-0.500994	-0.262157
C46	C	1.074947	-0.000994	0.237843
C47	C	0.640381	-0.501017	-0.262135
C48	C	1.140381	-0.001017	0.237865
C49	C	0.438518	-0.568198	-0.245763
C50	C	0.938518	-0.068198	0.254237
C51	C	0.373085	-0.568183	-0.245784
C52	C	0.873085	-0.068183	0.254216
C53	C	0.340424	-0.577788	-0.302238
C54	C	0.840424	-0.077788	0.197762
C55	C	0.373204	-0.587433	-0.358673
C56	C	0.873204	-0.087433	0.141327
C57	C	0.438638	-0.587456	-0.358650
C58	C	0.938638	-0.087456	0.141350
C59	C	0.471293	-0.577832	-0.302189
C60	C	0.971293	-0.077832	0.197811
C61	C	0.236777	-0.654618	-0.342281
C62	C	0.736777	-0.154618	0.157719
C63	C	0.171341	-0.654580	-0.342310
C64	C	0.671341	-0.154580	0.157690
C65	C	0.171306	-0.500839	-0.262300
C66	C	0.671306	-0.000839	0.237700
C67	C	0.236741	-0.500871	-0.262277
C68	C	0.736741	-0.000871	0.237723
C69	C	0.269473	-0.577766	-0.302266
C70	C	0.769473	-0.077766	0.197734
C71	C	0.905517	-0.889618	-0.302209
C72	C	1.405517	-0.389618	0.197791
C73	C	0.905564	-1.023018	-0.302228
C74	C	1.405564	-0.523018	0.197772
C75	C	1.068965	-0.577730	-0.302287
C76	C	1.568965	-0.077730	0.197713
C77	C	1.138607	-0.577703	-0.302318
C78	C	1.638607	-0.077703	0.197682
C79	C	0.905594	-0.577769	-0.465637
C80	C	1.405594	-0.077769	0.034363
C81	C	0.905616	-0.577758	-0.535278
C82	C	1.405616	-0.077758	-0.035278
C83	C	0.905584	-0.264751	-0.302232
C84	C	1.405584	0.235249	0.197768
C85	C	0.905602	-0.131351	-0.302240
C86	C	1.405602	0.368649	0.197760
C87	C	0.945698	-0.500978	-0.568015
C88	C	1.445698	-0.000978	-0.068015
C89	C	0.945697	-0.500926	-0.633450
C90	C	1.445697	-0.000926	-0.133450
C91	C	0.905621	-0.577676	-0.666146
C92	C	1.405621	-0.077676	-0.166146
C93	C	0.865531	-0.654462	-0.633402
C94	C	1.365531	-0.154462	-0.133402
C95	C	0.865529	-0.654503	-0.567968
C96	C	1.365529	-0.154503	-0.067968
C97	C	0.900665	-0.685744	-0.769818
C98	C	1.400665	-0.185744	-0.269818
C99	C	0.900672	-0.685705	-0.835251
C100	C	1.400672	-0.185705	-0.335251
C101	C	0.905625	-0.577550	-0.867967
C102	C	1.405625	-0.077550	-0.367967
C103	C	0.910584	-0.469429	-0.835243
C104	C	1.410584	0.030571	-0.335243
C105	C	0.910582	-0.469470	-0.769809
C106	C	1.410582	0.030530	-0.269809
C107	C	0.905619	-0.577640	-0.737099
C108	C	1.405619	-0.077640	-0.237099
C109	C	0.945708	-0.500707	-0.971656
C110	C	1.445708	-0.000707	-0.471656
C111	C	0.945703	-0.500653	-1.037093
C112	C	1.445703	-0.000653	-0.537093
C113	C	0.865540	-0.654200	-1.037044
C114	C	1.365540	-0.154200	-0.537044
C115	C	0.865542	-0.654243	-0.971608
C116	C	1.365542	-0.154243	-0.471608
C117	C	0.905630	-0.577498	-0.938919
C118	C	1.405630	-0.077498	-0.438919
C119	C	0.905526	-0.577731	-0.139426
C120	C	1.405526	-0.077731	0.360574
C121	C	0.905626	-0.577403	-0.069785
C122	C	1.405626	-0.077403	0.430215
H123	H	0.465106	-0.560371	-0.199789
H124	H	0.965106	-0.060371	0.300211
H125	H	0.832887	-0.717026	-0.541314
H126	H	1.332887	-0.217026	-0.041314
N127	N	0.988931	-0.417813	-1.072397
N128	N	1.488931	0.082187	-0.572397
H129	H	1.033696	-0.436444	-1.061047
H130	H	1.533696	0.063556	-0.561047
H131	H	0.982798	-0.429451	-1.118800
H132	H	1.482798	0.070549	-0.618800
H133	H	0.144650	-0.438241	-0.229741
H134	H	0.644650	0.061759	0.270259
N135	N	0.337969	-0.597860	-0.419554
N136	N	0.837969	-0.097860	0.080446
H137	H	0.349356	-0.675621	-0.440778
H138	H	0.849356	-0.175621	0.059222
H139	H	0.291558	-0.596343	-0.410936
H140	H	0.791558	-0.096343	0.089064
H141	H	0.978340	-0.438485	-0.541403
H142	H	1.478340	0.061515	-0.041403
H143	H	0.667065	-0.717383	-0.374697
H144	H	1.167065	-0.217383	0.125303
H145	H	0.978336	-0.438396	-0.660110
H146	H	1.478336	0.061604	-0.160110
H147	H	0.548359	-0.717327	-0.374744
H148	H	1.048359	-0.217327	0.125256
H149	H	0.465325	-0.595306	-0.404601
H150	H	0.965325	-0.095306	0.095399
N151	N	0.539641	-0.418093	-0.219015
N152	N	1.039641	0.081907	0.280985
H153	H	0.493227	-0.429749	-0.225095
H154	H	0.993227	0.070251	0.274905
H155	H	0.551030	-0.436667	-0.174251
H156	H	1.051030	0.063333	0.325749
N157	N	0.337732	-0.557780	-0.184920
N158	N	0.837732	-0.057780	0.315080
H159	H	0.310555	-0.630870	-0.178986
H160	H	0.810555	-0.130870	0.321014
H161	H	0.368390	-0.551645	-0.149192
H162	H	0.868390	-0.051645	0.350808
N163	N	0.675642	-0.418107	-0.218981
N164	N	1.175642	0.081893	0.281019
H165	H	0.664198	-0.436609	-0.174201
H166	H	1.164198	0.063391	0.325799
H167	H	0.722051	-0.429820	-0.225085
H168	H	1.222051	0.070180	0.274915
N169	N	0.272087	-0.737545	-0.385411
N170	N	0.772087	-0.237545	0.114589
H171	H	0.241443	-0.786225	-0.410766
H172	H	0.741443	-0.286225	0.089234
H173	H	0.299288	-0.688785	-0.414438
H174	H	0.799288	-0.188785	0.085562
N175	N	0.136074	-0.737487	-0.385461
N176	N	0.636074	-0.237487	0.114539
H177	H	0.147519	-0.718996	-0.430242
H178	H	0.647519	-0.218996	0.069758
H179	H	0.147437	-0.823178	-0.375588
H180	H	0.647437	-0.323178	0.124412
N181	N	0.915933	-0.352765	-0.870519
N182	N	1.415933	0.147235	-0.370519
H183	H	0.915180	-0.369139	-0.916937
H184	H	1.415180	0.130861	-0.416937
H185	H	0.879709	-0.299126	-0.859049
H186	H	1.379709	0.200874	-0.359049
N187	N	0.272009	-0.417966	-0.219128
N188	N	0.772009	0.082034	0.280872
H189	H	0.241342	-0.369257	-0.193799
H190	H	0.741342	0.130743	0.306201
H191	H	0.299113	-0.466736	-0.190079
H192	H	0.799113	0.033264	0.309921
H193	H	0.914618	-0.381435	-0.743167
H194	H	1.414618	0.118565	-0.243167
N195	N	0.988942	-0.417946	-0.936387
N196	N	1.488942	0.082054	-0.436387
H197	H	0.979228	-0.332182	-0.947750
H198	H	1.479228	0.167818	-0.447750
H199	H	0.982837	-0.429747	-0.889980
H200	H	1.482837	0.070253	-0.389980
N201	N	0.822309	-0.736973	-1.072299
N202	N	1.322309	-0.236973	-0.572299
H203	H	0.828390	-0.725295	-1.118720
H204	H	1.328390	-0.225295	-0.618720
H205	H	0.832047	-0.822694	-1.060877
H206	H	1.332047	-0.322694	-0.560877
N207	N	0.822301	-0.737037	-0.936294
N208	N	1.322301	-0.237037	-0.436294
H209	H	0.796908	-0.785645	-0.966934
H210	H	1.296908	-0.285645	-0.466934
H211	H	0.847784	-0.792595	-0.909161
H212	H	1.347784	-0.292595	-0.409161
H213	H	0.896638	-0.773744	-0.861890
H214	H	1.396638	-0.273744	-0.361890
H215	H	0.896464	-0.773795	-0.743185
H216	H	1.396464	-0.273795	-0.243185
H217	H	0.832899	-0.716949	-0.660027
H218	H	1.332899	-0.216949	-0.160027
