data_functionalizedCrystal
_audit_creation_method	'MofGen! by Chris Wilmer'
_symmetry_space_group_name_H-M	'P1'
_symmetry_Int_Tables_number	1
_symmetry_cell_setting	triclinic
loop_
_symmetry_equiv_pos_as_xyz
  x,y,z
_cell_length_a	15.944493
_cell_length_b	15.944551
_cell_length_c	9.130313
_cell_angle_alpha	89.997799
_cell_angle_beta	90.000331
_cell_angle_gamma	83.486891
loop_
_atom_site_label
_atom_site_type_symbol
_atom_site_fract_x
_atom_site_fract_y
_atom_site_fract_z
O1	O	1.114550	0.108096	-0.121783
O2	O	0.869993	0.121503	-0.121791
O3	O	0.998950	-0.007476	-0.121773
O4	O	0.985593	0.237076	-0.121800
O5	O	0.998948	-0.007473	0.121825
O6	O	0.869992	0.121507	0.121808
O7	O	1.114548	0.108100	0.121816
Cu8	Cu	0.992270	0.114804	0.144054
Cu9	Cu	0.992272	0.114800	-0.144029
O10	O	0.985592	0.237080	0.121799
C11	C	0.838698	0.120957	0.000008
C12	C	0.745449	0.119314	0.000005
C13	C	0.509689	0.195235	-0.000004
C14	C	0.459130	0.154296	0.120114
C15	C	0.574728	0.116270	0.000009
C16	C	0.459136	0.154274	-0.120055
C17	C	0.409819	0.113336	0.000005
C18	C	0.525397	0.075352	0.120225
C19	C	0.525407	0.075342	-0.120052
C20	C	0.474880	0.034345	0.000095
C21	C	0.669728	0.117963	0.000012
C22	C	0.314821	0.111637	0.000013
C23	C	0.998395	-0.038768	0.000026
C24	C	0.996732	-0.132014	0.000027
C25	C	0.912826	-0.346853	0.000004
C26	C	0.951788	-0.407877	0.120114
C27	C	0.993725	-0.302739	0.000016
C28	C	0.951809	-0.407864	-0.120055
C29	C	0.990814	-0.467651	-0.000002
C30	C	1.032710	-0.362535	0.120225
C31	C	1.032719	-0.362515	-0.120052
C32	C	1.071741	-0.423521	0.000087
C33	C	0.995399	-0.207737	0.000027
C34	C	0.989146	-0.562652	-0.000002
C35	C	1.145844	0.108646	0.000014
C36	C	1.239092	0.110289	0.000007
C37	C	0.986147	0.268372	-0.000004
C38	C	0.987809	0.361617	-0.000015
N39	N	0.992275	0.114806	0.346677
N40	N	0.992274	0.114791	-0.346652
C41	C	1.049391	0.057713	0.423337
C42	C	1.049389	0.057703	0.576674
C43	C	0.935151	0.171886	0.576678
C44	C	0.935150	0.171892	0.423344
C45	C	1.106516	0.000627	0.346670
C46	C	1.163637	-0.056470	0.423330
C47	C	1.163635	-0.056480	0.576667
C48	C	1.106511	0.000607	0.653344
H49	H	0.554224	0.042026	0.221876
H50	H	0.459415	-0.033726	0.000172
H51	H	0.917582	-0.427935	-0.221606
H52	H	0.554353	0.042018	-0.221598
H53	H	0.888640	0.218381	0.360927
H54	H	0.888644	0.218365	0.639118
H55	H	1.106524	0.000632	0.221816
H56	H	1.066908	-0.342393	-0.221599
H57	H	1.210141	-0.102953	0.360892
H58	H	1.210140	-0.102975	0.639082
H59	H	0.845675	-0.313532	0.000122
H60	H	0.430199	0.187636	-0.221591
H61	H	1.066897	-0.342550	0.221880
H62	H	0.525313	0.263254	0.000101
H63	H	0.430192	0.187645	0.221655
H64	H	1.138950	-0.456694	0.000157
H65	H	1.106509	0.000589	0.778201
H66	H	0.917570	-0.427977	0.221656
