data_functionalizedCrystal
_audit_creation_method	'MofGen! by Chris Wilmer'
_symmetry_space_group_name_H-M	'P1'
_symmetry_Int_Tables_number	1
_symmetry_cell_setting	triclinic
loop_
_symmetry_equiv_pos_as_xyz
  x,y,z
_cell_length_a	16.109302
_cell_length_b	10.967829
_cell_length_c	14.586319
_cell_angle_alpha	77.868327
_cell_angle_beta	89.994552
_cell_angle_gamma	84.099565
loop_
_atom_site_label
_atom_site_type_symbol
_atom_site_fract_x
_atom_site_fract_y
_atom_site_fract_z
O1	O	1.104075	0.160397	-0.101620
O2	O	1.604075	0.660397	0.398380
O3	O	0.862131	0.180357	-0.104766
O4	O	1.362131	0.680357	0.395234
O5	O	0.988683	-0.011276	-0.074491
O6	O	1.488683	0.488724	0.425509
O7	O	0.977524	0.352029	-0.131896
O8	O	1.477524	0.852029	0.368104
O9	O	0.988674	-0.011278	0.077990
O10	O	1.488674	0.488722	0.577990
O11	O	0.862122	0.180354	0.047715
O12	O	1.362122	0.680354	0.547715
O13	O	1.104067	0.160394	0.050861
O14	O	1.604067	0.660394	0.550861
Cu15	Cu	0.983094	0.170374	0.063211
Cu16	Cu	1.483094	0.670374	0.563211
Cu17	Cu	0.983104	0.170377	-0.117116
Cu18	Cu	1.483104	0.670377	0.382884
O19	O	0.977515	0.352026	0.020585
O20	O	1.477515	0.852026	0.520585
C21	C	0.831147	0.179547	-0.028397
C22	C	1.331147	0.679547	0.471603
C23	C	0.738837	0.177122	-0.028011
C24	C	1.238837	0.677122	0.471989
C25	C	0.526459	0.171514	0.055983
C26	C	1.026459	0.671514	0.555983
C27	C	0.439725	0.169223	0.056342
C28	C	0.939725	0.669223	0.556342
C29	C	0.439745	0.169233	-0.109902
C30	C	0.939745	0.669233	0.390098
C31	C	0.526478	0.171515	-0.110259
C32	C	1.026478	0.671515	0.389741
C33	C	0.569832	0.172662	-0.027314
C34	C	1.069832	0.672662	0.472686
C35	C	0.396366	0.168088	-0.026599
C36	C	0.896366	0.668088	0.473401
C37	C	0.302325	0.165604	-0.026211
C38	C	0.802325	0.665604	0.473789
C39	C	0.663878	0.175145	-0.027702
C40	C	1.163878	0.675145	0.472298
C41	C	0.987866	-0.057766	0.009094
C42	C	1.487866	0.442234	0.509094
C43	C	0.985434	-0.196290	0.030976
C44	C	1.485434	0.303710	0.530976
C45	C	0.984355	-0.258041	-0.038259
C46	C	1.484355	0.241959	0.461741
C47	C	0.981842	-0.401212	-0.015644
C48	C	1.481842	0.098788	0.484356
C49	C	1.135051	0.161204	-0.025510
C50	C	1.635051	0.661204	0.474490
C51	C	1.227360	0.163629	-0.025902
C52	C	1.727360	0.663629	0.474098
C53	C	0.978332	0.398517	-0.063001
C54	C	1.478332	0.898517	0.436999
C55	C	0.980763	0.537041	-0.084889
C56	C	1.480763	1.037041	0.415111
N57	N	0.983092	0.170371	0.190043
N58	N	1.483092	0.670371	0.690043
N59	N	0.983112	0.170370	-0.243947
N60	N	1.483112	0.670370	0.256053
C61	C	1.039148	0.085544	0.438451
C62	C	1.539148	0.585544	0.938451
C63	C	1.039151	0.085541	0.534433
C64	C	1.539151	0.585541	1.034433
C65	C	0.927050	0.255201	0.507638
C66	C	1.427050	0.755201	1.007638
C67	C	0.927044	0.255197	0.411659
C68	C	1.427044	0.755197	0.911659
C69	C	0.983098	0.170370	0.377068
C70	C	1.483098	0.670370	0.877068
C71	C	0.983106	0.170371	0.569028
C72	C	1.483106	0.670371	1.069028
C73	C	0.983108	0.170368	0.673096
C74	C	1.483108	0.670368	1.173096
C75	C	0.983095	0.170371	0.272994
C76	C	1.483095	0.670371	0.772994
H77	H	0.404414	0.168289	0.124171
H78	H	0.904414	0.668289	0.624171
H79	H	0.985288	-0.204913	-0.114276
H80	H	1.485288	0.295087	0.385724
H81	H	0.561755	0.172449	0.123522
H82	H	1.061755	0.672449	0.623522
Cl83	Cl	0.980390	-0.483219	0.101729
Cl84	Cl	1.480390	0.016781	0.601729
Cl85	Cl	0.385240	0.167760	-0.214165
Cl86	Cl	0.885240	0.667760	0.285835
H87	H	0.984493	-0.249416	0.106992
H88	H	1.484493	0.250584	0.606992
Cl89	Cl	0.982176	-0.380948	-0.202264
Cl90	Cl	1.482176	0.119052	0.297736
H91	H	0.561794	0.172446	-0.178093
H92	H	1.061794	0.672446	0.321907
Cl93	Cl	1.109615	-0.021104	0.611598
Cl94	Cl	1.609615	0.478896	1.111598
H95	H	1.084789	0.016471	0.410290
H96	H	1.584789	0.516471	0.910290
Cl97	Cl	0.856589	0.361840	0.551128
Cl98	Cl	1.356589	0.861840	1.051128
Cl99	Cl	0.856572	0.361837	0.334485
Cl100	Cl	1.356572	0.861837	0.834485
