data_functionalizedCrystal
_audit_creation_method	'MofGen! by Chris Wilmer'
_symmetry_space_group_name_H-M	'P1'
_symmetry_Int_Tables_number	1
_symmetry_cell_setting	triclinic
loop_
_symmetry_equiv_pos_as_xyz
  x,y,z
_cell_length_a	10.540510
_cell_length_b	10.540510
_cell_length_c	9.130313
_cell_angle_alpha	90.001199
_cell_angle_beta	89.999498
_cell_angle_gamma	84.513311
loop_
_atom_site_label
_atom_site_type_symbol
_atom_site_fract_x
_atom_site_fract_y
_atom_site_fract_z
O1	O	1.685883	0.178717	-0.121800
O2	O	1.316463	0.195613	-0.121800
O3	O	1.509621	0.002455	-0.121799
O4	O	1.492725	0.371875	-0.121800
O5	O	1.509618	0.002460	0.121800
O6	O	1.316461	0.195618	0.121799
O7	O	1.685881	0.178722	0.121799
Cu8	Cu	1.501170	0.187171	0.144042
Cu9	Cu	1.501173	0.187164	-0.144042
O10	O	1.492723	0.371880	0.121798
C11	C	1.269159	0.194356	-0.000001
C12	C	1.128209	0.190589	-0.000001
C13	C	0.910739	0.324775	-0.000561
C14	C	1.057334	0.328793	-0.000003
C15	C	1.083455	0.119845	0.139103
C16	C	0.936695	0.116806	0.139210
C17	C	0.936892	0.113922	-0.137807
C18	C	1.083232	0.120477	-0.139637
C19	C	1.508361	-0.044846	-0.000003
C20	C	1.504594	-0.185795	-0.000012
C21	C	1.638780	-0.403265	0.000546
C22	C	1.642798	-0.256670	-0.000010
C23	C	1.433848	-0.230549	-0.139116
C24	C	1.430809	-0.377310	-0.139225
C25	C	1.427928	-0.377112	0.137793
C26	C	1.434483	-0.230772	0.139624
C27	C	1.733185	0.179979	-0.000003
C28	C	1.874135	0.183746	-0.000013
C29	C	1.493983	0.419181	-0.000001
C30	C	1.497750	0.560130	-0.000002
N31	N	1.501178	0.187174	0.346664
N32	N	1.501176	0.187151	-0.346665
C33	C	1.586730	0.101673	0.423316
C34	C	1.586727	0.101658	0.576653
C35	C	1.415614	0.272656	0.576672
C36	C	1.415613	0.272664	0.423338
C37	C	1.672295	0.016184	0.346643
C38	C	1.757855	-0.069323	0.423295
C39	C	1.757852	-0.069338	0.576632
C40	C	1.672288	0.016153	0.653316
H41	H	1.114304	0.168980	0.242624
H42	H	1.692621	-0.445224	0.100305
N43	N	1.300810	-0.165810	0.150732
H44	H	1.283728	-0.106035	0.065024
H45	H	1.237747	-0.232163	0.149530
H46	H	1.132311	0.019578	-0.148037
H47	H	1.698152	-0.227330	0.099703
N48	N	1.323345	0.364862	0.659386
H49	H	1.338763	0.455105	0.632709
H50	H	1.233160	0.349271	0.632673
N51	N	0.880668	0.171776	-0.277469
H52	H	0.896084	0.264802	-0.282060
H53	H	0.922310	0.125471	-0.364411
N54	N	1.290480	-0.406430	0.139046
H55	H	1.273467	-0.460093	0.050838
H56	H	1.273104	-0.454597	0.231392
N57	N	1.850142	-0.161536	0.340613
H58	H	1.834715	-0.251776	0.367292
H59	H	1.837130	-0.148454	0.231868
H60	H	1.672308	0.016191	0.221788
N61	N	1.299075	-0.167776	-0.145980
H62	H	1.282543	-0.109581	-0.058777
H63	H	1.287212	-0.116445	-0.239209
N64	N	1.850138	-0.161546	0.659311
H65	H	1.904345	-0.215692	0.587467
H66	H	1.906677	-0.112388	0.722924
H67	H	1.672284	0.016125	0.778173
N68	N	1.094980	0.402527	0.132311
H69	H	1.138913	0.478673	0.099383
H70	H	1.016248	0.432459	0.190458
H71	H	1.130856	0.018102	0.144277
H72	H	1.345947	0.342285	0.360927
N73	N	1.716542	-0.219062	-0.132332
H74	H	1.673322	-0.246193	-0.224351
H75	H	1.719455	-0.123570	-0.133126
H76	H	1.086675	0.384138	-0.099722
H77	H	0.868781	0.378616	-0.100321
H78	H	0.867226	0.378310	0.098632
H79	H	0.896472	0.165157	0.243192
N80	N	0.906235	-0.020109	0.147580
H81	H	0.988116	-0.078223	0.151190
H82	H	0.854620	-0.032606	0.238755
H83	H	1.482981	-0.199700	-0.242636
H84	H	1.111846	0.171950	-0.242545
H85	H	0.914749	0.010159	-0.138747
N86	N	1.709690	-0.460903	-0.130847
H87	H	1.665955	-0.427648	-0.223498
H88	H	1.800184	-0.436918	-0.129535
N89	N	1.494870	-0.430605	-0.276943
H90	H	1.524813	-0.358730	-0.337010
H91	H	1.570359	-0.492442	-0.249844
N92	N	1.293895	-0.407770	-0.147608
H93	H	1.235780	-0.325889	-0.151222
H94	H	1.281406	-0.459383	-0.238787
N95	N	1.502653	-0.192863	0.275943
H96	H	1.457121	-0.222041	0.365389
H97	H	1.593201	-0.234016	0.274922
N98	N	1.485776	-0.433330	0.277461
H99	H	1.557838	-0.500060	0.252821
H100	H	1.519589	-0.363662	0.337820
