data_functionalizedCrystal
_audit_creation_method	'MofGen! by Chris Wilmer'
_symmetry_space_group_name_H-M	'P1'
_symmetry_Int_Tables_number	1
_symmetry_cell_setting	triclinic
loop_
_symmetry_equiv_pos_as_xyz
  x,y,z
_cell_length_a	11.169417
_cell_length_b	12.594516
_cell_length_c	11.169409
_cell_angle_alpha	89.966970
_cell_angle_beta	89.980487
_cell_angle_gamma	90.013065
loop_
_atom_site_label
_atom_site_type_symbol
_atom_site_fract_x
_atom_site_fract_y
_atom_site_fract_z
Zn1	Zn	1.834950	-0.423620	-0.678527
Zn2	Zn	2.168283	-0.090287	-0.345194
Zn3	Zn	2.501617	0.243046	-0.011860
Zn4	Zn	1.834834	-0.601647	-0.477841
Zn5	Zn	2.168168	-0.268313	-0.144508
Zn6	Zn	2.501501	0.065020	0.188825
Zn7	Zn	1.634236	-0.423686	-0.477862
Zn8	Zn	1.967569	-0.090353	-0.144529
Zn9	Zn	2.300903	0.242980	0.188804
Zn10	Zn	1.634238	-0.601561	-0.678487
Zn11	Zn	1.967572	-0.268228	-0.345154
Zn12	Zn	2.300905	0.065105	-0.011821
O13	O	1.734565	-0.512629	-0.578180
O14	O	2.067898	-0.179295	-0.244846
O15	O	2.401231	0.154038	0.088487
O16	O	2.002884	-0.447244	-0.651913
O17	O	2.336218	-0.113911	-0.318580
O18	O	2.669551	0.219423	0.014753
O19	O	1.808175	-0.578103	-0.309894
O20	O	2.141508	-0.244770	0.023439
O21	O	2.474842	0.088563	0.356772
O22	O	1.660909	-0.274732	-0.504506
O23	O	1.994242	0.058601	-0.171173
O24	O	2.327575	0.391935	0.162160
O25	O	2.002799	-0.578039	-0.504471
O26	O	2.336133	-0.244706	-0.171137
O27	O	2.669466	0.088627	0.162196
O28	O	1.808372	-0.274683	-0.651934
O29	O	2.141706	0.058650	-0.318600
O30	O	2.475039	0.391983	0.014733
O31	O	1.660796	-0.447357	-0.309910
O32	O	1.994130	-0.114023	0.023423
O33	O	2.327463	0.219310	0.356757
O34	O	1.466287	-0.447274	-0.504468
O35	O	1.799620	-0.113940	-0.171135
O36	O	2.132953	0.219393	0.162199
O37	O	1.660912	-0.577894	-0.846443
O38	O	1.994246	-0.244560	-0.513109
O39	O	2.327579	0.088773	-0.179776
O40	O	1.466288	-0.577958	-0.651866
O41	O	1.799622	-0.244624	-0.318533
O42	O	2.132955	0.088709	0.014800
O43	O	1.808375	-0.447161	-0.846472
O44	O	2.141708	-0.113828	-0.513138
O45	O	2.475041	0.219505	-0.179805
O46	O	1.808177	-0.750581	-0.504432
O47	O	2.141511	-0.417248	-0.171099
O48	O	2.474844	-0.083914	0.162234
O49	O	1.660800	-0.750518	-0.651846
O50	O	1.994134	-0.417185	-0.318513
O51	O	2.327467	-0.083852	0.014821
C52	C	1.422740	-0.512614	-0.578166
C53	C	1.756073	-0.179281	-0.244833
C54	C	2.089407	0.154052	0.088501
C55	C	1.289340	-0.512634	-0.578188
C56	C	1.622673	-0.179300	-0.244855
C57	C	1.956007	0.154033	0.088478
C58	C	1.734509	-0.789170	-0.578159
C59	C	2.067842	-0.455836	-0.244825
C60	C	2.401176	-0.122503	0.088508
C61	C	1.734595	-0.907475	-0.578190
C62	C	2.067928	-0.574142	-0.244857
C63	C	2.401262	-0.240808	0.088477
C64	C	1.814846	-0.976724	-0.498097
C65	C	2.148180	-0.643390	-0.164764
C66	C	2.481513	-0.310057	0.168570
C67	C	1.844180	-1.047411	-0.607640
C68	C	2.177513	-0.714078	-0.274307
C69	C	2.510847	-0.380744	0.059027
C70	C	1.705412	-1.047587	-0.468717
C71	C	2.038745	-0.714253	-0.135384
C72	C	2.372078	-0.380920	0.197950
C73	C	1.763984	-0.976604	-0.687790
C74	C	2.097318	-0.643271	-0.354457
C75	C	2.430651	-0.309937	-0.021123
C76	C	1.625165	-0.976774	-0.548793
C77	C	1.958499	-0.643440	-0.215460
C78	C	2.291832	-0.310107	0.117873
C79	C	1.654457	-1.047429	-0.658412
C80	C	1.987790	-0.714096	-0.325078
C81	C	2.321124	-0.380762	0.008255
C82	C	2.047607	-0.512644	-0.578194
C83	C	2.380940	-0.179311	-0.244861
C84	C	2.714274	0.154023	0.088473
C85	C	2.181007	-0.512650	-0.578200
C86	C	2.514340	-0.179317	-0.244867
C87	C	2.847674	0.154016	0.088466
C88	C	1.734657	-0.512510	-0.891222
C89	C	2.067990	-0.179177	-0.557889
C90	C	2.401323	0.154156	-0.224556
C91	C	1.734696	-0.512460	-1.024622
C92	C	2.068029	-0.179127	-0.691289
C93	C	2.401363	0.154207	-0.357956
C94	C	1.734653	-0.235008	-0.578227
C95	C	2.067986	0.098325	-0.244893
C96	C	2.401320	0.431659	0.088440
C97	C	1.734691	-0.116702	-0.578247
C98	C	2.068024	0.216631	-0.244914
C99	C	2.401357	0.549964	0.088420
C100	C	1.734542	-0.512670	-0.266355
C101	C	2.067875	-0.179336	0.066978
C102	C	2.401209	0.153997	0.400312
C103	C	1.734735	-0.512420	-0.132955
C104	C	2.068068	-0.179087	0.200378
C105	C	2.401402	0.154247	0.533711
H106	H	1.882723	-0.945677	-0.430426
H107	H	2.216057	-0.612343	-0.097093
H108	H	2.549390	-0.279010	0.236240
H109	H	1.936763	-1.078442	-0.632536
H110	H	2.270097	-0.745108	-0.299203
H111	H	2.603430	-0.411775	0.034131
Cl112	Cl	1.802340	-0.928678	-0.830801
Cl113	Cl	2.135673	-0.595344	-0.497468
Cl114	Cl	2.469006	-0.262011	-0.164134
H115	H	1.586632	-1.078279	-0.726246
H116	H	1.919966	-0.744946	-0.392913
H117	H	2.253299	-0.411612	-0.059580
H118	H	1.532609	-0.945720	-0.523865
H119	H	1.865942	-0.612387	-0.190531
H120	H	2.199275	-0.279053	0.142802
H121	H	1.680689	-1.078765	-0.376114
H122	H	2.014022	-0.745431	-0.042780
H123	H	2.347356	-0.412098	0.290553
