data_functionalizedCrystal
_audit_creation_method	'MofGen! by Chris Wilmer'
_symmetry_space_group_name_H-M	'P1'
_symmetry_Int_Tables_number	1
_symmetry_cell_setting	triclinic
loop_
_symmetry_equiv_pos_as_xyz
  x,y,z
_cell_length_a	13.262402
_cell_length_b	14.044220
_cell_length_c	12.376501
_cell_angle_alpha	102.319891
_cell_angle_beta	94.180489
_cell_angle_gamma	88.646233
loop_
_atom_site_label
_atom_site_type_symbol
_atom_site_fract_x
_atom_site_fract_y
_atom_site_fract_z
O1	O	1.342110	0.189089	0.318661
O2	O	1.055137	0.185985	0.230420
O3	O	1.194314	0.049281	0.273227
O4	O	1.202933	0.325793	0.275854
O5	O	1.159527	0.083409	0.450539
O6	O	1.020350	0.220112	0.407733
O7	O	1.307323	0.223217	0.495973
Zn8	Zn	1.158313	0.227083	0.480005
Zn9	Zn	1.204147	0.182119	0.246388
O10	O	1.168146	0.359920	0.453167
C11	C	1.000795	0.200082	0.307716
C12	C	0.890701	0.191233	0.273863
C13	C	0.857940	0.168471	0.161303
C14	C	0.754500	0.160166	0.129499
C15	C	0.683810	0.174615	0.210252
C16	C	0.716571	0.197371	0.322814
C17	C	0.820021	0.205684	0.354622
C18	C	0.645891	0.211829	0.403570
C19	C	0.678651	0.234584	0.516133
C20	C	0.782092	0.242896	0.547934
C21	C	0.852781	0.228447	0.467182
C22	C	0.542441	0.203515	0.371763
C23	C	0.504521	0.240729	0.565081
C24	C	0.607962	0.249034	0.596885
C25	C	1.173149	0.030792	0.360724
C26	C	1.161901	-0.075147	0.357266
C27	C	1.141339	-0.269115	0.350928
C28	C	1.221118	-0.321691	0.375455
C29	C	1.209677	-0.429622	0.371928
C30	C	1.152778	-0.161174	0.354454
C31	C	1.361665	0.209119	0.418676
C32	C	1.471761	0.217967	0.452521
C33	C	1.189311	0.378409	0.365668
C34	C	1.200561	0.484347	0.369118
N35	N	1.127040	0.257770	0.639445
C36	C	1.054451	0.329022	0.676303
C37	C	1.032577	0.350509	0.787916
C38	C	1.083286	0.300741	0.862679
C39	C	1.155872	0.229483	0.825820
C40	C	1.177753	0.207999	0.714198
C41	C	1.206588	0.179719	0.900574
C42	C	1.279174	0.108461	0.863714
C43	C	1.301050	0.086980	0.752103
C44	C	1.250342	0.136747	0.677340
C45	C	1.184707	0.201203	1.012195
C46	C	1.308009	0.080180	1.050090
C47	C	1.329882	0.058693	0.938478
N48	N	1.235419	0.151432	1.086948
H49	H	0.599586	0.167852	0.184350
H50	H	0.973480	0.408527	0.817923
C51	C	1.003902	-0.307915	0.212025
C52	C	1.037541	-0.317770	0.319012
H53	H	0.939825	-0.337968	0.192324
H54	H	0.998065	-0.240723	0.210244
H55	H	1.050997	-0.338388	0.160947
H56	H	0.990449	-0.287291	0.370091
H57	H	1.043372	-0.384975	0.320801
C58	C	1.015226	0.149047	0.461323
C59	C	0.966490	0.237586	0.502132
H60	H	1.085427	0.154696	0.482891
H61	H	0.987501	0.098982	0.490668
H62	H	1.005815	0.133428	0.382730
H63	H	0.975895	0.253202	0.580726
H64	H	0.994224	0.287667	0.472792
H65	H	0.808760	0.261434	0.639590
H66	H	0.446965	0.252497	0.630837
H67	H	0.515778	0.184989	0.280114
C68	C	1.068969	0.433195	0.547660
C69	C	0.998722	0.383719	0.594121
H70	H	1.034560	0.466960	0.496918
H71	H	1.104649	0.478499	0.604790
H72	H	1.115329	0.387675	0.509746
H73	H	0.952366	0.429240	0.632043
H74	H	0.963025	0.338410	0.536982
H75	H	0.634650	0.267563	0.688535
H76	H	1.065473	0.318239	0.953558
C77	C	1.358540	-0.282907	0.514378
C78	C	1.324922	-0.273037	0.407390
H79	H	1.422624	-0.252870	0.534091
H80	H	1.311449	-0.252436	0.565446
H81	H	1.364363	-0.350111	0.516149
H82	H	1.319092	-0.205832	0.405622
H83	H	1.372025	-0.303505	0.356310
C84	C	1.011453	0.252815	0.995380
C85	C	1.104916	0.279517	1.052705
H86	H	0.962189	0.301163	1.020394
H87	H	1.017234	0.247149	0.918219
H88	H	0.991543	0.192031	1.008667
H89	H	1.124829	0.340298	1.039411
H90	H	1.099136	0.285194	1.129884
C91	C	1.376665	0.131164	0.546625
C92	C	1.274385	0.113129	0.554649
H93	H	1.391505	0.116579	0.470879
H94	H	1.390605	0.197807	0.577669
H95	H	1.417251	0.091323	0.585874
H96	H	1.233800	0.152976	0.515407
H97	H	1.260436	0.046475	0.523591
C98	C	1.420727	-0.030494	0.800773
C99	C	1.380841	0.008656	0.711587
H100	H	1.469981	-0.078851	0.775757
H101	H	1.451297	0.019838	0.856316
H102	H	1.367951	-0.059035	0.830717
H103	H	1.433615	0.037204	0.681647
H104	H	1.350271	-0.041684	0.656024
H105	H	1.388983	0.000673	0.908453
C106	C	1.293510	-0.024023	1.178714
C107	C	1.363752	0.025464	1.132257
H108	H	1.327925	-0.057802	1.229440
H109	H	1.247158	0.021485	1.216636
H110	H	1.257823	-0.069326	1.121571
H111	H	1.399434	0.070772	1.189400
H112	H	1.410122	-0.020049	1.094335
H113	H	0.727834	0.141639	0.037851
H114	H	0.915503	0.156716	0.095567
