data_functionalizedCrystal
_audit_creation_method	'MofGen! by Chris Wilmer'
_symmetry_space_group_name_H-M	'P1'
_symmetry_Int_Tables_number	1
_symmetry_cell_setting	triclinic
loop_
_symmetry_equiv_pos_as_xyz
  x,y,z
_cell_length_a	21.295420
_cell_length_b	21.295417
_cell_length_c	18.215399
_cell_angle_alpha	89.967848
_cell_angle_beta	89.980259
_cell_angle_gamma	90.026289
loop_
_atom_site_label
_atom_site_type_symbol
_atom_site_fract_x
_atom_site_fract_y
_atom_site_fract_z
Zn1	Zn	0.962325	-0.250687	-0.416093
Zn2	Zn	0.962237	-0.355958	-0.293017
Zn3	Zn	0.857057	-0.250699	-0.293040
Zn4	Zn	0.857018	-0.355914	-0.416042
O5	O	0.909659	-0.303314	-0.354548
O6	O	1.050403	-0.264664	-0.399778
O7	O	0.948264	-0.342018	-0.190036
O8	O	0.871075	-0.162608	-0.309394
O9	O	1.050338	-0.342006	-0.309355
O10	O	0.948415	-0.162599	-0.399800
O11	O	0.870989	-0.264685	-0.190053
O12	O	0.768963	-0.264642	-0.309345
O13	O	0.871008	-0.341932	-0.519033
O14	O	0.768934	-0.341944	-0.399714
O15	O	0.948377	-0.264622	-0.519070
O16	O	0.948225	-0.444041	-0.309306
O17	O	0.870922	-0.444009	-0.399692
C18	C	0.746108	-0.303290	-0.354527
C19	C	0.676140	-0.303295	-0.354536
C20	C	0.176715	-0.263137	-0.401719
C21	C	0.242457	-0.263132	-0.401719
C22	C	0.275300	-0.303333	-0.354565
C23	C	0.242395	-0.343553	-0.307421
C24	C	0.176654	-0.343561	-0.307428
N25	N	0.378495	-0.308079	-0.290125
N26	N	0.440946	-0.308068	-0.290121
C27	C	0.473375	-0.303313	-0.354543
N28	N	0.440993	-0.298557	-0.418972
N29	N	0.378536	-0.298565	-0.418975
C30	C	0.346585	-0.303329	-0.354553
C31	C	0.577558	-0.263093	-0.401688
C32	C	0.643301	-0.263093	-0.401689
C33	C	0.643238	-0.343511	-0.307385
C34	C	0.577495	-0.343514	-0.307391
C35	C	0.544659	-0.303302	-0.354541
C36	C	0.909577	-0.466866	-0.354507
C37	C	0.909599	-0.536834	-0.354514
C38	C	0.949887	-0.569696	-0.307499
C39	C	0.949916	-0.635439	-0.307515
C40	C	0.909647	-0.668316	-0.354540
C41	C	0.869356	-0.635446	-0.401565
C42	C	0.869332	-0.569705	-0.401552
N43	N	0.854579	-0.771578	-0.360143
N44	N	0.854604	-0.834030	-0.360151
C45	C	0.909717	-0.866391	-0.354582
N46	N	0.964807	-0.833942	-0.348991
N47	N	0.964781	-0.771485	-0.348979
C48	C	0.909668	-0.739602	-0.354559
C49	C	0.950040	-0.970539	-0.307582
C50	C	0.950071	-1.036283	-0.307603
C51	C	0.869505	-1.036289	-0.401649
C52	C	0.869480	-0.970546	-0.401631
C53	C	0.909747	-0.937675	-0.354594
C54	C	1.073849	-0.303339	-0.354569
C55	C	1.143818	-0.303349	-0.354578
C56	C	0.909698	-0.303271	-0.546501
C57	C	0.909714	-0.303252	-0.628300
C58	C	0.909759	-0.139124	-0.354605
C59	C	0.909802	-0.069156	-0.354629
C60	C	0.950014	-0.262959	-0.816514
C61	C	0.950022	-0.262941	-0.893373
C62	C	0.869458	-0.343448	-0.893323
C63	C	0.869448	-0.343463	-0.816466
C64	C	0.909730	-0.303219	-0.778064
C65	C	0.909747	-0.303186	-0.931780
C66	C	0.909755	-0.303167	-1.015113
C67	C	0.909721	-0.303238	-0.694725
C68	C	0.909657	-0.303312	-0.163342
C69	C	0.909763	-0.303153	-0.081543
H70	H	0.982676	-0.542935	-0.269200
N71	N	0.993461	-0.219556	-0.775097
H72	H	1.022615	-0.245151	-0.743212
H73	H	1.018939	-0.194061	-0.811171
N74	N	0.825991	-0.386892	-0.775000
H75	H	0.851547	-0.416074	-0.743103
H76	H	0.796836	-0.361267	-0.743161
N77	N	0.993523	-1.071733	-0.256889
H78	H	1.022694	-1.098964	-0.286831
H79	H	1.018983	-1.040892	-0.227099
N80	N	0.277810	-0.386914	-0.256559
H81	H	0.305090	-0.416112	-0.286401
H82	H	0.305044	-0.361246	-0.222514
N83	N	0.141299	-0.219760	-0.452563
H84	H	0.172119	-0.194282	-0.482424
H85	H	0.114022	-0.245414	-0.486575
H86	H	0.269248	-0.230384	-0.440105
N87	N	0.993465	-0.219511	-0.934846
H88	H	1.018977	-0.194019	-0.898853
H89	H	1.022586	-0.245125	-0.966737
H90	H	0.149869	-0.376308	-0.269040
N91	N	0.542136	-0.219727	-0.452542
H92	H	0.572955	-0.194255	-0.482411
H93	H	0.514860	-0.245390	-0.486545
N94	N	0.678787	-0.219724	-0.452541
H95	H	0.648007	-0.194252	-0.482409
H96	H	0.706066	-0.190560	-0.422643
N97	N	0.826075	-1.071740	-0.452376
H98	H	0.832204	-1.118374	-0.445252
H99	H	0.781118	-1.060294	-0.440872
H100	H	0.836524	-0.542948	-0.439839
N101	N	0.993469	-0.935080	-0.256853
H102	H	1.019000	-0.965876	-0.227074
H103	H	1.022574	-0.907757	-0.286834
N104	N	0.678651	-0.386877	-0.256531
H105	H	0.725290	-0.380772	-0.263681
H106	H	0.667145	-0.377026	-0.203992
N107	N	0.542005	-0.386879	-0.256540
H108	H	0.553434	-0.431867	-0.267871
H109	H	0.553444	-0.376989	-0.203998
N110	N	0.993372	-0.670894	-0.256805
H111	H	1.018877	-0.640095	-0.227006
H112	H	0.967770	-0.698212	-0.222729
N113	N	0.825924	-0.670902	-0.452287
H114	H	0.832050	-0.717536	-0.445159
H115	H	0.780968	-0.659453	-0.440783
N116	N	0.826022	-0.935097	-0.452336
H117	H	0.800514	-0.965898	-0.482128
H118	H	0.796897	-0.907864	-0.422340
H119	H	0.836663	-0.376214	-0.924600
