data_functionalizedCrystal
_audit_creation_method	'MofGen! by Chris Wilmer'
_symmetry_space_group_name_H-M	'P1'
_symmetry_Int_Tables_number	1
_symmetry_cell_setting	triclinic
loop_
_symmetry_equiv_pos_as_xyz
  x,y,z
_cell_length_a	16.120490
_cell_length_b	16.120484
_cell_length_c	13.897441
_cell_angle_alpha	92.865635
_cell_angle_beta	87.082329
_cell_angle_gamma	90.164100
loop_
_atom_site_label
_atom_site_type_symbol
_atom_site_fract_x
_atom_site_fract_y
_atom_site_fract_z
Zn1	Zn	1.254497	-0.395643	-0.642066
Zn2	Zn	1.247335	-0.534710	-0.488495
Zn3	Zn	1.115431	-0.388611	-0.472224
Zn4	Zn	1.108349	-0.527588	-0.641187
O5	O	1.181403	-0.461638	-0.560993
O6	O	1.369913	-0.420014	-0.628872
O7	O	1.229804	-0.515368	-0.351355
O8	O	1.139839	-0.273181	-0.488312
O9	O	1.364651	-0.522186	-0.516044
O10	O	1.242011	-0.278348	-0.613094
O11	O	1.132894	-0.408029	-0.339401
O12	O	0.998125	-0.401123	-0.487460
O13	O	1.127770	-0.510047	-0.776285
O14	O	0.992923	-0.503229	-0.611596
O15	O	1.235144	-0.413108	-0.776931
O16	O	1.222937	-0.650128	-0.515192
O17	O	1.120825	-0.644895	-0.627374
C18	C	0.965352	-0.450641	-0.547667
C19	C	0.872923	-0.445956	-0.541991
C20	C	0.659955	-0.485932	-0.590440
C21	C	0.703699	-0.437411	-0.531626
C22	C	0.797864	-0.442167	-0.537395
C23	C	0.565781	-0.481177	-0.584672
C24	C	1.170358	-0.677684	-0.572975
C25	C	1.165709	-0.770114	-0.578139
C26	C	1.157226	-0.939344	-0.587585
C27	C	1.205729	-0.983100	-0.534426
C28	C	1.201009	-1.077265	-0.539682
C29	C	1.161945	-0.845170	-0.582330
C30	C	1.398298	-0.472679	-0.574371
C31	C	1.490726	-0.477384	-0.580072
C32	C	1.181466	-0.461568	-0.812586
C33	C	1.181492	-0.461538	-0.919799
C34	C	1.192514	-0.244749	-0.548986
C35	C	1.197249	-0.152324	-0.543869
C36	C	1.181518	-0.461482	-1.116093
C37	C	1.181501	-0.461515	-1.006861
C38	C	1.181391	-0.461651	-0.310379
C39	C	1.181538	-0.461455	-0.203162
H40	H	0.693222	-0.531041	-0.645120
C41	C	1.266608	-0.938174	-0.467596
C42	C	1.271297	-0.842642	-0.462356
C43	C	1.332168	-0.797713	-0.395524
C44	C	1.388350	-0.848316	-0.333931
C45	C	1.383663	-0.943854	-0.339169
C46	C	1.322792	-0.988783	-0.406001
H47	H	1.229705	-0.805178	-0.507953
H48	H	1.335637	-0.726989	-0.391647
H49	H	1.433411	-0.815056	-0.284458
H50	H	1.425255	-0.981318	-0.293572
H51	H	1.319323	-1.059507	-0.409878
C52	C	0.658765	-0.376471	-0.457737
C53	C	0.602363	-0.308269	-0.492434
C54	C	0.557426	-0.247335	-0.418544
C55	C	0.568893	-0.254604	-0.309957
C56	C	0.625298	-0.322809	-0.275256
C57	C	0.670234	-0.383743	-0.349146
H58	H	0.593872	-0.302885	-0.572820
H59	H	0.515671	-0.196845	-0.444233
H60	H	0.535628	-0.209497	-0.255260
H61	H	0.633788	-0.328192	-0.194869
H62	H	0.711989	-0.434233	-0.323457
C63	C	1.096339	-0.984268	-0.654394
C64	C	1.091646	-1.079800	-0.659616
C65	C	1.030759	-1.124736	-0.726422
C66	C	0.974563	-1.074140	-0.788006
C67	C	0.979254	-0.978602	-0.782787
C68	C	1.040141	-0.933666	-0.715981
H69	H	1.133247	-1.117260	-0.614025
H70	H	1.027287	-1.195460	-0.730285
H71	H	0.929491	-1.107405	-0.837460
H72	H	0.937653	-0.941143	-0.828378
H73	H	1.043613	-0.862943	-0.712118
