data_functionalizedCrystal
_audit_creation_method	'MofGen! by Chris Wilmer'
_symmetry_space_group_name_H-M	'P1'
_symmetry_Int_Tables_number	1
_symmetry_cell_setting	triclinic
loop_
_symmetry_equiv_pos_as_xyz
  x,y,z
_cell_length_a	10.489746
_cell_length_b	10.489741
_cell_length_c	12.996460
_cell_angle_alpha	89.994152
_cell_angle_beta	89.997358
_cell_angle_gamma	84.540238
loop_
_atom_site_label
_atom_site_type_symbol
_atom_site_fract_x
_atom_site_fract_y
_atom_site_fract_z
O1	O	1.694052	0.180002	-0.085497
O2	O	1.322857	0.196888	-0.085514
O3	O	1.516901	0.002847	-0.085499
O4	O	1.500008	0.374043	-0.085512
O5	O	1.516880	0.002836	0.085635
O6	O	1.322836	0.196877	0.085620
O7	O	1.694031	0.179991	0.085637
Cu8	Cu	1.508432	0.188433	0.101254
Cu9	Cu	1.508456	0.188446	-0.101132
O10	O	1.499987	0.374032	0.085622
C11	C	1.275315	0.195606	0.000051
C12	C	1.133686	0.191786	0.000044
C13	C	0.980828	0.066062	0.000063
C14	C	1.058212	0.128913	0.084436
C15	C	1.058187	0.128954	-0.084289
C16	C	0.958720	0.247895	0.084512
C17	C	0.958691	0.247918	-0.084288
C18	C	1.036025	0.310856	0.000105
C19	C	1.515614	-0.044690	0.000067
C20	C	1.511797	-0.186320	0.000065
C21	C	1.388333	-0.254462	0.000052
C22	C	1.446646	-0.346589	0.084432
C23	C	1.446696	-0.346553	-0.084292
C24	C	1.570161	-0.276581	0.084515
C25	C	1.570194	-0.276535	-0.084285
C26	C	1.628597	-0.368635	0.000116
C27	C	1.741573	0.181273	0.000070
C28	C	1.883202	0.185093	0.000069
C29	C	1.501273	0.421569	0.000053
C30	C	1.505091	0.563198	0.000048
N31	N	1.508424	0.188423	0.243601
N32	N	1.508474	0.188446	-0.243479
C33	C	1.508454	0.188447	0.663415
C34	C	1.508442	0.188445	0.546610
C35	C	1.508440	0.188436	0.453512
C36	C	1.508426	0.188432	0.336699
H37	H	0.915432	0.298105	0.155925
H38	H	1.394448	-0.377513	-0.155636
H39	H	0.915199	0.298126	-0.155628
H40	H	1.101680	0.078660	0.155773
O41	O	1.109893	0.068817	-0.169362
C42	C	1.141075	-0.128142	-0.265437
C43	C	1.082433	-0.060176	-0.169069
H44	H	1.118919	-0.232451	-0.265221
H45	H	1.098562	-0.078533	-0.337380
H46	H	1.249250	-0.123770	-0.265016
H47	H	0.974260	-0.064528	-0.169390
H48	H	1.125047	-0.109804	-0.097169
H49	H	1.286821	-0.204813	0.000132
O50	O	1.384197	-0.383741	0.169423
C51	C	1.206560	-0.488457	0.235553
C52	C	1.277187	-0.446490	0.139222
H53	H	1.120012	-0.539174	0.211170
H54	H	1.274066	-0.556569	0.283239
H55	H	1.173268	-0.400601	0.283575
H56	H	1.310485	-0.534269	0.091121
H57	H	1.209634	-0.378334	0.091612
O58	O	0.951386	-0.057429	0.000346
C59	C	0.968945	-0.259702	0.089596
C60	C	1.002354	-0.119876	0.089410
H61	H	1.010160	-0.310239	0.161586
H62	H	0.860457	-0.261533	0.088932
H63	H	1.011563	-0.310876	0.018356
H64	H	0.959820	-0.068618	0.160639
H65	H	1.110852	-0.118138	0.090021
H66	H	1.622348	-0.245752	0.155933
H67	H	1.060501	0.414436	0.000148
O68	O	1.632288	-0.239517	-0.169491
C69	C	1.637468	-0.232867	-0.354765
C70	C	1.567018	-0.274839	-0.258346
H71	H	1.584741	-0.261432	-0.426629
H72	H	1.640552	-0.124532	-0.353603
H73	H	1.739333	-0.281648	-0.355438
H74	H	1.465123	-0.226148	-0.257611
H75	H	1.564038	-0.383184	-0.259545
H76	H	1.730200	-0.418057	0.000168
