data_functionalizedCrystal
_audit_creation_method	'MofGen! by Chris Wilmer'
_symmetry_space_group_name_H-M	'P1'
_symmetry_Int_Tables_number	1
_symmetry_cell_setting	triclinic
loop_
_symmetry_equiv_pos_as_xyz
  x,y,z
_cell_length_a	11.169417
_cell_length_b	11.169409
_cell_length_c	17.077402
_cell_angle_alpha	90.037934
_cell_angle_beta	89.976238
_cell_angle_gamma	89.979436
loop_
_atom_site_label
_atom_site_type_symbol
_atom_site_fract_x
_atom_site_fract_y
_atom_site_fract_z
Zn1	Zn	1.834866	-0.678496	0.312427
Zn2	Zn	1.834709	-0.477793	0.443720
Zn3	Zn	1.634150	-0.477830	0.312474
Zn4	Zn	1.634116	-0.678438	0.443656
O5	O	1.734460	-0.578139	0.378069
O6	O	2.002795	-0.651881	0.329850
O7	O	1.808053	-0.309848	0.426357
O8	O	1.660855	-0.504489	0.202621
O9	O	2.002680	-0.504425	0.426311
O10	O	1.808321	-0.651917	0.202586
O11	O	1.660703	-0.309875	0.329931
O12	O	1.466196	-0.504432	0.329869
O13	O	1.660798	-0.846395	0.426202
O14	O	1.466171	-0.651818	0.426248
O15	O	1.808288	-0.846438	0.329788
O16	O	1.808020	-0.504369	0.553559
O17	O	1.660645	-0.651782	0.553512
C18	C	1.422636	-0.578123	0.378057
C19	C	1.289236	-0.578145	0.378071
C20	C	1.734557	-0.891182	0.377982
C21	C	1.734598	-1.024582	0.377945
C22	C	2.047503	-0.578155	0.378082
C23	C	2.180903	-0.578162	0.378087
C24	C	1.734345	-0.578091	0.582017
C25	C	1.734405	-0.578111	0.669267
C26	C	1.734434	-0.266314	0.378099
C27	C	1.734625	-0.132915	0.377915
C28	C	1.734609	-0.578213	0.173325
C29	C	1.734673	-0.578245	0.086075
C30	C	1.811221	-0.501435	0.710256
C31	C	1.811280	-0.501466	0.792236
C32	C	1.734515	-0.578167	0.833226
C33	C	1.657695	-0.654851	0.792232
C34	C	1.657643	-0.654825	0.710253
C35	C	1.657806	-0.654896	0.963102
C36	C	1.657856	-0.654920	1.045087
C37	C	1.811443	-0.501537	1.045085
C38	C	1.811391	-0.501511	0.963106
C39	C	1.734569	-0.578194	0.922117
H40	H	1.873831	-0.439028	0.825605
O41	O	1.583463	-0.729489	1.084996
C42	C	1.567327	-0.891573	1.177448
C43	C	1.651710	-0.807183	1.132313
H44	H	1.622472	-0.954426	1.215702
H45	H	1.504641	-0.836494	1.215946
H46	H	1.512388	-0.946331	1.134062
H47	H	1.706727	-0.752407	1.175643
H48	H	1.714317	-0.862331	1.093804
H49	H	1.873893	-0.439050	0.929732
H50	H	1.873998	-0.439103	1.078462
O51	O	1.885902	-0.426885	0.670562
C52	C	2.038193	-0.274702	0.679222
C53	C	1.953695	-0.359089	0.724269
H54	H	2.093007	-0.219849	0.722625
H55	H	2.100979	-0.329784	0.640797
H56	H	1.983078	-0.211938	0.640888
H57	H	2.008714	-0.421870	0.762647
H58	H	1.890906	-0.303932	0.762645
H59	H	1.595254	-0.717344	0.929732
H60	H	1.595197	-0.717307	0.825613
O61	O	1.582914	-0.729350	0.670556
C62	C	1.430649	-0.881553	0.679204
C63	C	1.515191	-0.797185	0.724257
H64	H	1.375891	-0.936438	0.722602
H65	H	1.367813	-0.826454	0.640906
H66	H	1.485726	-0.944289	0.640742
H67	H	1.460211	-0.734432	0.762763
H68	H	1.578030	-0.852359	0.762506
