data_functionalizedCrystal
_audit_creation_method	'MofGen! by Chris Wilmer'
_symmetry_space_group_name_H-M	'P1'
_symmetry_Int_Tables_number	1
_symmetry_cell_setting	triclinic
loop_
_symmetry_equiv_pos_as_xyz
  x,y,z
_cell_length_a	12.759401
_cell_length_b	10.686285
_cell_length_c	12.759393
_cell_angle_alpha	94.398003
_cell_angle_beta	90.018496
_cell_angle_gamma	85.631983
loop_
_atom_site_label
_atom_site_type_symbol
_atom_site_fract_x
_atom_site_fract_y
_atom_site_fract_z
Zn1	Zn	1.638392	-0.502271	0.561964
Zn2	Zn	1.651790	-0.713314	0.372831
Zn3	Zn	1.462698	-0.502337	0.386299
Zn4	Zn	1.476180	-0.713217	0.548479
O5	O	1.557265	-0.607785	0.467393
O6	O	1.787191	-0.530279	0.536882
O7	O	1.626671	-0.685396	0.227592
O8	O	1.474756	-0.325751	0.420881
O9	O	1.797034	-0.685332	0.397927
O10	O	1.603837	-0.325703	0.549942
O11	O	1.487747	-0.530392	0.237487
O12	O	1.317465	-0.530298	0.407805
O13	O	1.497733	-0.685167	0.697293
O14	O	1.327370	-0.685231	0.526958
O15	O	1.616910	-0.530185	0.707200
O16	O	1.639744	-0.889878	0.384851
O17	O	1.510724	-0.889807	0.513898
C18	C	1.284296	-0.607762	0.467380
C19	C	1.167521	-0.607782	0.467398
C20	C	1.117852	-0.688585	0.529321
C21	C	1.008129	-0.688601	0.529332
C22	C	0.997753	-0.527008	0.405486
C23	C	1.107474	-0.526986	0.405482
C24	C	1.123842	-0.781883	0.600819
C25	C	1.014119	-0.781899	0.600829
C26	C	1.578179	-0.935627	0.446473
C27	C	1.587222	-1.075879	0.437558
C28	C	1.831300	-0.607809	0.467406
C29	C	1.948077	-0.607819	0.467412
C30	C	1.557331	-0.607658	0.741435
C31	C	1.557358	-0.607603	0.858215
C32	C	1.536298	-0.278662	0.488418
C33	C	1.527363	-0.138410	0.497378
C34	C	1.557255	-0.607821	0.194423
C35	C	1.557407	-0.607519	0.077666
C36	C	1.619422	-0.526897	0.918238
C37	C	1.619445	-0.526851	1.027965
C38	C	1.495336	-0.688230	1.017635
C39	C	1.495309	-0.688268	0.907911
C40	C	1.691079	-0.433730	0.924202
C41	C	1.691101	-0.433684	1.033929
H42	H	1.147909	-0.461181	0.355066
H43	H	1.770592	-0.468762	0.887933
C44	C	1.449980	-1.066666	0.574906
C45	C	1.504610	-0.990912	0.647075
C46	C	1.433362	-0.924807	0.718518
H47	H	1.400928	-1.015228	0.538033
H48	H	1.413654	-1.124658	0.611304
H49	H	1.540919	-0.932926	0.610680
H50	H	1.553658	-1.042318	0.683973
H51	H	1.397036	-0.982799	0.754917
H52	H	1.384313	-0.873376	0.681636
H53	H	1.470419	-0.873409	0.767499
C54	C	1.161237	-0.747303	0.711657
C55	C	1.130155	-0.835436	0.778853
C56	C	1.164571	-0.803613	0.880964
H57	H	1.235683	-0.747310	0.711809
H58	H	1.131200	-0.665925	0.735198
H59	H	1.160196	-0.916793	0.755319
H60	H	1.055714	-0.835442	0.778733
H61	H	1.134534	-0.722235	0.904505
H62	H	1.239017	-0.803620	0.881105
H63	H	1.143479	-0.863399	0.926571
H64	H	0.977889	-0.747016	0.680405
H65	H	0.990575	-0.879603	0.572669
C66	C	1.664793	-1.147788	0.360299
C67	C	1.658689	-1.277268	0.366558
C68	C	1.730157	-1.343549	0.295431
H69	H	1.648205	-1.126499	0.290977
H70	H	1.734011	-1.126218	0.377141
H71	H	1.589487	-1.298829	0.349708
H72	H	1.675288	-1.298594	0.435862
H73	H	1.799375	-1.321979	0.312273
H74	H	1.713562	-1.322250	0.226115
H75	H	1.726032	-1.431408	0.299675
H76	H	1.444767	-0.753982	0.859044
C77	C	1.428090	-0.775765	1.071786
C78	C	1.441414	-0.758480	1.180725
C79	C	1.379495	-0.839111	1.230638
H80	H	1.356281	-0.757379	1.055101
H81	H	1.448876	-0.860582	1.048442
H82	H	1.420621	-0.673682	1.204060
H83	H	1.513209	-0.776874	1.197440
H84	H	1.400281	-0.923928	1.207294
H85	H	1.307690	-0.820718	1.213945
H86	H	1.388534	-0.827402	1.304557
C87	C	1.176928	-0.905711	0.553904
C88	C	1.100253	-0.987762	0.522818
C89	C	1.149117	-1.101847	0.479605
H90	H	1.217841	-0.890793	0.494581
H91	H	1.221164	-0.942373	0.605014
H92	H	1.056035	-0.951107	0.471712
H93	H	1.059335	-1.002717	0.582122
H94	H	1.193354	-1.138509	0.530715
H95	H	1.190029	-1.086915	0.420286
H96	H	1.097101	-1.157536	0.458517
C97	C	1.653634	-0.303371	0.893031
C98	C	1.630757	-0.223591	0.983659
C99	C	1.596246	-0.103504	0.954985
H100	H	1.707181	-0.270757	0.853783
H101	H	1.592178	-0.308642	0.851361
H102	H	1.692206	-0.218315	1.025312
H103	H	1.577204	-0.256164	1.022918
H104	H	1.534790	-0.108776	0.913315
H105	H	1.649797	-0.070903	0.915736
H106	H	1.580711	-0.049362	1.016471
C107	C	1.801804	-0.468845	1.071353
C108	C	1.835960	-0.588922	1.027000
C109	C	1.937922	-0.621358	1.061465
H110	H	1.847758	-0.409377	1.050370
H111	H	1.801840	-0.468884	1.145810
H112	H	1.835931	-0.588873	0.952559
H113	H	1.790035	-0.648417	1.047978
H114	H	1.937958	-0.621398	1.135922
H115	H	1.983867	-0.561883	1.040480
H116	H	1.961106	-0.702837	1.031385
C117	C	0.932738	-0.439158	0.338230
C118	C	0.999723	-0.368369	0.284018
C119	C	0.939871	-0.287417	0.222060
H120	H	0.892983	-0.487227	0.289230
H121	H	0.886462	-0.384175	0.381986
H122	H	1.045980	-0.423346	0.240266
H123	H	1.039479	-0.320275	0.332992
H124	H	0.893595	-0.232434	0.265815
H125	H	0.900118	-0.335496	0.173066
H126	H	0.985310	-0.239369	0.185277
H127	H	1.656047	-0.340834	1.073896
