data_functionalizedCrystal
_audit_creation_method	'MofGen! by Chris Wilmer'
_symmetry_space_group_name_H-M	'P1'
_symmetry_Int_Tables_number	1
_symmetry_cell_setting	triclinic
loop_
_symmetry_equiv_pos_as_xyz
  x,y,z
_cell_length_a	15.995350
_cell_length_b	19.288865
_cell_length_c	17.766277
_cell_angle_alpha	90.011603
_cell_angle_beta	90.005713
_cell_angle_gamma	83.314311
loop_
_atom_site_label
_atom_site_type_symbol
_atom_site_fract_x
_atom_site_fract_y
_atom_site_fract_z
O1	O	-1.110654	-0.089532	-0.062539
O2	O	-0.866837	-0.100588	-0.062556
O3	O	-0.995790	0.006052	-0.062532
O4	O	-0.981700	-0.196172	-0.062563
O5	O	-0.995768	0.006058	0.062656
O6	O	-0.866814	-0.100582	0.062633
O7	O	-1.110631	-0.089526	0.062649
Cu8	Cu	-0.988720	-0.095054	0.074072
Cu9	Cu	-0.988747	-0.095060	-0.073978
O10	O	-0.981677	-0.196166	0.062626
C11	C	-0.835632	-0.100128	0.000036
C12	C	-0.742687	-0.098757	0.000031
C13	C	-0.995326	0.031933	0.000064
C14	C	-0.993965	0.109040	0.000071
C15	C	-1.141835	-0.089986	0.000055
C16	C	-1.234781	-0.091356	0.000056
C17	C	-0.404958	-0.093836	0.000047
C18	C	-0.452679	-0.017889	0.000338
C19	C	-0.549364	-0.019260	0.000050
C20	C	-0.572509	-0.096277	0.000039
C21	C	-0.531294	-0.133740	-0.071452
C22	C	-0.434665	-0.131832	-0.071506
C23	C	-0.434295	-0.133395	0.070856
C24	C	-0.531240	-0.133377	0.071796
C25	C	-0.667202	-0.097661	0.000033
C26	C	-0.310266	-0.092455	0.000049
C27	C	-0.982142	-0.222047	0.000027
C28	C	-0.983503	-0.299154	0.000016
N29	N	-0.988708	-0.095049	0.178202
C30	C	-1.069629	0.153540	0.000080
C31	C	-1.068350	0.225990	0.000068
C32	C	-0.991403	0.253937	0.000062
C33	C	-0.915729	0.209428	0.000049
C34	C	-0.917010	0.136979	0.000053
C35	C	-0.930906	0.362384	0.043909
C36	C	-0.929628	0.434832	0.043909
C37	C	-0.987450	0.477393	0.000045
C38	C	-1.046563	0.447500	-0.043810
C39	C	-1.047844	0.375051	-0.043805
C40	C	-0.990006	0.332495	0.000057
C41	C	-1.061733	0.600453	0.000040
C42	C	-1.060451	0.672904	0.000023
C43	C	-0.907827	0.656340	0.000012
C44	C	-0.909111	0.583890	0.000021
C45	C	-0.986066	0.555951	0.000038
N46	N	-0.988766	-0.095060	-0.178109
C47	C	-1.045827	-0.047852	0.217599
C48	C	-1.045832	-0.047848	0.296401
C49	C	-0.988725	-0.095054	0.335803
C50	C	-0.931596	-0.142255	0.296396
C51	C	-0.931587	-0.142252	0.217595
C52	C	-0.977516	-0.158313	0.460630
C53	C	-0.977531	-0.158317	0.539429
C54	C	-0.988748	-0.095063	0.578849
C55	C	-0.999968	-0.031802	0.539460
C56	C	-0.999959	-0.031800	0.460660
C57	C	-0.988728	-0.095062	0.421248
C58	C	-1.045875	-0.047858	0.703692
C59	C	-1.045874	-0.047854	0.782495
C60	C	-0.931642	-0.142267	0.782488
C61	C	-0.931639	-0.142265	0.703687
C62	C	-0.988760	-0.095061	0.664293
H63	H	-0.577894	0.010188	0.051299
O64	O	-0.868542	0.316483	0.091230
H65	H	-0.829653	0.279185	0.054245
O66	O	-0.865873	0.467068	0.091208
H67	H	-0.899156	0.503754	0.132404
H68	H	-0.885142	-0.180700	0.814568
H69	H	-0.545206	-0.190323	-0.074118
O70	O	-1.144730	0.570312	0.000050
H71	H	-1.148966	0.537683	-0.050969
O72	O	-0.428285	0.022332	0.068249
H73	H	-0.381883	-0.011373	0.102519
O74	O	-0.870042	-0.193178	0.661185
H75	H	-0.830337	-0.226008	0.701820
O76	O	-1.142063	0.720907	0.000039
H77	H	-1.195786	0.689304	0.000061
O78	O	-0.407211	-0.100502	0.142636
H79	H	-0.428643	-0.129330	0.191725
H80	H	-0.968367	-0.209825	0.428542
O81	O	-0.426886	0.022147	-0.067179
H82	H	-0.380229	-0.011812	-0.100944
H83	H	-0.885073	-0.180686	0.185517
O84	O	-0.965447	-0.226543	0.581912
H85	H	-0.957634	-0.270526	0.541265
H86	H	-0.559776	-0.107725	-0.124650
O87	O	-0.586436	0.019996	-0.067942
H88	H	-0.535296	0.040028	-0.100750
H89	H	-0.885098	-0.180689	0.328480
H90	H	-1.009093	0.019709	0.428592
O91	O	-0.567543	-0.097159	0.141860
H92	H	-0.614784	-0.052920	0.125653
H93	H	-1.129967	0.262229	0.000072
O94	O	-0.551311	-0.207772	0.077517
H95	H	-0.591185	-0.219521	0.029086
O96	O	-0.391934	-0.207563	0.071496
H97	H	-0.409127	-0.234738	0.019655
O98	O	-0.410554	-0.095638	-0.142274
H99	H	-0.467884	-0.079657	-0.176135
O100	O	-0.391672	-0.205691	-0.075822
H101	H	-0.351320	-0.216838	-0.025431
O102	O	-1.012087	0.036432	0.581957
H103	H	-0.961034	0.068234	0.566842
H104	H	-1.132291	0.130797	0.000091
H105	H	-1.095974	0.350715	-0.079515
H106	H	-1.093646	0.482153	-0.079528
O107	O	-0.824830	0.686471	0.000009
H108	H	-0.836650	0.744326	0.000012
H109	H	-0.847497	0.547657	0.000018
H110	H	-0.853078	0.232187	0.000042
H111	H	-1.092336	-0.009414	0.185528
O112	O	-0.835398	0.088975	0.000057
H113	H	-0.781674	0.120577	0.000056
O114	O	-1.107449	0.003051	0.338909
H115	H	-1.147171	0.035870	0.298278
O116	O	-1.107469	0.003059	0.661194
H117	H	-1.147180	0.035888	0.701832
H118	H	-1.092385	-0.009417	0.814573
