data_functionalizedCrystal
_audit_creation_method	'MofGen! by Chris Wilmer'
_symmetry_space_group_name_H-M	'P1'
_symmetry_Int_Tables_number	1
_symmetry_cell_setting	triclinic
loop_
_symmetry_equiv_pos_as_xyz
  x,y,z
_cell_length_a	14.908783
_cell_length_b	16.959453
_cell_length_c	14.908308
_cell_angle_alpha	93.265363
_cell_angle_beta	89.788727
_cell_angle_gamma	93.310818
loop_
_atom_site_label
_atom_site_type_symbol
_atom_site_fract_x
_atom_site_fract_y
_atom_site_fract_z
Zn1	Zn	1.345317	-0.276462	-0.587824
Zn2	Zn	1.845317	0.223538	-0.087824
Zn3	Zn	1.353899	-0.400618	-0.437461
Zn4	Zn	1.853899	0.099382	0.062539
Zn5	Zn	1.203631	-0.275607	-0.428795
Zn6	Zn	1.703631	0.224393	0.071205
Zn7	Zn	1.194925	-0.415754	-0.579083
Zn8	Zn	1.694925	0.084246	-0.079083
O9	O	1.274443	-0.342110	-0.508291
O10	O	1.774443	0.157890	-0.008291
O11	O	1.472283	-0.286955	-0.575163
O12	O	1.972283	0.213045	-0.075163
O13	O	1.341201	-0.377343	-0.310489
O14	O	1.841201	0.122657	0.189511
O15	O	1.222478	-0.165108	-0.449922
O16	O	1.722478	0.334892	0.050078
O17	O	1.478588	-0.378172	-0.464692
O18	O	1.978588	0.121828	0.035308
O19	O	1.326574	-0.165737	-0.566760
O20	O	1.826574	0.334263	-0.066760
O21	O	1.230799	-0.285498	-0.304122
O22	O	1.730799	0.214502	0.195878
O23	O	1.076648	-0.300174	-0.441446
O24	O	1.576648	0.199826	0.058554
O25	O	1.207640	-0.403969	-0.706065
O26	O	1.707640	0.096031	-0.206065
O27	O	1.070252	-0.403140	-0.551862
O28	O	1.570252	0.096860	-0.051862
O29	O	1.318133	-0.301632	-0.712487
O30	O	1.818133	0.198368	-0.212487
O31	O	1.332759	-0.513238	-0.456216
O32	O	1.832759	-0.013238	0.043784
O33	O	1.215961	-0.524358	-0.560265
O34	O	1.715961	-0.024358	-0.060265
C35	C	1.040824	-0.353207	-0.494766
C36	C	1.540824	0.146793	0.005234
C37	C	0.940880	-0.357974	-0.489001
C38	C	1.440880	0.142026	0.010999
C39	C	0.746496	-0.272096	-0.593377
C40	C	1.246496	0.227904	-0.093377
C41	C	0.652590	-0.276573	-0.587963
C42	C	1.152590	0.223427	-0.087963
C43	C	0.659158	-0.371400	-0.472756
C44	C	1.159158	0.128600	0.027244
C45	C	0.753065	-0.366923	-0.478170
C46	C	1.253065	0.133077	0.021830
C47	C	0.796731	-0.317271	-0.538483
C48	C	1.296731	0.182729	-0.038483
C49	C	0.890639	-0.312798	-0.543901
C50	C	1.390639	0.187202	-0.043901
C51	C	0.897206	-0.407621	-0.428689
C52	C	1.397206	0.092379	0.071311
C53	C	0.803299	-0.412097	-0.423276
C54	C	1.303299	0.087903	0.076724
C55	C	1.274370	-0.547478	-0.508254
C56	C	1.774370	-0.047478	-0.008254
C57	C	1.274419	-0.635333	-0.508272
C58	C	1.774419	-0.135333	-0.008272
C59	C	1.328713	-1.007080	-0.569241
C60	C	1.828713	-0.507080	-0.069241
C61	C	1.220416	-1.006533	-0.447489
C62	C	1.720416	-0.506533	0.052511
C63	C	1.220384	-0.923988	-0.447466
C64	C	1.720384	-0.423988	0.052534
C65	C	1.274516	-0.882985	-0.508333
C66	C	1.774516	-0.382985	-0.008333
C67	C	1.328681	-0.924527	-0.569222
C68	C	1.828681	-0.424527	-0.069222
C69	C	1.166213	-0.882440	-0.386584
C70	C	1.666213	-0.382440	0.113416
C71	C	1.166178	-0.799889	-0.386560
C72	C	1.666178	-0.299889	0.113440
C73	C	1.220316	-0.758884	-0.447423
C74	C	1.720316	-0.258884	0.052577
C75	C	1.274484	-0.800432	-0.508314
C76	C	1.774484	-0.300432	-0.008314
C77	C	1.328616	-0.759429	-0.569181
C78	C	1.828616	-0.259429	-0.069181
C79	C	1.382789	-0.800974	-0.630068
C80	C	1.882789	-0.300974	-0.130068
C81	C	1.382819	-0.883522	-0.630085
C82	C	1.882819	-0.383522	-0.130085
C83	C	1.220287	-0.676336	-0.447406
C84	C	1.720287	-0.176336	0.052594
C85	C	1.328584	-0.676876	-0.569162
C86	C	1.828584	-0.176876	-0.069162
C87	C	1.508974	-0.330971	-0.521869
C88	C	2.008974	0.169029	-0.021869
C89	C	1.608917	-0.326224	-0.527656
C90	C	2.108917	0.173776	-0.027656
C91	C	1.260958	-0.354584	-0.742813
C92	C	1.760958	0.145416	-0.242813
C93	C	1.255211	-0.359900	-0.842753
C94	C	1.755211	0.140100	-0.342753
C95	C	1.274540	-0.135940	-0.508349
C96	C	1.774540	0.364060	-0.008349
C97	C	1.274581	-0.048083	-0.508374
C98	C	1.774581	0.451917	-0.008374
C99	C	1.359466	-0.263306	-1.037238
C100	C	1.859466	0.236694	-0.537238
C101	C	1.354070	-0.268298	-1.131140
C102	C	1.854070	0.231702	-0.631140
C103	C	1.239017	-0.374870	-1.124461
C104	C	1.739017	0.125130	-0.624461
C105	C	1.244414	-0.369879	-1.030558
C106	C	1.744414	0.130121	-0.530558
C107	C	1.304641	-0.314096	-0.986951
C108	C	1.804641	0.185904	-0.486951
C109	C	1.310042	-0.309108	-0.893047
C110	C	1.810042	0.190892	-0.393047
C111	C	1.194986	-0.415676	-0.886369
C112	C	1.694986	0.084324	-0.386369
C113	C	1.189589	-0.420668	-0.980271
C114	C	1.689589	0.079332	-0.480271
C115	C	1.287927	-0.329626	-0.274684
C116	C	1.787927	0.170374	0.225316
C117	C	1.293848	-0.324079	-0.174755
C118	C	1.793848	0.175921	0.325245
H119	H	0.767734	-0.452521	-0.374168
H120	H	1.267734	0.047479	0.125832
H121	H	1.189983	-0.420286	-1.159982
H122	H	1.689983	0.079714	-0.659982
C123	C	1.414384	-0.212428	-1.186454
C124	C	1.914384	0.287572	-0.686454
N125	N	1.459815	-0.170344	-1.228116
N126	N	1.959815	0.329656	-0.728116
C127	C	1.425720	-0.201949	-0.989268
C128	C	1.925720	0.298051	-0.489268
N129	N	1.475623	-0.155733	-0.953138
N130	N	1.975623	0.344267	-0.453138
H131	H	0.938116	-0.444412	-0.383997
H132	H	1.438116	0.055588	0.116003
C133	C	1.123336	-0.482021	-1.028250
C134	C	1.623336	0.017979	-0.528250
N135	N	1.073432	-0.528232	-1.064386
N136	N	1.573432	-0.028232	-0.564386
C137	C	1.388139	-0.631779	-0.636118
C138	C	1.888139	-0.131779	-0.136118
N139	N	1.432996	-0.597812	-0.686550
N140	N	1.932996	-0.097812	-0.186550
H141	H	1.359083	-0.263688	-0.857543
H142	H	1.859083	0.236312	-0.357543
H143	H	1.426860	-0.767580	-0.679630
H144	H	1.926860	-0.267580	-0.179630
H145	H	1.122139	-0.915831	-0.337032
H146	H	1.622139	-0.415831	0.162968
H147	H	1.150346	-0.457035	-0.845414
H148	H	1.650346	0.042965	-0.345414
H149	H	1.372822	-1.040909	-0.618812
H150	H	1.872822	-0.540909	-0.118812
C151	C	1.442398	-0.929228	-0.697060
C152	C	1.942398	-0.429228	-0.197060
N153	N	1.487271	-0.963658	-0.747508
N154	N	1.987271	-0.463658	-0.247508
H155	H	0.611692	-0.239785	-0.632661
H156	H	1.111692	0.260215	-0.132661
C157	C	1.160947	-1.051632	-0.380473
C158	C	1.660947	-0.551632	0.119527
N159	N	1.116183	-1.085601	-0.329969
N160	N	1.616183	-0.585601	0.170031
H161	H	1.122069	-0.766068	-0.336981
H162	H	1.622069	-0.266068	0.163019
H163	H	0.926190	-0.272370	-0.593012
H164	H	1.426190	0.227630	-0.093012
C165	C	0.794530	-0.217483	-0.659725
C166	C	1.294530	0.282517	-0.159725
N167	N	0.830708	-0.176346	-0.709700
N168	N	1.330708	0.323654	-0.209700
C169	C	1.160702	-0.630640	-0.380432
C170	C	1.660702	-0.130640	0.119568
N171	N	1.115822	-0.596222	-0.329982
N172	N	1.615822	-0.096222	0.170018
C173	C	0.611110	-0.426007	-0.406409
C174	C	1.111110	0.073993	0.093591
N175	N	0.574919	-0.467136	-0.356436
N176	N	1.074919	0.032864	0.143564
