data_functionalizedCrystal
_audit_creation_method	'MofGen! by Chris Wilmer'
_symmetry_space_group_name_H-M	'P1'
_symmetry_Int_Tables_number	1
_symmetry_cell_setting	triclinic
loop_
_symmetry_equiv_pos_as_xyz
  x,y,z
_cell_length_a	10.654550
_cell_length_b	14.519709
_cell_length_c	9.730223
_cell_angle_alpha	89.994652
_cell_angle_beta	89.999957
_cell_angle_gamma	84.082538
loop_
_atom_site_label
_atom_site_type_symbol
_atom_site_fract_x
_atom_site_fract_y
_atom_site_fract_z
O1	O	1.666594	0.129532	-0.114191
O2	O	1.300996	0.141873	-0.114216
O3	O	1.493488	0.001514	-0.114190
O4	O	1.474102	0.269891	-0.114216
O5	O	1.493476	0.001511	0.114390
O6	O	1.300984	0.141869	0.114364
O7	O	1.666581	0.129528	0.114389
Zn8	Zn	1.483781	0.135698	0.150669
Zn9	Zn	1.483797	0.135703	-0.150495
O10	O	1.474089	0.269887	0.114363
C11	C	1.254201	0.140965	0.000071
C12	C	1.114784	0.138254	0.000061
C13	C	1.034504	0.220895	0.000057
C14	C	0.903507	0.218342	0.000081
C15	C	0.933084	0.050500	0.000108
C16	C	1.064078	0.053054	0.000094
C17	C	1.492579	-0.032852	0.000100
C18	C	1.489871	-0.135247	0.000100
C19	C	1.479904	-0.510195	0.000064
C20	C	1.482672	-0.405872	0.000075
C21	C	1.484887	-0.322724	0.000083
C22	C	1.487656	-0.218395	0.000091
C23	C	1.713377	0.130436	0.000099
C24	C	1.852794	0.133147	0.000100
C25	C	1.474999	0.304253	0.000070
C26	C	1.477706	0.406649	0.000061
N27	N	1.483779	0.135694	0.356205
N28	N	1.483809	0.135700	-0.356032
C29	C	1.569043	0.073570	0.428142
C30	C	1.569056	0.073570	0.572025
C31	C	1.398535	0.197827	0.572021
C32	C	1.398518	0.197822	0.428140
H33	H	0.891783	-0.018867	0.000143
H34	H	1.075783	0.290270	0.000041
O35	O	1.651936	0.013351	0.642056
C36	C	1.729542	0.063275	0.725238
H37	H	1.679680	0.135099	0.746788
H38	H	1.822359	0.070178	0.669774
C39	C	1.817528	-0.076754	0.835447
C40	C	1.756282	0.011459	0.861924
H41	H	1.834029	-0.108717	0.919759
H42	H	1.765248	-0.110390	0.779402
H43	H	1.894868	-0.070989	0.789223
H44	H	1.678937	0.005693	0.908131
H45	H	1.808551	0.045093	0.917980
H46	H	0.838147	0.285637	0.000081
O47	O	1.141892	-0.027315	0.000035
C48	C	1.069052	-0.103062	0.000089
H49	H	0.971335	-0.080286	-0.043182
H50	H	1.059677	-0.129136	0.109756
C51	C	1.254165	-0.209325	-0.036396
C52	C	1.134151	-0.181352	-0.089553
H53	H	1.294323	-0.257620	-0.091686
H54	H	1.303241	-0.158293	-0.036427
H55	H	1.246336	-0.231047	0.054992
H56	H	1.141983	-0.159620	-0.180933
H57	H	1.085078	-0.232382	-0.089540
H58	H	1.329120	0.248412	0.630605
O59	O	1.315641	0.258263	0.358464
C60	C	1.240378	0.313089	0.452806
H61	H	1.291875	0.314493	0.555362
H62	H	1.147029	0.282504	0.468130
C63	C	1.151449	0.410675	0.270661
C64	C	1.214703	0.412405	0.396619
H65	H	1.135606	0.471936	0.236002
H66	H	1.202151	0.373735	0.207100
H67	H	1.073666	0.385183	0.283448
H68	H	1.292491	0.437885	0.383828
H69	H	1.164013	0.449351	0.460177
O70	O	1.651901	0.013127	0.358476
C71	C	1.727179	-0.041690	0.452831
H72	H	1.675701	-0.043078	0.555401
H73	H	1.820533	-0.011107	0.468112
C74	C	1.816064	-0.139302	0.270722
C75	C	1.752834	-0.141013	0.396698
H76	H	1.831895	-0.200569	0.236096
H77	H	1.765352	-0.102369	0.207152
H78	H	1.893852	-0.113812	0.283474
H79	H	1.675041	-0.166492	0.383941
H80	H	1.803534	-0.177953	0.460265
