data_functionalizedCrystal
_audit_creation_method	'MofGen! by Chris Wilmer'
_symmetry_space_group_name_H-M	'P1'
_symmetry_Int_Tables_number	1
_symmetry_cell_setting	triclinic
loop_
_symmetry_equiv_pos_as_xyz
  x,y,z
_cell_length_a	17.639617
_cell_length_b	29.839131
_cell_length_c	17.640968
_cell_angle_alpha	78.759880
_cell_angle_beta	70.333968
_cell_angle_gamma	101.217837
loop_
_atom_site_label
_atom_site_type_symbol
_atom_site_fract_x
_atom_site_fract_y
_atom_site_fract_z
Zn1	Zn	1.354416	0.059430	-0.721274
Zn2	Zn	1.854416	0.559430	-0.221274
Zn3	Zn	1.326400	-0.034761	-0.583383
Zn4	Zn	1.826400	0.465239	-0.083383
Zn5	Zn	1.188686	0.021352	-0.555526
Zn6	Zn	1.688686	0.521352	-0.055526
Zn7	Zn	1.216489	-0.034717	-0.693266
Zn8	Zn	1.716489	0.465283	-0.193266
O9	O	1.271498	0.002826	-0.638362
O10	O	1.771498	0.502826	-0.138362
O11	O	1.466056	0.062852	-0.726363
O12	O	1.966056	0.562852	-0.226363
O13	O	1.284771	-0.043271	-0.464335
O14	O	1.784771	0.456729	0.035665
O15	O	1.210760	0.089288	-0.577576
O16	O	1.710760	0.589288	-0.077576
O17	O	1.445473	-0.006349	-0.625055
O18	O	1.945473	0.493651	-0.125055
O19	O	1.332521	0.117263	-0.699351
O20	O	1.832521	0.617263	-0.199351
O21	O	1.183593	-0.002045	-0.443869
O22	O	1.683593	0.497955	0.056131
O23	O	1.077018	-0.002003	-0.550417
O24	O	1.577018	0.497997	-0.050417
O25	O	1.258146	-0.006275	-0.812334
O26	O	1.758146	0.493725	-0.312334
O27	O	1.097444	-0.043197	-0.651614
O28	O	1.597444	0.456803	-0.151614
O29	O	1.359480	0.062895	-0.832912
O30	O	1.859480	0.562895	-0.332912
O31	O	1.311730	-0.097640	-0.597896
O32	O	1.811730	0.402360	-0.097896
O33	O	1.230980	-0.097608	-0.678626
O34	O	1.730980	0.402392	-0.178626
C35	C	1.057321	-0.026727	-0.594954
C36	C	1.557321	0.473273	-0.094954
C37	C	0.965699	-0.039378	-0.576403
C38	C	1.465699	0.460622	-0.076403
C39	C	0.717996	0.098972	-0.779494
C40	C	1.217996	0.598972	-0.279494
C41	C	0.631900	0.087071	-0.762046
C42	C	1.131900	0.587071	-0.262046
C43	C	0.610457	0.015086	-0.656402
C44	C	1.110457	0.515086	-0.156402
C45	C	0.696554	0.026980	-0.673844
C46	C	1.196554	0.526980	-0.173844
C47	C	0.750317	0.068924	-0.735390
C48	C	1.250317	0.568924	-0.235390
C49	C	0.728875	-0.003069	-0.629740
C50	C	1.228875	0.496931	-0.129740
C51	C	0.814963	0.008826	-0.647178
C52	C	1.314963	0.508826	-0.147178
C53	C	0.868731	0.050768	-0.708720
C54	C	1.368731	0.550768	-0.208720
C55	C	0.836405	0.080818	-0.752828
C56	C	1.336405	0.580818	-0.252828
C57	C	0.675110	-0.045011	-0.568190
C58	C	1.175110	0.454989	-0.068190
C59	C	0.707431	-0.075060	-0.524087
C60	C	1.207431	0.424940	-0.024087
C61	C	0.793521	-0.063167	-0.541528
C62	C	1.293521	0.436833	-0.041528
C63	C	0.847289	-0.021224	-0.603070
C64	C	1.347289	0.478776	-0.103070
C65	C	0.825847	-0.093217	-0.497420
C66	C	1.325847	0.406783	0.002580
C67	C	0.911936	-0.081322	-0.514857
C68	C	1.411936	0.418678	-0.014857
C69	C	0.933378	-0.009330	-0.620507
C70	C	1.433378	0.490670	-0.120507
C71	C	1.271358	-0.113924	-0.638267
C72	C	1.771358	0.386076	-0.138267
C73	C	1.271379	-0.163855	-0.638270
C74	C	1.771379	0.336145	-0.138270
C75	C	1.334902	-0.458864	-0.701843
C76	C	1.834902	0.041136	-0.201843
C77	C	1.335002	-0.646518	-0.701911
C78	C	1.835002	-0.146518	-0.201911
O79	O	1.388878	-0.658364	-0.755887
O80	O	1.888878	-0.158364	-0.255887
N81	N	1.271656	-0.684584	-0.638482
N82	N	1.771656	-0.184584	-0.138482
C83	C	1.208278	-0.675735	-0.575035
C84	C	1.708278	-0.175735	-0.075035
O85	O	1.154396	-0.712419	-0.521091
O86	O	1.654396	-0.212419	-0.021091
C87	C	1.208176	-0.488082	-0.574971
C88	C	1.708176	0.011918	-0.074971
C89	C	1.271531	-0.450017	-0.638400
C90	C	1.771531	0.049983	-0.138400
C91	C	1.398251	-0.420800	-0.765267
C92	C	1.898251	0.079200	-0.265267
C93	C	1.398228	-0.373890	-0.765247
C94	C	1.898228	0.126110	-0.265247
C95	C	1.334856	-0.365043	-0.701803
C96	C	1.834856	0.134957	-0.201803
C97	C	1.271508	-0.403107	-0.638380
C98	C	1.771508	0.096893	-0.138380
C99	C	1.144795	-0.479234	-0.511528
C100	C	1.644795	0.020766	-0.011528
C101	C	1.144774	-0.432316	-0.511519
C102	C	1.644774	0.067684	-0.011519
C103	C	1.208129	-0.394251	-0.574948
C104	C	1.708129	0.105749	-0.074948
C105	C	1.208113	-0.347349	-0.574916
C106	C	1.708113	0.152651	-0.074916
N107	N	1.271458	-0.309283	-0.638345
N108	N	1.771458	0.190717	-0.138345
C109	C	1.334830	-0.318130	-0.701788
C110	C	1.834830	0.181870	-0.201788
C111	C	1.208337	-0.774255	-0.575072
C112	C	1.708337	-0.274255	-0.075072
C113	C	1.208363	-0.821168	-0.575087
C114	C	1.708363	-0.321168	-0.075087
C115	C	1.335086	-0.791947	-0.701964
C116	C	1.835086	-0.291947	-0.201964
C117	C	1.335063	-0.745033	-0.701945
C118	C	1.835063	-0.245033	-0.201945
C119	C	1.271683	-0.736188	-0.638501
C120	C	1.771683	-0.236188	-0.138501
C121	C	1.334778	-0.219616	-0.701741
C122	C	1.834778	0.280384	-0.201741
C123	C	1.334751	-0.172702	-0.701713
C124	C	1.834751	0.327298	-0.201713
C125	C	1.208026	-0.201927	-0.574839
C126	C	1.708026	0.298073	-0.074839
C127	C	1.208054	-0.248836	-0.574864
C128	C	1.708054	0.251164	-0.074864
C129	C	1.271434	-0.257678	-0.638322
C130	C	1.771434	0.242322	-0.138322
O131	O	1.154260	-0.335468	-0.520973
O132	O	1.654260	0.164532	-0.020973
O133	O	1.388694	-0.281440	-0.755734
O134	O	1.888694	0.218560	-0.255734
C135	C	1.334925	-0.505775	-0.701863
C136	C	1.834925	-0.005775	-0.201863
C137	C	1.271576	-0.543838	-0.638440
C138	C	1.771576	-0.043838	-0.138440
C139	C	1.208205	-0.534991	-0.574996
C140	C	1.708205	-0.034991	-0.074996
C141	C	1.271603	-0.590751	-0.638455
C142	C	1.771603	-0.090751	-0.138455
C143	C	1.334974	-0.599598	-0.701898
C144	C	1.834974	-0.099598	-0.201898
C145	C	1.398320	-0.561532	-0.765327
C146	C	1.898320	-0.061532	-0.265327
C147	C	1.398297	-0.514621	-0.765307
C148	C	1.898297	-0.014621	-0.265307
C149	C	1.144859	-0.573058	-0.511567
C150	C	1.644859	-0.073058	-0.011567
C151	C	1.144888	-0.619967	-0.511592
C152	C	1.644888	-0.119967	-0.011592
C153	C	1.208259	-0.628814	-0.575036
C154	C	1.708259	-0.128814	-0.075036
C155	C	1.486511	0.032494	-0.681941
C156	C	1.986511	0.532494	-0.181941
C157	C	1.578137	0.045137	-0.700511
C158	C	2.078137	0.545137	-0.200511
C159	C	1.315040	0.032562	-0.853369
C160	C	1.815040	0.532562	-0.353369
C161	C	1.333595	0.045234	-0.944992
C162	C	1.833595	0.545234	-0.444992
C163	C	1.271664	0.120037	-0.638480
C164	C	1.771664	0.620037	-0.138480
C165	C	1.271735	0.169985	-0.638531
C166	C	1.771735	0.669985	-0.138531
C167	C	1.130854	-0.093153	-1.192766
C168	C	1.630854	0.406847	-0.692766
C169	C	1.148307	-0.081238	-1.278863
C170	C	1.648307	0.418762	-0.778863
C171	C	1.253817	-0.009218	-1.300278
C172	C	1.753817	0.490782	-0.800278
C173	C	1.236371	-0.021126	-1.214180
C174	C	1.736371	0.478874	-0.714180
C175	C	1.174889	-0.063095	-1.160431
C176	C	1.674889	0.436905	-0.660431
C177	C	1.280405	0.008933	-1.181846
C178	C	1.780405	0.508933	-0.681846
C179	C	1.262963	-0.002976	-1.095756
C180	C	1.762963	0.497024	-0.595756
C181	C	1.201486	-0.044943	-1.042001
C182	C	1.701486	0.455057	-0.542001
C183	C	1.157446	-0.075003	-1.074341
C184	C	1.657446	0.424997	-0.574341
C185	C	1.341891	0.050899	-1.235598
C186	C	1.841891	0.550899	-0.735598
C187	C	1.385926	0.080958	-1.203263
C188	C	1.885926	0.580958	-0.703263
C189	C	1.368479	0.069052	-1.117171
C190	C	1.868479	0.569052	-0.617171
C191	C	1.307002	0.027084	-1.063416
C192	C	1.807002	0.527084	-0.563416
C193	C	1.412519	0.099112	-1.084831
C194	C	1.912519	0.599112	-0.584831
C195	C	1.395076	0.087203	-0.998741
C196	C	1.895076	0.587203	-0.498741
C197	C	1.289560	0.015176	-0.977327
C198	C	1.789560	0.515176	-0.477327
C199	C	1.228173	-0.026756	-0.424202
C200	C	1.728173	0.473244	0.075798
C201	C	1.209778	-0.039279	-0.332612
C202	C	1.709778	0.460721	0.167388
H203	H	1.386345	-0.141709	-0.753365
H204	H	1.886345	0.358291	-0.253365
H205	H	1.080770	-0.127320	-1.148995
H206	H	1.580770	0.372680	-0.648995
N207	N	0.552468	-0.030150	-0.590016
N208	N	1.052468	0.469850	-0.090016
H209	H	0.493025	-0.033125	-0.585659
H210	H	0.993025	0.466875	-0.085659
H211	H	0.570069	-0.058411	-0.605776
H212	H	1.070069	0.441589	-0.105776
N213	N	1.452238	0.126222	-1.261237
N214	N	1.952238	0.626222	-0.761237
H215	H	1.456608	0.129205	-1.320682
H216	H	1.956608	0.629205	-0.820682
H217	H	1.436399	0.154463	-1.243621
H218	H	1.936399	0.654463	-0.743621
N219	N	1.466552	-0.332839	-0.833670
N220	N	1.966552	0.167161	-0.333670
H221	H	1.456930	-0.301773	-0.824044
H222	H	1.956930	0.198227	-0.324044
H223	H	1.522853	-0.334656	-0.832830
H224	H	2.022853	0.165344	-0.332830
N225	N	1.403440	-0.801493	-0.770393
N226	N	1.903440	-0.301493	-0.270393
H227	H	1.393837	-0.836989	-0.760772
H228	H	1.893837	-0.336989	-0.260772
H229	H	1.402471	-0.786921	-0.826640
H230	H	1.902471	-0.286921	-0.326640
H231	H	1.449922	-0.568743	-0.816983
H232	H	1.949922	-0.068743	-0.316983
N233	N	0.894411	0.126051	-0.819222
N234	N	1.394411	0.626051	-0.319222
H235	H	0.876895	0.154346	-0.803521
H236	H	1.376895	0.654346	-0.303521
H237	H	0.953827	0.128973	-0.823537
H238	H	1.453827	0.628973	-0.323537
H239	H	0.782060	-0.127365	-0.447303
H240	H	1.282060	0.372635	0.052697
H241	H	1.187289	-0.054640	-0.971903
H242	H	1.687289	0.445360	-0.471903
N243	N	0.961586	0.063579	-0.727537
N244	N	1.461586	0.563579	-0.227537
H245	H	0.993753	0.065948	-0.788256
H246	H	1.493753	0.565948	-0.288256
H247	H	0.979254	0.095188	-0.716660
H248	H	1.479254	0.595188	-0.216660
H249	H	1.093205	-0.510220	-0.459878
H250	H	1.593205	-0.010220	0.040122
N251	N	1.076420	-0.422774	-0.443084
N252	N	1.576420	0.077226	0.056916
H253	H	1.044959	-0.403965	-0.468795
H254	H	1.544959	0.096035	0.031205
H255	H	1.036351	-0.454027	-0.402930
H256	H	1.536351	0.045973	0.097070
N257	N	0.776001	0.144205	-0.845888
N258	N	1.276001	0.644205	-0.345888
H259	H	0.758485	0.172500	-0.830187
H260	H	1.258485	0.672500	-0.330187
H261	H	0.835417	0.147128	-0.850203
H262	H	1.335417	0.647128	-0.350203
H263	H	1.239476	-0.018991	-0.933556
H264	H	1.739476	0.481009	-0.433556
N265	N	0.597038	0.119483	-0.809619
N266	N	1.097038	0.619483	-0.309619
H267	H	0.644162	0.147858	-0.851252
H268	H	1.144162	0.647858	-0.351252
H269	H	0.569026	0.101495	-0.840465
H270	H	1.069026	0.601495	-0.340465
H271	H	1.112444	-0.105719	-1.305185
H272	H	1.612444	0.394281	-0.805185
H273	H	1.303878	0.024952	-1.344053
H274	H	1.803878	0.524952	-0.844053
H275	H	0.605008	-0.054687	-0.553977
H276	H	1.105008	0.445313	-0.053977
H277	H	1.356092	0.060593	-1.305697
H278	H	1.856092	0.560593	-0.805697
H279	H	0.938251	-0.105791	-0.478944
H280	H	1.438251	0.394209	0.021056
N281	N	1.478833	0.144374	-1.142803
N282	N	1.978833	0.644374	-0.642803
H283	H	1.524246	0.136322	-1.186239
H284	H	2.024246	0.636322	-0.686239
H285	H	1.452536	0.165498	-1.171701
H286	H	1.952536	0.665498	-0.671701
H287	H	0.663645	-0.109209	-0.473973
H288	H	1.163645	0.390791	0.026027
N289	N	0.991383	0.035900	-0.686909
N290	N	1.491383	0.535900	-0.186909
H291	H	1.020356	0.057065	-0.660737
H292	H	1.520356	0.557065	-0.160737
H293	H	1.034755	0.027760	-0.732239
H294	H	1.534755	0.527760	-0.232239
N295	N	1.091129	-0.120267	-1.016358
N296	N	1.591129	0.379733	-0.516358
H297	H	1.065875	-0.137504	-1.049902
H298	H	1.565875	0.362496	-0.549902
H299	H	1.117422	-0.141373	-0.987419
H300	H	1.617422	0.358627	-0.487419
N301	N	1.076510	-0.563518	-0.443133
N302	N	1.576510	-0.063518	0.056867
H303	H	1.020186	-0.578075	-0.443944
H304	H	1.520186	-0.078075	0.056056
H305	H	1.077525	-0.578066	-0.386897
H306	H	1.577525	-0.078066	0.113103
H307	H	1.430933	0.111680	-0.972414
H308	H	1.930933	0.611680	-0.472414
N309	N	1.139731	-0.289894	-0.506447
N310	N	1.639731	0.210106	-0.006447
H311	H	1.165543	-0.310006	-0.475079
H312	H	1.665543	0.189994	0.024921
H313	H	1.099610	-0.277129	-0.466309
H314	H	1.599610	0.222871	0.033691
H315	H	1.386383	-0.226808	-0.753419
H316	H	1.886383	0.273192	-0.253419
H317	H	1.449857	-0.427996	-0.816935
H318	H	1.949857	0.072004	-0.316935
N319	N	1.403387	-0.703977	-0.770357
N320	N	1.903387	-0.203977	-0.270357
H321	H	1.459718	-0.705750	-0.769545
H322	H	1.959718	-0.205750	-0.269545
H323	H	1.402390	-0.705786	-0.826603
H324	H	1.902390	-0.205786	-0.326603
N325	N	1.140042	-0.862221	-0.506666
N326	N	1.640042	-0.362221	-0.006666
H327	H	1.099895	-0.849493	-0.466476
H328	H	1.599895	-0.349493	0.033524
H329	H	1.108661	-0.882328	-0.532453
H330	H	1.608661	-0.382328	-0.032453
H331	H	1.156724	-0.767058	-0.523406
H332	H	1.656724	-0.267058	-0.023406
H333	H	1.156431	-0.194716	-0.523182
H334	H	1.656431	0.305284	-0.023182
N335	N	1.466629	-0.473569	-0.833720
N336	N	1.966629	0.026431	-0.333720
H337	H	1.506771	-0.486299	-0.873910
H338	H	2.006771	0.013701	-0.373910
H339	H	1.440755	-0.453472	-0.865030
H340	H	1.940755	0.046528	-0.365030
H341	H	1.093296	-0.650958	-0.459934
H342	H	1.593296	-0.150958	0.040066
