data_functionalizedCrystal
_audit_creation_method	'MofGen! by Chris Wilmer'
_symmetry_space_group_name_H-M	'P1'
_symmetry_Int_Tables_number	1
_symmetry_cell_setting	triclinic
loop_
_symmetry_equiv_pos_as_xyz
  x,y,z
_cell_length_a	16.109302
_cell_length_b	10.723024
_cell_length_c	14.586319
_cell_angle_alpha	90.004820
_cell_angle_beta	90.002485
_cell_angle_gamma	83.964825
loop_
_atom_site_label
_atom_site_type_symbol
_atom_site_fract_x
_atom_site_fract_y
_atom_site_fract_z
O1	O	1.104070	0.160400	0.076279
O2	O	1.604070	0.660400	0.576279
O3	O	0.862126	0.180359	0.076272
O4	O	1.362126	0.680359	0.576272
O5	O	0.988679	-0.011271	0.076272
O6	O	1.488679	0.488729	0.576272
O7	O	0.977517	0.352029	0.076279
O8	O	1.477517	0.852029	0.576279
O9	O	0.988678	-0.011283	-0.076209
O10	O	1.488678	0.488717	0.423791
O11	O	0.862125	0.180347	-0.076209
O12	O	1.362125	0.680347	0.423791
O13	O	1.104069	0.160388	-0.076202
O14	O	1.604069	0.660388	0.423798
Cu15	Cu	0.983097	0.170366	-0.090128
Cu16	Cu	1.483097	0.670366	0.409872
Cu17	Cu	0.983098	0.170380	0.090198
Cu18	Cu	1.483098	0.670380	0.590198
O19	O	0.977516	0.352017	-0.076202
O20	O	1.477516	0.852017	0.423798
C21	C	0.831146	0.179544	0.000030
C22	C	1.331146	0.679544	0.500030
C23	C	0.738836	0.177120	0.000028
C24	C	1.238836	0.677120	0.500028
C25	C	0.526462	0.171508	-0.083081
C26	C	1.026462	0.671508	0.416919
C27	C	0.439728	0.169216	-0.083078
C28	C	0.939728	0.669216	0.416922
C29	C	0.439740	0.169236	0.083165
C30	C	0.939740	0.669236	0.583165
C31	C	0.526472	0.171518	0.083161
C32	C	1.026472	0.671518	0.583161
C33	C	0.569831	0.172660	0.000035
C34	C	1.069831	0.672660	0.500035
C35	C	0.396364	0.168086	0.000043
C36	C	0.896364	0.668086	0.500043
C37	C	0.302324	0.165602	0.000047
C38	C	0.802324	0.665602	0.500047
C39	C	0.663877	0.175142	0.000031
C40	C	1.163877	0.675142	0.500031
C41	C	0.987866	-0.057766	0.000033
C42	C	1.487866	0.442234	0.500033
C43	C	0.985436	-0.196288	0.000036
C44	C	1.485436	0.303712	0.500036
C45	C	1.056248	-0.272209	0.000040
C46	C	1.556248	0.227791	0.500040
C47	C	1.053738	-0.415379	0.000043
C48	C	1.553738	0.084621	0.500043
C49	C	1.135049	0.161202	0.000042
C50	C	1.635049	0.661202	0.500042
C51	C	1.227359	0.163627	0.000051
C52	C	1.727359	0.663627	0.500051
C53	C	0.978329	0.398512	0.000039
C54	C	1.478329	0.898512	0.500039
C55	C	0.980759	0.537034	0.000042
C56	C	1.480759	1.037034	0.500042
N57	N	0.983100	0.170381	0.217030
N58	N	1.483100	0.670381	0.717030
N59	N	0.983102	0.170355	-0.216960
N60	N	1.483102	0.670355	0.283040
C61	C	1.039247	0.085692	0.452037
C62	C	1.539247	0.585692	0.952037
C63	C	1.039250	0.085689	0.548018
C64	C	1.539250	0.585689	1.048018
C65	C	0.926952	0.255054	0.548027
C66	C	1.426952	0.755054	1.048027
C67	C	0.926954	0.255062	0.452047
C68	C	1.426954	0.755062	0.952047
C69	C	0.983101	0.170374	0.404055
C70	C	1.483101	0.670374	0.904055
C71	C	0.983101	0.170363	0.596015
C72	C	1.483101	0.670363	1.096015
C73	C	0.983103	0.170360	0.700083
C74	C	1.483103	0.670360	1.200083
C75	C	0.983100	0.170378	0.299981
C76	C	1.483100	0.670378	0.799981
H77	H	0.404421	0.168278	-0.150759
H78	H	0.904421	0.668278	0.349241
C79	C	0.813956	0.281774	0.344094
C80	C	1.313956	0.781774	0.844094
C81	C	0.865232	0.348148	0.399296
C82	C	1.365232	0.848148	0.899296
H83	H	0.775860	0.339244	0.311524
H84	H	1.275860	0.839244	0.811524
H85	H	0.783828	0.229732	0.381528
H86	H	1.283828	0.729732	0.881528
H87	H	0.847409	0.231349	0.301781
H88	H	1.347409	0.731349	0.801781
H89	H	0.831781	0.398567	0.441613
H90	H	1.331781	0.898567	0.941613
H91	H	0.895363	0.400212	0.361858
H92	H	1.395363	0.900212	0.861858
C93	C	1.088917	0.010184	0.695141
C94	C	1.588917	0.510184	1.195141
C95	C	1.100829	-0.007601	0.600761
C96	C	1.600829	0.492399	1.100761
H97	H	1.126899	-0.047468	0.727699
H98	H	1.626899	0.452532	1.227699
H99	H	1.033335	-0.003350	0.710778
H100	H	1.533335	0.496650	1.210778
H101	H	1.098452	0.093430	0.710952
H102	H	1.598452	0.593430	1.210952
H103	H	1.091288	-0.090845	0.584948
H104	H	1.591288	0.409155	1.084948
H105	H	1.156425	0.005923	0.585116
H106	H	1.656425	0.505923	1.085116
C107	C	0.421776	0.061355	0.224869
C108	C	0.921776	0.561355	0.724869
C109	C	0.392077	0.167998	0.174535
C110	C	0.892077	0.667998	0.674535
H111	H	0.392348	0.060595	0.281275
H112	H	0.892348	0.560595	0.781275
H113	H	0.479630	0.062884	0.236757
H114	H	0.979630	0.562884	0.736757
H115	H	0.413476	-0.011740	0.190713
H116	H	0.913476	0.488260	0.690713
H117	H	0.400383	0.241094	0.208689
H118	H	0.900383	0.741094	0.708689
H119	H	0.334209	0.166480	0.162649
H120	H	0.834209	0.666480	0.662649
C121	C	0.544461	0.279451	0.224858
C122	C	1.044461	0.779451	0.724858
C123	C	0.574152	0.172791	0.174529
C124	C	1.074152	0.672791	0.674529
H125	H	0.573901	0.280234	0.281259
H126	H	1.073901	0.780234	0.781259
H127	H	0.486609	0.277922	0.236759
H128	H	0.986609	0.777922	0.736759
H129	H	0.552750	0.352534	0.190693
H130	H	1.052750	0.852534	0.690693
H131	H	0.565857	0.099707	0.208691
H132	H	1.065857	0.599707	0.708691
H133	H	0.632017	0.174309	0.162631
H134	H	1.132017	0.674309	0.662631
C135	C	0.659411	0.175004	-0.156906
C136	C	1.159411	0.675004	0.343094
C137	C	0.574124	0.172751	-0.174450
C138	C	1.074124	0.672751	0.325550
H139	H	0.688832	0.175776	-0.213317
H140	H	1.188832	0.675776	0.286683
H141	H	0.679550	0.102666	-0.122758
H142	H	1.179550	0.602666	0.377242
H143	H	0.667692	0.248112	-0.122757
H144	H	1.167692	0.748112	0.377243
H145	H	0.565842	0.099638	-0.208594
H146	H	1.065842	0.599638	0.291406
H147	H	0.553979	0.245096	-0.208612
H148	H	1.053979	0.745096	0.291388
H149	H	0.881237	0.324003	0.587112
H150	H	1.381237	0.824003	1.087112
H151	H	0.922953	-0.237282	0.000040
H152	H	1.422953	0.262718	0.500040
H153	H	1.084967	0.016736	0.412963
H154	H	1.584967	0.516736	0.912963
C155	C	1.146466	-0.142915	0.078423
C156	C	1.646466	0.357085	0.578423
C157	C	1.140602	-0.216876	0.000041
C158	C	1.640602	0.283124	0.500041
H159	H	1.198542	-0.108751	0.078420
H160	H	1.698542	0.391249	0.578420
H161	H	1.142482	-0.193080	0.131587
H162	H	1.642482	0.306920	0.631587
H163	H	1.102358	-0.076739	0.078412
H164	H	1.602358	0.423261	0.578412
H165	H	1.184707	-0.283058	0.000056
H166	H	1.684707	0.216942	0.500056
H167	H	1.144595	-0.166708	-0.053136
H168	H	1.644595	0.333292	0.446864
H169	H	1.114359	-0.480615	0.000042
H170	H	1.614359	0.019385	0.500042
H171	H	0.920135	-0.397737	0.000033
H172	H	1.420135	0.102263	0.500033
