data_functionalizedCrystal
_audit_creation_method	'MofGen! by Chris Wilmer'
_symmetry_space_group_name_H-M	'P1'
_symmetry_Int_Tables_number	1
_symmetry_cell_setting	triclinic
loop_
_symmetry_equiv_pos_as_xyz
  x,y,z
_cell_length_a	10.686220
_cell_length_b	21.295417
_cell_length_c	10.685910
_cell_angle_alpha	94.385577
_cell_angle_beta	89.675252
_cell_angle_gamma	94.412682
loop_
_atom_site_label
_atom_site_type_symbol
_atom_site_fract_x
_atom_site_fract_y
_atom_site_fract_z
Zn1	Zn	1.972017	-0.153612	0.562365
Zn2	Zn	1.955792	-0.267500	0.352575
Zn3	Zn	1.746190	-0.169667	0.368674
Zn4	Zn	1.762149	-0.266280	0.578358
O5	O	1.859037	-0.214265	0.465493
O6	O	2.145414	-0.162510	0.521105
O7	O	1.914519	-0.261752	0.179159
O8	O	1.776257	-0.079442	0.394411
O9	O	2.133494	-0.246184	0.366973
O10	O	1.942171	-0.067646	0.536715
O11	O	1.760525	-0.189875	0.190987
O12	O	1.572757	-0.188692	0.409920
O13	O	1.803457	-0.244104	0.751788
O14	O	1.584482	-0.259673	0.563974
O15	O	1.957646	-0.161327	0.740038
O16	O	1.929994	-0.355433	0.382482
O17	O	1.787725	-0.354537	0.548364
C18	C	1.533102	-0.225793	0.490430
C19	C	1.393667	-0.230738	0.501128
C20	C	1.858867	-0.377825	0.465436
C21	C	1.858913	-0.447791	0.465445
C22	C	1.933070	-0.481098	0.379147
C23	C	1.933130	-0.546837	0.379171
C24	C	1.859011	-0.579268	0.465481
C25	C	1.784850	-0.545953	0.551795
C26	C	1.784800	-0.480215	0.551777
N27	N	1.750001	-0.686027	0.483441
N28	N	1.750051	-0.748476	0.483450
C29	C	1.859157	-0.777335	0.465542
N30	N	1.968212	-0.741387	0.447599
N31	N	1.968161	-0.678932	0.447583
C32	C	1.859057	-0.650551	0.465510
C33	C	1.933387	-0.881924	0.379265
C34	C	1.933450	-0.947664	0.379297
C35	C	1.785158	-0.946780	0.551916
C36	C	1.785106	-0.881040	0.551889
C37	C	1.859218	-0.848616	0.465557
C38	C	2.186245	-0.202692	0.440459
C39	C	2.325682	-0.197760	0.429791
C40	C	1.884142	-0.200789	0.792704
C41	C	1.894840	-0.195046	0.932142
C42	C	1.859244	-0.050063	0.465575
C43	C	1.859332	0.019910	0.465610
C44	C	1.834019	-0.227702	1.139555
C45	C	1.823318	-0.233444	1.000118
H46	H	1.374148	-0.165744	0.360531
Cl47	Cl	1.716140	-0.290989	0.925271
H48	H	1.993846	-0.974780	0.309025
H49	H	1.345195	-0.262762	0.570385
H50	H	1.993419	-0.454700	0.308853
Cl51	Cl	2.026361	-0.588717	0.270671
H52	H	1.964263	-0.157781	0.980619
H53	H	1.724504	-0.572363	0.622071
H54	H	1.724412	-0.453096	0.622053
Cl55	Cl	1.691987	-0.987544	0.660430
Cl56	Cl	2.026553	-0.841159	0.270735
H57	H	1.724714	-0.853921	0.622156
