data_functionalizedCrystal
_audit_creation_method	'MofGen! by Chris Wilmer'
_symmetry_space_group_name_H-M	'P1'
_symmetry_Int_Tables_number	1
_symmetry_cell_setting	triclinic
loop_
_symmetry_equiv_pos_as_xyz
  x,y,z
_cell_length_a	27.440280
_cell_length_b	16.704494
_cell_length_c	27.440280
_cell_angle_alpha	56.638495
_cell_angle_beta	90.008003
_cell_angle_gamma	63.425370
loop_
_atom_site_label
_atom_site_type_symbol
_atom_site_fract_x
_atom_site_fract_y
_atom_site_fract_z
Zr1	Zr	0.496959	0.878452	-0.091333
O2	O	0.424372	1.045900	-0.174383
O3	O	0.515581	0.711003	-0.062246
O4	O	0.520813	0.878432	-0.169139
O5	O	0.419142	0.878487	0.012703
O6	O	0.601015	0.878416	-0.169129
O7	O	0.419141	0.878471	-0.067490
O8	O	0.591656	0.578917	0.022084
O9	O	0.428501	1.177986	-0.178510
O10	O	0.587762	0.779866	-0.054215
O11	O	0.527909	0.779889	0.005624
O12	O	0.534069	0.977014	-0.120229
O13	O	0.474216	0.977038	-0.060390
Zr14	Zr	0.624875	0.878452	0.036582
Zr15	Zr	0.624872	0.878427	-0.091316
Zr16	Zr	0.496961	0.878476	0.036566
Zr17	Zr	0.503543	1.089114	-0.097914
Zr18	Zr	0.618290	0.667789	0.043163
O19	O	0.606253	1.045900	0.007496
O20	O	0.606249	1.045865	-0.174360
O21	O	0.424376	1.045935	0.007472
O22	O	0.697461	0.711003	0.119633
O23	O	0.697457	0.710968	-0.062222
O24	O	0.515584	0.711038	0.119609
O25	O	0.702691	0.878416	-0.067453
O26	O	0.601021	0.878471	0.114389
O27	O	0.520818	0.878487	0.114378
O28	O	0.702693	0.878432	0.012740
O29	O	0.530175	1.177967	-0.178496
O30	O	0.591658	0.578937	0.123746
O31	O	0.693332	0.578917	0.123759
O32	O	0.693330	0.578897	0.022097
O33	O	0.428503	1.178006	-0.076848
O34	O	0.530177	1.177986	-0.076834
O35	O	0.587764	0.779889	0.065479
O36	O	0.647617	0.779866	0.005639
O37	O	0.593924	0.977014	-0.060374
O38	O	0.534071	0.977038	-0.000535
C39	C	0.552680	0.614945	-0.019144
C40	C	0.549885	0.525514	-0.016350
C41	C	0.607132	0.357422	-0.073568
C42	C	0.604507	0.273393	-0.070945
C43	C	0.542014	0.273419	-0.008476
C44	C	0.544639	0.357448	-0.011100
C45	C	0.577198	0.399448	-0.043648
C46	C	0.579819	0.483484	-0.046274
C47	C	0.517329	0.483503	0.016198
C48	C	0.514705	0.399474	0.018821
C49	C	0.400916	0.878482	-0.027396
C50	C	0.346614	0.878493	-0.027403
C51	C	0.037941	0.775523	0.007100
C52	C	-0.013077	0.775517	0.007106
O53	O	-0.015629	0.687996	0.036430
N54	N	-0.066621	0.878425	-0.027353
C55	C	-0.069146	0.981347	-0.061815
O56	O	-0.119374	1.068878	-0.091124
C57	C	-0.018128	0.981352	-0.061817
C58	C	0.035416	0.878437	-0.027360
C59	C	0.091482	0.672616	0.041554
C60	C	0.142497	0.672623	0.041548
C61	C	0.139971	0.775537	0.007087
C62	C	0.086431	0.878443	-0.027367
C63	C	-0.020653	1.084272	-0.096275
C64	C	0.030371	1.084269	-0.096273
C65	C	0.083914	0.981353	-0.061817
C66	C	0.134920	0.981364	-0.061834
N67	N	0.188464	0.878455	-0.027375
C68	C	0.190989	0.775542	0.007086
C69	C	-0.176285	0.981328	-0.061808
C70	C	-0.227302	0.981325	-0.061811
C71	C	-0.171230	0.775494	0.007111
C72	C	-0.120212	0.775499	0.007110
C73	C	-0.122741	0.878420	-0.027349
C74	C	0.298123	0.775563	0.007069
C75	C	0.349140	0.775579	0.007057
C76	C	0.293063	0.981409	-0.061862
C77	C	0.242051	0.981394	-0.061853
C78	C	0.244584	0.878462	-0.027383
O79	O	0.137516	1.068840	-0.091141
O80	O	0.241220	0.688025	0.036396
C81	C	0.720917	0.878421	-0.027354
C82	C	0.775219	0.878410	-0.027347
C83	C	0.560913	0.878421	-0.187357
C84	C	0.560912	0.878410	-0.241653
C85	C	0.569153	1.141958	-0.035607
C86	C	0.571948	1.231390	-0.038401
C87	C	0.532895	0.981380	-0.612847
C88	C	0.532897	0.981386	-0.663870
O89	O	0.509080	1.068907	-0.719563
N90	N	0.560923	0.878478	-0.654929
C91	C	0.588954	0.775556	-0.594960
O92	O	0.612793	0.688025	-0.592040
C93	C	0.588955	0.775551	-0.543939
C94	C	0.560923	0.878466	-0.552885
C95	C	0.504865	1.084287	-0.621791
C96	C	0.504863	1.084280	-0.570771
C97	C	0.532890	0.981367	-0.510809
C98	C	0.560920	0.878460	-0.501866
C99	C	0.616989	0.672631	-0.483972
C100	C	0.616989	0.672634	-0.432951
C101	C	0.588956	0.775550	-0.441897
C102	C	0.588944	0.775539	-0.390885
N103	N	0.560918	0.878448	-0.399826
C104	C	0.532891	0.981362	-0.459788
C105	C	0.588950	0.775575	-0.702111
C106	C	0.588946	0.775579	-0.753131
C107	C	0.532890	0.981409	-0.822037
C108	C	0.532891	0.981404	-0.771016
C109	C	0.560924	0.878483	-0.711052
C110	C	0.532887	0.981340	-0.352642
C111	C	0.532885	0.981324	-0.301615
C112	C	0.588943	0.775494	-0.232714
C113	C	0.588943	0.775509	-0.283736
C114	C	0.560914	0.878441	-0.343702
O115	O	0.612752	0.688063	-0.335174
O116	O	0.509063	1.068878	-0.462697
C117	C	0.560920	0.878482	0.132606
C118	C	0.560921	0.878493	0.186902
C119	C	0.712680	0.614914	-0.019123
C120	C	0.764187	0.525472	-0.016322
C121	C	0.552683	0.614976	0.140838
C122	C	0.549889	0.525555	0.197928
C123	C	0.712684	0.614945	0.140859
C124	C	0.764192	0.525514	0.197956
C125	C	0.409150	1.141958	-0.195609
C126	C	0.357641	1.231390	-0.252707
C127	C	0.409153	1.141989	-0.035628
C128	C	0.357646	1.231431	-0.038429
C129	C	0.569150	1.141927	-0.195588
C130	C	0.571944	1.231348	-0.252678
C131	C	0.757132	0.483469	-0.046255
C132	C	0.805524	0.399440	-0.043636
C133	C	0.860971	0.357410	-0.011079
C134	C	0.868025	0.399422	0.018856
C135	C	0.819634	0.483455	0.016232
C136	C	0.579821	0.483562	0.255987
C137	C	0.577193	0.399553	0.309634
C138	C	0.544637	0.357533	0.305220
C139	C	0.514702	0.399534	0.247155
C140	C	0.517326	0.483547	0.193509
C141	C	0.819629	0.483503	0.193534
C142	C	0.868031	0.399485	0.247178
C143	C	0.860996	0.357472	0.305243
C144	C	0.805553	0.399490	0.309663
C145	C	0.757152	0.483513	0.256020
C146	C	0.302205	1.273410	-0.248285
C147	C	0.253803	1.357455	-0.301929
C148	C	0.260838	1.399472	-0.359994
C149	C	0.316281	1.357448	-0.364415
C150	C	0.364682	1.273411	-0.310771
C151	C	0.364702	1.273443	-0.008501
C152	C	0.316310	1.357495	-0.011135
C153	C	0.260864	1.399528	-0.043694
C154	C	0.253809	1.357512	-0.073626
C155	C	0.302200	1.273468	-0.070995
C156	C	0.604505	1.273342	-0.248245
C157	C	0.607142	1.357351	-0.301882
C158	C	0.577214	1.399371	-0.359952
C159	C	0.544652	1.357370	-0.364384
C160	C	0.542018	1.273356	-0.310747
H161	H	0.392736	0.691770	0.035118
Cl162	Cl	0.652233	0.543243	-0.472710
H163	H	0.488198	0.365263	0.045323
H164	H	0.510068	1.065207	-0.870869
H165	H	0.322003	1.391670	-0.411698
Cl166	Cl	0.648077	1.410142	-0.296296
Cl167	Cl	0.580528	1.504994	-0.427375
Cl168	Cl	0.473778	0.346694	0.241617
H169	H	-0.169181	0.691696	0.035169
H170	H	0.208658	1.391748	-0.100135
Cl171	Cl	0.921800	0.251765	-0.007785
Cl172	Cl	0.497649	1.110742	-0.428020
Cl173	Cl	0.027187	1.213663	-0.139594
Cl174	Cl	0.507024	1.410218	-0.437392
H175	H	0.208664	1.391656	-0.298318
H176	H	0.515501	1.239174	-0.314366
H177	H	0.601573	0.365365	0.356907
Cl178	Cl	0.620750	0.536285	-0.087192
H179	H	0.900412	0.289055	0.348918
H180	H	0.633639	0.391626	-0.100075
H181	H	0.492952	0.517734	0.040559
Cl182	Cl	0.293345	1.220605	-0.175295
H183	H	0.515513	0.239196	0.018031
H184	H	0.628883	0.239176	-0.095308
Cl185	Cl	0.624179	0.646129	-0.272490
Cl186	Cl	0.620754	0.536366	0.261552
H187	H	0.825387	0.517643	0.040612
Cl188	Cl	0.937734	0.346567	0.059785
H189	H	0.542505	0.289124	0.348906
H190	H	-0.178351	1.065144	-0.089872
H191	H	0.409845	1.239226	0.018016
H192	H	-0.064242	1.168077	-0.124332
H193	H	0.492954	0.517727	0.146237
H194	H	0.482043	1.168096	-0.670612
Cl195	Cl	0.796719	0.346660	0.382665
Cl196	Cl	0.828489	0.536310	0.120544
H197	H	0.913171	0.365282	0.243567
H198	H	0.712014	0.517707	0.259629
Cl199	Cl	0.199985	1.505119	-0.427427
Cl200	Cl	0.209803	0.543236	0.084872
Cl201	Cl	0.301316	0.646161	0.050401
H202	H	0.093549	0.588807	0.069619
Cl203	Cl	0.796642	0.346639	-0.081268
H204	H	0.296447	1.239264	-0.095365
H205	H	-0.076618	0.691696	0.035172
H206	H	0.409819	1.239198	-0.314379
H207	H	0.322066	1.391689	0.013242
H208	H	-0.270896	1.065129	-0.089876
H209	H	0.221465	1.467962	-0.045831
H210	H	0.628877	1.239142	-0.200966
Cl211	Cl	0.174738	1.110774	-0.105182
H212	H	0.510055	1.065133	-0.308907
Cl213	Cl	0.289900	1.110779	-0.105171
H214	H	0.510064	1.065207	-0.778306
Cl215	Cl	0.624179	0.646194	-0.741876
Cl216	Cl	0.469609	1.213667	-0.582028
H217	H	0.639818	0.588822	-0.384126
Cl218	Cl	0.624187	0.646175	-0.626728
Cl219	Cl	0.624175	0.646124	-0.157325
Cl220	Cl	0.687433	0.536294	-0.087192
