data_functionalizedCrystal
_audit_creation_method	'MofGen! by Chris Wilmer'
_symmetry_space_group_name_H-M	'P1'
_symmetry_Int_Tables_number	1
_symmetry_cell_setting	triclinic
loop_
_symmetry_equiv_pos_as_xyz
  x,y,z
_cell_length_a	14.044220
_cell_length_b	10.654550
_cell_length_c	9.130313
_cell_angle_alpha	89.999890
_cell_angle_beta	90.004466
_cell_angle_gamma	88.836890
loop_
_atom_site_label
_atom_site_type_symbol
_atom_site_fract_x
_atom_site_fract_y
_atom_site_fract_z
O1	O	1.259693	0.302980	-0.121637
O2	O	1.759693	0.802980	0.378363
O3	O	0.983652	0.292047	-0.121674
O4	O	1.483652	0.792047	0.378326
O5	O	1.128019	0.115412	-0.121649
O6	O	1.628019	0.615412	0.378351
O7	O	1.115326	0.479615	-0.121662
O8	O	1.615326	0.979615	0.378338
O9	O	1.128017	0.115417	0.121950
O10	O	1.628017	0.615417	0.621950
O11	O	0.983650	0.292052	0.121925
O12	O	1.483650	0.792052	0.621925
O13	O	1.259691	0.302985	0.121962
O14	O	1.759691	0.802985	0.621962
Cu15	Cu	1.121671	0.297519	0.144186
Cu16	Cu	1.621671	0.797519	0.644186
Cu17	Cu	1.121673	0.297513	-0.143898
Cu18	Cu	1.621673	0.797513	0.356102
O19	O	1.115324	0.479620	0.121937
O20	O	1.615324	0.979620	0.621937
C21	C	1.127086	0.068523	0.000149
C22	C	1.627086	0.568523	0.500149
C23	C	1.124298	-0.071201	0.000143
C24	C	1.624298	0.428799	0.500143
C25	C	0.948305	0.287263	0.000121
C26	C	1.448305	0.787263	0.500121
C27	C	0.842986	0.272988	0.000106
C28	C	1.342986	0.772988	0.500106
C29	C	1.209299	-0.142144	0.000159
C30	C	1.709299	0.357856	0.500159
C31	C	1.206673	-0.273429	0.000148
C32	C	1.706673	0.226571	0.500148
C33	C	1.034038	-0.262814	0.000112
C34	C	1.534038	0.237186	0.500112
C35	C	1.036664	-0.131532	0.000112
C36	C	1.536664	0.368468	0.500112
C37	C	1.296932	-0.081813	0.000190
C38	C	1.796932	0.418187	0.500190
C39	C	1.381941	-0.152758	0.000207
C40	C	1.881941	0.347242	0.500207
C41	C	1.379315	-0.284043	0.000197
C42	C	1.879315	0.215957	0.500197
C43	C	1.291681	-0.344383	0.000169
C44	C	1.791681	0.155617	0.500169
C45	C	0.650153	0.246889	0.000136
C46	C	1.150153	0.746889	0.500136
C47	C	0.593185	0.348137	0.000139
C48	C	1.093185	0.848137	0.500139
C49	C	0.485886	0.333615	0.000156
C50	C	0.985886	0.833615	0.500156
C51	C	0.757461	0.261409	0.000120
C52	C	1.257461	0.761409	0.500120
C53	C	1.295038	0.307769	0.000164
C54	C	1.795038	0.807769	0.500164
C55	C	1.400358	0.322044	0.000169
C56	C	1.900358	0.822044	0.500169
C57	C	1.116257	0.526509	0.000136
C58	C	1.616257	1.026509	0.500136
C59	C	1.119045	0.666233	0.000132
C60	C	1.619045	1.166233	0.500132
N61	N	1.121676	0.297523	0.346809
N62	N	1.621676	0.797523	0.846809
N63	N	1.121675	0.297500	-0.346520
N64	N	1.621675	0.797500	0.153480
C65	C	1.185618	0.219340	0.423472
C66	C	1.685618	0.719340	0.923472
C67	C	1.185616	0.219324	0.576808
C68	C	1.685616	0.719324	1.076808
C69	C	1.057725	0.375686	0.576806
C70	C	1.557725	0.875686	1.076806
C71	C	1.057724	0.375694	0.423472
C72	C	1.557724	0.875694	0.923472
C73	C	1.249570	0.141169	0.346809
C74	C	1.749570	0.641169	0.846809
C75	C	1.313518	0.062980	0.423472
C76	C	1.813518	0.562980	0.923472
C77	C	1.313516	0.062965	0.576809
C78	C	1.813516	0.562965	1.076809
C79	C	1.249565	0.141138	0.653482
C80	C	1.749565	0.641138	1.153482
H81	H	1.299080	0.025085	0.000203
H82	H	1.799080	0.525085	0.500203
H83	H	1.289550	-0.451284	0.000144
H84	H	1.789550	0.048716	0.500144
F85	F	0.608574	0.119343	0.000145
F86	F	1.108574	0.619343	0.500145
F87	F	0.634763	0.475692	0.000128
F88	F	1.134763	0.975692	0.500128
H89	H	1.453289	-0.103620	0.000194
H90	H	1.953289	0.396380	0.500194
H91	H	1.365579	-0.000708	0.639226
H92	H	1.865579	0.499292	1.139226
H93	H	1.249580	0.141177	0.221954
H94	H	1.749580	0.641177	0.721954
F95	F	1.381568	-0.020223	0.341870
F96	F	1.881568	0.479777	0.841870
F97	F	1.469786	-0.359543	0.000200
F98	F	1.969786	0.140457	0.500200
F99	F	0.989671	0.458881	0.658411
F100	F	1.489671	0.958881	1.158411
H101	H	1.249562	0.141110	0.778340
H102	H	1.749562	0.641110	1.278340
H103	H	0.962690	-0.311954	0.000091
H104	H	1.462690	0.188046	0.500091
F105	F	0.989666	0.458904	0.341880
F106	F	1.489666	0.958904	0.841880
H107	H	0.967449	-0.073767	0.000101
H108	H	1.467449	0.426233	0.500101
