data_functionalizedCrystal
_audit_creation_method	'MofGen! by Chris Wilmer'
_symmetry_space_group_name_H-M	'P1'
_symmetry_Int_Tables_number	1
_symmetry_cell_setting	triclinic
loop_
_symmetry_equiv_pos_as_xyz
  x,y,z
_cell_length_a	14.853558
_cell_length_b	23.532357
_cell_length_c	13.930277
_cell_angle_alpha	89.989902
_cell_angle_beta	89.993309
_cell_angle_gamma	83.229713
loop_
_atom_site_label
_atom_site_type_symbol
_atom_site_fract_x
_atom_site_fract_y
_atom_site_fract_z
O1	O	1.195539	0.074329	-0.079831
O2	O	0.932979	0.083192	-0.079837
O3	O	1.072200	-0.004139	-0.079814
O4	O	1.056318	0.161660	-0.079854
O5	O	1.072181	-0.004140	0.079848
O6	O	0.932960	0.083190	0.079825
O7	O	1.195520	0.074327	0.079831
Zn8	Zn	1.064237	0.078759	0.105177
Zn9	Zn	1.064262	0.078761	-0.105184
O10	O	1.056299	0.161658	0.079808
C11	C	0.899385	0.082791	-0.000007
C12	C	0.799315	0.081590	-0.000008
C13	C	0.752311	0.081028	-0.087043
C14	C	0.752289	0.081019	0.087026
C15	C	0.658268	0.079888	0.087028
C16	C	0.611265	0.079326	-0.000007
C17	C	0.658282	0.079895	-0.087044
C18	C	0.611245	0.079313	0.174064
C19	C	0.517218	0.078182	0.174069
C20	C	0.470212	0.077624	0.087033
C21	C	0.517235	0.078193	-0.000008
C22	C	0.470232	0.077631	-0.087043
C23	C	0.517252	0.078205	-0.174085
C24	C	0.611276	0.079337	-0.174080
C25	C	0.376188	0.076492	0.087028
C26	C	0.376202	0.076498	-0.087044
C27	C	1.071794	-0.025358	0.000020
C28	C	1.070599	-0.088582	0.000029
C29	C	1.063112	-0.480624	-0.087055
C30	C	1.061976	-0.540029	-0.087061
O31	O	1.061367	-0.570747	-0.161078
N32	N	1.061403	-0.569743	-0.000030
C33	C	1.061955	-0.540050	0.087012
O34	O	1.061363	-0.570779	0.161037
C35	C	1.063084	-0.480646	0.087016
C36	C	1.063667	-0.450935	-0.000020
C37	C	1.063693	-0.450913	-0.174084
C38	C	1.064830	-0.391513	-0.174078
C39	C	1.065386	-0.361824	-0.087043
C40	C	1.064804	-0.391535	-0.000014
C41	C	1.063631	-0.450953	0.174057
C42	C	1.064759	-0.391545	0.174054
C43	C	1.065341	-0.361834	0.087018
C44	C	1.066496	-0.302446	0.087027
N45	N	1.067070	-0.272731	-0.000004
C46	C	1.066514	-0.302420	-0.087039
C47	C	1.059583	-0.664802	0.086995
C48	C	1.058461	-0.724205	0.086992
C49	C	1.058480	-0.724180	-0.087080
C50	C	1.059609	-0.664776	-0.087076
C51	C	1.060157	-0.635087	-0.000035
C52	C	1.068903	-0.177676	-0.087020
C53	C	1.070044	-0.118271	-0.087006
C54	C	1.070020	-0.118301	0.087066
C55	C	1.068884	-0.177701	0.087053
C56	C	1.068322	-0.207387	0.000002
O57	O	1.067102	-0.271690	0.161006
O58	O	1.067095	-0.271683	-0.161052
C59	C	1.229114	0.074729	-0.000002
C60	C	1.329185	0.075929	-0.000007
C61	C	1.056706	0.182877	-0.000028
C62	C	1.057900	0.246101	-0.000044
N63	N	1.064227	0.078757	0.248743
N64	N	1.064280	0.078759	-0.248750
C65	C	1.002613	0.117416	0.701003
C66	C	1.125937	0.040102	0.700992
C67	C	1.125926	0.040100	0.600497
C68	C	1.064259	0.078757	0.550249
C69	C	1.002602	0.117416	0.600498
C70	C	1.187587	0.001445	0.550241
C71	C	1.187580	0.001442	0.449739
C72	C	1.125908	0.040098	0.399490
C73	C	1.064248	0.078758	0.449744
C74	C	1.002581	0.117415	0.399497
C75	C	0.940916	0.156073	0.449750
C76	C	0.940930	0.156071	0.550249
C77	C	1.125894	0.040099	0.298991
C78	C	1.002570	0.117416	0.298992
H79	H	0.790566	0.081472	0.157886
H80	H	1.237789	-0.030035	0.408829
N81	N	0.936108	0.159113	0.755191
H82	H	0.872188	0.152480	0.737713
H83	H	0.945544	0.153229	0.826465
N84	N	0.661938	0.079919	0.267932
H85	H	0.728635	0.080728	0.254723
H86	H	0.637856	0.114997	0.305931
N87	N	1.060194	-0.632789	0.180886
H88	H	1.116557	-0.612721	0.184770
H89	H	1.004733	-0.603595	0.184724
H90	H	1.058025	-0.748363	-0.157949
N91	N	1.192400	-0.001586	0.244789
H92	H	1.231471	-0.026073	0.291870
H93	H	1.158122	-0.026806	0.203108
H94	H	1.065191	-0.367375	0.244935
H95	H	0.337938	0.076044	-0.157919
N96	N	0.661987	0.079950	-0.267956
H97	H	0.693367	0.115693	-0.271841
H98	H	0.708585	0.045117	-0.271768
H99	H	0.890726	0.187546	0.591170
H100	H	1.058000	-0.748392	0.157866
N101	N	1.062983	-0.482991	0.267928
H102	H	1.118402	-0.512218	0.271829
H103	H	1.063464	-0.455125	0.323006
H104	H	0.952350	0.148893	0.258087
H105	H	0.337907	0.076030	0.157896
N106	N	0.803026	0.081643	-0.180916
H107	H	0.794305	0.046172	-0.218960
H108	H	0.779002	0.116747	-0.218895
N109	N	0.466554	0.077591	-0.267957
H110	H	0.399858	0.076783	-0.254743
H111	H	0.475344	0.113069	-0.305972
H112	H	1.237799	-0.030026	0.591155
H113	H	0.478942	0.077714	0.244943
H114	H	1.068418	-0.201894	0.157924
N115	N	1.070662	-0.086213	-0.180873
H116	H	1.126359	-0.101120	-0.218933
H117	H	1.014535	-0.091975	-0.218846
N118	N	1.068323	-0.209691	-0.180907
H119	H	1.068874	-0.181849	-0.236032
H120	H	1.123757	-0.238909	-0.184683
N121	N	1.065456	-0.359477	-0.267958
H122	H	1.121157	-0.374397	-0.306000
H123	H	1.009333	-0.365250	-0.305929
N124	N	1.070627	-0.086274	0.180936
H125	H	1.071433	-0.044135	0.167725
H126	H	1.014528	-0.092081	0.218939
N127	N	1.192446	-0.001586	0.755192
H128	H	1.158234	-0.026838	0.796908
H129	H	1.231489	-0.026039	0.708053
N130	N	1.063156	-0.482935	-0.267965
H131	H	1.063717	-0.455092	-0.323088
H132	H	1.118607	-0.512141	-0.271713
H133	H	1.060082	-0.640589	-0.157949
N134	N	0.874410	0.197770	0.395551
H135	H	0.883767	0.191903	0.324261
H136	H	0.810519	0.191117	0.413126
