data_functionalizedCrystal
_audit_creation_method	'MofGen! by Chris Wilmer'
_symmetry_space_group_name_H-M	'P1'
_symmetry_Int_Tables_number	1
_symmetry_cell_setting	triclinic
loop_
_symmetry_equiv_pos_as_xyz
  x,y,z
_cell_length_a	13.897449
_cell_length_b	18.050590
_cell_length_c	13.897441
_cell_angle_alpha	90.022679
_cell_angle_beta	89.979267
_cell_angle_gamma	89.990680
loop_
_atom_site_label
_atom_site_type_symbol
_atom_site_fract_x
_atom_site_fract_y
_atom_site_fract_z
Zn1	Zn	1.474767	0.295610	-0.545434
Zn2	Zn	1.724767	0.545610	-0.295434
Zn3	Zn	1.974767	0.795610	-0.045434
Zn4	Zn	2.224767	1.045610	0.204566
Zn5	Zn	1.474688	0.419815	-0.384158
Zn6	Zn	1.724688	0.669815	-0.134158
Zn7	Zn	1.974688	0.919815	0.115842
Zn8	Zn	2.224688	1.169815	0.365842
Zn9	Zn	1.313456	0.295646	-0.384153
Zn10	Zn	1.563456	0.545646	-0.134153
Zn11	Zn	1.813456	0.795646	0.115847
Zn12	Zn	2.063456	1.045646	0.365847
Zn13	Zn	1.313465	0.419766	-0.545411
Zn14	Zn	1.563465	0.669766	-0.295411
Zn15	Zn	1.813465	0.919766	-0.045411
Zn16	Zn	2.063465	1.169766	0.204589
O17	O	1.394094	0.357709	-0.464789
O18	O	1.644094	0.607709	-0.214789
O19	O	1.894094	0.857709	0.035211
O20	O	2.144094	1.107709	0.285211
O21	O	1.609738	0.312092	-0.524053
O22	O	1.859738	0.562092	-0.274053
O23	O	2.109738	0.812092	-0.024053
O24	O	2.359738	1.062092	0.225947
O25	O	1.453264	0.403379	-0.249176
O26	O	1.703264	0.653379	0.000824
O27	O	1.953264	0.903379	0.250824
O28	O	2.203264	1.153379	0.500824
O29	O	1.334884	0.191716	-0.405555
O30	O	1.584884	0.441716	-0.155555
O31	O	1.834884	0.691716	0.094445
O32	O	2.084884	0.941716	0.344445
O33	O	1.609681	0.403344	-0.405564
O34	O	1.859681	0.653344	-0.155564
O35	O	2.109681	0.903344	0.094436
O36	O	2.359681	1.153344	0.344436
O37	O	1.453398	0.191690	-0.524048
O38	O	1.703398	0.441690	-0.274048
O39	O	1.953398	0.691690	-0.024048
O40	O	2.203398	0.941690	0.225952
O41	O	1.334808	0.312152	-0.249172
O42	O	1.584808	0.562152	0.000828
O43	O	1.834808	0.812152	0.250828
O44	O	2.084808	1.062152	0.500828
O45	O	1.178476	0.312105	-0.405532
O46	O	1.428476	0.562105	-0.155532
O47	O	1.678476	0.812105	0.094468
O48	O	1.928476	1.062105	0.344468
O49	O	1.334899	0.403261	-0.680395
O50	O	1.584899	0.653261	-0.430395
O51	O	1.834899	0.903261	-0.180395
O52	O	2.084899	1.153261	0.069605
O53	O	1.178483	0.403295	-0.524007
O54	O	1.428483	0.653295	-0.274007
O55	O	1.678483	0.903295	-0.024007
O56	O	1.928483	1.153295	0.225993
O57	O	1.453407	0.312045	-0.680413
O58	O	1.703407	0.562045	-0.430413
O59	O	1.953407	0.812045	-0.180413
O60	O	2.203407	1.062045	0.069587
O61	O	1.453273	0.523733	-0.405541
O62	O	1.703273	0.773733	-0.155541
O63	O	1.953273	1.023733	0.094459
O64	O	2.203273	1.273733	0.344459
O65	O	1.334823	0.523697	-0.524012
O66	O	1.584823	0.773697	-0.274012
O67	O	1.834823	1.023697	-0.024012
O68	O	2.084823	1.273697	0.225988
C69	C	1.143480	0.357699	-0.464767
C70	C	1.393480	0.607699	-0.214767
C71	C	1.643480	0.857699	0.035233
C72	C	1.893480	1.107699	0.285233
C73	C	1.036266	0.357713	-0.464780
C74	C	1.286266	0.607713	-0.214780
C75	C	1.536266	0.857713	0.035220
C76	C	1.786266	1.107713	0.285220
C77	C	0.839971	0.357715	-0.464806
C78	C	1.089971	0.607715	-0.214806
C79	C	1.339971	0.857715	0.035194
C80	C	1.589971	1.107715	0.285194
C81	C	0.949204	0.357712	-0.464789
C82	C	1.199204	0.607712	-0.214789
C83	C	1.449204	0.857712	0.035211
C84	C	1.699204	1.107712	0.285211
C85	C	1.394149	0.164004	-0.464803
C86	C	1.644149	0.414004	-0.214803
C87	C	1.894149	0.664004	0.035197
C88	C	2.144149	0.914004	0.285197
C89	C	1.394172	0.081458	-0.464809
C90	C	1.644172	0.331458	-0.214809
C91	C	1.894172	0.581458	0.035191
C92	C	2.144172	0.831458	0.285191
C93	C	1.458617	-0.118007	-0.529266
C94	C	1.708617	0.131993	-0.279266
C95	C	1.958617	0.381993	-0.029266
C96	C	2.208617	0.631993	0.220734
C97	C	1.482186	-0.167376	-0.441268
C98	C	1.732186	0.082624	-0.191268
C99	C	1.982186	0.332624	0.058732
C100	C	2.232186	0.582624	0.308732
C101	C	1.394163	-0.069673	-0.464814
C102	C	1.644163	0.180327	-0.214814
C103	C	1.894163	0.430327	0.035186
C104	C	2.144163	0.680327	0.285186
C105	C	1.370629	-0.167385	-0.552815
C106	C	1.620629	0.082615	-0.302815
C107	C	1.870629	0.332615	-0.052815
C108	C	2.120629	0.582615	0.197185
C109	C	1.394155	-0.215658	-0.464827
C110	C	1.644155	0.034342	-0.214827
C111	C	1.894155	0.284342	0.035173
C112	C	2.144155	0.534342	0.285173
C113	C	1.417777	-0.117955	-0.376770
C114	C	1.667777	0.132045	-0.126770
C115	C	1.917777	0.382045	0.123230
C116	C	2.167777	0.632045	0.373230
C117	C	1.306180	-0.117959	-0.488376
C118	C	1.556180	0.132041	-0.238376
C119	C	1.806180	0.382041	0.011624
C120	C	2.056180	0.632041	0.261624
C121	C	1.329715	-0.167306	-0.400318
C122	C	1.579715	0.082694	-0.150318
C123	C	1.829715	0.332694	0.099682
C124	C	2.079715	0.582694	0.349682
C125	C	1.394169	0.014426	-0.464808
C126	C	1.644169	0.264426	-0.214808
C127	C	1.894169	0.514426	0.035192
C128	C	2.144169	0.764426	0.285192
C129	C	1.394148	-0.299754	-0.464823
C130	C	1.644148	-0.049754	-0.214823
C131	C	1.894148	0.200246	0.035177
C132	C	2.144148	0.450246	0.285177
C133	C	1.645687	0.357720	-0.464812
C134	C	1.895687	0.607720	-0.214812
C135	C	2.145687	0.857720	0.035188
C136	C	2.395687	1.107720	0.285188
C137	C	1.752901	0.357724	-0.464821
C138	C	2.002901	0.607724	-0.214821
C139	C	2.252901	0.857724	0.035179
C140	C	2.502901	1.107724	0.285179
C141	C	1.394066	0.550661	-0.464796
C142	C	1.644066	0.800661	-0.214796
C143	C	1.894066	1.050661	0.035204
C144	C	2.144066	1.300661	0.285204
C145	C	1.394142	0.633207	-0.464831
C146	C	1.644142	0.883207	-0.214831
C147	C	1.894142	1.133207	0.035169
C148	C	2.144142	1.383207	0.285169
C149	C	1.394163	0.357643	-0.716382
C150	C	1.644163	0.607643	-0.466382
C151	C	1.894163	0.857643	-0.216382
C152	C	2.144163	1.107643	0.033618
C153	C	1.394192	0.357615	-0.823596
C154	C	1.644192	0.607615	-0.573596
C155	C	1.894192	0.857615	-0.323596
C156	C	2.144192	1.107615	-0.073596
C157	C	1.394218	0.357565	-1.019891
C158	C	1.644218	0.607565	-0.769891
C159	C	1.894218	0.857565	-0.519891
C160	C	2.144218	1.107565	-0.269891
C161	C	1.394201	0.357595	-0.910659
C162	C	1.644201	0.607595	-0.660659
C163	C	1.894201	0.857595	-0.410659
C164	C	2.144201	1.107595	-0.160659
C165	C	1.394082	0.357721	-0.214175
C166	C	1.644082	0.607721	0.035825
C167	C	1.894082	0.857721	0.285825
C168	C	2.144082	1.107721	0.535825
C169	C	1.394239	0.357540	-0.106961
C170	C	1.644239	0.607540	0.143039
C171	C	1.894239	0.857540	0.393039
C172	C	2.144239	1.107540	0.643039
H173	H	1.513168	-0.096361	-0.583698
H174	H	1.763168	0.153639	-0.333698
H175	H	2.013168	0.403639	-0.083698
H176	H	2.263168	0.653639	0.166302
H177	H	1.556588	-0.189082	-0.421338
H178	H	1.806588	0.060918	-0.171338
H179	H	2.056588	0.310918	0.078662
H180	H	2.306588	0.560918	0.328662
Br181	Br	1.451074	-0.081924	-0.252698
Br182	Br	1.701074	0.168076	-0.002698
Br183	Br	1.951074	0.418076	0.247302
Br184	Br	2.201074	0.668076	0.497302
Br185	Br	1.238870	-0.203174	-0.309380
Br186	Br	1.488870	0.046826	-0.059380
Br187	Br	1.738870	0.296826	0.190620
Br188	Br	1.988870	0.546826	0.440620
H189	H	1.231798	-0.096238	-0.508331
H190	H	1.481798	0.153762	-0.258331
H191	H	1.731798	0.403762	-0.008331
H192	H	1.981798	0.653762	0.241669
Br193	Br	1.337459	-0.203579	-0.676842
Br194	Br	1.587459	0.046421	-0.426842
Br195	Br	1.837459	0.296421	-0.176842
Br196	Br	2.087459	0.546421	0.073158
