data_functionalizedCrystal
_audit_creation_method	'MofGen! by Chris Wilmer'
_symmetry_space_group_name_H-M	'P1'
_symmetry_Int_Tables_number	1
_symmetry_cell_setting	triclinic
loop_
_symmetry_equiv_pos_as_xyz
  x,y,z
_cell_length_a	15.698487
_cell_length_b	23.196401
_cell_length_c	23.196402
_cell_angle_alpha	89.988701
_cell_angle_beta	59.997579
_cell_angle_gamma	119.991703
loop_
_atom_site_label
_atom_site_type_symbol
_atom_site_fract_x
_atom_site_fract_y
_atom_site_fract_z
Zr1	Zr	0.932379	0.075652	0.555354
O2	O	1.110095	0.167699	0.463280
O3	O	0.754666	0.047437	0.583580
O4	O	0.932380	0.167704	0.583551
O5	O	0.932379	-0.047440	0.463332
O6	O	0.932376	0.167706	0.678423
O7	O	0.932381	0.047431	0.463309
O8	O	0.614479	-0.047431	0.678475
O9	O	1.250276	0.167697	0.463280
O10	O	0.827758	0.035402	0.666420
O11	O	0.827759	-0.035401	0.595635
O12	O	1.036993	0.106199	0.595601
O13	O	1.036995	0.035396	0.524816
Zr14	Zr	0.932369	-0.075654	0.706700
Zr15	Zr	0.932373	0.075655	0.706664
Zr16	Zr	0.932375	-0.075657	0.555391
Zr17	Zr	1.155952	0.075649	0.555354
Zr18	Zr	0.708796	-0.075650	0.706700
O19	O	1.110082	-0.047438	0.678474
O20	O	1.110087	0.167704	0.678423
O21	O	1.110090	-0.047443	0.463332
O22	O	0.754653	-0.167701	0.798775
O23	O	0.754658	0.047441	0.798723
O24	O	0.754661	-0.167705	0.583632
O25	O	0.932369	0.047438	0.798723
O26	O	0.932368	-0.167706	0.678503
O27	O	0.932372	-0.167708	0.583631
O28	O	0.932367	-0.047433	0.798746
O29	O	1.250272	0.167699	0.583551
O30	O	0.614476	-0.167701	0.678504
O31	O	0.614472	-0.167698	0.798775
O32	O	0.614475	-0.047428	0.798746
O33	O	1.250273	0.047426	0.463309
O34	O	1.250269	0.047429	0.583580
O35	O	0.827754	-0.106201	0.666454
O36	O	0.827753	-0.035398	0.737239
O37	O	1.036989	0.035399	0.666420
O38	O	1.036990	-0.035404	0.595635
C39	C	0.652718	0.000003	0.631028
C40	C	0.557806	0.000005	0.631028
C41	C	0.932378	0.189264	0.630982
C42	C	0.932380	0.253498	0.630967
C43	C	0.932370	-0.189265	0.631073
C44	C	0.932368	-0.253500	0.631088
C45	C	0.384023	-0.000008	0.631026
C46	C	0.480728	-0.000002	0.631025
C47	C	1.212030	-0.000005	0.631027
C48	C	1.306942	-0.000007	0.631027
C49	C	0.932381	-0.000005	0.441762
C50	C	0.932384	-0.000006	0.377527
C51	C	1.041595	0.320626	0.594003
C52	C	1.041597	0.380982	0.594021
C53	C	0.932377	0.374204	0.630993
C54	C	0.823147	0.307064	0.667964
C55	C	0.823148	0.246711	0.667951
C56	C	0.848700	0.441523	0.625743
C57	C	0.848703	0.501876	0.625751
C58	C	0.932368	0.560352	0.631038
C59	C	1.016049	0.558474	0.636302
C60	C	1.016051	0.498121	0.636289
C61	C	0.932363	0.439643	0.631012
C62	C	1.041592	0.692927	0.594092
C63	C	1.041589	0.753282	0.594115
C64	C	0.823136	0.679362	0.668053
C65	C	0.823142	0.619009	0.668035
C66	C	0.932374	0.625797	0.631050
C67	C	0.932394	0.052263	0.347342
C68	C	0.932383	0.052262	0.286991
C69	C	0.932386	-0.000001	0.256819
C70	C	0.932369	-0.052279	0.287013
C71	C	0.932368	-0.052282	0.347367
C72	C	1.002583	-0.016288	0.137448
C73	C	1.002592	-0.016281	0.077092
C74	C	0.932385	0.000003	0.070669
C75	C	0.862185	0.016294	0.124602
C76	C	0.862183	0.016291	0.184957
C77	C	0.932387	-0.000005	0.191375
C78	C	0.932381	0.052274	-0.024955
C79	C	0.932363	0.052269	-0.085305
C80	C	0.932362	-0.052270	-0.085286
C81	C	0.932368	-0.052267	-0.024933
C82	C	0.932383	0.000008	0.005227
C83	C	0.932367	0.000003	0.820293
C84	C	0.932364	0.000005	0.884528
C85	C	0.652711	0.000008	0.820293
C86	C	0.557796	0.000010	0.884528
C87	C	0.652714	-0.189261	0.631073
C88	C	0.557800	-0.253494	0.631088
C89	C	0.652707	-0.189257	0.820338
C90	C	0.557790	-0.253489	0.884589
C91	C	1.212041	0.189255	0.441716
C92	C	1.306958	0.253487	0.377466
C93	C	1.212037	-0.000009	0.441762
C94	C	1.306952	-0.000012	0.377527
C95	C	1.212034	0.189259	0.630982
C96	C	1.306948	0.253492	0.630966
C97	C	0.513225	0.036975	0.877727
C98	C	0.424055	0.036992	0.938076
C99	C	0.379451	0.000039	1.005227
C100	C	0.424030	-0.036926	1.012027
C101	C	0.513205	-0.036938	0.951678
C102	C	0.513225	-0.320622	0.668062
C103	C	0.424056	-0.380981	0.668074
C104	C	0.379457	-0.374212	0.631116
C105	C	0.424040	-0.307077	0.594137
C106	C	0.513214	-0.246719	0.594122
C107	C	0.513216	-0.246694	0.951717
C108	C	0.424044	-0.307041	1.012092
C109	C	0.379442	-0.374182	1.005339
C110	C	0.424026	-0.380975	0.938204
C111	C	0.513202	-0.320629	0.877829
C112	C	1.351543	0.246692	0.310338
C113	C	1.440742	0.307039	0.249962
C114	C	1.485349	0.374180	0.256716
C115	C	1.440760	0.380973	0.323851
C116	C	1.351568	0.320627	0.384225
C117	C	1.351532	-0.036970	0.384328
C118	C	1.440727	-0.036970	0.323978
C119	C	1.485334	-0.000016	0.256828
C120	C	1.440750	0.036947	0.250028
C121	C	1.351563	0.036951	0.310377
C122	C	1.351519	0.246700	0.667932
C123	C	1.440689	0.307048	0.667931
C124	C	1.485292	0.374188	0.630960
C125	C	1.440713	0.380979	0.593994
C126	C	1.351539	0.320631	0.593999
H127	H	1.130540	0.326159	0.563891
H128	H	1.130530	0.807942	0.564018
H129	H	1.059758	-0.029542	0.033181
C130	C	0.703004	0.299610	0.708631
N131	N	0.612509	0.293995	0.739263
C132	C	0.374941	-0.454836	0.930786
N133	N	0.337960	-0.510471	0.925202
C134	C	1.161748	0.700391	0.553417
N135	N	1.252250	0.706015	0.522781
C136	C	1.489815	0.077583	0.176156
N137	N	1.526763	0.108182	0.120513
C138	C	1.302487	-0.077622	0.458188
N139	N	1.265557	-0.108239	0.513818
H140	H	1.476976	0.301505	0.698033
H141	H	0.387701	-0.067011	1.066709
H142	H	0.549541	0.067074	0.823055
C143	C	0.932410	0.109770	0.253776
N144	N	0.932437	0.153087	0.228757
C145	C	1.489748	0.454839	0.553357
N146	N	1.526672	0.510473	0.522758
C147	C	0.702992	0.671903	0.708724
N148	N	0.612496	0.666287	0.739360
H149	H	0.549518	-0.192030	0.957229
C150	C	1.489771	0.299551	0.176121
N151	N	1.526698	0.293909	0.120505
C152	C	1.489829	0.454835	0.331268
N153	N	1.526783	0.510469	0.336853
C154	C	0.932344	-0.109779	0.253832
N155	N	0.932311	-0.153095	0.228845
C156	C	1.302520	0.328113	0.458065
N157	N	1.265579	0.333757	0.513680
H158	H	0.932360	-0.094846	0.371944
H159	H	1.477012	-0.067073	0.329528
H160	H	1.557956	-0.000025	0.207693
H161	H	0.387769	0.067093	0.932526
H162	H	0.306838	0.000055	1.054361
H163	H	1.557904	0.423321	0.630962
H164	H	0.549483	-0.326171	0.823173
H165	H	0.734209	0.192050	0.698052
C166	C	1.302521	0.077601	0.302884
N167	N	1.265585	0.108219	0.297234
H168	H	1.557974	0.423312	0.207550
C169	C	0.756659	0.377202	0.619925
N170	N	0.687337	0.328757	0.615542
H171	H	0.549483	-0.067043	0.957225
H172	H	0.549528	-0.326147	0.698158
C173	C	0.562224	-0.172879	0.553454
N174	N	0.599132	-0.117264	0.522822
C175	C	0.375019	-0.454823	0.708763
N176	N	0.338083	-0.510439	0.739412
H177	H	1.315229	0.192029	0.304826
C178	C	0.281351	-0.440615	0.631147
N179	N	0.207452	-0.490632	0.631177
C180	C	1.302465	0.172852	0.708610
N181	N	1.265517	0.117231	0.739255
C182	C	0.702995	0.545164	0.708690
N183	N	0.612494	0.489541	0.739313
C184	C	0.784947	0.034205	0.117545
N185	N	0.726774	0.047695	0.112225
H186	H	0.805021	0.029554	0.228869
H187	H	1.315259	0.326172	0.563894
H188	H	0.387715	-0.301575	0.564047
C189	C	0.281337	-0.440558	1.071760
N190	N	0.207439	-0.490550	1.121790
C191	C	1.108085	0.622794	0.642120
N192	N	1.177404	0.671242	0.646502
C193	C	1.161747	0.454834	0.553357
N194	N	1.252245	0.510458	0.522728
C195	C	0.932393	0.109761	0.380520
N196	N	0.932387	0.153068	0.405513
C197	C	0.756657	0.503938	0.619957
N198	N	0.687325	0.505488	0.615592
C199	C	0.932382	0.109772	0.008228
N200	N	0.932379	0.153079	0.033221
H201	H	0.932364	0.094831	-0.109879
H202	H	1.084185	0.496594	0.640576
H203	H	0.387754	-0.301497	1.066751
H204	H	0.932357	-0.094826	-0.109849
H205	H	0.932367	-0.094827	-0.000357
C206	C	1.079811	-0.034210	0.144508
N207	N	1.137973	-0.047712	0.149826
