data_functionalizedCrystal
_audit_creation_method	'MofGen! by Chris Wilmer'
_symmetry_space_group_name_H-M	'P1'
_symmetry_Int_Tables_number	1
_symmetry_cell_setting	triclinic
loop_
_symmetry_equiv_pos_as_xyz
  x,y,z
_cell_length_a	13.635800
_cell_length_b	19.361231
_cell_length_c	21.457597
_cell_angle_alpha	78.106506
_cell_angle_beta	63.172749
_cell_angle_gamma	81.490762
loop_
_atom_site_label
_atom_site_type_symbol
_atom_site_fract_x
_atom_site_fract_y
_atom_site_fract_z
V1	V	-1.930491	-0.218196	0.097418
O2	O	-1.888817	-0.213699	-0.003918
O3	O	-1.942409	-0.217034	0.192431
O4	O	-1.853901	-0.313208	0.096255
O5	O	-1.977938	-0.116859	0.092923
V6	V	-2.174413	-0.206035	0.085258
O7	O	-2.056380	-0.244872	0.124094
O8	O	-2.273623	-0.179359	0.058583
O9	O	-2.050892	-0.207197	-0.009754
O10	O	-2.274785	-0.210532	0.186595
O11	O	-2.185664	-0.307372	0.089753
O12	O	-2.139400	-0.111023	0.086422
V13	V	-1.430491	-0.218196	0.097418
O14	O	-1.388817	-0.213699	-0.003918
O15	O	-1.442409	-0.217034	0.192431
O16	O	-1.353901	-0.313208	0.096255
O17	O	-1.477938	-0.116859	0.092923
V18	V	-1.674413	-0.206035	0.085258
O19	O	-1.556380	-0.244872	0.124094
O20	O	-1.773623	-0.179359	0.058583
O21	O	-1.550892	-0.207197	-0.009754
O22	O	-1.774785	-0.210532	0.186595
O23	O	-1.685664	-0.307372	0.089753
O24	O	-1.639400	-0.111023	0.086422
C25	C	-1.875391	-0.213677	0.215582
C26	C	-1.925430	-0.213361	0.293258
C27	C	-1.960011	-0.149183	0.319542
C28	C	-2.007044	-0.148876	0.392526
C29	C	-2.019488	-0.212747	0.439224
C30	C	-1.984905	-0.276929	0.412935
C31	C	-1.937880	-0.277236	0.339953
C32	C	-1.762490	-0.336356	0.092899
C33	C	-1.740750	-0.414031	0.092576
C34	C	-1.949583	-0.210552	-0.032902
C35	C	-1.889161	-0.210873	-0.110577
C36	C	-1.674462	-0.977282	0.093741
C37	C	-1.694901	-0.904299	0.094049
C38	C	-1.614706	-0.864231	0.090701
C39	C	-1.514075	-0.897154	0.087062
C40	C	-1.493643	-0.970136	0.086761
C41	C	-1.553088	-0.739311	0.047351
C42	C	-1.573520	-0.666330	0.047648
C43	C	-1.677721	-0.639128	0.091633
C44	C	-1.761498	-0.684916	0.135312
C45	C	-1.741067	-0.757899	0.135011
C46	C	-1.636850	-0.785093	0.091028
C47	C	-1.800509	-0.527078	0.095611
C48	C	-1.820946	-0.454094	0.095924
C49	C	-1.640113	-0.446949	0.088929
C50	C	-1.619682	-0.519932	0.088624
C51	C	-1.699882	-0.559992	0.091961
C52	C	-1.562485	-0.087872	0.089779
C53	C	-1.573843	-0.010196	0.090099
C54	C	-1.455141	-0.149187	-0.680457
C55	C	-1.511919	-0.148880	-0.607474
C56	C	-1.538964	-0.212752	-0.560777
C57	C	-1.509250	-0.276934	-0.587070
C58	C	-1.452483	-0.277238	-0.660052
C59	C	-1.572036	-0.263570	-0.435043
C60	C	-1.628796	-0.263263	-0.362062
C61	C	-1.714056	-0.211816	-0.335675
C62	C	-1.742537	-0.160663	-0.382279
C63	C	-1.685770	-0.160968	-0.455262
C64	C	-1.600518	-0.212429	-0.481639
C65	C	-1.805334	-0.147305	-0.230254
C66	C	-1.862119	-0.147001	-0.157269
C67	C	-1.859440	-0.275057	-0.136866
C68	C	-1.802666	-0.275359	-0.209850
C69	C	-1.775612	-0.211481	-0.256539
C70	C	-1.375391	-0.213677	0.215582
C71	C	-1.425430	-0.213361	0.293258
C72	C	-2.062485	-0.087872	0.089779
C73	C	-2.073843	-0.010196	0.090099
C74	C	-1.262490	-0.336356	0.092899
C75	C	-1.240750	-0.414031	0.092576
C76	C	-1.449583	-0.210552	-0.032902
C77	C	-1.389161	-0.210873	-0.110577
C78	C	-1.992224	0.022718	0.093742
C79	C	-2.002876	0.095703	0.094034
C80	C	-2.095152	0.135773	0.090687
C81	C	-2.176775	0.102855	0.087041
C82	C	-2.166119	0.029871	0.086744
C83	C	-1.320957	-0.454081	0.095921
C84	C	-1.300539	-0.527064	0.095608
C85	C	-1.199915	-0.559996	0.091957
C86	C	-1.119700	-0.519940	0.088610
C87	C	-1.140117	-0.446957	0.088917
C88	C	-1.447669	-0.207520	-0.150629
C89	C	-1.390910	-0.207811	-0.223615
C90	C	-1.275644	-0.211459	-0.256548
C91	C	-1.217134	-0.214810	-0.216491
C92	C	-1.273893	-0.214514	-0.143507
H93	H	-1.949882	-0.097169	0.281529
H94	H	-2.232590	0.003078	0.083781
H95	H	-1.402898	-0.427279	0.098896
H96	H	-1.909721	-0.329498	0.318559
H97	H	-2.057779	-0.212487	0.498649
H98	H	-1.505305	-0.629053	0.012077
H99	H	-1.865817	-0.559697	0.098336
F100	F	-1.481299	-0.318335	-0.463117
H101	H	-1.365867	-0.559669	0.098336
F102	F	-1.215250	-0.211772	-0.334226
H103	H	-1.778466	-0.327616	-0.231250
H104	H	-1.531275	-0.328938	-0.549045
F105	F	-1.998153	-0.344901	0.462644
H106	H	-1.226239	-0.217251	-0.110901
F107	F	-2.106480	0.213448	0.091005
H108	H	-1.468232	-0.761452	0.011533
F109	F	-1.428728	-0.854510	0.083502
F110	F	-1.386546	-1.005167	0.082884
F111	F	-1.420860	-0.345544	-0.688027
H112	H	-2.035194	-0.096609	0.413918
F113	F	-1.094457	-0.218688	-0.251551
H114	H	-1.739769	-1.009894	0.096459
H115	H	-1.776840	-0.877495	0.097016
H116	H	-1.809281	-0.795177	0.170578
H117	H	-2.251904	0.135491	0.084313
F118	F	-1.054745	-0.404341	0.085365
F119	F	-1.178202	-0.637672	0.091632
H120	H	-1.708965	-0.119319	-0.493204
F121	F	-1.872402	-0.655973	0.182129
F122	F	-1.012616	-0.555000	0.084730
F123	F	-1.598460	-0.317692	-0.312470
H124	H	-1.541524	-0.204550	-0.123825
H125	H	-1.438569	-0.205083	-0.256220
H126	H	-1.902887	-0.427298	0.098894
F127	F	-1.554765	-0.404311	0.085372
H128	H	-1.537746	-0.546730	0.085654
F129	F	-1.776546	-0.079322	-0.279947
F130	F	-1.543543	-0.080575	-0.579492
F131	F	-1.426358	-0.081202	-0.730144
F132	F	-1.915998	0.130723	0.097920
H133	H	-1.811954	-0.118766	-0.360798
H134	H	-1.881459	-0.327062	-0.098846
F135	F	-1.893752	-0.078694	-0.129296
H136	H	-1.917080	-0.009898	0.096468
