data_functionalizedCrystal
_audit_creation_method	'MofGen! by Chris Wilmer'
_symmetry_space_group_name_H-M	'P1'
_symmetry_Int_Tables_number	1
_symmetry_cell_setting	triclinic
loop_
_symmetry_equiv_pos_as_xyz
  x,y,z
_cell_length_a	11.026607
_cell_length_b	23.532407
_cell_length_c	10.065875
_cell_angle_alpha	98.729142
_cell_angle_beta	79.302338
_cell_angle_gamma	95.717347
loop_
_atom_site_label
_atom_site_type_symbol
_atom_site_fract_x
_atom_site_fract_y
_atom_site_fract_z
O1	O	1.625135	0.231639	-0.113547
O2	O	1.272155	0.204517	-0.113543
O3	O	1.459285	0.136267	-0.113520
O4	O	1.438005	0.299889	-0.113570
O5	O	1.423601	0.149349	0.113464
O6	O	1.236471	0.217598	0.113442
O7	O	1.589451	0.244720	0.113437
Zn8	Zn	1.407295	0.233236	0.149478
Zn9	Zn	1.454310	0.216001	-0.149584
O10	O	1.402321	0.312970	0.113415
C11	C	1.209162	0.206054	-0.000050
C12	C	1.074627	0.191139	-0.000047
C13	C	1.000327	0.232323	-0.000060
C14	C	0.861279	0.216908	-0.000057
C15	C	1.440900	0.121535	-0.000024
C16	C	1.439269	0.058147	-0.000014
C17	C	1.539800	-0.330388	-0.000090
C18	C	1.538287	-0.389948	-0.000100
O19	O	1.631478	-0.416895	-0.000152
N20	N	1.427036	-0.424275	-0.000098
C21	C	1.317292	-0.399040	-0.000099
O22	O	1.222526	-0.433707	-0.000099
C23	C	1.318808	-0.339482	-0.000099
C24	C	1.430064	-0.305157	-0.000087
C25	C	1.651047	-0.296063	-0.000080
C26	C	1.652559	-0.236507	-0.000067
C27	C	1.542823	-0.211276	-0.000064
C28	C	1.431575	-0.245600	-0.000074
C29	C	1.209067	-0.314248	-0.000109
C30	C	1.210592	-0.254685	-0.000110
C31	C	1.321848	-0.220360	-0.000098
C32	C	1.323351	-0.160813	-0.000058
N33	N	1.434602	-0.126486	-0.000061
C34	C	1.544338	-0.151717	-0.000064
C35	C	1.314119	-0.524117	-0.000103
C36	C	1.312601	-0.583674	-0.000093
C37	C	1.533597	-0.574578	-0.000097
C38	C	1.535112	-0.515019	-0.000097
C39	C	1.425370	-0.489790	-0.000105
C40	C	1.547504	-0.026645	-0.000035
C41	C	1.549005	0.032916	-0.000017
C42	C	1.328011	0.023814	-0.000020
C43	C	1.326508	-0.035742	-0.000032
C44	C	1.436265	-0.060970	-0.000044
O45	O	1.230210	-0.133827	-0.000012
O46	O	1.639092	-0.117045	-0.000081
C47	C	1.652444	0.243183	-0.000059
C48	C	1.786980	0.258098	-0.000071
C49	C	1.420706	0.327702	-0.000084
C50	C	1.422339	0.391089	-0.000104
N51	N	1.375217	0.244999	0.353580
N52	N	1.486398	0.204235	-0.353685
C53	C	1.443142	0.220090	0.421367
C54	C	1.418463	0.229148	0.578531
H55	H	0.821959	0.170232	-0.000078
O56	O	1.273992	0.282141	0.430799
H57	H	1.205039	0.255952	0.495936
O58	O	1.022548	0.129315	-0.000020
H59	H	0.980212	0.115219	-0.092536
O60	O	1.587636	0.167098	0.569087
H61	H	1.568178	0.122745	0.596449
O62	O	1.544371	0.182954	0.344127
H63	H	1.590367	0.166081	0.417689
H64	H	1.743156	-0.208565	-0.000063
O65	O	0.839043	0.319927	-0.000082
H66	H	0.910468	0.323360	-0.092603
H67	H	1.636880	-0.047179	-0.000051
O68	O	1.669016	0.069933	-0.000018
H69	H	1.660463	0.102606	0.092507
O70	O	1.317227	0.266286	0.655754
H71	H	1.313737	0.267578	0.767079
H72	H	1.039657	0.278994	-0.000067
H73	H	1.625707	-0.487075	-0.000089
O74	O	1.769412	-0.323272	-0.000064
H75	H	1.847009	-0.289388	-0.000043
H76	H	1.222001	-0.611615	-0.000079
O77	O	1.651965	-0.601797	-0.000115
H78	H	1.632213	-0.648978	-0.000133
H79	H	1.118471	-0.342186	-0.000127
O80	O	1.195737	-0.496907	-0.000073
H81	H	1.156992	-0.515849	-0.092576
O82	O	1.092222	-0.227471	-0.000102
H83	H	1.014612	-0.261349	-0.000097
H84	H	1.235908	-0.063688	-0.000003
H85	H	1.238666	0.044369	-0.000013
