data_functionalizedCrystal
_audit_creation_method	'MofGen! by Chris Wilmer'
_symmetry_space_group_name_H-M	'P1'
_symmetry_Int_Tables_number	1
_symmetry_cell_setting	triclinic
loop_
_symmetry_equiv_pos_as_xyz
  x,y,z
_cell_length_a	6.817900
_cell_length_b	10.992668
_cell_length_c	10.992410
_cell_angle_alpha	91.832960
_cell_angle_beta	108.764651
_cell_angle_gamma	108.769342
loop_
_atom_site_label
_atom_site_type_symbol
_atom_site_fract_x
_atom_site_fract_y
_atom_site_fract_z
V1	V	-4.114280	-0.177763	-0.400588
O2	O	-4.072374	0.008542	-0.392968
O3	O	-4.091890	-0.352475	-0.397843
O4	O	-4.091871	-0.175029	-0.575300
O5	O	-4.072393	-0.170132	-0.214282
V6	V	-4.591170	-0.155479	-0.378305
O7	O	-4.390089	-0.226646	-0.449467
O8	O	-4.765558	-0.106597	-0.329425
O9	O	-4.390353	0.019232	-0.381050
O10	O	-4.750472	-0.341785	-0.385925
O11	O	-4.750453	-0.163110	-0.564611
O12	O	-4.390371	-0.158213	-0.203592
C13	C	-3.942377	-0.395066	-0.391522
C14	C	-4.005531	-0.537895	-0.390442
C15	C	-4.252012	-0.600203	-0.397771
C16	C	-4.317510	-0.748689	-0.396139
C17	C	-3.920752	-0.718266	-0.261985
C18	C	-3.856485	-0.569698	-0.263077
C19	C	-3.980036	-0.607725	-0.508433
C20	C	-4.050700	-0.756740	-0.509050
C21	C	-3.942352	-0.168714	-0.617885
C22	C	-4.005486	-0.167635	-0.760713
C23	C	-3.872608	-0.157798	-0.955837
C24	C	-3.807058	-0.159453	-0.807354
C25	C	-4.203525	-0.294317	-0.837814
C26	C	-4.267838	-0.293197	-0.986380
C27	C	-4.145561	-0.047894	-0.948356
C28	C	-4.074851	-0.047294	-0.799343
C29	C	-4.203208	0.061817	-0.387367
C30	C	-4.119294	0.204644	-0.388455
C31	C	-4.203232	-0.164532	-0.161001
C32	C	-4.119335	-0.165605	-0.018171
H33	H	-3.908802	-0.789286	-0.510910
C34	C	-3.738506	-0.552579	-0.502701
H35	H	-3.653557	-0.487318	-0.428806
H36	H	-3.679459	-0.620456	-0.496527
H37	H	-3.733495	-0.515913	-0.579224
C38	C	-4.119652	-0.580219	-0.638198
H39	H	-4.101917	-0.623242	-0.708131
H40	H	-4.271075	-0.611160	-0.646305
H41	H	-4.072069	-0.489276	-0.640217
C42	C	-3.606465	-0.036413	-0.735293
H43	H	-3.564389	0.015034	-0.796712
H44	H	-3.644686	0.012287	-0.679489
H45	H	-3.486535	-0.060656	-0.685240
H46	H	-4.194355	-0.809075	-0.602609
H47	H	-4.157779	-0.383665	-0.812206
C48	C	-3.876753	-0.507167	-0.142419
H49	H	-3.837724	-0.415998	-0.142019
H50	H	-4.024817	-0.543103	-0.144676
H51	H	-3.780184	-0.523811	-0.066118
H52	H	-3.755388	-0.066082	-0.974669
C53	C	-3.838928	-0.272053	-1.020654
H54	H	-3.974577	-0.324496	-1.085535
H55	H	-3.730175	-0.239332	-1.059432
H56	H	-3.791291	-0.322839	-0.956978
H57	H	-3.674642	-0.527088	-0.252431
H58	H	-3.770509	-0.747089	-0.251787
C59	C	-3.981769	-0.752842	-0.141039
H60	H	-4.128079	-0.814199	-0.167352
H61	H	-3.881599	-0.789155	-0.087694
H62	H	-3.973317	-0.676497	-0.093467
C63	C	-3.729854	-0.275300	-0.773813
H64	H	-3.689467	-0.276704	-0.682844
H65	H	-3.846638	-0.353936	-0.818844
H66	H	-3.605792	-0.266719	-0.799042
H67	H	-4.252292	-0.382325	-1.032648
H68	H	-4.449842	-0.304212	-1.029011
H69	H	-4.466340	-0.802018	-0.487059
C70	C	-4.406671	-0.308600	-0.798901
H71	H	-4.372427	-0.237263	-0.735130
H72	H	-4.527211	-0.310016	-0.873246
H73	H	-4.445675	-0.387330	-0.764291
H74	H	-4.042629	0.048305	-0.968717
C75	C	-4.266805	-0.045263	-0.755405
H76	H	-4.307350	-0.118113	-0.712746
H77	H	-4.221419	0.032491	-0.697266
H78	H	-4.390101	-0.048946	-0.829108
C79	C	-3.881312	0.079309	-0.728626
H80	H	-3.758742	0.058927	-0.675771
H81	H	-3.840211	0.129929	-0.790796
H82	H	-3.925576	0.127167	-0.675656
H83	H	-4.276404	-0.552199	-0.312984
C84	C	-4.410887	-0.574745	-0.521417
H85	H	-4.328330	-0.525880	-0.569679
H86	H	-4.511352	-0.655279	-0.573023
H87	H	-4.490971	-0.527336	-0.497828
C88	C	-4.393963	-0.782209	-0.280022
H89	H	-4.385046	-0.705024	-0.233656
H90	H	-4.542510	-0.841022	-0.310770
H91	H	-4.301454	-0.821242	-0.223978
C92	C	-4.387341	-0.054102	-1.003530
H93	H	-4.471951	-0.128025	-1.068793
H94	H	-4.446448	-0.060483	-0.935667
H95	H	-4.392785	0.022362	-1.040199
