data_functionalizedCrystal
_audit_creation_method	'MofGen! by Chris Wilmer'
_symmetry_space_group_name_H-M	'P1'
_symmetry_Int_Tables_number	1
_symmetry_cell_setting	triclinic
loop_
_symmetry_equiv_pos_as_xyz
  x,y,z
_cell_length_a	16.120490
_cell_length_b	16.625546
_cell_length_c	16.625539
_cell_angle_alpha	90.030397
_cell_angle_beta	92.916216
_cell_angle_gamma	87.114737
loop_
_atom_site_label
_atom_site_type_symbol
_atom_site_fract_x
_atom_site_fract_y
_atom_site_fract_z
Zn1	Zn	1.274567	-0.383658	0.518296
Zn2	Zn	1.524567	-0.133658	0.768296
Zn3	Zn	1.774567	0.116342	1.018296
Zn4	Zn	2.024567	0.366342	1.268296
Zn5	Zn	1.274467	-0.518496	0.383454
Zn6	Zn	1.524467	-0.268496	0.633454
Zn7	Zn	1.774467	-0.018496	0.883454
Zn8	Zn	2.024467	0.231504	1.133454
Zn9	Zn	1.135147	-0.376832	0.376651
Zn10	Zn	1.385147	-0.126832	0.626651
Zn11	Zn	1.635147	0.123168	0.876651
Zn12	Zn	1.885147	0.373168	1.126651
Zn13	Zn	1.135116	-0.511597	0.511421
Zn14	Zn	1.385116	-0.261597	0.761421
Zn15	Zn	1.635116	-0.011597	1.011421
Zn16	Zn	1.885116	0.238403	1.261421
O17	O	1.204824	-0.447646	0.447456
O18	O	1.454824	-0.197646	0.697456
O19	O	1.704824	0.052354	0.947456
O20	O	1.954824	0.302354	1.197456
O21	O	1.391220	-0.407289	0.506133
O22	O	1.641220	-0.157289	0.756133
O23	O	1.891220	0.092711	1.006133
O24	O	2.141220	0.342711	1.256133
O25	O	1.255957	-0.499735	0.269718
O26	O	1.505957	-0.249735	0.519718
O27	O	1.755957	0.000265	0.769718
O28	O	2.005957	0.250265	1.019718
O29	O	1.153696	-0.264908	0.395471
O30	O	1.403696	-0.014908	0.645471
O31	O	1.653696	0.235092	0.895471
O32	O	1.903696	0.485092	1.145471
O33	O	1.391147	-0.506354	0.407065
O34	O	1.641147	-0.256354	0.657065
O35	O	1.891147	-0.006354	0.907065
O36	O	2.141147	0.243646	1.157065
O37	O	1.256127	-0.269923	0.499537
O38	O	1.506127	-0.019923	0.749537
O39	O	1.756127	0.230077	0.999537
O40	O	2.006127	0.480077	1.249537
O41	O	1.153599	-0.395655	0.264720
O42	O	1.403599	-0.145655	0.514720
O43	O	1.653599	0.104345	0.764720
O44	O	1.903599	0.354345	1.014720
O45	O	1.018477	-0.388965	0.388805
O46	O	1.268477	-0.138965	0.638805
O47	O	1.518477	0.111035	0.888805
O48	O	1.768477	0.361035	1.138805
O49	O	1.153644	-0.494595	0.625167
O50	O	1.403644	-0.244595	0.875167
O51	O	1.653644	0.005405	1.125167
O52	O	1.903644	0.255405	1.375167
O53	O	1.018454	-0.487976	0.487820
O54	O	1.268454	-0.237976	0.737820
O55	O	1.518454	0.012024	0.987820
O56	O	1.768454	0.262024	1.237820
O57	O	1.256098	-0.400599	0.630218
O58	O	1.506098	-0.150599	0.880218
O59	O	1.756098	0.099401	1.130218
O60	O	2.006098	0.349401	1.380218
O61	O	1.255927	-0.630411	0.400399
O62	O	1.505927	-0.380411	0.650399
O63	O	1.755927	-0.130411	0.900399
O64	O	2.005927	0.119589	1.150399
O65	O	1.153547	-0.625342	0.494416
O66	O	1.403547	-0.375342	0.744416
O67	O	1.653547	-0.125342	0.994416
O68	O	1.903547	0.124658	1.244416
C69	C	1.204745	-0.657133	0.447418
C70	C	1.454745	-0.407133	0.697418
C71	C	1.704745	-0.157133	0.947418
C72	C	1.954745	0.092867	1.197418
C73	C	1.204788	-0.746756	0.447433
C74	C	1.454788	-0.496756	0.697433
C75	C	1.704788	-0.246756	0.947433
C76	C	1.954788	0.003244	1.197433
C77	C	0.988215	-0.436982	0.436829
C78	C	1.238215	-0.186982	0.686829
C79	C	1.488215	0.063018	0.936829
C80	C	1.738215	0.313018	1.186829
C81	C	0.895549	-0.432439	0.432302
C82	C	1.145549	-0.182439	0.682302
C83	C	1.395549	0.067561	0.932302
C84	C	1.645549	0.317561	1.182302
C85	C	1.204933	-1.074939	0.447524
C86	C	1.454933	-0.824939	0.697524
C87	C	1.704933	-0.574939	0.947524
C88	C	1.954933	-0.324939	1.197524
C89	C	1.204890	-0.983628	0.447501
C90	C	1.454890	-0.733628	0.697501
C91	C	1.704890	-0.483628	0.947501
C92	C	1.954890	-0.233628	1.197501
C93	C	1.204860	-0.910850	0.447478
C94	C	1.454860	-0.660850	0.697478
C95	C	1.704860	-0.410850	0.947478
C96	C	1.954860	-0.160850	1.197478
C97	C	1.204818	-0.819534	0.447455
C98	C	1.454818	-0.569534	0.697455
C99	C	1.704818	-0.319534	0.947455
C100	C	1.954818	-0.069534	1.197455
C101	C	0.684609	-0.471203	0.470940
C102	C	0.934609	-0.221203	0.720940
C103	C	1.184609	0.028797	0.970940
C104	C	1.434609	0.278797	1.220940
C105	C	0.725891	-0.424153	0.424035
C106	C	0.975891	-0.174153	0.674035
C107	C	1.225891	0.075847	0.924035
C108	C	1.475891	0.325847	1.174035
C109	C	0.820297	-0.428765	0.428636
C110	C	1.070297	-0.178765	0.678636
C111	C	1.320297	0.071235	0.928636
C112	C	1.570297	0.321235	1.178636
C113	C	0.590194	-0.466593	0.466340
C114	C	0.840194	-0.216593	0.716340
C115	C	1.090194	0.033407	0.966340
C116	C	1.340194	0.283407	1.216340
C117	C	1.422280	-0.458352	0.458125
C118	C	1.672280	-0.208352	0.708125
C119	C	1.922280	0.041648	0.958125
C120	C	2.172280	0.291648	1.208125
C121	C	1.514946	-0.462915	0.462671
C122	C	1.764946	-0.212915	0.712671
C123	C	2.014946	0.037085	0.962671
C124	C	2.264946	0.287085	1.212671
C125	C	1.204879	-0.447589	0.657767
C126	C	1.454879	-0.197589	0.907767
C127	C	1.704879	0.052411	1.157767
C128	C	1.954879	0.302411	1.407767
C129	C	1.204902	-0.447564	0.747390
C130	C	1.454902	-0.197564	0.997390
C131	C	1.704902	0.052436	1.247390
C132	C	1.954902	0.302436	1.497390
C133	C	1.204926	-0.237342	0.447512
C134	C	1.454926	0.012658	0.697512
C135	C	1.704926	0.262658	0.947512
C136	C	1.954926	0.512658	1.197512
C137	C	1.204970	-0.147723	0.447536
C138	C	1.454970	0.102277	0.697536
C139	C	1.704970	0.352277	0.947536
C140	C	1.954970	0.602277	1.197536
C141	C	1.204818	-0.447647	0.237965
C142	C	1.454818	-0.197647	0.487965
C143	C	1.704818	0.052353	0.737965
C144	C	1.954818	0.302353	0.987965
C145	C	1.204957	-0.447453	0.148351
C146	C	1.454957	-0.197453	0.398351
C147	C	1.704957	0.052547	0.648351
C148	C	1.954957	0.302547	0.898351
C149	C	1.204940	-0.447476	1.075567
C150	C	1.454940	-0.197476	1.325567
C151	C	1.704940	0.052524	1.575567
C152	C	1.954940	0.302524	1.825567
C153	C	1.204927	-0.447503	0.984258
C154	C	1.454927	-0.197503	1.234258
C155	C	1.704927	0.052497	1.484258
C156	C	1.954927	0.302497	1.734258
C157	C	1.204921	-0.447521	0.911481
C158	C	1.454921	-0.197521	1.161481
C159	C	1.704921	0.052479	1.411481
C160	C	1.954921	0.302479	1.661481
C161	C	1.204907	-0.447546	0.820166
C162	C	1.454907	-0.197546	1.070166
C163	C	1.704907	0.052454	1.320166
C164	C	1.954907	0.302454	1.570166
H165	H	0.690333	-0.380408	0.380423
H166	H	0.940333	-0.130408	0.630423
H167	H	1.190333	0.119592	0.880423
H168	H	1.440333	0.369592	1.130423
C169	C	0.732644	-0.530305	0.529847
C170	C	0.982644	-0.280305	0.779847
C171	C	1.232644	-0.030305	1.029847
C172	C	1.482644	0.219695	1.279847
N173	N	0.768834	-0.574823	0.574212
N174	N	1.018834	-0.324823	0.824212
N175	N	1.268834	-0.074823	1.074212
N176	N	1.518834	0.175177	1.324212
