data_functionalizedCrystal
_audit_creation_method	'MofGen! by Chris Wilmer'
_symmetry_space_group_name_H-M	'P1'
_symmetry_Int_Tables_number	1
_symmetry_cell_setting	triclinic
loop_
_symmetry_equiv_pos_as_xyz
  x,y,z
_cell_length_a	10.654554
_cell_length_b	23.532357
_cell_length_c	9.730223
_cell_angle_alpha	89.993164
_cell_angle_beta	89.999030
_cell_angle_gamma	83.657567
loop_
_atom_site_label
_atom_site_type_symbol
_atom_site_fract_x
_atom_site_fract_y
_atom_site_fract_z
O1	O	1.665264	0.079997	-0.114333
O2	O	1.299542	0.087615	-0.114332
O3	O	1.493464	0.000944	-0.114304
O4	O	1.471342	0.166667	-0.114361
O5	O	1.493462	0.000946	0.114276
O6	O	1.299540	0.087617	0.114248
O7	O	1.665262	0.079999	0.114247
Zn8	Zn	1.482401	0.083808	0.150539
Zn9	Zn	1.482404	0.083805	-0.150625
O10	O	1.471340	0.166670	0.114219
C11	C	1.252761	0.087056	-0.000042
C12	C	1.113372	0.085381	-0.000040
C13	C	0.932548	0.031201	-0.000039
C14	C	1.063519	0.032774	-0.000026
C15	C	1.032246	0.136417	-0.000054
C16	C	0.901277	0.134843	-0.000057
C17	C	0.950605	-0.028637	-0.000029
C18	C	1.081576	-0.027063	-0.000016
C19	C	1.492910	-0.020275	-0.000010
C20	C	1.491246	-0.083504	0.000003
C21	C	1.480803	-0.475585	-0.124670
C22	C	1.479222	-0.534995	-0.124678
O23	O	1.478362	-0.565718	-0.230645
N24	N	1.478436	-0.564710	-0.000081
C25	C	1.479220	-0.535011	0.124532
O26	O	1.478405	-0.565742	0.230511
C27	C	1.480792	-0.475602	0.124539
C28	C	1.481590	-0.445891	-0.000067
C29	C	1.481600	-0.445873	-0.249265
C30	C	1.483184	-0.386468	-0.249257
C31	C	1.483971	-0.356774	-0.124654
C32	C	1.483174	-0.386485	-0.000058
C33	C	1.481566	-0.445904	0.249150
C34	C	1.483138	-0.386491	0.249146
C35	C	1.483936	-0.356780	0.124541
C36	C	1.485545	-0.297386	0.124554
N37	N	1.486330	-0.267671	-0.000044
C38	C	1.485543	-0.297365	-0.124647
C39	C	1.475915	-0.659774	0.124509
C40	C	1.474352	-0.719183	0.124504
C41	C	1.474352	-0.719162	-0.124707
C42	C	1.475924	-0.659753	-0.124700
C43	C	1.476701	-0.630059	-0.000088
C44	C	1.488870	-0.172609	-0.124620
C45	C	1.490459	-0.113198	-0.124601
C46	C	1.490453	-0.113224	0.124609
C47	C	1.488870	-0.172630	0.124591
C48	C	1.488075	-0.202320	-0.000035
O49	O	1.486400	-0.266625	0.230466
O50	O	1.486341	-0.266626	-0.230608
C51	C	1.712043	0.080558	-0.000047
C52	C	1.851432	0.082233	-0.000057
C53	C	1.471894	0.187889	-0.000078
C54	C	1.473558	0.251118	-0.000100
N55	N	1.482408	0.083810	0.356076
N56	N	1.482407	0.083799	-0.356161
C57	C	1.568298	0.045445	0.428014
C58	C	1.568295	0.045439	0.571897
C59	C	1.396507	0.122166	0.571891
C60	C	1.396505	0.122169	0.428010
C61	C	1.667482	0.001149	0.428019
C62	C	1.667479	0.001142	0.571902
H63	H	1.072846	0.179250	-0.000052
C64	C	0.812053	0.190983	-0.000039
N65	N	0.744849	0.233269	-0.000018
H66	H	1.763677	0.010900	0.610948
C67	C	1.302018	0.164358	0.651032
N68	N	1.230846	0.196138	0.710640
H69	H	1.473721	-0.743370	0.225971
C70	C	1.790068	0.019884	0.367717
N71	N	1.882401	0.033995	0.322296
H72	H	1.647443	-0.042623	0.388980
H73	H	0.921991	-0.052039	0.095632
C74	C	1.628035	-0.054735	0.632202
N75	N	1.598318	-0.096819	0.677622
H76	H	1.488232	-0.196823	0.226055
H77	H	0.915589	-0.047692	-0.098720
H78	H	1.127793	-0.045144	0.098689
H79	H	1.491112	-0.089010	-0.226074
C80	C	1.138971	-0.057517	-0.129239
N81	N	1.182200	-0.080452	-0.226569
C82	C	1.488017	-0.205261	-0.261715
N83	N	1.487388	-0.229855	-0.364975
H84	H	1.483829	-0.362282	-0.350724
H85	H	1.476572	-0.635566	-0.226165
C86	C	1.480789	-0.478531	-0.386352
N87	N	1.480206	-0.503125	-0.489614
H88	H	1.473707	-0.743350	-0.226166
C89	C	1.491306	-0.080549	0.261667
N90	N	1.491935	-0.055935	0.364899
H91	H	1.476551	-0.635602	0.225990
C92	C	1.483997	-0.353832	0.386233
N93	N	1.484649	-0.329235	0.489487
C94	C	1.302115	0.164417	0.348883
N95	N	1.231055	0.196258	0.289285
H96	H	1.480918	-0.470085	0.350618
