data_functionalizedCrystal
_audit_creation_method	'MofGen! by Chris Wilmer'
_symmetry_space_group_name_H-M	'P1'
_symmetry_Int_Tables_number	1
_symmetry_cell_setting	triclinic
loop_
_symmetry_equiv_pos_as_xyz
  x,y,z
_cell_length_a	23.532407
_cell_length_b	14.044191
_cell_length_c	12.503572
_cell_angle_alpha	86.162165
_cell_angle_beta	86.491360
_cell_angle_gamma	91.979773
loop_
_atom_site_label
_atom_site_type_symbol
_atom_site_fract_x
_atom_site_fract_y
_atom_site_fract_z
O1	O	-0.134241	1.261905	-0.089235
O2	O	-0.129284	0.985983	-0.089250
O3	O	-0.049281	1.132265	-0.089255
O4	O	-0.214243	1.115623	-0.089229
O5	O	-0.055309	1.121264	0.089387
O6	O	-0.135311	0.974982	0.089393
O7	O	-0.140268	1.250904	0.089408
Cu8	Cu	-0.138340	1.111938	0.105712
Cu9	Cu	-0.131212	1.124949	-0.105554
O10	O	-0.220271	1.104622	0.089413
C11	C	-0.130129	0.945189	0.000069
C12	C	-0.123661	0.840024	0.000063
C13	C	-0.157707	0.589416	0.000079
C14	C	-0.111847	0.647477	0.000070
C15	C	-0.118422	0.754620	0.000066
C16	C	-0.151133	0.482263	0.000083
C17	C	-0.238496	1.110546	0.000095
C18	C	-0.301783	1.111819	0.000106
C19	C	-0.696624	1.033247	0.000047
C20	C	-0.756088	1.034431	0.000039
O21	O	-0.788882	0.961594	-0.000004
N22	N	-0.783429	1.121396	0.000045
C23	C	-0.751302	1.207182	0.000048
O24	O	-0.780019	1.281261	0.000051
C25	C	-0.691839	1.205997	0.000047
C26	C	-0.664502	1.119027	0.000052
C27	C	-0.669286	0.946284	0.000050
C28	C	-0.609826	0.945100	0.000060
C29	C	-0.577704	1.030880	0.000065
C30	C	-0.605042	1.117843	0.000062
C31	C	-0.659714	1.291783	0.000042
C32	C	-0.600246	1.290591	0.000041
C33	C	-0.572909	1.203621	0.000046
C34	C	-0.513459	1.202439	0.000077
N35	N	-0.486118	1.115475	0.000071
C36	C	-0.518240	1.029695	0.000065
C37	C	-0.876179	1.209663	0.000046
C38	C	-0.935642	1.210848	0.000054
C39	C	-0.940423	1.038097	0.000044
C40	C	-0.880960	1.036913	0.000043
C41	C	-0.848838	1.122699	0.000040
C42	C	-0.393370	1.027216	0.000086
C43	C	-0.333905	1.026040	0.000100
C44	C	-0.329129	1.198790	0.000105
C45	C	-0.388589	1.199967	0.000097
C46	C	-0.420708	1.114172	0.000084
O47	O	-0.480629	1.275239	0.000116
O48	O	-0.489516	0.955630	0.000048
C49	C	-0.031056	1.126341	0.000060
C50	C	0.032231	1.125068	0.000043
C51	C	-0.139423	1.291699	0.000086
C52	C	-0.145890	1.396864	0.000086
N53	N	-0.143354	1.102794	0.254304
N54	N	-0.126194	1.134100	-0.254146
C55	C	-0.150734	1.089343	0.473420
C56	C	-0.118816	1.147548	0.526745
C57	C	-0.122922	1.140064	0.648668
C58	C	-0.146628	1.096826	0.351485
H59	H	-0.067644	0.616723	-0.000013
H60	H	-0.587572	0.874281	0.000054
N61	N	-0.188881	1.019774	0.530995
N62	N	-0.183301	0.932945	0.518549
H63	H	-0.210242	0.883812	0.559223
N64	N	-0.213150	0.628010	0.000087
N65	N	-0.218478	0.716256	0.000082
H66	H	-0.257634	0.743525	0.000085
N67	N	-0.973240	0.950475	0.000005
N68	N	-0.965658	0.897153	-0.075307
H69	H	-0.988837	0.835273	-0.075336
N70	N	-0.963562	1.299687	0.000041
N71	N	-0.993659	1.324265	-0.075268
H72	H	-1.013377	1.387011	-0.075285
N73	N	-0.296319	1.286416	0.000120
N74	N	-0.303899	1.339752	0.075419
H75	H	-0.280726	1.401639	0.075424
N76	N	-0.567445	1.378231	0.000054
N77	N	-0.575037	1.431560	0.075357
H78	H	-0.551873	1.493456	0.075370
N79	N	-0.416509	1.288809	0.000119
N80	N	-0.387819	1.365390	0.000136
H81	H	-0.407533	1.428138	0.000147
H82	H	-0.311649	0.955214	0.000109
N83	N	-0.843379	1.297306	0.000049
N84	N	-0.867804	1.374941	0.000054
H85	H	-0.844642	1.436840	0.000054
N86	N	-0.687619	1.380631	0.000038
N87	N	-0.658920	1.457206	0.000034
H88	H	-0.678627	1.519961	0.000028
N89	N	-0.426164	0.939572	0.000063
N90	N	-0.401738	0.861939	0.000063
H91	H	-0.424899	0.800039	0.000051
H92	H	-0.088406	1.203001	0.480830
H93	H	-0.695433	0.876428	0.000042
N94	N	-0.853047	0.948067	0.000055
N95	N	-0.881742	0.871488	0.000060
H96	H	-0.862031	0.808736	0.000069
