data_functionalizedCrystal
_audit_creation_method	'MofGen! by Chris Wilmer'
_symmetry_space_group_name_H-M	'P1'
_symmetry_Int_Tables_number	1
_symmetry_cell_setting	triclinic
loop_
_symmetry_equiv_pos_as_xyz
  x,y,z
_cell_length_a	12.759401
_cell_length_b	12.759393
_cell_length_c	12.759399
_cell_angle_alpha	89.969094
_cell_angle_beta	90.015277
_cell_angle_gamma	89.980446
loop_
_atom_site_label
_atom_site_type_symbol
_atom_site_fract_x
_atom_site_fract_y
_atom_site_fract_z
Zn1	Zn	1.606263	-0.593978	-0.418211
Zn2	Zn	1.606153	-0.418297	-0.593927
Zn3	Zn	1.430562	-0.418318	-0.418263
Zn4	Zn	1.430553	-0.593939	-0.593849
O5	O	1.518383	-0.506133	-0.506062
O6	O	1.753270	-0.570682	-0.441531
O7	O	1.582818	-0.271279	-0.570678
O8	O	1.453919	-0.441645	-0.271235
O9	O	1.753189	-0.441610	-0.570628
O10	O	1.583006	-0.570702	-0.271197
O11	O	1.453812	-0.271294	-0.441619
O12	O	1.283540	-0.441606	-0.441544
O13	O	1.453903	-0.740965	-0.570496
O14	O	1.283533	-0.570634	-0.570546
O15	O	1.582997	-0.740994	-0.441456
O16	O	1.582809	-0.441571	-0.740937
O17	O	1.453796	-0.570614	-0.740880
C18	C	1.245415	-0.506119	-0.506043
C19	C	1.128639	-0.506138	-0.506060
C20	C	1.518461	-0.780166	-0.505961
C21	C	1.518495	-0.896943	-0.505918
C22	C	1.518318	-0.506109	-0.779030
C23	C	1.518387	-0.506134	-0.895806
C24	C	1.073801	-0.573211	-0.573339
C25	C	0.964077	-0.573223	-0.573352
C26	C	0.964038	-0.439078	-0.438805
C27	C	1.073761	-0.439072	-0.438787
C28	C	1.128679	-0.640276	-0.640612
C29	C	1.073841	-0.707355	-0.707898
C30	C	0.964117	-0.707366	-0.707911
C31	C	0.909231	-0.640299	-0.640639
C32	C	1.792416	-0.506148	-0.506082
C33	C	1.909193	-0.506154	-0.506091
C34	C	1.585719	-0.951822	-0.438716
C35	C	1.585737	-1.061546	-0.438671
C36	C	1.451303	-1.061503	-0.573039
C37	C	1.451281	-0.951781	-0.573078
C38	C	1.518365	-0.233166	-0.506087
C39	C	1.518535	-0.116389	-0.505834
C40	C	1.585641	-0.439018	-0.950663
C41	C	1.585708	-0.439053	-1.060387
C42	C	1.451259	-0.573324	-1.060388
C43	C	1.451198	-0.573293	-0.950666
C44	C	1.518476	-0.506180	-0.232029
C45	C	1.518516	-0.506200	-0.115252
H46	H	1.218022	-0.640273	-0.640611
H47	H	1.118536	-0.761965	-0.762662
H48	H	1.396532	-0.907097	-0.627801
C49	C	0.904766	-0.780234	-0.781071
C50	C	0.976315	-0.838943	-0.839995
C51	C	0.921682	-0.906068	-0.907417
H52	H	0.861984	-0.826180	-0.741063
H53	H	0.861963	-0.739989	-0.826860
H54	H	1.019100	-0.879185	-0.794212
H55	H	1.019099	-0.793025	-0.880025
H56	H	0.878879	-0.865823	-0.953206
H57	H	0.878902	-0.952007	-0.867400
H58	H	0.970219	-0.945903	-0.947412
C59	C	1.658418	-0.365982	-0.891044
C60	C	1.598931	-0.298554	-0.828178
C61	C	1.665940	-0.231251	-0.773256
H62	H	1.704171	-0.406077	-0.848084
H63	H	1.698465	-0.325955	-0.939399
H64	H	1.558902	-0.338577	-0.779828
H65	H	1.553181	-0.258436	-0.871112
H66	H	1.705987	-0.191223	-0.821612
H67	H	1.711689	-0.271354	-0.730302
H68	H	1.625587	-0.185486	-0.730603
C69	C	1.658667	-1.120991	-0.365538
C70	C	1.635842	-1.094287	-0.261598
C71	C	1.703015	-1.149014	-0.194194
H72	H	1.649124	-1.194209	-0.374981
H73	H	1.729265	-1.102994	-0.380868
H74	H	1.565261	-1.112292	-0.246273
H75	H	1.645392	-1.021079	-0.252121
H76	H	1.773613	-1.131017	-0.209525
H77	H	1.693466	-1.222229	-0.203648
H78	H	1.687544	-1.130896	-0.123665
C79	C	0.790100	-0.640466	-0.640806
C80	C	0.753818	-0.713564	-0.714124
C81	C	0.644085	-0.713749	-0.714304
H82	H	0.765203	-0.658802	-0.573084
H83	H	0.765171	-0.572667	-0.658938
H84	H	0.778737	-0.781348	-0.695986
H85	H	0.778687	-0.695245	-0.781856
H86	H	0.619156	-0.645950	-0.732436
H87	H	0.619198	-0.732083	-0.646579
H88	H	0.619453	-0.763338	-0.764056
C89	C	1.378452	-1.121233	-0.645918
C90	C	1.392879	-1.229070	-0.631523
C91	C	1.325797	-1.284123	-0.698655
H92	H	1.307820	-1.103372	-0.630609
H93	H	1.393809	-1.103300	-0.716540
H94	H	1.377515	-1.246996	-0.560918
H95	H	1.463496	-1.246962	-0.646841
H96	H	1.341153	-1.266190	-0.769276
H97	H	1.255169	-1.266253	-0.683339
H98	H	1.335583	-1.357295	-0.688904
H99	H	1.640474	-0.384402	-1.105046
C100	C	1.378345	-0.646113	-1.120142
C101	C	1.392769	-0.631754	-1.227974
C102	C	1.325605	-0.698778	-1.283049
H103	H	1.393606	-0.716755	-1.102219
H104	H	1.307731	-0.630659	-1.102289
H105	H	1.463368	-0.647215	-1.245820
H106	H	1.377501	-0.561126	-1.245928
H107	H	1.254990	-0.683324	-1.265196
H108	H	1.340872	-0.769416	-1.265118
H109	H	1.335376	-0.689038	-1.356218
C110	C	1.378060	-0.646207	-0.891288
C111	C	1.319206	-0.705003	-0.962814
C112	C	1.251818	-0.772171	-0.908153
H113	H	1.418089	-0.692096	-0.848412
H114	H	1.332224	-0.605989	-0.848577
H115	H	1.365036	-0.745217	-1.005506
H116	H	1.279155	-0.659141	-1.005692
H117	H	1.205983	-0.731954	-0.865442
H118	H	1.291856	-0.818054	-0.865279
H119	H	1.211871	-0.812065	-0.956675
H120	H	1.640446	-0.907176	-0.384028
H121	H	0.919342	-0.384474	-0.384036
H122	H	1.118411	-0.384463	-0.383994
