data_functionalizedCrystal
_audit_creation_method	'MofGen! by Chris Wilmer'
_symmetry_space_group_name_H-M	'P1'
_symmetry_Int_Tables_number	1
_symmetry_cell_setting	triclinic
loop_
_symmetry_equiv_pos_as_xyz
  x,y,z
_cell_length_a	14.908571
_cell_length_b	16.625546
_cell_length_c	14.908308
_cell_angle_alpha	93.264070
_cell_angle_beta	90.175053
_cell_angle_gamma	86.718495
loop_
_atom_site_label
_atom_site_type_symbol
_atom_site_fract_x
_atom_site_fract_y
_atom_site_fract_z
Zn1	Zn	1.345280	-0.420778	-0.587557
Zn2	Zn	1.845280	0.079222	-0.087557
Zn3	Zn	1.353856	-0.548312	-0.437189
Zn4	Zn	1.853856	-0.048312	0.062811
Zn5	Zn	1.203596	-0.405291	-0.428555
Zn6	Zn	1.703596	0.094709	0.071445
Zn7	Zn	1.194884	-0.547354	-0.578841
Zn8	Zn	1.694884	-0.047354	-0.078841
O9	O	1.274404	-0.480434	-0.508036
O10	O	1.774404	0.019566	-0.008036
O11	O	1.472243	-0.444578	-0.574871
O12	O	1.972243	0.055422	-0.074871
O13	O	1.341159	-0.523260	-0.310220
O14	O	1.841159	-0.023260	0.189780
O15	O	1.222448	-0.294517	-0.449681
O16	O	1.722448	0.205483	0.050319
O17	O	1.478544	-0.538277	-0.464397
O18	O	1.978544	-0.038277	0.035603
O19	O	1.326543	-0.305896	-0.566499
O20	O	1.826543	0.194104	-0.066499
O21	O	1.230763	-0.418182	-0.303876
O22	O	1.730763	0.081818	0.196124
O23	O	1.076615	-0.417254	-0.441230
O24	O	1.576615	0.082746	0.058770
O25	O	1.207599	-0.536644	-0.705821
O26	O	1.707599	-0.036644	-0.205821
O27	O	1.070214	-0.521627	-0.551644
O28	O	1.570214	-0.021627	-0.051644
O29	O	1.318095	-0.443649	-0.712225
O30	O	1.818095	0.056351	-0.212225
O31	O	1.332711	-0.661013	-0.455945
O32	O	1.832711	-0.161013	0.044055
O33	O	1.215914	-0.660309	-0.560016
O34	O	1.715914	-0.160309	-0.060016
C35	C	1.040789	-0.467656	-0.494555
C36	C	1.540789	0.032344	0.005445
C37	C	0.940846	-0.462211	-0.488810
C38	C	1.440846	0.037789	0.011190
C39	C	0.746435	-0.560814	-0.592833
C40	C	1.246435	-0.060814	-0.092833
C41	C	0.652530	-0.555700	-0.587437
C42	C	1.152530	-0.055700	-0.087437
C43	C	0.659128	-0.446865	-0.472629
C44	C	1.159128	0.053135	0.027371
C45	C	0.753033	-0.451979	-0.478024
C46	C	1.253033	0.048021	0.021976
C47	C	0.796683	-0.508956	-0.538127
C48	C	1.296683	-0.008956	-0.038127
C49	C	0.890591	-0.514074	-0.543517
C50	C	1.390591	-0.014074	-0.043517
C51	C	0.897187	-0.405236	-0.428714
C52	C	1.397187	0.094764	0.071286
C53	C	0.803282	-0.400121	-0.423318
C54	C	1.303282	0.099879	0.076682
C55	C	1.274321	-0.689918	-0.507993
C56	C	1.774321	-0.189918	-0.007993
C57	C	1.274366	-0.779542	-0.508010
C58	C	1.774366	-0.279542	-0.008010
C59	C	1.274517	-1.107731	-0.508112
C60	C	1.774517	-0.607731	-0.008112
C61	C	1.274472	-1.016419	-0.508086
C62	C	1.774472	-0.516419	-0.008086
C63	C	1.274441	-0.943640	-0.508060
C64	C	1.774441	-0.443640	-0.008060
C65	C	1.274397	-0.852322	-0.508035
C66	C	1.774397	-0.352322	-0.008035
C67	C	1.508931	-0.493262	-0.521569
C68	C	2.008931	0.006738	-0.021569
C69	C	1.608873	-0.498728	-0.527336
C70	C	2.108873	0.001272	-0.027336
C71	C	1.260918	-0.491767	-0.742560
C72	C	1.760918	0.008233	-0.242560
C73	C	1.255172	-0.496597	-0.842501
C74	C	1.755172	0.003403	-0.342501
C75	C	1.274511	-0.270134	-0.508099
C76	C	1.774511	0.229866	-0.008099
C77	C	1.274556	-0.180516	-0.508127
C78	C	1.774556	0.319484	-0.008127
C79	C	1.359429	-0.408817	-1.036969
C80	C	1.859429	0.091183	-0.536969
C81	C	1.354033	-0.413353	-1.130872
C82	C	1.854033	0.086647	-0.630872
C83	C	1.238977	-0.510198	-1.124211
C84	C	1.738977	-0.010198	-0.624211
C85	C	1.244374	-0.505662	-1.030308
C86	C	1.744374	-0.005662	-0.530308
C87	C	1.304603	-0.454971	-0.986690
C88	C	1.804603	0.045029	-0.486690
C89	C	1.310004	-0.450441	-0.892786
C90	C	1.810004	0.049559	-0.392786
C91	C	1.194945	-0.547281	-0.886127
C92	C	1.694945	-0.047281	-0.386127
C93	C	1.189548	-0.551817	-0.980030
C94	C	1.689548	-0.051817	-0.480030
C95	C	1.287889	-0.469089	-0.274426
C96	C	1.787889	0.030911	0.225574
C97	C	1.293810	-0.464042	-0.174497
C98	C	1.793810	0.035958	0.325503
H99	H	0.926129	-0.560469	-0.592455
H100	H	1.426129	-0.060469	-0.092455
N101	N	0.758705	-0.341925	-0.361916
N102	N	1.258705	0.158075	0.138084
N103	N	0.803584	-0.295631	-0.313073
N104	N	1.303584	0.204369	0.186927
H105	H	0.772105	-0.254529	-0.269704
H106	H	1.272105	0.245471	0.230296
N107	N	1.128029	-0.603584	-1.024602
N108	N	1.628029	-0.103584	-0.524602
N109	N	1.123214	-0.607625	-1.108444
N110	N	1.623214	-0.107625	-0.608444
H111	H	1.079765	-0.644187	-1.139923
H112	H	1.579765	-0.144187	-0.639923
N113	N	0.948530	-0.352271	-0.372829
N114	N	1.448530	0.147729	0.127171
N115	N	1.032373	-0.356847	-0.377648
N116	N	1.532373	0.143153	0.122352
H117	H	1.068635	-0.319445	-0.338178
H118	H	1.568635	0.180555	0.161822
N119	N	1.371532	-0.398664	-0.848243
N120	N	1.871532	0.101336	-0.348243
N121	N	1.420477	-0.357458	-0.893150
N122	N	1.920477	0.142542	-0.393150
H123	H	1.463932	-0.320887	-0.861695
H124	H	1.963932	0.179113	-0.361695
N125	N	1.138943	-0.594425	-0.834755
N126	N	1.638943	-0.094425	-0.334755
N127	N	1.143768	-0.590371	-0.750914
N128	N	1.643768	-0.090371	-0.250914
H129	H	1.104219	-0.623665	-0.714630
H130	H	1.604219	-0.123665	-0.214630
N131	N	1.420961	-0.357045	-0.992423
N132	N	1.920961	0.142955	-0.492423
N133	N	1.469915	-0.315844	-1.037326
N134	N	1.969915	0.184156	-0.537326
H135	H	1.513374	-0.279279	-1.005868
H136	H	2.013374	0.220721	-0.505868
H137	H	0.623571	-0.400472	-0.423701
H138	H	1.123571	0.099528	0.076299
H139	H	1.189942	-0.551467	-1.159741
H140	H	1.689942	-0.051467	-0.659741
N141	N	0.791031	-0.619025	-0.654204
N142	N	1.291031	-0.119025	-0.154204
N143	N	0.780878	-0.692551	-0.647481
N144	N	1.280878	-0.192551	-0.147481
H145	H	0.812374	-0.733665	-0.690824
H146	H	1.312374	-0.233665	-0.190824
N147	N	0.601215	-0.608674	-0.643328
N148	N	1.101215	-0.108674	-0.143328
N149	N	0.640203	-0.659537	-0.696987
N150	N	1.140203	-0.159537	-0.196987
H151	H	0.603963	-0.696952	-0.736465
H152	H	1.103963	-0.196952	-0.236465
N153	N	1.410037	-0.366196	-1.182216
N154	N	1.910037	0.133804	-0.682216
N155	N	1.463802	-0.320939	-1.143256
N156	N	1.963802	0.179061	-0.643256
H157	H	1.503356	-0.287630	-1.179517
H158	H	2.003356	0.212370	-0.679517
