data_functionalizedCrystal
_audit_creation_method	'MofGen! by Chris Wilmer'
_symmetry_space_group_name_H-M	'P1'
_symmetry_Int_Tables_number	1
_symmetry_cell_setting	triclinic
loop_
_symmetry_equiv_pos_as_xyz
  x,y,z
_cell_length_a	17.077404
_cell_length_b	17.640280
_cell_length_c	17.077396
_cell_angle_alpha	78.774026
_cell_angle_beta	89.982480
_cell_angle_gamma	78.795741
loop_
_atom_site_label
_atom_site_type_symbol
_atom_site_fract_x
_atom_site_fract_y
_atom_site_fract_z
Zn1	Zn	1.263294	-0.314761	-0.380731
Zn2	Zn	1.289771	-0.446946	-0.222958
Zn3	Zn	1.132034	-0.314779	-0.249474
Zn4	Zn	1.158546	-0.446886	-0.354193
O5	O	1.210911	-0.380843	-0.301839
O6	O	1.376656	-0.332313	-0.359811
O7	O	1.268832	-0.429446	-0.116622
O8	O	1.127270	-0.204170	-0.289089
O9	O	1.396109	-0.429428	-0.243896
O10	O	1.223706	-0.204156	-0.385522
O11	O	1.152944	-0.332344	-0.136103
O12	O	1.025701	-0.332286	-0.263357
O13	O	1.172456	-0.429326	-0.467567
O14	O	1.045179	-0.429344	-0.340293
O15	O	1.249413	-0.332254	-0.487064
O16	O	1.294540	-0.557544	-0.218164
O17	O	1.198129	-0.557500	-0.314581
C18	C	1.006957	-0.380811	-0.301823
C19	C	0.919708	-0.380817	-0.301831
C20	C	1.252106	-0.586201	-0.260633
C21	C	1.269801	-0.674055	-0.243031
C22	C	0.554085	-0.431494	-0.341821
C23	C	0.636063	-0.431484	-0.341811
C24	C	0.666869	-0.380864	-0.301847
C25	C	0.615693	-0.330256	-0.261884
C26	C	0.533717	-0.330271	-0.261890
C27	C	0.786557	-0.330228	-0.261877
C28	C	0.868538	-0.330212	-0.261873
C29	C	0.888903	-0.431440	-0.341798
C30	C	0.806927	-0.431455	-0.341804
C31	C	0.755756	-0.380846	-0.301842
C32	C	1.076806	-0.963016	-0.435845
C33	C	1.093435	-1.045568	-0.419281
C34	C	1.193889	-1.045548	-0.318982
C35	C	1.177271	-0.962995	-0.335541
C36	C	1.118729	-0.921735	-0.393973
C37	C	1.219194	-0.921714	-0.293669
C38	C	1.202574	-0.839168	-0.310224
C39	C	1.144033	-0.797903	-0.368652
C40	C	1.102109	-0.839189	-0.410528
C41	C	1.277732	-0.962975	-0.235234
C42	C	1.319655	-0.921694	-0.193362
C43	C	1.303040	-0.839147	-0.209920
C44	C	1.244498	-0.797881	-0.268348
C45	C	1.344963	-0.797860	-0.168044
C46	C	1.328344	-0.715314	-0.184599
C47	C	1.227878	-0.715335	-0.284903
C48	C	1.415662	-0.380875	-0.301856
C49	C	1.502915	-0.380889	-0.301863
C50	C	1.210938	-0.380782	-0.506596
C51	C	1.210950	-0.380755	-0.593851
C52	C	1.169577	-0.174682	-0.343224
C53	C	1.151963	-0.086829	-0.360859
C54	C	1.150621	-0.330188	-0.644985
C55	C	1.150630	-0.330170	-0.726970
C56	C	1.210972	-0.380716	-0.757818
C57	C	1.271304	-0.431289	-0.706677
C58	C	1.271291	-0.431310	-0.624693
C59	C	1.271328	-0.431239	-0.877557
C60	C	1.271343	-0.431217	-0.959546
C61	C	1.150667	-0.330100	-0.979833
C62	C	1.150654	-0.330121	-0.897850
C63	C	1.210988	-0.380693	-0.846714
C64	C	1.210918	-0.380847	-0.097890
C65	C	1.211014	-0.380650	-0.010680
H66	H	0.529009	-0.472710	-0.374369
H67	H	1.291264	-1.030189	-0.221759
H68	H	0.677724	-0.472693	-0.374347
H69	H	1.367318	-0.955299	-0.145784
F70	F	1.165577	-0.671419	-0.347100
F71	F	0.732099	-0.276368	-0.219340
H72	H	1.320433	-0.472448	-0.731799
F73	F	1.335568	-0.485009	-0.992376
H74	H	1.320464	-0.472413	-0.835925
H75	H	0.640782	-0.289044	-0.229341
F76	F	1.335499	-0.485133	-0.570271
H77	H	1.101542	-0.288921	-1.021472
F78	F	0.774143	-0.485326	-0.384343
F79	F	0.479258	-0.276414	-0.219358
F80	F	1.126486	-0.710049	-0.386413
H81	H	1.101487	-0.289024	-0.619877
F82	F	1.086397	-0.276379	-0.781382
H83	H	1.054443	-0.805594	-0.458115
H84	H	1.241552	-1.079153	-0.271405
F85	F	1.372956	-0.671378	-0.140028
H86	H	1.101521	-0.288959	-0.872737
F87	F	0.943362	-0.485291	-0.384342
H88	H	1.059302	-1.079175	-0.453392
F89	F	1.014504	-0.919100	-0.498042
F90	F	0.901323	-0.276342	-0.219332
F91	F	1.407262	-0.841782	-0.105854
