data_functionalizedCrystal
_audit_creation_method	'MofGen! by Chris Wilmer'
_symmetry_space_group_name_H-M	'P1'
_symmetry_Int_Tables_number	1
_symmetry_cell_setting	triclinic
loop_
_symmetry_equiv_pos_as_xyz
  x,y,z
_cell_length_a	19.805407
_cell_length_b	17.640280
_cell_length_c	19.805399
_cell_angle_alpha	78.776044
_cell_angle_beta	89.983114
_cell_angle_gamma	78.800112
loop_
_atom_site_label
_atom_site_type_symbol
_atom_site_fract_x
_atom_site_fract_y
_atom_site_fract_z
Zn1	Zn	1.089264	-0.314670	-0.328319
Zn2	Zn	1.422597	0.018663	0.005014
Zn3	Zn	1.755930	0.351997	0.338348
Zn4	Zn	1.112096	-0.446848	-0.192280
Zn5	Zn	1.445429	-0.113515	0.141054
Zn6	Zn	1.778762	0.219819	0.474387
Zn7	Zn	0.976088	-0.314695	-0.215139
Zn8	Zn	1.309421	0.018638	0.118194
Zn9	Zn	1.642754	0.351972	0.451527
Zn10	Zn	0.998946	-0.446803	-0.305434
Zn11	Zn	1.332279	-0.113469	0.027899
Zn12	Zn	1.665613	0.219864	0.361233
O13	O	1.044098	-0.380754	-0.260293
O14	O	1.377432	-0.047421	0.073040
O15	O	1.710765	0.285913	0.406374
O16	O	1.187010	-0.332212	-0.310284
O17	O	1.520344	0.001121	0.023050
O18	O	1.853677	0.334454	0.356383
O19	O	1.094043	-0.429347	-0.100590
O20	O	1.427376	-0.096014	0.232743
O21	O	1.760710	0.237320	0.566076
O22	O	0.971979	-0.204088	-0.249297
O23	O	1.305313	0.129246	0.084036
O24	O	1.638646	0.462579	0.417370
O25	O	1.203785	-0.429323	-0.210336
O26	O	1.537118	-0.095989	0.122997
O27	O	1.870452	0.237344	0.456331
O28	O	1.055129	-0.204069	-0.332450
O29	O	1.388462	0.129264	0.000884
O30	O	1.721796	0.462598	0.334217
O31	O	0.994119	-0.332255	-0.117385
O32	O	1.327452	0.001078	0.215948
O33	O	1.660785	0.334412	0.549282
O34	O	0.884402	-0.332211	-0.227106
O35	O	1.217735	0.001122	0.106227
O36	O	1.551069	0.334456	0.439560
O37	O	1.010938	-0.429246	-0.403192
O38	O	1.344271	-0.095912	-0.069858
O39	O	1.677604	0.237421	0.263475
O40	O	0.901196	-0.429270	-0.293446
O41	O	1.234529	-0.095937	0.039888
O42	O	1.567862	0.237397	0.373221
O43	O	1.077294	-0.332168	-0.420005
O44	O	1.410627	0.001165	-0.086672
O45	O	1.743960	0.334498	0.246662
O46	O	1.116208	-0.557446	-0.188146
O47	O	1.449541	-0.224113	0.145188
O48	O	1.782874	0.109220	0.478521
O49	O	1.033077	-0.557413	-0.271280
O50	O	1.366410	-0.224080	0.062054
O51	O	1.699744	0.109254	0.395387
C52	C	0.868240	-0.380739	-0.260274
C53	C	1.201573	-0.047405	0.073060
C54	C	1.534906	0.285928	0.406393
C55	C	0.793010	-0.380751	-0.260278
C56	C	1.126343	-0.047418	0.073055
C57	C	1.459676	0.285915	0.406388
C58	C	0.766441	-0.431366	-0.294738
C59	C	1.099774	-0.098033	0.038595
C60	C	1.433108	0.235301	0.371929
C61	C	0.695753	-0.431367	-0.294747
C62	C	1.029086	-0.098034	0.038586
C63	C	1.362419	0.235299	0.371919
C64	C	0.651635	-0.380758	-0.260292
C65	C	0.984969	-0.047424	0.073041
C66	C	1.318302	0.285909	0.406374
C67	C	0.678208	-0.330137	-0.225832
C68	C	1.011541	0.003196	0.107502
C69	C	1.344875	0.336529	0.440835
C70	C	0.748894	-0.330133	-0.225827
C71	C	1.082228	0.003201	0.107506
C72	C	1.415561	0.336534	0.440840
C73	C	0.393138	-0.330155	-0.225851
C74	C	0.726471	0.003178	0.107482
C75	C	1.059804	0.336512	0.440816
C76	C	0.322447	-0.330165	-0.225857
C77	C	0.655781	0.003168	0.107477
C78	C	0.989114	0.336501	0.440810
C79	C	0.339996	-0.431390	-0.294771
C80	C	0.673330	-0.098056	0.038562
C81	C	1.006663	0.235277	0.371895
C82	C	0.410683	-0.431385	-0.294767
C83	C	0.744016	-0.098052	0.038567
C84	C	1.077349	0.235282	0.371900
C85	C	0.437249	-0.380762	-0.260309
C86	C	0.770582	-0.047429	0.073024
C87	C	1.103915	0.285905	0.406357
C88	C	0.513897	-0.380760	-0.260301
C89	C	0.847230	-0.047427	0.073033
C90	C	1.180563	0.285907	0.406366
C91	C	0.574989	-0.380763	-0.260296
C92	C	0.908322	-0.047430	0.073037
C93	C	1.241656	0.285904	0.406370
C94	C	1.079619	-0.586108	-0.224764
C95	C	1.412952	-0.252775	0.108570
C96	C	1.746285	0.080559	0.441903
C97	C	1.094876	-0.673959	-0.209587
C98	C	1.428210	-0.340626	0.123747
C99	C	1.761543	-0.007293	0.457080
C100	C	0.928465	-0.962942	-0.375837
C101	C	1.261798	-0.629609	-0.042504
C102	C	1.595131	-0.296276	0.290830
C103	C	0.942803	-1.045492	-0.361554
C104	C	1.276136	-0.712159	-0.028221
C105	C	1.609470	-0.378825	0.305112
C106	C	1.029421	-1.045461	-0.275074
C107	C	1.362754	-0.712128	0.058259
C108	C	1.696087	-0.378794	0.391592
C109	C	1.015092	-0.962910	-0.289352
C110	C	1.348425	-0.629576	0.043981
C111	C	1.681759	-0.296243	0.377315
C112	C	0.964613	-0.921657	-0.339734
C113	C	1.297946	-0.588323	-0.006400
C114	C	1.631279	-0.254990	0.326933
C115	C	1.051240	-0.921624	-0.253249
C116	C	1.384573	-0.588291	0.080085
C117	C	1.717907	-0.254958	0.413418
C118	C	1.036910	-0.839080	-0.267523
C119	C	1.370243	-0.505747	0.065810
C120	C	1.703576	-0.172413	0.399144
C121	C	0.986431	-0.797821	-0.317901
C122	C	1.319765	-0.464488	0.015433
C123	C	1.653098	-0.131155	0.348766
C124	C	0.950282	-0.839113	-0.354008
C125	C	1.283616	-0.505779	-0.020675
C126	C	1.616949	-0.172446	0.312659
C127	C	1.101716	-0.962879	-0.202864
C128	C	1.435049	-0.629545	0.130469
C129	C	1.768382	-0.296212	0.463803
C130	C	1.137864	-0.921593	-0.166761
C131	C	1.471197	-0.588260	0.166573
C132	C	1.804530	-0.254927	0.499906
C133	C	1.123537	-0.839048	-0.181038
C134	C	1.456870	-0.505714	0.152295
C135	C	1.790204	-0.172381	0.485629
C136	C	1.073059	-0.797789	-0.231416
C137	C	1.406392	-0.464456	0.101918
C138	C	1.739725	-0.131122	0.435251
C139	C	1.159686	-0.797756	-0.144931
C140	C	1.493019	-0.464423	0.188403
C141	C	1.826353	-0.131090	0.521736
C142	C	1.145356	-0.715212	-0.159205
C143	C	1.478689	-0.381879	0.174128
C144	C	1.812022	-0.048546	0.507462
C145	C	1.058728	-0.715245	-0.245690
C146	C	1.392062	-0.381911	0.087643
C147	C	1.725395	-0.048578	0.420977
C148	C	1.220644	-0.380770	-0.260313
C149	C	1.553977	-0.047436	0.073021
C150	C	1.887310	0.285897	0.406354
C151	C	1.295877	-0.380776	-0.260321
C152	C	1.629210	-0.047443	0.073012
C153	C	1.962543	0.285890	0.406346
C154	C	1.044118	-0.380699	-0.436845
C155	C	1.377452	-0.047366	-0.103512
C156	C	1.710785	0.285968	0.229821
C157	C	1.044127	-0.380676	-0.512081
C158	C	1.377460	-0.047342	-0.178748
C159	C	1.710794	0.285991	0.154585
C160	C	1.008457	-0.174598	-0.295976
C161	C	1.341791	0.158735	0.037357
C162	C	1.675124	0.492069	0.370691
C163	C	0.993270	-0.086747	-0.311182
C164	C	1.326603	0.246587	0.022151
C165	C	1.659936	0.579920	0.355485
C166	C	0.992108	-0.330115	-0.556171
C167	C	1.325441	0.003218	-0.222838
C168	C	1.658775	0.336552	0.110496
C169	C	0.992115	-0.330100	-0.626862
C170	C	1.325448	0.003234	-0.293529
C171	C	1.658781	0.336567	0.039805
C172	C	1.044144	-0.380642	-0.653463
C173	C	1.377477	-0.047308	-0.320130
C174	C	1.710810	0.286025	0.013204
C175	C	1.096166	-0.431208	-0.609367
C176	C	1.429499	-0.097874	-0.276034
C177	C	1.762832	0.235459	0.057299
C178	C	1.096156	-0.431227	-0.538677
C179	C	1.429489	-0.097893	-0.205344
C180	C	1.762822	0.235440	0.127990
C181	C	1.096207	-0.431134	-0.894454
C182	C	1.429540	-0.097800	-0.561120
C183	C	1.762873	0.235533	-0.227787
C184	C	1.096214	-0.431109	-0.965150
C185	C	1.429547	-0.097776	-0.631817
C186	C	1.762880	0.235557	-0.298483
C187	C	0.992165	-0.330007	-0.982639
C188	C	1.325499	0.003326	-0.649305
C189	C	1.658832	0.336660	-0.315972
C190	C	0.992155	-0.330026	-0.911948
C191	C	1.325489	0.003307	-0.578615
C192	C	1.658822	0.336641	-0.245282
C193	C	1.044175	-0.380595	-0.867859
C194	C	1.377508	-0.047261	-0.534525
C195	C	1.710842	0.286072	-0.201192
C196	C	1.044166	-0.380612	-0.791207
C197	C	1.377500	-0.047278	-0.457874
C198	C	1.710833	0.286055	-0.124540
C199	C	1.044156	-0.380621	-0.730114
C200	C	1.377489	-0.047288	-0.396780
C201	C	1.710822	0.286046	-0.063447
C202	C	1.044107	-0.380752	-0.084437
C203	C	1.377441	-0.047418	0.248896
C204	C	1.710774	0.285915	0.582229
C205	C	1.044191	-0.380552	-0.009240
C206	C	1.377524	-0.047219	0.324093
C207	C	1.710858	0.286114	0.657426
H208	H	1.017628	-0.681655	-0.286721
H209	H	1.350961	-0.348322	0.046612
H210	H	1.684295	-0.014988	0.379946
Br211	Br	0.618334	-0.261444	-0.179079
Br212	Br	0.951667	0.071889	0.154255
Br213	Br	1.285000	0.405223	0.487588
Br214	Br	0.826310	-0.500061	-0.341495
Br215	Br	1.159643	-0.166727	-0.008161
Br216	Br	1.492976	0.166606	0.325172
H217	H	0.446601	-0.472599	-0.322820
H218	H	0.779934	-0.139266	0.010513
H219	H	1.113268	0.194067	0.343846
H220	H	1.138584	-0.472270	-0.986805
H221	H	1.471917	-0.138936	-0.653472
H222	H	1.805251	0.194397	-0.320138
Br223	Br	0.784952	-0.261434	-0.179063
Br224	Br	1.118285	0.071899	0.154270
Br225	Br	1.451618	0.405232	0.487604
H226	H	0.949743	-0.288954	-0.534519
H227	H	1.283076	0.044380	-0.201186
H228	H	1.616409	0.377713	0.132147
Br229	Br	1.166773	-0.499809	-0.645466
Br230	Br	1.500106	-0.166475	-0.312133
Br231	Br	1.833439	0.166858	0.021200
H232	H	0.949753	-0.288931	-0.662757
H233	H	1.283087	0.044402	-0.329424
H234	H	1.616420	0.377735	0.003910
Br235	Br	0.303939	-0.500095	-0.341534
Br236	Br	0.637272	-0.166762	-0.008201
Br237	Br	0.970606	0.166572	0.325132
H238	H	0.974760	-0.730609	-0.329517
H239	H	1.308093	-0.397275	0.003816
H240	H	1.641427	-0.063942	0.337150
H241	H	1.174791	-0.681597	-0.129805
H242	H	1.508124	-0.348264	0.203528
H243	H	1.841457	-0.014931	0.536862
Br244	Br	1.121190	-1.074905	-0.183517
Br245	Br	1.454523	-0.741571	0.149817
Br246	Br	1.787856	-0.408238	0.483150
H247	H	0.286527	-0.288948	-0.197800
H248	H	0.619860	0.044386	0.135533
H249	H	0.953194	0.377719	0.468866
Br250	Br	1.206369	-0.977586	-0.098388
Br251	Br	1.539703	-0.644253	0.234945
Br252	Br	1.873036	-0.310920	0.568278
H253	H	0.887364	-0.929352	-0.416868
H254	H	1.220697	-0.596019	-0.083535
H255	H	1.554031	-0.262686	0.249799
H256	H	0.949790	-0.288867	-0.890295
H257	H	1.283123	0.044467	-0.556961
H258	H	1.616456	0.377800	-0.223628
H259	H	0.674125	-0.472584	-0.322807
H260	H	1.007458	-0.139250	0.010526
H261	H	1.340791	0.194083	0.343860
Br262	Br	0.921565	-0.261378	-1.042478
Br263	Br	1.254898	0.071956	-0.709145
Br264	Br	1.588231	0.405289	-0.375812
Br265	Br	1.166752	-0.499853	-0.478839
Br266	Br	1.500085	-0.166520	-0.145505
Br267	Br	1.833418	0.166813	0.187828
H268	H	0.414760	-0.288941	-0.197788
H269	H	0.748093	0.044393	0.135546
H270	H	1.081427	0.377726	0.468879
H271	H	0.909182	-0.805523	-0.395039
H272	H	1.242515	-0.472190	-0.061705
H273	H	1.575849	-0.138856	0.271628
H274	H	0.913371	-1.079104	-0.390966
H275	H	1.246704	-0.745770	-0.057633
H276	H	1.580038	-0.412437	0.275700
Br277	Br	1.228184	-0.853752	-0.076552
Br278	Br	1.561518	-0.520419	0.256781
Br279	Br	1.894851	-0.187085	0.590114
H280	H	1.070519	-1.079061	-0.234052
H281	H	1.403852	-0.745727	0.099282
H282	H	1.737185	-0.412394	0.432615
Br283	Br	1.166808	-0.499758	-0.834627
Br284	Br	1.500141	-0.166425	-0.501294
Br285	Br	1.833475	0.166908	-0.167960
