data_functionalizedCrystal
_audit_creation_method	'MofGen! by Chris Wilmer'
_symmetry_space_group_name_H-M	'P1'
_symmetry_Int_Tables_number	1
_symmetry_cell_setting	triclinic
loop_
_symmetry_equiv_pos_as_xyz
  x,y,z
_cell_length_a	15.625020
_cell_length_b	19.188930
_cell_length_c	14.185569
_cell_angle_alpha	76.885558
_cell_angle_beta	85.694396
_cell_angle_gamma	83.713990
loop_
_atom_site_label
_atom_site_type_symbol
_atom_site_fract_x
_atom_site_fract_y
_atom_site_fract_z
O1	O	1.078875	0.181348	-0.475948
O2	O	1.578875	0.681348	0.024052
O3	O	0.837901	0.175594	-0.388281
O4	O	1.337901	0.675594	0.111719
O5	O	0.965346	0.077317	-0.434626
O6	O	1.465346	0.577317	0.065374
O7	O	0.951429	0.279626	-0.429603
O8	O	1.451429	0.779626	0.070397
O9	O	1.002995	0.048288	-0.281483
O10	O	1.502995	0.548288	0.218517
O11	O	0.875549	0.146566	-0.235137
O12	O	1.375549	0.646566	0.264863
O13	O	1.116523	0.152320	-0.322805
O14	O	1.616523	0.652320	0.177195
Cu15	Cu	0.999474	0.146792	-0.264988
Cu16	Cu	1.499474	0.646792	0.235012
Cu17	Cu	0.954950	0.181122	-0.446098
Cu18	Cu	1.454950	0.681122	0.053902
O19	O	0.989078	0.250597	-0.276459
O20	O	1.489078	0.750597	0.223541
C21	C	0.825895	0.158463	-0.300493
C22	C	1.325895	0.658463	0.199507
C23	C	0.734034	0.150655	-0.267072
C24	C	1.234034	0.650655	0.232928
C25	C	0.625078	0.123828	-0.136494
C26	C	1.125078	0.623828	0.363506
C27	C	0.711394	0.131166	-0.167908
C28	C	1.211394	0.631166	0.332092
C29	C	0.670360	0.162810	-0.334862
C30	C	1.170360	0.662810	0.165138
C31	C	0.584039	0.155470	-0.303462
C32	C	1.084039	0.655470	0.196538
C33	C	0.561406	0.135980	-0.204277
C34	C	1.061406	0.635980	0.295723
C35	C	0.520367	0.167623	-0.371246
C36	C	1.020367	0.667623	0.128754
C37	C	0.434054	0.160288	-0.339848
C38	C	0.934054	0.660288	0.160152
C39	C	0.411412	0.140800	-0.240667
C40	C	0.911412	0.640800	0.259333
C41	C	0.475092	0.128645	-0.172880
C42	C	0.975092	0.628645	0.327120
C43	C	0.543002	0.187118	-0.470430
C44	C	1.043002	0.687118	0.029570
C45	C	0.479329	0.199271	-0.538214
C46	C	0.979329	0.699271	-0.038214
C47	C	0.393015	0.191931	-0.506817
C48	C	0.893015	0.691931	-0.006817
C49	C	0.370374	0.172443	-0.407636
C50	C	0.870374	0.672443	0.092364
C51	C	0.329335	0.204086	-0.574604
C52	C	0.829335	0.704086	-0.074604
C53	C	0.243022	0.196751	-0.543207
C54	C	0.743022	0.696751	-0.043207
C55	C	0.284060	0.165108	-0.376238
C56	C	0.784060	0.665108	0.123762
C57	C	0.983721	0.036758	-0.357888
C58	C	1.483721	0.536758	0.142112
C59	C	0.982371	-0.040846	-0.357388
C60	C	1.482371	0.459154	0.142612
C61	C	1.057150	-0.080344	-0.384589
C62	C	1.557150	0.419656	0.115411
C63	C	1.055876	-0.153257	-0.384141
C64	C	1.555876	0.346743	0.115859
C65	C	0.979823	-0.186673	-0.356474
C66	C	1.479823	0.313327	0.143526
C67	C	0.905033	-0.147165	-0.329275
C68	C	1.405033	0.352835	0.170725
C69	C	0.906306	-0.074251	-0.329732
C70	C	1.406306	0.425749	0.170268
N71	N	0.934502	-0.308775	-0.283207
N72	N	1.434502	0.191225	0.216793
N73	N	0.933298	-0.378041	-0.282772
N74	N	1.433298	0.121959	0.217228
C75	C	0.975981	-0.406356	-0.355096
C76	C	1.475981	0.093644	0.144904
N77	N	1.019928	-0.362792	-0.427864
N78	N	1.519928	0.137208	0.072136
N79	N	1.021136	-0.293522	-0.428295
N80	N	1.521136	0.206478	0.071705
C81	C	0.978434	-0.265735	-0.355975
C82	C	1.478434	0.234265	0.144025
C83	C	1.049384	-0.524915	-0.381814
C84	C	1.549384	-0.024915	0.118186
C85	C	1.048105	-0.597828	-0.381372
C86	C	1.548105	-0.097828	0.118628
C87	C	0.897262	-0.591736	-0.326495
C88	C	1.397262	-0.091736	0.173505
C89	C	0.898540	-0.518823	-0.326948
C90	C	1.398540	-0.018823	0.173052
C91	C	0.974604	-0.485417	-0.354604
C92	C	1.474604	0.014583	0.145396
C93	C	1.128528	0.169452	-0.410595
C94	C	1.628528	0.669452	0.089405
C95	C	1.220388	0.177260	-0.444022
C96	C	1.720388	0.677260	0.055978
C97	C	0.970703	0.291156	-0.353199
C98	C	1.470703	0.791156	0.146801
C99	C	0.972051	0.368761	-0.353705
C100	C	1.472051	0.868761	0.146295
N101	N	1.030795	0.122647	-0.137607
N102	N	1.530795	0.622647	0.362393
N103	N	0.923635	0.205262	-0.573481
N104	N	1.423635	0.705262	-0.073481
C105	C	0.831612	0.276172	0.302477
C106	C	1.331612	0.776172	0.802477
C107	C	0.855344	0.257887	0.398868
C108	C	1.355344	0.757887	0.898868
C109	C	0.968219	0.170899	0.357782
C110	C	1.468219	0.670899	0.857782
C111	C	0.944494	0.189174	0.261386
C112	C	1.444494	0.689174	0.761386
C113	C	0.876191	0.241812	0.233741
C114	C	1.376191	0.741812	0.733741
C115	C	0.989073	0.154814	0.192650
C116	C	1.489073	0.654814	0.692650
C117	C	0.965353	0.173091	0.096262
C118	C	1.465353	0.673091	0.596262
C119	C	0.897054	0.225728	0.068608
C120	C	1.397054	0.725728	0.568608
C121	C	0.852471	0.260088	0.137353
C122	C	1.352471	0.760088	0.637353
C123	C	1.057381	0.102181	0.220295
C124	C	1.557381	0.602181	0.720295
C125	C	1.101959	0.067821	0.151560
C126	C	1.601959	0.567821	0.651560
C127	C	1.078236	0.086093	0.055170
C128	C	1.578236	0.586093	0.555170
C129	C	1.009937	0.138730	0.027517
C130	C	1.509937	0.638730	0.527517
C131	C	1.122819	0.051733	-0.013574
C132	C	1.622819	0.551733	0.486426
C133	C	1.099099	0.070009	-0.109962
C134	C	1.599099	0.570009	0.390038
C135	C	0.986216	0.157007	-0.068871
C136	C	1.486216	0.657007	0.431129
H137	H	0.347776	0.219962	-0.655360
H138	H	0.847776	0.719962	-0.155360
H139	H	0.688800	0.178682	-0.415619
H140	H	1.188800	0.678682	0.084381
Br141	Br	0.660142	0.197077	-0.513042
Br142	Br	1.160142	0.697077	-0.013042
H143	H	0.819036	0.285873	0.454831
H144	H	1.319036	0.785873	0.954831
H145	H	0.845410	-0.042092	-0.307581
H146	H	1.345410	0.457908	0.192419
H147	H	1.178438	0.008880	0.008946
H148	H	1.678438	0.508880	0.508946
Br149	Br	0.294271	0.130851	-0.198052
Br150	Br	0.794271	0.630851	0.301948
H151	H	0.191177	0.206648	-0.598403
H152	H	0.691177	0.706648	-0.098403
Br153	Br	0.797806	0.114674	-0.075904
Br154	Br	1.297806	0.614674	0.424096
H155	H	0.843109	-0.174376	-0.306750
H156	H	1.343109	0.325624	0.193250
H157	H	0.606648	0.107965	-0.055727
H158	H	1.106648	0.607965	0.444273
H159	H	0.456663	0.112783	-0.092113
H160	H	0.956663	0.612783	0.407887
Br161	Br	1.159605	0.023380	-0.203252
Br162	Br	1.659605	0.523380	0.296748
Br163	Br	0.510055	0.225721	-0.672818
Br164	Br	1.010055	0.725721	-0.172818
H165	H	1.119086	-0.053149	-0.407112
H166	H	1.619086	0.446851	0.092888
Br167	Br	1.149598	-0.651433	-0.418300
Br168	Br	1.649598	-0.151433	0.081700
H169	H	0.265630	0.149246	-0.295471
H170	H	0.765630	0.649246	0.204529
Br171	Br	0.893506	0.228435	-0.106389
Br172	Br	1.393506	0.728435	0.393611
H173	H	0.835337	-0.618942	-0.303972
H174	H	1.335337	-0.118942	0.196028
H175	H	1.116771	-0.185422	-0.406296
H176	H	1.616771	0.314578	0.093704
Br177	Br	1.152613	-0.479576	-0.419337
Br178	Br	1.652613	0.020424	0.080663
Br179	Br	0.797048	-0.465215	-0.290030
Br180	Br	1.297048	0.034785	0.209970
H181	H	0.877745	0.240610	-0.009879
H182	H	1.377745	0.740610	0.490121
H183	H	0.796846	0.302946	0.114847
H184	H	1.296846	0.802946	0.614847
Br185	Br	0.738901	0.347600	0.264959
Br186	Br	1.238901	0.847600	0.764959
Br187	Br	1.060918	0.099468	0.395304
Br188	Br	1.560918	0.599468	0.895304
Br189	Br	1.194658	-0.003611	0.189082
Br190	Br	1.694658	0.496389	0.689082
H191	H	1.076693	0.087304	0.298781
H192	H	1.576693	0.587304	0.798781
