data_functionalizedCrystal
_audit_creation_method	'MofGen! by Chris Wilmer'
_symmetry_space_group_name_H-M	'P1'
_symmetry_Int_Tables_number	1
_symmetry_cell_setting	triclinic
loop_
_symmetry_equiv_pos_as_xyz
  x,y,z
_cell_length_a	16.992695
_cell_length_b	16.992694
_cell_length_c	16.053802
_cell_angle_alpha	87.240756
_cell_angle_beta	92.750682
_cell_angle_gamma	90.668223
loop_
_atom_site_label
_atom_site_type_symbol
_atom_site_fract_x
_atom_site_fract_y
_atom_site_fract_z
O1	O	0.170018	1.047735	0.069326
O2	O	0.503351	1.381069	0.402659
O3	O	0.836684	1.714402	0.735993
O4	O	0.168188	0.819334	0.069351
O5	O	0.501521	1.152667	0.402684
O6	O	0.834854	1.486001	0.736017
O7	O	0.054902	0.932619	0.069332
O8	O	0.388236	1.265953	0.402665
O9	O	0.721569	1.599286	0.735998
O10	O	0.283303	0.934450	0.069345
O11	O	0.616636	1.267783	0.402678
O12	O	0.949970	1.601117	0.736012
O13	O	0.048686	0.938849	-0.069528
O14	O	0.382020	1.272182	0.263805
O15	O	0.715353	1.605515	0.597139
O16	O	0.161972	0.825563	-0.069509
O17	O	0.495305	1.158897	0.263824
O18	O	0.828638	1.492230	0.597157
O19	O	0.163802	1.053965	-0.069534
O20	O	0.497135	1.387298	0.263799
O21	O	0.830468	1.720631	0.597133
Zn22	Zn	0.161900	0.940753	-0.091569
Zn23	Zn	0.495233	1.274086	0.241765
Zn24	Zn	0.828567	1.607420	0.575098
Zn25	Zn	0.170090	0.932546	0.091385
Zn26	Zn	0.503423	1.265879	0.424719
Zn27	Zn	0.836756	1.599212	0.758052
O28	O	0.277087	0.940679	-0.069515
O29	O	0.610420	1.274013	0.263818
O30	O	0.943754	1.607346	0.597152
C31	C	0.162724	0.793088	-0.000076
C32	C	0.496057	1.126422	0.333257
C33	C	0.829391	1.459755	0.666590
C34	C	0.155696	0.705603	-0.000067
C35	C	0.489029	1.038937	0.333266
C36	C	0.822362	1.372270	0.666600
C37	C	0.223514	0.659612	-0.000064
C38	C	0.556847	0.992946	0.333270
C39	C	0.890180	1.326279	0.666603
C40	C	0.216904	0.577412	-0.000076
C41	C	0.550238	0.910746	0.333258
C42	C	0.883571	1.244079	0.666591
C43	C	0.142476	0.541204	-0.000085
C44	C	0.475810	0.874538	0.333249
C45	C	0.809143	1.207871	0.666582
C46	C	0.074653	0.587202	-0.000091
C47	C	0.407986	0.920535	0.333243
C48	C	0.741320	1.253868	0.666576
C49	C	0.081263	0.669401	-0.000085
C50	C	0.414596	1.002734	0.333249
C51	C	0.747930	1.336067	0.666582
C52	C	0.115081	0.295891	-0.000109
C53	C	0.448414	0.629224	0.333225
C54	C	0.781747	0.962558	0.666558
C55	C	0.108476	0.213686	-0.000112
C56	C	0.441809	0.547019	0.333221
C57	C	0.775143	0.880353	0.666555
C58	C	0.250728	0.203902	-0.000099
C59	C	0.584061	0.537236	0.333234
C60	C	0.917395	0.870569	0.666568
C61	C	0.257332	0.286103	-0.000088
C62	C	0.590665	0.619436	0.333245
C63	C	0.923998	0.952770	0.666579
C64	C	0.189508	0.332093	-0.000098
C65	C	0.522841	0.665427	0.333235
C66	C	0.856175	0.998760	0.666569
N67	N	0.135719	0.457183	-0.000094
N68	N	0.469052	0.790516	0.333239
N69	N	0.802385	1.123849	0.666572
N70	N	0.196266	0.416114	-0.000094
N71	N	0.529599	0.749447	0.333239
N72	N	0.862933	1.082780	0.666572
C73	C	0.022434	0.933378	-0.000098
C74	C	0.355768	1.266712	0.333236
C75	C	0.689101	1.600045	0.666569
C76	C	-0.065050	0.926349	-0.000097
C77	C	0.268283	1.259683	0.333237
C78	C	0.601616	1.593016	0.666570
C79	C	-0.111042	0.994168	-0.000105
C80	C	0.222292	1.327501	0.333228
C81	C	0.555625	1.660834	0.666562
C82	C	-0.193242	0.987558	-0.000096
C83	C	0.140091	1.320892	0.333237
C84	C	0.473425	1.654225	0.666570
C85	C	-0.229450	0.913130	-0.000086
C86	C	0.103884	1.246464	0.333248
C87	C	0.437217	1.579797	0.666581
C88	C	-0.183452	0.845307	-0.000075
C89	C	0.149881	1.178640	0.333258
C90	C	0.483214	1.511974	0.666592
C91	C	-0.101253	0.851917	-0.000078
C92	C	0.232080	1.185250	0.333256
C93	C	0.565413	1.518583	0.666589
C94	C	-0.474763	0.885735	-0.000071
C95	C	-0.141430	1.219069	0.333262
C96	C	0.191903	1.552402	0.666596
C97	C	-0.556969	0.879131	-0.000071
C98	C	-0.223635	1.212464	0.333262
C99	C	0.109698	1.545797	0.666596
C100	C	-0.566753	1.021383	-0.000091
C101	C	-0.233419	1.354716	0.333242
C102	C	0.099914	1.688050	0.666576
C103	C	-0.484552	1.027986	-0.000099
C104	C	-0.151218	1.361320	0.333235
C105	C	0.182115	1.694653	0.666568
C106	C	-0.438561	0.960163	-0.000083
C107	C	-0.105228	1.293496	0.333250
C108	C	0.228105	1.626829	0.666583
N109	N	-0.313472	0.906373	-0.000079
N110	N	0.019862	1.239706	0.333254
N111	N	0.353195	1.573040	0.666587
N112	N	-0.354541	0.966921	-0.000084
N113	N	-0.021207	1.300254	0.333250
N114	N	0.312126	1.633587	0.666583
C115	C	0.309555	0.939920	-0.000084
C116	C	0.642889	1.273254	0.333250
C117	C	0.976222	1.606587	0.666583
C118	C	0.397040	0.946949	-0.000079
C119	C	0.730373	1.280282	0.333254
C120	C	1.063707	1.613616	0.666588
C121	C	0.169265	1.080210	-0.000105
C122	C	0.502599	1.413543	0.333228
C123	C	0.835932	1.746877	0.666561
C124	C	0.176294	1.167695	-0.000109
C125	C	0.509627	1.501028	0.333224
C126	C	0.842961	1.834362	0.666558
N127	N	0.175673	0.926944	0.216247
N128	N	0.509006	1.260278	0.549580
N129	N	0.842340	1.593611	0.882913
N130	N	0.156310	0.946360	-0.216430
N131	N	0.489644	1.279694	0.116903
N132	N	0.822977	1.613027	0.450237
C133	C	0.127575	0.975252	0.259933
C134	C	0.460908	1.308585	0.593266
C135	C	0.794241	1.641919	0.926599
C136	C	0.131479	0.971332	0.347340
C137	C	0.464812	1.304665	0.680673
C138	C	0.798145	1.637999	1.014007
C139	C	0.183478	0.919100	0.391060
C140	C	0.516811	1.252433	0.724393
C141	C	0.850144	1.585766	1.057726
C142	C	0.231581	0.870790	0.347368
C143	C	0.564915	1.204123	0.680701
C144	C	0.898248	1.537457	1.014034
C145	C	0.227681	0.874714	0.259962
C146	C	0.561014	1.208048	0.593295
C147	C	0.894348	1.541381	0.926629
C148	C	0.200514	0.901975	0.652472
C149	C	0.533847	1.235309	0.985806
C150	C	0.867180	1.568642	1.319139
C151	C	0.204409	0.898053	0.739884
C152	C	0.537742	1.231386	1.073218
C153	C	0.871076	1.564719	1.406551
C154	C	0.104307	0.998596	0.739850
C155	C	0.437640	1.331929	1.073184
C156	C	0.770973	1.665263	1.406517
C157	C	0.100407	1.002513	0.652443
C158	C	0.433741	1.335846	0.985776
C159	C	0.767074	1.669179	1.319110
C160	C	0.148514	0.954206	0.608758
C161	C	0.481847	1.287539	0.942092
C162	C	0.815181	1.620873	1.275425
N163	N	0.187468	0.915090	0.480404
N164	N	0.520801	1.248423	0.813738
N165	N	0.854134	1.581756	1.147071
N166	N	0.144528	0.958221	0.519416
N167	N	0.477861	1.291554	0.852749
N168	N	0.811194	1.624887	1.186082
H169	H	0.026038	0.706846	-0.000087
H170	H	0.359371	1.040179	0.333247
H171	H	0.692705	1.373513	0.666580
H172	H	-0.604207	1.076601	-0.000102
H173	H	-0.270873	1.409934	0.333232
H174	H	0.062460	1.743267	0.666565
H175	H	0.272129	0.539969	-0.000072
H176	H	0.605463	0.873303	0.333261
H177	H	0.938796	1.206636	0.666595
H178	H	0.239683	0.862640	0.616911
H179	H	0.573016	1.195974	0.950245
H180	H	0.906349	1.529307	1.283578
H181	H	-0.230685	1.042784	-0.000105
H182	H	0.102648	1.376117	0.333228
H183	H	0.435982	1.709450	0.666562
H184	H	-0.455077	1.088593	-0.000108
H185	H	-0.121744	1.421927	0.333226
H186	H	0.211589	1.755260	0.666559
H187	H	-0.586447	0.818520	-0.000076
H188	H	-0.253113	1.151853	0.333258
H189	H	0.080220	1.485187	0.666591
H190	H	0.047865	0.184209	-0.000119
H191	H	0.381198	0.517542	0.333215
H192	H	0.714531	0.850875	0.666548
H193	H	0.059854	0.333327	-0.000118
H194	H	0.393187	0.666660	0.333216
H195	H	0.726520	0.999993	0.666549
H196	H	-0.437328	0.830508	-0.000059
H197	H	-0.103994	1.163841	0.333274
H198	H	0.229339	1.497175	0.666608
H199	H	-0.212939	0.784705	-0.000061
H200	H	0.120394	1.118039	0.333273
H201	H	0.453728	1.451372	0.666606
H202	H	-0.081568	1.054775	-0.000119
H203	H	0.251765	1.388109	0.333214
H204	H	0.585099	1.721442	0.666548
H205	H	-0.063808	0.796691	-0.000071
H206	H	0.269526	1.130025	0.333263
H207	H	0.602859	1.463358	0.666596
H208	H	0.305946	0.166449	-0.000092
H209	H	0.639279	0.499782	0.333241
H210	H	0.972612	0.833115	0.666574
H211	H	0.085228	1.017782	0.224342
H212	H	0.418561	1.351115	0.557675
H213	H	0.751895	1.684448	0.891008
H214	H	0.092314	1.010668	0.382909
H215	H	0.425647	1.344002	0.716242
H216	H	0.758980	1.677335	1.049575
H217	H	0.058066	1.045044	0.616848
H218	H	0.391399	1.378378	0.950181
H219	H	0.724732	1.711711	1.283515
H220	H	0.014051	0.557715	-0.000110
H221	H	0.347385	0.891049	0.333223
H222	H	0.680718	1.224382	0.666557
H223	H	0.065141	1.037926	0.775426
H224	H	0.398475	1.371259	1.108760
H225	H	0.731808	1.704593	1.442093
H226	H	0.273924	0.828264	0.382970
H227	H	0.607258	1.161597	0.716303
H228	H	0.940591	1.494931	1.049636
H229	H	0.246755	0.855515	0.775477
H230	H	0.580088	1.188849	1.108810
H231	H	0.913422	1.522182	1.442144
H232	H	0.284121	0.689086	-0.000056
H233	H	0.617454	1.022420	0.333278
H234	H	0.950788	1.355753	0.666611
H235	H	0.266849	0.835378	0.224394
H236	H	0.600182	1.168711	0.557727
H237	H	0.933516	1.502045	0.891060
H238	H	0.317939	0.315577	-0.000071
H239	H	0.651272	0.648910	0.333263
H240	H	0.984606	0.982244	0.666596
