data_functionalizedCrystal
_audit_creation_method	'MofGen! by Chris Wilmer'
_symmetry_space_group_name_H-M	'P1'
_symmetry_Int_Tables_number	1
_symmetry_cell_setting	triclinic
loop_
_symmetry_equiv_pos_as_xyz
  x,y,z
_cell_length_a	10.723024
_cell_length_b	15.995292
_cell_length_c	9.198806
_cell_angle_alpha	90.000009
_cell_angle_beta	89.996352
_cell_angle_gamma	83.968243
loop_
_atom_site_label
_atom_site_type_symbol
_atom_site_fract_x
_atom_site_fract_y
_atom_site_fract_z
O1	O	1.655653	0.117438	-0.120872
O2	O	1.292354	0.128679	-0.120876
O3	O	1.483972	0.001225	-0.120876
O4	O	1.464035	0.244892	-0.120872
O5	O	1.483957	0.001224	0.120909
O6	O	1.292339	0.128678	0.120909
O7	O	1.655638	0.117437	0.120913
Cu8	Cu	1.473987	0.123058	0.142988
Cu9	Cu	1.474005	0.123058	-0.142951
O10	O	1.464019	0.244892	0.120913
C11	C	1.245857	0.127861	0.000016
C12	C	1.107335	0.125413	0.000014
C13	C	1.483153	-0.029976	0.000013
C14	C	1.480720	-0.122943	0.000002
C15	C	1.031420	0.196730	0.000015
C16	C	0.888250	0.194202	0.000013
C17	C	1.471777	-0.460733	0.000015
C18	C	1.610082	-0.436626	0.000557
C19	C	1.612711	-0.339935	0.000007
C20	C	1.476215	-0.293151	0.000010
C21	C	1.407077	-0.322649	-0.138058
C22	C	1.405412	-0.419449	-0.138168
C23	C	1.402571	-0.419323	0.136787
C24	C	1.407696	-0.322801	0.138606
C25	C	1.478716	-0.198441	0.000002
C26	C	1.469272	-0.555443	0.000014
C27	C	1.702134	0.118256	0.000018
C28	C	1.840657	0.120703	0.000011
C29	C	1.464838	0.276092	0.000021
C30	C	1.467271	0.369059	0.000023
N31	N	1.473983	0.123057	0.344102
N32	N	1.474018	0.123052	-0.344065
C33	C	1.554442	0.069307	0.416299
C34	C	1.554461	0.069304	0.583711
H35	H	1.072420	0.259658	0.000024
H36	H	1.405110	0.169070	0.406230
H37	H	0.905880	0.059647	0.000001
Cl38	Cl	0.787545	0.288468	0.000002
H39	H	1.066335	0.062485	-0.000024
Cl40	Cl	1.367665	0.194111	0.560095
H41	H	1.663385	-0.464317	0.099571
Cl42	Cl	1.696279	-0.310076	0.152831
Cl43	Cl	1.660494	-0.001930	0.320389
H44	H	1.663101	-0.465339	-0.097900
H45	H	1.667190	-0.321218	-0.099137
H46	H	1.623349	0.023289	0.645798
Cl47	Cl	1.479367	-0.460431	-0.297508
H48	H	1.304006	-0.434582	-0.144422
H49	H	1.306635	-0.291358	-0.143189
H50	H	1.455101	-0.302313	-0.240808
Cl51	Cl	1.469365	-0.462629	0.298357
H52	H	1.458039	-0.303947	0.240747
Cl53	Cl	1.253871	-0.272787	0.151486
H54	H	1.300768	-0.433898	0.137719
