data_functionalizedCrystal
_audit_creation_method	'MofGen! by Chris Wilmer'
_symmetry_space_group_name_H-M	'P1'
_symmetry_Int_Tables_number	1
_symmetry_cell_setting	triclinic
loop_
_symmetry_equiv_pos_as_xyz
  x,y,z
_cell_length_a	17.000383
_cell_length_b	14.044202
_cell_length_c	12.503572
_cell_angle_alpha	86.143857
_cell_angle_beta	86.762721
_cell_angle_gamma	95.603498
loop_
_atom_site_label
_atom_site_type_symbol
_atom_site_fract_x
_atom_site_fract_y
_atom_site_fract_z
O1	O	1.054320	-0.039798	0.089401
O2	O	1.554320	0.460202	0.589401
O3	O	0.825017	-0.073994	0.089393
O4	O	1.325017	0.426006	0.589393
O5	O	0.936225	0.080804	0.089368
O6	O	1.436225	0.580804	0.589368
O7	O	0.943113	-0.194595	0.089426
O8	O	1.443113	0.305405	0.589426
O9	O	0.944591	0.092459	-0.089276
O10	O	1.444591	0.592459	0.410724
O11	O	0.833384	-0.062339	-0.089251
O12	O	1.333384	0.437661	0.410749
O13	O	1.062687	-0.028142	-0.089243
O14	O	1.562687	0.471858	0.410757
Cu15	Cu	0.948799	-0.044176	-0.105559
Cu16	Cu	1.448799	0.455824	0.394441
Cu17	Cu	0.938905	-0.057960	0.105708
Cu18	Cu	1.438905	0.442040	0.605708
O19	O	0.951480	-0.182940	-0.089218
O20	O	1.451480	0.317060	0.410782
C21	C	0.799678	-0.070003	0.000069
C22	C	1.299678	0.429997	0.500069
C23	C	0.711707	-0.075464	0.000065
C24	C	1.211707	0.424536	0.500065
C25	C	0.213993	-0.110731	0.000112
C26	C	0.713993	0.389269	0.500112
C27	C	0.296651	-0.105592	0.000110
C28	C	0.796651	0.394408	0.500110
C29	C	0.341311	-0.016394	0.000083
C30	C	0.841311	0.483606	0.500083
C31	C	0.303309	0.067671	0.000069
C32	C	0.803309	0.567671	0.500069
C33	C	0.220653	0.062530	0.000078
C34	C	0.720653	0.562530	0.500078
C35	C	0.591048	0.003460	0.000060
C36	C	1.091048	0.503460	0.500060
C37	C	0.673711	0.008595	0.000047
C38	C	1.173711	0.508595	0.500047
C39	C	0.667046	-0.164670	0.000091
C40	C	1.167046	0.335330	0.500091
C41	C	0.584389	-0.169802	0.000094
C42	C	1.084389	0.330198	0.500094
C43	C	0.546394	-0.085738	0.000085
C44	C	1.046394	0.414262	0.500085
C45	C	0.425801	-0.011139	0.000078
C46	C	0.925801	0.488861	0.500078
C47	C	0.461905	-0.090994	0.000098
C48	C	0.961905	0.409006	0.500098
C49	C	0.937394	0.121695	0.000040
C50	C	1.437394	0.621695	0.500040
C51	C	0.928404	0.226173	0.000024
C52	C	1.428404	0.726173	0.500024
C53	C	1.088027	-0.032133	0.000083
C54	C	1.588027	0.467867	0.500083
C55	C	1.175996	-0.026673	0.000095
C56	C	1.675996	0.473327	0.500095
C57	C	0.975725	0.480401	0.000054
C58	C	1.475725	0.980401	0.500054
C59	C	0.911978	0.417460	0.000047
C60	C	1.411978	0.917460	0.500047
C61	C	0.921120	0.311018	0.000035
C62	C	1.421120	0.811018	0.500035
C63	C	0.966585	0.586852	0.000067
C64	C	1.466585	1.086852	0.500067
C65	C	0.950309	0.776169	0.000097
C66	C	1.450309	1.276169	0.500097
C67	C	0.959296	0.671693	0.000077
C68	C	1.459296	1.171693	0.500077
N69	N	0.931946	-0.067648	0.254302
N70	N	1.431946	0.432352	0.754302
N71	N	0.955764	-0.034480	-0.254152
N72	N	1.455764	0.465520	0.245848
C73	C	0.921702	-0.081900	0.473420
C74	C	1.421702	0.418100	0.973420
C75	C	0.966005	-0.020232	0.526737
C76	C	1.466005	0.479768	1.026737
C77	C	0.960306	-0.028162	0.648661
C78	C	1.460306	0.471838	1.148661
C79	C	0.927401	-0.073971	0.351484
C80	C	1.427401	0.426029	0.851484
H81	H	0.560123	0.071911	0.000050
H82	H	1.060123	0.571911	0.500050
N83	N	0.834893	0.450121	0.000053
N84	N	1.334893	0.950121	0.500053
N85	N	0.784553	0.422770	0.075348
N86	N	1.284553	0.922770	0.575348
H87	H	0.730113	0.445840	0.075350
H88	H	1.230113	0.945840	0.575350
H89	H	0.177636	-0.183366	0.000126
H90	H	0.677636	0.316634	0.500126
H91	H	1.037161	0.454347	0.000047
H92	H	1.537161	0.954347	0.500047
H93	H	0.327583	-0.174042	0.000135
H94	H	0.827583	0.325958	0.500135
N95	N	1.018934	0.053489	0.469121
N96	N	1.518934	0.553489	0.969121
N97	N	1.023534	0.059927	0.368722
N98	N	1.523534	0.559927	0.868722
H99	H	1.060903	0.112000	0.328025
H100	H	1.560903	0.612000	0.828025
H101	H	0.548031	-0.242437	0.000119
H102	H	1.048031	0.257563	0.500119
H103	H	0.462174	0.061488	0.000052
H104	H	0.962174	0.561488	0.500052
N105	N	0.868757	-0.155595	0.531035
N106	N	1.368757	0.344405	1.031035
N107	N	0.864145	-0.162009	0.631434
N108	N	1.364145	0.337991	1.131434
H109	H	0.826752	-0.214054	0.672137
H110	H	1.326752	0.285946	1.172137
N111	N	0.348930	0.158786	0.000015
N112	N	0.848930	0.658786	0.500015
N113	N	0.345446	0.221121	-0.075308
N114	N	0.845446	0.721121	0.424692
H115	H	0.377665	0.285474	-0.075352
H116	H	0.877665	0.785474	0.424648
N117	N	0.705871	-0.250524	0.000098
N118	N	1.205871	0.249476	0.500098
N119	N	0.779671	-0.245927	0.000087
N120	N	1.279671	0.254073	0.500087
H121	H	0.807092	-0.306565	0.000094
H122	H	1.307092	0.193435	0.500094
H123	H	0.710072	0.081234	0.000030
H124	H	1.210072	0.581234	0.500030
H125	H	0.189717	0.130980	0.000066
H126	H	0.689717	0.630980	0.500066
H127	H	0.425538	-0.163620	0.000125
H128	H	0.925538	0.336380	0.500125
