data_functionalizedCrystal
_audit_creation_method	'MofGen! by Chris Wilmer'
_symmetry_space_group_name_H-M	'P1'
_symmetry_Int_Tables_number	1
_symmetry_cell_setting	triclinic
loop_
_symmetry_equiv_pos_as_xyz
  x,y,z
_cell_length_a	23.196402
_cell_length_b	23.196402
_cell_length_c	23.196401
_cell_angle_alpha	59.997774
_cell_angle_beta	90.004293
_cell_angle_gamma	60.003509
loop_
_atom_site_label
_atom_site_type_symbol
_atom_site_fract_x
_atom_site_fract_y
_atom_site_fract_z
Zr1	Zr	0.555417	0.630988	-0.075649
O2	O	0.463361	0.751265	-0.167702
O3	O	0.583628	0.510722	-0.047434
O4	O	0.583618	0.631004	-0.167709
O5	O	0.463388	0.630967	0.047452
O6	O	0.678489	0.631003	-0.167711
O7	O	0.463371	0.630983	-0.047426
O8	O	0.678507	0.415841	0.047440
O9	O	0.463370	0.846129	-0.167698
O10	O	0.666471	0.560185	-0.035398
O11	O	0.595683	0.560173	0.035411
O12	O	0.595672	0.701789	-0.106198
O13	O	0.524884	0.701777	-0.035389
Zr14	Zr	0.706752	0.630962	0.075668
Zr15	Zr	0.706724	0.630988	-0.075653
Zr16	Zr	0.555445	0.630962	0.075671
Zr17	Zr	0.555432	0.782285	-0.075644
Zr18	Zr	0.706737	0.479664	0.075662
O19	O	0.678541	0.751228	0.047452
O20	O	0.678501	0.751265	-0.167707
O21	O	0.463400	0.751228	0.047457
O22	O	0.798808	0.510684	0.167720
O23	O	0.798769	0.510721	-0.047438
O24	O	0.583668	0.510685	0.167725
O25	O	0.798781	0.630982	-0.047434
O26	O	0.678551	0.630946	0.167727
O27	O	0.583680	0.630946	0.167730
O28	O	0.798798	0.630966	0.047445
O29	O	0.583640	0.846129	-0.167701
O30	O	0.678529	0.415821	0.167719
O31	O	0.798799	0.415820	0.167717
O32	O	0.798777	0.415841	0.047437
O33	O	0.463392	0.846109	-0.047418
O34	O	0.583662	0.846108	-0.047421
O35	O	0.666498	0.560160	0.106216
O36	O	0.737285	0.560172	0.035408
O37	O	0.666486	0.701777	-0.035392
O38	O	0.595698	0.701765	0.035416
C39	C	0.631065	0.441725	0.000002
C40	C	0.631059	0.377495	-0.000000
C41	C	0.683334	0.295058	0.052263
C42	C	0.683339	0.234697	0.052270
C43	C	0.631074	0.256779	0.000002
C44	C	0.578789	0.339231	-0.052266
C45	C	0.578782	0.399589	-0.052267
C46	C	0.614789	0.201203	-0.063795
C47	C	0.614801	0.140844	-0.063794
C48	C	0.631093	0.070618	0.000005
C49	C	0.647388	0.060748	0.063807
C50	C	0.647380	0.121106	0.063806
C51	C	0.631076	0.191337	-0.000003
C52	C	0.683376	-0.077273	0.052280
C53	C	0.683377	-0.137633	0.052287
C54	C	0.578829	-0.033096	-0.052255
C55	C	0.578827	0.027261	-0.052256
C56	C	0.631104	0.005167	0.000011
C57	C	0.441821	0.630975	0.000014
C58	C	0.377587	0.630975	0.000015
C59	C	-0.085243	0.630975	0.052268
C60	C	-0.024885	0.630969	0.052274
C61	C	0.005287	0.630979	0.000004
C62	C	-0.024894	0.630974	-0.052266
C63	C	-0.085246	0.630971	-0.052266
C64	C	0.077145	0.678494	-0.063794
C65	C	0.137494	0.678502	-0.063794
C66	C	0.191435	0.630984	0.000004
C67	C	0.185015	0.583468	0.063807
C68	C	0.124663	0.583466	0.063806
C69	C	0.070729	0.630982	-0.000002
C70	C	0.287057	0.630977	0.052279
C71	C	0.347419	0.630967	0.052285
C72	C	0.347405	0.630979	-0.052260
C73	C	0.287049	0.630982	-0.052260
C74	C	0.256877	0.630985	0.000009
C75	C	0.820348	0.630974	0.000005
C76	C	0.884582	0.630974	0.000003
C77	C	0.631050	0.631007	-0.189270
C78	C	0.631038	0.631018	-0.253510
C79	C	0.631104	0.820225	0.000016
C80	C	0.631110	0.884454	0.000019
C81	C	0.683304	0.631020	-0.283674
C82	C	0.683320	0.631003	-0.344021
C83	C	0.631058	0.631002	-0.374209
C84	C	0.578787	0.630996	-0.344035
C85	C	0.578777	0.631004	-0.283685
C86	C	0.567280	0.678495	-0.493587
C87	C	0.567290	0.678492	-0.553938
C88	C	0.631089	0.630973	-0.560345
C89	C	0.694883	0.583467	-0.506399
C90	C	0.694873	0.583476	-0.446049
C91	C	0.631064	0.630992	-0.439647
C92	C	0.683377	0.630955	-0.655943
C93	C	0.683393	0.630934	-0.716289
C94	C	0.578854	0.630935	-0.716306
C95	C	0.578844	0.630948	-0.655958
C96	C	0.631105	0.630962	-0.625782
C97	C	0.631120	0.630942	0.189288
C98	C	0.631131	0.630931	0.253528
C99	C	0.820329	0.441724	-0.000002
C100	C	0.884556	0.377495	-0.000006
C101	C	0.631100	0.441692	0.189281
C102	C	0.631106	0.377452	0.253519
C103	C	0.820364	0.441692	0.189277
C104	C	0.884603	0.377451	0.253513
C105	C	0.441805	0.820258	-0.189259
C106	C	0.377566	0.884498	-0.253494
C107	C	0.441840	0.820225	0.000021
C108	C	0.377613	0.884455	0.000024
C109	C	0.631069	0.820257	-0.189263
C110	C	0.631063	0.884498	-0.253500
C111	C	0.877754	0.347338	-0.036974
C112	C	0.938097	0.286996	-0.036992
C113	C	1.005242	0.256807	-0.000037
C114	C	1.012042	0.286969	0.036932
C115	C	0.951700	0.347315	0.036945
C116	C	0.668073	0.347277	0.320651
C117	C	0.668075	0.286925	0.381015
C118	C	0.631114	0.256744	0.374244
C119	C	0.594143	0.286924	0.307104
C120	C	0.594137	0.347280	0.246742
C121	C	0.951728	0.347289	0.246717
C122	C	1.012093	0.286936	0.307068
C123	C	1.005333	0.256743	0.374213
C124	C	0.938201	0.286910	0.381007
C125	C	0.877837	0.347266	0.320658
C126	C	0.310441	0.914668	-0.246699
C127	C	0.250076	0.975039	-0.307049
C128	C	0.256836	1.005236	-0.374195
C129	C	0.323968	0.975064	-0.380989
C130	C	0.384332	0.914698	-0.320639
C131	C	0.384415	0.914618	0.036986
C132	C	0.324072	0.974977	0.036987
C133	C	0.256928	1.005168	0.000030
C134	C	0.250127	0.975002	-0.036936
C135	C	0.310469	0.914649	-0.036941
C136	C	0.668031	0.914660	-0.246707
C137	C	0.668040	0.975013	-0.307059
C138	C	0.631076	1.005207	-0.374203
C139	C	0.594107	0.975039	-0.380995
C140	C	0.594103	0.914683	-0.320644
H141	H	0.725909	0.167564	0.094831
H142	H	0.207799	1.054312	0.000040
H143	H	0.228935	0.544776	0.115757
O144	O	0.707959	0.254379	0.453422
H145	H	0.701752	0.207346	0.494264
H146	H	0.563996	0.890132	-0.326185
H147	H	0.262492	0.630976	0.094842
H148	H	1.054491	0.207597	0.423348
H149	H	0.601514	0.258387	-0.115752
H150	H	-0.000324	0.630980	-0.094824
H151	H	0.515322	0.717183	-0.488375
H152	H	0.932546	0.262445	-0.067096
O153	O	0.631136	0.191632	0.439351
H154	H	0.663063	0.175715	0.487168
O155	O	1.070319	0.191716	-0.000055
H156	H	1.102185	0.214882	-0.023192
O157	O	0.331414	1.007496	0.076869
H158	H	0.388243	0.976346	0.102577
H159	H	0.631085	1.054353	-0.423339
O160	O	0.522403	0.630994	-0.251145
H161	H	0.531180	0.630993	-0.204106
O162	O	0.177705	1.007568	-0.076796
H163	H	0.136894	1.054597	-0.070572
H164	H	-0.000312	0.630970	0.094836
O165	O	0.739713	0.271232	0.108637
H166	H	0.737148	0.234580	0.161338
O167	O	0.763623	0.532138	-0.387760
H168	H	0.770679	0.572118	-0.380201
H169	H	0.660649	0.003570	0.115758
H170	H	1.066749	0.262380	0.301523
O171	O	0.303129	0.882109	-0.076801
H172	H	0.246300	0.913241	-0.102489
O173	O	0.959040	0.379827	0.076832
H174	H	1.015869	0.348685	0.102531
O175	O	0.805438	0.379780	0.327990
H176	H	0.810886	0.348630	0.384821
H177	H	0.207678	1.054390	-0.423330
O178	O	0.930913	0.254330	0.453430
H179	H	0.984169	0.207285	0.494247
O180	O	0.707910	0.882090	-0.174290
H181	H	0.733623	0.913202	-0.179717
H182	H	0.438986	0.890135	-0.326181
O183	O	0.456832	0.882073	0.076837
H184	H	0.451412	0.913205	0.102525
O185	O	1.084464	0.254399	0.076796
H186	H	1.125275	0.207364	0.070579
O187	O	0.522463	0.630961	-0.623424
H188	H	0.486120	0.630964	-0.654556
O189	O	0.554302	0.254346	0.299805
H190	H	0.560536	0.207295	0.353061
H191	H	0.536235	0.630993	-0.368616
O192	O	0.303141	0.882109	-0.174281
H193	H	0.246320	0.913245	-0.179706
H194	H	0.698171	0.371844	0.326177
H195	H	-0.109815	0.630970	-0.094827
O196	O	0.763703	0.532203	-0.513292
H197	H	0.752996	0.540166	-0.564313
O198	O	0.498487	0.729741	-0.612124
H199	H	0.463943	0.710184	-0.590774
O200	O	0.664943	0.110474	0.132614
H201	H	0.676269	0.051506	0.176980
O202	O	0.739768	-0.226555	0.108652
H203	H	0.776122	-0.231772	0.144987
O204	O	0.707912	1.007547	-0.299726
H205	H	0.733602	0.976417	-0.242896
O206	O	0.554377	0.379710	0.174335
H207	H	0.528725	0.348534	0.179775
O208	O	-0.117773	0.630950	0.108655
H209	H	-0.086640	0.630936	0.145006
H210	H	0.957245	0.371864	0.192049
H211	H	0.195420	0.999595	-0.301504
O212	O	0.522457	-0.009266	-0.108635
H213	H	0.531246	-0.065086	-0.099858
O214	O	0.739677	0.631019	-0.251118
H215	H	0.776029	0.631008	-0.282231
O216	O	0.522455	0.116182	-0.108637
H217	H	0.486116	0.121400	-0.144988
O218	O	0.554238	1.007595	-0.453410
H219	H	0.513389	1.074173	-0.482673
O220	O	0.739749	-0.101092	0.108656
H221	H	0.776095	-0.168561	0.145008
O222	O	0.597224	0.151488	-0.132605
H223	H	0.585879	0.210468	-0.176970
H224	H	0.329464	0.999659	-0.435666
H225	H	0.033229	0.717187	-0.115750
H226	H	0.536234	0.357207	-0.094823
O227	O	0.522403	0.488510	-0.108649
H228	H	0.469708	0.501984	-0.106083
O229	O	0.117741	0.532207	0.132613
H230	H	0.165389	0.499156	0.176979
O231	O	0.254496	0.630993	-0.108640
H232	H	0.207463	0.630984	-0.099857
O233	O	0.379973	0.630957	0.108665
H234	H	0.340763	0.686228	0.106089
O235	O	0.379936	0.630994	-0.108642
H236	H	0.426970	0.631002	-0.099865
H237	H	0.725933	0.630963	-0.631372
H238	H	0.725884	0.631004	-0.368585
O239	O	0.144418	0.729749	-0.132605
H240	H	0.096778	0.762779	-0.176969
H241	H	0.536304	0.630929	-0.740882
O242	O	0.739763	0.630948	-0.748834
H243	H	0.776092	0.630972	-0.717716
H244	H	0.823087	0.371917	-0.067075
