data_functionalizedCrystal
_audit_creation_method	'MofGen! by Chris Wilmer'
_symmetry_space_group_name_H-M	'P1'
_symmetry_Int_Tables_number	1
_symmetry_cell_setting	triclinic
loop_
_symmetry_equiv_pos_as_xyz
  x,y,z
_cell_length_a	16.959455
_cell_length_b	29.839131
_cell_length_c	16.959447
_cell_angle_alpha	89.969651
_cell_angle_beta	89.982507
_cell_angle_gamma	90.038367
loop_
_atom_site_label
_atom_site_type_symbol
_atom_site_fract_x
_atom_site_fract_y
_atom_site_fract_z
Zn1	Zn	1.208291	-0.178897	-0.446889
Zn2	Zn	1.708291	0.321103	0.053111
Zn3	Zn	1.208157	-0.254025	-0.314702
Zn4	Zn	1.708157	0.245975	0.185298
Zn5	Zn	1.076112	-0.178906	-0.314726
Zn6	Zn	1.576112	0.321094	0.185274
Zn7	Zn	1.076035	-0.253997	-0.446841
Zn8	Zn	1.576035	0.246003	0.053159
O9	O	1.142149	-0.216456	-0.380790
O10	O	1.642149	0.283544	0.119210
O11	O	1.318884	-0.188871	-0.429364
O12	O	1.818884	0.311129	0.070636
O13	O	1.190617	-0.244077	-0.204094
O14	O	1.690617	0.255923	0.295906
O15	O	1.093735	-0.116038	-0.332288
O16	O	1.593735	0.383962	0.167712
O17	O	1.318786	-0.244068	-0.332247
O18	O	1.818786	0.255932	0.167753
O19	O	1.190846	-0.116031	-0.429388
O20	O	1.690846	0.383969	0.070612
O21	O	1.093605	-0.188887	-0.204112
O22	O	1.593605	0.311113	0.295888
O23	O	0.965491	-0.188859	-0.332242
O24	O	1.465491	0.311141	0.167758
O25	O	1.093603	-0.244018	-0.557458
O26	O	1.593603	0.255982	-0.057458
O27	O	0.965434	-0.244028	-0.429305
O28	O	1.465434	0.255972	0.070695
O29	O	1.190771	-0.188843	-0.557493
O30	O	1.690771	0.311157	-0.057493
O31	O	1.190542	-0.316889	-0.332200
O32	O	1.690542	0.183111	0.167800
O33	O	1.093473	-0.316868	-0.429282
O34	O	1.593473	0.183132	0.070718
C35	C	0.936783	-0.216441	-0.380771
C36	C	1.436783	0.283559	0.119229
C37	C	0.848926	-0.216446	-0.380782
C38	C	1.348926	0.283554	0.119218
C39	C	0.477456	-0.187707	-0.330354
C40	C	0.977456	0.312293	0.169646
C41	C	0.477445	-0.245243	-0.431270
C42	C	0.977445	0.254757	0.068730
C43	C	0.559991	-0.245237	-0.431265
C44	C	1.059991	0.254763	0.068735
C45	C	0.601273	-0.216465	-0.380803
C46	C	1.101273	0.283535	0.119197
C47	C	0.560009	-0.187700	-0.330346
C48	C	1.060009	0.312300	0.169654
C49	C	0.601261	-0.274004	-0.481716
C50	C	1.101261	0.225996	0.018284
C51	C	0.683812	-0.273999	-0.481713
C52	C	1.183812	0.226001	0.018287
C53	C	0.725096	-0.245225	-0.431254
C54	C	1.225096	0.254775	0.068746
C55	C	0.683827	-0.216459	-0.380795
C56	C	1.183827	0.283541	0.119205
C57	C	0.725109	-0.187687	-0.330333
C58	C	1.225109	0.312313	0.169667
C59	C	0.683841	-0.158918	-0.279878
C60	C	1.183841	0.341082	0.220122
C61	C	0.601293	-0.158926	-0.279887
C62	C	1.101293	0.341074	0.220113
C63	C	0.807644	-0.245217	-0.431245
C64	C	1.307644	0.254783	0.068755
C65	C	0.807662	-0.187681	-0.330325
C66	C	1.307662	0.312319	0.169675
C67	C	1.142006	-0.333179	-0.380750
C68	C	1.642006	0.166821	0.119250
C69	C	1.142017	-0.383113	-0.380760
C70	C	1.642017	0.116887	0.119240
C71	C	1.192785	-0.692755	-0.330313
C72	C	1.692785	-0.192755	0.169687
C73	C	1.192883	-0.880428	-0.330344
C74	C	1.692883	-0.380428	0.169656
O75	O	1.235934	-0.904692	-0.287422
O76	O	1.735934	-0.404692	0.212578
N77	N	1.142313	-0.903898	-0.380849
N78	N	1.642313	-0.403898	0.119151
C79	C	1.091719	-0.880447	-0.431354
C80	C	1.591719	-0.380447	0.068646
O81	O	1.048714	-0.904717	-0.474319
O82	O	1.548714	-0.404717	0.025681
C83	C	1.091626	-0.692775	-0.431327
C84	C	1.591626	-0.192775	0.068673
C85	C	1.142193	-0.669307	-0.380812
C86	C	1.642193	-0.169307	0.119188
C87	C	1.243349	-0.669287	-0.279803
C88	C	1.743349	-0.169287	0.220197
C89	C	1.243321	-0.622372	-0.279793
C90	C	1.743321	-0.122372	0.220207
C91	C	1.192729	-0.598924	-0.330293
C92	C	1.692729	-0.098924	0.169707
C93	C	1.142165	-0.622392	-0.380802
C94	C	1.642165	-0.122392	0.119198
C95	C	1.041036	-0.669325	-0.481835
C96	C	1.541036	-0.169325	0.018165
C97	C	1.041019	-0.622404	-0.481826
C98	C	1.541019	-0.122404	0.018174
C99	C	1.091586	-0.598936	-0.431311
C100	C	1.591586	-0.098936	0.068689
C101	C	1.091546	-0.552029	-0.431292
C102	C	1.591546	-0.052029	0.068708
N103	N	1.142115	-0.528559	-0.380786
N104	N	1.642115	-0.028559	0.119214
C105	C	1.192707	-0.552006	-0.330287
C106	C	1.692707	-0.052006	0.169713
C107	C	1.091770	-0.978978	-0.431364
C108	C	1.591770	-0.478978	0.068636
C109	C	1.091792	-1.025896	-0.431370
C110	C	1.591792	-0.525896	0.068630
C111	C	1.192957	-1.025873	-0.330360
C112	C	1.692957	-0.525873	0.169640
C113	C	1.192930	-0.978955	-0.330351
C114	C	1.692930	-0.478955	0.169649
C115	C	1.142340	-0.955508	-0.380858
C116	C	1.642340	-0.455508	0.119142
C117	C	1.192644	-0.453481	-0.330268
C118	C	1.692644	0.046519	0.169732
C119	C	1.192609	-0.406561	-0.330260
C120	C	1.692609	0.093439	0.169740
C121	C	1.091448	-0.406588	-0.431273
C122	C	1.591448	0.093412	0.068727
C123	C	1.091479	-0.453503	-0.431278
C124	C	1.591479	0.046497	0.068722
C125	C	1.142084	-0.476948	-0.380773
C126	C	1.642084	0.023052	0.119227
O127	O	1.048523	-0.527737	-0.474197
O128	O	1.548523	-0.027737	0.025803
O129	O	1.235718	-0.527729	-0.287341
O130	O	1.735718	-0.027729	0.212659
C131	C	1.192813	-0.739671	-0.330323
C132	C	1.692813	-0.239671	0.169677
C133	C	1.142249	-0.763138	-0.380833
C134	C	1.642249	-0.263138	0.119167
C135	C	1.091657	-0.739691	-0.431332
C136	C	1.591657	-0.239691	0.068668
C137	C	1.142271	-0.810056	-0.380839
C138	C	1.642271	-0.310056	0.119161
C139	C	1.192863	-0.833504	-0.330339
C140	C	1.692863	-0.333504	0.169661
C141	C	1.243433	-0.810034	-0.279834
C142	C	1.743433	-0.310034	0.220166
C143	C	1.243405	-0.763118	-0.279824
C144	C	1.743405	-0.263118	0.220176
C145	C	1.041088	-0.763161	-0.481838
C146	C	1.541088	-0.263161	0.018162
C147	C	1.041119	-0.810076	-0.481843
C148	C	1.541119	-0.310076	0.018157
C149	C	1.091711	-0.833524	-0.431344
C150	C	1.591711	-0.333524	0.068656
C151	C	1.348317	-0.216472	-0.380808
C152	C	1.848317	0.283528	0.119192
C153	C	1.436174	-0.216478	-0.380816
C154	C	1.936174	0.283522	0.119184
C155	C	1.142193	-0.216426	-0.586958
C156	C	1.642193	0.283574	-0.086958
C157	C	1.142212	-0.216414	-0.674814
C158	C	1.642212	0.283586	-0.174814
C159	C	1.142314	-0.099278	-0.380846
C160	C	1.642314	0.400722	0.119154
C161	C	1.142384	-0.049343	-0.380870
C162	C	1.642384	0.450657	0.119130
C163	C	1.091631	-0.245135	-0.716072
C164	C	1.591631	0.254865	-0.216072
C165	C	1.192806	-0.187677	-0.716111
C166	C	1.692806	0.312323	-0.216111
C167	C	1.192823	-0.187662	-0.798657
C168	C	1.692823	0.312338	-0.298657
C169	C	1.142242	-0.216384	-0.839914
C170	C	1.642242	0.283616	-0.339914
C171	C	1.091644	-0.245121	-0.798625
C172	C	1.591644	0.254879	-0.298625
C173	C	1.243414	-0.158923	-0.839952
C174	C	1.743414	0.341077	-0.339952
C175	C	1.243432	-0.158907	-0.922503
C176	C	1.743432	0.341093	-0.422503
C177	C	1.192854	-0.187631	-0.963762
C178	C	1.692854	0.312369	-0.463762
C179	C	1.142255	-0.216369	-0.922468
C180	C	1.642255	0.283631	-0.422468
C181	C	1.091674	-0.245091	-0.963725
C182	C	1.591674	0.254909	-0.463725
C183	C	1.041078	-0.273832	-0.922432
C184	C	1.541078	0.226168	-0.422432
C185	C	1.041067	-0.273845	-0.839884
C186	C	1.541067	0.226155	-0.339884
C187	C	1.192866	-0.187618	-1.046310
C188	C	1.692866	0.312382	-0.546310
C189	C	1.091687	-0.245076	-1.046278
C190	C	1.591687	0.254924	-0.546278
C191	C	1.142150	-0.216454	-0.175423
C192	C	1.642150	0.283546	0.324577
C193	C	1.142285	-0.216340	-0.087567
C194	C	1.642285	0.283660	0.412433
H195	H	0.567644	-0.297432	-0.522794
H196	H	1.067644	0.202568	-0.022794
H197	H	0.841268	-0.164249	-0.289237
H198	H	1.341268	0.335751	0.210763
Br199	Br	1.261322	-0.485292	-0.261726
Br200	Br	1.761322	0.014708	0.238274
Br201	Br	1.261239	-0.374715	-0.261699
Br202	Br	1.761239	0.125285	0.238301
Br203	Br	0.421420	-0.284300	-0.499731
Br204	Br	0.921420	0.215700	0.000269
H205	H	0.999891	-0.297214	-0.956034
H206	H	1.499891	0.202786	-0.456034
Br207	Br	0.545283	-0.119885	-0.211419
Br208	Br	1.045283	0.380115	0.288581
Br209	Br	1.312005	-0.119918	-0.783958
Br210	Br	1.812005	0.380082	-0.283958
H211	H	0.717405	-0.297425	-0.522797
H212	H	1.217405	0.202575	-0.022797
H213	H	0.999874	-0.297244	-0.806256
H214	H	1.499874	0.202756	-0.306256
H215	H	0.841241	-0.268642	-0.472322
H216	H	1.341241	0.231358	0.027678
H217	H	1.050254	-0.387489	-0.472387
H218	H	1.550254	0.112511	0.027613
Br219	Br	1.022972	-0.284141	-0.660036
Br220	Br	1.522972	0.215859	-0.160036
H221	H	1.233984	-0.164291	-0.682515
H222	H	1.733984	0.335709	-0.182515
Br223	Br	1.311963	-0.590530	-0.211245
Br224	Br	1.811963	-0.090530	0.288755
H225	H	1.234054	-0.164214	-1.079927
H226	H	1.734054	0.335786	-0.579927
H227	H	1.284624	-0.829133	-0.238713
H228	H	1.784624	-0.329133	0.261287
H229	H	0.999934	-0.829180	-0.522978
H230	H	1.499934	-0.329180	-0.022978
Br231	Br	1.312020	-0.701100	-0.211260
Br232	Br	1.812020	-0.201100	0.288740
Br233	Br	0.739876	-0.119877	-0.211389
Br234	Br	1.239876	0.380123	0.288611
Br235	Br	0.972422	-0.731347	-0.550382
Br236	Br	1.472422	-0.231347	-0.050382
Br237	Br	1.023044	-0.284062	-1.102264
Br238	Br	1.523044	0.215938	-0.602264
H239	H	1.234107	-0.959850	-0.289218
H240	H	1.734107	-0.459850	0.210782
Br241	Br	0.421454	-0.148661	-0.261888
Br242	Br	0.921454	0.351339	0.238112
H243	H	1.284631	-0.135505	-0.956116
H244	H	1.784631	0.364495	-0.456116
H245	H	1.284581	-0.744014	-0.238690
H246	H	1.784581	-0.244014	0.261310
Br247	Br	1.023151	-1.057739	-0.499916
Br248	Br	1.523151	-0.557739	0.000084
Br249	Br	1.023104	-0.947164	-0.499917
Br250	Br	1.523104	-0.447164	0.000083
Br251	Br	1.261614	-1.057704	-0.261822
Br252	Br	1.761614	-0.557704	0.238178
H253	H	0.999855	-0.688425	-0.522966
H254	H	1.499855	-0.188425	-0.022966
Br255	Br	0.972359	-0.590586	-0.550379
Br256	Br	1.472359	-0.090586	-0.050379
H257	H	1.050306	-0.472612	-0.472414
H258	H	1.550306	0.027388	0.027586
