data_functionalizedCrystal
_audit_creation_method	'MofGen! by Chris Wilmer'
_symmetry_space_group_name_H-M	'P1'
_symmetry_Int_Tables_number	1
_symmetry_cell_setting	triclinic
loop_
_symmetry_equiv_pos_as_xyz
  x,y,z
_cell_length_a	16.109301
_cell_length_b	16.992695
_cell_length_c	15.186229
_cell_angle_alpha	89.995943
_cell_angle_beta	89.999362
_cell_angle_gamma	87.064852
loop_
_atom_site_label
_atom_site_type_symbol
_atom_site_fract_x
_atom_site_fract_y
_atom_site_fract_z
O1	O	1.109856	0.100784	-0.073174
O2	O	1.443189	0.434117	0.260160
O3	O	1.776523	0.767450	0.593493
O4	O	0.868631	0.113326	-0.073188
O5	O	1.201964	0.446659	0.260146
O6	O	1.535298	0.779993	0.593479
O7	O	0.988276	-0.007088	-0.073174
O8	O	1.321610	0.326246	0.260160
O9	O	1.654943	0.659579	0.593493
O10	O	0.990210	0.221197	-0.073188
O11	O	1.323544	0.554531	0.260146
O12	O	1.656877	0.887864	0.593479
O13	O	0.988268	-0.007089	0.073284
O14	O	1.321601	0.326244	0.406617
O15	O	1.654934	0.659577	0.739950
O16	O	0.868622	0.113324	0.073270
O17	O	1.201956	0.446658	0.406603
O18	O	1.535289	0.779991	0.739936
O19	O	1.109847	0.100782	0.073284
O20	O	1.443181	0.434115	0.406617
O21	O	1.776514	0.767449	0.739950
Zn22	Zn	0.989233	0.107053	0.096530
Zn23	Zn	1.322567	0.440386	0.429863
Zn24	Zn	1.655900	0.773720	0.763197
Zn25	Zn	0.989245	0.107055	-0.096434
Zn26	Zn	1.322578	0.440388	0.236899
Zn27	Zn	1.655911	0.773722	0.570233
O28	O	0.990202	0.221196	0.073270
O29	O	1.323535	0.554529	0.406603
O30	O	1.656868	0.887862	0.739936
C31	C	0.837618	0.112817	0.000039
C32	C	1.170951	0.446151	0.333373
C33	C	1.504284	0.779484	0.666706
C34	C	0.745221	0.111294	0.000034
C35	C	1.078554	0.444627	0.333367
C36	C	1.411887	0.777961	0.666701
C37	C	0.527480	0.179203	0.000040
C38	C	0.860813	0.512537	0.333373
C39	C	1.194147	0.845870	0.666707
C40	C	0.440664	0.177766	0.000046
C41	C	0.773997	0.511099	0.333379
C42	C	1.107330	0.844433	0.666713
C43	C	0.451005	0.034899	0.000051
C44	C	0.784338	0.368233	0.333384
C45	C	1.117671	0.701566	0.666718
C46	C	0.537819	0.036337	0.000051
C47	C	0.871153	0.369671	0.333385
C48	C	1.204486	0.703004	0.666718
C49	C	0.576055	0.108492	0.000042
C50	C	0.909388	0.441825	0.333375
C51	C	1.242721	0.775158	0.666708
C52	C	0.402424	0.105616	0.000047
C53	C	0.735757	0.438950	0.333380
C54	C	1.069090	0.772283	0.666713
C55	C	0.308294	0.104057	0.000053
C56	C	0.641627	0.437391	0.333386
C57	C	0.974960	0.770724	0.666720
C58	C	0.670191	0.110051	0.000037
C59	C	1.003524	0.443384	0.333370
C60	C	1.336857	0.776718	0.666704
C61	C	0.985784	-0.036300	0.000055
C62	C	1.319117	0.297033	0.333388
C63	C	1.652451	0.630366	0.666721
C64	C	0.978361	-0.123343	0.000054
C65	C	1.311694	0.209991	0.333387
C66	C	1.645027	0.543324	0.666721
C67	C	1.049987	-0.173601	0.000059
C68	C	1.383320	0.159732	0.333392
C69	C	1.716653	0.493065	0.666726
C70	C	1.043007	-0.255386	0.000050
C71	C	1.376340	0.077947	0.333384
C72	C	1.709673	0.411281	0.666717
C73	C	0.964400	-0.286911	0.000043
C74	C	1.297733	0.046423	0.333376
C75	C	1.631066	0.379756	0.666710
C76	C	0.892768	-0.236645	0.000035
C77	C	1.226102	0.096688	0.333368
C78	C	1.559435	0.430021	0.666702
C79	C	0.899749	-0.154862	0.000038
C80	C	1.233083	0.178471	0.333371
C81	C	1.566416	0.511805	0.666704
C82	C	0.935467	-0.530501	0.000029
C83	C	1.268800	-0.197168	0.333362
C84	C	1.602134	0.136166	0.666696
C85	C	0.928491	-0.612291	0.000029
C86	C	1.261825	-0.278957	0.333363
C87	C	1.595158	0.054376	0.666696
C88	C	1.078731	-0.631026	0.000043
C89	C	1.412064	-0.297692	0.333376
C90	C	1.745397	0.035641	0.666710
C91	C	1.085704	-0.549240	0.000051
C92	C	1.419038	-0.215907	0.333384
C93	C	1.752371	0.117427	0.666717
C94	C	1.014073	-0.498982	0.000038
C95	C	1.347406	-0.165649	0.333372
C96	C	1.680740	0.167685	0.666705
N97	N	0.957263	-0.370508	0.000037
N98	N	1.290596	-0.037174	0.333370
N99	N	1.623930	0.296159	0.666703
N100	N	1.021210	-0.415387	0.000038
N101	N	1.354544	-0.082053	0.333371
N102	N	1.687877	0.251280	0.666705
C103	C	1.140860	0.101291	0.000055
C104	C	1.474194	0.434624	0.333388
C105	C	1.807527	0.767958	0.666722
C106	C	1.233257	0.102814	0.000054
C107	C	1.566591	0.436147	0.333388
C108	C	1.899924	0.769481	0.666721
C109	C	0.992694	0.250408	0.000039
C110	C	1.326027	0.583742	0.333373
C111	C	1.659361	0.917075	0.666706
C112	C	1.000118	0.337451	0.000034
C113	C	1.333451	0.670784	0.333368
C114	C	1.666784	1.004117	0.666701
N115	N	0.989232	0.107051	0.228223
N116	N	1.322565	0.440384	0.561556
N117	N	1.655898	0.773718	0.894889
N118	N	0.989253	0.107051	-0.228127
N119	N	1.322586	0.440384	0.105207
N120	N	1.655919	0.773718	0.438540
C121	C	1.042231	0.053750	0.453952
C122	C	1.375564	0.387083	0.787285
C123	C	1.708898	0.720416	1.120618
C124	C	1.042234	0.053748	0.546141
C125	C	1.375567	0.387081	0.879475
C126	C	1.708900	0.720415	1.212808
C127	C	0.936247	0.160355	0.546138
C128	C	1.269581	0.493688	0.879471
C129	C	1.602914	0.827021	1.212805
C130	C	0.936241	0.160352	0.453950
C131	C	1.269575	0.493685	0.787283
C132	C	1.602908	0.827019	1.120617
C133	C	0.989238	0.107051	0.407859
C134	C	1.322571	0.440384	0.741193
C135	C	1.655905	0.773717	1.074526
C136	C	0.989246	0.107051	0.592237
C137	C	1.322580	0.440385	0.925570
C138	C	1.655913	0.773718	1.258904
C139	C	0.989249	0.107050	0.692193
C140	C	1.322582	0.440383	1.025526
C141	C	1.655915	0.773716	1.358860
C142	C	0.989235	0.107051	0.307897
C143	C	1.322568	0.440384	0.641230
C144	C	1.655901	0.773718	0.974563
H145	H	0.558608	0.237956	0.000039
H146	H	0.891942	0.571289	0.333372
H147	H	1.225275	0.904623	0.666705
H148	H	1.113997	-0.147941	0.000071
H149	H	1.447330	0.185392	0.333404
H150	H	1.780663	0.518726	0.666737
H151	H	0.864477	-0.637954	0.000037
H152	H	1.197811	-0.304621	0.333371
H153	H	1.531144	0.028713	0.666704
H154	H	1.085384	0.010345	0.583667
H155	H	1.418718	0.343678	0.917001
H156	H	1.752051	0.677011	1.250334
H157	H	0.401118	0.235347	0.000046
H158	H	0.734451	0.568680	0.333380
H159	H	1.067784	0.902013	0.666713
F160	F	0.589519	-0.038928	0.000059
F161	F	0.922853	0.294406	0.333392
F162	F	1.256186	0.627739	0.666726
H163	H	0.877139	-0.489590	0.000019
H164	H	1.210473	-0.156257	0.333353
H165	H	1.543806	0.177077	0.666686
F166	F	0.410304	-0.041888	0.000058
F167	F	0.743638	0.291445	0.333391
F168	F	1.076971	0.624779	0.666724
F169	F	0.809109	-0.270198	0.000017
F170	F	1.142442	0.063135	0.333350
F171	F	1.475775	0.396468	0.666684
H172	H	1.137048	-0.671954	0.000051
H173	H	1.470382	-0.338621	0.333385
H174	H	1.803715	-0.005288	0.666718
H175	H	1.101332	-0.296304	0.000056
H176	H	1.434666	0.037029	0.333390
H177	H	1.767999	0.370362	0.666723
H178	H	1.149714	-0.523580	0.000057
H179	H	1.483048	-0.190246	0.333390
H180	H	1.816381	0.143087	0.666724
F181	F	0.823515	-0.101373	0.000029
F182	F	1.156848	0.231960	0.333363
F183	F	1.490181	0.565294	0.666696
F184	F	1.098633	-0.002981	0.404902
F185	F	1.431966	0.330353	0.738235
F186	F	1.765299	0.663686	1.071569
H187	H	0.893100	0.203753	0.583674
H188	H	1.226433	0.537086	0.917008
H189	H	1.559767	0.870419	1.250341
F190	F	0.879832	0.217082	0.404891
F191	F	1.213166	0.550415	0.738225
F192	F	1.546499	0.883749	1.071558
