data_functionalizedCrystal
_audit_creation_method	'MofGen! by Chris Wilmer'
_symmetry_space_group_name_H-M	'P1'
_symmetry_Int_Tables_number	1
_symmetry_cell_setting	triclinic
loop_
_symmetry_equiv_pos_as_xyz
  x,y,z
_cell_length_a	16.109301
_cell_length_b	22.010155
_cell_length_c	16.109301
_cell_angle_alpha	89.994083
_cell_angle_beta	96.538519
_cell_angle_gamma	90.012987
loop_
_atom_site_label
_atom_site_type_symbol
_atom_site_fract_x
_atom_site_fract_y
_atom_site_fract_z
O1	O	1.103146	0.050489	-0.106865
O2	O	0.861084	0.050499	-0.120165
O3	O	0.988764	0.050487	0.007516
O4	O	0.975465	0.050500	-0.234546
O5	O	0.988726	-0.050563	0.007516
O6	O	0.861045	-0.050552	-0.120164
O7	O	1.103107	-0.050562	-0.106865
Cu8	Cu	0.982073	-0.059783	-0.113515
Cu9	Cu	0.982118	0.059720	-0.113515
O10	O	0.975426	-0.050550	-0.234546
C11	C	0.830090	-0.000025	-0.119626
C12	C	0.737794	-0.000022	-0.118011
C13	C	0.515522	-0.000025	-0.190018
C14	C	0.428801	-0.000029	-0.188494
C15	C	0.448676	-0.000035	-0.037006
C16	C	0.535394	-0.000035	-0.038530
C17	C	0.568815	-0.000027	-0.115039
C18	C	0.395376	-0.000031	-0.111990
C19	C	0.301350	-0.000035	-0.110337
C20	C	0.662847	-0.000024	-0.116693
N21	N	0.982047	-0.143836	-0.113514
C22	C	1.032529	-0.563615	-0.163947
C23	C	1.032538	-0.627222	-0.163945
O24	O	1.075430	-0.660113	-0.206820
N25	N	0.982134	-0.659043	-0.113505
C26	C	0.931724	-0.627253	-0.063058
O27	O	0.888852	-0.660159	-0.020155
C28	C	0.931719	-0.563646	-0.063056
C29	C	0.982120	-0.531829	-0.113506
C30	C	1.082926	-0.531797	-0.214392
C31	C	1.082915	-0.468194	-0.214395
C32	C	1.032506	-0.436408	-0.163953
C33	C	0.982109	-0.468226	-0.113509
C34	C	0.881313	-0.531857	-0.012605
C35	C	0.881313	-0.468247	-0.012607
C36	C	0.931714	-0.436429	-0.063057
C37	C	0.931689	-0.372837	-0.063070
N38	N	0.982093	-0.341016	-0.113510
C39	C	1.032502	-0.372802	-0.163951
C40	C	0.931738	-0.760831	-0.063065
C41	C	0.931738	-0.824436	-0.063070
C42	C	1.032554	-0.824401	-0.163956
C43	C	1.032550	-0.760795	-0.163955
C44	C	0.982143	-0.729010	-0.113504
C45	C	1.032474	-0.239231	-0.163954
C46	C	1.032456	-0.175622	-0.163955
C47	C	0.931643	-0.175662	-0.063067
C48	C	0.931657	-0.239265	-0.063068
C49	C	0.982080	-0.271048	-0.113515
O50	O	0.888821	-0.339905	-0.020215
O51	O	1.075374	-0.339887	-0.206840
C52	C	1.134101	-0.000036	-0.107404
C53	C	1.226397	-0.000036	-0.109019
C54	C	0.988206	-0.000038	0.038491
C55	C	0.986591	-0.000039	0.130786
N56	N	0.982151	0.143773	-0.113509
C57	C	0.975984	-0.000023	-0.265521
C58	C	0.977600	-0.000019	-0.357816
C59	C	1.058599	-0.000032	0.353059
C60	C	1.057075	-0.000027	0.439779
C61	C	0.905586	-0.000024	0.419905
C62	C	0.907111	-0.000024	0.333186
C63	C	0.983620	-0.000032	0.299766
C64	C	0.980571	-0.000026	0.473205
C65	C	0.978918	-0.000021	0.567231
C66	C	0.985273	-0.000036	0.205734
H67	H	1.073498	-0.149719	-0.205041
H68	H	0.843295	-0.000019	0.447127
H69	H	0.890599	-0.149771	-0.022001
C70	C	0.824630	-0.000025	0.274560
H71	H	0.778846	-0.000030	0.306882
H72	H	0.822089	0.035213	0.240313
H73	H	0.822068	-0.035269	0.240323
C74	C	1.087929	-0.274183	-0.219451
H75	H	1.117932	-0.246116	-0.249497
H76	H	1.126211	-0.298991	-0.185403
H77	H	1.053844	-0.298998	-0.257709
C78	C	1.142754	-0.000034	0.316298
H79	H	1.187190	-0.000028	0.360461
H80	H	1.146490	-0.035272	0.282886
H81	H	1.146507	0.035209	0.282880
C82	C	1.138365	-0.433203	-0.269881
H83	H	1.168390	-0.461251	-0.299911
H84	H	1.104291	-0.408393	-0.308139
H85	H	1.176641	-0.408387	-0.235816
H86	H	1.073590	-0.734893	-0.205035
C87	C	0.552282	-0.000023	-0.274174
H88	H	0.508119	-0.000028	-0.318610
H89	H	0.585709	0.035215	-0.277923
H90	H	0.585686	-0.035266	-0.277914
C91	C	0.370179	-0.000024	-0.270969
H92	H	0.313745	-0.000031	-0.259107
H93	H	0.380318	0.035217	-0.302341
H94	H	0.380300	-0.035265	-0.302339
C95	C	0.411910	-0.000035	0.047147
H96	H	0.352630	-0.000028	0.037318
H97	H	0.430192	-0.035274	0.078024
H98	H	0.430217	0.035208	0.078013
C99	C	0.594024	-0.000037	0.043948
H100	H	0.650457	-0.000042	0.032080
H101	H	0.583910	0.035200	0.075321
H102	H	0.583885	-0.035281	0.075319
C103	C	1.138376	-0.566752	-0.269887
H104	H	1.168380	-0.538684	-0.299930
H105	H	1.176657	-0.591563	-0.235842
H106	H	1.104290	-0.591564	-0.308148
H107	H	1.073599	-0.850293	-0.205030
C108	C	0.876289	-0.859428	-0.007585
H109	H	0.846272	-0.831382	0.022457
H110	H	0.838019	-0.884249	-0.041639
H111	H	0.910376	-0.884234	0.030677
C112	C	0.876275	-0.725873	-0.007579
H113	H	0.846254	-0.753938	0.022451
H114	H	0.910344	-0.701054	0.030680
H115	H	0.837994	-0.701068	-0.041643
H116	H	0.840272	-0.557752	0.028477
H117	H	0.840265	-0.442371	0.028477
C118	C	0.876194	-0.274266	-0.007601
H119	H	0.846167	-0.246223	0.022435
H120	H	0.837932	-0.299083	-0.041670
H121	H	0.910269	-0.299075	0.030665
C122	C	1.139552	-0.000032	0.498398
H123	H	1.185333	-0.000041	0.466071
H124	H	1.142123	0.035207	0.532636
H125	H	1.142091	-0.035275	0.532644
