data_functionalizedCrystal
_audit_creation_method	'MofGen! by Chris Wilmer'
_symmetry_space_group_name_H-M	'P1'
_symmetry_Int_Tables_number	1
_symmetry_cell_setting	triclinic
loop_
_symmetry_equiv_pos_as_xyz
  x,y,z
_cell_length_a	13.897449
_cell_length_b	13.897441
_cell_length_c	13.897448
_cell_angle_alpha	90.030599
_cell_angle_beta	89.981481
_cell_angle_gamma	89.976606
loop_
_atom_site_label
_atom_site_type_symbol
_atom_site_fract_x
_atom_site_fract_y
_atom_site_fract_z
Zn1	Zn	1.474703	-0.545450	0.383963
Zn2	Zn	1.808036	-0.212116	0.717296
Zn3	Zn	2.141369	0.121217	1.050629
Zn4	Zn	1.474597	-0.384151	0.545285
Zn5	Zn	1.807930	-0.050818	0.878618
Zn6	Zn	2.141263	0.282516	1.211951
Zn7	Zn	1.313392	-0.384161	0.384007
Zn8	Zn	1.646725	-0.050827	0.717341
Zn9	Zn	1.980058	0.282506	1.050674
Zn10	Zn	1.313373	-0.545396	0.545220
Zn11	Zn	1.646707	-0.212063	0.878553
Zn12	Zn	1.980040	0.121270	1.211887
O13	O	1.394016	-0.464789	0.464619
O14	O	1.727349	-0.131456	0.797952
O15	O	2.060683	0.201877	1.131285
O16	O	1.609670	-0.524071	0.405371
O17	O	1.943004	-0.190738	0.738704
O18	O	2.276337	0.142595	1.072038
O19	O	1.453176	-0.249171	0.523937
O20	O	1.786509	0.084163	0.857270
O21	O	2.119842	0.417496	1.190603
O22	O	1.334842	-0.405582	0.249020
O23	O	1.668175	-0.072249	0.582353
O24	O	2.001509	0.261084	0.915687
O25	O	1.609592	-0.405566	0.523893
O26	O	1.942926	-0.072233	0.857227
O27	O	2.276259	0.261101	1.190560
O28	O	1.453356	-0.524081	0.248987
O29	O	1.786690	-0.190747	0.582320
O30	O	2.120023	0.142586	0.915654
O31	O	1.334739	-0.249178	0.405447
O32	O	1.668073	0.084156	0.738780
O33	O	2.001406	0.417489	1.072114
O34	O	1.178408	-0.405530	0.405384
O35	O	1.511741	-0.072197	0.738718
O36	O	1.845074	0.261136	1.072051
O37	O	1.334811	-0.680385	0.523783
O38	O	1.668144	-0.347052	0.857116
O39	O	2.001478	-0.013718	1.190450
O40	O	1.178394	-0.523990	0.523826
O41	O	1.511728	-0.190656	0.857160
O42	O	1.845061	0.142677	1.190493
O43	O	1.453339	-0.680424	0.405308
O44	O	1.786672	-0.347091	0.738642
O45	O	2.120005	-0.013758	1.071975
O46	O	1.453158	-0.405514	0.680258
O47	O	1.786491	-0.072181	1.013591
O48	O	2.119825	0.261152	1.346924
O49	O	1.334708	-0.523980	0.680210
O50	O	1.668041	-0.190647	1.013543
O51	O	2.001375	0.142686	1.346877
C52	C	1.143402	-0.464756	0.464604
C53	C	1.476735	-0.131422	0.797937
C54	C	1.810068	0.201911	1.131271
C55	C	1.036188	-0.464764	0.464621
C56	C	1.369521	-0.131431	0.797954
C57	C	1.702855	0.201902	1.131287
C58	C	0.949118	-0.464780	0.464624
C59	C	1.282451	-0.131447	0.797957
C60	C	1.615785	0.201886	1.131291
C61	C	0.839886	-0.464810	0.464631
C62	C	1.173219	-0.131476	0.797964
C63	C	1.506552	0.201857	1.131297
C64	C	1.394085	-0.716382	0.464533
C65	C	1.727418	-0.383049	0.797867
C66	C	2.060751	-0.049716	1.131200
C67	C	1.394114	-0.823596	0.464497
C68	C	1.727447	-0.490263	0.797830
C69	C	2.060780	-0.156930	1.131164
C70	C	1.394140	-1.019892	0.464432
C71	C	1.727473	-0.686558	0.797765
C72	C	2.060807	-0.353225	1.131099
C73	C	1.394122	-0.910659	0.464471
C74	C	1.727456	-0.577326	0.797804
C75	C	2.060789	-0.243993	1.131137
C76	C	1.645609	-0.464824	0.464634
C77	C	1.978942	-0.131490	0.797968
C78	C	2.312276	0.201843	1.131301
C79	C	1.752823	-0.464838	0.464641
C80	C	2.086156	-0.131505	0.797974
C81	C	2.419490	0.201828	1.131308
C82	C	1.393946	-0.464761	0.715233
C83	C	1.727279	-0.131428	1.048566
C84	C	2.060612	0.201905	1.381900
C85	C	1.394004	-0.464782	0.822447
C86	C	1.727337	-0.131448	1.155780
C87	C	2.060671	0.201885	1.489114
C88	C	1.394003	-0.214175	0.464634
C89	C	1.727337	0.119158	0.797967
C90	C	2.060670	0.452492	1.131301
C91	C	1.394161	-0.106962	0.464399
C92	C	1.727495	0.226372	0.797732
C93	C	2.060828	0.559705	1.131065
C94	C	1.394113	-0.464839	0.213026
C95	C	1.727446	-0.131505	0.546359
C96	C	2.060780	0.201828	0.879692
C97	C	1.394154	-0.464859	0.105812
C98	C	1.727488	-0.131526	0.439145
C99	C	2.060821	0.201807	0.772478
C100	C	1.394105	-0.464842	1.018742
C101	C	1.727438	-0.131509	1.352075
C102	C	2.060772	0.201824	1.685409
C103	C	1.394046	-0.464812	0.909510
C104	C	1.727379	-0.131478	1.242843
C105	C	2.060713	0.201855	1.576176
