data_functionalizedCrystal
_audit_creation_method	'MofGen! by Chris Wilmer'
_symmetry_space_group_name_H-M	'P1'
_symmetry_Int_Tables_number	1
_symmetry_cell_setting	triclinic
loop_
_symmetry_equiv_pos_as_xyz
  x,y,z
_cell_length_a	13.897449
_cell_length_b	13.897447
_cell_length_c	12.759401
_cell_angle_alpha	90.008336
_cell_angle_beta	90.005783
_cell_angle_gamma	90.020810
loop_
_atom_site_label
_atom_site_type_symbol
_atom_site_fract_x
_atom_site_fract_y
_atom_site_fract_z
Zn1	Zn	1.474548	-0.384151	0.594034
Zn2	Zn	1.474479	-0.545414	0.418353
Zn3	Zn	1.313279	-0.384138	0.418367
Zn4	Zn	1.313214	-0.545409	0.593988
O5	O	1.393880	-0.464778	0.506186
O6	O	1.609520	-0.405550	0.570743
O7	O	1.453094	-0.524016	0.271334
O8	O	1.334728	-0.249158	0.441695
O9	O	1.609470	-0.524029	0.441671
O10	O	1.453212	-0.249168	0.570757
O11	O	1.334661	-0.405528	0.271345
O12	O	1.178289	-0.405524	0.441651
O13	O	1.334616	-0.524022	0.741015
O14	O	1.178241	-0.524009	0.570678
O15	O	1.453148	-0.405546	0.741049
O16	O	1.453030	-0.680395	0.441626
O17	O	1.334549	-0.680392	0.570664
C18	C	1.393801	-0.715392	0.506161
C19	C	1.393856	-0.822606	0.506186
C20	C	1.143266	-0.464765	0.506162
C21	C	1.036052	-0.464783	0.506176
C22	C	1.393903	-0.909676	0.506210
C23	C	1.393970	-1.018908	0.506237
C24	C	0.839757	-0.464786	0.506204
C25	C	0.948989	-0.464781	0.506186
C26	C	1.645473	-0.464792	0.506210
C27	C	1.752687	-0.464797	0.506221
C28	C	1.393883	-0.464785	0.780219
C29	C	1.393884	-0.464788	0.896995
C30	C	1.393985	-0.213185	0.506233
C31	C	1.394030	-0.105971	0.506253
C32	C	1.455594	-0.403106	1.061602
C33	C	1.455597	-0.403106	0.951878
C34	C	1.332171	-0.526481	0.951843
C35	C	1.332174	-0.526485	1.061565
C36	C	1.526851	-0.331873	1.061621
C37	C	1.526853	-0.331873	0.951897
C38	C	1.393874	-0.464793	1.233218
C39	C	1.393884	-0.464792	1.116442
H40	H	1.281929	-0.576710	0.907149
H41	H	1.506874	-0.257164	0.922131
H42	H	1.597808	-0.358637	0.917868
N43	N	1.620559	-0.356959	1.098989
N44	N	1.691522	-0.306122	1.075335
H45	H	1.757703	-0.323837	1.101727
N46	N	1.269159	-0.589529	1.117567
N47	N	1.214078	-0.644614	1.068555
H48	H	1.169577	-0.689148	1.108105
N49	N	1.493311	-0.242850	1.104323
N50	N	1.468194	-0.176180	1.044548
H51	H	1.444503	-0.113307	1.074705
