data_functionalizedCrystal
_audit_creation_method	'MofGen! by Chris Wilmer'
_symmetry_space_group_name_H-M	'P1'
_symmetry_Int_Tables_number	1
_symmetry_cell_setting	triclinic
loop_
_symmetry_equiv_pos_as_xyz
  x,y,z
_cell_length_a	27.440280
_cell_length_b	27.440279
_cell_length_c	17.917603
_cell_angle_alpha	63.041827
_cell_angle_beta	89.997815
_cell_angle_gamma	60.007051
loop_
_atom_site_label
_atom_site_type_symbol
_atom_site_fract_x
_atom_site_fract_y
_atom_site_fract_z
Zr1	Zr	0.472457	0.527665	-0.093721
O2	O	0.398061	0.622528	-0.207896
O3	O	0.495240	0.428100	-0.058743
O4	O	0.499701	0.520876	-0.207935
O5	O	0.390107	0.536747	0.059006
O6	O	0.579903	0.520868	-0.207939
O7	O	0.393600	0.529753	-0.058705
O8	O	0.571924	0.354909	0.058938
O9	O	0.398087	0.702706	-0.207871
O10	O	0.564839	0.470787	-0.043801
O11	O	0.502379	0.476013	0.044048
O12	O	0.507631	0.585245	-0.131606
O13	O	0.445170	0.590470	-0.043756
Zr14	Zr	0.594800	0.538807	0.094007
Zr15	Zr	0.600370	0.527652	-0.093728
Zr16	Zr	0.466887	0.538820	0.094014
Zr17	Zr	0.472499	0.655538	-0.093680
Zr18	Zr	0.594758	0.410933	0.093966
O19	O	0.572017	0.638371	0.059029
O20	O	0.579937	0.622510	-0.207906
O21	O	0.390141	0.638390	0.059038
O22	O	0.669196	0.443943	0.208182
O23	O	0.677116	0.428082	-0.058753
O24	O	0.487320	0.443961	0.208192
O25	O	0.677150	0.529724	-0.058720
O26	O	0.567556	0.545596	0.208220
O27	O	0.487354	0.545604	0.208224
O28	O	0.673657	0.536719	0.058990
O29	O	0.499761	0.702696	-0.207876
O30	O	0.567496	0.363776	0.208162
O31	O	0.669170	0.363766	0.208156
O32	O	0.673598	0.354899	0.058932
O33	O	0.393659	0.711573	-0.058647
O34	O	0.495333	0.711562	-0.058652
O35	O	0.559626	0.481227	0.131891
O36	O	0.622087	0.476001	0.044042
O37	O	0.564878	0.590458	-0.043763
O38	O	0.502418	0.595684	0.044087
C39	C	0.533576	0.373285	0.000091
C40	C	0.533558	0.319000	0.000074
C41	C	0.501017	0.086973	0.046005
C42	C	0.501006	0.138003	0.045993
O43	O	0.473289	0.166700	0.085009
N44	N	0.533601	0.160799	0.000125
C45	C	0.566215	0.132559	-0.045726
O46	O	0.593940	0.156635	-0.084741
C47	C	0.566230	0.081527	-0.045709
C48	C	0.533627	0.058738	0.000154
C49	C	0.468418	0.064183	0.091865
C50	C	0.468428	0.013158	0.091875
C51	C	0.501038	-0.015077	0.046025
C52	C	0.533638	0.007713	0.000164
C53	C	0.598846	0.053285	-0.091555
C54	C	0.598858	0.002250	-0.091533
C55	C	0.566256	-0.020540	-0.045670
C56	C	0.566258	-0.071547	-0.045676
N57	N	0.533663	-0.094344	0.000192
C58	C	0.501053	-0.066109	0.046042
C59	C	0.566184	0.239728	-0.045758
C60	C	0.566166	0.290762	-0.045781
C61	C	0.500957	0.296202	0.045940
C62	C	0.500972	0.245170	0.045958
C63	C	0.533588	0.216932	0.000110
C64	C	0.501077	-0.173265	0.046059
C65	C	0.501089	-0.224293	0.046062
C66	C	0.566300	-0.229730	-0.045655
C67	C	0.566286	-0.178704	-0.045662
C68	C	0.533673	-0.150474	0.000201
O69	O	0.593963	-0.100277	-0.084670
O70	O	0.473339	-0.090197	0.085059
C71	C	0.373629	0.533252	0.000151
C72	C	0.319326	0.533257	0.000154
C73	C	-0.015447	0.529367	-0.064706
C74	C	-0.066465	0.529362	-0.064707
O75	O	-0.091204	0.526060	-0.119839
N76	N	-0.093907	0.533217	0.000140
C77	C	-0.070325	0.537069	0.064996
O78	O	-0.098351	0.540347	0.120154
C79	C	-0.019305	0.537070	0.065000
C80	C	0.008131	0.533222	0.000144
C81	C	0.011989	0.525519	-0.129557
C82	C	0.063003	0.525525	-0.129557
C83	C	0.086581	0.529379	-0.064707
C84	C	0.059144	0.533228	0.000144
C85	C	0.004278	0.540918	0.129859
C86	C	0.055301	0.540917	0.129857
C87	C	0.082737	0.537069	0.065001
C88	C	0.133736	0.537089	0.064993
N89	N	0.161177	0.533234	0.000147
C90	C	0.137600	0.529380	-0.064703
C91	C	-0.177468	0.537068	0.064985
C92	C	-0.228489	0.537072	0.064979
C93	C	-0.224625	0.529364	-0.064723
C94	C	-0.173606	0.529364	-0.064720
C95	C	-0.150026	0.533213	0.000139
C96	C	0.244732	0.529393	-0.064699
C97	C	0.295749	0.529403	-0.064696
C98	C	0.291882	0.537108	0.065009
C99	C	0.240868	0.537102	0.065003
C100	C	0.217296	0.533242	0.000145
O101	O	0.158509	0.540386	0.120100
O102	O	0.165636	0.526094	-0.119845
C103	C	0.693628	0.533220	0.000134
C104	C	0.747931	0.533214	0.000131
C105	C	0.540596	0.519282	-0.234685
C106	C	0.542961	0.514547	-0.314383
C107	C	0.533681	0.693186	0.000194
C108	C	0.533699	0.747472	0.000212
C109	C	0.547292	0.505897	-0.460318
C110	C	0.519966	0.560572	-0.539399
C111	C	0.522376	0.555759	-0.620602
C112	C	0.544883	0.510708	-0.379106
C113	C	0.526661	0.547189	0.234970
C114	C	0.524296	0.551925	0.314669
C115	C	0.693576	0.373269	0.000083
C116	C	0.747861	0.318978	0.000063
C117	C	0.526609	0.387239	0.234919
C118	C	0.524226	0.337688	0.314600
C119	C	0.686609	0.387222	0.234910
C120	C	0.738529	0.337667	0.314588
C121	C	0.380648	0.679249	-0.234625
C122	C	0.328728	0.728804	-0.314303
C123	C	0.373681	0.693202	0.000203
C124	C	0.319396	0.747493	0.000223
C125	C	0.540648	0.679233	-0.234634
C126	C	0.543031	0.728783	-0.314314
C127	C	0.743471	0.290760	-0.045808
C128	C	0.794473	0.239754	-0.045845
C129	C	0.849864	0.216963	-0.000005
C130	C	0.854252	0.245186	0.045867
C131	C	0.803251	0.296195	0.045898
C132	C	0.552990	0.317141	0.397880
C133	C	0.550749	0.270591	0.472756
C134	C	0.519748	0.244586	0.464350
C135	C	0.490980	0.265138	0.381061
C136	C	0.493218	0.311690	0.306187
C137	C	0.795520	0.311667	0.306150
C138	C	0.844309	0.265111	0.381008
C139	C	0.836106	0.244552	0.464305
C140	C	0.779109	0.270557	0.472742
C141	C	0.730321	0.317115	0.397884
C142	C	0.271737	0.754810	-0.305864
C143	C	0.222948	0.801382	-0.380723
C144	C	0.231151	0.821944	-0.464020
C145	C	0.288148	0.795936	-0.472457
C146	C	0.336936	0.749368	-0.397599
C147	C	0.323786	0.775716	0.046086
C148	C	0.272785	0.826735	0.046102
C149	C	0.217394	0.849527	0.000259
C150	C	0.213006	0.821302	-0.045609
C151	C	0.264006	0.770287	-0.045629
C152	C	0.574037	0.754774	-0.305880
C153	C	0.576287	0.801325	-0.380742
C154	C	0.547527	0.821888	-0.464037
C155	C	0.516519	0.795892	-0.472469
C156	C	0.514273	0.749338	-0.397608
H157	H	0.441863	0.087166	0.129206
H158	H	0.294820	0.812683	-0.540286
H159	H	0.891388	0.175428	-0.000037
Br160	Br	0.477955	0.644616	-0.550601
H161	H	0.790888	0.216781	-0.083199
H162	H	0.176543	0.822550	-0.373836
H163	H	-0.158275	0.540208	0.117800
H164	H	0.597458	0.738039	-0.238064
Br165	Br	0.929430	0.214246	0.108076
H166	H	0.265047	0.738072	-0.238047
H167	H	0.574177	0.253864	0.540566
Br168	Br	0.424184	-0.017766	0.154128
H169	H	0.383340	0.728194	-0.404480
H170	H	0.549360	0.859796	-0.524986
Br171	Br	-0.032946	0.546140	0.217882
H172	H	0.806833	0.319163	0.083256
Br173	Br	0.589297	0.421858	-0.449122
H174	H	0.474424	0.226619	0.083304
H175	H	0.890715	0.243943	0.374123
Br176	Br	0.618369	0.836598	-0.369277
Br177	Br	0.456700	0.334531	0.108165
H178	H	0.489022	0.728181	-0.404488
H179	H	0.592848	-0.252725	-0.082989
H180	H	0.368883	0.757163	0.083422
H181	H	0.074498	0.544050	0.182676
Br182	Br	0.595071	0.352421	0.409312
H183	H	0.698374	0.309315	-0.083147
Br184	Br	0.477484	0.823812	-0.585519
H185	H	0.683918	0.338278	0.404768
Br186	Br	0.516716	0.181407	0.565975
H187	H	0.469797	0.328413	0.238380
Br188	Br	0.456837	-0.255216	0.108305
Br189	Br	0.610402	0.321695	-0.108044
Br190	Br	0.448910	0.229838	0.369668
H191	H	0.802210	0.328399	0.238332
Br192	Br	0.902326	0.181364	0.565891
H193	H	-0.007202	0.522377	-0.182366
Br194	Br	0.767987	0.242649	0.585795
Br195	Br	0.164931	0.885144	-0.565605
Br196	Br	0.278755	0.865028	0.108358
Br197	Br	0.148184	0.918764	0.000297
Br198	Br	0.137827	0.852241	-0.107817
H199	H	-0.250829	0.540216	0.117783
Br200	Br	0.258038	0.731988	-0.107873
Br201	Br	0.610446	0.201416	-0.107995
H202	H	0.625395	0.071832	-0.128901
Br203	Br	0.643131	-0.036076	-0.153750
Br204	Br	0.610525	-0.147768	-0.107916
Br205	Br	0.456816	-0.134960	0.108302
H206	H	0.225546	0.526249	-0.117512
Br207	Br	0.332979	0.524184	-0.152723
H208	H	-0.151270	0.526230	-0.117531
Br209	Br	-0.256634	0.524132	-0.152734
Br210	Br	0.100235	0.520297	-0.217575
Br211	Br	0.203628	0.542337	0.153015
Br212	Br	0.323887	0.542341	0.153015
