data_functionalizedCrystal
_audit_creation_method	'MofGen! by Chris Wilmer'
_symmetry_space_group_name_H-M	'P1'
_symmetry_Int_Tables_number	1
_symmetry_cell_setting	triclinic
loop_
_symmetry_equiv_pos_as_xyz
  x,y,z
_cell_length_a	6.817900
_cell_length_b	17.982723
_cell_length_c	17.078481
_cell_angle_alpha	96.488097
_cell_angle_beta	99.306161
_cell_angle_gamma	102.447564
loop_
_atom_site_label
_atom_site_type_symbol
_atom_site_fract_x
_atom_site_fract_y
_atom_site_fract_z
V1	V	-3.974462	-0.105235	-0.247698
O2	O	-3.968303	0.005240	-0.242636
O3	O	-3.921209	-0.208839	-0.246338
O4	O	-3.905591	-0.103536	-0.355576
O5	O	-3.984028	-0.100792	-0.132642
V6	V	-4.461371	-0.092030	-0.233896
O7	O	-4.228292	-0.134200	-0.277975
O8	O	-4.657739	-0.063065	-0.203620
O9	O	-4.291418	0.011574	-0.235256
O10	O	-4.584928	-0.202505	-0.238958
O11	O	-4.569202	-0.096473	-0.348952
O12	O	-4.307036	-0.093729	-0.126019
C13	C	-3.765691	-0.234098	-0.242517
C14	C	-3.803301	-0.318796	-0.242124
C15	C	-4.215401	-0.842560	-0.243636
C16	C	-4.180052	-0.762978	-0.244009
C17	C	-3.981209	-0.719313	-0.240225
C18	C	-3.817701	-0.755233	-0.236060
C19	C	-3.853049	-0.834812	-0.235682
C20	C	-3.675142	-0.434297	-0.237586
C21	C	-3.639806	-0.354712	-0.237967
C22	C	-4.002145	-0.362463	-0.245913
C23	C	-4.037493	-0.442042	-0.245535
C24	C	-3.873982	-0.477954	-0.241365
C25	C	-3.912313	-0.564246	-0.240960
C26	C	-3.942879	-0.633024	-0.240637
C27	C	-3.745769	-0.099772	-0.381859
C28	C	-3.770711	-0.099069	-0.470052
C29	C	-3.963583	-0.102542	-0.515539
C30	C	-3.987006	-0.101880	-0.598405
C31	C	-3.817558	-0.097751	-0.635783
C32	C	-3.624670	-0.094276	-0.590290
C33	C	-3.601246	-0.094932	-0.507425
C34	C	-3.868185	-0.095376	-0.883179
C35	C	-3.891626	-0.094722	-0.966051
C36	C	-4.253961	-0.102325	-0.974160
C37	C	-4.230522	-0.102986	-0.891293
C38	C	-4.037635	-0.099506	-0.845806
N39	N	-3.841498	-0.097077	-0.720486
N40	N	-4.013695	-0.100175	-0.761104
C41	C	-4.110278	0.036829	-0.239076
C42	C	-4.051906	0.121525	-0.239474
C43	C	-4.130201	-0.097495	-0.099731
C44	C	-4.084498	-0.098195	-0.011538
H45	H	-4.199410	-0.477592	-0.248620
H46	H	-4.135279	-0.333213	-0.249304
C47	C	-4.359932	-0.723483	-0.248638
N48	N	-4.495432	-0.693739	-0.252141
C49	C	-3.389075	-0.091114	-0.457390
N50	N	-3.229260	-0.088237	-0.419704
C51	C	-3.705207	-0.090176	-1.007164
N52	N	-3.564804	-0.086752	-1.038131
H53	H	-3.477877	-0.319162	-0.234885
H54	H	-3.655794	-0.719673	-0.232974
H55	H	-3.541992	-0.463525	-0.234181
H56	H	-4.144057	-0.104703	-0.635436
H57	H	-3.711142	-0.092570	-0.846158
C58	C	-4.416927	-0.107518	-0.850182
N59	N	-4.557331	-0.110932	-0.819217
C60	C	-3.673190	-0.874318	-0.231105
N61	N	-3.537713	-0.904072	-0.227656
C62	C	-3.438236	-0.089653	-0.631396
N63	N	-3.297796	-0.086145	-0.662352
H64	H	-4.101573	-0.105909	-0.485112
H65	H	-4.377320	-0.878107	-0.246722
H66	H	-4.411003	-0.105157	-1.011204
