data_functionalizedCrystal
_audit_creation_method	'MofGen! by Chris Wilmer'
_symmetry_space_group_name_H-M	'P1'
_symmetry_Int_Tables_number	1
_symmetry_cell_setting	triclinic
loop_
_symmetry_equiv_pos_as_xyz
  x,y,z
_cell_length_a	14.519709
_cell_length_b	11.804133
_cell_length_c	13.339070
_cell_angle_alpha	99.484023
_cell_angle_beta	80.345280
_cell_angle_gamma	76.755587
loop_
_atom_site_label
_atom_site_type_symbol
_atom_site_fract_x
_atom_site_fract_y
_atom_site_fract_z
O1	O	-1.278847	0.098851	0.150957
O2	O	-1.014353	0.098890	0.166588
O3	O	-1.116244	0.098872	0.011455
O4	O	-1.176957	0.098870	0.306091
O5	O	-1.073691	-0.099188	-0.025190
O6	O	-0.971800	-0.099170	0.129944
O7	O	-1.236295	-0.099208	0.114313
Cu8	Cu	-1.100162	-0.117273	0.118783
Cu9	Cu	-1.150486	0.116955	0.162119
O10	O	-1.134404	-0.099190	0.269447
C11	C	-0.958533	-0.000135	0.147539
C12	C	-0.855600	-0.000120	0.145360
N13	N	-1.064774	-0.282017	0.088302
C14	C	-1.084713	-0.000155	-0.044575
C15	C	-1.054145	-0.000146	-0.156930
C16	C	-0.478650	-0.000169	0.137318
C17	C	-0.583528	-0.000155	0.139551
C18	C	-0.667122	-0.000143	0.141339
C19	C	-0.772006	-0.000132	0.143572
C20	C	-0.292116	-0.000178	0.133364
C21	C	-0.395053	-0.000176	0.135546
N22	N	-1.185879	0.281699	0.192592
C23	C	-1.270853	0.344052	0.265770
C24	C	-1.297612	0.468716	0.288823
C25	C	-1.239405	0.531039	0.238694
C26	C	-1.154433	0.468686	0.165509
C27	C	-1.127667	0.344009	0.142460
C28	C	-1.096220	0.530996	0.115384
C29	C	-1.011248	0.468643	0.042199
C30	C	-0.984487	0.343979	0.019153
C31	C	-1.042694	0.281656	0.069282
C32	C	-1.122986	0.655672	0.138434
C33	C	-0.979800	0.655630	0.015124
C34	C	-0.953041	0.530966	-0.007929
C35	C	-1.291829	-0.000181	-0.521300
C36	C	-1.320550	-0.000197	-0.415738
C37	C	-1.253952	-0.000183	-0.351031
C38	C	-1.158627	-0.000156	-0.391896
C39	C	-1.129901	-0.000150	-0.497470
C40	C	-1.092023	-0.000152	-0.327201
C41	C	-0.996698	-0.000124	-0.368066
C42	C	-0.967978	-0.000117	-0.473630
C43	C	-1.034576	-0.000131	-0.538337
C44	C	-1.120749	-0.000158	-0.221627
C45	C	-0.958821	-0.000127	-0.197797
C46	C	-0.930100	-0.000111	-0.303359
C47	C	-1.165935	-0.000161	0.325477
C48	C	-1.196505	-0.000162	0.437833
H49	H	-1.192168	0.706428	0.198022
H50	H	-1.277342	-0.000196	-0.265078
O51	O	-1.223563	-0.000166	-0.177556
H52	H	-1.239533	-0.080889	-0.218477
O53	O	-0.892838	0.276751	-0.059789
H54	H	-0.843351	0.219962	-0.021997
O55	O	-0.827287	-0.000089	-0.347447
H56	H	-0.785798	-0.000073	-0.284724
O57	O	-1.423362	-0.000201	-0.371655
H58	H	-1.464851	-0.000190	-0.434378
O59	O	-1.003605	-0.000119	-0.652199
H60	H	-0.978435	0.080620	-0.659953
O61	O	-0.865160	-0.000108	-0.517714
H62	H	-0.849194	0.080627	-0.476809
O63	O	-0.861388	0.463711	-0.086855
H64	H	-0.852557	0.366553	-0.094450
O65	O	-0.917031	0.722830	-0.038986
H66	H	-0.949930	0.819995	-0.010684
H67	H	-1.346041	-0.000202	-0.573994
O68	O	-0.886975	-0.000117	-0.128024
H69	H	-0.913526	0.080612	-0.064423
O70	O	-1.268195	0.665498	0.263652
H71	H	-1.337038	0.698387	0.322994
H72	H	-1.020912	0.180144	0.050514
O73	O	-1.389250	0.535965	0.367757
H74	H	-1.452296	0.512053	0.341641
O75	O	-1.333635	0.276838	0.319823
H76	H	-1.300752	0.179674	0.291491
