data_functionalizedCrystal
_audit_creation_method	'MofGen! by Chris Wilmer'
_symmetry_space_group_name_H-M	'P1'
_symmetry_Int_Tables_number	1
_symmetry_cell_setting	triclinic
loop_
_symmetry_equiv_pos_as_xyz
  x,y,z
_cell_length_a	8.497374
_cell_length_b	8.497374
_cell_length_c	14.908571
_cell_angle_alpha	93.301816
_cell_angle_beta	93.295678
_cell_angle_gamma	90.004389
loop_
_atom_site_label
_atom_site_type_symbol
_atom_site_fract_x
_atom_site_fract_y
_atom_site_fract_z
Zn1	Zn	1.031139	0.767743	1.379205
Zn2	Zn	0.767403	1.031492	1.379197
Zn3	Zn	0.752162	0.752473	1.228382
Zn4	Zn	1.015930	1.016226	1.228361
O5	O	0.891658	0.891984	1.303786
O6	O	1.008897	0.815509	1.505450
O7	O	0.544620	0.994478	1.359196
O8	O	0.789155	0.533738	1.248401
O9	O	0.815132	1.009284	1.505444
O10	O	0.994118	0.544957	1.359210
O11	O	0.533422	0.789484	1.248393
O12	O	0.774408	0.774681	1.102133
O13	O	1.238709	0.983266	1.248366
O14	O	0.968197	0.968459	1.102118
O15	O	1.249883	0.800707	1.359190
O16	O	0.800385	1.250228	1.359176
O17	O	0.982976	1.239012	1.248358
C18	C	0.867999	0.868258	1.069392
C19	C	0.857915	0.858146	0.969116
C20	C	1.481779	0.892010	1.303791
C21	C	1.303134	0.892001	1.303782
C22	C	0.891680	1.301862	1.303775
C23	C	0.891657	1.480509	1.303799
C24	C	1.040487	1.041238	0.780722
C25	C	1.031017	1.031742	0.686504
C26	C	0.829515	0.829651	0.686463
C27	C	0.838985	0.839147	0.780680
C28	C	0.944472	0.944946	0.827806
C29	C	0.953933	0.954449	0.922025
C30	C	0.752440	0.752350	0.921982
C31	C	0.742970	0.742854	0.827764
C32	C	0.915411	0.915803	1.539096
C33	C	0.925533	0.925954	1.639371
H34	H	1.039824	1.040599	0.960394
H35	H	1.126371	1.127393	0.819093
H36	H	1.109205	1.110151	0.648171
N37	N	0.715693	0.715603	0.635626
H38	H	0.724250	0.724222	0.568796
H39	H	0.604666	0.741716	0.652099
N40	N	0.629167	0.628781	0.776934
H41	H	0.637724	0.637385	0.710102
H42	H	0.518133	0.654872	0.793402
H43	H	0.674254	0.673945	0.960328
