data_functionalizedCrystal
_audit_creation_method	'MofGen! by Chris Wilmer'
_symmetry_space_group_name_H-M	'P1'
_symmetry_Int_Tables_number	1
_symmetry_cell_setting	triclinic
loop_
_symmetry_equiv_pos_as_xyz
  x,y,z
_cell_length_a	21.295418
_cell_length_b	16.625546
_cell_length_c	16.625539
_cell_angle_alpha	90.030397
_cell_angle_beta	89.960218
_cell_angle_gamma	89.961719
loop_
_atom_site_label
_atom_site_type_symbol
_atom_site_fract_x
_atom_site_fract_y
_atom_site_fract_z
Zn1	Zn	0.962366	0.320660	-0.456311
Zn2	Zn	1.462366	0.820660	0.043689
Zn3	Zn	0.962291	0.455503	-0.321473
Zn4	Zn	1.462291	0.955503	0.178527
Zn5	Zn	0.857097	0.320725	-0.321446
Zn6	Zn	1.357097	0.820725	0.178554
Zn7	Zn	0.857074	0.455491	-0.456218
Zn8	Zn	1.357074	0.955491	0.043782
O9	O	0.909707	0.388095	-0.388862
O10	O	1.409707	0.888095	0.111138
O11	O	1.050446	0.338524	-0.438475
O12	O	1.550446	0.838524	0.061525
O13	O	0.948315	0.437657	-0.208637
O14	O	1.448315	0.937657	0.291363
O15	O	0.871102	0.207884	-0.339364
O16	O	1.371102	0.707884	0.160636
O17	O	1.050390	0.437593	-0.339410
O18	O	1.550390	0.937593	0.160590
O19	O	0.948443	0.207836	-0.438449
O20	O	1.448443	0.707836	0.061551
O21	O	0.871029	0.338636	-0.208618
O22	O	1.371029	0.838636	0.291382
O23	O	0.769004	0.338625	-0.339274
O24	O	1.269004	0.838625	0.160726
O25	O	0.871063	0.437573	-0.569063
O26	O	1.371063	0.937573	-0.069063
O27	O	0.768987	0.437637	-0.438290
O28	O	1.268987	0.937637	0.061710
O29	O	0.948421	0.338513	-0.569131
O30	O	1.448421	0.838513	-0.069131
O31	O	0.948292	0.568334	-0.339320
O32	O	1.448292	1.068334	0.160680
O33	O	0.870990	0.568325	-0.438316
O34	O	1.370990	1.068325	0.061684
C35	C	0.746155	0.388137	-0.388769
C36	C	1.246155	0.888137	0.111231
C37	C	0.676187	0.388175	-0.388749
C38	C	1.176187	0.888175	0.111251
C39	C	0.909647	0.597586	-0.388828
C40	C	1.409647	1.097586	0.111172
C41	C	0.909679	0.687207	-0.388841
C42	C	1.409679	1.187207	0.111159
C43	C	0.909748	0.388035	-0.599171
C44	C	1.409748	0.888035	-0.099171
C45	C	0.909765	0.388009	-0.688792
C46	C	1.409765	0.888009	-0.188792
C47	C	0.643328	0.439799	-0.440230
C48	C	1.143328	0.939799	0.059770
C49	C	0.577586	0.439779	-0.440266
C50	C	1.077586	0.939779	0.059734
C51	C	0.544705	0.388144	-0.388807
C52	C	1.044705	0.888144	0.111193
C53	C	0.577572	0.336510	-0.337323
C54	C	1.077572	0.836510	0.162677
C55	C	0.643313	0.336525	-0.337294
C56	C	1.143313	0.836525	0.162706
N57	N	0.441432	0.381847	-0.318284
N58	N	0.941432	0.881847	0.181716
N59	N	0.378980	0.381837	-0.318314
N60	N	0.878980	0.881837	0.181686
C61	C	0.346630	0.388092	-0.388892
C62	C	0.846630	0.888092	0.111108
N63	N	0.379090	0.394374	-0.459441
N64	N	0.879090	0.894374	0.040559
N65	N	0.441548	0.394388	-0.459411
N66	N	0.941548	0.894388	0.040589
C67	C	0.473419	0.388120	-0.388833
C68	C	0.973419	0.888120	0.111167
C69	C	0.242485	0.439697	-0.440417
C70	C	0.742485	0.939697	0.059583
C71	C	0.176742	0.439672	-0.440454
C72	C	0.676742	0.939672	0.059546
C73	C	0.176729	0.336407	-0.337504
C74	C	0.676729	0.836407	0.162496
C75	C	0.242471	0.336428	-0.337474
C76	C	0.742471	0.836428	0.162526
C77	C	0.275346	0.388078	-0.388929
C78	C	0.775346	0.888078	0.111071
C79	C	1.073897	0.388053	-0.388956
C80	C	1.573897	0.888053	0.111044
C81	C	1.143865	0.388035	-0.388996
C82	C	1.643865	0.888035	0.111004
C83	C	0.909784	0.177786	-0.388914
C84	C	1.409784	0.677786	0.111086
C85	C	0.909817	0.088165	-0.388936
C86	C	1.409817	0.588165	0.111064
C87	C	0.909789	1.015382	-0.388925
C88	C	1.409789	1.515382	0.111075
C89	C	0.909757	0.924074	-0.388904
C90	C	1.409757	1.424074	0.111096
C91	C	0.909734	0.851297	-0.388883
C92	C	1.409734	1.351297	0.111117
C93	C	0.909702	0.759983	-0.388862
C94	C	1.409702	1.259983	0.111138
C95	C	0.909794	0.387919	-1.016968
C96	C	1.409794	0.887919	-0.516968
C97	C	0.909785	0.387947	-0.925660
C98	C	1.409785	0.887947	-0.425660
C99	C	0.909780	0.387965	-0.852883
C100	C	1.409780	0.887965	-0.352883
C101	C	0.909770	0.387991	-0.761569
C102	C	1.409770	0.887991	-0.261569
C103	C	0.909702	0.388096	-0.179371
C104	C	1.409702	0.888096	0.320629
C105	C	0.909807	0.387895	-0.089751
C106	C	1.409807	0.887895	0.410249
H107	H	0.670090	0.481855	-0.482130
H108	H	1.170090	0.981855	0.017870
N109	N	0.678758	0.280837	-0.281772
N110	N	1.178758	0.780837	0.218228
H111	H	0.647955	0.248118	-0.249181
H112	H	1.147955	0.748118	0.250819
H113	H	0.705983	0.313613	-0.244384
H114	H	1.205983	0.813613	0.255616
N115	N	0.542134	0.495459	-0.495795
N116	N	1.042134	0.995459	0.004205
H117	H	0.572936	0.528179	-0.528387
H118	H	1.072936	1.028179	-0.028387
H119	H	0.514807	0.532721	-0.462912
H120	H	1.014807	1.032721	0.037088
H121	H	0.269226	0.294394	-0.295548
H122	H	0.769226	0.794394	0.204452
N123	N	0.277949	0.495398	-0.495913
N124	N	0.777949	0.995398	0.004087
H125	H	0.247154	0.528096	-0.528538
H126	H	0.747154	1.028096	-0.028538
H127	H	0.305280	0.462632	-0.533272
H128	H	0.805280	0.962632	-0.033272
N129	N	0.542112	0.280826	-0.281810
N130	N	1.042112	0.780826	0.218190
H131	H	0.495478	0.288655	-0.289633
H132	H	0.995478	0.788655	0.210367
H133	H	0.553555	0.293317	-0.224201
H134	H	1.053555	0.793317	0.275799
H135	H	0.149989	0.481708	-0.482381
H136	H	0.649989	0.981708	0.017619
H137	H	0.149958	0.294360	-0.295609
H138	H	0.649958	0.794360	0.204391
