data_functionalizedCrystal
_audit_creation_method	'MofGen! by Chris Wilmer'
_symmetry_space_group_name_H-M	'P1'
_symmetry_Int_Tables_number	1
_symmetry_cell_setting	triclinic
loop_
_symmetry_equiv_pos_as_xyz
  x,y,z
_cell_length_a	15.944480
_cell_length_b	15.995350
_cell_length_c	14.472310
_cell_angle_alpha	89.996948
_cell_angle_beta	89.987894
_cell_angle_gamma	96.518889
loop_
_atom_site_label
_atom_site_type_symbol
_atom_site_fract_x
_atom_site_fract_y
_atom_site_fract_z
O1	O	-1.114566	0.107701	0.076813
O2	O	-0.870008	0.121077	0.076818
O3	O	-0.998972	-0.007500	0.076819
O4	O	-0.985602	0.236278	0.076812
O5	O	-0.998939	-0.007493	-0.076863
O6	O	-0.869974	0.121084	-0.076864
O7	O	-1.114533	0.107709	-0.076869
Cu8	Cu	-0.992251	0.114397	-0.090899
Cu9	Cu	-0.992290	0.114388	0.090848
O10	O	-0.985569	0.236285	-0.076870
C11	C	-0.838696	0.120536	-0.000023
C12	C	-0.745447	0.118902	-0.000020
C13	C	-0.509681	0.194593	-0.000020
C14	C	-0.459109	0.153788	-0.075796
C15	C	-0.574725	0.115876	-0.000021
C16	C	-0.459146	0.153762	0.075723
C17	C	-0.409815	0.112958	-0.000017
C18	C	-0.525381	0.075092	-0.075859
C19	C	-0.525421	0.075077	0.075728
C20	C	-0.474881	0.034214	-0.000067
C21	C	-0.669725	0.117559	-0.000024
C22	C	-0.314817	0.111269	-0.000021
C23	C	-0.145843	0.108261	-0.000026
C24	C	-0.239088	0.109929	-0.000017
C25	C	-0.998403	-0.038691	-0.000020
C26	C	-0.996746	-0.131641	-0.000011
C27	C	-0.986138	0.267476	-0.000030
C28	C	-0.987795	0.360426	-0.000033
N29	N	-0.992229	0.114403	-0.218730
C30	C	-0.993746	0.698173	-0.000019
C31	C	-1.085592	0.650720	0.000323
C32	C	-1.083935	0.554031	-0.000029
C33	C	-0.990794	0.530613	-0.000025
C34	C	-0.945474	0.571709	-0.087781
C35	C	-0.947781	0.668344	-0.087849
C36	C	-0.945921	0.668683	0.086916
C37	C	-0.945943	0.571738	0.088071
C38	C	-0.989121	0.435916	-0.000032
C39	C	-0.995417	0.792870	-0.000018
C40	C	-0.992289	0.114385	-0.592821
C41	C	-0.923051	0.182953	-0.553656
C42	C	-0.923211	0.183203	-0.446568
C43	C	-0.992258	0.114394	-0.407230
C44	C	-1.079904	0.133458	-0.446070
C45	C	-1.079515	0.133946	-0.553192
C46	C	-0.974663	0.026549	-0.553348
C47	C	-0.972653	0.027135	-0.446220
C48	C	-0.992247	0.114397	-0.302342
C49	C	-0.992306	0.114383	-0.697710
N50	N	-0.992318	0.114376	0.218678
H51	H	-1.122312	0.669228	0.063264
C52	C	-1.160266	0.606320	-0.138454
C53	C	-1.134911	0.677156	-0.084169
H54	H	-1.190713	0.622642	-0.190615
H55	H	-1.111909	0.581795	-0.158623
H56	H	-1.195383	0.566490	-0.102942
H57	H	-1.099788	0.716984	-0.119679
H58	H	-1.183275	0.701694	-0.064000
H59	H	-0.554383	0.041856	0.139794
H60	H	-0.858062	0.171847	-0.420310
C61	C	-0.437305	0.282568	0.162054
C62	C	-0.420117	0.198644	0.162209
H63	H	-0.413219	0.310276	0.215450
H64	H	-0.413706	0.309967	0.108260
H65	H	-0.496650	0.284375	0.162364
H66	H	-0.360772	0.196837	0.161893
H67	H	-0.443712	0.171238	0.216018
H68	H	-0.979036	0.544425	0.152992
H69	H	-1.119563	0.525594	0.062875
H70	H	-0.878024	0.556384	0.093376
H71	H	-0.554197	0.041871	-0.139985
H72	H	-0.459419	-0.033640	-0.000108
C73	C	-1.018876	0.596972	-0.228094
C74	C	-0.987928	0.533406	-0.175954
H75	H	-1.045083	0.573325	-0.282529
H76	H	-1.059002	0.622688	-0.192593
H77	H	-0.973525	0.638005	-0.244533
H78	H	-1.033280	0.492376	-0.159509
H79	H	-0.947798	0.507676	-0.211463
H80	H	-0.877045	0.557597	-0.091041
C81	C	-0.800383	0.650914	-0.096385
C82	C	-0.856754	0.711903	-0.093232
H83	H	-0.744189	0.677805	-0.099716
H84	H	-0.806759	0.617179	-0.042277
H85	H	-0.811963	0.616406	-0.149310
H86	H	-0.845177	0.746407	-0.040303
H87	H	-0.850373	0.745652	-0.147345
H88	H	-0.857692	0.171784	-0.579442
C89	C	-0.854996	0.799010	0.091064
C90	C	-0.854507	0.711579	0.087733
H91	H	-0.798563	0.825493	0.091569
H92	H	-0.883569	0.817065	0.038386
H93	H	-0.883179	0.813768	0.145506
H94	H	-0.826330	0.696821	0.033286
H95	H	-0.825922	0.693517	0.140416
H96	H	-0.975962	0.689214	0.153432
H97	H	-0.934151	0.247768	-0.580568
H98	H	-0.430155	0.187034	-0.139859
C99	C	-1.151518	0.068893	-0.684925
C100	C	-1.151157	0.069097	-0.588173
H101	H	-1.195746	0.028858	-0.706515
H102	H	-1.160121	0.123230	-0.706872
H103	H	-1.098934	0.054439	-0.707001
H104	H	-1.203739	0.083557	-0.566096
H105	H	-1.142561	0.014748	-0.566216
C106	C	-0.497138	0.327156	-0.079575
C107	C	-0.530787	0.286118	-0.000120
H108	H	-0.510175	0.383655	-0.079641
H109	H	-0.437620	0.326731	-0.080120
H110	H	-0.520813	0.298919	-0.132850
H111	H	-0.507107	0.314351	0.053155
H112	H	-0.590317	0.286548	0.000433
H113	H	-1.119768	0.526166	-0.063049
H114	H	-1.025155	-0.024477	-0.578674
H115	H	-0.980803	0.686646	-0.153451
H116	H	-0.908180	0.012666	-0.420836
H117	H	-0.934466	0.248385	-0.420936
H118	H	-1.095047	0.198003	-0.578169
C119	C	-1.117044	0.009299	-0.354983
C120	C	-1.151125	0.067840	-0.411665
H121	H	-1.161015	-0.031207	-0.333739
H122	H	-1.077279	-0.018097	-0.389195
H123	H	-1.089737	0.037502	-0.303565
H124	H	-1.178427	0.039638	-0.463088
H125	H	-1.190905	0.095239	-0.377453
C126	C	-1.110875	0.272706	-0.484560
C127	C	-1.101380	0.218950	-0.409856
H128	H	-1.124135	0.325484	-0.462203
H129	H	-1.059753	0.280608	-0.518787
H130	H	-1.155187	0.248487	-0.523346
H131	H	-1.057063	0.243166	-0.371074
H132	H	-1.152507	0.211050	-0.375615
H133	H	-0.912140	0.008213	-0.580413
H134	H	-1.019807	-0.026280	-0.419446
