data_functionalizedCrystal
_audit_creation_method	'MofGen! by Chris Wilmer'
_symmetry_space_group_name_H-M	'P1'
_symmetry_Int_Tables_number	1
_symmetry_cell_setting	triclinic
loop_
_symmetry_equiv_pos_as_xyz
  x,y,z
_cell_length_a	12.996460
_cell_length_b	14.519709
_cell_length_c	14.519709
_cell_angle_alpha	83.680145
_cell_angle_beta	89.992878
_cell_angle_gamma	90.005119
loop_
_atom_site_label
_atom_site_type_symbol
_atom_site_fract_x
_atom_site_fract_y
_atom_site_fract_z
O1	O	0.085423	-1.223863	-0.120894
O2	O	0.085457	-0.955386	-0.135130
O3	O	0.085430	-1.096742	0.006227
O4	O	0.085450	-1.082506	-0.262250
O5	O	-0.085704	-1.096740	0.006236
O6	O	-0.085677	-0.955383	-0.135121
O7	O	-0.085711	-1.223860	-0.120884
Cu8	Cu	-0.101320	-1.089622	-0.128002
Cu9	Cu	0.101066	-1.089624	-0.128013
O10	O	-0.085684	-1.082503	-0.262241
C11	C	-0.000106	-0.921025	-0.134462
C12	C	-0.000093	-0.818643	-0.132474
N13	N	-0.243667	-1.089626	-0.127993
N14	N	0.243413	-1.089627	-0.128014
C15	C	-0.000136	-0.443748	-0.125154
C16	C	-0.000124	-0.548056	-0.127187
C17	C	-0.000113	-0.631192	-0.128814
C18	C	-0.000103	-0.735507	-0.130847
C19	C	0.663227	-1.089622	-0.128005
C20	C	0.546422	-1.089620	-0.128010
C21	C	0.453324	-1.089624	-0.128009
C22	C	0.336511	-1.089623	-0.128015
C23	C	-0.000137	-1.096078	0.040591
C24	C	-0.000138	-1.094090	0.142972
C25	C	-0.000144	-0.258221	-0.121553
C26	C	-0.000142	-0.360602	-0.123541
C27	C	-0.000115	-1.083168	-0.296605
C28	C	-0.000107	-1.085156	-0.398987
C29	C	-0.000110	-1.086770	0.517868
C30	C	-0.000118	-1.088803	0.413560
C31	C	-0.000125	-1.090430	0.330423
C32	C	-0.000131	-1.092463	0.226109
