data_functionalizedCrystal
_audit_creation_method	'MofGen! by Chris Wilmer'
_symmetry_space_group_name_H-M	'P1'
_symmetry_Int_Tables_number	1
_symmetry_cell_setting	triclinic
loop_
_symmetry_equiv_pos_as_xyz
  x,y,z
_cell_length_a	11.792241
_cell_length_b	19.188930
_cell_length_c	10.268362
_cell_angle_alpha	89.989600
_cell_angle_beta	89.999626
_cell_angle_gamma	83.669099
loop_
_atom_site_label
_atom_site_type_symbol
_atom_site_fract_x
_atom_site_fract_y
_atom_site_fract_z
O1	O	1.505476	0.095695	-0.108190
O2	O	1.174988	0.105558	-0.108222
O3	O	1.349769	-0.000975	-0.108179
O4	O	1.330695	0.202228	-0.108232
O5	O	1.349754	-0.000980	0.108421
O6	O	1.174973	0.105553	0.108379
O7	O	1.505461	0.095691	0.108411
Cu8	Cu	1.340216	0.100622	0.128172
Cu9	Cu	1.340233	0.100627	-0.127983
O10	O	1.330680	0.202224	0.108368
C11	C	1.132699	0.104936	0.000075
C12	C	1.006713	0.103082	0.000064
C13	C	0.776051	0.099672	0.000102
C14	C	0.904408	0.101566	0.000081
C15	C	1.349144	-0.026992	0.000125
C16	C	1.347290	-0.104507	0.000136
C17	C	1.449846	-0.148850	0.000152
C18	C	1.448104	-0.221684	0.000131
C19	C	1.343800	-0.250171	0.000120
C20	C	1.241230	-0.205818	0.000096
C21	C	1.242975	-0.132986	0.000104
N22	N	1.264067	-0.358629	0.073825
N23	N	1.262416	-0.427817	0.073820
C24	C	1.338536	-0.469609	0.000093
N25	N	1.416387	-0.439602	-0.073614
N26	N	1.418041	-0.370407	-0.073603
C27	C	1.341896	-0.329144	0.000110
C28	C	1.439211	-0.592928	0.000084
C29	C	1.437464	-0.665762	0.000055
C30	C	1.230588	-0.649895	0.000034
C31	C	1.232337	-0.577062	0.000050
C32	C	1.336652	-0.548583	0.000081
C33	C	1.547751	0.096313	0.000111
C34	C	1.673737	0.098167	0.000114
C35	C	1.331305	0.228240	0.000062
C36	C	1.333159	0.305755	0.000042
N37	N	1.340211	0.100617	0.308338
N38	N	1.340247	0.100625	-0.308149
C39	C	1.340228	0.100625	0.574009
C40	C	1.340215	0.100623	0.426171
H41	H	1.534787	-0.125667	0.000173
H42	H	1.148825	-0.540957	0.000044
C43	C	1.559578	-0.269723	0.000219
C44	C	1.651304	-0.229193	0.000277
C45	C	1.754010	-0.273419	0.000377
H46	H	1.563369	-0.298472	-0.075294
H47	H	1.563244	-0.298461	0.075783
H48	H	1.647640	-0.200466	-0.075279
H49	H	1.647551	-0.200445	0.075785
H50	H	1.757675	-0.302158	0.075941
H51	H	1.757789	-0.302167	-0.075137
H52	H	1.816258	-0.245927	0.000429
H53	H	1.524150	-0.569739	0.000104
C54	C	1.128100	-0.236879	0.000152
C55	C	1.148521	-0.310154	0.000186
C56	C	1.044330	-0.338789	0.000248
H57	H	1.085807	-0.221753	-0.075366
H58	H	1.085870	-0.221730	0.075710
H59	H	1.190734	-0.325296	-0.075365
H60	H	1.190798	-0.325298	0.075698
H61	H	1.002099	-0.323641	0.075806
H62	H	1.002045	-0.323659	-0.075272
H63	H	1.058171	-0.388508	0.000283
C64	C	1.548941	-0.713793	0.000138
C65	C	1.640661	-0.673259	0.000204
C66	C	1.743371	-0.717482	0.000299
H67	H	1.552735	-0.742539	-0.075379
H68	H	1.552609	-0.742535	0.075697
H69	H	1.636995	-0.644530	-0.075348
H70	H	1.636904	-0.644515	0.075716
H71	H	1.747039	-0.746224	0.075858
H72	H	1.747154	-0.746226	-0.075220
H73	H	1.805615	-0.689986	0.000355
C74	C	1.117305	-0.680774	-0.000249
C75	C	1.055350	-0.658270	-0.111707
C76	C	0.950993	-0.686712	-0.112027
H77	H	1.074949	-0.665609	0.075192
H78	H	1.130903	-0.730505	-0.000326
H79	H	1.041750	-0.608550	-0.111619
H80	H	1.097672	-0.673435	-0.187167
H81	H	0.964590	-0.736443	-0.112103
H82	H	0.908646	-0.671544	-0.036581
H83	H	0.908948	-0.671452	-0.187655
C84	C	1.131500	-0.084954	0.000161
C85	C	1.039777	-0.125486	0.000173
C86	C	0.937069	-0.081262	0.000247
H87	H	1.127726	-0.056185	-0.075346
H88	H	1.127814	-0.056235	0.075731
H89	H	1.043462	-0.154193	-0.075389
H90	H	1.043514	-0.154253	0.075675
H91	H	0.933383	-0.052543	0.075816
H92	H	0.933307	-0.052496	-0.075262
H93	H	0.874823	-0.108756	0.000267
