data_functionalizedCrystal
_audit_creation_method	'MofGen! by Chris Wilmer'
_symmetry_space_group_name_H-M	'P1'
_symmetry_Int_Tables_number	1
_symmetry_cell_setting	triclinic
loop_
_symmetry_equiv_pos_as_xyz
  x,y,z
_cell_length_a	6.817900
_cell_length_b	16.417823
_cell_length_c	19.453030
_cell_angle_alpha	95.880286
_cell_angle_beta	101.707737
_cell_angle_gamma	103.385419
loop_
_atom_site_label
_atom_site_type_symbol
_atom_site_fract_x
_atom_site_fract_y
_atom_site_fract_z
V1	V	-4.006322	-0.116758	-0.219243
O2	O	-3.994744	0.004713	-0.214820
O3	O	-3.957480	-0.230648	-0.217984
O4	O	-3.949235	-0.115355	-0.314753
O5	O	-4.003046	-0.111377	-0.117381
V6	V	-4.491133	-0.102182	-0.207031
O7	O	-4.264756	-0.148731	-0.246033
O8	O	-4.682897	-0.070208	-0.180241
O9	O	-4.316769	0.011708	-0.208290
O10	O	-4.620109	-0.223653	-0.211454
O11	O	-4.611807	-0.107562	-0.308893
O12	O	-4.325014	-0.103584	-0.111521
C13	C	-3.802654	-0.258400	-0.214588
C14	C	-3.843949	-0.351509	-0.214195
C15	C	-3.792137	-0.111331	-0.338025
C16	C	-3.826742	-0.110938	-0.416107
C17	C	-3.943506	-0.641013	-0.148610
C18	C	-3.904679	-0.553525	-0.148968
C19	C	-3.973323	-0.577938	-0.277671
C20	C	-4.012134	-0.665425	-0.277312
C21	C	-3.997234	-0.696960	-0.212780
C22	C	-3.919596	-0.521985	-0.213497
C23	C	-3.877498	-0.427126	-0.213885
C24	C	-4.039330	-0.791825	-0.212392
C25	C	-3.881937	-0.187498	-0.462973
C26	C	-3.914476	-0.187138	-0.536340
C27	C	-3.891777	-0.110212	-0.562837
C28	C	-3.836585	-0.033643	-0.515962
C29	C	-3.804067	-0.034006	-0.442596
N30	N	-3.800335	-0.049900	-0.668205
N31	N	-3.831224	-0.049561	-0.737900
C32	C	-3.989753	-0.109114	-0.783882
N33	N	-4.116207	-0.169033	-0.757539
N34	N	-4.085308	-0.169375	-0.687838
C35	C	-3.927034	-0.109810	-0.642389
C36	C	-4.080236	-0.185289	-0.910302
C37	C	-4.112787	-0.184925	-0.983671
C38	C	-4.034873	-0.031428	-0.963290
C39	C	-4.002344	-0.031794	-0.889924
C40	C	-4.025019	-0.108726	-0.863434
C41	C	-4.134937	0.039456	-0.211684
C42	C	-4.072881	0.132564	-0.212082
C43	C	-4.145455	-0.107611	-0.088245
C44	C	-4.090088	-0.107999	-0.010163
H45	H	-3.860927	-0.507975	-0.096715
H46	H	-4.098703	-0.247932	-0.888733
O47	O	-3.967827	-0.261451	-0.581939
C48	C	-3.816226	-0.261847	-0.621563
H49	H	-3.729715	-0.193827	-0.622569
H50	H	-3.701973	-0.297063	-0.595929
C51	C	-4.028079	-0.390132	-0.696879
C52	C	-3.921836	-0.306589	-0.698119
H53	H	-4.093220	-0.417735	-0.744101
H54	H	-4.130213	-0.389869	-0.670182
H55	H	-3.932850	-0.419469	-0.675514
H56	H	-4.017069	-0.277252	-0.719476
H57	H	-3.819720	-0.306849	-0.724821
O58	O	-3.987808	-0.547164	-0.340293
C59	C	-3.941986	-0.457948	-0.326851
H60	H	-3.970321	-0.436994	-0.272818
H61	H	-3.772615	-0.429933	-0.326906
C62	C	-4.047648	-0.452376	-0.451445
C63	C	-4.082466	-0.426641	-0.385084
H64	H	-4.134294	-0.433063	-0.487367
H65	H	-4.078512	-0.512482	-0.460503
H66	H	-3.906501	-0.429029	-0.451482
H67	H	-4.223603	-0.449997	-0.385046
H68	H	-4.051629	-0.366537	-0.376028
O69	O	-4.064398	-0.719662	-0.339717
C70	C	-4.069196	-0.673070	-0.396751
H71	H	-4.094607	-0.608614	-0.379367
H72	H	-3.915637	-0.663754	-0.413478
C73	C	-4.216334	-0.800996	-0.481289
C74	C	-4.247562	-0.721832	-0.459940
H75	H	-4.326351	-0.831076	-0.520268
H76	H	-4.213095	-0.832387	-0.442864
H77	H	-4.088362	-0.793221	-0.495223
H78	H	-4.375518	-0.729608	-0.445998
H79	H	-4.250826	-0.690444	-0.498364
H80	H	-4.157746	-0.247272	-1.021829
O81	O	-4.013150	0.043239	-0.989110
C82	C	-4.202349	0.044066	-1.034328
H83	H	-4.298618	-0.023842	-1.055301
H84	H	-4.291524	0.079007	-1.003408
C85	C	-4.040274	0.172907	-1.071396
C86	C	-4.158506	0.089501	-1.097161
H87	H	-4.013233	0.200936	-1.110154
H88	H	-3.912808	0.172352	-1.040930
H89	H	-4.114603	0.202013	-1.045630
H90	H	-4.084166	0.060393	-1.122919
H91	H	-4.285959	0.090051	-1.127634
H92	H	-3.900414	-0.250143	-0.441410
H93	H	-3.818110	0.028990	-0.537541
H94	H	-3.931363	-0.666686	-0.096064
O95	O	-3.750357	0.040446	-0.397163
C96	C	-3.737358	0.108422	-0.436280
H97	H	-3.708834	0.087641	-0.490320
H98	H	-3.888817	0.128366	-0.444101
C99	C	-3.592124	0.209330	-0.329068
C100	C	-3.557073	0.183808	-0.395440
H101	H	-3.480923	0.255833	-0.303876
H102	H	-3.600888	0.163534	-0.302714
H103	H	-3.718345	0.225944	-0.335595
H104	H	-3.430868	0.167184	-0.388911
H105	H	-3.548283	0.229603	-0.421792
O106	O	-3.948621	0.042656	-0.844491
C107	C	-3.935612	0.110631	-0.883608
H108	H	-3.907084	0.089847	-0.937647
H109	H	-4.087069	0.130577	-0.891432
C110	C	-3.790382	0.211540	-0.776397
C111	C	-3.755326	0.186016	-0.842767
H112	H	-3.679180	0.258043	-0.751204
H113	H	-3.799153	0.165745	-0.750042
H114	H	-3.916601	0.228156	-0.782926
H115	H	-3.629123	0.169390	-0.836237
H116	H	-3.746529	0.231810	-0.869120
