data_functionalizedCrystal
_audit_creation_method	'MofGen! by Chris Wilmer'
_symmetry_space_group_name_H-M	'P1'
_symmetry_Int_Tables_number	1
_symmetry_cell_setting	triclinic
loop_
_symmetry_equiv_pos_as_xyz
  x,y,z
_cell_length_a	13.339070
_cell_length_b	11.804365
_cell_length_c	13.339070
_cell_angle_alpha	74.887832
_cell_angle_beta	64.370706
_cell_angle_gamma	74.875130
loop_
_atom_site_label
_atom_site_type_symbol
_atom_site_fract_x
_atom_site_fract_y
_atom_site_fract_z
O1	O	1.512774	-0.099059	-0.534576
O2	O	1.197964	-0.099053	-0.462317
O3	O	1.319238	-0.099052	-0.341042
O4	O	1.391499	-0.099060	-0.655850
O5	O	1.287299	0.099004	-0.372924
O6	O	1.166024	0.099002	-0.494199
O7	O	1.480834	0.098997	-0.566458
Cu8	Cu	1.320513	0.117083	-0.533239
Cu9	Cu	1.358285	-0.117140	-0.495535
O10	O	1.359560	0.098995	-0.687732
C11	C	1.140878	-0.000025	-0.466052
C12	C	1.018364	-0.000023	-0.429669
C13	C	1.291062	-0.000026	-0.315868
C14	C	1.254680	-0.000030	-0.193353
C15	C	0.732981	-0.000049	-0.712563
C16	C	0.848090	-0.000055	-0.746750
C17	C	0.890664	-0.000046	-0.667483
C18	C	0.818118	-0.000033	-0.554023
C19	C	0.702998	-0.000037	-0.519831
C20	C	0.860682	-0.000034	-0.474750
C21	C	0.788135	-0.000021	-0.361290
C22	C	0.673027	-0.000023	-0.327105
C23	C	0.630453	-0.000032	-0.406372
C24	C	0.975801	-0.000030	-0.508942
C25	C	0.945819	-0.000018	-0.316210
C26	C	0.830709	-0.000012	-0.282023
C27	C	1.537920	-0.000034	-0.562722
C28	C	1.660436	-0.000044	-0.599104
N29	N	1.293954	0.281824	-0.559760
N30	N	1.384850	-0.281880	-0.469008
C31	C	1.448622	0.655774	-0.405301
C32	C	1.468712	0.531113	-0.385233
C33	C	1.425024	0.468784	-0.428863
C34	C	1.361243	0.531130	-0.492564
C35	C	1.341160	0.655803	-0.512642
C36	C	1.317561	0.468814	-0.536204
C37	C	1.253781	0.531159	-0.599906
C38	C	1.233699	0.655820	-0.619979
C39	C	1.277387	0.718149	-0.576349
C40	C	1.337645	0.344140	-0.516126
C41	C	1.230182	0.344169	-0.623468
C42	C	1.210092	0.468830	-0.643536
C43	C	1.387736	-0.000034	-0.712906
C44	C	1.424120	-0.000037	-0.835420
C45	C	1.537579	-0.000034	0.092035
C46	C	1.571765	-0.000023	-0.023075
C47	C	1.492497	-0.000025	-0.065650
C48	C	1.379036	-0.000037	0.006896
C49	C	1.344846	-0.000039	0.122016
C50	C	1.299763	-0.000030	-0.035669
C51	C	1.186303	-0.000042	0.036878
C52	C	1.152118	-0.000044	0.151986
C53	C	1.231386	-0.000042	0.194561
C54	C	1.333954	-0.000029	-0.150789
C55	C	1.141220	-0.000033	-0.120808
C56	C	1.107035	-0.000044	-0.005698
H57	H	1.034858	-0.000036	-0.601322
O58	O	1.171579	0.716328	-0.681707
C59	C	1.062763	0.685869	-0.628393
H60	H	1.043073	0.651607	-0.534803
H61	H	0.997982	0.767866	-0.638729
H62	H	1.059243	0.613507	-0.668533
H63	H	1.389575	0.293389	-0.464261
O64	O	1.444732	0.347689	-0.409413
C65	C	1.561958	0.306012	-0.454371
H66	H	1.608782	0.377843	-0.461641
H67	H	1.583582	0.222610	-0.396320
H68	H	1.588302	0.283882	-0.541504
H69	H	0.907152	-0.000075	-0.839127
H70	H	0.698307	-0.000066	-0.777089
H71	H	1.059730	-0.000044	0.211050
O72	O	1.614432	-0.000078	0.133586
C73	C	1.559915	-0.000044	0.250737
H74	H	1.478480	-0.037547	0.285371
H75	H	1.617736	-0.057536	0.294176
H76	H	1.539447	0.094976	0.267397
O77	O	1.187553	0.283766	-0.665787
C78	C	1.068912	0.314229	-0.622250
H79	H	1.042584	0.404750	-0.594539
H80	H	1.037304	0.318494	-0.690271
H81	H	1.030912	0.244077	-0.546737
H82	H	1.520642	0.480356	-0.333369
H83	H	1.426334	-0.000019	-0.209846
O84	O	1.148250	0.529265	-0.705559
C85	C	1.201524	0.498822	-0.814391
H86	H	1.258404	0.408297	-0.811593
H87	H	1.134827	0.494576	-0.844565
H88	H	1.254418	0.568975	-0.875021
O89	O	1.525587	-0.000174	-0.177420
C90	C	1.500727	-0.102766	-0.191153
H91	H	1.430279	-0.136975	-0.110559
H92	H	1.472498	-0.079696	-0.264506
H93	H	1.579299	-0.174585	-0.209501
O94	O	1.490979	0.716194	-0.362736
C95	C	1.447499	0.685773	-0.244103
H96	H	1.419794	0.595259	-0.217754
H97	H	1.515558	0.681511	-0.212546
H98	H	1.371987	0.755946	-0.206078
H99	H	0.984393	-0.000054	-0.695324
O100	O	0.760222	-0.000219	-0.171789
C101	C	0.709262	-0.102779	-0.129746
H102	H	0.764026	-0.174476	-0.183190
H103	H	0.700244	-0.137205	-0.038584
H104	H	0.622310	-0.079591	-0.133467
O105	O	0.987338	0.000043	-0.239354
C106	C	1.104500	0.000016	-0.293856
H107	H	1.127051	0.037512	-0.387377
H108	H	1.129404	0.057519	-0.254563
H109	H	1.151784	-0.095000	-0.283698
H110	H	1.664144	-0.000012	-0.082135
H111	H	1.261027	0.819658	-0.592684
H112	H	1.203558	-0.000055	0.288293
H113	H	1.014653	-0.000053	0.053386
O114	O	1.064056	0.000014	-0.161975
C115	C	0.956587	-0.000016	-0.073258
H116	H	0.954415	0.037481	-0.001629
H117	H	0.889796	0.057483	-0.105293
H118	H	0.938647	-0.095034	-0.041114
H119	H	0.536722	-0.000027	-0.378543
H120	H	0.613964	-0.000026	-0.234716
