data_functionalizedCrystal
_audit_creation_method	'MofGen! by Chris Wilmer'
_symmetry_space_group_name_H-M	'P1'
_symmetry_Int_Tables_number	1
_symmetry_cell_setting	triclinic
loop_
_symmetry_equiv_pos_as_xyz
  x,y,z
_cell_length_a	30.711274
_cell_length_b	30.706045
_cell_length_c	30.700862
_cell_angle_alpha	60.003901
_cell_angle_beta	89.999237
_cell_angle_gamma	59.983280
loop_
_atom_site_label
_atom_site_type_symbol
_atom_site_fract_x
_atom_site_fract_y
_atom_site_fract_z
O1	O	-0.371025	-0.311753	0.012944
O2	O	-0.307735	-0.222560	-0.012907
O3	O	-0.307703	-0.311753	0.076286
O4	O	-0.371057	-0.222560	-0.076249
O5	O	-0.235258	-0.384199	0.076286
O6	O	-0.235290	-0.295005	-0.012907
O7	O	-0.298580	-0.384198	0.012944
Zn8	Zn	-0.255433	-0.351104	0.000018
Zn9	Zn	-0.350882	-0.255654	0.000019
O10	O	-0.298612	-0.295005	-0.076249
C11	C	-0.234671	-0.137142	-0.018777
C12	C	-0.261558	-0.083387	-0.015076
C13	C	-0.182258	-0.163230	-0.019143
C14	C	-0.234647	-0.216014	-0.018783
C15	C	-0.261507	-0.246588	-0.015089
C16	C	-0.182234	-0.241982	-0.019150
C17	C	-0.155795	-0.216018	-0.018777
C18	C	-0.098348	-0.246598	-0.015075
C19	C	-0.260990	-0.163225	-0.019150
C20	C	-0.496050	-0.614226	0.039265
C21	C	-0.469733	-0.588139	0.039632
C22	C	-0.574925	-0.535351	0.039265
C23	C	-0.548489	-0.509383	0.039632
C24	C	-0.496077	-0.535349	0.039262
C25	C	-0.548462	-0.588141	0.039634
C26	C	-0.447840	-0.790157	0.024988
C27	C	-0.423005	-0.839985	0.020951
C28	C	-0.371068	-0.864979	0.018923
C29	C	-0.344141	-0.918999	0.014536
C30	C	-0.343966	-0.840144	0.020937
C31	C	-0.368799	-0.790325	0.024981
C32	C	-0.420738	-0.765332	0.027006
C33	C	-0.368380	-0.472899	0.024976
C34	C	-0.343398	-0.444034	0.020937
C35	C	-0.370357	-0.390060	0.018907
C36	C	-0.343278	-0.358753	0.014520
C37	C	-0.422301	-0.364956	0.020924
C38	C	-0.447279	-0.393825	0.024972
C39	C	-0.420313	-0.447799	0.026995
C40	C	-0.765089	-0.472909	0.024989
C41	C	-0.818948	-0.444041	0.020946
C42	C	-0.845979	-0.390067	0.018918
C43	C	-0.904377	-0.358763	0.014531
C44	C	-0.819151	-0.364961	0.020929
C45	C	-0.765294	-0.393829	0.024971
C46	C	-0.738266	-0.447807	0.027005
C47	C	-0.447663	-0.711307	0.031386
C48	C	-0.469125	-0.668246	0.034880
C49	C	-0.633321	-0.504051	0.034880
C50	C	-0.679868	-0.479103	0.031387
C51	C	-0.468994	-0.504046	0.034875
C52	C	-0.447404	-0.479097	0.031380
C53	C	-0.496240	-0.071078	-0.503890
C54	C	-0.548662	-0.018287	-0.530226
C55	C	-0.496241	-0.071077	-0.425015
C56	C	-0.548663	-0.018287	-0.451471
C57	C	-0.575117	0.007799	-0.503892
C58	C	-0.469906	-0.097044	-0.451469
C59	C	-0.368470	-0.213124	-0.552051
C60	C	-0.343467	-0.242163	-0.576877
C61	C	-0.370418	-0.217238	-0.628824
C62	C	-0.343314	-0.248728	-0.655741
C63	C	-0.422373	-0.163269	-0.655946
C64	C	-0.447369	-0.134229	-0.631122
C65	C	-0.420415	-0.159159	-0.579173
C66	C	-0.765321	0.183729	-0.631660
C67	C	-0.819185	0.233558	-0.656662
C68	C	-0.846209	0.258553	-0.629713
C69	C	-0.904612	0.312573	-0.656813
C70	C	-0.819361	0.233719	-0.577759
C71	C	-0.765497	0.183900	-0.552761
C72	C	-0.738480	0.158905	-0.579717
C73	C	-0.368472	-0.213122	-0.234803
C74	C	-0.343472	-0.242165	-0.180935
C75	C	-0.370424	-0.217240	-0.153914
C76	C	-0.343320	-0.248729	-0.095506
C77	C	-0.422376	-0.163275	-0.180762
C78	C	-0.447374	-0.134236	-0.234628
C79	C	-0.420415	-0.159161	-0.261646
C80	C	-0.447526	-0.127669	-0.552259
C81	C	-0.469134	-0.102568	-0.530805
C82	C	-0.469135	-0.102567	-0.366609
C83	C	-0.447528	-0.127667	-0.320054
C84	C	-0.633521	0.061819	-0.530998
C85	C	-0.680074	0.104881	-0.552605
O86	O	0.076380	-0.384211	0.012960
O87	O	-0.076132	-0.295015	-0.012893
O88	O	0.013055	-0.384213	0.076301
O89	O	-0.012807	-0.295013	-0.076234
O90	O	0.013033	-0.311772	0.076306
O91	O	-0.076154	-0.222574	-0.012888
O92	O	0.076358	-0.311770	0.012966
Zn93	Zn	0.000099	-0.255670	0.000040
Zn94	Zn	0.000127	-0.351115	0.000032
O95	O	-0.012829	-0.222572	-0.076228
O96	O	-0.298726	0.063315	0.012964
O97	O	-0.235362	-0.063365	-0.012888
O98	O	-0.235364	-0.063373	0.076305
O99	O	-0.298723	0.063323	-0.076229
O100	O	-0.307787	-0.063369	0.076299
O101	O	-0.307784	-0.063361	-0.012895
O102	O	-0.371148	0.063319	0.012958
Zn103	Zn	-0.350965	-0.000021	0.000031
Zn104	Zn	-0.255545	-0.000026	0.000039
O105	O	-0.371146	0.063327	-0.076236
O106	O	-1.076397	0.456944	-0.692421
O107	O	-0.923872	0.330258	-0.629074
O108	O	-1.013031	0.330256	-0.629073
O109	O	-0.987238	0.456946	-0.692422
O110	O	-1.013029	0.330255	-0.701518
O111	O	-0.923871	0.330256	-0.701519
O112	O	-1.076395	0.456943	-0.764866
Zn113	Zn	-1.000132	0.393599	-0.744695
Zn114	Zn	-1.000135	0.393601	-0.649246
O115	O	-0.987236	0.456944	-0.764867
O116	O	-0.307703	-0.311753	-0.764507
O117	O	-0.371054	-0.222563	-0.701165
O118	O	-0.371023	-0.311755	-0.701162
O119	O	-0.307733	-0.222562	-0.764510
O120	O	-0.298577	-0.384201	-0.628716
O121	O	-0.298608	-0.295010	-0.628719
O122	O	-0.235257	-0.384200	-0.692061
Zn123	Zn	-0.255430	-0.351107	-0.648887
Zn124	Zn	-0.350881	-0.255656	-0.744338
O125	O	-0.235288	-0.295008	-0.692064
C126	C	-0.155711	-0.469626	0.234827
C127	C	-0.098256	-0.523384	0.261707
C128	C	-0.182165	-0.443540	0.261162
C129	C	-0.234587	-0.390750	0.155950
C130	C	-0.261467	-0.360172	0.098494
C131	C	-0.260922	-0.364783	0.182405
C132	C	-0.234587	-0.390750	0.234826
C133	C	-0.261467	-0.360172	0.261704
C134	C	-0.182166	-0.443540	0.182406
C135	C	0.018934	-0.390775	0.234846
C136	C	0.015226	-0.360201	0.261728
C137	C	0.019318	-0.443564	0.261179
C138	C	0.018936	-0.390769	0.155968
C139	C	0.015230	-0.360189	0.098511
C140	C	0.019320	-0.443558	0.182420
C141	C	0.018958	-0.469647	0.234841
C142	C	0.015276	-0.523403	0.261717
C143	C	0.019296	-0.364806	0.182425
C144	C	-0.234647	-0.216048	0.234834
C145	C	-0.261508	-0.246627	0.261708
C146	C	-0.182234	-0.242021	0.261172
C147	C	-0.234673	-0.137164	0.155964
C148	C	-0.261560	-0.083399	0.098509
C149	C	-0.182259	-0.163256	0.182421
C150	C	-0.155796	-0.216053	0.234841
C151	C	-0.098348	-0.246636	0.261721
C152	C	-0.260991	-0.163252	0.182415
C153	C	-0.039188	0.007464	-0.503869
C154	C	-0.039548	-0.018620	-0.530207
C155	C	-0.039166	-0.071413	-0.424995
C156	C	-0.039526	-0.097377	-0.451452
C157	C	-0.039164	-0.071409	-0.503874
C158	C	-0.039550	-0.018624	-0.451448
C159	C	-0.024965	0.183387	-0.552025
C160	C	-0.020944	0.233214	-0.576849
C161	C	-0.018924	0.258211	-0.628796
C162	C	-0.014553	0.312229	-0.655711
C163	C	-0.020930	0.233380	-0.655919
C164	C	-0.024959	0.183562	-0.631097
C165	C	-0.026976	0.158566	-0.579148
C166	C	-0.024866	-0.133844	-0.631644
C167	C	-0.020821	-0.162705	-0.656647
C168	C	-0.018776	-0.216678	-0.629699
C169	C	-0.014382	-0.247981	-0.656801
C170	C	-0.020785	-0.241785	-0.577746
C171	C	-0.024840	-0.212919	-0.552747
C172	C	-0.026877	-0.158946	-0.579702
C173	C	-0.024876	-0.133868	-0.234783
C174	C	-0.020825	-0.162739	-0.180915
C175	C	-0.018783	-0.216712	-0.153896
C176	C	-0.014389	-0.248020	-0.095488
C177	C	-0.020787	-0.241814	-0.180744
C178	C	-0.024836	-0.212943	-0.234610
C179	C	-0.026885	-0.158966	-0.261627
C180	C	-0.031340	0.104543	-0.552235
C181	C	-0.034820	0.061483	-0.530782
C182	C	-0.034774	-0.102717	-0.366590
C183	C	-0.031275	-0.127667	-0.320035
C184	C	-0.034770	-0.102707	-0.530980
C185	C	-0.031269	-0.127653	-0.552588
O186	O	-0.012837	-0.295036	0.371303
O187	O	0.013047	-0.384228	0.307961
O188	O	-0.076149	-0.295034	0.307950
O189	O	0.076360	-0.384230	0.371315
O190	O	-0.076165	-0.222590	0.235508
O191	O	0.013032	-0.311784	0.235520
O192	O	-0.012852	-0.222592	0.298862
Zn193	Zn	0.000087	-0.255686	0.255689
Zn194	Zn	0.000108	-0.351134	0.351134
O195	O	0.076344	-0.311786	0.298873
C196	C	-0.574923	0.464719	-0.503864
C197	C	-0.548485	0.490687	-0.530195
C198	C	-0.496046	0.385830	-0.424987
C199	C	-0.469728	0.411918	-0.451438
C200	C	-0.496072	0.464715	-0.503857
C201	C	-0.548459	0.411922	-0.451445
C202	C	-0.765091	0.527177	-0.552039
C203	C	-0.818949	0.556046	-0.576868
C204	C	-0.845979	0.610026	-0.628812
C205	C	-0.904378	0.641337	-0.655732
C206	C	-0.819147	0.635133	-0.655929
C207	C	-0.765292	0.606260	-0.631103
C208	C	-0.738264	0.552279	-0.579156
C209	C	-0.447968	0.606769	-0.631605
C210	C	-0.423158	0.635809	-0.656601
C211	C	-0.371222	0.610883	-0.629648
C212	C	-0.344321	0.642369	-0.656743
C213	C	-0.344093	0.556907	-0.577697
C214	C	-0.368898	0.527862	-0.552705
C215	C	-0.420841	0.552803	-0.579664
C216	C	-0.447839	0.209876	-0.234786
C217	C	-0.423006	0.160045	-0.180920
C218	C	-0.371068	0.135045	-0.153895
C219	C	-0.344141	0.081016	-0.095489
C220	C	-0.343966	0.159880	-0.180738
C221	C	-0.368801	0.209711	-0.234602
C222	C	-0.420738	0.234702	-0.261624
C223	C	-0.679868	0.520978	-0.552238
C224	C	-0.633319	0.496025	-0.530782
C225	C	-0.469122	0.331802	-0.366584
C226	C	-0.447660	0.288735	-0.320030
C227	C	-0.469175	0.496206	-0.530956
C228	C	-0.447735	0.521307	-0.552559
H229	H	-0.160990	-0.284460	-0.019743
Cl230	Cl	-0.327476	-0.129542	0.149616
H231	H	-0.161034	-0.141424	0.161182
Cl232	Cl	-0.149378	-0.477253	0.327664
H233	H	-0.040108	0.003180	-0.430195
Cl234	Cl	-0.457265	0.703661	-0.721905
Cl235	Cl	-0.334585	-0.244463	-0.268766
H236	H	-0.160992	-0.284502	0.304244
H237	H	-0.489668	-0.090286	-0.653209
H238	H	-0.019183	-0.142261	-0.698946
Cl239	Cl	-0.040475	0.015091	-0.596706
H240	H	-0.160919	-0.465364	0.161163
H241	H	-0.303991	-0.322299	0.161160
Cl242	Cl	-0.149488	-0.129525	-0.020057
Cl243	Cl	0.020243	-0.477260	0.149626
H244	H	0.019909	-0.465391	0.304248
Cl245	Cl	-0.334480	-0.540751	0.027524
Cl246	Cl	0.020191	-0.299224	0.149636
H247	H	-0.026592	0.163350	-0.653183
H248	H	-0.040106	-0.139855	-0.430213
H249	H	-0.019180	-0.142304	-0.159055
H250	H	-0.026542	-0.089919	-0.256777
H251	H	-0.026609	0.163040	-0.509727
H252	H	-0.841163	-0.321010	0.019276
Cl253	Cl	-0.334581	-0.244464	-0.486748
H254	H	-0.019308	0.253425	-0.554762
H255	H	-0.301679	-0.860498	0.019286
H256	H	-0.569896	0.003550	-0.573302
H257	H	-0.426834	-0.139522	-0.430231
H258	H	-0.019288	0.253739	-0.698214
Cl259	Cl	-0.027436	-0.065991	-0.665532
H260	H	-0.304055	-0.141388	-0.019747
H261	H	-0.841159	0.679082	-0.698223
Cl262	Cl	-0.018224	-0.309631	-0.543868
H263	H	-0.743641	0.163687	-0.510462
Cl264	Cl	-0.334728	0.240926	-0.268344
Cl265	Cl	-0.513130	0.241294	-0.268755
H266	H	-0.569901	0.003543	-0.430230
H267	H	-0.026477	-0.233362	-0.510448
Cl268	Cl	-0.581292	-0.443797	0.040543
Cl269	Cl	-0.278160	-0.310008	-0.542780
Cl270	Cl	-0.027355	-0.244502	-0.268359
Cl271	Cl	-0.278163	-0.310008	-0.147187
H272	H	-0.301801	0.536605	-0.555754
Cl273	Cl	-0.403242	-0.621853	0.040560
H274	H	-0.489570	-0.373384	0.026615
H275	H	-0.569685	-0.609973	0.040224
Cl276	Cl	-0.853327	0.265145	-0.543880
Cl277	Cl	-0.018230	-0.309661	-0.146782
H278	H	-0.426664	0.390081	-0.430194
Cl279	Cl	-0.456248	-0.131933	-0.721250
H280	H	-0.569732	0.533169	-0.573267
Cl281	Cl	-0.852672	-0.475604	0.018415
Cl282	Cl	-0.731112	-0.540766	0.027545
H283	H	-0.490130	-0.769813	0.026639
Cl284	Cl	-0.457078	-0.871197	0.018416
Cl285	Cl	-0.581230	0.378216	-0.418656
Cl286	Cl	-0.852932	0.264767	-0.721968
H287	H	-0.346729	-0.770110	0.026621
H288	H	-0.445079	0.139832	-0.159066
H289	H	-0.301109	-0.464473	0.019289
Cl290	Cl	-0.456191	-0.297113	0.018387
H291	H	-0.743090	0.483223	-0.509743
Cl292	Cl	-0.731571	-0.362267	0.027502
Cl293	Cl	-0.852676	0.524485	-0.542777
Cl294	Cl	-0.731565	0.637821	-0.665192
Cl295	Cl	-0.513262	0.638119	-0.665497
Cl296	Cl	-0.334792	0.460011	-0.487401
Cl297	Cl	-0.278669	0.128449	-0.146768
Cl298	Cl	-0.731359	0.152314	-0.665548
H299	H	-0.489674	-0.090295	-0.256484
H300	H	-0.444322	-0.142980	-0.158758
