data_functionalizedCrystal
_audit_creation_method	'MofGen! by Chris Wilmer'
_symmetry_space_group_name_H-M	'P1'
_symmetry_Int_Tables_number	1
_symmetry_cell_setting	triclinic
loop_
_symmetry_equiv_pos_as_xyz
  x,y,z
_cell_length_a	15.995300
_cell_length_b	14.519709
_cell_length_c	13.596369
_cell_angle_alpha	90.000208
_cell_angle_beta	89.993087
_cell_angle_gamma	83.575976
loop_
_atom_site_label
_atom_site_type_symbol
_atom_site_fract_x
_atom_site_fract_y
_atom_site_fract_z
O1	O	1.111190	0.118654	-0.081814
O2	O	1.611190	0.618654	0.418186
O3	O	0.867431	0.133381	-0.081806
O4	O	1.367431	0.633381	0.418194
O5	O	0.995774	-0.008234	-0.081819
O6	O	1.495774	0.491766	0.418181
O7	O	0.982848	0.260269	-0.081801
O8	O	1.482848	0.760269	0.418199
O9	O	0.995761	-0.008241	0.081764
O10	O	1.495761	0.491759	0.581764
O11	O	0.867419	0.133374	0.081777
O12	O	1.367419	0.633374	0.581777
O13	O	1.111177	0.118646	0.081769
O14	O	1.611177	0.618646	0.581769
Zn15	Zn	0.989296	0.126009	0.107745
Zn16	Zn	1.489296	0.626009	0.607745
Zn17	Zn	0.989313	0.126019	-0.107782
Zn18	Zn	1.489313	0.626019	0.392218
O19	O	0.982835	0.260261	0.081782
O20	O	1.482835	0.760261	0.581782
C21	C	0.836229	0.132777	-0.000014
C22	C	1.336229	0.632777	0.499986
C23	C	0.743273	0.130976	-0.000012
C24	C	1.243273	0.630976	0.499988
C25	C	0.573085	0.127650	-0.000020
C26	C	1.073085	0.627650	0.499980
C27	C	0.525770	0.228484	-0.000010
C28	C	1.025770	0.728484	0.499990
C29	C	0.429080	0.226644	-0.000384
C30	C	0.929080	0.726644	0.499616
C31	C	0.405524	0.124377	-0.000026
C32	C	0.905524	0.624377	0.499974
C33	C	0.446589	0.074354	-0.093259
C34	C	0.946589	0.574354	0.406741
C35	C	0.543226	0.076906	-0.093335
C36	C	1.043226	0.576906	0.406665
C37	C	0.543488	0.075405	0.092696
C38	C	1.043488	0.575405	0.592696
C39	C	0.446544	0.075414	0.093919
C40	C	0.946544	0.575414	0.593919
C41	C	0.310826	0.122522	-0.000033
C42	C	0.810826	0.622522	0.499967
C43	C	0.667784	0.129503	-0.000019
C44	C	1.167784	0.629503	0.499981
C45	C	0.995165	-0.042596	-0.000032
C46	C	1.495165	0.457404	0.499968
C47	C	0.993360	-0.144974	-0.000045
C48	C	1.493360	0.355026	0.499955
C49	C	1.142380	0.119251	-0.000025
C50	C	1.642380	0.619251	0.499975
C51	C	1.235336	0.121051	-0.000034
C52	C	1.735336	0.621051	0.499966
C53	C	0.983444	0.294624	-0.000007
C54	C	1.483444	0.794624	0.499993
C55	C	0.985249	0.397001	-0.000001
C56	C	1.485249	0.897001	0.499999
N57	N	0.989291	0.126002	0.254837
N58	N	1.489291	0.626002	0.754837
C59	C	0.991895	0.771884	-0.000040
C60	C	1.491895	1.271884	0.499960
C61	C	0.990049	0.667580	-0.000029
C62	C	1.490049	1.167580	0.499971
C63	C	0.988572	0.584446	-0.000019
C64	C	1.488572	1.084446	0.499981
C65	C	0.986726	0.480135	-0.000010
C66	C	1.486726	0.980135	0.499990
N67	N	0.989325	0.126019	-0.254874
N68	N	1.489325	0.626019	0.245126
C69	C	0.989312	0.126020	0.656128
C70	C	1.489312	0.626020	1.156128
C71	C	0.989303	0.126018	0.544477
C72	C	1.489303	0.626018	1.044477
C73	C	0.989302	0.126011	0.455486
C74	C	1.489302	0.626011	0.955486
C75	C	0.989292	0.126008	0.343828
C76	C	1.489292	0.626008	0.843828
H77	H	0.564033	0.108598	0.163384
H78	H	1.064033	0.608598	0.663384
Cl79	Cl	0.386178	0.287074	-0.104166
Cl80	Cl	0.886178	0.787074	0.395834
Cl81	Cl	0.402935	0.127387	-0.200782
Cl82	Cl	0.902935	0.627387	0.299218
H83	H	0.545444	0.268405	-0.066763
H84	H	1.045444	0.768405	0.433237
H85	H	0.561604	0.112964	-0.163287
H86	H	1.061604	0.612964	0.336713
Cl87	Cl	0.592399	-0.039367	0.094088
Cl88	Cl	1.092399	0.460633	0.594088
H89	H	0.400670	0.265950	0.066434
H90	H	0.900670	0.765950	0.566434
Cl91	Cl	0.554930	0.291296	0.102765
Cl92	Cl	1.054930	0.791296	0.602765
H93	H	0.419253	0.111943	0.162894
H94	H	0.919253	0.611943	0.662894
H95	H	0.431094	0.000854	0.099819
H96	H	0.931094	0.500854	0.599819
Cl97	Cl	0.592886	-0.037406	-0.099488
Cl98	Cl	1.092886	0.462594	0.400512
H99	H	0.432377	-0.000789	-0.096469
H100	H	0.932377	0.499211	0.403531
