data_functionalizedCrystal
_audit_creation_method	'MofGen! by Chris Wilmer'
_symmetry_space_group_name_H-M	'P1'
_symmetry_Int_Tables_number	1
_symmetry_cell_setting	triclinic
loop_
_symmetry_equiv_pos_as_xyz
  x,y,z
_cell_length_a	11.026660
_cell_length_b	15.995292
_cell_length_c	9.483334
_cell_angle_alpha	80.664692
_cell_angle_beta	101.356402
_cell_angle_gamma	96.026726
loop_
_atom_site_label
_atom_site_type_symbol
_atom_site_fract_x
_atom_site_fract_y
_atom_site_fract_z
O1	O	1.591134	0.360856	-0.120868
O2	O	1.237841	0.320935	-0.120871
O3	O	1.424181	0.220466	-0.120872
O4	O	1.404793	0.461325	-0.120867
O5	O	1.462000	0.199950	0.120904
O6	O	1.275660	0.300419	0.120904
O7	O	1.628952	0.340340	0.120908
Cu8	Cu	1.455759	0.318506	0.142982
Cu9	Cu	1.411034	0.342769	-0.142945
O10	O	1.442612	0.440809	0.120908
C11	C	1.211542	0.303312	0.000016
C12	C	1.076835	0.281356	0.000014
C13	C	0.863783	0.319296	0.000010
C14	C	1.003010	0.341989	0.000014
C15	C	1.442301	0.178894	0.000012
C16	C	1.439933	0.085585	0.000002
C17	C	1.431238	-0.253465	0.000015
C18	C	1.565818	-0.209927	0.000556
C19	C	1.568289	-0.112820	0.000006
C20	C	1.435553	-0.085259	0.000009
C21	C	1.346716	-0.112779	-0.138053
C22	C	1.345080	-0.209804	-0.138163
C23	C	1.385340	-0.233406	0.136781
C24	C	1.390609	-0.136317	0.138600
C25	C	1.437984	0.009805	0.000001
C26	C	1.428802	-0.348528	0.000013
C27	C	1.655251	0.357963	0.000018
C28	C	1.789956	0.379920	0.000010
C29	C	1.424492	0.482382	0.000021
C30	C	1.426858	0.575691	0.000022
N31	N	1.487225	0.301442	0.344088
N32	N	1.379578	0.359828	-0.344051
C33	C	1.420301	0.337733	0.416317
C34	C	1.446512	0.323531	0.583723
H35	H	0.829825	0.448622	0.000020
C36	C	0.682468	0.222018	-0.000000
C37	C	0.809977	0.226546	0.000005
H38	H	0.649254	0.164757	-0.000012
H39	H	0.669023	0.241950	0.084309
H40	H	0.642650	0.256268	-0.084317
H41	H	0.849796	0.192301	0.084328
H42	H	0.823431	0.206604	-0.084313
C43	C	1.036975	0.464118	0.124303
C44	C	1.056815	0.434742	0.000016
H45	H	1.070202	0.521376	0.124305
H46	H	0.950480	0.461040	0.124288
H47	H	1.076808	0.429865	0.208607
H48	H	1.016974	0.468991	-0.084288
H49	H	1.143327	0.437826	0.000017
C50	C	1.304406	-0.188645	-0.399161
C51	C	1.386162	-0.224713	-0.277479
H52	H	1.329778	-0.197842	-0.485167
H53	H	1.222969	-0.214285	-0.397009
H54	H	1.305045	-0.129343	-0.397839
H55	H	1.385517	-0.284017	-0.278795
H56	H	1.467621	-0.199076	-0.279631
H57	H	1.295029	-0.118658	0.146940
H58	H	1.036960	0.212657	-0.000084
H59	H	1.286487	-0.262397	0.137713
H60	H	1.636430	-0.094255	0.098972
H61	H	1.455547	-0.119039	0.240737
H62	H	1.601971	-0.222820	-0.097897
C63	C	1.592927	-0.311925	0.217787
C64	C	1.656721	-0.248516	0.134209
H65	H	1.649051	-0.335754	0.300297
H66	H	1.529208	-0.287938	0.248821
H67	H	1.557276	-0.355094	0.160928
H68	H	1.692365	-0.205344	0.191066
H69	H	1.720463	-0.272503	0.103177
C70	C	1.292058	-0.016824	-0.359072
C71	C	1.388053	-0.064434	-0.276763
H72	H	1.317588	0.013024	-0.444697
H73	H	1.220732	-0.053810	-0.384947
H74	H	1.272767	0.022613	-0.303396
H75	H	1.407337	-0.103875	-0.332436
H76	H	1.459400	-0.027444	-0.250891
C77	C	1.210021	-0.049279	-0.024976
C78	C	1.213772	-0.089040	-0.145001
H79	H	1.127949	-0.034619	-0.029272
H80	H	1.234740	-0.086934	0.062000
H81	H	1.264818	0.000690	-0.026274
H82	H	1.158982	-0.139012	-0.143697
H83	H	1.189037	-0.051382	-0.231999
C84	C	1.342222	0.476069	0.369175
C85	C	1.316756	0.393875	0.332500
H86	H	1.278299	0.510730	0.317423
H87	H	1.346241	0.473885	0.470666
H88	H	1.419389	0.499341	0.344283
H89	H	1.239593	0.370601	0.357403
H90	H	1.312724	0.396056	0.230987
H91	H	1.605753	-0.078018	-0.099134
C92	C	1.524595	0.185193	0.630849
C93	C	1.550062	0.267386	0.667529
H94	H	1.588525	0.150534	0.682583
H95	H	1.447442	0.161920	0.655744
H96	H	1.520568	0.187382	0.529342
H97	H	1.554080	0.265197	0.769035
H98	H	1.627236	0.290664	0.642644
C99	C	1.301496	0.498166	0.608830
C100	C	1.276027	0.415974	0.572147
H101	H	1.237572	0.532828	0.557088
H102	H	1.305522	0.495978	0.710323
H103	H	1.378661	0.521439	0.583933
H104	H	1.198866	0.392699	0.597055
H105	H	1.271987	0.418159	0.470632
H106	H	1.245488	-0.238687	-0.144416
C107	C	1.565303	0.163106	0.391219
C108	C	1.590770	0.245299	0.427899
H109	H	1.629234	0.128447	0.442954
H110	H	1.488150	0.139833	0.416114
H111	H	1.561276	0.165296	0.289712
H112	H	1.594789	0.243110	0.529405
H113	H	1.667945	0.268577	0.403014
H114	H	1.444065	-0.263991	0.241431
