data_functionalizedCrystal
_audit_creation_method	'MofGen! by Chris Wilmer'
_symmetry_space_group_name_H-M	'P1'
_symmetry_Int_Tables_number	1
_symmetry_cell_setting	triclinic
loop_
_symmetry_equiv_pos_as_xyz
  x,y,z
_cell_length_a	17.699077
_cell_length_b	16.992695
_cell_length_c	16.776229
_cell_angle_alpha	89.993259
_cell_angle_beta	89.993415
_cell_angle_gamma	86.974400
loop_
_atom_site_label
_atom_site_type_symbol
_atom_site_fract_x
_atom_site_fract_y
_atom_site_fract_z
O1	O	1.010253	0.099123	-0.066278
O2	O	1.510253	0.599123	0.433722
O3	O	0.790677	0.112027	-0.066282
O4	O	1.290677	0.612027	0.433718
O5	O	0.899585	-0.008566	-0.066274
O6	O	1.399585	0.491434	0.433726
O7	O	0.901345	0.219716	-0.066287
O8	O	1.401345	0.719716	0.433713
O9	O	0.899569	-0.008573	0.066302
O10	O	1.399569	0.491427	0.566302
O11	O	0.790661	0.112020	0.066294
O12	O	1.290661	0.612020	0.566294
O13	O	1.010237	0.099116	0.066298
O14	O	1.510237	0.599116	0.566298
Zn15	Zn	0.900447	0.105567	0.087345
Zn16	Zn	1.400447	0.605567	0.587345
Zn17	Zn	0.900468	0.105576	-0.087330
Zn18	Zn	1.400468	0.605576	0.412670
O19	O	0.901329	0.219709	0.066290
O20	O	1.401329	0.719709	0.566290
C21	C	0.762443	0.111562	0.000005
C22	C	1.262443	0.611562	0.500005
C23	C	0.678339	0.110177	0.000004
C24	C	1.178339	0.610177	0.500004
C25	C	0.638822	0.109521	0.072272
C26	C	1.138822	0.609521	0.572272
C27	C	0.559798	0.108207	0.072273
C28	C	1.059798	0.608207	0.572273
C29	C	0.520291	0.107555	0.000005
C30	C	1.020291	0.607555	0.500005
C31	C	0.559814	0.108210	-0.072269
C32	C	1.059814	0.608210	0.427731
C33	C	0.638837	0.109518	-0.072269
C34	C	1.138837	0.609518	0.427731
C35	C	0.241122	0.102934	-0.072270
C36	C	0.741122	0.602934	0.427730
C37	C	0.162093	0.101628	-0.072265
C38	C	0.662093	0.601628	0.427735
C39	C	0.162083	0.101623	0.072272
C40	C	0.662083	0.601623	0.572272
C41	C	0.241106	0.102931	0.072272
C42	C	0.741106	0.602931	0.572272
C43	C	0.280622	0.103581	-0.000001
C44	C	0.780622	0.603581	0.499999
C45	C	0.366309	0.105004	-0.000002
C46	C	0.866309	0.605004	0.499998
C47	C	0.434605	0.106138	0.000004
C48	C	0.934605	0.606138	0.500004
C49	C	0.897312	-0.037778	0.000014
C50	C	1.397312	0.462222	0.500014
C51	C	0.890555	-0.124809	0.000014
C52	C	1.390555	0.375191	0.500014
C53	C	0.955753	-0.175175	0.000016
C54	C	1.455753	0.324825	0.500016
C55	C	0.949399	-0.256949	0.000008
C56	C	1.449399	0.243051	0.500008
C57	C	0.877847	-0.288356	0.000004
C58	C	1.377847	0.211644	0.500004
C59	C	0.812644	-0.237983	-0.000000
C60	C	1.312644	0.262017	0.500000
C61	C	0.818999	-0.156211	0.000002
C62	C	1.318999	0.343789	0.500002
C63	C	0.851511	-0.531903	-0.000007
C64	C	1.351511	-0.031903	0.499993
C65	C	0.845161	-0.613682	-0.000007
C66	C	1.345161	-0.113682	0.499993
C67	C	0.981917	-0.632642	-0.000000
C68	C	1.481917	-0.132642	0.500000
C69	C	0.988265	-0.550867	0.000007
C70	C	1.488265	-0.050867	0.500007
C71	C	0.923062	-0.500502	-0.000002
C72	C	1.423062	-0.000502	0.499998
N73	N	0.871351	-0.371942	-0.000001
N74	N	1.371351	0.128058	0.499999
N75	N	0.929559	-0.416917	-0.000002
N76	N	1.429559	0.083083	0.499998
C77	C	1.038471	0.099581	0.000009
C78	C	1.538471	0.599581	0.500009
C79	C	1.122575	0.100966	0.000005
C80	C	1.622575	0.600966	0.500005
C81	C	0.903602	0.248921	-0.000000
C82	C	1.403602	0.748921	0.500000
C83	C	0.910359	0.335952	-0.000005
C84	C	1.410359	0.835952	0.499995
N85	N	0.900438	0.105559	0.206557
N86	N	1.400438	0.605559	0.706557
N87	N	0.900482	0.105577	-0.206541
N88	N	1.400482	0.605577	0.293459
C89	C	0.948679	0.052183	0.248277
C90	C	1.448679	0.552183	0.748277
C91	C	0.948683	0.052182	0.331730
C92	C	1.448683	0.552182	0.831730
C93	C	0.900449	0.105562	0.373460
C94	C	1.400449	0.605562	0.873460
C95	C	0.852203	0.158942	0.331733
C96	C	1.352203	0.658942	0.831733
C97	C	0.852195	0.158938	0.248282
C98	C	1.352195	0.658938	0.748282
C99	C	0.852231	0.158957	0.668280
C100	C	1.352231	0.658957	1.168280
C101	C	0.852244	0.158958	0.751737
C102	C	1.352244	0.658958	1.251737
C103	C	0.948719	0.052201	0.751727
C104	C	1.448719	0.552201	1.251727
C105	C	0.948712	0.052197	0.668277
C106	C	1.448712	0.552197	1.168277
C107	C	0.900463	0.105574	0.626557
C108	C	1.400463	0.605574	1.126557
C109	C	0.900458	0.105573	0.536069
C110	C	1.400458	0.605573	1.036069
C111	C	0.900458	0.105568	0.463946
C112	C	1.400458	0.605568	0.963946
H113	H	0.129900	0.101090	0.131121
H114	H	0.629900	0.601090	0.631121
H115	H	0.129929	0.101097	-0.131118
H116	H	0.629929	0.601097	0.368882
O117	O	0.283738	0.103643	-0.150218
O118	O	0.783738	0.603643	0.349782
H119	H	0.242988	0.102980	-0.200468
H120	H	0.742988	0.602980	0.299532
H121	H	0.527642	0.107674	-0.131111
H122	H	1.027642	0.607674	0.368889
H123	H	0.812911	0.202402	0.214314
H124	H	1.312911	0.702402	0.714314
H125	H	0.671010	0.110054	-0.131117
H126	H	1.171010	0.610054	0.368883
H127	H	0.812963	0.202429	0.785712
H128	H	1.312963	0.702429	1.285712
H129	H	0.987960	0.008718	0.214306
H130	H	1.487960	0.508718	0.714306
O131	O	1.032927	-0.141301	0.000012
O132	O	1.532927	0.358699	0.500012
H133	H	1.077195	-0.190066	0.000002
H134	H	1.577195	0.309934	0.500002
O135	O	0.767984	-0.647561	-0.000020
O136	O	1.267984	-0.147561	0.499980
H137	H	0.723711	-0.598802	-0.000035
H138	H	1.223711	-0.098802	0.499965
O139	O	1.052237	-0.686968	0.000002
O140	O	1.552237	-0.186968	0.500002
H141	H	1.086233	-0.675829	0.054043
H142	H	1.586233	-0.175829	0.554043
H143	H	1.002490	-0.297955	0.000011
H144	H	1.502490	0.202045	0.500011
H145	H	0.987964	0.008718	0.365698
H146	H	1.487964	0.508718	0.865698
H147	H	0.987991	0.008733	0.634303
H148	H	1.487991	0.508733	1.134303
O149	O	0.781185	-0.477591	-0.000013
O150	O	1.281185	0.022409	0.499987
H151	H	0.797618	-0.415451	-0.000022
H152	H	1.297618	0.084549	0.499978
O153	O	1.065442	-0.516999	0.000012
O154	O	1.565442	-0.016999	0.500012
H155	H	1.058906	-0.451676	0.000023
H156	H	1.558906	0.048324	0.500023
O157	O	0.735467	-0.271851	0.000004
O158	O	1.235467	0.228149	0.500004
H159	H	0.742001	-0.337175	0.000014
H160	H	1.242001	0.162825	0.500014
O161	O	0.748680	-0.101881	0.000008
O162	O	1.248680	0.398119	0.500008
H163	H	0.697857	-0.137456	0.000014
H164	H	1.197857	0.362544	0.500014
H165	H	0.988004	0.008737	0.785704
H166	H	1.488004	0.508737	1.285704
O167	O	0.800201	0.216531	0.623287
O168	O	1.300201	0.716531	1.123287
H169	H	0.766672	0.253655	0.666326
H170	H	1.266672	0.753655	1.166326
O171	O	0.800183	0.216525	0.376736
O172	O	1.300183	0.716525	0.876736
H173	H	0.761414	0.183578	0.414779
H174	H	1.261414	0.683578	0.914779
O175	O	0.681428	0.110235	0.150221
O176	O	1.181428	0.610235	0.650221
H177	H	0.669783	0.056566	0.184881
H178	H	1.169783	0.556566	0.684881
O179	O	0.517173	0.107507	0.150219
O180	O	1.017173	0.607507	0.650219
H181	H	0.557919	0.108193	0.200471
H182	H	1.057919	0.608193	0.700471
H183	H	0.273268	0.103465	0.131120
H184	H	0.773268	0.603465	0.631120
