data_functionalizedCrystal
_audit_creation_method	'MofGen! by Chris Wilmer'
_symmetry_space_group_name_H-M	'P1'
_symmetry_Int_Tables_number	1
_symmetry_cell_setting	triclinic
loop_
_symmetry_equiv_pos_as_xyz
  x,y,z
_cell_length_a	11.169417
_cell_length_b	11.169416
_cell_length_c	11.169409
_cell_angle_alpha	90.029517
_cell_angle_beta	90.019513
_cell_angle_gamma	90.005487
loop_
_atom_site_label
_atom_site_type_symbol
_atom_site_fract_x
_atom_site_fract_y
_atom_site_fract_z
Zn1	Zn	1.835013	-0.477670	0.678556
Zn2	Zn	2.168347	-0.144337	1.011890
Zn3	Zn	2.501680	0.188997	1.345223
Zn4	Zn	1.834924	-0.678410	0.477883
Zn5	Zn	2.168257	-0.345077	0.811216
Zn6	Zn	2.501591	-0.011744	1.144550
Zn7	Zn	1.634299	-0.477744	0.477892
Zn8	Zn	1.967632	-0.144411	0.811225
Zn9	Zn	2.300966	0.188922	1.144558
Zn10	Zn	1.634328	-0.678314	0.678529
Zn11	Zn	1.967661	-0.344981	1.011862
Zn12	Zn	2.300995	-0.011647	1.345196
O13	O	1.734641	-0.578035	0.578215
O14	O	2.067974	-0.244701	0.911548
O15	O	2.401308	0.088632	1.244882
O16	O	2.002951	-0.504308	0.651944
O17	O	2.336284	-0.170974	0.985278
O18	O	2.669618	0.162359	1.318611
O19	O	1.808261	-0.651863	0.309934
O20	O	2.141595	-0.318530	0.643268
O21	O	2.474928	0.014804	0.976601
O22	O	1.660950	-0.309785	0.504525
O23	O	1.994283	0.023549	0.837859
O24	O	2.327616	0.356882	1.171192
O25	O	2.002885	-0.651791	0.504511
O26	O	2.336219	-0.318458	0.837844
O27	O	2.669552	0.014876	1.171177
O28	O	1.808413	-0.309730	0.651953
O29	O	2.141747	0.023603	0.985286
O30	O	2.475080	0.356937	1.318619
O31	O	1.660863	-0.504435	0.309941
O32	O	1.994196	-0.171101	0.643274
O33	O	2.327530	0.162232	0.976607
O34	O	1.466353	-0.504341	0.504499
O35	O	1.799687	-0.171008	0.837832
O36	O	2.133020	0.162325	1.171166
O37	O	1.660999	-0.651627	0.846483
O38	O	1.994332	-0.318293	1.179816
O39	O	2.327665	0.015040	1.513149
O40	O	1.466374	-0.651699	0.651906
O41	O	1.799708	-0.318366	0.985240
O42	O	2.133041	0.014968	1.318573
O43	O	1.808441	-0.504214	0.846503
O44	O	2.141775	-0.170881	1.179836
O45	O	2.475108	0.162452	1.513169
O46	O	1.808289	-0.846347	0.504484
O47	O	2.141623	-0.513014	0.837818
O48	O	2.474956	-0.179681	1.171151
O49	O	1.660912	-0.846277	0.651898
O50	O	1.994245	-0.512943	0.985231
O51	O	2.327579	-0.179610	1.318565
C52	C	1.422816	-0.578019	0.578201
C53	C	1.756150	-0.244685	0.911535
C54	C	2.089483	0.088648	1.244868
C55	C	1.289416	-0.578040	0.578224
C56	C	1.622750	-0.244707	0.911557
C57	C	1.956083	0.088626	1.244891
C58	C	1.734627	-0.889859	0.578213
C59	C	2.067960	-0.556526	0.911547
C60	C	2.401293	-0.223193	1.244880
C61	C	1.734730	-1.023259	0.578253
C62	C	2.068064	-0.689926	0.911586
C63	C	2.401397	-0.356593	1.244919
C64	C	1.734688	-0.264992	0.578243
C65	C	2.068021	0.068341	0.911576
C66	C	2.401355	0.401674	1.244910
C67	C	1.734708	-0.131592	0.578255
C68	C	2.068042	0.201741	0.911588
C69	C	2.401375	0.535074	1.244922
C70	C	2.047683	-0.578052	0.578230
C71	C	2.381017	-0.244718	0.911563
C72	C	2.714350	0.088615	1.244896
C73	C	2.181083	-0.578059	0.578236
C74	C	2.514417	-0.244726	0.911569
C75	C	2.847750	0.088608	1.244902
C76	C	1.734733	-0.577901	0.891258
C77	C	2.068066	-0.244568	1.224591
C78	C	2.401400	0.088765	1.557924
C79	C	1.734772	-0.577845	1.024658
C80	C	2.068106	-0.244511	1.357991
C81	C	2.401439	0.088822	1.691324
C82	C	1.734618	-0.578081	0.266390
C83	C	2.067952	-0.244748	0.599724
C84	C	2.401285	0.088586	0.933057
C85	C	1.734811	-0.577800	0.132991
C86	C	2.068145	-0.244466	0.466324
C87	C	2.401478	0.088867	0.799658
