data_functionalizedCrystal
_audit_creation_method	'MofGen! by Chris Wilmer'
_symmetry_space_group_name_H-M	'P1'
_symmetry_Int_Tables_number	1
_symmetry_cell_setting	triclinic
loop_
_symmetry_equiv_pos_as_xyz
  x,y,z
_cell_length_a	17.077404
_cell_length_b	21.395362
_cell_length_c	17.077396
_cell_angle_alpha	89.967711
_cell_angle_beta	89.981638
_cell_angle_gamma	90.027761
loop_
_atom_site_label
_atom_site_type_symbol
_atom_site_fract_x
_atom_site_fract_y
_atom_site_fract_z
Zn1	Zn	1.200017	-0.249472	-0.443798
Zn2	Zn	1.700017	0.250528	0.056202
Zn3	Zn	1.199908	-0.354254	-0.312523
Zn4	Zn	1.699908	0.145746	0.187477
Zn5	Zn	1.068749	-0.249490	-0.312549
Zn6	Zn	1.568749	0.250510	0.187451
Zn7	Zn	1.068701	-0.354212	-0.443750
Zn8	Zn	1.568701	0.145788	0.056250
O9	O	1.134344	-0.301857	-0.378155
O10	O	1.634344	0.198143	0.121845
O11	O	1.309849	-0.263382	-0.426394
O12	O	1.809849	0.236618	0.073606
O13	O	1.182484	-0.340381	-0.202680
O14	O	1.682484	0.159619	0.297320
O15	O	1.086227	-0.161810	-0.329990
O16	O	1.586227	0.338190	0.170010
O17	O	1.309770	-0.340364	-0.329947
O18	O	1.809770	0.159636	0.170053
O19	O	1.182669	-0.161797	-0.426418
O20	O	1.682669	0.338203	0.073582
O21	O	1.086122	-0.263412	-0.202698
O22	O	1.586122	0.236588	0.297302
O23	O	0.958895	-0.263372	-0.329943
O24	O	1.458895	0.236628	0.170057
O25	O	1.086146	-0.340294	-0.553603
O26	O	1.586146	0.159706	-0.053603
O27	O	0.958860	-0.340311	-0.426336
O28	O	1.458860	0.159689	0.073664
O29	O	1.182623	-0.263342	-0.553639
O30	O	1.682623	0.236658	-0.053639
O31	O	1.182438	-0.441926	-0.329900
O32	O	1.682438	0.058074	0.170100
O33	O	1.086040	-0.441896	-0.426311
O34	O	1.586040	0.058104	0.073689
C35	C	0.930396	-0.301839	-0.378137
C36	C	1.430396	0.198161	0.121863
C37	C	0.843146	-0.301847	-0.378148
C38	C	1.343146	0.198153	0.121852
C39	C	0.802198	-0.261834	-0.428445
C40	C	1.302198	0.238166	0.071555
C41	C	0.720218	-0.261838	-0.428449
C42	C	1.220218	0.238162	0.071551
C43	C	0.679187	-0.301859	-0.378159
C44	C	1.179187	0.198141	0.121841
C45	C	0.720140	-0.341874	-0.327857
C46	C	1.220140	0.158126	0.172143
C47	C	0.802119	-0.341866	-0.327850
C48	C	1.302119	0.158134	0.172150
C49	C	0.549270	-0.341888	-0.327876
C50	C	1.049270	0.158112	0.172124
C51	C	0.467286	-0.341897	-0.327884
C52	C	0.967286	0.158103	0.172116
C53	C	0.467369	-0.261859	-0.428475
C54	C	0.967369	0.238141	0.071525
C55	C	0.549348	-0.261852	-0.428468
C56	C	1.049348	0.238148	0.071532
C57	C	0.590296	-0.301868	-0.378167
C58	C	1.090296	0.198132	0.121833
C59	C	1.134243	-0.464645	-0.378115
C60	C	1.634243	0.035355	0.121885
C61	C	1.134272	-0.534286	-0.378124
C62	C	1.634272	-0.034286	0.121876
C63	C	1.184461	-0.566936	-0.428370
C64	C	1.684461	-0.066936	0.071630
C65	C	1.184488	-0.632371	-0.428389
C66	C	1.684488	-0.132371	0.071611
C67	C	1.134336	-0.665154	-0.378148
C68	C	1.634336	-0.165154	0.121852
C69	C	1.084137	-0.632497	-0.327898
C70	C	1.584137	-0.132497	0.172102
C71	C	1.084106	-0.567063	-0.327886
C72	C	1.584106	-0.067063	0.172114
C73	C	1.128232	-0.768866	-0.307439
C74	C	1.628232	-0.268866	0.192561
C75	C	1.128269	-0.834299	-0.307450
C76	C	1.628269	-0.334299	0.192550
C77	C	1.134429	-0.866975	-0.378186
C78	C	1.634429	-0.366975	0.121814
C79	C	1.140568	-0.834210	-0.448913
C80	C	1.640568	-0.334210	0.051087
C81	C	1.140536	-0.768776	-0.448901
C82	C	1.640536	-0.268776	0.051099
C83	C	1.134364	-0.736107	-0.378156
C84	C	1.634364	-0.236107	0.121844
C85	C	1.184650	-0.970577	-0.428457
C86	C	1.684650	-0.470577	0.071543
C87	C	1.184672	-1.036014	-0.428477
C88	C	1.684672	-0.536014	0.071523
C89	C	1.084325	-1.036139	-0.327980
C90	C	1.584325	-0.536139	0.172020
C91	C	1.084299	-0.970703	-0.327967
C92	C	1.584299	-0.470703	0.172033
C93	C	1.134466	-0.937926	-0.378204
C94	C	1.634466	-0.437926	0.121796
C95	C	1.339088	-0.301876	-0.378173
C96	C	1.839088	0.198124	0.121827
C97	C	1.426338	-0.301883	-0.378181
C98	C	1.926338	0.198117	0.121819
C99	C	1.134391	-0.301811	-0.582899
C100	C	1.634391	0.198189	-0.082899
C101	C	1.134411	-0.301791	-0.670149
C102	C	1.634411	0.198209	-0.170149
C103	C	1.134466	-0.138434	-0.378212
C104	C	1.634466	0.361566	0.121788
C105	C	1.134518	-0.068793	-0.378237
C106	C	1.634518	0.431207	0.121763
C107	C	1.184649	-0.261719	-0.711159
C108	C	1.684649	0.238281	-0.211159
C109	C	1.184658	-0.261698	-0.793140
C110	C	1.684658	0.238302	-0.293140
C111	C	1.134434	-0.301753	-0.834109
C112	C	1.634434	0.198247	-0.334109
C113	C	1.084191	-0.341827	-0.793093
C114	C	1.584191	0.158173	-0.293093
C115	C	1.084178	-0.341845	-0.711114
C116	C	1.584178	0.158155	-0.211114
C117	C	1.084222	-0.341790	-0.963963
C118	C	1.584222	0.158210	-0.463963
C119	C	1.084236	-0.341773	-1.045948
C120	C	1.584236	0.158227	-0.545948
C121	C	1.184703	-0.261643	-1.045989
C122	C	1.684703	0.238357	-0.545989
C123	C	1.184690	-0.261661	-0.964010
C124	C	1.684690	0.238339	-0.464010
C125	C	1.134448	-0.301736	-0.923000
C126	C	1.634448	0.198264	-0.423000
C127	C	1.134342	-0.301858	-0.174207
C128	C	1.634342	0.198142	0.325793
C129	C	1.134473	-0.301701	-0.086958
C130	C	1.634473	0.198299	0.413042
H131	H	0.835458	-0.374449	-0.286893
H132	H	1.335458	0.125551	0.213107
H133	H	0.686882	-0.229256	-0.469407
H134	H	1.186882	0.270744	0.030593
C135	C	0.594311	-0.385910	-0.272544
C136	C	1.094311	0.114090	0.227456
N137	N	0.628236	-0.419070	-0.230872
N138	N	1.128236	0.080930	0.269128
H139	H	1.043485	-1.062830	-0.287078
H140	H	1.543485	-0.562830	0.212922
C141	C	1.239900	-0.217654	-0.666101
C142	C	1.739900	0.282346	-0.166101
N143	N	1.281515	-0.184461	-0.632165
N144	N	1.781515	0.315539	-0.132165
H145	H	1.225569	-0.229069	-0.826526
H146	H	1.725569	0.270931	-0.326526
C147	C	1.239938	-0.217597	-0.918945
C148	C	1.739938	0.282403	-0.418945
N149	N	1.281549	-0.184405	-0.885003
N150	N	1.781549	0.315595	-0.385003
H151	H	0.582753	-0.229267	-0.469423
H152	H	1.082753	0.270733	0.030577
H153	H	1.225308	-0.540250	-0.469278
H154	H	1.725308	-0.040250	0.030722
H155	H	1.225611	-0.229012	-1.079383
H156	H	1.725611	0.270988	-0.579383
H157	H	1.225351	-0.658959	-0.469314
H158	H	1.725351	-0.158959	0.030686
H159	H	1.043297	-0.374413	-0.930575
H160	H	1.543297	0.125587	-0.430575
H161	H	0.434025	-0.229276	-0.469431
H162	H	0.934025	0.270724	0.030569
C163	C	0.422153	-0.385921	-0.272562
C164	C	0.922153	0.114079	0.227438
N165	N	0.388159	-0.419080	-0.230892
N166	N	0.888159	0.080920	0.269108
C167	C	1.028889	-0.531148	-0.272612
C168	C	1.528889	-0.031148	0.227388
N169	N	0.987298	-0.504095	-0.230979
N170	N	1.487298	-0.004095	0.269021
C171	C	1.028981	-0.385832	-1.091012
C172	C	1.528981	0.114168	-0.591012
N173	N	0.987362	-0.419017	-1.124954
N174	N	1.487362	0.080983	-0.624954
H175	H	1.145586	-0.860814	-0.506513
H176	H	1.645586	-0.360814	-0.006513
H177	H	1.043301	-0.659194	-0.286994
H178	H	1.543301	-0.159194	0.213006
C179	C	1.147283	-0.732737	-0.526700
C180	C	1.647283	-0.232737	-0.026700
N181	N	1.152361	-0.705593	-0.585300
N182	N	1.652361	-0.205593	-0.085300
C183	C	1.028935	-0.385882	-0.838162
C184	C	1.528935	0.114118	-0.338162
N185	N	0.987315	-0.419065	-0.872107
N186	N	1.487315	0.080935	-0.372107
H187	H	1.043261	-0.374469	-0.677725
H188	H	1.543261	0.125531	-0.177725
C189	C	1.239823	-0.934520	-0.483729
C190	C	1.739823	-0.434520	0.016271
N191	N	1.281378	-0.907364	-0.525363
N192	N	1.781378	-0.407364	-0.025363
H193	H	0.686726	-0.374457	-0.286906
H194	H	1.186726	0.125543	0.213094
H195	H	0.835600	-0.229245	-0.469399
H196	H	1.335600	0.270755	0.030601
C197	C	1.029082	-0.934788	-0.272696
C198	C	1.529082	-0.434788	0.227304
N199	N	0.987485	-0.907736	-0.231068
N200	N	1.487485	-0.407736	0.268932
C201	C	1.239890	-1.071928	-0.483751
C202	C	1.739890	-0.571928	0.016249
N203	N	1.281485	-1.098979	-0.525382
N204	N	1.781485	-0.598979	-0.025382
C205	C	1.121515	-0.870334	-0.229649
C206	C	1.621515	-0.370334	0.270351
N207	N	1.116426	-0.897474	-0.171047
N208	N	1.616426	-0.397474	0.328953
C209	C	1.121470	-0.732929	-0.229617
C210	C	1.621470	-0.232929	0.270383
N211	N	1.116383	-0.705862	-0.171003
N212	N	1.616383	-0.205862	0.328997
