data_functionalizedCrystal
_audit_creation_method	'MofGen! by Chris Wilmer'
_symmetry_space_group_name_H-M	'P1'
_symmetry_Int_Tables_number	1
_symmetry_cell_setting	triclinic
loop_
_symmetry_equiv_pos_as_xyz
  x,y,z
_cell_length_a	6.817900
_cell_length_b	8.749630
_cell_length_c	11.168136
_cell_angle_alpha	92.684666
_cell_angle_beta	108.508683
_cell_angle_gamma	105.181985
loop_
_atom_site_label
_atom_site_type_symbol
_atom_site_fract_x
_atom_site_fract_y
_atom_site_fract_z
V1	V	-4.091714	-0.218828	-0.392060
O2	O	-4.070337	0.010491	-0.386283
O3	O	-4.050147	-0.433876	-0.387756
O4	O	-4.068283	-0.215473	-0.563791
O5	O	-4.052076	-0.209424	-0.209030
V6	V	-4.571221	-0.191398	-0.370365
O7	O	-4.361781	-0.278999	-0.439649
O8	O	-4.751350	-0.131227	-0.322776
O9	O	-4.389581	0.023650	-0.374669
O10	O	-4.709994	-0.420717	-0.376141
O11	O	-4.728255	-0.200802	-0.553395
O12	O	-4.371445	-0.194753	-0.198634
C13	C	-3.896002	-0.486300	-0.381152
C14	C	-3.943470	-0.662104	-0.378778
C15	C	-3.919135	-0.207703	-0.605701
C16	C	-3.981306	-0.206382	-0.746081
C17	C	-4.183241	-0.213295	-0.814721
C18	C	-4.247502	-0.211930	-0.959811
C19	C	-4.207067	0.076066	-0.381269
C20	C	-4.138839	0.251868	-0.383651
C21	C	-4.183934	-0.202528	-0.156717
C22	C	-4.101001	-0.203841	-0.016336
H23	H	-4.269792	-0.687289	-0.389645
C24	C	-3.867289	-0.195850	-0.936633
N25	N	-3.691252	-0.189828	-0.876592
H26	H	-3.812517	-0.722957	-0.372797
C27	C	-4.352535	-0.222645	-0.749003
N28	N	-4.480054	-0.229687	-0.699506
H29	H	-3.855994	-0.199444	-0.794729
C30	C	-4.481210	-0.219920	-1.039522
N31	N	-4.657244	-0.225935	-1.099563
