data_functionalizedCrystal
_audit_creation_method	'MofGen! by Chris Wilmer'
_symmetry_space_group_name_H-M	'P1'
_symmetry_Int_Tables_number	1
_symmetry_cell_setting	triclinic
loop_
_symmetry_equiv_pos_as_xyz
  x,y,z
_cell_length_a	42.784839
_cell_length_b	42.784841
_cell_length_c	42.784893
_cell_angle_alpha	90.002418
_cell_angle_beta	59.997780
_cell_angle_gamma	119.999863
loop_
_atom_site_label
_atom_site_type_symbol
_atom_site_fract_x
_atom_site_fract_y
_atom_site_fract_z
O1	O	0.275695	-0.214412	-0.009300
O2	O	0.211692	-0.168961	0.009253
O3	O	0.275692	-0.168961	-0.054750
O4	O	0.211694	-0.214412	0.054702
O5	O	0.223708	-0.220945	-0.054749
O6	O	0.159708	-0.220945	0.009253
O7	O	0.223710	-0.266397	-0.009300
Cu8	Cu	0.186962	-0.248417	-0.000023
Cu9	Cu	0.248440	-0.186940	-0.000024
O10	O	0.159710	-0.266396	0.054703
C11	C	0.051021	-0.022778	0.028112
C12	C	0.013142	-0.041761	0.028375
C13	C	0.051018	-0.079378	0.028116
C14	C	0.013139	-0.098275	0.028379
C15	C	-0.005578	-0.079377	0.028112
C16	C	0.069652	-0.041762	0.028379
C17	C	0.152948	0.113708	0.017863
C18	C	0.173786	0.152360	0.014965
C19	C	0.155902	0.171750	0.013509
C20	C	0.178499	0.213661	0.010359
C21	C	0.117177	0.152485	0.014953
C22	C	0.096339	0.113835	0.017857
C23	C	0.114226	0.094447	0.019312
C24	C	-0.131813	-0.113936	0.017859
C25	C	-0.167567	-0.131750	0.014961
C26	C	-0.185502	-0.169024	0.013506
C27	C	-0.224264	-0.188340	0.010358
C28	C	-0.167685	-0.188485	0.014954
C29	C	-0.131938	-0.170675	0.017859
C30	C	-0.114002	-0.133396	0.019309
C31	C	0.152939	-0.113943	0.017877
C32	C	0.173778	-0.131757	0.014977
C33	C	0.155892	-0.169032	0.013523
C34	C	0.178486	-0.188349	0.010377
C35	C	0.117170	-0.188491	0.014967
C36	C	0.096334	-0.170675	0.017865
C37	C	0.114220	-0.133401	0.019323
C38	C	0.091629	0.052537	0.022456
C39	C	0.073617	0.019131	0.024964
C40	C	0.073613	-0.098693	0.024971
C41	C	0.091623	-0.114089	0.022466
C42	C	-0.044339	-0.098690	0.024964
C43	C	-0.075237	-0.114084	0.022456
O44	O	-0.327856	-0.266388	-0.009322
O45	O	-0.236954	-0.220935	0.009228
O46	O	-0.236950	-0.220939	-0.054773
O47	O	-0.327860	-0.266385	0.054680
O48	O	-0.236948	-0.168954	-0.054776
O49	O	-0.236952	-0.168950	0.009225
O50	O	-0.327854	-0.214403	-0.009325
Cu51	Cu	-0.282403	-0.186930	-0.000050
Cu52	Cu	-0.282405	-0.248408	-0.000046
O53	O	-0.327858	-0.214400	0.054676
C54	C	0.384390	-0.079141	-0.361606
C55	C	0.422270	-0.041526	-0.380503
C56	C	0.384390	-0.079141	-0.305008
C57	C	0.422270	-0.041526	-0.323990
C58	C	0.440988	-0.022543	-0.361606
C59	C	0.365758	-0.098038	-0.323991
C60	C	0.282465	-0.170819	-0.396168
C61	C	0.261627	-0.188759	-0.413983
C62	C	0.279513	-0.169420	-0.451257
C63	C	0.256917	-0.188867	-0.470572
C64	C	0.318239	-0.132140	-0.470717
C65	C	0.339076	-0.114205	-0.452905
C66	C	0.321187	-0.133546	-0.415628
C67	C	0.567227	0.113942	-0.453282
C68	C	0.602981	0.152594	-0.471222
C69	C	0.620916	0.171985	-0.451883
C70	C	0.659678	0.213894	-0.471328
C71	C	0.603097	0.152719	-0.414603
C72	C	0.567349	0.114068	-0.396667
C73	C	0.549414	0.094682	-0.416011
C74	C	0.282465	-0.170819	-0.168522
C75	C	0.261624	-0.188757	-0.129868
C76	C	0.279510	-0.169418	-0.110479
C77	C	0.256914	-0.188865	-0.068568
C78	C	0.318233	-0.132140	-0.129742
C79	C	0.339070	-0.114203	-0.168394
C80	C	0.321184	-0.133548	-0.187782
C81	C	0.343783	-0.114094	-0.396315
C82	C	0.361794	-0.098590	-0.380920
C83	C	0.361794	-0.098590	-0.263099
C84	C	0.343783	-0.114094	-0.229693
C85	C	0.479750	0.019366	-0.381054
C86	C	0.510649	0.052771	-0.396557
C87	C	0.440758	-0.356212	-0.028193
C88	C	0.422041	-0.393827	-0.028459
C89	C	0.384158	-0.356213	-0.028190
C90	C	0.365526	-0.393828	-0.028456
C91	C	0.384160	-0.412810	-0.028193
C92	C	0.422038	-0.337315	-0.028456
C93	C	0.567000	-0.264532	-0.017949
C94	C	0.602755	-0.246591	-0.015053
C95	C	0.620692	-0.265931	-0.013601
C96	C	0.659455	-0.246483	-0.010453
C97	C	0.602873	-0.303210	-0.015048
C98	C	0.567125	-0.321146	-0.017949
C99	C	0.549188	-0.301805	-0.019399
C100	C	0.339356	-0.549295	-0.017951
C101	C	0.318645	-0.587947	-0.015055
C102	C	0.279915	-0.607338	-0.013597
C103	C	0.257452	-0.649247	-0.010452
C104	C	0.261899	-0.588073	-0.015042
C105	C	0.282613	-0.549422	-0.017945
C106	C	0.321343	-0.530035	-0.019397
C107	C	0.339344	-0.264537	-0.017936
C108	C	0.318628	-0.246599	-0.015032
C109	C	0.279898	-0.265939	-0.013577
C110	C	0.257433	-0.246493	-0.010426
C111	C	0.261884	-0.303217	-0.015022
C112	C	0.282601	-0.321153	-0.017924
C113	C	0.321334	-0.301808	-0.019385
C114	C	0.510421	-0.321258	-0.022542
C115	C	0.479522	-0.336762	-0.025048
C116	C	0.361696	-0.336765	-0.025041
C117	C	0.343793	-0.321261	-0.022532
C118	C	0.361701	-0.454719	-0.025047
C119	C	0.343799	-0.488125	-0.022541
O120	O	0.223728	0.336934	-0.009323
O121	O	0.159726	0.227482	0.009227
O122	O	0.223729	0.291478	-0.054775
O123	O	0.159725	0.272938	0.054678
O124	O	0.275711	0.291477	-0.054771
O125	O	0.211707	0.227481	0.009230
O126	O	0.275710	0.336932	-0.009320
Cu127	Cu	0.248455	0.282206	-0.000045
Cu128	Cu	0.186981	0.282208	-0.000049
O129	O	0.211707	0.272936	0.054681
O130	O	0.763271	0.337164	-0.496871
O131	O	0.672367	0.227713	-0.451422
O132	O	0.672365	0.291711	-0.451418
O133	O	0.763273	0.273165	-0.496876
O134	O	0.672366	0.291712	-0.503402
O135	O	0.672368	0.227714	-0.503407
O136	O	0.763272	0.337165	-0.548856
Cu137	Cu	0.717820	0.282440	-0.530878
Cu138	Cu	0.717819	0.282438	-0.469400
O139	O	0.763275	0.273167	-0.548860
O140	O	0.211690	-0.214417	-0.548617
O141	O	0.275691	-0.168962	-0.503167
O142	O	0.211689	-0.168964	-0.503163
O143	O	0.275692	-0.214415	-0.548621
O144	O	0.159706	-0.220947	-0.451179
O145	O	0.223708	-0.220945	-0.451183
O146	O	0.159707	-0.266400	-0.496633
Cu147	Cu	0.186961	-0.248419	-0.469161
Cu148	Cu	0.248437	-0.186943	-0.530639
O149	O	0.223709	-0.266398	-0.496637
C150	C	-0.005343	-0.412572	0.361558
C151	C	0.013375	-0.393590	0.380456
C152	C	0.051255	-0.355974	0.304961
C153	C	0.069887	-0.337077	0.323944
C154	C	0.051254	-0.355974	0.361560
C155	C	0.013375	-0.393589	0.323943
C156	C	-0.131582	-0.549057	0.396116
C157	C	-0.167336	-0.587709	0.413930
C158	C	-0.185271	-0.607098	0.451205
C159	C	-0.224034	-0.649009	0.470519
C160	C	-0.167452	-0.587833	0.470666
C161	C	-0.131705	-0.549184	0.452854
C162	C	-0.113770	-0.529796	0.415578
C163	C	0.096061	-0.321414	0.453239
C164	C	0.116773	-0.303600	0.471179
C165	C	0.155502	-0.266327	0.451842
C166	C	0.177965	-0.247011	0.471288
C167	C	0.173517	-0.246866	0.414562
C168	C	0.152802	-0.264677	0.396625
C169	C	0.114073	-0.301955	0.415968
C170	C	0.096064	-0.321412	0.168474
C171	C	0.116779	-0.303599	0.129820
C172	C	0.155508	-0.266324	0.110432
C173	C	0.177972	-0.247009	0.068521
C174	C	0.173522	-0.246865	0.129696
C175	C	0.152807	-0.264680	0.168348
C176	C	0.114075	-0.301953	0.187735
C177	C	-0.075004	-0.487887	0.396265
C178	C	-0.044106	-0.454481	0.380871
C179	C	0.073715	-0.336660	0.263052
C180	C	0.091618	-0.321265	0.229646
C181	C	0.073714	-0.336661	0.381009
C182	C	0.091616	-0.321267	0.396513
C183	C	0.051046	-0.022794	-0.361634
C184	C	0.069679	-0.041778	-0.380530
C185	C	-0.005555	-0.079390	-0.305034
C186	C	0.013163	-0.098288	-0.324016
C187	C	0.051045	-0.079393	-0.361631
C188	C	0.013164	-0.041775	-0.324018
C189	C	0.095858	0.113693	-0.396200
C190	C	0.116571	0.152344	-0.414015
C191	C	0.155302	0.171732	-0.451290
C192	C	0.177767	0.213642	-0.470607
C193	C	0.173317	0.152465	-0.470750
C194	C	0.152600	0.113815	-0.452936
C195	C	0.113869	0.094429	-0.415659
C196	C	0.152973	-0.113959	-0.453306
C197	C	0.173810	-0.131775	-0.471245
C198	C	0.155926	-0.169048	-0.451906
C199	C	0.178519	-0.188366	-0.471350
C200	C	0.117198	-0.188507	-0.414626
C201	C	0.096358	-0.170694	-0.396690
C202	C	0.114251	-0.133416	-0.416035
C203	C	-0.131801	-0.113944	-0.168548
C204	C	-0.167554	-0.131755	-0.129895
C205	C	-0.185491	-0.169029	-0.110504
C206	C	-0.224255	-0.188343	-0.068593
C207	C	-0.167671	-0.188490	-0.129767
C208	C	-0.131918	-0.170677	-0.168418
C209	C	-0.113988	-0.133404	-0.187808
C210	C	0.091411	0.052521	-0.396344
C211	C	0.073508	0.019115	-0.380949
C212	C	-0.044320	-0.098701	-0.263125
C213	C	-0.075220	-0.114094	-0.229719
C214	C	0.073641	-0.098707	-0.381079
C215	C	0.091652	-0.114103	-0.396582
C216	C	-0.615853	-0.356193	0.361535
C217	C	-0.634487	-0.393808	0.380433
C218	C	-0.559253	-0.356195	0.304938
C219	C	-0.577972	-0.393810	0.323921
C220	C	-0.615854	-0.412792	0.361537
C221	C	-0.577972	-0.337297	0.323920
C222	C	-0.660661	-0.264512	0.396093
C223	C	-0.681373	-0.246571	0.413906
C224	C	-0.720104	-0.265909	0.451181
C225	C	-0.742568	-0.246461	0.470495
C226	C	-0.738120	-0.303189	0.470643
C227	C	-0.717405	-0.321125	0.452831
C228	C	-0.678674	-0.301785	0.415554
C229	C	-0.717784	-0.549275	0.453218
C230	C	-0.738622	-0.587926	0.471159
C231	C	-0.720740	-0.607319	0.451822
C232	C	-0.743333	-0.649227	0.471268
C233	C	-0.682012	-0.588055	0.414542
C234	C	-0.661170	-0.549403	0.396604
C235	C	-0.679063	-0.530016	0.415946
C236	C	-0.433006	-0.264522	0.168449
C237	C	-0.397253	-0.246585	0.129796
C238	C	-0.379317	-0.265926	0.110407
C239	C	-0.340553	-0.246480	0.068496
C240	C	-0.397138	-0.303204	0.129672
C241	C	-0.432891	-0.321139	0.168324
C242	C	-0.450820	-0.301793	0.187711
C243	C	-0.656216	-0.321238	0.396242
C244	C	-0.638314	-0.336743	0.380848
C245	C	-0.520488	-0.336748	0.263028
C246	C	-0.489588	-0.321245	0.229622
C247	C	-0.638451	-0.454700	0.380987
C248	C	-0.656463	-0.488106	0.396492
C249	C	0.440756	0.310302	-0.361620
C250	C	0.422038	0.310564	-0.380518
C251	C	0.384160	0.310312	-0.305026
C252	C	0.365528	0.310574	-0.324010
C253	C	0.384159	0.310303	-0.361624
C254	C	0.422038	0.310573	-0.324006
C255	C	0.566989	0.300046	-0.396172
C256	C	0.602741	0.297145	-0.413984
C257	C	0.620675	0.295684	-0.451257
C258	C	0.659436	0.292531	-0.470569
C259	C	0.602857	0.297127	-0.470719
C260	C	0.567111	0.300033	-0.452909
C261	C	0.549177	0.301493	-0.415634
C262	C	0.339351	0.300042	-0.453303
C263	C	0.318640	0.297142	-0.471244
C264	C	0.279912	0.295690	-0.451908
C265	C	0.257449	0.292541	-0.471354
C266	C	0.261899	0.297143	-0.414629
C267	C	0.282613	0.300049	-0.396692
C268	C	0.321341	0.301496	-0.416033
C269	C	0.339354	0.300088	-0.168540
C270	C	0.318640	0.297192	-0.129888
C271	C	0.279912	0.295742	-0.110501
C272	C	0.257450	0.292601	-0.068591
C273	C	0.261898	0.297184	-0.129766
C274	C	0.282612	0.300078	-0.168417
C275	C	0.321344	0.301533	-0.187802
C276	C	0.510413	0.304640	-0.396323
C277	C	0.479516	0.307151	-0.380931
C278	C	0.361701	0.307173	-0.263117
C279	C	0.343799	0.304671	-0.229712
C280	C	0.361700	0.307154	-0.381073
C281	C	0.343798	0.304644	-0.396578
O282	O	0.275503	0.336913	-0.548651
O283	O	0.211494	0.227461	-0.503201
O284	O	0.275490	0.291455	-0.503192
O285	O	0.211507	0.272919	-0.548659
O286	O	0.223502	0.291457	-0.451211
O287	O	0.159506	0.227463	-0.451219
O288	O	0.223515	0.336915	-0.496669
Cu289	Cu	0.186764	0.282189	-0.469197
Cu290	Cu	0.248246	0.282187	-0.530672
O291	O	0.159519	0.272921	-0.496677
C292	C	0.051032	0.254111	0.361530
C293	C	0.013154	0.253851	0.380425
C294	C	0.051031	0.254102	0.304932
C295	C	0.013153	0.253842	0.323913
C296	C	-0.005564	0.254113	0.361527
C297	C	0.069663	0.253840	0.323916
C298	C	0.152954	0.264360	0.396096
C299	C	0.173791	0.267260	0.413911
C300	C	0.155906	0.268721	0.451185
C301	C	0.178502	0.271871	0.470501
C302	C	0.117182	0.267279	0.470643
C303	C	0.096345	0.264374	0.452830
C304	C	0.114233	0.262915	0.415555
C305	C	-0.131796	0.264379	0.453195
C306	C	-0.167548	0.267281	0.471133
C307	C	-0.185483	0.268734	0.451793
C308	C	-0.224243	0.271886	0.471236
C309	C	-0.167664	0.267282	0.414515
C310	C	-0.131919	0.264374	0.396581
C311	C	-0.113984	0.262925	0.415925
C312	C	0.152952	0.264325	0.168451
C313	C	0.173792	0.267221	0.129798
C314	C	0.155907	0.268673	0.110407
C315	C	0.178502	0.271814	0.068498
C316	C	0.117186	0.267232	0.129669
C317	C	0.096350	0.264339	0.168320
C318	C	0.114234	0.262881	0.187709
C319	C	0.091638	0.259769	0.396240
C320	C	0.073627	0.257260	0.380845
C321	C	0.073626	0.257242	0.263024
C322	C	0.091636	0.259743	0.229619
C323	C	-0.044324	0.257264	0.380973
C324	C	-0.075221	0.259775	0.396474
H325	H	0.167516	0.097925	0.019049
H326	H	0.102623	0.268466	0.500992
H327	H	0.552629	0.098160	-0.469035
O328	O	0.058711	-0.189654	-0.360498
C329	C	-0.016863	-0.244773	-0.318718
C330	C	0.025746	-0.223343	-0.359720
H331	H	-0.043529	-0.272010	-0.318077
H332	H	-0.009947	-0.252529	-0.298505
H333	H	-0.028666	-0.225626	-0.309220
H334	H	0.037571	-0.242469	-0.369254
H335	H	0.018805	-0.215582	-0.379909
H336	H	-0.117415	0.263190	0.366230
O337	O	-0.664622	-0.606858	0.395698
C338	C	-0.643431	-0.627524	0.340714
C339	C	-0.663123	-0.606212	0.362011
H340	H	-0.642221	-0.627016	0.313477
H341	H	-0.608556	-0.612910	0.332967
H342	H	-0.664969	-0.658451	0.359949
H343	H	-0.641620	-0.575284	0.342797
H344	H	-0.698003	-0.620856	0.369763
O345	O	0.058728	0.262924	0.186978
C346	C	0.004794	0.263261	0.182766
C347	C	0.047397	0.264857	0.161593
H348	H	-0.004375	0.264831	0.162250
H349	H	-0.023205	0.235326	0.207893
H350	H	0.010441	0.288474	0.193826
H351	H	0.041793	0.239663	0.150509
H352	H	0.075381	0.292807	0.136485
O353	O	0.335616	-0.113298	-0.506904
C354	C	0.356779	-0.058319	-0.548740
C355	C	0.337104	-0.079616	-0.507744
H356	H	0.357979	-0.031087	-0.549431
H357	H	0.391656	-0.050566	-0.569011
H358	H	0.335236	-0.077557	-0.558125
H359	H	0.358612	-0.060400	-0.498324
H360	H	0.302221	-0.087374	-0.487497
H361	H	-0.182052	0.268464	0.501484
H362	H	-0.182272	0.268459	0.398770
H363	H	0.167470	-0.248829	0.366274
H364	H	-0.002525	-0.129181	0.028805
H365	H	0.267896	-0.186572	-0.365817
H366	H	0.335043	-0.409068	-0.028878
H367	H	-0.117412	-0.186525	-0.184100
H368	H	-0.117435	-0.186523	0.019040
H369	H	0.102624	0.268416	0.113879
O370	O	0.620352	0.295757	-0.506942
C371	C	0.684959	0.325377	-0.572076
C372	C	0.665206	0.326971	-0.531068
H373	H	0.721224	0.350615	-0.591596
H374	H	0.682198	0.297459	-0.572086
H375	H	0.666066	0.326891	-0.582911
H376	H	0.684085	0.325473	-0.520209
H377	H	0.667961	0.354887	-0.531083
H378	H	0.335046	0.310999	-0.308768
O379	O	0.058711	-0.189638	0.019283
C380	C	0.004774	-0.247783	0.018948
C381	C	0.047378	-0.226354	0.017348
H382	H	-0.004397	-0.277468	0.017377
H383	H	-0.023224	-0.250654	0.046886
H384	H	0.010419	-0.231076	-0.006263
H385	H	0.041776	-0.243043	0.042540
H386	H	0.075361	-0.223479	-0.010605
O387	O	0.170275	-0.077772	-0.472076
C388	C	0.158808	-0.036828	-0.496795
C389	C	0.139157	-0.077826	-0.475529
H390	H	0.133661	-0.036859	-0.499600
H391	H	0.167254	-0.017293	-0.480045
H392	H	0.190073	-0.025982	-0.526510
H393	H	0.107879	-0.088706	-0.445813
H394	H	0.130742	-0.097336	-0.492309
O395	O	0.058241	0.094809	-0.359988
C396	C	0.001163	0.035205	-0.307408
C397	C	0.043766	0.056548	-0.348415
H398	H	-0.010558	0.004265	-0.298042
H399	H	0.008035	0.049789	-0.287134
H400	H	-0.025545	0.035757	-0.306700
H401	H	0.070494	0.056003	-0.349160
H402	H	0.036859	0.041958	-0.368671
O403	O	-0.623524	-0.530720	0.360412
C404	C	-0.547949	-0.510265	0.318629
C405	C	-0.590556	-0.531441	0.359632
H406	H	-0.521281	-0.510834	0.317986
H407	H	-0.554865	-0.524939	0.298416
H408	H	-0.536149	-0.479317	0.309132
H409	H	-0.602379	-0.562390	0.369164
H410	H	-0.583615	-0.516737	0.379820
H411	H	0.167522	0.263171	0.365746
O412	O	-0.450392	-0.245724	0.187316
C413	C	-0.466670	-0.221045	0.239758
C414	C	-0.446954	-0.242326	0.218420
H415	H	-0.463905	-0.218298	0.264914
H416	H	-0.447794	-0.191309	0.219374
H417	H	-0.502939	-0.237798	0.250797
H418	H	-0.410687	-0.225605	0.207379
H419	H	-0.465863	-0.272064	0.238818
H420	H	0.101900	0.168027	-0.398169
H421	H	-0.002510	0.253416	0.308669
O422	O	0.440805	-0.411953	-0.029028
C423	C	0.505738	-0.412080	-0.062792
C424	C	0.484546	-0.391508	-0.062185
H425	H	0.541103	-0.395563	-0.089601
H426	H	0.505964	-0.413645	-0.036313
H427	H	0.485819	-0.442283	-0.062923
H428	H	0.504448	-0.361296	-0.062068
H429	H	0.484313	-0.389974	-0.088663
O430	O	0.211136	-0.210651	0.110812
C431	C	0.268210	-0.158069	0.051208
C432	C	0.225613	-0.199077	0.072550
H433	H	0.279933	-0.148703	0.020268
H434	H	0.261333	-0.137799	0.065794
H435	H	0.294921	-0.157358	0.051760
H436	H	0.198882	-0.199826	0.072005
H437	H	0.232526	-0.219330	0.057957
O438	O	0.549858	-0.357363	-0.019333
C439	C	0.553762	-0.411619	-0.019044
C440	C	0.573354	-0.370607	-0.017465
H441	H	0.572757	-0.422336	-0.017543
H442	H	0.517498	-0.431218	0.006182
H443	H	0.556547	-0.411655	-0.046970
H444	H	0.570602	-0.370534	0.010445
H445	H	0.609610	-0.351026	-0.042710
H446	H	0.230362	0.296001	-0.113978
O447	O	0.620045	0.295685	-0.395098
C448	C	0.636124	0.259503	-0.370165
C449	C	0.616524	0.261112	-0.391567
H450	H	0.633275	0.231549	-0.367296
H451	H	0.672404	0.284697	-0.386854
H452	H	0.617171	0.261064	-0.340474
H453	H	0.635442	0.259540	-0.421258
H454	H	0.580240	0.235920	-0.374849
H455	H	0.064526	-0.351765	0.468991
O456	O	-0.185159	-0.224704	-0.110880
C457	C	-0.240273	-0.277283	-0.051275
C458	C	-0.220519	-0.236275	-0.072619
H459	H	-0.268860	-0.286648	-0.020335
H460	H	-0.252835	-0.297555	-0.065860
H461	H	-0.213723	-0.277994	-0.051826
H462	H	-0.247046	-0.235527	-0.072074
H463	H	-0.207946	-0.216022	-0.058027
H464	H	0.205320	0.268435	0.398066
O465	O	0.265173	-0.530674	-0.019410
C466	C	0.276440	-0.478374	-0.055550
C467	C	0.296242	-0.499575	-0.053948
H468	H	0.301554	-0.453221	-0.083467
H469	H	0.245211	-0.498844	-0.054035
H470	H	0.267903	-0.467346	-0.030315
H471	H	0.304807	-0.510605	-0.079178
H472	H	0.327455	-0.479090	-0.055445
H473	H	0.167477	-0.248833	0.184031
O474	O	-0.005268	-0.411708	0.417332
C475	C	-0.001762	-0.407471	0.471790
C476	C	0.019388	-0.386906	0.430033
H477	H	0.018169	-0.387431	0.482069
H478	H	-0.037139	-0.416059	0.490671
H479	H	-0.001957	-0.434163	0.473533
H480	H	0.019616	-0.360201	0.428254
H481	H	0.054754	-0.378347	0.411171
H482	H	0.167518	0.263140	0.184235
O483	O	0.549637	0.301531	-0.359989
C484	C	0.562791	0.335318	-0.318139
C485	C	0.582497	0.333688	-0.359133
H486	H	0.589352	0.361309	-0.317431
H487	H	0.534192	0.337664	-0.308737
H488	H	0.550244	0.308165	-0.297890
H489	H	0.595070	0.360834	-0.379410
H490	H	0.611077	0.331322	-0.368503
H491	H	0.617258	-0.216240	-0.013873
H492	H	0.335269	-0.128941	-0.308748
O493	O	-0.005512	-0.023535	0.028912
C494	C	-0.002112	0.034376	0.029789
C495	C	0.019084	0.013796	0.029142
H496	H	0.017760	0.064558	0.029983
H497	H	-0.002324	0.035985	0.003304
H498	H	-0.037488	0.017806	0.056588
H499	H	0.054468	0.030348	0.002360
H500	H	0.019261	0.012182	0.055644
O501	O	-0.005593	-0.135164	-0.305785
C502	C	-0.064282	-0.189622	-0.247821
C503	C	-0.043093	-0.147866	-0.268423
H504	H	-0.094599	-0.199902	-0.217608
H505	H	-0.074578	-0.208501	-0.264317
H506	H	-0.039330	-0.191367	-0.246280
H507	H	-0.068021	-0.146084	-0.269969
H508	H	-0.032787	-0.129005	-0.251920
H509	H	-0.562326	-0.306401	0.308670
O510	O	-0.185065	-0.224701	0.013565
C511	C	-0.181392	-0.279086	0.013841
C512	C	-0.161674	-0.238077	0.015430
H513	H	-0.162483	-0.289910	0.015341
H514	H	-0.217664	-0.298630	0.039064
H515	H	-0.178609	-0.279067	-0.014088
H516	H	-0.164426	-0.238059	0.043343
H517	H	-0.125411	-0.218551	-0.009812
H518	H	0.064816	0.263199	0.468675
H519	H	-0.769653	-0.318930	0.500992
O520	O	0.440789	-0.300441	-0.028975
C521	C	0.499467	-0.245984	-0.029685
C522	C	0.478287	-0.287738	-0.029110
H523	H	0.529782	-0.235703	-0.029787
H524	H	0.509765	-0.227101	-0.056476
H525	H	0.474509	-0.244246	-0.003190
H526	H	0.503221	-0.289512	-0.055587
H527	H	0.467979	-0.306601	-0.002302
O528	O	0.549844	0.301414	-0.471860
C529	C	0.553745	0.301113	-0.530019
C530	C	0.573337	0.299538	-0.508598
H531	H	0.572737	0.299604	-0.559728
H532	H	0.517480	0.275890	-0.513352
H533	H	0.556533	0.329040	-0.532844
H534	H	0.570581	0.271627	-0.505768
H535	H	0.609594	0.324780	-0.525275
H536	H	0.267897	-0.186572	-0.184305
H537	H	0.333315	-0.603629	-0.013877
H538	H	-0.447397	-0.351491	0.184007
O539	O	0.376922	-0.245758	-0.019280
C540	C	0.410952	-0.214935	0.012719
C541	C	0.368365	-0.236201	0.014291
H542	H	0.404050	-0.207195	0.039854
H543	H	0.422668	-0.234151	0.010419
H544	H	0.437676	-0.187691	-0.013298
H545	H	0.341611	-0.263445	0.040306
H546	H	0.356686	-0.216958	0.016571
O547	O	0.099326	-0.322444	0.507392
C548	C	0.106110	-0.320155	0.560105
C549	C	0.125910	-0.298766	0.519097
H550	H	0.127600	-0.301024	0.569578
H551	H	0.071244	-0.327871	0.580330
H552	H	0.104843	-0.347419	0.560757
H553	H	0.127208	-0.271489	0.518408
H554	H	0.160765	-0.291079	0.498890
O555	O	0.376980	0.301465	-0.472152
C556	C	0.431059	0.301137	-0.530190
C557	C	0.388450	0.299532	-0.508894
H558	H	0.440341	0.299567	-0.559898
H559	H	0.459005	0.329076	-0.533006
H560	H	0.425358	0.275928	-0.513418
H561	H	0.394109	0.324721	-0.525648
H562	H	0.360519	0.271577	-0.506075
O563	O	0.265143	0.301549	-0.187133
C564	C	0.243776	0.335318	-0.207556
C565	C	0.263576	0.333702	-0.186358
H566	H	0.242494	0.361307	-0.206930
H567	H	0.265232	0.337660	-0.238521
H568	H	0.208910	0.308162	-0.192886
H569	H	0.298438	0.360851	-0.200996
H570	H	0.242088	0.331340	-0.155393
O571	O	0.440771	0.311052	-0.417384
C572	C	0.499490	0.311819	-0.471858
C573	C	0.478314	0.311255	-0.430108
H574	H	0.529853	0.311992	-0.482161
H575	H	0.474579	0.285314	-0.473628
H576	H	0.509731	0.338598	-0.490705
H577	H	0.468074	0.284494	-0.411236
H578	H	0.503239	0.337778	-0.428369
O579	O	0.210951	0.171359	-0.506948
C580	C	0.268000	0.230951	-0.559545
C581	C	0.225385	0.209603	-0.518545
H582	H	0.279678	0.261872	-0.568936
H583	H	0.294747	0.230450	-0.560277
H584	H	0.261103	0.216321	-0.579786
H585	H	0.232239	0.224216	-0.498280
H586	H	0.198652	0.210100	-0.517844
H587	H	-0.117197	0.263199	0.468949
O588	O	0.376987	-0.530515	-0.019380
C589	C	0.431072	-0.534474	-0.019066
C590	C	0.388460	-0.555787	-0.017455
H591	H	0.440356	-0.554899	-0.017502
H592	H	0.459015	-0.509343	-0.047004
H593	H	0.425374	-0.523404	0.006144
H594	H	0.394116	-0.566882	-0.042646
H595	H	0.360532	-0.580899	0.010499
O596	O	0.099841	-0.224705	0.013567
C597	C	0.106863	-0.277287	0.009074
C598	C	0.126528	-0.236279	0.010666
H599	H	0.128436	-0.286654	0.006720
H600	H	0.072006	-0.297558	0.036221
H601	H	0.105603	-0.277997	-0.016926
H602	H	0.127819	-0.235532	0.036648
H603	H	0.161374	-0.216027	-0.016499
O604	O	0.440904	-0.023399	-0.305754
C605	C	0.437375	-0.027609	-0.247777
C606	C	0.416240	-0.048190	-0.268389
H607	H	0.417437	-0.047641	-0.217561
H608	H	0.472753	-0.019016	-0.264262
H609	H	0.437564	-0.000919	-0.246242
H610	H	0.416019	-0.074893	-0.269929
H611	H	0.380872	-0.056754	-0.251897
H612	H	0.205343	-0.115928	-0.501596
H613	H	0.617482	-0.318952	-0.013867
H614	H	0.205322	0.268398	0.114116
H615	H	0.100131	-0.026521	0.028807
O616	O	0.336159	0.295794	-0.507475
C617	C	0.366482	0.325392	-0.572675
C618	C	0.346658	0.326971	-0.531662
H619	H	0.374968	0.350591	-0.592240
H620	H	0.397737	0.326948	-0.583444
H621	H	0.341387	0.297446	-0.572697
H622	H	0.371720	0.354912	-0.531608
H623	H	0.315395	0.325393	-0.520910
O624	O	0.170169	0.095164	-0.471884
C625	C	0.228627	0.099357	-0.530040
C626	C	0.208781	0.120527	-0.508623
H627	H	0.259843	0.119852	-0.559750
H628	H	0.237184	0.088320	-0.513371
H629	H	0.203523	0.074214	-0.532861
H630	H	0.233863	0.145686	-0.505797
H631	H	0.200214	0.131536	-0.525301
H632	H	-0.182059	-0.115906	-0.114213
H633	H	0.230368	0.295965	-0.398887
O634	O	-0.379647	-0.321931	0.110789
C635	C	-0.324523	-0.319399	0.051190
C636	C	-0.344284	-0.298146	0.072528
H637	H	-0.295935	-0.300181	0.020250
H638	H	-0.311962	-0.327103	0.065779
H639	H	-0.351069	-0.346663	0.051739
H640	H	-0.317762	-0.270869	0.071985
H641	H	-0.356856	-0.290472	0.057932
O642	O	0.620220	0.171254	-0.507425
C643	C	0.616344	0.167048	-0.561695
C644	C	0.596772	0.145872	-0.520693
H645	H	0.597400	0.146533	-0.572437
H646	H	0.613526	0.192171	-0.561749
H647	H	0.652619	0.178114	-0.581264
H648	H	0.560492	0.134781	-0.501100
H649	H	0.599624	0.120768	-0.520669
O650	O	0.224020	-0.224973	-0.111217
C651	C	0.170052	-0.279226	-0.115412
C652	C	0.212647	-0.238217	-0.136583
H653	H	0.160839	-0.289943	-0.135909
H654	H	0.175672	-0.298828	-0.104369
H655	H	0.142092	-0.279256	-0.090272
H656	H	0.240628	-0.238150	-0.161738
H657	H	0.206991	-0.218632	-0.147598
O658	O	-0.005458	0.253382	0.417284
C659	C	-0.001963	0.252658	0.471748
C660	C	0.019159	0.253187	0.430009
H661	H	0.017926	0.252492	0.482051
H662	H	-0.002121	0.279173	0.473493
H663	H	-0.037354	0.225888	0.490610
H664	H	0.054558	0.279940	0.411121
H665	H	0.019283	0.226655	0.428294
O666	O	0.106092	-0.023561	-0.417378
C667	C	0.182201	0.030044	-0.461255
C668	C	0.141000	0.009451	-0.419511
H669	H	0.210432	0.056743	-0.462995
H670	H	0.192394	0.010023	-0.471565
H671	H	0.174268	0.038625	-0.480114
H672	H	0.148900	0.000868	-0.400622
H673	H	0.130818	0.029485	-0.409232
O674	O	0.211377	-0.112808	0.013597
C675	C	0.265334	-0.054651	0.013900
C676	C	0.222748	-0.076070	0.015471
H677	H	0.274546	-0.024942	0.015405
H678	H	0.259703	-0.071319	0.039126
H679	H	0.293300	-0.051830	-0.014026
H680	H	0.194762	-0.078897	0.043380
H681	H	0.228416	-0.059393	-0.009775
H682	H	0.437935	-0.026287	-0.411409
O683	O	0.099830	-0.224732	-0.395895
C684	C	0.069670	-0.289866	-0.395367
C685	C	0.089342	-0.248857	-0.416624
H686	H	0.061176	-0.309385	-0.412113
H687	H	0.094813	-0.289882	-0.392592
H688	H	0.038426	-0.300698	-0.365639
H689	H	0.120581	-0.238001	-0.446361
H690	H	0.064170	-0.248866	-0.419367
O691	O	0.335533	-0.113355	-0.110859
C692	C	0.324055	-0.088606	-0.058464
C693	C	0.304407	-0.109901	-0.079804
H694	H	0.298902	-0.085800	-0.033356
H695	H	0.332515	-0.105336	-0.047367
H696	H	0.355313	-0.058892	-0.078893
H697	H	0.273137	-0.139616	-0.059398
H698	H	0.295979	-0.093143	-0.090907
H699	H	-0.562304	-0.409050	0.308680
O700	O	0.265048	0.301439	-0.360475
C701	C	0.206599	0.301156	-0.306222
C702	C	0.226440	0.299572	-0.347233
H703	H	0.175386	0.299655	-0.295506
H704	H	0.198037	0.275933	-0.286620
H705	H	0.231707	0.329083	-0.306189
H706	H	0.201353	0.271661	-0.347302
H707	H	0.235012	0.324814	-0.366817
H708	H	0.100149	0.253421	0.308676
H709	H	0.370607	-0.083853	-0.468752
O710	O	-0.734844	-0.357310	0.471741
C711	C	-0.723575	-0.398337	0.496620
C712	C	-0.703774	-0.357337	0.475210
H713	H	-0.698461	-0.398374	0.499425
H714	H	-0.754804	-0.409092	0.526334
H715	H	-0.732113	-0.417907	0.479926
H716	H	-0.695209	-0.337739	0.491872
H717	H	-0.672562	-0.346614	0.445494
O718	O	0.224266	-0.606968	-0.013609
C719	C	0.167221	-0.666561	-0.009159
C720	C	0.209834	-0.645211	-0.010772
H721	H	0.155545	-0.697483	-0.006874
H722	H	0.140472	-0.666062	0.016856
H723	H	0.174119	-0.651933	-0.036298
H724	H	0.202979	-0.659824	0.016347
H725	H	0.236569	-0.645708	-0.036805
H726	H	-0.732353	-0.533492	0.468971
H727	H	0.167506	-0.083593	0.019063
O728	O	0.440714	0.311130	-0.305796
C729	C	0.474576	0.344872	-0.274601
C730	C	0.453431	0.344287	-0.295212
H731	H	0.484873	0.371681	-0.266045
H732	H	0.449639	0.318393	-0.247893
H733	H	0.504902	0.344985	-0.294633
H734	H	0.423110	0.344186	-0.275211
H735	H	0.478397	0.370763	-0.321925
O736	O	0.620473	0.171492	-0.395766
C737	C	0.616787	0.167547	-0.337702
C738	C	0.597078	0.146237	-0.358997
H739	H	0.597875	0.147140	-0.307968
H740	H	0.653059	0.178599	-0.354424
H741	H	0.614000	0.192690	-0.334941
H742	H	0.599833	0.121078	-0.361763
H743	H	0.560814	0.135213	-0.342266
H744	H	0.333309	0.296016	-0.114204
H745	H	0.205316	0.168042	0.013788
O746	O	0.099873	0.171381	0.013520
C747	C	0.106870	0.230974	0.009074
C748	C	0.126522	0.209625	0.010683
H749	H	0.128401	0.261896	0.006788
H750	H	0.105636	0.230474	-0.016941
H751	H	0.072000	0.216345	0.036213
H752	H	0.161399	0.224237	-0.016438
H753	H	0.127722	0.210122	0.036715
O754	O	0.376962	0.301479	-0.187310
C755	C	0.431071	0.301205	-0.183360
C756	C	0.388474	0.299618	-0.162053
H757	H	0.440397	0.299709	-0.162951
H758	H	0.425392	0.275980	-0.194405
H759	H	0.458980	0.329131	-0.208508
H760	H	0.360544	0.271708	-0.136890
H761	H	0.394190	0.324862	-0.151036
O762	O	-0.776252	-0.606587	0.507361
C763	C	-0.830201	-0.602381	0.561626
C764	C	-0.787587	-0.581204	0.520627
H765	H	-0.839373	-0.581866	0.572367
H766	H	-0.858192	-0.627502	0.561676
H767	H	-0.824568	-0.613449	0.581200
H768	H	-0.793176	-0.570111	0.501030
H769	H	-0.759610	-0.556101	0.520607
H770	H	0.205048	-0.216515	0.398819
O771	O	0.058472	-0.357637	0.187330
C772	C	0.022962	-0.422773	0.222301
C773	C	0.065559	-0.381765	0.200966
H774	H	0.028680	-0.442294	0.233325
H775	H	-0.004972	-0.422788	0.247460
H776	H	0.013648	-0.433602	0.201888
H777	H	0.074913	-0.370911	0.221349
H778	H	0.093467	-0.381774	0.175803
H779	H	-0.002500	-0.026531	-0.308780
H780	H	-0.117212	-0.083598	-0.184336
O781	O	0.550078	0.095321	-0.360483
C782	C	0.533943	0.043027	-0.319465
C783	C	0.553525	0.064226	-0.360463
H784	H	0.536714	0.017878	-0.319434
H785	H	0.552905	0.063501	-0.308713
H786	H	0.497679	0.031994	-0.299890
H787	H	0.589786	0.075261	-0.380067
H788	H	0.534530	0.043738	-0.371184
H789	H	-0.664969	-0.409045	0.411340
H790	H	-0.117201	-0.533500	0.468702
O791	O	0.058739	0.095185	0.019237
C792	C	0.004780	0.099382	0.018937
C793	C	0.047367	0.120551	0.017364
H794	H	-0.004433	0.119879	0.017431
H795	H	0.010410	0.088343	-0.006289
H796	H	-0.023185	0.074241	0.046863
H797	H	0.075352	0.145707	-0.010546
H798	H	0.041700	0.131563	0.042609
H799	H	-0.117214	-0.083584	0.019042
H800	H	0.230097	-0.219111	-0.398135
O801	O	0.265131	-0.357338	-0.019399
C802	C	0.243760	-0.399126	-0.053170
C803	C	0.263560	-0.358129	-0.051550
H804	H	0.242475	-0.399781	-0.079157
H805	H	0.265219	-0.408635	-0.055519
H806	H	0.208896	-0.419322	-0.026011
H807	H	0.298420	-0.337905	-0.078702
H808	H	0.242070	-0.348652	-0.049181
O809	O	-0.184823	-0.112795	0.013563
C810	C	-0.180989	-0.054669	0.013949
C811	C	-0.161385	-0.076084	0.015511
H812	H	-0.162053	-0.024987	0.015532
H813	H	-0.178192	-0.051789	-0.013980
H814	H	-0.217260	-0.071391	0.039170
H815	H	-0.125109	-0.059380	-0.009690
H816	H	-0.164217	-0.078968	0.043457
O817	O	0.336057	-0.210396	-0.013607
C818	C	0.329306	-0.157663	-0.009166
C819	C	0.309513	-0.198668	-0.010765
H820	H	0.307860	-0.148166	-0.006876
H821	H	0.330551	-0.156979	0.016843
H822	H	0.364184	-0.137477	-0.036311
H823	H	0.274628	-0.218878	0.016361
H824	H	0.308302	-0.199321	-0.036791
H825	H	-0.382753	-0.216236	0.114110
H826	H	0.370598	-0.083850	-0.184076
O827	O	0.549655	-0.245677	-0.019387
C828	C	0.553318	-0.187625	-0.019097
C829	C	0.573006	-0.208931	-0.017466
H830	H	0.572182	-0.157914	-0.017536
H831	H	0.556135	-0.184817	-0.047040
H832	H	0.517036	-0.204384	0.006108
H833	H	0.609293	-0.192189	-0.042652
H834	H	0.570154	-0.211742	0.010493
H835	H	0.100368	-0.306171	0.308703
O836	O	0.224272	-0.321945	-0.013626
C837	C	0.167201	-0.319413	-0.009139
C838	C	0.209796	-0.298159	-0.010723
H839	H	0.155479	-0.300195	-0.006783
H840	H	0.174083	-0.327119	-0.036289
H841	H	0.140489	-0.346676	0.016858
H842	H	0.236528	-0.270883	-0.036703
H843	H	0.202878	-0.290483	0.016445
H844	H	-0.629125	-0.248761	0.365741
H845	H	-0.002293	-0.408830	0.308704
H846	H	0.102110	-0.319446	0.114137
H847	H	-0.666703	-0.216219	0.398058
H848	H	-0.181841	-0.603391	0.398082
O849	O	-0.114230	-0.530278	0.359913
C850	C	-0.117872	-0.534237	0.305514
C851	C	-0.137575	-0.555550	0.346514
H852	H	-0.136732	-0.554663	0.294665
H853	H	-0.120680	-0.509107	0.305510
H854	H	-0.081592	-0.523168	0.286001
H855	H	-0.173860	-0.566644	0.366050
H856	H	-0.134732	-0.580662	0.346487
H857	H	-0.182060	-0.603623	0.501016
