data_functionalizedCrystal
_audit_creation_method	'MofGen! by Chris Wilmer'
_symmetry_space_group_name_H-M	'P1'
_symmetry_Int_Tables_number	1
_symmetry_cell_setting	triclinic
loop_
_symmetry_equiv_pos_as_xyz
  x,y,z
_cell_length_a	17.019372
_cell_length_b	17.019294
_cell_length_c	7.540329
_cell_angle_alpha	86.117441
_cell_angle_beta	93.873462
_cell_angle_gamma	83.656821
loop_
_atom_site_label
_atom_site_type_symbol
_atom_site_fract_x
_atom_site_fract_y
_atom_site_fract_z
O1	O	1.046553	0.100471	-0.003128
O2	O	0.816876	0.113292	-0.040136
O3	O	0.938122	-0.007959	-0.003108
O4	O	0.925307	0.221721	-0.040156
O5	O	0.938115	-0.007960	0.291857
O6	O	0.816869	0.113291	0.254828
O7	O	1.046546	0.100469	0.291836
Cu8	Cu	0.931707	0.106880	0.300265
Cu9	Cu	0.931715	0.106882	-0.048565
O10	O	0.925300	0.221720	0.254808
C11	C	0.787484	0.112806	0.102935
C12	C	0.699917	0.111351	0.089794
C13	C	0.204655	0.103095	0.007291
C14	C	0.286934	0.104462	0.019662
C15	C	0.328061	0.105151	0.186634
C16	C	0.286906	0.104464	0.341245
C17	C	0.204629	0.103091	0.328873
C18	C	0.576484	0.109291	0.232034
C19	C	0.658767	0.110667	0.244394
C20	C	0.658790	0.110663	-0.077190
C21	C	0.576511	0.109295	-0.089548
C22	C	0.535363	0.108604	0.065064
C23	C	0.412164	0.106551	0.199283
C24	C	0.451263	0.107198	0.052414
C25	C	0.937632	-0.037348	0.148787
C26	C	0.936175	-0.124917	0.161933
C27	C	0.935496	-0.166051	0.007326
C28	C	0.934121	-0.248331	0.019683
C29	C	0.933431	-0.289475	0.186650
C30	C	0.934108	-0.248334	0.341268
C31	C	0.935477	-0.166055	0.328909
C32	C	0.929293	-0.537903	0.232011
C33	C	0.927926	-0.620187	0.244359
C34	C	0.927938	-0.620178	-0.077228
C35	C	0.929312	-0.537899	-0.089572
C36	C	0.929984	-0.496765	0.065045
C37	C	0.932029	-0.373578	0.199285
C38	C	0.931381	-0.412662	0.052408
C39	C	1.075938	0.100955	0.148761
C40	C	1.163505	0.102410	0.161890
C41	C	0.925790	0.251109	0.102909
C42	C	0.927247	0.338678	0.089751
N43	N	0.931707	0.106878	0.545613
N44	N	0.931722	0.106877	-0.293911
H45	H	0.171125	0.102542	0.454763
H46	H	0.692249	0.111233	0.380368
H47	H	0.931470	-0.407087	0.335230
O48	O	0.933362	-0.292703	0.521363
H49	H	0.987359	-0.283992	0.605375
H50	H	0.542993	0.108717	0.357932
H51	H	0.171175	0.102540	-0.128676
O52	O	0.703168	0.111402	-0.243946
H53	H	0.694467	0.057399	-0.314117
O54	O	0.927198	-0.664565	0.424462
H55	H	0.926150	-0.728691	0.407076
O56	O	0.936218	-0.121683	0.495662
H57	H	0.935518	-0.164116	0.613845
H58	H	0.320399	0.105020	0.477197
O59	O	0.456523	0.107308	0.379367
H60	H	0.501108	0.054199	0.401994
H61	H	0.936062	-0.132558	-0.128636
O62	O	0.930022	-0.493539	0.398766
H63	H	0.984380	-0.463138	0.410101
O64	O	0.933349	-0.292695	-0.147077
H65	H	0.934054	-0.250262	-0.265256
H66	H	0.929874	-0.504405	-0.225534
O67	O	0.532177	0.108537	-0.269662
H68	H	0.487600	0.161651	-0.292340
O69	O	0.932120	-0.368285	-0.127671
H70	H	0.931413	-0.410707	-0.233118
O71	O	0.406907	0.106441	-0.127666
H72	H	0.449341	0.107139	-0.233102
O73	O	0.331320	0.105204	-0.147082
H74	H	0.288898	0.104506	-0.265267
O75	O	0.927199	-0.664540	-0.243993
H76	H	0.926123	-0.728665	-0.207358
