data_functionalizedCrystal
_audit_creation_method	'MofGen! by Chris Wilmer'
_symmetry_space_group_name_H-M	'P1'
_symmetry_Int_Tables_number	1
_symmetry_cell_setting	triclinic
loop_
_symmetry_equiv_pos_as_xyz
  x,y,z
_cell_length_a	14.044191
_cell_length_b	14.044220
_cell_length_c	12.996460
_cell_angle_alpha	89.993022
_cell_angle_beta	89.997003
_cell_angle_gamma	93.190327
loop_
_atom_site_label
_atom_site_type_symbol
_atom_site_fract_x
_atom_site_fract_y
_atom_site_fract_z
O1	O	1.277174	0.230202	-0.085522
O2	O	1.777174	0.730202	0.414478
O3	O	1.000501	0.221889	-0.085535
O4	O	1.500501	0.721889	0.414465
O5	O	1.134685	0.087710	-0.085518
O6	O	1.634685	0.587710	0.414482
O7	O	1.142991	0.364381	-0.085538
O8	O	1.642991	0.864381	0.414462
O9	O	1.134669	0.087700	0.085616
O10	O	1.634669	0.587700	0.585616
O11	O	1.000486	0.221880	0.085599
O12	O	1.500486	0.721880	0.585599
O13	O	1.277158	0.230192	0.085612
O14	O	1.777158	0.730192	0.585612
Cu15	Cu	1.138820	0.226035	0.101232
Cu16	Cu	1.638820	0.726035	0.601232
Cu17	Cu	1.138839	0.226046	-0.101154
Cu18	Cu	1.638839	0.726046	0.398846
O19	O	1.142975	0.364372	0.085596
O20	O	1.642975	0.864372	0.585596
C21	C	0.964872	0.218248	0.000031
C22	C	1.464872	0.718248	0.500031
C23	C	0.858728	0.207401	0.000026
C24	C	1.358728	0.707401	0.500026
C25	C	0.613270	0.264501	0.000032
C26	C	1.113270	0.764501	0.500032
C27	C	0.664395	0.187585	0.000036
C28	C	1.164395	0.687585	0.500036
C29	C	0.772532	0.198613	0.000031
C30	C	1.272532	0.698613	0.500031
C31	C	0.505123	0.253474	0.000038
C32	C	1.005123	0.753474	0.500038
C33	C	1.131041	0.052083	0.000049
C34	C	1.631041	0.552083	0.500049
C35	C	1.120197	-0.054060	0.000050
C36	C	1.620197	0.445940	0.500050
C37	C	1.100370	-0.248398	0.000034
C38	C	1.600370	0.251602	0.500034
C39	C	1.177285	-0.299526	0.000034
C40	C	1.677285	0.200474	0.500034
C41	C	1.166253	-0.407663	0.000026
C42	C	1.666253	0.092337	0.500026
C43	C	1.111400	-0.140252	0.000043
C44	C	1.611400	0.359748	0.500043
C45	C	1.312788	0.233834	0.000044
C46	C	1.812788	0.733834	0.500044
C47	C	1.418931	0.244681	0.000042
C48	C	1.918931	0.744681	0.500042
C49	C	1.146618	0.399998	0.000026
C50	C	1.646618	0.899998	0.500026
C51	C	1.157463	0.506142	0.000019
C52	C	1.657463	1.006142	0.500019
N53	N	1.138814	0.226027	0.243579
N54	N	1.638814	0.726027	0.743579
N55	N	1.138852	0.226047	-0.243501
N56	N	1.638852	0.726047	0.256499
C57	C	1.138838	0.226047	0.663393
C58	C	1.638838	0.726047	1.163393
C59	C	1.138829	0.226045	0.546588
C60	C	1.638829	0.726045	1.046588
C61	C	1.138826	0.226038	0.453490
C62	C	1.638826	0.726038	0.953490
C63	C	1.138816	0.226034	0.336677
C64	C	1.638816	0.726034	0.836677
H65	H	0.650711	0.338628	0.000024
H66	H	1.150711	0.838628	0.500024
C67	C	1.269068	-0.150094	0.000067
C68	C	1.769068	0.349906	0.500067
C69	C	1.277366	-0.248990	0.000055
C70	C	1.777366	0.251010	0.500055
H71	H	1.330852	-0.118894	0.000089
H72	H	1.830852	0.381106	0.500089
H73	H	1.235386	-0.132144	-0.059611
H74	H	1.735386	0.367856	0.440389
H75	H	1.235351	-0.132174	0.059745
H76	H	1.735351	0.367826	0.559745
H77	H	1.311076	-0.266911	-0.059627
H78	H	1.811076	0.233089	0.440373
H79	H	1.311062	-0.266947	0.059740
H80	H	1.811062	0.233053	0.559740
C81	C	0.514960	0.095806	0.000022
C82	C	1.014960	0.595806	0.500022
C83	C	0.613856	0.087506	0.000027
C84	C	1.113856	0.587506	0.500027
H85	H	0.483759	0.034024	0.000005
H86	H	0.983759	0.534024	0.500005
H87	H	0.497019	0.129488	0.059701
H88	H	0.997019	0.629488	0.559701
H89	H	0.497034	0.129525	-0.059656
H90	H	0.997034	0.629525	0.440344
H91	H	0.631783	0.053793	0.059710
H92	H	1.131783	0.553793	0.559710
H93	H	0.631804	0.053810	-0.059657
H94	H	1.131804	0.553810	0.440343
H95	H	1.026242	-0.285837	0.000028
H96	H	1.526242	0.214163	0.500028
