data_functionalizedCrystal
_audit_creation_method	'MofGen! by Chris Wilmer'
_symmetry_space_group_name_H-M	'P1'
_symmetry_Int_Tables_number	1
_symmetry_cell_setting	triclinic
loop_
_symmetry_equiv_pos_as_xyz
  x,y,z
_cell_length_a	34.490303
_cell_length_b	34.489386
_cell_length_c	34.485816
_cell_angle_alpha	60.004462
_cell_angle_beta	60.008900
_cell_angle_gamma	59.994399
loop_
_atom_site_label
_atom_site_type_symbol
_atom_site_fract_x
_atom_site_fract_y
_atom_site_fract_z
O1	O	0.053846	-0.566517	0.473678
O2	O	0.553846	-0.066517	0.973678
O3	O	0.020329	-0.441078	0.381663
O4	O	0.520329	0.058922	0.881663
O5	O	0.099768	-0.520436	0.381578
O6	O	0.599768	-0.020436	0.881578
O7	O	-0.025592	-0.487159	0.473762
O8	O	0.474408	0.012841	0.973762
O9	O	0.126127	-0.494082	0.407849
O10	O	0.626127	0.005918	0.907849
O11	O	0.046689	-0.414724	0.407933
O12	O	0.546689	0.085276	0.907933
O13	O	0.080206	-0.540163	0.499949
O14	O	0.580206	-0.040163	0.999949
Zn15	Zn	0.067632	-0.473259	0.458112
Zn16	Zn	0.567632	0.026741	0.958112
Zn17	Zn	0.032903	-0.507982	0.423499
Zn18	Zn	0.532903	-0.007982	0.923499
O19	O	0.000767	-0.460805	0.500033
O20	O	0.500767	0.039195	1.000033
N21	N	0.091336	-0.449565	0.481736
N22	N	0.591336	0.050435	0.981736
N23	N	0.009203	-0.531680	0.399875
N24	N	0.509203	-0.031680	0.899875
C25	C	0.142510	-0.268211	0.532817
C26	C	0.642510	0.231789	1.032817
C27	C	0.142641	-0.398441	0.662987
C28	C	0.642641	0.101559	1.162987
C29	C	0.142524	-0.398421	0.532817
C30	C	0.642524	0.101579	1.032817
C31	C	0.272762	-0.398394	0.532723
C32	C	0.772762	0.101606	1.032723
C33	C	0.156853	-0.311177	0.547124
C34	C	0.656853	0.188823	1.047124
C35	C	0.156928	-0.384109	0.620020
C36	C	0.656928	0.115891	1.120020
C37	C	0.229794	-0.384081	0.547073
C38	C	0.729794	0.115919	1.047073
C39	C	0.156863	-0.384097	0.547124
C40	C	0.656863	0.115903	1.047124
C41	C	0.124253	-0.213522	0.514606
C42	C	0.624253	0.286478	1.014606
C43	C	0.124277	-0.416652	0.514606
C44	C	0.624277	0.083348	1.014606
C45	C	0.175110	-0.365866	0.565335
C46	C	0.675110	0.134134	1.065335
C47	C	0.352285	-0.384669	0.490824
C48	C	0.852285	0.115331	0.990824
C49	C	0.401998	-0.401229	0.474223
C50	C	0.901998	0.098771	0.974223
C51	C	0.402027	-0.481671	0.504898
C52	C	0.902027	0.018329	1.004898
C53	C	0.352316	-0.465109	0.521500
C54	C	0.852316	0.034891	1.021500
C55	C	0.136220	-0.188652	0.465734
C56	C	0.636220	0.311348	0.965734
C57	C	0.119621	-0.138936	0.449181
C58	C	0.619621	0.361064	0.949181
C59	C	0.079092	-0.138961	0.530374
C60	C	0.579092	0.361039	1.030374
C61	C	0.095691	-0.188678	0.546927
C62	C	0.595691	0.311322	1.046927
C63	C	0.075398	-0.404656	0.526651
C64	C	0.575398	0.095344	1.026651
C65	C	0.058814	-0.421229	0.510091
C66	C	0.558814	0.078771	1.010091
C67	C	0.139984	-0.461794	0.469452
C68	C	0.639984	0.038206	0.969452
C69	C	0.156570	-0.445221	0.486007
C70	C	0.656570	0.054779	0.986007
C71	C	0.075593	-0.404694	0.742565
C72	C	0.575593	0.095306	1.242565
C73	C	0.059066	-0.421281	0.792280
C74	C	0.559066	0.078719	1.292280
C75	C	0.140274	-0.461856	0.792215
C76	C	0.640274	0.038144	1.292215
C77	C	0.156800	-0.445269	0.742499
C78	C	0.656800	0.054731	1.242499
C79	C	0.124458	-0.416687	0.717675
C80	C	0.624458	0.083313	1.217675
C81	C	0.327446	-0.416608	0.514460
C82	C	0.827446	0.083392	1.014460
C83	C	-0.023585	-0.564792	0.161919
C84	C	0.476415	-0.064792	0.661919
C85	C	-0.023910	-0.769260	0.366530
C86	C	0.476090	-0.269260	0.866530
C87	C	-0.023880	-0.564780	0.366623
C88	C	0.476120	-0.064780	0.866623
C89	C	-0.228325	-0.564561	0.366222
C90	C	0.271675	-0.064561	0.866222
C91	C	-0.129610	-0.597564	0.333467
C92	C	0.370390	-0.097564	0.833467
C93	C	-0.056729	-0.597644	0.333613
C94	C	0.443271	-0.097644	0.833613
C95	C	-0.074925	-0.615849	0.315324
C96	C	0.425075	-0.115849	0.815324
C97	C	-0.088689	-0.695351	0.357144
C98	C	0.411311	-0.195351	0.857144
C99	C	-0.072155	-0.745068	0.373736
C100	C	0.427845	-0.245068	0.873736
C101	C	0.008283	-0.745150	0.343188
C102	C	0.508283	-0.245150	0.843188
C103	C	-0.008252	-0.695435	0.326596
C104	C	0.491748	-0.195435	0.826596
C105	C	-0.154529	-0.609541	0.382326
C106	C	0.345471	-0.109541	0.882326
C107	C	-0.204241	-0.592916	0.398818
C108	C	0.295759	-0.092916	0.898818
C109	C	-0.204114	-0.552341	0.317588
C110	C	0.295886	-0.052341	0.817588
C111	C	-0.154401	-0.568966	0.301096
C112	C	0.345599	-0.068966	0.801096
C113	C	-0.068707	-0.548770	0.321590
C114	C	0.431293	-0.048770	0.821590
C115	C	-0.052166	-0.532225	0.338221
C116	C	0.447834	-0.032225	0.838221
C117	C	-0.011669	-0.613425	0.378886
C118	C	0.488331	-0.113425	0.878886
C119	C	-0.028210	-0.629972	0.362261
C120	C	0.471790	-0.129972	0.862261
C121	C	-0.068581	-0.548777	0.235758
C122	C	0.431419	-0.048777	0.735758
C123	C	-0.051939	-0.532234	0.186043
C124	C	0.448061	-0.032234	0.686043
C125	C	-0.011379	-0.613438	0.186090
C126	C	0.488621	-0.113438	0.686090
C127	C	-0.028020	-0.629981	0.235806
C128	C	0.471980	-0.129981	0.735806
C129	C	-0.056622	-0.597649	0.260639
C130	C	0.443378	-0.097649	0.760639
C131	C	-0.056739	-0.670537	0.333576
C132	C	0.443261	-0.170537	0.833576
C133	C	-0.005614	-0.545951	0.107238
C134	C	0.494386	-0.045951	0.607238
C135	C	-0.006360	-0.823943	0.385033
C136	C	0.493640	-0.323943	0.885033
C137	C	-0.005995	-0.545937	0.384582
C138	C	0.494005	-0.045937	0.884582
C139	C	-0.283006	-0.545971	0.383725
C140	C	0.216994	-0.045971	0.883725
N141	N	0.426163	-0.449489	0.481488
N142	N	0.926163	0.050511	0.981488
O143	O	0.588601	-0.457377	0.364497
O144	O	1.088601	0.042623	0.864497
O145	O	0.588789	-0.549696	0.489801
O146	O	1.088789	-0.049696	0.989801
O147	O	0.588709	-0.549485	0.410335
O148	O	1.088709	-0.049485	0.910335
O149	O	0.588681	-0.457588	0.443963
O150	O	1.088681	0.042412	0.943963
O151	O	0.509731	-0.523223	0.436741
O152	O	1.009731	-0.023223	0.936741
O153	O	0.509811	-0.523434	0.516207
O154	O	1.009811	-0.023434	1.016207
O155	O	0.509624	-0.431115	0.390903
O156	O	1.009624	0.068885	0.890903
Zn157	Zn	0.497178	-0.473105	0.457747
Zn158	Zn	0.997178	0.026895	0.957747
Zn159	Zn	0.601234	-0.507706	0.422956
Zn160	Zn	1.101234	-0.007706	0.922956
O161	O	0.509704	-0.431326	0.470368
O162	O	1.009704	0.068674	0.970368
N163	N	0.672250	-0.531322	0.399211
N164	N	1.172250	-0.031322	0.899211
N165	N	0.091303	-0.114798	0.481730
N166	N	0.591303	0.385202	0.981730
O167	O	-0.025603	0.047729	0.473733
O168	O	0.474397	0.547729	0.973733
O169	O	0.099703	0.047764	0.381394
O170	O	0.599703	0.547764	0.881394
O171	O	0.020199	0.047731	0.381655
O172	O	0.520199	0.547731	0.881655
O173	O	0.053901	0.047761	0.473472
O174	O	0.553901	0.547761	0.973472
O175	O	0.046564	-0.031252	0.407974
O176	O	0.546564	0.468748	0.907974
O177	O	0.126068	-0.031219	0.407713
O178	O	0.626068	0.468781	0.907713
O179	O	0.000762	-0.031254	0.500052
O180	O	0.500762	0.468746	1.000052
Zn181	Zn	0.067601	-0.043777	0.458061
Zn182	Zn	0.567601	0.456223	0.958061
Zn183	Zn	0.032864	0.060287	0.423385
Zn184	Zn	0.532864	0.560287	0.923385
O185	O	0.080266	-0.031222	0.499791
O186	O	0.580266	0.468778	0.999791
N187	N	0.009156	0.131307	0.399717
N188	N	0.509156	0.631307	0.899717
N189	N	0.091635	-0.449614	0.816396
N190	N	0.591635	0.050386	1.316396
O191	O	0.083664	-0.566502	0.978913
O192	O	0.583664	-0.066502	1.478913
O193	O	-0.008637	-0.441152	0.978954
O194	O	0.491363	0.058848	1.478954
O195	O	-0.008421	-0.520640	0.978930
O196	O	0.491579	-0.020640	1.478930
O197	O	0.083448	-0.487013	0.978936
O198	O	0.583448	0.012987	1.478936
O199	O	0.017877	-0.494296	0.899950
O200	O	0.517877	0.005704	1.399950
O201	O	0.017661	-0.414807	0.899974
O202	O	0.517661	0.085193	1.399974
O203	O	0.109961	-0.540157	0.899933
O204	O	0.609961	-0.040157	1.399933
Zn205	Zn	0.067986	-0.473299	0.887414
Zn206	Zn	0.567986	0.026701	1.387414
Zn207	Zn	0.033338	-0.508010	0.991473
Zn208	Zn	0.533338	-0.008010	1.491473
O209	O	0.109746	-0.460669	0.899956
O210	O	0.609746	0.039331	1.399956
N211	N	0.009689	-0.531700	1.062491
N212	N	0.509689	-0.031700	1.562491
C213	C	0.030367	-0.412095	0.382120
C214	C	0.530367	0.087905	0.882120
C215	C	0.128741	-0.510370	0.382016
C216	C	0.628741	-0.010370	0.882016
C217	C	0.070168	-0.569147	0.499490
C218	C	0.570168	-0.069147	0.999490
C219	C	-0.028207	-0.470871	0.499595
C220	C	0.471793	0.029129	0.999595
C221	C	0.549323	-0.549278	0.518791
C222	C	1.049323	-0.049278	1.018791
C223	C	0.549225	-0.549017	0.420381
C224	C	1.049225	-0.049017	0.920381
C225	C	0.549087	-0.431532	0.361914
C226	C	1.049087	0.068468	0.861914
C227	C	0.549188	-0.431794	0.460322
C228	C	1.049188	0.068206	0.960322
C229	C	0.128638	0.008374	0.381806
C230	C	0.628638	0.508374	0.881806
C231	C	0.030215	0.008236	0.382161
C232	C	0.530215	0.508236	0.882161
C233	C	-0.028206	0.008233	0.499608
C234	C	0.471794	0.508233	0.999608
C235	C	0.070250	0.008272	0.499285
C236	C	0.570250	0.508272	0.999285
C237	C	-0.008199	-0.412187	0.939469
C238	C	0.491801	0.087813	1.439469
C239	C	-0.007927	-0.510619	0.939425
C240	C	0.492073	-0.010619	1.439425
C241	C	0.109523	-0.569121	0.939417
C242	C	0.609523	-0.069121	1.439417
C243	C	0.109257	-0.470684	0.939444
C244	C	0.609257	0.029316	1.439444
H245	H	0.019274	-0.411508	0.812539
H246	H	0.519274	0.088492	1.312539
H247	H	0.164551	0.008603	0.352745
H248	H	0.664551	0.508603	0.852745
O249	O	0.079813	0.008277	0.537497
O250	O	0.579813	0.508277	1.037497
H251	H	0.054204	0.040468	0.547585
H252	H	0.554204	0.540468	1.047585
H253	H	0.138503	-0.605120	0.939399
H254	H	0.638503	-0.105120	1.439399
O255	O	0.176433	-0.519761	0.343670
O256	O	0.676433	-0.019761	0.843670
H257	H	0.176487	-0.487625	0.311443
H258	H	0.676487	0.012375	0.811443
H259	H	-0.064213	-0.463781	0.528541
H260	H	0.435787	0.036219	1.028541
O261	O	0.147493	-0.461158	0.939439
O262	O	0.647493	0.038842	1.439439
H263	H	0.133906	-0.424412	0.939446
H264	H	0.633906	0.075588	1.439446
H265	H	-0.064192	0.008222	0.528596
H266	H	0.435808	0.508222	1.028596
O267	O	-0.046588	-0.364504	0.939488
O268	O	0.453412	0.135496	1.439488
H269	H	-0.033165	-0.341214	0.939499
H270	H	0.466835	0.158786	1.439499
O271	O	0.079653	-0.616877	0.537774
O272	O	0.579653	-0.116877	1.037774
H273	H	0.047556	-0.617003	0.570035
H274	H	0.547556	-0.117003	1.070035
O275	O	0.549390	-0.587672	0.566459
O276	O	1.049390	-0.087672	1.066459
H277	H	0.549406	-0.574242	0.589745
H278	H	1.049406	-0.074242	1.089745
O279	O	-0.046142	-0.520132	0.939379
O280	O	0.453858	-0.020132	1.439379
H281	H	-0.078421	-0.488043	0.939382
H282	H	0.421579	0.011957	1.439382
O283	O	0.549238	-0.587261	0.410857
O284	O	1.049238	-0.087261	0.910857
H285	H	0.549188	-0.573670	0.374125
H286	H	1.049188	-0.073670	0.874125
H287	H	0.549182	-0.402927	0.467517
H288	H	1.049182	0.097073	0.967517
O289	O	0.040709	-0.373860	0.715792
O290	O	0.540709	0.126140	1.215792
H291	H	0.018069	-0.393600	0.725345
H292	H	0.518069	0.106400	1.225345
O293	O	0.175155	-0.492680	0.818992
O294	O	0.675155	0.007320	1.318992
H295	H	0.211912	-0.498236	0.793332
H296	H	0.711912	0.001764	1.293332
O297	O	0.549021	-0.393138	0.314245
O298	O	1.049021	0.106862	0.814245
H299	H	0.549012	-0.406570	0.290957
H300	H	1.049012	0.093430	0.790957
H301	H	0.196592	-0.455039	0.722237
H302	H	0.696592	0.044961	1.222237
O303	O	0.020657	0.008232	0.343945
O304	O	0.520657	0.508232	0.843945
H305	H	0.011865	-0.023967	0.356799
H306	H	0.511865	0.476033	0.856799
O307	O	0.040569	-0.373848	0.557502
O308	O	0.540569	0.126152	1.057502
H309	H	0.003795	-0.368289	0.563091
H310	H	0.503795	0.131711	1.063091
H311	H	0.019013	-0.411451	0.519888
H312	H	0.519013	0.088549	1.019888
H313	H	0.196371	-0.454985	0.476195
H314	H	0.696371	0.045015	0.976195
O315	O	0.174815	-0.492610	0.438606
O316	O	0.674815	0.007390	0.938606
H317	H	0.211590	-0.498164	0.433012
H318	H	0.711590	0.001836	0.933012
H319	H	0.332093	-0.491119	0.540748
H320	H	0.832093	0.008881	1.040748
H321	H	0.422274	-0.521162	0.510626
H322	H	0.922274	-0.021162	1.010626
H323	H	0.332037	-0.345175	0.485091
H324	H	0.832037	0.154825	0.985091
O325	O	0.428796	-0.366783	0.448728
O326	O	0.928796	0.133217	0.948728
H327	H	0.419227	-0.340200	0.416465
H328	H	0.919227	0.159800	0.916465
O329	O	0.167027	-0.215449	0.430876
O330	O	0.667027	0.284551	0.930876
H331	H	0.147267	-0.205914	0.408256
H332	H	0.647267	0.294086	0.908256
O333	O	0.132531	-0.112109	0.396468
O334	O	0.632531	0.387891	0.896468
H335	H	0.119150	-0.121655	0.380195
H336	H	0.619150	0.378345	0.880195
O337	O	0.048289	-0.112161	0.565231
O338	O	0.548289	0.387839	1.065231
H339	H	0.042758	-0.137808	0.601997
H340	H	0.542758	0.362192	1.101997
O341	O	0.020886	-0.364364	0.343836
O342	O	0.520886	0.135636	0.843836
H343	H	0.025036	-0.369206	0.312317
H344	H	0.525036	0.130794	0.812317
O345	O	0.082718	-0.215502	0.599639
O346	O	0.582718	0.284498	1.099639
H347	H	0.060045	-0.189872	0.619330
H348	H	0.560045	0.310128	1.119330
H349	H	-0.061683	-0.492436	0.165791
H350	H	0.438317	0.007564	0.665791
H351	H	0.011902	-0.639768	0.165877
H352	H	0.511902	-0.139768	0.665877
O353	O	-0.099428	-0.513904	0.262543
O354	O	0.400572	-0.013904	0.762543
H355	H	-0.104946	-0.477140	0.236890
H356	H	0.395054	0.022860	0.736890
H357	H	-0.091926	-0.522444	0.298262
H358	H	0.408074	-0.022444	0.798262
O359	O	-0.015121	-0.682695	0.262643
O360	O	0.484879	-0.182695	0.762643
H361	H	0.007558	-0.702396	0.237022
H362	H	0.507558	-0.202396	0.737022
H363	H	0.011557	-0.639751	0.402207
H364	H	0.511557	-0.139751	0.902207
O365	O	-0.064999	-0.479510	0.325176
O366	O	0.435001	0.020490	0.825176
H367	H	-0.087575	-0.459809	0.302428
H368	H	0.412425	0.040191	0.802428
H369	H	-0.018458	-0.669769	0.372051
H370	H	0.481542	-0.169769	0.872051
H371	H	0.047765	-0.765423	0.337508
H372	H	0.547765	-0.265423	0.837508
O373	O	0.026208	-0.668667	0.301180
O374	O	0.526208	-0.168667	0.801180
H375	H	0.062701	-0.694334	0.299122
H376	H	0.562701	-0.194334	0.799122
H377	H	-0.128170	-0.675084	0.362831
H378	H	0.371830	-0.175084	0.862831
O379	O	-0.106614	-0.771836	0.399160
O380	O	0.393386	-0.271836	0.899160
H381	H	-0.143109	-0.746170	0.401231
H382	H	0.356891	-0.246170	0.901231
H383	H	-0.224531	-0.602667	0.438605
H384	H	0.275469	-0.102667	0.938605
O385	O	-0.127778	-0.640390	0.417229
O386	O	0.372222	-0.140390	0.917229
H387	H	-0.137333	-0.620655	0.439880
H388	H	0.362667	-0.120655	0.939880
O389	O	-0.230858	-0.521498	0.282678
O390	O	0.269142	-0.021498	0.782678
H391	H	-0.205178	-0.515965	0.245930
H392	H	0.294822	-0.015965	0.745930
H393	H	-0.134111	-0.559208	0.261309
H394	H	0.365889	-0.059208	0.761309
