data_functionalizedCrystal
_audit_creation_method	'MofGen! by Chris Wilmer'
_symmetry_space_group_name_H-M	'P1'
_symmetry_Int_Tables_number	1
_symmetry_cell_setting	triclinic
loop_
_symmetry_equiv_pos_as_xyz
  x,y,z
_cell_length_a	17.699083
_cell_length_b	27.732048
_cell_length_c	16.776229
_cell_angle_alpha	89.988391
_cell_angle_beta	89.998886
_cell_angle_gamma	82.962835
loop_
_atom_site_label
_atom_site_type_symbol
_atom_site_fract_x
_atom_site_fract_y
_atom_site_fract_z
O1	O	1.003540	0.061127	-0.066185
O2	O	0.783091	0.069080	-0.066212
O3	O	0.900162	-0.005269	-0.066183
O4	O	0.886469	0.135475	-0.066215
O5	O	0.900147	-0.005273	0.066394
O6	O	0.783076	0.069075	0.066364
O7	O	1.003524	0.061122	0.066391
Zn8	Zn	0.893298	0.065098	0.087427
Zn9	Zn	0.893318	0.065104	-0.087248
O10	O	0.886453	0.135471	0.066362
C11	C	0.754889	0.068792	0.000073
C12	C	0.670878	0.067938	0.000063
C13	C	0.621873	0.111579	0.000053
C14	C	0.542936	0.110772	0.000064
C15	C	0.513007	0.066325	0.000078
C16	C	0.562019	0.022680	0.000090
C17	C	0.640954	0.023487	0.000085
C18	C	0.243685	0.019426	0.000111
C19	C	0.164744	0.018623	0.000113
C20	C	0.145667	0.106712	0.000089
C21	C	0.224602	0.107518	0.000084
C22	C	0.273607	0.063874	0.000100
C23	C	0.359199	0.064749	0.000090
C24	C	0.427418	0.065450	0.000082
C25	C	0.899867	-0.023279	0.000108
C26	C	0.899001	-0.076937	0.000114
C27	C	0.962734	-0.415523	0.000081
C28	C	0.959522	-0.617194	0.000070
O29	O	1.017801	-0.648240	0.000042
N30	N	0.890104	-0.636567	0.000062
C31	C	0.821484	-0.605520	0.000051
O32	O	0.762366	-0.626625	0.000036
C33	C	0.824696	-0.403849	0.000057
C34	C	0.894119	-0.384479	0.000073
C35	C	1.032151	-0.396152	0.000096
C36	C	1.032953	-0.345737	0.000103
C37	C	0.964338	-0.314693	0.000095
C38	C	0.894921	-0.334064	0.000080
C39	C	0.756076	-0.372802	0.000041
C40	C	0.756886	-0.322382	0.000041
C41	C	0.826308	-0.303012	0.000057
C42	C	0.827108	-0.252605	0.000080
N43	N	0.896526	-0.233232	0.000088
C44	C	0.965141	-0.264276	0.000095
C45	C	0.819802	-0.711400	0.000050
C46	C	0.818999	-0.761817	0.000050
C47	C	0.957038	-0.773488	0.000067
C48	C	0.957840	-0.723070	0.000072
C49	C	0.889220	-0.692026	0.000058
C50	C	0.966820	-0.158401	0.000111
C51	C	0.967616	-0.107981	0.000122
C52	C	0.829578	-0.096314	0.000101
C53	C	0.828781	-0.146730	0.000095
C54	C	0.897409	-0.177772	0.000097
O55	O	0.768860	-0.221531	0.000099
O56	O	1.024251	-0.243161	0.000093
C57	C	0.961931	-0.465938	0.000074
C58	C	0.892514	-0.485309	0.000059
C59	C	0.823899	-0.454265	0.000051
C60	C	0.891711	-0.535726	0.000059
C61	C	0.960326	-0.566770	0.000067
C62	C	1.029744	-0.547397	0.000074
C63	C	1.030546	-0.496982	0.000082
C64	C	0.754481	-0.473638	0.000043
C65	C	0.753685	-0.524053	0.000037
C66	C	0.822300	-0.555097	0.000045
C67	C	1.031726	0.061410	0.000105
C68	C	1.115737	0.062264	0.000109
C69	C	0.886748	0.153481	0.000069
C70	C	0.887614	0.207139	0.000058
N71	N	0.893289	0.065094	0.206638
N72	N	0.893332	0.065105	-0.206459
C73	C	0.945144	0.032186	0.248368
C74	C	0.945148	0.032185	0.331821
C75	C	0.893301	0.065095	0.373541
C76	C	0.841441	0.098005	0.331805
C77	C	0.841433	0.098003	0.248354
C78	C	0.841468	0.098015	0.668352
C79	C	0.841481	0.098015	0.751809
C80	C	0.945182	0.032197	0.751819
C81	C	0.945175	0.032195	0.668368
C82	C	0.893313	0.065102	0.626639
C83	C	0.893308	0.065102	0.536151
C84	C	0.893309	0.065099	0.464028
H85	H	0.105758	0.142249	0.000080
H86	H	0.799207	0.124799	0.214378
H87	H	0.987396	0.005398	0.634402
O88	O	1.098859	-0.426254	0.000000
C89	C	1.141044	-0.417482	-0.068663
H90	H	1.121993	-0.379216	-0.091563
H91	H	1.204207	-0.421088	-0.053206
H92	H	1.131046	-0.445047	-0.116743
O93	O	0.135797	-0.024598	0.000167
C94	C	0.195975	-0.062947	0.000163
H95	H	0.249448	-0.049463	0.025256
H96	H	0.179836	-0.093983	0.038666
H97	H	0.207303	-0.076407	-0.063436
O98	O	0.995391	0.000177	0.207775
C99	C	0.955179	-0.029619	0.159562
H100	H	0.895744	-0.010302	0.147040
H101	H	0.986853	-0.037325	0.100887
H102	H	0.950422	-0.065324	0.191771
H103	H	1.014370	-0.707302	0.000085
O104	O	1.096447	-0.577509	-0.000026
C105	C	1.138629	-0.568741	-0.068695
H106	H	1.119598	-0.530469	-0.091582
H107	H	1.201795	-0.572365	-0.053248
H108	H	1.128604	-0.596297	-0.116780
O109	O	0.686175	-0.542786	-0.000013
C110	C	0.625792	-0.504569	-0.000000
H111	H	0.646610	-0.470338	-0.025086
H112	H	0.577295	-0.515042	-0.038506
H113	H	0.604642	-0.497423	0.063600
O114	O	0.995485	0.000244	0.792479
C115	C	0.984388	0.007307	0.875081
H116	H	0.924005	0.025419	0.886481
H117	H	0.993246	-0.029307	0.906807
H118	H	1.026940	0.031518	0.898749
H119	H	1.022703	-0.183670	0.000110
O120	O	0.495366	0.153179	-0.000090
C121	C	0.508863	0.180175	-0.068755
H122	H	0.536138	0.154623	-0.116739
H123	H	0.452625	0.199626	-0.091804
H124	H	0.548738	0.208104	-0.053246
H125	H	0.799257	0.124816	0.785776
O126	O	1.100344	-0.326868	0.000002
C127	C	1.104958	-0.298058	-0.068672
H128	H	1.045157	-0.285427	-0.091565
H129	H	1.134745	-0.265082	-0.053230
H130	H	1.138701	-0.320368	-0.116751
H131	H	0.698605	-0.448366	0.000035
H132	H	0.799241	0.124810	0.634383
H133	H	0.763920	-0.686128	0.000038
O134	O	0.690157	-0.292296	0.000062
C135	C	0.628718	-0.320209	0.000026
H136	H	0.648379	-0.357863	0.025127
H137	H	0.580670	-0.301567	0.038507
H138	H	0.607424	-0.323769	-0.063583
O139	O	0.291355	-0.022937	0.000010
C140	C	0.337569	-0.025111	-0.068664
H141	H	0.341119	0.013252	-0.091562
H142	H	0.397112	-0.043192	-0.053222
H143	H	0.311849	-0.047152	-0.116740
H144	H	1.024151	-0.092213	0.000137
O145	O	0.253548	0.150737	0.000106
C146	C	0.193366	0.189084	0.000081
H147	H	0.139896	0.175596	0.025185
H148	H	0.209503	0.220120	0.038565
H149	H	0.182037	0.202545	-0.063525
O150	O	1.023672	-0.803668	-0.000073
C151	C	1.027319	-0.833178	-0.068729
H152	H	0.988396	-0.814661	-0.116717
H153	H	1.088351	-0.838913	-0.091781
H154	H	1.008161	-0.869820	-0.053208
O155	O	0.650977	0.154744	-0.000105
C156	C	0.696076	0.157844	-0.068761
H157	H	0.677702	0.132607	-0.116744
H158	H	0.688529	0.196810	-0.091819
H159	H	0.758464	0.146624	-0.053240
O160	O	0.532911	-0.020484	-0.000037
C161	C	0.487807	-0.023579	-0.068687
H162	H	0.506181	0.001660	-0.116685
H163	H	0.495349	-0.062543	-0.091725
H164	H	0.425421	-0.012357	-0.053165
H165	H	0.762468	-0.777584	0.000051
O166	O	0.688453	-0.018951	0.000055
C167	C	0.645113	-0.058355	0.000087
H168	H	0.586048	-0.046017	-0.025013
H169	H	0.674592	-0.088925	-0.038398
H170	H	0.639655	-0.071986	0.063694
O171	O	0.761395	-0.165608	-0.000020
C172	C	0.756802	-0.194398	-0.068701
H173	H	0.816609	-0.207013	-0.091586
H174	H	0.727026	-0.227385	-0.053273
H175	H	0.723057	-0.172077	-0.116781
O176	O	0.762998	-0.066085	0.000057
C177	C	0.778601	-0.017433	0.000083
H178	H	0.838033	-0.015566	-0.025002
H179	H	0.734841	0.005464	-0.038418
H180	H	0.775547	-0.002857	0.063686
O181	O	1.097965	-0.478146	0.000231
C182	C	1.102555	-0.449331	0.068885
H183	H	1.063140	-0.461214	0.116873
H184	H	1.163605	-0.453931	0.091937
H185	H	1.084632	-0.409550	0.053360
O186	O	0.995601	0.000205	0.372234
C187	C	1.041355	-0.028846	0.317515
H188	H	1.041961	-0.009030	0.258019
H189	H	1.101888	-0.036258	0.341619
H190	H	1.017218	-0.064740	0.308662
O191	O	0.791149	0.129956	0.372453
C192	C	0.802262	0.122896	0.455058
H193	H	0.862647	0.104782	0.466456
H194	H	0.793414	0.159510	0.486758
H195	H	0.759713	0.098687	0.478757
H196	H	0.699545	-0.388565	0.000024
