data_functionalizedCrystal
_audit_creation_method	'MofGen! by Chris Wilmer'
_symmetry_space_group_name_H-M	'P1'
_symmetry_Int_Tables_number	1
_symmetry_cell_setting	triclinic
loop_
_symmetry_equiv_pos_as_xyz
  x,y,z
_cell_length_a	14.519709
_cell_length_b	12.996460
_cell_length_c	10.723023
_cell_angle_alpha	90.004801
_cell_angle_beta	95.926154
_cell_angle_gamma	90.000558
loop_
_atom_site_label
_atom_site_type_symbol
_atom_site_fract_x
_atom_site_fract_y
_atom_site_fract_z
O1	O	-1.224704	0.085417	0.163577
O2	O	-0.724704	0.585417	0.663577
O3	O	-0.956325	0.085451	0.182840
O4	O	-0.456325	0.585451	0.682840
O5	O	-1.096706	0.085430	-0.008426
O6	O	-0.596706	0.585430	0.491574
O7	O	-1.084324	0.085438	0.354842
O8	O	-0.584324	0.585438	0.854842
O9	O	-1.096691	-0.085704	-0.008437
O10	O	-0.596691	0.414296	0.491563
O11	O	-0.956311	-0.085683	0.182829
O12	O	-0.456311	0.414317	0.682829
O13	O	-1.224689	-0.085717	0.163566
O14	O	-0.724689	0.414283	0.663566
Cu15	Cu	-1.090498	-0.101326	0.173197
Cu16	Cu	-0.590498	0.398674	0.673197
Cu17	Cu	-1.090516	0.101060	0.173209
Cu18	Cu	-0.590516	0.601060	0.673209
O19	O	-1.084309	-0.085696	0.354832
O20	O	-0.584309	0.414304	0.854832
C21	C	-0.921954	-0.000112	0.181937
C22	C	-0.421954	0.499888	0.681937
C23	C	-0.819559	-0.000099	0.179247
C24	C	-0.319559	0.499901	0.679247
N25	N	-1.090493	-0.243673	0.173187
N26	N	-0.590493	0.256327	0.673187
C27	C	-1.090515	-0.663487	0.173210
C28	C	-0.590515	-0.163487	0.673210
C29	C	-1.090506	-0.546682	0.173208
C30	C	-0.590506	-0.046682	0.673208
C31	C	-1.090504	-0.453584	0.173200
C32	C	-0.590504	0.046416	0.673200
C33	C	-1.090495	-0.336771	0.173195
C34	C	-0.590495	0.163229	0.673195
C35	C	-0.444612	-0.000142	0.169343
C36	C	0.055388	0.499858	0.669343
C37	C	-0.548934	-0.000129	0.172093
C38	C	-0.048934	0.499871	0.672093
C39	C	-0.632082	-0.000119	0.174294
C40	C	-0.132082	0.499881	0.674294
C41	C	-0.736411	-0.000109	0.177045
C42	C	-0.236411	0.499891	0.677045
C43	C	-0.259061	-0.000149	0.164469
C44	C	0.240939	0.499851	0.664469
C45	C	-0.361456	-0.000148	0.167159
C46	C	0.138544	0.499852	0.667159
C47	C	-1.095797	-0.000136	-0.054922
C48	C	-0.595797	0.499864	0.445078
C49	C	-1.093102	-0.000131	-0.193452
C50	C	-0.593102	0.499869	0.306548
N51	N	-1.090529	0.243407	0.173209
N52	N	-0.590529	0.743407	0.673209
C53	C	-1.089122	0.088525	-0.398370
C54	C	-0.589122	0.588525	0.101630
C55	C	-1.091908	0.088523	-0.255193
C56	C	-0.591908	0.588523	0.244807
C57	C	-1.085217	-0.000128	0.401328
C58	C	-0.585217	0.499872	0.901328
C59	C	-1.087913	-0.000125	0.539857
C60	C	-0.587913	0.499875	1.039857
H61	H	-1.088100	0.164424	-0.451484
H62	H	-0.588100	0.664424	0.048516
C63	C	-1.093317	0.191057	-0.183440
C64	C	-0.593317	0.691057	0.316560
H65	H	-1.095013	0.177604	-0.096624
H66	H	-0.595013	0.677604	0.403376
H67	H	-1.039224	0.229423	-0.195312
H68	H	-0.539224	0.729423	0.304688
H69	H	-1.146602	0.229397	-0.214105
H70	H	-0.646602	0.729397	0.285895
C71	C	-1.091694	-0.102672	-0.265191
C72	C	-0.591694	0.397328	0.234809
H73	H	-1.092798	-0.158292	-0.207880
H74	H	-0.592798	0.341708	0.292120
H75	H	-1.144389	-0.106505	-0.325373
H76	H	-0.644389	0.393495	0.174627
H77	H	-1.037011	-0.106486	-0.306571
H78	H	-0.537011	0.393514	0.193429
H79	H	-1.088944	-0.076024	-0.407031
H80	H	-0.588944	0.423976	0.092969
