data_functionalizedCrystal
_audit_creation_method	'MofGen! by Chris Wilmer'
_symmetry_space_group_name_H-M	'P1'
_symmetry_Int_Tables_number	1
_symmetry_cell_setting	triclinic
loop_
_symmetry_equiv_pos_as_xyz
  x,y,z
_cell_length_a	10.489741
_cell_length_b	10.489716
_cell_length_c	9.565339
_cell_angle_alpha	89.996780
_cell_angle_beta	90.000516
_cell_angle_gamma	84.534155
loop_
_atom_site_label
_atom_site_type_symbol
_atom_site_fract_x
_atom_site_fract_y
_atom_site_fract_z
O1	O	0.179810	1.694071	-0.116248
O2	O	0.196735	1.322871	-0.116253
O3	O	0.002674	1.516918	-0.116242
O4	O	0.373871	1.500025	-0.116259
O5	O	0.002686	1.516902	0.116278
O6	O	0.196747	1.322856	0.116267
O7	O	0.179822	1.694056	0.116272
Zn8	Zn	0.188286	1.508453	0.153187
Zn9	Zn	0.188271	1.508474	-0.153168
O10	O	0.373883	1.500009	0.116261
C11	C	0.195470	1.275332	0.000006
C12	C	0.191665	1.133701	0.000005
C13	C	0.310669	1.036027	-0.000004
C14	C	0.247791	0.958673	0.114650
C15	C	0.247751	0.958695	-0.114597
C16	C	0.128836	1.058213	0.114753
C17	C	0.128814	1.058240	-0.114597
C18	C	0.065848	0.980935	0.000085
C19	C	-0.044852	1.515634	0.000017
C20	C	-0.186481	1.511817	0.000015
C21	C	-0.254610	1.388351	0.000003
C22	C	-0.346732	1.446668	0.114648
C23	C	-0.346718	1.446712	-0.114599
C24	C	-0.276737	1.570184	0.114754
C25	C	-0.276714	1.570212	-0.114595
C26	C	-0.368808	1.628618	0.000078
C27	C	0.421409	1.501293	-0.000001
C28	C	0.563038	1.505110	-0.000008
C29	C	0.181087	1.741596	0.000010
C30	C	0.184892	1.883227	0.000002
N31	N	0.188297	1.508449	0.362267
N32	N	0.188250	1.508488	-0.362247
C33	C	0.278013	1.418681	0.453465
C34	C	0.303814	1.534180	0.546644
C35	C	0.162506	1.393001	0.546643
C36	C	0.214155	1.624006	0.453394
C37	C	0.072797	1.482750	0.453385
C38	C	0.098549	1.598332	0.546522
H39	H	-0.037744	0.956505	0.000156
H40	H	-0.245679	1.622415	-0.211523
C41	C	-0.003983	1.701006	0.601380
H42	H	-0.064660	1.661292	0.656045
H43	H	0.035653	1.760822	0.657297
H44	H	-0.046213	1.744234	0.524631
H45	H	0.078633	1.101522	0.211779
H46	H	0.078610	1.101742	-0.211526
H47	H	0.353954	1.342838	0.412605
H48	H	0.298033	0.915184	0.211574
C49	C	0.450501	1.069368	0.000123
H50	H	0.465902	1.117340	-0.081381
H51	H	0.465356	1.118648	0.080797
H52	H	0.506515	0.992672	0.001008
C53	C	0.315629	0.899979	-0.245535
H54	H	0.402541	0.918484	-0.245390
H55	H	0.312019	0.809837	-0.245053
H56	H	0.274216	0.935420	-0.326944
H57	H	-0.204950	1.286838	0.000117
C58	C	0.243768	1.755947	0.398305
H59	H	0.243651	1.755113	0.298989
H60	H	0.180406	1.819761	0.430908
H61	H	0.325542	1.774351	0.431014
H62	H	-0.024827	1.460952	0.412389
C63	C	0.133050	1.261093	0.601978
H64	H	0.057102	1.270535	0.656610
H65	H	0.121521	1.205647	0.525437
H66	H	0.202363	1.225728	0.658049
C67	C	-0.388622	1.376091	0.245577
H68	H	-0.349152	1.290730	0.245440
H69	H	-0.363503	1.419128	0.326990
H70	H	-0.479059	1.374849	0.245057
H71	H	-0.245905	1.622374	0.211787
H72	H	-0.418241	1.730222	0.000143
H73	H	-0.377683	1.394461	-0.211532
H74	H	0.401469	1.555942	0.587607
