data_functionalizedCrystal
_audit_creation_method	'MofGen! by Chris Wilmer'
_symmetry_space_group_name_H-M	'P1'
_symmetry_Int_Tables_number	1
_symmetry_cell_setting	triclinic
loop_
_symmetry_equiv_pos_as_xyz
  x,y,z
_cell_length_a	6.817900
_cell_length_b	15.866870
_cell_length_c	27.923559
_cell_angle_alpha	114.070687
_cell_angle_beta	98.965071
_cell_angle_gamma	102.655915
loop_
_atom_site_label
_atom_site_type_symbol
_atom_site_fract_x
_atom_site_fract_y
_atom_site_fract_z
V1	V	-3.994595	-0.134215	-0.175271
O2	O	-3.964555	0.005044	-0.147487
O3	O	-3.963804	-0.264775	-0.197585
O4	O	-3.924195	-0.132767	-0.240985
O5	O	-4.004438	-0.127877	-0.103786
V6	V	-4.478792	-0.117485	-0.163864
O7	O	-4.254375	-0.170914	-0.200292
O8	O	-4.669210	-0.080787	-0.138843
O9	O	-4.286377	0.013074	-0.141550
O10	O	-4.626230	-0.256745	-0.191649
O11	O	-4.586347	-0.123824	-0.235349
O12	O	-4.325987	-0.118933	-0.098150
C13	C	-3.813801	-0.296583	-0.200887
C14	C	-3.869766	-0.403321	-0.219570
C15	C	-3.916685	-0.683843	-0.046273
C16	C	-3.969276	-0.784144	-0.063844
C17	C	-4.024132	-0.812343	-0.157743
C18	C	-3.971534	-0.712042	-0.140179
C19	C	-3.917816	-0.647799	-0.084444
C20	C	-3.972665	-0.675998	-0.178350
C21	C	-3.920082	-0.575706	-0.160788
C22	C	-3.866368	-0.511458	-0.105055
C23	C	-3.865233	-0.547507	-0.066881
C24	C	-4.026398	-0.740243	-0.234086
C25	C	-4.027529	-0.704200	-0.272257
C26	C	-3.974931	-0.603905	-0.254694
C27	C	-3.921217	-0.539657	-0.198961
C28	C	-3.976067	-0.567856	-0.292868
C29	C	-3.923484	-0.467564	-0.275305
C30	C	-3.868635	-0.439364	-0.181399
C31	C	-3.763274	-0.128193	-0.256248
C32	C	-3.787114	-0.127873	-0.310124
C33	C	-3.984813	-0.213999	-0.666912
C34	C	-4.074529	-0.212854	-0.869416
O35	O	-4.128401	-0.287542	-0.914878
N36	N	-4.036133	-0.124715	-0.872070
C37	C	-3.975318	-0.036856	-0.824093
O38	O	-3.944739	0.038137	-0.830997
C39	C	-3.885617	-0.038003	-0.621591
C40	C	-3.923996	-0.126147	-0.618940
C41	C	-4.023190	-0.302136	-0.664260
C42	C	-4.000751	-0.302421	-0.613637
C43	C	-3.939935	-0.214569	-0.565665
C44	C	-3.901557	-0.126432	-0.568317
C45	C	-3.824816	0.049854	-0.573615
C46	C	-3.802399	0.049559	-0.522989
C47	C	-3.840779	-0.038585	-0.520339
C48	C	-3.818302	-0.038865	-0.469722
N49	N	-3.856697	-0.127004	-0.467068
C50	C	-3.917513	-0.214856	-0.515040
C51	C	-4.022411	-0.036261	-0.930411
C52	C	-4.044832	-0.035974	-0.981036
C53	C	-4.144046	-0.211971	-1.026356
C54	C	-4.121609	-0.212257	-0.975729
C55	C	-4.060806	-0.124399	-0.927757
C56	C	-3.870384	-0.215448	-0.408725
C57	C	-3.847930	-0.215725	-0.358095
C58	C	-3.748730	-0.039728	-0.312781
C59	C	-3.771171	-0.039450	-0.363406
C60	C	-3.832008	-0.127318	-0.411379
O61	O	-3.764460	0.035783	-0.424239
O62	O	-3.948126	-0.289839	-0.508125
C63	C	-4.007252	-0.213714	-0.717535
C64	C	-3.968874	-0.125577	-0.720187
C65	C	-3.908058	-0.037725	-0.672216
C66	C	-3.991296	-0.125290	-0.770812
C67	C	-4.052112	-0.213142	-0.818784
C68	C	-4.090507	-0.301280	-0.816130
C69	C	-4.068068	-0.301565	-0.765507
C70	C	-3.869663	0.050414	-0.674870
C71	C	-3.892104	0.050692	-0.725495
C72	C	-3.952920	-0.037160	-0.773466
C73	C	-4.099724	0.044877	-0.138248
C74	C	-4.022996	0.151614	-0.119568
C75	C	-4.150251	-0.123510	-0.082886
C76	C	-4.105649	-0.123825	-0.029008
H77	H	-4.071281	-0.756519	-0.317637
H78	H	-4.019830	-0.620177	-0.338248
H79	H	-3.823562	-0.429794	-0.090757
H80	H	-3.699204	0.031798	-0.273714
H81	H	-3.924436	-0.438218	-0.306389
Br82	Br	-4.097779	-0.876357	-0.257921
Br83	Br	-3.795685	-0.352167	-0.105756
Br84	Br	-3.952948	-0.334698	-0.473824
Br85	Br	-4.226541	-0.331197	-1.091469
H86	H	-3.879181	-0.287505	-0.355943
H87	H	-4.099324	-0.373341	-0.763356
H88	H	-3.821458	-0.495195	-0.021495
Br89	Br	-4.052876	-0.422052	-0.610050
H90	H	-4.067883	-0.864663	-0.203123
Br91	Br	-4.105737	-0.421380	-0.729359
H92	H	-3.820145	0.121955	-0.635813
Br93	Br	-4.173699	-0.331884	-0.972139
Br94	Br	-3.992689	0.083657	-0.984625
H95	H	-3.972898	0.035288	-0.891353
H96	H	-3.968345	-0.813485	-0.032756
Br97	Br	-3.772712	0.169486	-0.577197
H98	H	-3.752892	0.121105	-0.483929
Br99	Br	-3.719054	0.080175	-0.367003
Br100	Br	-4.173045	-0.420507	-0.881244
Br101	Br	-3.843735	-0.596646	0.029370
Br102	Br	-3.839987	0.170328	-0.729082
