data_functionalizedCrystal
_audit_creation_method	'MofGen! by Chris Wilmer'
_symmetry_space_group_name_H-M	'P1'
_symmetry_Int_Tables_number	1
_symmetry_cell_setting	triclinic
loop_
_symmetry_equiv_pos_as_xyz
  x,y,z
_cell_length_a	10.654550
_cell_length_b	15.995350
_cell_length_c	9.130313
_cell_angle_alpha	90.000982
_cell_angle_beta	89.996220
_cell_angle_gamma	83.988639
loop_
_atom_site_label
_atom_site_type_symbol
_atom_site_fract_x
_atom_site_fract_y
_atom_site_fract_z
O1	O	1.666298	0.117599	-0.121912
O2	O	1.300673	0.128803	-0.121888
O3	O	1.493480	0.001371	-0.121899
O4	O	1.473491	0.245030	-0.121900
O5	O	1.493478	0.001375	0.121700
O6	O	1.300671	0.128807	0.121711
O7	O	1.666295	0.117602	0.121687
Cu8	Cu	1.483483	0.123205	0.143942
Cu9	Cu	1.483486	0.123201	-0.144142
O10	O	1.473488	0.245034	0.121698
C11	C	1.253885	0.127982	-0.000085
C12	C	1.114473	0.125521	-0.000076
C13	C	1.034008	0.200551	-0.000098
C14	C	0.903017	0.198233	-0.000123
C15	C	0.932971	0.045849	-0.000111
C16	C	1.063959	0.048168	-0.000075
C17	C	1.084522	0.277904	-0.000099
C18	C	1.004055	0.352940	-0.000122
C19	C	0.873064	0.350622	-0.000147
C20	C	0.822541	0.273268	-0.000149
C21	C	1.492652	-0.029827	-0.000102
C22	C	1.490175	-0.122791	-0.000110
C23	C	1.481278	-0.460591	-0.000105
C24	C	1.343964	-0.413954	-0.000642
C25	C	1.346442	-0.317249	-0.000093
C26	C	1.485691	-0.293004	-0.000108
C27	C	1.553417	-0.333687	0.138991
C28	C	1.549968	-0.430342	0.139108
C29	C	1.552807	-0.430688	-0.137910
C30	C	1.552775	-0.333743	-0.139748
C31	C	1.488192	-0.198292	-0.000106
C32	C	1.478780	-0.555303	-0.000098
C33	C	1.713084	0.118423	-0.000119
C34	C	1.852495	0.120884	-0.000137
C35	C	1.474316	0.276232	-0.000101
C36	C	1.476793	0.369197	-0.000103
N37	N	1.483490	0.123207	0.346564
N38	N	1.483488	0.123192	-0.346765
C39	C	1.568887	0.066800	0.423211
C40	C	1.568883	0.066789	0.576548
C41	C	1.398083	0.179602	0.576578
C42	C	1.398081	0.179607	0.423244
C43	C	1.654296	0.010399	0.346532
C44	C	1.739700	-0.046012	0.423179
C45	C	1.739697	-0.046022	0.576516
C46	C	1.654289	0.010379	0.653206
H47	H	1.045200	0.415918	-0.000108
C48	C	1.483236	-0.455458	0.279580
C49	C	1.466285	-0.548430	0.308763
C50	C	1.399549	-0.573541	0.449236
C51	C	1.349764	-0.505680	0.560527
C52	C	1.366714	-0.412702	0.531348
C53	C	1.433450	-0.387591	0.390874
H54	H	1.503140	-0.598670	0.226376
H55	H	1.387002	-0.642369	0.470836
H56	H	1.300362	-0.524268	0.664514
H57	H	1.329859	-0.362461	0.613735
H58	H	1.445997	-0.318763	0.369274
H59	H	1.191179	0.279800	-0.000085
C60	C	1.833641	-0.108054	0.338829
C61	C	1.833663	-0.108041	0.170168
C62	C	1.927606	-0.170085	0.085822
C63	C	2.021527	-0.232142	0.170138
C64	C	2.021509	-0.232157	0.338809
C65	C	1.927566	-0.170113	0.423155
H66	H	1.764134	-0.062101	0.107744
H67	H	1.927619	-0.170073	-0.039039
H68	H	2.091069	-0.278070	0.107701
H69	H	2.091038	-0.278097	0.401234
H70	H	1.927553	-0.170124	0.548016
C71	C	1.152484	-0.034363	-0.000055
C72	C	1.146802	-0.097536	0.126438
C73	C	1.235330	-0.180068	0.126467
C74	C	1.329540	-0.199427	0.000003
C75	C	1.335226	-0.136253	-0.126499
C76	C	1.246698	-0.053721	-0.126528
H77	H	1.077059	-0.083206	0.220062
H78	H	1.231120	-0.226833	0.220113
H79	H	1.395073	-0.260522	0.000025
H80	H	1.404969	-0.150583	-0.220123
H81	H	1.250908	-0.006956	-0.220174
H82	H	1.654308	0.010404	0.221678
H83	H	0.715878	0.271387	-0.000147
C84	C	1.274500	-0.279269	-0.134782
C85	C	1.318824	-0.305955	-0.290002
C86	C	1.246866	-0.267981	-0.424689
C87	C	1.130583	-0.203320	-0.404155
C88	C	1.086253	-0.176631	-0.248928
C89	C	1.158211	-0.214605	-0.114241
H90	H	1.404908	-0.353823	-0.305208
H91	H	1.279682	-0.287738	-0.539598
H92	H	1.077315	-0.175210	-0.503858
H93	H	1.000169	-0.128762	-0.233721
H94	H	1.125395	-0.194847	0.000668
C95	C	1.269825	-0.439417	-0.135408
C96	C	1.247637	-0.532074	-0.158785
C97	C	1.173505	-0.557541	-0.293564
C98	C	1.121561	-0.490352	-0.404964
C99	C	1.143747	-0.397689	-0.381590
C100	C	1.217879	-0.372222	-0.246811
H101	H	1.286090	-0.581817	-0.076317
H102	H	1.157081	-0.626137	-0.310866
H103	H	1.066683	-0.509205	-0.504735
H104	H	1.105294	-0.347946	-0.464058
H105	H	1.234303	-0.303626	-0.229509
H106	H	0.807551	0.411720	-0.000152
H107	H	1.289324	-0.433864	0.098560
H108	H	0.891824	-0.017129	-0.000137
C109	C	1.689961	-0.312199	-0.151109
C110	C	1.799583	-0.383053	-0.151572
C111	C	1.936776	-0.361510	-0.162916
C112	C	1.964347	-0.269112	-0.173797
C113	C	1.854722	-0.198251	-0.173335
C114	C	1.717529	-0.219795	-0.161991
H115	H	1.779176	-0.451457	-0.143517
H116	H	2.017927	-0.413966	-0.163258
H117	H	2.065905	-0.253165	-0.182194
H118	H	1.875129	-0.129848	-0.181390
H119	H	1.636378	-0.167338	-0.161649
H120	H	1.809228	-0.091960	0.638920
H121	H	1.654048	-0.461861	-0.138855
H122	H	1.328548	0.225522	0.639028
H123	H	1.292844	-0.289694	0.099796
H124	H	1.654285	0.010361	0.778063
H125	H	1.503258	-0.306783	-0.242650
H126	H	1.650782	-0.462005	0.145409
H127	H	1.655720	-0.318967	0.144153
H128	H	1.506376	-0.305577	0.242515
H129	H	1.328542	0.225538	0.360837
H130	H	1.507914	-0.451490	-0.243339
