data_functionalizedCrystal
_audit_creation_method	'MofGen! by Chris Wilmer'
_symmetry_space_group_name_H-M	'P1'
_symmetry_Int_Tables_number	1
_symmetry_cell_setting	triclinic
loop_
_symmetry_equiv_pos_as_xyz
  x,y,z
_cell_length_a	8.559649
_cell_length_b	10.540539
_cell_length_c	7.681481
_cell_angle_alpha	84.202085
_cell_angle_beta	94.913240
_cell_angle_gamma	77.152078
loop_
_atom_site_label
_atom_site_type_symbol
_atom_site_fract_x
_atom_site_fract_y
_atom_site_fract_z
O1	O	2.104686	-0.029542	-0.146402
O2	O	1.640228	0.035941	-0.146408
O3	O	1.883054	-0.182616	-0.146403
O4	O	1.861861	0.189016	-0.146407
O5	O	1.912941	-0.209571	0.146456
O6	O	1.670116	0.008986	0.146450
O7	O	2.134573	-0.056497	0.146457
Zn8	Zn	1.907089	-0.028035	0.192951
Zn9	Zn	1.867712	0.007479	-0.192902
O10	O	1.891748	0.162061	0.146451
C11	C	1.595699	0.027426	0.000020
C12	C	1.418487	0.042198	0.000017
C13	C	1.896408	-0.243230	0.000023
C14	C	1.891652	-0.383679	0.000014
C15	C	1.709382	-0.547970	-0.000646
C16	C	1.714270	-0.401917	0.000013
C17	C	1.994083	-0.469667	0.167252
C18	C	1.988043	-0.615591	0.167393
C19	C	1.957664	-0.585834	-0.165642
C20	C	1.959072	-0.438819	-0.167853
C21	C	2.179102	-0.047981	0.000025
C22	C	2.356313	-0.062752	0.000016
C23	C	1.878393	0.222675	0.000021
C24	C	1.883148	0.363125	0.000019
N25	N	1.933975	-0.052274	0.456286
N26	N	1.840839	0.031708	-0.456237
H27	H	1.438655	-0.163903	0.000009
H28	H	2.029067	-0.137994	0.531494
N29	N	1.864493	-0.604216	-0.333547
H30	H	1.748768	-0.553716	-0.339075
H31	H	1.914461	-0.570834	-0.438068
H32	H	1.634867	-0.341248	-0.119869
N33	N	1.309448	0.176210	0.000022
H34	H	1.228495	0.197142	-0.108540
H35	H	1.250771	0.177055	0.108658
N36	N	1.600337	-0.561510	-0.159495
H37	H	1.662509	-0.625408	-0.232572
H38	H	1.505854	-0.594909	-0.119441
N39	N	1.633052	-0.592830	0.157316
H40	H	1.710542	-0.670492	0.229306
H41	H	1.606739	-0.518901	0.231858
H42	H	1.658885	-0.364132	0.120094
N43	N	1.921378	-0.659450	0.332978
H44	H	1.896181	-0.583996	0.405191
H45	H	1.819613	-0.689234	0.300429
N46	N	1.714887	0.145258	0.444179
H47	H	1.768863	0.202381	0.367673
H48	H	1.635860	0.110635	0.367804
N49	N	2.129017	-0.423455	-0.181241
H50	H	2.130311	-0.327484	-0.188701
H51	H	2.201438	-0.472953	-0.073721
N52	N	2.158041	-0.697760	0.177457
H53	H	2.236568	-0.639117	0.181791
H54	H	2.181378	-0.763435	0.287072
N55	N	2.167490	-0.458932	0.175472
H56	H	2.181349	-0.398073	0.070621
H57	H	2.197238	-0.423052	0.287542
H58	H	1.883986	-0.380035	-0.291571
N59	N	1.932350	-0.420211	0.332107
H60	H	1.999026	-0.476175	0.439004
H61	H	1.940704	-0.326258	0.333851
N62	N	2.127231	-0.665999	-0.167135
H63	H	2.134508	-0.709885	-0.278082
H64	H	2.204972	-0.606685	-0.163161
