data_functionalizedCrystal
_audit_creation_method	'MofGen! by Chris Wilmer'
_symmetry_space_group_name_H-M	'P1'
_symmetry_Int_Tables_number	1
_symmetry_cell_setting	triclinic
loop_
_symmetry_equiv_pos_as_xyz
  x,y,z
_cell_length_a	14.421503
_cell_length_b	17.699083
_cell_length_c	17.699083
_cell_angle_alpha	83.283015
_cell_angle_beta	90.003394
_cell_angle_gamma	89.998416
loop_
_atom_site_label
_atom_site_type_symbol
_atom_site_fract_x
_atom_site_fract_y
_atom_site_fract_z
O1	O	0.076983	-1.004080	-0.095701
O2	O	0.077014	-0.783702	-0.108153
O3	O	0.076990	-0.900117	0.008262
O4	O	0.077008	-0.887665	-0.212116
O5	O	-0.077234	-0.900098	0.008245
O6	O	-0.077209	-0.783683	-0.108171
O7	O	-0.077240	-1.004061	-0.095718
Cu8	Cu	-0.091306	-0.893870	-0.101946
Cu9	Cu	0.091081	-0.893893	-0.101925
O10	O	-0.077216	-0.887646	-0.212134
C11	C	-0.000094	-0.755495	-0.107716
C12	C	-0.000082	-0.671477	-0.106377
N13	N	-0.219588	-0.893860	-0.101960
C14	C	-0.000122	-0.899662	0.036451
C15	C	-0.000122	-0.898323	0.120469
C16	C	-0.469230	-0.840020	-0.155766
C17	C	-0.531041	-0.908383	-0.170331
C18	C	-0.408749	-0.893878	-0.101942
C19	C	-0.531032	-0.825533	-0.087395
C20	C	-0.591471	-0.893890	-0.101926
C21	C	-0.469199	-0.962276	-0.116540
C22	C	-0.469185	-0.879380	-0.033575
C23	C	-0.530968	-0.947793	-0.048110
C24	C	-0.303488	-0.893870	-0.101953
C25	C	-0.696729	-0.893905	-0.101914
N26	N	0.219362	-0.893910	-0.101905
C27	C	-0.000130	-1.032268	-0.096156
C28	C	-0.000135	-1.116286	-0.097494
C29	C	-0.000077	-0.622856	-0.174711
C30	C	-0.000089	-0.543913	-0.173448
C31	C	-0.000100	-0.513592	-0.103852
C32	C	-0.000108	-0.562219	-0.035513
C33	C	-0.000103	-0.641161	-0.036776
C34	C	-0.000131	-0.243856	-0.030418
C35	C	-0.000134	-0.164908	-0.029160
C36	C	-0.000118	-0.146608	-0.167090
C37	C	-0.000112	-0.225550	-0.168353
C38	C	-0.000125	-0.274170	-0.100015
C39	C	-0.000114	-0.359769	-0.101384
C40	C	-0.000105	-0.427995	-0.102481
C41	C	-0.000102	-0.888102	-0.240322
C42	C	-0.000095	-0.889440	-0.324340
C43	C	-0.000133	-0.966656	0.169090
C44	C	-0.000125	-0.965394	0.248033
C45	C	-0.000112	-0.895798	0.278354
C46	C	-0.000098	-0.827459	0.229727
C47	C	-0.000100	-0.828722	0.150785
C48	C	-0.000090	-0.822364	0.548090
C49	C	-0.000091	-0.821106	0.627038
C50	C	-0.000115	-0.959036	0.645338
C51	C	-0.000116	-0.960299	0.566396
C52	C	-0.000098	-0.891961	0.517776
C53	C	-0.000105	-0.893330	0.432177
C54	C	-0.000111	-0.894427	0.363951
H55	H	-0.558211	-0.920656	-0.228140
O56	O	-0.566661	-1.008196	0.012191
H57	H	-0.540781	-0.996599	0.068762
H58	H	-0.000068	-0.647537	-0.231384
H59	H	-0.000130	-0.537526	0.021154
H60	H	-0.000091	-0.773078	0.111198
O61	O	-0.433308	-0.779750	-0.216100
H62	H	-0.458082	-0.791978	-0.272790
H63	H	-0.000144	-0.140225	0.027517
O64	O	-0.000093	-0.748656	0.495660
H65	H	0.062762	-0.715343	0.506434
O66	O	-0.433386	-1.038862	-0.132925
H67	H	-0.356426	-1.038245	-0.132834
O68	O	-0.433154	-0.863100	0.042974
H69	H	-0.457872	-0.806302	0.054913
O70	O	-0.000070	-0.746038	0.659745
H71	H	-0.000049	-0.698730	0.612675
H72	H	-0.000084	-0.504328	-0.229092
O73	O	-0.567012	-0.748969	-0.071096
H74	H	-0.542276	-0.704363	-0.115859
O75	O	-0.000114	-0.258256	-0.243417
H76	H	-0.000126	-0.211183	-0.290723
O77	O	-0.000124	-0.094169	-0.240803
H78	H	-0.000144	-0.034181	-0.228237
H79	H	-0.000143	-0.283434	0.025228
H80	H	-0.000149	-1.023330	0.144409
H81	H	-0.000106	-0.680748	0.018868
H82	H	-0.000135	-1.021038	0.287617
H83	H	-0.000131	-1.016971	0.541714
O84	O	-0.000131	-1.032748	0.697778
H85	H	0.062731	-1.035492	0.734181
O86	O	-0.000095	-0.752391	0.262423
H87	H	-0.000109	-0.762991	0.325485
