data_functionalizedCrystal
_audit_creation_method	'MofGen! by Chris Wilmer'
_symmetry_space_group_name_H-M	'P1'
_symmetry_Int_Tables_number	1
_symmetry_cell_setting	triclinic
loop_
_symmetry_equiv_pos_as_xyz
  x,y,z
_cell_length_a	29.917948
_cell_length_b	29.917021
_cell_length_c	29.913391
_cell_angle_alpha	60.005297
_cell_angle_beta	60.010472
_cell_angle_gamma	59.993667
loop_
_atom_site_label
_atom_site_type_symbol
_atom_site_fract_x
_atom_site_fract_y
_atom_site_fract_z
O1	O	0.061938	-0.653075	0.546110
O2	O	0.561938	-0.153075	1.046110
O3	O	0.023328	-0.508466	0.440017
O4	O	0.523328	-0.008466	0.940017
O5	O	0.114898	-0.599963	0.439941
O6	O	0.614898	-0.099963	0.939941
O7	O	-0.029633	-0.561578	0.546186
O8	O	0.470367	-0.061578	1.046186
O9	O	0.145278	-0.569587	0.470242
O10	O	0.645278	-0.069587	0.970242
O11	O	0.053708	-0.478090	0.470318
O12	O	0.553708	0.021910	0.970318
O13	O	0.092318	-0.622699	0.576411
O14	O	0.592318	-0.122699	1.076411
Zn15	Zn	0.077836	-0.545572	0.528175
Zn16	Zn	0.577836	-0.045572	1.028175
Zn17	Zn	0.037809	-0.585593	0.488253
Zn18	Zn	0.537809	-0.085593	0.988253
O19	O	0.000747	-0.531202	0.576487
O20	O	0.500747	-0.031202	1.076487
N21	N	0.105154	-0.518262	0.555424
N22	N	0.605154	-0.018262	1.055424
N23	N	0.010496	-0.612908	0.461004
N24	N	0.510496	-0.112908	0.961004
C25	C	0.164136	-0.309209	0.614352
C26	C	0.664136	0.190791	1.114352
C27	C	0.164251	-0.459335	0.764424
C28	C	0.664251	0.040665	1.264424
C29	C	0.164150	-0.459313	0.614341
C30	C	0.664150	0.040687	1.114341
C31	C	0.314282	-0.459305	0.614278
C32	C	0.814282	0.040695	1.114278
C33	C	0.180666	-0.358742	0.630849
C34	C	0.680666	0.141258	1.130849
C35	C	0.180732	-0.442815	0.714891
C36	C	0.680732	0.057185	1.214891
C37	C	0.264747	-0.442797	0.630809
C38	C	0.764747	0.057203	1.130809
C39	C	0.180676	-0.442802	0.630843
C40	C	0.680676	0.057198	1.130843
C41	C	0.143097	-0.246161	0.593354
C42	C	0.643097	0.253839	1.093354
C43	C	0.143120	-0.480326	0.593337
C44	C	0.643120	0.019674	1.093337
C45	C	0.201706	-0.421790	0.651848
C46	C	0.701706	0.078210	1.151848
C47	C	0.405963	-0.443499	0.565998
C48	C	0.905963	0.056501	1.065998
C49	C	0.463273	-0.462598	0.546874
C50	C	0.963273	0.037402	1.046874
C51	C	0.463297	-0.555329	0.582235
C52	C	0.963297	-0.055329	1.082235
C53	C	0.405988	-0.536228	0.601360
C54	C	0.905988	-0.036228	1.101360
C55	C	0.156905	-0.217495	0.537012
C56	C	0.656905	0.282505	1.037012
C57	C	0.137776	-0.160180	0.517926
C58	C	0.637776	0.339820	1.017926
C59	C	0.091035	-0.160201	0.611524
C60	C	0.591035	0.339799	1.111524
C61	C	0.110164	-0.217516	0.630611
C62	C	0.610164	0.282484	1.130611
C63	C	0.086772	-0.466488	0.607209
C64	C	0.586772	0.033512	1.107209
C65	C	0.067659	-0.485590	0.588108
C66	C	0.567659	0.014410	1.088108
C67	C	0.161236	-0.532368	0.541277
C68	C	0.661236	-0.032368	1.041277
C69	C	0.180352	-0.513266	0.560371
C70	C	0.680352	-0.013266	1.060371
C71	C	0.086942	-0.466529	0.856152
C72	C	0.586942	0.033471	1.356152
C73	C	0.067877	-0.485647	0.913465
C74	C	0.567877	0.014353	1.413465
C75	C	0.161489	-0.532436	0.913415
C76	C	0.661489	-0.032436	1.413415
C77	C	0.180552	-0.513318	0.856101
C78	C	0.680552	-0.013318	1.356101
C79	C	0.143277	-0.480363	0.827471
C80	C	0.643277	0.019637	1.327471
C81	C	0.377323	-0.480313	0.593239
C82	C	0.877323	0.019687	1.093239
C83	C	-0.111377	-0.650681	0.422736
C84	C	0.388623	-0.150681	0.922736
C85	C	-0.027364	-0.650787	0.422929
C86	C	0.472636	-0.150787	0.922929
C87	C	-0.048335	-0.671770	0.401835
C88	C	0.451665	-0.171770	0.901835
C89	C	-0.064214	-0.763416	0.450041
C90	C	0.435786	-0.263416	0.950041
C91	C	-0.045160	-0.820731	0.469172
C92	C	0.454840	-0.320731	0.969172
C93	C	0.047573	-0.820841	0.433980
C94	C	0.547573	-0.320841	0.933980
C95	C	0.028517	-0.763527	0.414847
C96	C	0.528517	-0.263527	0.914847
C97	C	-0.140115	-0.664483	0.479060
C98	C	0.359885	-0.164483	0.979060
C99	C	-0.197425	-0.645309	0.498058
C100	C	0.302575	-0.145309	0.998058
C101	C	-0.197256	-0.598535	0.404405
C102	C	0.302744	-0.098535	0.904405
C103	C	-0.139946	-0.617709	0.385407
C104	C	0.360054	-0.117709	0.885407
C105	C	-0.041168	-0.594444	0.409067
C106	C	0.458832	-0.094444	0.909067
C107	C	-0.022104	-0.575374	0.428250
C108	C	0.477896	-0.075374	0.928250
C109	C	0.024568	-0.668986	0.475143
C110	C	0.524568	-0.168986	0.975143
C111	C	0.005504	-0.688059	0.455967
C112	C	0.505504	-0.188059	0.955967
C113	C	-0.041000	-0.594453	0.310105
C114	C	0.459000	-0.094453	0.810105
C115	C	-0.021803	-0.575386	0.252792
C116	C	0.478197	-0.075386	0.752792
C117	C	0.024951	-0.669004	0.252854
C118	C	0.524951	-0.169004	0.752854
C119	C	0.005755	-0.688070	0.310168
C120	C	0.505755	-0.188070	0.810168
C121	C	-0.027222	-0.650793	0.338792
C122	C	0.472778	-0.150793	0.838792
C123	C	-0.027377	-0.734817	0.422881
C124	C	0.472623	-0.234817	0.922881
N125	N	0.491125	-0.518235	0.555255
N126	N	0.991125	-0.018235	1.055255
O127	O	0.678406	-0.527360	0.420422
O128	O	1.178406	-0.027360	0.920422
O129	O	0.678588	-0.633782	0.564887
O130	O	1.178588	-0.133782	1.064887
O131	O	0.678516	-0.633539	0.473265
O132	O	1.178516	-0.133539	0.973265
O133	O	0.678478	-0.527602	0.512044
O134	O	1.178478	-0.027602	1.012044
O135	O	0.587469	-0.603251	0.503685
O136	O	1.087469	-0.103251	1.003685
O137	O	0.587541	-0.603493	0.595307
O138	O	1.087541	-0.103493	1.095307
O139	O	0.587359	-0.497071	0.450842
O140	O	1.087359	0.002929	0.950842
Zn141	Zn	0.572994	-0.545473	0.527905
Zn142	Zn	1.072994	-0.045473	1.027905
Zn143	Zn	0.692953	-0.585380	0.487825
Zn144	Zn	1.192953	-0.085380	0.987825
O145	O	0.587431	-0.497313	0.542465
O146	O	1.087431	0.002687	1.042465
N147	N	0.774821	-0.612618	0.460470
N148	N	1.274821	-0.112618	0.960470
N149	N	0.105125	-0.132348	0.555445
N150	N	0.605125	0.367652	1.055445
O151	O	-0.029633	0.055031	0.546198
O152	O	0.470367	0.555031	1.046198
O153	O	0.114837	0.055047	0.439777
O154	O	0.614837	0.555047	0.939777
O155	O	0.023189	0.055024	0.440050
O156	O	0.523189	0.555024	0.940050
O157	O	0.062016	0.055054	0.545925
O158	O	0.562016	0.555054	1.045925
O159	O	0.053572	-0.036031	0.470398
O160	O	0.553572	0.463969	0.970398
O161	O	0.145220	-0.036008	0.470125
O162	O	0.645220	0.463992	0.970125
O163	O	0.000750	-0.036024	0.576546
O164	O	0.500750	0.463976	1.076546
Zn165	Zn	0.077809	-0.050473	0.528154
Zn166	Zn	0.577809	0.449527	1.028154
Zn167	Zn	0.037778	0.069496	0.488169
Zn168	Zn	0.537778	0.569496	0.988169
O169	O	0.092399	-0.036001	0.576273
O170	O	0.592399	0.463999	1.076273
N171	N	0.010456	0.151371	0.460879
N172	N	0.510456	0.651371	0.960879
N173	N	0.105414	-0.518315	0.941279
N174	N	0.605414	-0.018315	1.441279
O175	O	0.096182	-0.653057	1.128644
O176	O	0.596182	-0.153057	1.628644
O177	O	-0.010215	-0.508539	1.128670
O178	O	0.489785	-0.008539	1.628670
O179	O	-0.009968	-0.600172	1.128636
O180	O	0.490032	-0.100172	1.628636
O181	O	0.095935	-0.561424	1.128678
O182	O	0.595935	-0.061424	1.628678
O183	O	0.020367	-0.569808	1.037586
O184	O	0.520367	-0.069808	1.537586
O185	O	0.020121	-0.478175	1.037620
O186	O	0.520121	0.021825	1.537620
O187	O	0.126517	-0.622693	1.037594
O188	O	0.626517	-0.122693	1.537594
Zn189	Zn	0.078135	-0.545613	1.023151
Zn190	Zn	0.578135	-0.045613	1.523151
Zn191	Zn	0.038167	-0.585619	1.143113
Zn192	Zn	0.538167	-0.085619	1.643113
O193	O	0.126270	-0.531061	1.037628
O194	O	0.626270	-0.031061	1.537628
N195	N	0.010887	-0.612923	1.224985
N196	N	0.510887	-0.112923	1.724985
C197	C	0.034899	-0.475056	0.440551
C198	C	0.534899	0.024944	0.940551
C199	C	0.148298	-0.588365	0.440456
C200	C	0.648298	-0.088365	0.940456
C201	C	0.080746	-0.656109	0.575876
C202	C	0.580746	-0.156109	1.075876
C203	C	-0.032653	-0.542801	0.575971
C204	C	0.467347	-0.042801	1.075971
C205	C	0.633086	-0.633292	0.598298
C206	C	1.133086	-0.133292	1.098298
C207	C	0.632998	-0.632993	0.484834
C208	C	1.132998	-0.132993	0.984834
C209	C	0.632857	-0.497559	0.417433
C210	C	1.132857	0.002441	0.917433
C211	C	0.632949	-0.497860	0.530895
C212	C	1.132949	0.002140	1.030895
C213	C	0.148191	0.009634	0.440259
C214	C	0.648191	0.509634	0.940259
C215	C	0.034733	0.009493	0.440634
C216	C	0.534733	0.509493	0.940634
C217	C	-0.032641	0.009502	0.576027
C218	C	0.467359	0.509502	1.076027
C219	C	0.080854	0.009529	0.575690
C220	C	0.580854	0.509529	1.075690
C221	C	-0.009699	-0.475150	1.083148
C222	C	0.490301	0.024850	1.583148
C223	C	-0.009388	-0.588620	1.083088
C224	C	0.490612	-0.088620	1.583088
C225	C	0.126001	-0.656082	1.083116
C226	C	0.626001	-0.156082	1.583116
C227	C	0.125697	-0.542605	1.083155
C228	C	0.625697	-0.042605	1.583155
H229	H	0.056584	-0.439691	0.832846
H230	H	0.556584	0.060309	1.332846
O231	O	0.012918	-0.472220	0.601675
O232	O	0.512918	0.027780	1.101675
C233	C	-0.010845	-0.491831	0.659081
C234	C	0.489155	0.008169	1.159081
H235	H	0.021811	-0.527178	0.677532
H236	H	0.521811	-0.027178	1.177532
H237	H	-0.028938	-0.457455	0.676071
H238	H	0.471062	0.042545	1.176071
C239	C	-0.096584	-0.468527	0.651255
C240	C	0.403416	0.031473	1.151255
C241	C	-0.056475	-0.511944	0.673916
C242	C	0.443525	-0.011944	1.173916
H243	H	-0.124732	-0.480931	0.660406
H244	H	0.375268	0.019069	1.160406
H245	H	-0.080575	-0.455312	0.612579
H246	H	0.419425	0.044688	1.112579
H247	H	-0.111655	-0.439884	0.665415
H248	H	0.388345	0.060116	1.165415
H249	H	-0.041400	-0.540582	0.659750
H250	H	0.458600	-0.040582	1.159750
H251	H	-0.072483	-0.525163	0.712590
H252	H	0.427517	-0.025163	1.212590
O253	O	-0.081016	-0.848427	0.495530
O254	O	0.418984	-0.348427	0.995530
C255	C	-0.107825	-0.834418	0.460418
C256	C	0.392175	-0.334418	0.960418
H257	H	-0.106418	-0.792846	0.427751
H258	H	0.393582	-0.292846	0.927751
H259	H	-0.086463	-0.866720	0.439954
H260	H	0.413537	-0.366720	0.939954
C261	C	-0.169593	-0.882696	0.533955
C262	C	0.330407	-0.382696	1.033955
C263	C	-0.167869	-0.831634	0.493836
C264	C	0.332131	-0.331634	0.993836
H265	H	-0.206630	-0.880981	0.554569
H266	H	0.293370	-0.380981	1.054569
H267	H	-0.151531	-0.892136	0.557611
H268	H	0.348469	-0.392136	1.057611
H269	H	-0.151789	-0.909609	0.516896
H270	H	0.348211	-0.409609	1.016896
H271	H	-0.185666	-0.804724	0.510896
H272	H	0.314334	-0.304724	1.010896
H273	H	-0.185936	-0.822189	0.470184
H274	H	0.314064	-0.322189	0.970184
H275	H	0.026418	0.009490	0.407371
H276	H	0.526418	0.509490	0.907371
H277	H	0.633132	-0.666701	0.639790
H278	H	1.133132	-0.166701	1.139790
O279	O	0.197777	-0.598127	0.400601
O280	O	0.697777	-0.098127	0.900601
C281	C	0.190576	-0.591980	0.354475
C282	C	0.690576	-0.091980	0.854475
H283	H	0.150472	-0.597998	0.367660
H284	H	0.650472	-0.097998	0.867660
H285	H	0.189363	-0.549184	0.323523
H286	H	0.689363	-0.049184	0.823523
C287	C	0.287781	-0.627557	0.311893
C288	C	0.787781	-0.127557	0.811893
C289	C	0.238526	-0.634952	0.328089
C290	C	0.738526	-0.134952	0.828089
H291	H	0.317359	-0.654062	0.295615
H292	H	0.817359	-0.154062	0.795615
H293	H	0.292633	-0.631697	0.342968
H294	H	0.792633	-0.131697	0.842968
H295	H	0.286762	-0.591892	0.286103
H296	H	0.786762	-0.091892	0.786103
H297	H	0.239542	-0.670614	0.353884
H298	H	0.739542	-0.170614	0.853884
H299	H	0.233675	-0.630819	0.297017
H300	H	0.733675	-0.130819	0.797017
H301	H	-0.042644	-0.596897	1.083039
H302	H	0.457356	-0.096897	1.583039
H303	H	-0.043102	-0.433644	1.083156
H304	H	0.456898	0.066356	1.583156
H305	H	0.088995	-0.697649	0.609197
H306	H	0.588995	-0.197649	1.109197
O307	O	-0.082152	-0.533144	0.615828
O308	O	0.417848	-0.033144	1.115828
C309	C	-0.082191	-0.580223	0.663003
C310	C	0.417809	-0.080223	1.163003
H311	H	-0.049794	-0.617797	0.650935
H312	H	0.450206	-0.117797	1.150935
H313	H	-0.072634	-0.575825	0.692747
H314	H	0.427366	-0.075825	1.192747
C315	C	-0.178696	-0.540686	0.705480
C316	C	0.321304	-0.040686	1.205480
C317	C	-0.138909	-0.586835	0.690657
C318	C	0.361091	-0.086835	1.190657
H319	H	-0.213682	-0.544764	0.722541
H320	H	0.286318	-0.044764	1.222541
H321	H	-0.178670	-0.508967	0.673698
H322	H	0.321330	-0.008967	1.173698
H323	H	-0.170725	-0.537026	0.730265
H324	H	0.329275	-0.037026	1.230265
H325	H	-0.146876	-0.590491	0.665868
H326	H	0.353124	-0.090491	1.165868
H327	H	-0.138937	-0.618556	0.722436
H328	H	0.361063	-0.118556	1.222436
O329	O	0.632990	-0.672629	0.474856
O330	O	1.132990	-0.172629	0.974856
C331	C	0.632949	-0.652689	0.421047
C332	C	1.132949	-0.152689	0.921047
H333	H	0.615671	-0.606056	0.406660
H334	H	1.115671	-0.106056	0.906660
H335	H	0.676617	-0.666508	0.392697
H336	H	1.176617	-0.166508	0.892697
C337	C	0.618474	-0.732509	0.437668
C338	C	1.118474	-0.232509	0.937668
C339	C	0.597249	-0.675233	0.420000
C340	C	1.097249	-0.175233	0.920000
H341	H	0.596455	-0.746417	0.437021
H342	H	1.096455	-0.246417	0.937021
H343	H	0.618504	-0.745944	0.473920
H344	H	1.118504	-0.245944	0.973920
H345	H	0.654864	-0.744018	0.414041
H346	H	1.154864	-0.244018	0.914041
H347	H	0.560862	-0.663725	0.443631
H348	H	1.060862	-0.163725	0.943631
H349	H	0.597212	-0.661796	0.383752
H350	H	1.097212	-0.161796	0.883752
H351	H	-0.074131	0.009496	0.609437
H352	H	0.425869	0.509496	1.109437
H353	H	0.632798	-0.464146	0.375944
H354	H	1.132798	0.035854	0.875944
O355	O	0.165377	-0.532778	1.083258
O356	O	0.665377	-0.032778	1.583258
C357	C	0.180131	-0.570321	1.130403
C358	C	0.680131	-0.070321	1.630403
H359	H	0.145065	-0.586366	1.163360
H360	H	0.645065	-0.086366	1.663360
H361	H	0.218253	-0.605963	1.119734
H362	H	0.718253	-0.105963	1.619734
C363	C	0.235188	-0.521800	1.111318
C364	C	0.735188	-0.021800	1.611318
C365	C	0.192117	-0.541504	1.151798
C366	C	0.692117	-0.041504	1.651798
H367	H	0.242585	-0.504026	1.124514
H368	H	0.742585	-0.004026	1.624514
H369	H	0.225250	-0.496508	1.079554
H370	H	0.725250	0.003492	1.579554
H371	H	0.266952	-0.551506	1.102430
H372	H	0.766952	-0.051506	1.602430
H373	H	0.160354	-0.511797	1.160679
H374	H	0.660354	-0.011797	1.660679
H375	H	0.202050	-0.566791	1.183563
H376	H	0.702050	-0.066791	1.683563
O377	O	0.013133	-0.472127	0.941236
O378	O	0.513133	0.027873	1.441236
C379	C	-0.015674	-0.438950	0.903672
C380	C	0.484326	0.061050	1.403672
H381	H	0.011640	-0.418110	0.862813
H382	H	0.511640	0.081890	1.362813
H383	H	-0.028039	-0.465386	0.897580
H384	H	0.471961	0.034614	1.397580
C385	C	-0.100881	-0.420747	0.976247
C386	C	0.399119	0.079253	1.476247
C387	C	-0.067335	-0.395147	0.926064
C388	C	0.432665	0.104853	1.426064
H389	H	-0.132749	-0.393729	0.990059
H390	H	0.367251	0.106271	1.490059
H391	H	-0.081474	-0.443101	1.001555
H392	H	0.418526	0.056899	1.501555
H393	H	-0.111179	-0.442777	0.971163
H394	H	0.388821	0.057223	1.471163
H395	H	-0.057032	-0.373124	0.931150
H396	H	0.442968	0.126876	1.431150
H397	H	-0.086741	-0.372789	0.900758
H398	H	0.413259	0.127211	1.400758
O399	O	0.090869	0.009504	0.615324
O400	O	0.590869	0.509504	1.115324
C401	C	0.144679	0.009523	0.595367
C402	C	0.644679	0.509523	1.095367
H403	H	0.170564	-0.007708	0.560219
H404	H	0.670564	0.492292	1.060219
H405	H	0.143865	0.053208	0.580100
H406	H	0.643865	0.553208	1.080100
C407	C	0.137799	-0.005025	0.684839
C408	C	0.637799	0.494975	1.184839
C409	C	0.169593	-0.026194	0.641673
C410	C	0.669593	0.473806	1.141673
H411	H	0.153167	-0.027055	0.713403
H412	H	0.653167	0.472945	1.213403
H413	H	0.101546	-0.005036	0.698285
H414	H	0.601546	0.494964	1.198285
H415	H	0.137123	0.031378	0.672109
H416	H	0.637123	0.531378	1.172109
H417	H	0.170263	-0.062594	0.654402
H418	H	0.670263	0.437406	1.154402
H419	H	0.205847	-0.026189	0.628231
H420	H	0.705847	0.473811	1.128231
H421	H	0.632941	-0.464583	0.539193
H422	H	1.132941	0.035417	1.039193
O423	O	0.025005	-0.425525	0.400781
O424	O	0.525005	0.074475	0.900781
C425	C	-0.019331	-0.415751	0.388194
C426	C	0.480669	0.084249	0.888194
H427	H	-0.023683	-0.456417	0.400272
H428	H	0.476317	0.043583	0.900272
H429	H	-0.058574	-0.389386	0.411755
H430	H	0.441426	0.110614	0.911755
C431	C	-0.003524	-0.335808	0.311469
C432	C	0.496476	0.164192	0.811469
C433	C	-0.008867	-0.385755	0.326299
C434	C	0.491133	0.114245	0.826299
H435	H	0.002928	-0.317303	0.273289
H436	H	0.502928	0.182697	0.773289
H437	H	0.026344	-0.342391	0.319950
H438	H	0.526344	0.157609	0.819950
H439	H	-0.036229	-0.313844	0.331107
H440	H	0.463771	0.186156	0.831107
H441	H	0.023840	-0.407721	0.306665
H442	H	0.523840	0.092279	0.806665
H443	H	-0.038730	-0.379174	0.317813
H444	H	0.461270	0.120826	0.817813
O445	O	0.165787	-0.705634	1.083129
O446	O	0.665787	-0.205634	1.583129
C447	C	0.146088	-0.739694	1.083095
C448	C	0.646088	-0.239694	1.583095
H449	H	0.099456	-0.724864	1.100332
H450	H	0.599456	-0.224864	1.600332
H451	H	0.159998	-0.738206	1.039407
H452	H	0.659998	-0.238206	1.539407
C453	C	0.226044	-0.817157	1.097617
C454	C	0.726044	-0.317157	1.597617
C455	C	0.168770	-0.798945	1.118793
C456	C	0.668770	-0.298945	1.618793
H457	H	0.240037	-0.853707	1.119635
H458	H	0.740037	-0.353707	1.619635
H459	H	0.239317	-0.794211	1.097638
H460	H	0.739317	-0.294211	1.597638
H461	H	0.237628	-0.815913	1.061211
H462	H	0.737628	-0.315913	1.561211
H463	H	0.157187	-0.800184	1.155195
H464	H	0.657187	-0.300184	1.655195
H465	H	0.155496	-0.821894	1.118778
H466	H	0.655496	-0.321894	1.618778
O467	O	0.197633	0.009868	0.400368
O468	O	0.697633	0.509868	0.900368
C469	C	0.239110	-0.037186	0.418858
C470	C	0.739110	0.462814	0.918858
H471	H	0.224205	-0.053085	0.465521
H472	H	0.724205	0.446915	0.965521
H473	H	0.249482	-0.070157	0.403188
H474	H	0.749482	0.429843	0.903188
C475	C	0.308847	-0.003044	0.339877
C476	C	0.808847	0.496956	0.839877
C477	C	0.290542	-0.022568	0.397189
C478	C	0.790542	0.477432	0.897189
H479	H	0.340574	0.005972	0.326509
H480	H	0.840574	0.505972	0.826509
H481	H	0.280903	0.028657	0.327418
H482	H	0.780903	0.528657	0.827418
H483	H	0.317486	-0.030523	0.326826
H484	H	0.817486	0.469477	0.826826
H485	H	0.281897	0.004913	0.410239
H486	H	0.781897	0.504913	0.910239
H487	H	0.318486	-0.054264	0.409650
H488	H	0.818486	0.445736	0.909650
O489	O	0.197772	-0.564459	0.941142
O490	O	0.697772	-0.064459	1.441142
C491	C	0.251584	-0.572559	0.903537
C492	C	0.751584	-0.072559	1.403537
H493	H	0.251453	-0.566142	0.862687
H494	H	0.751453	-0.066142	1.362687
H495	H	0.268002	-0.542057	0.897443
H496	H	0.768002	-0.042057	1.397443
C497	C	0.288527	-0.639161	0.976048
C498	C	0.788527	-0.139161	1.476048
C499	C	0.288366	-0.631284	0.925876
C500	C	0.788366	-0.131284	1.425876
H501	H	0.311217	-0.675384	0.989828
H502	H	0.811217	-0.175384	1.489828
H503	H	0.252273	-0.633702	1.001383
H504	H	0.752273	-0.133702	1.501383
H505	H	0.302207	-0.613738	0.970962
H506	H	0.802207	-0.113738	1.470962
H507	H	0.274680	-0.656701	0.930964
H508	H	0.774680	-0.156701	1.430964
H509	H	0.324619	-0.636748	0.900542
H510	H	0.824619	-0.136748	1.400542
H511	H	0.056452	-0.439666	0.634048
H512	H	0.556452	0.060334	1.134048
O513	O	0.235275	-0.526823	0.828218
O514	O	0.735275	-0.026823	1.328218
C515	C	0.249107	-0.555658	0.795051
C516	C	0.749107	-0.055658	1.295051
H517	H	0.216805	-0.575056	0.812333
H518	H	0.716805	-0.075056	1.312333
H519	H	0.250982	-0.526181	0.751622
H520	H	0.750982	-0.026181	1.251622
C521	C	0.344995	-0.576946	0.772917
C522	C	0.844995	-0.076946	1.272917
C523	C	0.305323	-0.600775	0.794146
C524	C	0.805323	-0.100775	1.294146
H525	H	0.379672	-0.604775	0.772356
H526	H	0.879672	-0.104775	1.272356
H527	H	0.335676	-0.557518	0.795260
H528	H	0.835676	-0.057518	1.295260
H529	H	0.346550	-0.552382	0.736728
H530	H	0.846550	-0.052382	1.236728
H531	H	0.303763	-0.625333	0.830336
H532	H	0.803763	-0.125333	1.330336
H533	H	0.314643	-0.620208	0.771809
H534	H	0.814643	-0.120208	1.271809
H535	H	-0.067855	-0.564093	0.333408
H536	H	0.432145	-0.064093	0.833408
H537	H	0.226235	-0.524529	0.549071
H538	H	0.726235	-0.024529	1.049071
O539	O	0.197481	-0.564346	0.509242
O540	O	0.697481	-0.064346	1.009242
C541	C	0.251313	-0.572475	0.501111
C542	C	0.751313	-0.072475	1.001111
H543	H	0.251213	-0.537924	0.507517
H544	H	0.751213	-0.037924	1.007517
H545	H	0.267758	-0.613308	0.531602
H546	H	0.767758	-0.113308	1.031602
C547	C	0.288162	-0.615307	0.434520
C548	C	0.788162	-0.115307	0.934520
C549	C	0.288039	-0.572868	0.442383
C550	C	0.788039	-0.072868	0.942383
H551	H	0.310817	-0.615552	0.398295
H552	H	0.810817	-0.115552	0.898295
H553	H	0.251894	-0.609832	0.439999
H554	H	0.751894	-0.109832	0.939999
H555	H	0.301864	-0.649330	0.459933
H556	H	0.801864	-0.149330	0.959933
H557	H	0.274330	-0.538846	0.416975
H558	H	0.774330	-0.038846	0.916975
H559	H	0.324305	-0.578338	0.436898
H560	H	0.824305	-0.078338	0.936898
H561	H	0.382671	-0.566208	0.623544
H562	H	0.882671	-0.066208	1.123544
H563	H	0.486634	-0.600858	0.588843
H564	H	0.986634	-0.100858	1.088843
H565	H	0.382624	-0.397967	0.559385
H566	H	0.882624	0.102033	1.059385
O567	O	0.491014	-0.426760	0.520398
O568	O	0.991014	0.073240	1.020398
C569	C	0.453425	-0.373312	0.517343
C570	C	0.953425	0.126688	1.017343
H571	H	0.412564	-0.371080	0.521117
H572	H	0.912564	0.128920	1.021117
H573	H	0.447355	-0.362613	0.552061
H574	H	0.947355	0.137387	1.052061
C575	C	0.525948	-0.335137	0.457371
C576	C	1.025948	0.164863	0.957371
C577	C	0.475763	-0.332395	0.462002
C578	C	0.975763	0.167605	0.962002
H579	H	0.539728	-0.309897	0.423236
H580	H	1.039728	0.190103	0.923236
H581	H	0.551273	-0.371146	0.459431
H582	H	1.051273	0.128854	0.959431
H583	H	0.520883	-0.326223	0.486306
H584	H	1.020883	0.173777	0.986306
H585	H	0.480830	-0.341316	0.433071
H586	H	0.980830	0.158684	0.933071
H587	H	0.450440	-0.296386	0.459936
H588	H	0.950440	0.203614	0.959936
H589	H	0.149018	-0.136838	0.472047
H590	H	0.649018	0.363162	0.972047
O591	O	0.188813	-0.245294	0.500798
O592	O	0.688813	0.254706	1.000798
C593	C	0.159849	-0.231277	0.467675
C594	C	0.659849	0.268723	0.967675
H595	H	0.114003	-0.215532	0.489825
H596	H	0.614003	0.284468	0.989825
H597	H	0.172022	-0.198000	0.427410
H598	H	0.672022	0.302000	0.927410
C599	C	0.230007	-0.301526	0.428758
C600	C	0.730007	0.198474	0.928758
C601	C	0.173698	-0.282192	0.455965
C602	C	0.673698	0.217808	0.955965
H603	H	0.238551	-0.332931	0.421532
H604	H	0.738551	0.167069	0.921532
H605	H	0.249522	-0.310968	0.451072
H606	H	0.749522	0.189032	0.951072
H607	H	0.240144	-0.273790	0.395206
H608	H	0.740144	0.226210	0.895206
H609	H	0.163563	-0.309925	0.489519
H610	H	0.663563	0.190075	0.989519
H611	H	0.154182	-0.272756	0.433656
H612	H	0.654182	0.227244	0.933656
O613	O	0.059035	-0.132457	0.647789
O614	O	0.559035	0.367543	1.147789
C615	C	0.050969	-0.170051	0.701612
C616	C	0.550969	0.329949	1.201612
H617	H	0.057377	-0.210907	0.701508
H618	H	0.557377	0.289093	1.201508
H619	H	0.081493	-0.176143	0.718010
H620	H	0.581493	0.323857	1.218010
C621	C	-0.015601	-0.097518	0.738525
C622	C	0.484399	0.402482	1.238525
C623	C	-0.007735	-0.147697	0.738397
C624	C	0.492265	0.352303	1.238397
H625	H	-0.051812	-0.083729	0.761216
H626	H	0.448188	0.416271	1.261216
H627	H	-0.010166	-0.072190	0.702263
H628	H	0.489834	0.427810	1.202263
H629	H	0.009839	-0.102602	0.752188
H630	H	0.509839	0.397398	1.252188
H631	H	-0.033171	-0.142611	0.724727
H632	H	0.466829	0.357389	1.224727
H633	H	-0.013177	-0.173024	0.774657
H634	H	0.486823	0.326976	1.274657
H635	H	-0.033030	-0.529506	0.229442
H636	H	0.466970	-0.029506	0.729442
O637	O	0.096816	-0.245445	0.685323
O638	O	0.596816	0.254555	1.185323
C639	C	0.120788	-0.302176	0.694185
C640	C	0.620788	0.197824	1.194185
H641	H	0.129375	-0.310007	0.656596
H642	H	0.629375	0.189993	1.156596
H643	H	0.160799	-0.318412	0.701758
H644	H	0.660799	0.181588	1.201758
C645	C	0.070778	-0.322015	0.790576
C646	C	0.570778	0.177985	1.290576
C647	C	0.081321	-0.331634	0.744411
C648	C	0.581321	0.168366	1.244411
H649	H	0.046435	-0.340188	0.821559
H650	H	0.546435	0.159812	1.321559
H651	H	0.054629	-0.283795	0.784607
H652	H	0.554629	0.216205	1.284607
H653	H	0.104124	-0.335546	0.796880
H654	H	0.604124	0.164454	1.296880
H655	H	0.047977	-0.318098	0.738104
H656	H	0.547977	0.181902	1.238104
H657	H	0.097464	-0.369853	0.750380
H658	H	0.597464	0.130147	1.250380
O659	O	0.056912	-0.705270	0.225113
O660	O	0.556912	-0.205270	0.725113
C661	C	0.027948	-0.738343	0.239042
C662	C	0.527948	-0.238343	0.739042
H663	H	-0.005466	-0.738855	0.280615
H664	H	0.494534	-0.238855	0.780615
H665	H	0.008565	-0.721089	0.206720
H666	H	0.508565	-0.221089	0.706720
C667	C	0.108670	-0.796458	0.190701
C668	C	0.608670	-0.296458	0.690701
C669	C	0.067634	-0.797090	0.241764
C670	C	0.567634	-0.297090	0.741764
H671	H	0.133150	-0.832696	0.192378
H672	H	0.633150	-0.332696	0.692378
H673	H	0.128183	-0.774175	0.181315
H674	H	0.628183	-0.274175	0.681315
H675	H	0.092511	-0.782077	0.163771
H676	H	0.592511	-0.282077	0.663771
H677	H	0.083792	-0.811464	0.268691
H678	H	0.583792	-0.311464	0.768691
H679	H	0.048124	-0.819377	0.251154
H680	H	0.548124	-0.319377	0.751154
H681	H	0.016979	-0.733950	0.333522
H682	H	0.516979	-0.233950	0.833522
O683	O	-0.073111	-0.558164	0.377003
O684	O	0.426889	-0.058164	0.877003
C685	C	-0.081197	-0.504345	0.368876
C686	C	0.418803	-0.004345	0.868876
H687	H	-0.074858	-0.504454	0.403478
H688	H	0.425142	-0.004454	0.903478
H689	H	-0.050638	-0.487969	0.328090
H690	H	0.449362	0.012031	0.828090
C691	C	-0.147660	-0.467396	0.325856
C692	C	0.352340	0.032604	0.825856
C693	C	-0.139879	-0.467529	0.368357
C694	C	0.360121	0.032471	0.868357
H695	H	-0.183856	-0.444684	0.325533
H696	H	0.316144	0.055316	0.825533
H697	H	-0.142211	-0.503654	0.331329
H698	H	0.357789	-0.003654	0.831329
H699	H	-0.122190	-0.453751	0.291872
H700	H	0.377810	0.046249	0.791872
H701	H	-0.165343	-0.481180	0.402340
H702	H	0.334657	0.018820	0.902340
H703	H	-0.145333	-0.431271	0.362889
H704	H	0.354667	0.068729	0.862889
H705	H	0.051334	-0.699339	0.502037
H706	H	0.551334	-0.199339	1.002037
O707	O	0.018983	-0.742809	0.469458
O708	O	0.518983	-0.242809	0.969458
C709	C	0.052070	-0.771618	0.502741
C710	C	0.552070	-0.271618	1.002741
H711	H	0.072909	-0.744321	0.495487
H712	H	0.572909	-0.244321	0.995487
H713	H	0.025566	-0.783938	0.547607
H714	H	0.525566	-0.283938	1.047607
C715	C	0.070271	-0.856847	0.497199
C716	C	0.570271	-0.356847	0.997199
C717	C	0.095870	-0.823321	0.488286
C718	C	0.595870	-0.323321	0.988286
H719	H	0.097287	-0.888742	0.488285
H720	H	0.597287	-0.388742	0.988285
H721	H	0.047978	-0.837439	0.474777
H722	H	0.547978	-0.337439	0.974777
H723	H	0.048185	-0.867108	0.534588
H724	H	0.548185	-0.367108	1.034588
H725	H	0.117950	-0.813056	0.450897
H726	H	0.617950	-0.313056	0.950897
H727	H	0.118168	-0.842730	0.510702
H728	H	0.618168	-0.342730	1.010702
H729	H	-0.033345	-0.529494	0.416965
H730	H	0.466655	-0.029494	0.916965
H731	H	0.058518	-0.740243	0.392731
H732	H	0.558518	-0.240243	0.892731
H733	H	-0.109727	-0.740044	0.456586
H734	H	0.390273	-0.240044	0.956586
O735	O	0.101886	-0.848712	0.426083
O736	O	0.601886	-0.348712	0.926083
C737	C	0.131535	-0.834740	0.369517
C738	C	0.631535	-0.334740	0.869517
H739	H	0.103428	-0.818955	0.345765
H740	H	0.603428	-0.318955	0.845765
H741	H	0.148010	-0.801506	0.356752
H742	H	0.648010	-0.301506	0.856752
C743	C	0.214156	-0.905082	0.386227
C744	C	0.714156	-0.405082	0.886227
C745	C	0.179636	-0.885698	0.357055
C746	C	0.679636	-0.385698	0.857055
H747	H	0.243829	-0.936514	0.378539
H748	H	0.743829	-0.436514	0.878539
H749	H	0.194182	-0.914494	0.424337
H750	H	0.694182	-0.414494	0.924337
H751	H	0.227880	-0.877382	0.375587
H752	H	0.727880	-0.377382	0.875587
H753	H	0.165908	-0.913395	0.367700
H754	H	0.665908	-0.413395	0.867700
H755	H	0.199608	-0.876292	0.318946
H756	H	0.699608	-0.376292	0.818946
H757	H	-0.116855	-0.691337	0.509456
H758	H	0.383145	-0.191337	1.009456
H759	H	-0.220518	-0.571693	0.374008
H760	H	0.279482	-0.071693	0.874008
O761	O	-0.225260	-0.658790	0.552793
O762	O	0.274740	-0.158790	1.052793
C763	C	-0.187755	-0.691994	0.581666
C764	C	0.312245	-0.191994	1.081666
H765	H	-0.146878	-0.712869	0.554385
H766	H	0.353122	-0.212869	1.054385
H767	H	-0.181684	-0.665574	0.594071
H768	H	0.318316	-0.165574	1.094071
C769	C	-0.260411	-0.710117	0.666805
C770	C	0.239589	-0.210117	1.166805
C771	C	-0.210206	-0.735760	0.633300
C772	C	0.289794	-0.235760	1.133300
H773	H	-0.274261	-0.737113	0.698657
H774	H	0.225739	-0.237113	1.198657
H775	H	-0.285679	-0.687745	0.647354
H776	H	0.214321	-0.187745	1.147354
H777	H	-0.255345	-0.688101	0.677138
H778	H	0.244655	-0.188101	1.177138
H779	H	-0.215274	-0.757770	0.622963
H780	H	0.284726	-0.257770	1.122963
H781	H	-0.184939	-0.758137	0.652751
H782	H	0.315061	-0.258137	1.152751
H783	H	-0.116547	-0.606465	0.339541
H784	H	0.383453	-0.106465	0.839541
