data_functionalizedCrystal
_audit_creation_method	'MofGen! by Chris Wilmer'
_symmetry_space_group_name_H-M	'P1'
_symmetry_Int_Tables_number	1
_symmetry_cell_setting	triclinic
loop_
_symmetry_equiv_pos_as_xyz
  x,y,z
_cell_length_a	14.519731
_cell_length_b	16.992695
_cell_length_c	15.455313
_cell_angle_alpha	87.152573
_cell_angle_beta	92.687541
_cell_angle_gamma	87.178538
loop_
_atom_site_label
_atom_site_type_symbol
_atom_site_fract_x
_atom_site_fract_y
_atom_site_fract_z
O1	O	-1.235029	-0.099450	-0.072154
O2	O	-0.735029	0.400550	0.427846
O3	O	-0.967422	-0.111538	-0.072151
O4	O	-0.467422	0.388462	0.427849
O5	O	-1.100152	0.008650	-0.072146
O6	O	-0.600152	0.508650	0.427854
O7	O	-1.102298	-0.219638	-0.072160
O8	O	-0.602298	0.280362	0.427840
O9	O	-1.092560	0.001806	0.072116
O10	O	-0.592560	0.501806	0.572116
O11	O	-0.959830	-0.118382	0.072111
O12	O	-0.459830	0.381618	0.572111
O13	O	-1.227437	-0.106294	0.072107
O14	O	-0.727437	0.393706	0.572107
Cu15	Cu	-1.092940	-0.112963	0.085281
Cu16	Cu	-0.592940	0.387037	0.585281
Cu17	Cu	-1.101919	-0.104869	-0.085325
Cu18	Cu	-0.601919	0.395131	0.414675
O19	O	-1.094706	-0.226482	0.072102
O20	O	-0.594706	0.273518	0.572102
C21	C	-0.929226	-0.114394	-0.000020
C22	C	-0.429226	0.385606	0.499980
C23	C	-0.826724	-0.112697	-0.000019
C24	C	-0.326724	0.387303	0.499981
C25	C	-0.743480	-0.111317	-0.000021
C26	C	-0.243480	0.388683	0.499979
C27	C	-0.639048	-0.109594	-0.000019
C28	C	-0.139048	0.390406	0.499981
C29	C	-0.555811	-0.108227	-0.000018
C30	C	-0.055811	0.391773	0.499982
C31	C	-0.451372	-0.106504	-0.000018
C32	C	0.048628	0.393496	0.499982
N33	N	-1.086631	-0.118656	0.205277
N34	N	-0.586631	0.381344	0.705277
C35	C	-1.093596	0.034444	-0.000015
C36	C	-0.593596	0.534444	0.499985
C37	C	-1.085361	0.121501	-0.000015
C38	C	-0.585361	0.621501	0.499985
C39	C	-0.265633	-0.103438	-0.000022
C40	C	0.234367	0.396562	0.499978
C41	C	-0.368134	-0.105136	-0.000016
C42	C	0.131866	0.394864	0.499984
C43	C	-1.101263	-0.252276	-0.000031
C44	C	-0.601263	0.247724	0.499969
C45	C	-1.109498	-0.339332	-0.000036
C46	C	-0.609498	0.160668	0.499964
C47	C	-1.164820	0.171625	-0.000015
C48	C	-0.664820	0.671625	0.499985
C49	C	-1.157077	0.253423	-0.000023
C50	C	-0.657077	0.753423	0.499977
C51	C	-1.069873	0.285096	-0.000025
C52	C	-0.569873	0.785096	0.499975
C53	C	-0.990408	0.234965	-0.000028
C54	C	-0.490408	0.734965	0.499972
C55	C	-0.998152	0.153169	-0.000026
C56	C	-0.498152	0.653169	0.499974
C57	C	-1.037777	0.528741	-0.000037
C58	C	-0.537777	1.028741	0.499963
C59	C	-1.030039	0.610544	-0.000036
C60	C	-0.530039	1.110544	0.499964
C61	C	-1.196709	0.628996	-0.000033
C62	C	-0.696709	1.128996	0.499967
C63	C	-1.204445	0.547197	-0.000026
C64	C	-0.704445	1.047197	0.499974
C65	C	-1.124980	0.497074	-0.000033
C66	C	-0.624980	0.997074	0.499967
N67	N	-1.061957	0.368706	-0.000031
N68	N	-0.561957	0.868706	0.499969
N69	N	-1.132898	0.413465	-0.000034
N70	N	-0.632898	0.913465	0.499966
N71	N	-1.108234	-0.099170	-0.205320
N72	N	-0.608234	0.400830	0.294680
C73	C	-1.143042	-0.067615	0.250673
C74	C	-0.643042	0.432385	0.750673
C75	C	-1.138281	-0.071927	0.341481
C76	C	-0.638281	0.428073	0.841481
C77	C	-1.077112	-0.127285	0.386890
C78	C	-0.577112	0.372715	0.886890
C79	C	-1.020695	-0.178329	0.341487
C80	C	-0.520695	0.321671	0.841487
C81	C	-1.025453	-0.174012	0.250681
C82	C	-0.525453	0.325988	0.750681
C83	C	-1.056575	-0.145897	0.658471
C84	C	-0.556575	0.354103	1.158471
C85	C	-1.051823	-0.150211	0.749283
C86	C	-0.551823	0.349789	1.249283
C87	C	-1.169408	-0.043808	0.749270
C88	C	-0.669408	0.456192	1.249270
C89	C	-1.174164	-0.039499	0.658462
C90	C	-0.674164	0.460501	1.158462
C91	C	-1.117744	-0.090540	0.613068
C92	C	-0.617744	0.409460	1.113068
N93	N	-1.072245	-0.131696	0.479710
N94	N	-0.572245	0.368304	0.979710
N95	N	-1.122606	-0.086125	0.520249
N96	N	-0.622606	0.413875	1.020249
H97	H	-1.235830	0.145843	-0.000008
H98	H	-0.735830	0.645843	0.499992
H99	H	-0.970885	-0.223400	0.378465
H100	H	-0.470885	0.276600	0.878465
H101	H	-1.184214	-0.030365	0.378442
H102	H	-0.684214	0.469635	0.878442
H103	H	-1.275455	0.521415	-0.000024
H104	H	-0.775455	1.021415	0.499976
H105	H	-1.261404	0.669814	-0.000029
H106	H	-0.761404	1.169814	0.499971
H107	H	-1.010636	-0.187458	0.621518
H108	H	-0.510636	0.312542	1.121518
O109	O	-0.970622	-0.223677	0.206715
O110	O	-0.470622	0.276323	0.706715
C111	C	-0.915597	-0.273452	0.266264
C112	C	-0.415597	0.226548	0.766264
H113	H	-0.950085	-0.277491	0.330985
H114	H	-0.450085	0.222509	0.830985
H115	H	-0.907511	-0.334802	0.240017
H116	H	-0.407511	0.165198	0.740017
H117	H	-0.844701	-0.248313	0.275943
H118	H	-0.344701	0.251687	0.775943
H119	H	-1.221782	0.294231	-0.000021
H120	H	-0.721782	0.794231	0.499979
H121	H	-1.192856	-0.022540	0.213706
H122	H	-0.692856	0.477460	0.713706
H123	H	-0.959023	0.636327	-0.000024
H124	H	-0.459023	1.136327	0.499976
O125	O	-1.233454	0.014529	0.614588
O126	O	-0.733454	0.514529	1.114588
C127	C	-1.211351	0.090999	0.637089
C128	C	-0.711351	0.590999	1.137089
H129	H	-1.136118	0.090135	0.661945
H130	H	-0.636118	0.590135	1.161945
H131	H	-1.222215	0.133377	0.577549
H132	H	-0.722215	0.633377	1.077549
H133	H	-1.257846	0.111320	0.689967
H134	H	-0.757846	0.611320	1.189967
O135	O	-0.960491	0.480169	0.000006
O136	O	-0.460491	0.980169	0.500006
C137	C	-0.881867	0.525668	-0.000011
C138	C	-0.381867	1.025668	0.499989
H139	H	-0.899348	0.585387	0.027297
H140	H	-0.399348	1.085387	0.527297
H141	H	-0.823618	0.493600	0.041878
H142	H	-0.323618	0.993600	0.541878
H143	H	-0.859058	0.534809	-0.069219
H144	H	-0.359058	1.034809	0.430781
O145	O	-0.992310	-0.204004	0.793261
O146	O	-0.492310	0.295996	1.293261
C147	C	-0.943543	-0.248138	0.733724
C148	C	-0.443543	0.251862	1.233724
H149	H	-0.943531	-0.212912	0.668998
H150	H	-0.443531	0.287088	1.168998
H151	H	-0.869392	-0.261190	0.759979
H152	H	-0.369392	0.238810	1.259979
H153	H	-0.978271	-0.306001	0.724052
H154	H	-0.478271	0.193999	1.224052
O155	O	-0.905767	0.265858	0.000008
O156	O	-0.405767	0.765858	0.500008
C157	C	-0.915969	0.348803	-0.000012
C158	C	-0.415969	0.848803	0.499988
H159	H	-0.985091	0.366612	0.027299
H160	H	-0.485091	0.866612	0.527299
H161	H	-0.857600	0.372010	0.041872
H162	H	-0.357600	0.872010	0.541872
H163	H	-0.913463	0.374859	-0.069221
H164	H	-0.413463	0.874859	0.430779
O165	O	-0.920870	0.104586	0.000013
O166	O	-0.420870	0.604586	0.500013
C167	C	-0.842241	0.150080	-0.000012
C168	C	-0.342241	0.650080	0.499988
H169	H	-0.859711	0.209797	0.027303
H170	H	-0.359711	0.709797	0.527303
H171	H	-0.783989	0.118005	0.041867
H172	H	-0.283989	0.618005	0.541867
H173	H	-0.819442	0.159224	-0.069223
H174	H	-0.319442	0.659224	0.430777
H175	H	-1.215342	-0.002252	0.786239
H176	H	-0.715342	0.497748	1.286239
