data_functionalizedCrystal
_audit_creation_method	'MofGen! by Chris Wilmer'
_symmetry_space_group_name_H-M	'P1'
_symmetry_Int_Tables_number	1
_symmetry_cell_setting	triclinic
loop_
_symmetry_equiv_pos_as_xyz
  x,y,z
_cell_length_a	14.044202
_cell_length_b	13.101018
_cell_length_c	16.992695
_cell_angle_alpha	86.412154
_cell_angle_beta	88.069538
_cell_angle_gamma	86.333184
loop_
_atom_site_label
_atom_site_type_symbol
_atom_site_fract_x
_atom_site_fract_y
_atom_site_fract_z
O1	O	-1.277022	0.085164	0.186101
O2	O	-0.943688	0.418498	0.519434
O3	O	-0.610355	0.751831	0.852767
O4	O	-1.000533	0.085178	0.179235
O5	O	-0.667200	0.418511	0.512568
O6	O	-0.333866	0.751844	0.845901
O7	O	-1.137669	0.085163	0.068448
O8	O	-0.804335	0.418496	0.401781
O9	O	-0.471002	0.751830	0.735114
O10	O	-1.139886	0.085179	0.296887
O11	O	-0.806553	0.418512	0.630221
O12	O	-0.473220	0.751846	0.963554
O13	O	-1.127818	-0.085266	0.076403
O14	O	-0.794484	0.248067	0.409737
O15	O	-0.461151	0.581400	0.743070
O16	O	-0.990682	-0.085252	0.187190
O17	O	-0.657349	0.248082	0.520524
O18	O	-0.324016	0.581415	0.853857
O19	O	-1.267171	-0.085265	0.194056
O20	O	-0.933838	0.248068	0.527390
O21	O	-0.600504	0.581402	0.860723
Zn22	Zn	-1.127363	-0.112318	0.191886
Zn23	Zn	-0.794029	0.221016	0.525220
Zn24	Zn	-0.460696	0.554349	0.858553
Zn25	Zn	-1.140341	0.112230	0.181404
Zn26	Zn	-0.807008	0.445564	0.514738
Zn27	Zn	-0.473675	0.778897	0.848071
O28	O	-1.130035	-0.085250	0.304843
O29	O	-0.796702	0.248083	0.638176
O30	O	-0.463369	0.581416	0.971510
C31	C	-0.960066	-0.000035	0.180209
C32	C	-0.626733	0.333298	0.513543
C33	C	-0.293399	0.666631	0.846876
C34	C	-0.854162	-0.000030	0.171252
C35	C	-0.520828	0.333303	0.504586
C36	C	-0.187495	0.666636	0.837919
C37	C	-0.607446	-0.000037	0.218397
C38	C	-0.274113	0.333296	0.551730
C39	C	0.059220	0.666630	0.885064
C40	C	-0.660265	-0.000040	0.154890
C41	C	-0.326931	0.333294	0.488223
C42	C	0.006402	0.666627	0.821557
C43	C	-0.768159	-0.000034	0.163996
C44	C	-0.434826	0.333299	0.497329
C45	C	-0.101492	0.666632	0.830663
C46	C	-0.499542	-0.000042	0.209292
C47	C	-0.166209	0.333291	0.542626
C48	C	0.167125	0.666625	0.875959
N49	N	-1.118512	-0.265566	0.199040
N50	N	-0.785178	0.067768	0.532373
N51	N	-0.451845	0.401101	0.865707
C52	C	-1.129891	-0.000051	0.043013
C53	C	-0.796558	0.333282	0.376347
C54	C	-0.463225	0.666615	0.709680
C55	C	-1.121383	-0.000051	-0.044626
C56	C	-0.788049	0.333283	0.288707
C57	C	-0.454716	0.666616	0.622041
C58	C	-0.307638	-0.000049	0.193080
C59	C	0.025695	0.333284	0.526413
C60	C	0.359028	0.666617	0.859746
C61	C	-0.413543	-0.000046	0.202031
C62	C	-0.080210	0.333287	0.535365
C63	C	0.253123	0.666620	0.868698
C64	C	-1.161236	-0.525480	0.164509
C65	C	-0.827903	-0.192146	0.497842
C66	C	-0.494569	0.141187	0.831176
C67	C	-1.106478	-0.474601	0.208774
C68	C	-0.773145	-0.141268	0.542107
C69	C	-0.439811	0.192066	0.875440
C70	C	-1.113175	-0.358283	0.203356
C71	C	-0.779842	-0.024950	0.536690
C72	C	-0.446509	0.308384	0.870023
C73	C	-1.154540	-0.641808	0.169925
C74	C	-0.821206	-0.308475	0.503259
C75	C	-0.487873	0.024858	0.836592
N76	N	-1.149199	0.265478	0.174245
N77	N	-0.815866	0.598812	0.507579
N78	N	-0.482533	0.932145	0.840912
C79	C	-1.203479	-0.000056	-0.089122
C80	C	-0.870146	0.333278	0.244211
C81	C	-0.536813	0.666611	0.577545
C82	C	-1.195480	-0.000046	-0.171469
C83	C	-0.862146	0.333288	0.161865
C84	C	-0.528813	0.666621	0.495198
C85	C	-1.105382	-0.000038	-0.209318
C86	C	-0.772048	0.333295	0.124015
C87	C	-0.438715	0.666629	0.457349
C88	C	-1.023279	-0.000030	-0.164816
C89	C	-0.689946	0.333304	0.168517
C90	C	-0.356612	0.666637	0.501850
C91	C	-1.031280	-0.000033	-0.082471
C92	C	-0.697947	0.333301	0.250862
C93	C	-0.364614	0.666634	0.584195
C94	C	-1.072220	-0.000022	-0.455237
C95	C	-0.738887	0.333311	-0.121903
C96	C	-0.405554	0.666645	0.211430
C97	C	-1.064225	-0.000022	-0.537588
C98	C	-0.730892	0.333311	-0.204254
C99	C	-0.397558	0.666644	0.129079
C100	C	-1.236426	-0.000036	-0.544235
C101	C	-0.903093	0.333297	-0.210901
C102	C	-0.569760	0.666630	0.122432
C103	C	-1.244419	-0.000045	-0.461888
C104	C	-0.911086	0.333288	-0.128554
C105	C	-0.577753	0.666621	0.204779
C106	C	-1.162317	-0.000032	-0.417393
C107	C	-0.828984	0.333301	-0.084060
C108	C	-0.495650	0.666635	0.249273
N109	N	-1.097202	-0.000031	-0.293489
N110	N	-0.763869	0.333303	0.039844
N111	N	-0.430536	0.666636	0.373177
N112	N	-1.170498	-0.000032	-0.333224
N113	N	-0.837164	0.333302	0.000110
N114	N	-0.503831	0.666635	0.333443
C115	C	-1.137813	-0.000034	0.330277
C116	C	-0.804479	0.333300	0.663611
C117	C	-0.471146	0.666633	0.996944
C118	C	-1.146322	-0.000027	0.417916
C119	C	-0.812988	0.333306	0.751250
C120	C	-0.479655	0.666639	1.084583
H121	H	-1.054569	-0.518400	0.250739
H122	H	-0.721236	-0.185067	0.584072
H123	H	-0.387902	0.148266	0.917405
H124	H	-1.213143	-0.481685	0.122548
H125	H	-0.879810	-0.148352	0.455881
H126	H	-0.546476	0.184981	0.789215
C127	C	-0.940967	-0.000029	-0.033526
C128	C	-0.607634	0.333304	0.299807
C129	C	-0.274300	0.666637	0.633141
N130	N	-0.872940	-0.000024	0.003339
N131	N	-0.539607	0.333309	0.336672
N132	N	-0.206273	0.666642	0.670005
C133	C	-1.302595	-0.000064	-0.047496
C134	C	-0.969261	0.333269	0.285838
C135	C	-0.635928	0.666602	0.619171
N136	N	-1.377252	-0.000066	-0.016146
N137	N	-1.043918	0.333267	0.317188
N138	N	-0.710585	0.666600	0.650521
H139	H	-1.303269	-0.000046	-0.580471
H140	H	-0.969936	0.333288	-0.247137
H141	H	-0.636603	0.666621	0.086196
C142	C	-0.655826	-0.000021	0.301083
C143	C	-0.322493	0.333313	0.634416
C144	C	0.010841	0.666646	0.967749
N145	N	-0.692277	-0.000004	0.363360
N146	N	-0.358943	0.333329	0.696694
N147	N	-0.025610	0.666663	1.030027
C148	C	-0.611886	-0.000037	0.072198
C149	C	-0.278553	0.333297	0.405531
C150	C	0.054780	0.666630	0.738865
N151	N	-0.575444	-0.000028	0.009916
N152	N	-0.242111	0.333305	0.343250
N153	N	0.091223	0.666638	0.676583
C154	C	-0.924170	-0.000030	-0.206453
C155	C	-0.590836	0.333304	0.126881
C156	C	-0.257503	0.666637	0.460214
N157	N	-0.849518	-0.000037	-0.237812
N158	N	-0.516185	0.333296	0.095521
N159	N	-0.182851	0.666629	0.428854
C160	C	-1.285792	-0.000068	-0.220410
C161	C	-0.952459	0.333265	0.112923
C162	C	-0.619126	0.666599	0.446257
N163	N	-1.353820	-0.000090	-0.257272
N164	N	-1.020487	0.333244	0.076061
N165	N	-0.687153	0.666577	0.409395
C166	C	-0.965107	-0.000006	-0.579220
C167	C	-0.631773	0.333327	-0.245887
C168	C	-0.298440	0.666660	0.087447
N169	N	-0.890455	0.000006	-0.610578
N170	N	-0.557121	0.333340	-0.277244
N171	N	-0.223788	0.666673	0.056089
H172	H	-1.317786	-0.000052	-0.431077
H173	H	-0.984453	0.333281	-0.097743
H174	H	-0.651120	0.666615	0.235590
C175	C	-0.981904	-0.000002	-0.406304
C176	C	-0.648571	0.333332	-0.072971
C177	C	-0.315238	0.666665	0.260363
N178	N	-0.913874	0.000017	-0.369445
N179	N	-0.580541	0.333350	-0.036112
N180	N	-0.247207	0.666683	0.297222
