data_functionalizedCrystal
_audit_creation_method	'MofGen! by Chris Wilmer'
_symmetry_space_group_name_H-M	'P1'
_symmetry_Int_Tables_number	1
_symmetry_cell_setting	triclinic
loop_
_symmetry_equiv_pos_as_xyz
  x,y,z
_cell_length_a	13.635800
_cell_length_b	10.943574
_cell_length_c	11.102291
_cell_angle_alpha	88.139368
_cell_angle_beta	108.605752
_cell_angle_gamma	71.162154
loop_
_atom_site_label
_atom_site_type_symbol
_atom_site_fract_x
_atom_site_fract_y
_atom_site_fract_z
V1	V	2.056374	-0.178646	0.396232
O2	O	2.035257	0.008568	0.388717
O3	O	2.045357	-0.354210	0.393495
O4	O	2.044757	-0.175906	0.569054
O5	O	2.035861	-0.170970	0.211942
V6	V	2.294850	-0.156253	0.374193
O7	O	2.194212	-0.227769	0.444577
O8	O	2.382110	-0.107130	0.325848
O9	O	2.194263	0.019311	0.376929
O10	O	2.374666	-0.343467	0.381707
O11	O	2.374062	-0.163929	0.558482
O12	O	2.194863	-0.158993	0.201370
V13	V	2.556374	-0.178646	0.396232
O14	O	2.535257	0.008568	0.388717
O15	O	2.545357	-0.354210	0.393495
O16	O	2.544757	-0.175906	0.569054
O17	O	2.535861	-0.170970	0.211942
V18	V	2.794850	-0.156253	0.374193
O19	O	2.694212	-0.227769	0.444577
O20	O	2.882110	-0.107130	0.325848
O21	O	2.694263	0.019311	0.376929
O22	O	2.874666	-0.343467	0.381707
O23	O	2.874062	-0.163929	0.558482
O24	O	2.694863	-0.158993	0.201370
C25	C	1.970657	-0.397008	0.387237
C26	C	2.002377	-0.540534	0.386152
C27	C	1.943820	-0.703537	0.378269
C28	C	2.000130	-0.637742	0.487493
C29	C	1.945633	-0.604427	0.276991
C30	C	2.115286	-0.730483	0.493574
C31	C	2.060753	-0.697160	0.282976
C32	C	2.117149	-0.631414	0.392230
C33	C	1.969892	-0.169562	0.611179
C34	C	2.001122	-0.168483	0.752462
C35	C	2.100634	0.062102	0.383184
C36	C	2.058535	0.205626	0.384277
C37	C	2.101400	-0.165341	0.159239
C38	C	2.059788	-0.166414	0.017954
C39	C	2.470657	-0.397008	0.387237
C40	C	2.502377	-0.540534	0.386152
C41	C	2.469892	-0.169562	0.611179
C42	C	2.501122	-0.168483	0.752462
C43	C	2.107820	-0.174415	0.825310
C44	C	2.137152	-0.173376	0.958056
C45	C	1.953080	-0.160477	0.945097
C46	C	1.923747	-0.161507	0.812351
C47	C	2.214094	-0.181868	0.832793
C48	C	2.243426	-0.180828	0.965540
C49	C	2.600634	0.062102	0.383184
C50	C	2.558535	0.205626	0.384277
C51	C	2.601400	-0.165341	0.159239
C52	C	2.559788	-0.166414	0.017954
C53	C	2.609305	-0.614538	0.391981
C54	C	2.639106	-0.749397	0.390972
C55	C	2.455038	-0.736233	0.378299
C56	C	2.425242	-0.601378	0.379317
C57	C	2.715574	-0.622139	0.399292
C58	C	2.745374	-0.756998	0.398283
C59	C	2.607820	-0.174415	0.825310
C60	C	2.637152	-0.173376	0.958056
C61	C	2.453080	-0.160477	0.945097
C62	C	2.423747	-0.161507	0.812351
C63	C	2.714094	-0.181868	0.832793
C64	C	2.743426	-0.180828	0.965540
H65	H	1.974209	-0.611215	0.573978
C66	C	2.834676	-0.836432	0.525454
H67	H	2.852244	-0.927045	0.520420
H68	H	2.899125	-0.814612	0.540204
H69	H	2.807735	-0.816660	0.594194
C70	C	2.095737	-0.733070	0.166147
H71	H	2.170227	-0.791455	0.194969
H72	H	2.049165	-0.773783	0.113938
H73	H	2.089410	-0.656123	0.117458
H74	H	2.392242	-0.785789	0.372736
H75	H	2.771442	-0.602617	0.491724
H76	H	2.715424	-0.568063	0.309691
H77	H	2.771113	-0.782360	0.311463
H78	H	1.873584	-0.549705	0.185487
H79	H	2.336867	-0.156678	0.753044
C80	C	2.267654	-0.057009	1.004893
H81	H	2.287117	-0.060510	1.095410
H82	H	2.327072	-0.051998	0.980344
H83	H	2.203702	0.017873	0.963217
H84	H	1.836867	-0.156678	0.753044
H85	H	1.890087	-0.154795	0.993874
C86	C	2.767654	-0.057009	1.004893
H87	H	2.787117	-0.060510	1.095410
H88	H	2.827072	-0.051998	0.980344
H89	H	2.703702	0.017873	0.963217
C90	C	2.726843	-0.063496	0.769173
H91	H	2.706949	-0.064211	0.679095
H92	H	2.679988	0.014772	0.785182
H93	H	2.801471	-0.068040	0.803983
H94	H	2.390087	-0.154795	0.993874
H95	H	2.762118	-0.278150	0.808315
H96	H	2.262118	-0.278150	0.808315
C97	C	2.226843	-0.063496	0.769173
H98	H	2.206949	-0.064211	0.679095
H99	H	2.179988	0.014772	0.785182
H100	H	2.301471	-0.068040	0.803983
C101	C	2.340909	-0.306934	1.036921
H102	H	2.361088	-0.359508	0.976197
H103	H	2.402123	-0.285307	1.087078
H104	H	2.319641	-0.353799	1.091512
H105	H	2.338177	-0.541130	0.374586
C106	C	2.840905	-0.306936	1.036927
H107	H	2.860811	-0.306219	1.127006
H108	H	2.819784	-0.380430	1.016132
H109	H	2.902267	-0.311940	1.011698
C110	C	2.212525	-0.804176	0.617341
H111	H	2.232221	-0.895550	0.615929
H112	H	2.274051	-0.779000	0.622563
H113	H	2.191280	-0.783457	0.689894
H114	H	1.870904	-0.735447	0.372489
C115	C	2.215855	-0.588647	0.400258
H116	H	2.275766	-0.632479	0.477228
H117	H	2.237857	-0.610081	0.328329
H118	H	2.194837	-0.496987	0.400200
