data_functionalizedCrystal
_audit_creation_method	'MofGen! by Chris Wilmer'
_symmetry_space_group_name_H-M	'P1'
_symmetry_Int_Tables_number	1
_symmetry_cell_setting	triclinic
loop_
_symmetry_equiv_pos_as_xyz
  x,y,z
_cell_length_a	11.792241
_cell_length_b	17.699097
_cell_length_c	16.176319
_cell_angle_alpha	89.988988
_cell_angle_beta	89.993071
_cell_angle_gamma	83.740923
loop_
_atom_site_label
_atom_site_type_symbol
_atom_site_fract_x
_atom_site_fract_y
_atom_site_fract_z
O1	O	0.143599	1.004838	-0.068816
O2	O	0.162256	0.784560	-0.068802
O3	O	-0.012307	0.900045	-0.068803
O4	O	0.318162	0.889354	-0.068814
O5	O	-0.012318	0.900029	0.068690
O6	O	0.162245	0.784544	0.068691
O7	O	0.143588	1.004822	0.068678
Cu8	Cu	0.152915	0.894682	0.081239
Cu9	Cu	0.152928	0.894700	-0.081363
O10	O	0.318150	0.889337	0.068679
C11	C	0.161579	0.756352	-0.000054
C12	C	0.159566	0.672324	-0.000049
C13	C	0.147232	0.156548	-0.075029
C14	C	0.149116	0.235502	-0.075025
C15	C	0.150053	0.274965	-0.000074
C16	C	0.149096	0.235470	0.074878
C17	C	0.147204	0.156518	0.074873
C18	C	0.156724	0.553874	0.074899
C19	C	0.158620	0.632832	0.074898
C20	C	0.158636	0.632859	-0.074999
C21	C	0.156744	0.553907	-0.075004
C22	C	0.155781	0.514420	-0.000052
C23	C	0.153736	0.428809	-0.000058
C24	C	0.152106	0.360573	-0.000068
C25	C	-0.054595	0.899365	-0.000057
C26	C	-0.180585	0.897355	-0.000058
C27	C	-0.411253	0.893659	-0.000071
C28	C	-0.282893	0.895712	-0.000064
C29	C	0.360439	0.890017	-0.000069
C30	C	0.486429	0.892027	-0.000074
C31	C	0.144264	1.033030	-0.000073
C32	C	0.146278	1.117058	-0.000083
N33	N	0.152905	0.894674	0.195604
N34	N	0.152929	0.894714	-0.195728
C35	C	0.075640	0.945826	0.238867
C36	C	0.075639	0.945830	0.325414
C37	C	0.152909	0.894684	0.368696
C38	C	0.230178	0.843527	0.325427
C39	C	0.230173	0.843520	0.238881
C40	C	0.230199	0.843553	0.674455
C41	C	0.230201	0.843565	0.761006
C42	C	0.075666	0.945863	0.760988
C43	C	0.075660	0.945856	0.674443
C44	C	0.152925	0.894696	0.631181
C45	C	0.152923	0.894691	0.537336
C46	C	0.152917	0.894692	0.462539
H47	H	0.146476	0.124423	-0.136063
N48	N	0.150165	0.278091	-0.155861
H49	H	0.151503	0.334095	-0.144488
H50	H	0.079513	0.270143	-0.188597
N51	N	0.313538	0.788390	0.807687
H52	H	0.270216	0.754716	0.843612
H53	H	0.363727	0.817568	0.843531
H54	H	0.012724	0.987481	0.360639
N55	N	0.313524	0.788372	0.627800
H56	H	0.362473	0.755975	0.668354
H57	H	0.363650	0.817539	0.591871
H58	H	0.149852	0.267607	0.135904
H59	H	0.146438	0.124365	0.135901
N60	N	0.313511	0.788361	0.372111
H61	H	0.363716	0.817488	0.408002
H62	H	0.362380	0.755965	0.331520
N63	N	0.155688	0.511287	0.155734
H64	H	0.155770	0.548331	0.203213
H65	H	0.225640	0.473047	0.159248
N66	N	-0.007675	1.001022	0.627760
H67	H	-0.056625	1.033427	0.668301
H68	H	-0.057799	0.971840	0.591867
N69	N	0.313502	0.788345	0.192214
H70	H	0.362454	0.755946	0.232763
H71	H	0.363625	0.817516	0.156287
H72	H	0.012723	0.987477	0.203633
N73	N	0.155734	0.511344	-0.155843
H74	H	0.156621	0.548342	-0.203322
H75	H	0.084617	0.484436	-0.159103
H76	H	0.159383	0.664960	0.135936
N77	N	0.159670	0.675450	-0.155842
H78	H	0.161006	0.731454	-0.144471
H79	H	0.089014	0.667499	-0.188572
N80	N	-0.007675	1.001043	0.807649
H81	H	0.004046	0.993289	0.869043
H82	H	-0.088177	0.991976	0.792532
