data_functionalizedCrystal
_audit_creation_method	'MofGen! by Chris Wilmer'
_symmetry_space_group_name_H-M	'P1'
_symmetry_Int_Tables_number	1
_symmetry_cell_setting	triclinic
loop_
_symmetry_equiv_pos_as_xyz
  x,y,z
_cell_length_a	9.065215
_cell_length_b	10.065875
_cell_length_c	9.065218
_cell_angle_alpha	81.078217
_cell_angle_beta	85.015291
_cell_angle_gamma	98.877767
loop_
_atom_site_label
_atom_site_type_symbol
_atom_site_fract_x
_atom_site_fract_y
_atom_site_fract_z
O1	O	1.981699	0.113472	0.194939
O2	O	2.481699	0.613472	0.694939
O3	O	1.552415	0.113477	0.212689
O4	O	2.052415	0.613477	0.712689
O5	O	1.775930	0.113472	-0.010828
O6	O	2.275930	0.613472	0.489172
O7	O	1.758185	0.113478	0.418456
O8	O	2.258185	0.613478	0.918456
O9	O	1.733311	-0.113516	0.031967
O10	O	2.233311	0.386484	0.531967
O11	O	1.509796	-0.113510	0.255484
O12	O	2.009796	0.386490	0.755484
O13	O	1.939080	-0.113516	0.237734
O14	O	2.439080	0.386484	0.737734
Zn15	Zn	1.717672	-0.149552	0.253404
Zn16	Zn	2.217672	0.350448	0.753404
Zn17	Zn	1.773824	0.149514	0.197020
Zn18	Zn	2.273824	0.649514	0.697020
O19	O	1.715566	-0.113510	0.461251
O20	O	2.215566	0.386490	0.961251
C21	C	1.476119	-0.000016	0.232382
C22	C	1.976119	0.499984	0.732382
C23	C	1.312276	-0.000013	0.227283
C24	C	1.812276	0.499987	0.727283
N25	N	1.679360	-0.353657	0.291884
N26	N	2.179360	0.146343	0.791884
C27	C	1.760485	-0.421438	0.210399
C28	C	2.260485	0.078562	0.710399
C29	C	1.731011	-0.578604	0.240025
C30	C	2.231011	-0.078604	0.740025
C31	C	2.015377	-0.000020	0.218042
C32	C	2.515377	0.499980	0.718042
C33	C	2.179221	-0.000013	0.223138
C34	C	2.679221	0.499987	0.723138
C35	C	1.752915	-0.000020	-0.044417
C36	C	2.252915	0.499980	0.455583
C37	C	1.747817	-0.000013	-0.208261
C38	C	2.247817	0.499987	0.291739
N39	N	1.812147	0.353618	0.158528
N40	N	2.312147	0.853618	0.658528
C41	C	1.738581	-0.000016	0.494840
C42	C	2.238581	0.499984	0.994840
C43	C	1.743681	-0.000013	0.658683
C44	C	2.243681	0.499987	1.158683
H45	H	1.851754	-0.363116	0.118696
H46	H	2.351754	0.136884	0.618696
C47	C	1.607701	-0.657378	0.363909
C48	C	2.107701	-0.157378	0.863909
H49	H	1.604075	-0.752677	0.367577
H50	H	2.104075	-0.252677	0.867577
H51	H	1.513293	-0.634045	0.342424
H52	H	2.013293	-0.134045	0.842424
H53	H	1.629686	-0.634025	0.458165
H54	H	2.129686	-0.134025	0.958165
H55	H	1.903422	-0.588063	0.066820
H56	H	2.403422	-0.088063	0.566820
H57	H	1.588080	-0.411981	0.383575
H58	H	2.088080	0.088019	0.883575
