data_functionalizedCrystal
_audit_creation_method	'MofGen! by Chris Wilmer'
_symmetry_space_group_name_H-M	'P1'
_symmetry_Int_Tables_number	1
_symmetry_cell_setting	triclinic
loop_
_symmetry_equiv_pos_as_xyz
  x,y,z
_cell_length_a	14.044220
_cell_length_b	16.974800
_cell_length_c	16.053802
_cell_angle_alpha	91.074188
_cell_angle_beta	87.198230
_cell_angle_gamma	91.720658
loop_
_atom_site_label
_atom_site_type_symbol
_atom_site_fract_x
_atom_site_fract_y
_atom_site_fract_z
O1	O	-0.120850	1.057573	0.002057
O2	O	0.212483	1.390907	0.335391
O3	O	0.545817	1.724240	0.668724
O4	O	-0.135363	0.829132	-0.013385
O5	O	0.197971	1.162465	0.319948
O6	O	0.531304	1.495799	0.653281
O7	O	0.009887	0.939924	-0.005892
O8	O	0.343220	1.273257	0.327441
O9	O	0.676553	1.606590	0.660774
O10	O	-0.266099	0.946782	-0.005436
O11	O	0.067234	1.280115	0.327897
O12	O	0.400567	1.613448	0.661231
O13	O	0.001925	0.933823	0.132554
O14	O	0.335258	1.267156	0.465887
O15	O	0.668591	1.600490	0.799221
O16	O	-0.143325	0.823032	0.125061
O17	O	0.190009	1.156365	0.458394
O18	O	0.523342	1.489698	0.791728
O19	O	-0.128812	1.051473	0.140504
O20	O	0.204521	1.384806	0.473837
O21	O	0.537855	1.718139	0.807170
Zn22	Zn	-0.137332	0.936284	0.154764
Zn23	Zn	0.196001	1.269617	0.488097
Zn24	Zn	0.529334	1.602950	0.821430
Zn25	Zn	-0.126842	0.944321	-0.027645
Zn26	Zn	0.206491	1.277655	0.305688
Zn27	Zn	0.539824	1.610988	0.639021
O28	O	-0.274061	0.940681	0.133010
O29	O	0.059272	1.274015	0.466344
O30	O	0.392605	1.607348	0.799677
C31	C	-0.138646	0.796670	0.053850
C32	C	0.194687	1.130003	0.387183
C33	C	0.528021	1.463336	0.720516
C34	C	-0.136555	0.709030	0.047925
C35	C	0.196778	1.042363	0.381258
C36	C	0.530111	1.375697	0.714592
C37	C	-0.139911	0.664536	0.120611
C38	C	0.193422	0.997869	0.453944
C39	C	0.526756	1.331203	0.787278
C40	C	-0.137932	0.582190	0.115047
C41	C	0.195402	0.915523	0.448380
C42	C	0.528735	1.248856	0.781713
C43	C	-0.132604	0.544339	0.036796
C44	C	0.200730	0.877672	0.370129
C45	C	0.534063	1.211005	0.703463
C46	C	-0.129245	0.588839	-0.035895
C47	C	0.204088	0.922172	0.297438
C48	C	0.537422	1.255506	0.630771
C49	C	-0.131217	0.671184	-0.030330
C50	C	0.202116	1.004517	0.303003
C51	C	0.535449	1.337851	0.636336
C52	C	-0.126233	0.298420	0.012060
C53	C	0.207101	0.631754	0.345393
C54	C	0.540434	0.965087	0.678726
C55	C	-0.124263	0.216069	0.006500
C56	C	0.209070	0.549403	0.339833
C57	C	0.542404	0.882736	0.673167
C58	C	-0.132948	0.209426	0.157443
C59	C	0.200385	0.542759	0.490776
C60	C	0.533718	0.876092	0.824109
C61	C	-0.134926	0.291772	0.163001
C62	C	0.198407	0.625106	0.496334
C63	C	0.531740	0.958439	0.829667
C64	C	-0.131562	0.336265	0.090310
C65	C	0.201771	0.669599	0.423643
C66	C	0.535104	1.002932	0.756976
N67	N	-0.130583	0.460168	0.031106
N68	N	0.202750	0.793501	0.364440
N69	N	0.536083	1.126834	0.697773
N70	N	-0.133576	0.420435	0.096000
N71	N	0.199758	0.753769	0.429333
N72	N	0.533091	1.087102	0.762667
C73	C	-0.305402	0.946733	0.063989
C74	C	0.027931	1.280067	0.397322
C75	C	0.361264	1.613400	0.730656
C76	C	-0.410650	0.955688	0.064591
C77	C	-0.077317	1.289021	0.397925
C78	C	0.256016	1.622354	0.731258
C79	C	-0.603353	0.972058	0.065702
C80	C	-0.270020	1.305391	0.399035
C81	C	0.063313	1.638724	0.732368
C82	C	-0.660827	0.908551	0.061409
C83	C	-0.327493	1.241884	0.394743
C84	C	0.005840	1.575218	0.728076
C85	C	-0.768053	0.917660	0.062027
C86	C	-0.434720	1.250993	0.395361
C87	C	-0.101386	1.584326	0.728694
C88	C	-0.496117	0.962950	0.065084
C89	C	-0.162783	1.296284	0.398417
C90	C	0.170550	1.629617	0.731751
C91	C	0.041228	0.933872	0.063127
C92	C	0.374561	1.267205	0.396461
C93	C	0.707894	1.600538	0.729794
C94	C	0.146476	0.924918	0.062519
C95	C	0.479810	1.258251	0.395853
C96	C	0.813143	1.591584	0.729186
C97	C	-0.125529	1.083935	0.073267
C98	C	0.207805	1.417269	0.406600
C99	C	0.541138	1.750602	0.739933
C100	C	-0.127619	1.171575	0.079186
C101	C	0.205715	1.504908	0.412519
C102	C	0.539048	1.838242	0.745852
N103	N	-0.144491	0.930804	0.279253
N104	N	0.188842	1.264137	0.612587
N105	N	0.522176	1.597470	0.945920
N106	N	-0.119676	0.949807	-0.152135
N107	N	0.213657	1.283140	0.181199
N108	N	0.546991	1.616474	0.514532
C109	C	-0.082709	0.977966	0.326137
C110	C	0.250624	1.311299	0.659470
C111	C	0.583957	1.644633	0.992804
C112	C	-0.087726	0.974141	0.413285
C113	C	0.245607	1.307474	0.746618
C114	C	0.578941	1.640807	1.079952
C115	C	-0.154530	0.923157	0.453548
C116	C	0.178804	1.256490	0.786881
C117	C	0.512137	1.589823	1.120215
C118	C	-0.216314	0.875989	0.406658
C119	C	0.117019	1.209322	0.739991
C120	C	0.450353	1.542656	1.073325
C121	C	-0.211292	0.879811	0.319511
C122	C	0.122041	1.213144	0.652844
C123	C	0.455374	1.546478	0.986178
C124	C	-0.176439	0.906461	0.713828
C125	C	0.156895	1.239794	1.047162
C126	C	0.490228	1.573128	1.380495
C127	C	-0.181458	0.902645	0.800982
C128	C	0.151876	1.235978	1.134315
C129	C	0.485209	1.569311	1.467648
C130	C	-0.052868	1.000796	0.807603
C131	C	0.280465	1.334129	1.140936
C132	C	0.613799	1.667462	1.474269
C133	C	-0.047856	1.004616	0.720454
C134	C	0.285477	1.337950	1.053788
C135	C	0.618811	1.671283	1.387121
C136	C	-0.109637	0.957446	0.673571
C137	C	0.223696	1.290779	1.006905
C138	C	0.557030	1.624112	1.340238
N139	N	-0.159661	0.919247	0.542627
N140	N	0.173672	1.252581	0.875961
N141	N	0.507006	1.585914	1.209294
N142	N	-0.104500	0.961352	0.584493
N143	N	0.228833	1.294685	0.917827
N144	N	0.562166	1.628018	1.251160
H145	H	-0.119927	0.185254	-0.057224
H146	H	0.213406	0.518587	0.276109
H147	H	0.546740	0.851921	0.609442
F148	F	0.023243	1.058879	0.677605
F149	F	0.356576	1.392213	1.010938
F150	F	0.689909	1.725546	1.344271
F151	F	-0.127642	0.718538	-0.107693
F152	F	0.205691	1.051871	0.225641
F153	F	0.539024	1.385205	0.558974
F154	F	-0.644295	1.052059	0.071113
F155	F	-0.310962	1.385392	0.404446
F156	F	0.022372	1.718725	0.737779
F157	F	-0.277047	0.829611	0.269615
F158	F	0.056287	1.162945	0.602948
F159	F	0.389620	1.496278	0.936282
F160	F	-0.122653	0.345763	-0.065306
F161	F	0.210680	0.679096	0.268028
F162	F	0.544013	1.012430	0.601361
F163	F	-0.123545	0.548554	-0.119176
F164	F	0.209788	0.881888	0.214157
F165	F	0.543121	1.215221	0.547491
H166	H	-0.235861	0.861125	0.833759
H167	H	0.097472	1.194459	1.167093
H168	H	0.430805	1.527792	1.500426
H169	H	-0.629502	0.847341	0.057272
H170	H	-0.296168	1.180674	0.390605
H171	H	0.037165	1.514007	0.723939
H172	H	-0.028315	1.019486	0.293361
H173	H	0.305019	1.352819	0.626694
H174	H	0.638352	1.686153	0.960028
F175	F	-0.021970	1.024335	0.463182
F176	F	0.311363	1.357668	0.796516
F177	F	0.644697	1.691002	1.129849
F178	F	0.012882	1.050993	0.857503
F179	F	0.346215	1.384326	1.190837
F180	F	0.679548	1.717659	1.524170
F181	F	-0.287408	0.821723	0.449509
F182	F	0.045925	1.155057	0.782842
F183	F	0.379259	1.488390	1.116176
H184	H	-0.140649	0.545966	0.174235
H185	H	0.192685	0.879300	0.507569
H186	H	0.526018	1.212633	0.840902
F187	F	-0.145588	0.704812	0.203897
F188	F	0.187745	1.038145	0.537230
F189	F	0.521078	1.371478	0.870563
F190	F	-0.140602	0.332050	0.246286
F191	F	0.192731	0.665383	0.579619
F192	F	0.526064	0.998716	0.912953
F193	F	-0.242193	0.856261	0.663939
F194	F	0.091141	1.189595	0.997273
F195	F	0.424474	1.522928	1.330606
H196	H	-0.135685	0.173191	0.216623
H197	H	0.197648	0.506524	0.549957
H198	H	0.530981	0.839857	0.883290
