data_functionalizedCrystal
_audit_creation_method	'MofGen! by Chris Wilmer'
_symmetry_space_group_name_H-M	'P1'
_symmetry_Int_Tables_number	1
_symmetry_cell_setting	triclinic
loop_
_symmetry_equiv_pos_as_xyz
  x,y,z
_cell_length_a	17.639617
_cell_length_b	12.645330
_cell_length_c	17.640968
_cell_angle_alpha	78.769775
_cell_angle_beta	70.333968
_cell_angle_gamma	101.198371
loop_
_atom_site_label
_atom_site_type_symbol
_atom_site_fract_x
_atom_site_fract_y
_atom_site_fract_z
Zn1	Zn	1.354367	0.140213	-0.721238
Zn2	Zn	1.326428	-0.082012	-0.583405
Zn3	Zn	1.188668	0.050377	-0.555513
Zn4	Zn	1.216518	-0.081909	-0.693287
O5	O	1.271495	0.006667	-0.638361
O6	O	1.466004	0.148288	-0.726324
O7	O	1.284807	-0.102091	-0.464362
O8	O	1.210686	0.210658	-0.577521
O9	O	1.445478	-0.014980	-0.625059
O10	O	1.332424	0.276660	-0.699278
O11	O	1.183595	-0.004825	-0.443870
O12	O	1.077019	-0.004725	-0.550419
O13	O	1.258151	-0.014804	-0.812338
O14	O	1.097480	-0.101914	-0.651641
O15	O	1.359428	0.148388	-0.832873
O16	O	1.311811	-0.230362	-0.597957
O17	O	1.231060	-0.230287	-0.678687
C18	C	1.057343	-0.063057	-0.594971
C19	C	0.965731	-0.092905	-0.576428
C20	C	0.717914	0.233506	-0.779433
C21	C	0.631828	0.205427	-0.761992
C22	C	0.610445	0.035592	-0.656393
C23	C	0.696532	0.063653	-0.673827
C24	C	0.750260	0.162612	-0.735348
C25	C	0.728877	-0.007240	-0.629742
C26	C	0.814956	0.020822	-0.647173
C27	C	0.868689	0.119778	-0.708688
C28	C	0.836338	0.190675	-0.752778
C29	C	0.675147	-0.106195	-0.568218
C30	C	0.707493	-0.177088	-0.524133
C31	C	0.793574	-0.149030	-0.541567
C32	C	0.847307	-0.050074	-0.603083
C33	C	0.825924	-0.219926	-0.497477
C34	C	0.912003	-0.191864	-0.514908
C35	C	0.933385	-0.022012	-0.620513
C36	C	1.271452	-0.268780	-0.638338
C37	C	1.271515	-0.386585	-0.638371
C38	C	1.322399	-0.431428	-0.587653
C39	C	1.322207	-0.554110	-0.587397
C40	C	1.179936	-0.590483	-0.597441
C41	C	1.180166	-0.467937	-0.597023
C42	C	1.311578	-0.395948	-0.730090
C43	C	1.313447	-0.518060	-0.730045
C44	C	1.486484	0.076663	-0.681920
C45	C	1.578100	0.106492	-0.700483
C46	C	1.315013	0.076825	-0.853349
C47	C	1.333557	0.106722	-0.944964
C48	C	1.271565	0.283203	-0.638406
C49	C	1.271594	0.401047	-0.638425
C50	C	1.130931	-0.219777	-1.192823
C51	C	1.148374	-0.191665	-1.278913
C52	C	1.253825	-0.021748	-1.300284
C53	C	1.236388	-0.049842	-1.214194
C54	C	1.174941	-0.148859	-1.160470
C55	C	1.280398	0.021075	-1.181840
C56	C	1.262965	-0.007021	-1.095758
C57	C	1.201523	-0.106034	-1.042029
C58	C	1.157509	-0.176955	-1.074388
C59	C	1.341849	0.120087	-1.235566
C60	C	1.385859	0.191005	-1.203213
C61	C	1.368422	0.162913	-1.117128
C62	C	1.306980	0.063900	-1.063399
C63	C	1.412437	0.233834	-1.084770
C64	C	1.395004	0.205738	-0.998687
C65	C	1.289547	0.035804	-0.977317
C66	C	1.228195	-0.063125	-0.424219
C67	C	1.209810	-0.092672	-0.332636
H68	H	0.938779	0.142628	-0.722876
O69	O	0.552494	-0.071136	-0.590038
H70	H	0.520738	-0.125915	-0.618917
H71	H	1.274737	-0.366595	-0.768095
O72	O	0.991343	0.084721	-0.686872
H73	H	1.023103	0.139490	-0.657990
H74	H	0.761664	0.314085	-0.829532
O75	O	0.767965	-0.326648	-0.431120
H76	H	0.804918	-0.371227	-0.403387
H77	H	1.462472	0.314447	-1.128525
O78	O	0.894300	0.297409	-0.819132
H79	H	0.857348	0.341998	-0.846861
H80	H	1.112531	-0.249422	-1.305250
H81	H	0.605496	0.263169	-0.797892
H82	H	0.605053	-0.129022	-0.554010
O83	O	1.285234	-0.627354	-0.497869
H84	H	1.332389	-0.666719	-0.485217
O85	O	1.182733	-0.136353	-0.949185
H86	H	1.132622	-0.217126	-0.917267
H87	H	0.663735	-0.257658	-0.474041
O88	O	0.946901	-0.268325	-0.467366
H89	H	0.895081	-0.341857	-0.421666
H90	H	1.280539	-0.546399	-0.771277
H91	H	1.239491	-0.044806	-0.933568
H92	H	1.389613	-0.558377	-0.615052
H93	H	1.389952	-0.376132	-0.615173
H94	H	1.380986	-0.520490	-0.760633
O95	O	1.285758	-0.424770	-0.498641
H96	H	1.231460	-0.389668	-0.490364
O97	O	1.442476	0.282225	-0.963790
H98	H	1.420037	0.246043	-0.894907
H99	H	1.148299	-0.466369	-0.529462
O100	O	1.126962	-0.430666	-0.642567
H101	H	1.101178	-0.500173	-0.664788
H102	H	1.435891	0.271622	-1.246966
H103	H	1.140248	-0.620859	-0.632495
O104	O	1.399723	-0.318611	-0.774991
H105	H	1.403606	-0.257503	-0.831602
H106	H	1.107452	-0.257565	-1.030638
O107	O	1.064652	-0.326570	-1.134866
H108	H	1.036975	-0.371170	-1.171823
H109	H	1.303857	0.058869	-1.344037
O110	O	1.137501	-0.666762	-0.508801
H111	H	1.181518	-0.710783	-0.493774
H112	H	1.356042	0.142958	-1.305659
