data_functionalizedCrystal
_audit_creation_method	'MofGen! by Chris Wilmer'
_symmetry_space_group_name_H-M	'P1'
_symmetry_Int_Tables_number	1
_symmetry_cell_setting	triclinic
loop_
_symmetry_equiv_pos_as_xyz
  x,y,z
_cell_length_a	17.077404
_cell_length_b	12.594515
_cell_length_c	17.077396
_cell_angle_alpha	90.024394
_cell_angle_beta	89.982756
_cell_angle_gamma	89.971726
loop_
_atom_site_label
_atom_site_type_symbol
_atom_site_fract_x
_atom_site_fract_y
_atom_site_fract_z
Zn1	Zn	1.200009	0.423727	-0.443870
Zn2	Zn	1.199909	0.601730	-0.312615
Zn3	Zn	1.068746	0.423767	-0.312617
Zn4	Zn	1.068697	0.601665	-0.443838
O5	O	1.134340	0.512722	-0.378235
O6	O	1.309843	0.447350	-0.426470
O7	O	1.182489	0.578167	-0.202768
O8	O	1.086220	0.274816	-0.330043
O9	O	1.309770	0.578129	-0.330038
O10	O	1.182659	0.274786	-0.426473
O11	O	1.086124	0.447418	-0.202770
O12	O	0.958893	0.447355	-0.330012
O13	O	1.086137	0.578017	-0.553690
O14	O	0.958857	0.578055	-0.426420
O15	O	1.182611	0.447287	-0.553712
O16	O	1.182442	0.750667	-0.330008
O17	O	1.086040	0.750619	-0.426417
C18	C	0.930392	0.512703	-0.378213
C19	C	0.843143	0.512720	-0.378223
C20	C	1.134246	0.789263	-0.378226
C21	C	1.134278	0.907569	-0.378248
C22	C	0.802154	0.580879	-0.428342
C23	C	0.720174	0.580881	-0.428354
C24	C	0.679183	0.512730	-0.378243
C25	C	0.720177	0.444563	-0.328122
C26	C	0.802156	0.444557	-0.328114
C27	C	0.549307	0.444584	-0.328141
C28	C	0.467323	0.444592	-0.328148
C29	C	0.467325	0.580909	-0.428381
C30	C	0.549304	0.580902	-0.428373
C31	C	0.590292	0.512737	-0.378251
C32	C	1.081870	1.047598	-0.430660
C33	C	1.153441	0.976687	-0.449918
C34	C	1.062714	0.976908	-0.359025
C35	C	1.205988	1.047443	-0.397574
C36	C	1.115213	1.047670	-0.306648
C37	C	1.186833	0.976792	-0.325879
C38	C	1.339085	0.512742	-0.378257
C39	C	1.426334	0.512751	-0.378267
C40	C	1.134380	0.512640	-0.582979
C41	C	1.134397	0.512605	-0.670229
C42	C	1.134424	1.235101	-0.378263
C43	C	1.134379	1.116796	-0.378279
C44	C	1.084235	0.444516	-0.711220
C45	C	1.084247	0.444491	-0.793200
C46	C	1.134427	0.512552	-0.834189
C47	C	1.184591	0.580648	-0.793192
C48	C	1.184574	0.580677	-0.711213
C49	C	1.184625	0.580582	-0.964063
C50	C	1.184644	0.580552	-1.046047
C51	C	1.084299	0.444396	-1.046050
C52	C	1.084281	0.444425	-0.964071
C53	C	1.134447	0.512520	-0.923080
C54	C	1.134346	0.512728	-0.174287
C55	C	1.134482	0.512463	-0.087038
H56	H	0.835523	0.636379	-0.469145
H57	H	1.225444	0.636070	-0.826572
H58	H	1.043397	0.389050	-0.826571
O59	O	1.029112	1.084827	-0.483604
C60	C	1.068022	1.147808	-0.539661
H61	H	1.125153	1.178800	-0.513814
H62	H	1.081247	1.097897	-0.593784
C63	C	0.945316	1.204097	-0.594442
C64	C	1.015482	1.242169	-0.562694
H65	H	0.912907	1.262301	-0.608654
H66	H	0.919101	1.161663	-0.556678
H67	H	0.956347	1.162505	-0.639541
H68	H	1.004451	1.283749	-0.517591
H69	H	1.041694	1.284613	-0.600451
O70	O	0.990500	0.939771	-0.339653
C71	C	0.991620	0.827834	-0.339191
H72	H	1.041575	0.798235	-0.377752
H73	H	1.000577	0.798318	-0.276731
C74	C	0.851907	0.821771	-0.323606
C75	C	0.913259	0.785416	-0.370973
H76	H	0.803570	0.795603	-0.343207
H77	H	0.851152	0.897185	-0.323914
H78	H	0.859382	0.797171	-0.271560
H79	H	0.905789	0.810027	-0.423015
H80	H	0.914011	0.710005	-0.370674
O81	O	1.035471	0.378410	-1.085893
C82	C	0.984764	0.438992	-1.133306
H83	H	0.979886	0.522831	-1.108589
H84	H	1.009034	0.442635	-1.195443
C85	C	0.909170	0.284022	-1.164905
C86	C	0.903174	0.386992	-1.134544
H87	H	0.858842	0.251945	-1.165672
H88	H	0.943334	0.243205	-1.132965
H89	H	0.929398	0.287072	-1.216683
H90	H	0.882956	0.383940	-1.082764
H91	H	0.869004	0.427808	-1.166476
O92	O	1.035466	0.378275	-0.924374
C93	C	0.991206	0.318148	-0.978130
H94	H	0.988477	0.361719	-1.036564
H95	H	1.019989	0.237311	-0.986860
C96	C	0.911016	0.249293	-0.874355
C97	C	0.907658	0.302812	-0.946122
H98	H	0.859480	0.239828	-0.854610
H99	H	0.940836	0.289799	-0.838137
H100	H	0.935005	0.181935	-0.881639
H101	H	0.883678	0.370174	-0.938835
H102	H	0.877831	0.262317	-0.982338
H103	H	1.225504	0.635973	-1.079418
O104	O	1.172605	0.939533	-0.522215
C105	C	1.117164	0.975624	-0.577284
H106	H	1.060037	0.995605	-0.546016
H107	H	1.140526	1.049619	-0.607789
C108	C	1.172381	0.863562	-0.676871
C109	C	1.102214	0.888095	-0.638468
H110	H	1.163161	0.809573	-0.714615
H111	H	1.209735	0.839250	-0.639771
H112	H	1.191842	0.925232	-0.702286
H113	H	1.082759	0.826429	-0.613047
H114	H	1.064856	0.912395	-0.675566
H115	H	0.433948	0.636408	-0.469195
O116	O	0.680479	0.647203	-0.477055
C117	C	0.734238	0.707345	-0.521288
H118	H	0.792662	0.710956	-0.489126
H119	H	0.742989	0.668487	-0.580960
C120	C	0.630458	0.816220	-0.571946
C121	C	0.702215	0.820662	-0.532441
H122	H	0.610705	0.886118	-0.578829
H123	H	0.594240	0.775700	-0.542148
H124	H	0.637761	0.783834	-0.621668
H125	H	0.694909	0.853036	-0.482716
H126	H	0.738432	0.861191	-0.562231
O127	O	1.233374	0.646855	-0.671514
C128	C	1.277653	0.706942	-0.725268
H129	H	1.280408	0.663322	-0.783710
H130	H	1.248869	0.787769	-0.733979
C131	C	1.357797	0.775891	-0.621496
C132	C	1.361187	0.722312	-0.693273
H133	H	1.409324	0.785378	-0.601760
H134	H	1.327964	0.735413	-0.585280
H135	H	1.333807	0.843241	-0.628765
H136	H	1.385167	0.654959	-0.686002
H137	H	1.391026	0.762780	-0.729488
O138	O	1.278309	1.084196	-0.416946
C139	C	1.333558	1.047255	-0.361990
H140	H	1.302537	1.027060	-0.304790
H141	H	1.363679	0.973217	-0.385885
C142	C	1.433224	1.158998	-0.417203
C143	C	1.395124	1.134203	-0.346946
H144	H	1.471204	1.212629	-0.407925
H145	H	1.396003	1.183884	-0.454230
H146	H	1.458319	1.097293	-0.437108
H147	H	1.370022	1.195905	-0.327047
H148	H	1.432342	1.109330	-0.309915
H149	H	0.582676	0.636403	-0.469173
O150	O	1.233426	0.646768	-0.924364
C151	C	1.277706	0.706853	-0.978119
H152	H	1.280459	0.663235	-1.036561
H153	H	1.248925	0.787682	-0.986827
C154	C	1.357855	0.775795	-0.874347
C155	C	1.361241	0.722218	-0.946125
H156	H	1.409382	0.785277	-0.854612
H157	H	1.328021	0.735318	-0.838131
H158	H	1.333867	0.843147	-0.881614
H159	H	1.385219	0.654863	-0.938856
H160	H	1.391081	0.762684	-0.982340
O161	O	0.427624	0.378286	-0.279450
C162	C	0.481378	0.318131	-0.235201
H163	H	0.539831	0.314494	-0.267349
H164	H	0.490061	0.356996	-0.175530
C165	C	0.377616	0.209302	-0.184556
C166	C	0.449406	0.204828	-0.224045
H167	H	0.357893	0.139412	-0.177671
H168	H	0.341400	0.249831	-0.214365
H169	H	0.384861	0.241694	-0.134835
H170	H	0.442159	0.172449	-0.273768
H171	H	0.485621	0.164290	-0.194244
H172	H	1.099020	1.078871	-0.246102
H173	H	0.582678	0.389068	-0.287333
H174	H	0.686796	0.389069	-0.287325
O175	O	1.239872	0.940106	-0.273009
C176	C	1.277384	1.026686	-0.236527
H177	H	1.273280	1.099493	-0.275953
H178	H	1.247636	1.044240	-0.178165
C179	C	1.369127	0.909777	-0.173830
C180	C	1.364093	0.999197	-0.222257
H181	H	1.422613	0.892820	-0.165024
H182	H	1.343854	0.851445	-0.198406
H183	H	1.344333	0.924416	-0.125201
H184	H	1.388878	0.984552	-0.270889
H185	H	1.389373	1.057526	-0.197689
H186	H	0.835528	0.389049	-0.287306
H187	H	1.043377	0.389087	-0.677853
