data_functionalizedCrystal
_audit_creation_method	'MofGen! by Chris Wilmer'
_symmetry_space_group_name_H-M	'P1'
_symmetry_Int_Tables_number	1
_symmetry_cell_setting	triclinic
loop_
_symmetry_equiv_pos_as_xyz
  x,y,z
_cell_length_a	10.489711
_cell_length_b	12.996460
_cell_length_c	14.519709
_cell_angle_alpha	90.000034
_cell_angle_beta	84.103577
_cell_angle_gamma	89.997572
loop_
_atom_site_label
_atom_site_type_symbol
_atom_site_fract_x
_atom_site_fract_y
_atom_site_fract_z
O1	O	0.167206	-0.085424	1.224767
O2	O	0.186896	-0.085455	0.956396
O3	O	-0.008613	-0.085441	1.096702
O4	O	0.362715	-0.085437	1.084460
O5	O	-0.008624	0.085692	1.096688
O6	O	0.186886	0.085679	0.956381
O7	O	0.167195	0.085710	1.224752
Cu8	Cu	0.177039	0.101320	1.090565
Cu9	Cu	0.177052	-0.101065	1.090583
O10	O	0.362704	0.085697	1.084446
C11	C	0.185973	0.000108	0.922024
C12	C	0.183223	0.000096	0.819628
N13	N	0.177030	0.243667	1.090560
C14	C	-0.056141	0.000122	1.095776
C15	C	-0.197744	0.000113	1.093027
C16	C	-0.381010	0.000133	1.177403
C17	C	-0.288432	0.084506	1.135249
C18	C	-0.288445	-0.084219	1.135241
C19	C	-0.357452	0.084575	1.045929
C20	C	-0.357474	-0.084226	1.045934
C21	C	-0.264923	0.000167	1.003714
C22	C	0.410233	0.000130	1.085372
C23	C	0.551835	0.000133	1.088121
N24	N	0.177052	-0.243412	1.090596
C25	C	0.177053	0.663482	1.090581
C26	C	0.177051	0.546677	1.090573
C27	C	0.177043	0.453578	1.090571
C28	C	0.177038	0.336766	1.090561
C29	C	0.173100	0.000143	0.444677
C30	C	0.175911	0.000130	0.549001
C31	C	0.178161	0.000119	0.632149
C32	C	0.180973	0.000107	0.736479
C33	C	0.168118	0.000145	1.259124
C34	C	0.170868	0.000150	1.361520
H35	H	-0.257843	0.155845	1.173021
O36	O	-0.441003	0.000289	1.265009
C37	C	-0.348644	0.001248	1.329030
H38	H	-0.254886	0.034063	1.294472
H39	H	-0.332046	-0.080605	1.353388
C40	C	-0.511981	0.028232	1.455189
C41	C	-0.396830	0.068545	1.412746
H42	H	-0.541705	0.069740	1.506831
H43	H	-0.574207	0.027583	1.412058
H44	H	-0.498135	-0.039978	1.475479
H45	H	-0.410681	0.136748	1.392447
H46	H	-0.334607	0.069207	1.455877
H47	H	-0.214692	0.000206	0.930265
O48	O	-0.393864	0.169663	1.000801
C49	C	-0.454778	0.139545	0.922942
H50	H	-0.493869	0.058119	0.933779
H51	H	-0.382694	0.141561	0.858615
C52	C	-0.517872	0.313923	0.896841
C53	C	-0.565894	0.213917	0.910154
H54	H	-0.586410	0.359801	0.888949
H55	H	-0.476829	0.334215	0.949293
H56	H	-0.457803	0.315588	0.843236
H57	H	-0.625949	0.212250	0.963764
H58	H	-0.606949	0.193626	0.857710
O59	O	-0.394054	-0.169226	1.000772
C60	C	-0.453983	-0.138986	0.922503
H61	H	-0.421010	-0.058220	0.900655
H62	H	-0.562398	-0.139289	0.940288
C63	C	-0.458033	-0.313845	0.869327
C64	C	-0.417526	-0.214650	0.842488
H65	H	-0.435551	-0.360520	0.819970
H66	H	-0.417662	-0.334220	0.922060
H67	H	-0.548378	-0.314083	0.884148
H68	H	-0.327182	-0.214411	0.827678
H69	H	-0.457881	-0.194278	0.789750
O70	O	-0.252148	-0.169288	1.180452
C71	C	-0.311818	-0.168938	1.272005
H72	H	-0.402012	-0.119539	1.275805
H73	H	-0.243031	-0.136000	1.320303
C74	C	-0.237305	-0.340453	1.296966
C75	C	-0.348089	-0.279787	1.301632
H76	H	-0.259674	-0.408830	1.315244
H77	H	-0.197100	-0.340688	1.235287
H78	H	-0.179993	-0.312993	1.337215
H79	H	-0.405392	-0.307240	1.261375
H80	H	-0.388305	-0.279560	1.363306
