data_functionalizedCrystal
_audit_creation_method	'MofGen! by Chris Wilmer'
_symmetry_space_group_name_H-M	'P1'
_symmetry_Int_Tables_number	1
_symmetry_cell_setting	triclinic
loop_
_symmetry_equiv_pos_as_xyz
  x,y,z
_cell_length_a	18.215407
_cell_length_b	18.215405
_cell_length_c	18.215399
_cell_angle_alpha	89.969449
_cell_angle_beta	89.980167
_cell_angle_gamma	90.025333
loop_
_atom_site_label
_atom_site_type_symbol
_atom_site_fract_x
_atom_site_fract_y
_atom_site_fract_z
Zn1	Zn	1.125072	-0.292983	-0.416103
Zn2	Zn	1.625072	0.207017	0.083897
Zn3	Zn	1.124980	-0.416054	-0.293031
Zn4	Zn	1.624980	0.083946	0.206969
Zn5	Zn	1.002005	-0.293007	-0.293050
Zn6	Zn	1.502005	0.206993	0.206950
Zn7	Zn	1.001970	-0.416013	-0.416056
Zn8	Zn	1.501970	0.083987	0.083944
O9	O	1.063507	-0.354514	-0.354560
O10	O	1.563507	0.145486	0.145440
O11	O	1.228044	-0.309316	-0.399788
O12	O	1.728044	0.190684	0.100212
O13	O	1.108643	-0.399759	-0.190049
O14	O	1.608643	0.100241	0.309951
O15	O	1.018382	-0.190020	-0.309401
O16	O	1.518382	0.309980	0.190599
O17	O	1.227977	-0.399736	-0.309368
O18	O	1.727977	0.100264	0.190632
O19	O	1.108799	-0.190002	-0.399807
O20	O	1.608799	0.309998	0.100193
O21	O	1.018293	-0.309357	-0.190063
O22	O	1.518293	0.190643	0.309937
O23	O	0.899016	-0.309317	-0.309355
O24	O	1.399016	0.190683	0.190645
O25	O	1.018324	-0.399666	-0.519046
O26	O	1.518324	0.100334	-0.019046
O27	O	0.898991	-0.399689	-0.399727
O28	O	1.398991	0.100311	0.100273
O29	O	1.108766	-0.309276	-0.519081
O30	O	1.608766	0.190724	-0.019081
O31	O	1.108610	-0.519033	-0.309322
O32	O	1.608610	-0.019033	0.190678
O33	O	1.018235	-0.519003	-0.399708
O34	O	1.518235	-0.019003	0.100292
C35	C	0.872301	-0.354502	-0.354539
C36	C	1.372301	0.145498	0.145461
C37	C	0.790502	-0.354514	-0.354547
C38	C	1.290502	0.145486	0.145453
C39	C	0.602314	-0.401645	-0.401544
C40	C	1.102314	0.098355	0.098456
C41	C	0.525455	-0.401647	-0.401554
C42	C	1.025455	0.098353	0.098446
C43	C	0.525452	-0.307397	-0.307591
C44	C	1.025452	0.192603	0.192409
C45	C	0.602309	-0.307392	-0.307586
C46	C	1.102309	0.192608	0.192414
C47	C	0.640738	-0.354520	-0.354562
C48	C	1.140738	0.145480	0.145438
C49	C	0.487022	-0.354528	-0.354576
C50	C	0.987022	0.145472	0.145424
C51	C	0.403688	-0.354530	-0.354585
C52	C	0.903688	0.145470	0.145415
C53	C	0.724077	-0.354517	-0.354553
C54	C	1.224077	0.145483	0.145447
C55	C	1.063429	-0.545721	-0.354524
C56	C	1.563429	-0.045721	0.145476
C57	C	1.063463	-0.627520	-0.354534
C58	C	1.563463	-0.127520	0.145466
C59	C	1.110632	-0.815705	-0.307556
C60	C	1.610632	-0.315705	0.192444
C61	C	1.110665	-0.892563	-0.307574
C62	C	1.610665	-0.392563	0.192426
C63	C	1.016476	-0.892572	-0.401616
C64	C	1.516476	-0.392572	0.098384
C65	C	1.016447	-0.815715	-0.401601
C66	C	1.516447	-0.315715	0.098399
C67	C	1.063524	-0.777283	-0.354567
C68	C	1.563524	-0.277283	0.145433
C69	C	1.063586	-0.930999	-0.354600
C70	C	1.563586	-0.430999	0.145400
C71	C	1.063621	-1.014333	-0.354619
C72	C	1.563621	-0.514333	0.145381
C73	C	1.063490	-0.693944	-0.354548
C74	C	1.563490	-0.193944	0.145452
C75	C	1.255460	-0.354528	-0.354581
C76	C	1.755460	0.145472	0.145419
C77	C	1.337259	-0.354533	-0.354591
C78	C	1.837259	0.145467	0.145409
C79	C	1.063552	-0.354464	-0.546513
C80	C	1.563552	0.145536	-0.046513
C81	C	1.063571	-0.354442	-0.628312
C82	C	1.563571	0.145558	-0.128312
C83	C	1.063605	-0.162561	-0.354611
C84	C	1.563605	0.337439	0.145389
C85	C	1.063647	-0.080763	-0.354633
C86	C	1.563647	0.419237	0.145367
C87	C	1.110681	-0.307332	-0.816525
C88	C	1.610681	0.192668	-0.316525
C89	C	1.110690	-0.307311	-0.893384
C90	C	1.610690	0.192689	-0.393384
C91	C	1.016513	-0.401438	-0.893336
C92	C	1.516513	0.098562	-0.393336
C93	C	1.016501	-0.401455	-0.816479
C94	C	1.516501	0.098545	-0.316479
C95	C	1.063589	-0.354403	-0.778075
C96	C	1.563589	0.145597	-0.278075
C97	C	1.063610	-0.354365	-0.931791
C98	C	1.563610	0.145635	-0.431791
C99	C	1.063619	-0.354342	-1.015125
C100	C	1.563619	0.145658	-0.515125
C101	C	1.063579	-0.354425	-0.694736
C102	C	1.563579	0.145575	-0.194736
C103	C	1.063504	-0.354512	-0.163353
C104	C	1.563504	0.145488	0.336647
C105	C	1.063628	-0.354326	-0.081555
C106	C	1.563628	0.145674	0.418445
H107	H	0.494153	-0.269028	-0.269344
H108	H	0.994153	0.230972	0.230656
H109	H	0.494174	-0.440020	-0.439813
H110	H	0.994174	0.059980	0.060187
O111	O	1.156364	-0.261607	-0.930847
O112	O	1.656364	0.238393	-0.430847
C113	C	1.146290	-0.271688	-1.006919
C114	C	1.646290	0.228312	-0.506919
H115	H	1.089487	-0.295788	-1.017397
H116	H	1.589487	0.204212	-0.517397
H117	H	1.151308	-0.216554	-1.036142
H118	H	1.651308	0.283446	-0.536142
H119	H	1.189928	-0.310871	-1.028731
H120	H	1.689928	0.189129	-0.528731
O121	O	1.156439	-0.261554	-0.779333
O122	O	1.656439	0.238446	-0.279333
C123	C	1.198017	-0.220015	-0.829754
C124	C	1.698017	0.279985	-0.329754
H125	H	1.167882	-0.217456	-0.884536
H126	H	1.667882	0.282544	-0.384536
H127	H	1.205889	-0.162036	-0.807568
H128	H	1.705889	0.337964	-0.307568
H129	H	1.253899	-0.246963	-0.837931
H130	H	1.753899	0.253037	-0.337931
O131	O	0.639672	-0.261535	-0.262048
O132	O	1.139672	0.238465	0.237952
C133	C	0.684178	-0.214065	-0.304030
C134	C	1.184178	0.285935	0.195970
H135	H	0.661039	-0.209592	-0.362001
H136	H	1.161039	0.290408	0.137999
H137	H	0.685064	-0.157396	-0.277514
H138	H	1.185064	0.342604	0.222486
H139	H	0.742418	-0.236821	-0.306524
H140	H	1.242418	0.263179	0.193476
O141	O	0.970846	-0.447122	-0.930757
O142	O	1.470846	0.052878	-0.430757
C143	C	0.980941	-0.437003	-1.006839
C144	C	1.480941	0.062997	-0.506839
H145	H	1.037749	-0.412900	-1.017354
H146	H	1.537749	0.087100	-0.517354
H147	H	0.975928	-0.492121	-1.036030
H148	H	1.475928	0.007879	-0.536030
H149	H	0.937312	-0.397806	-1.028654
H150	H	1.437312	0.102194	-0.528654
H151	H	1.149026	-0.923843	-0.269294
H152	H	1.649026	-0.423843	0.230706
O153	O	0.970731	-0.447254	-0.779238
O154	O	1.470731	0.052746	-0.279238
C155	C	0.929164	-0.488772	-0.829613
C156	C	1.429164	0.011228	-0.329613
H157	H	0.959312	-0.491312	-0.884406
H158	H	1.459312	0.008688	-0.384406
H159	H	0.921283	-0.546759	-0.807384
H160	H	1.421283	-0.046759	-0.307384
H161	H	0.873285	-0.461819	-0.837784
H162	H	1.373285	0.038181	-0.337784
H163	H	0.633601	-0.440018	-0.439797
H164	H	1.133601	0.059982	0.060203
H165	H	1.148966	-0.784415	-0.269260
H166	H	1.648966	-0.284415	0.230740
O167	O	0.970766	-0.930020	-0.447228
O168	O	1.470766	-0.430020	0.052772
C169	C	0.980903	-1.006096	-0.437172
C170	C	1.480903	-0.506096	0.062828
H171	H	1.005046	-1.016614	-0.380404
H172	H	1.505046	-0.516614	0.119596
H173	H	0.925785	-1.035345	-0.442114
H174	H	1.425785	-0.535345	0.057886
H175	H	1.020072	-1.027845	-0.480867
H176	H	1.520072	-0.527845	0.019133
H177	H	0.978086	-0.784430	-0.439887
H178	H	1.478086	-0.284430	0.060113
