data_functionalizedCrystal
_audit_creation_method	'MofGen! by Chris Wilmer'
_symmetry_space_group_name_H-M	'P1'
_symmetry_Int_Tables_number	1
_symmetry_cell_setting	triclinic
loop_
_symmetry_equiv_pos_as_xyz
  x,y,z
_cell_length_a	14.853567
_cell_length_b	13.101039
_cell_length_c	14.853569
_cell_angle_alpha	86.634131
_cell_angle_beta	83.635248
_cell_angle_gamma	93.359409
loop_
_atom_site_label
_atom_site_type_symbol
_atom_site_fract_x
_atom_site_fract_y
_atom_site_fract_z
O1	O	1.201315	0.085146	0.112738
O2	O	1.701315	0.585146	0.612738
O3	O	0.938856	0.085164	0.126759
O4	O	1.438856	0.585164	0.626759
O5	O	1.077095	0.085145	-0.011480
O6	O	1.577095	0.585145	0.488520
O7	O	1.063076	0.085165	0.250978
O8	O	1.563076	0.585165	0.750978
O9	O	1.067176	-0.085284	-0.001546
O10	O	1.567176	0.414716	0.498454
O11	O	0.928938	-0.085264	0.136694
O12	O	1.428938	0.414736	0.636694
O13	O	1.191396	-0.085282	0.122673
O14	O	1.691396	0.414718	0.622673
Zn15	Zn	1.058592	-0.112332	0.131261
Zn16	Zn	1.558592	0.387668	0.631261
Zn17	Zn	1.071660	0.112214	0.118171
Zn18	Zn	1.571660	0.612214	0.618171
O19	O	1.053158	-0.085263	0.260913
O20	O	1.553158	0.414737	0.760913
C21	C	0.900309	-0.000048	0.131091
C22	C	1.400309	0.499952	0.631091
C23	C	0.800225	-0.000041	0.129187
C24	C	1.300225	0.499959	0.629187
N25	N	1.049680	-0.265580	0.140194
N26	N	1.549680	0.234420	0.640194
C27	C	0.387689	-0.000071	0.039023
C28	C	0.887689	0.499929	0.539023
C29	C	0.366410	-0.000057	0.203255
C30	C	0.866410	0.499943	0.703255
C31	C	0.460444	-0.000054	0.205045
C32	C	0.960444	0.499946	0.705045
C33	C	0.518105	-0.000058	0.123822
C34	C	1.018105	0.499942	0.623822
C35	C	0.481732	-0.000065	0.040810
C36	C	0.981732	0.499935	0.540810
C37	C	0.496824	-0.000037	0.288055
C38	C	0.996824	0.499963	0.788055
C39	C	0.590864	-0.000032	0.289848
C40	C	1.090864	0.499968	0.789848
C41	C	0.648526	-0.000043	0.208625
C42	C	1.148526	0.499957	0.708625
C43	C	0.612148	-0.000051	0.125609
C44	C	1.112148	0.499949	0.625609
C45	C	0.669809	-0.000055	0.044387
C46	C	1.169809	0.499945	0.544387
C47	C	0.633433	-0.000071	-0.038629
C48	C	1.133433	0.499929	0.461371
C49	C	0.539395	-0.000076	-0.040413
C50	C	1.039395	0.499924	0.459587
C51	C	0.742564	-0.000038	0.210409
C52	C	1.242564	0.499962	0.710409
C53	C	0.763852	-0.000048	0.046174
C54	C	1.263852	0.499952	0.546174
C55	C	1.037555	-0.474621	0.152355
C56	C	1.537555	0.025379	0.652355
C57	C	1.092701	-0.525504	0.097073
C58	C	1.592701	-0.025504	0.597073
C59	C	1.085955	-0.641822	0.103839
C60	C	1.585955	-0.141822	0.603839
C61	C	1.044301	-0.358293	0.145590
C62	C	1.544301	0.141707	0.645590
C63	C	1.229944	-0.000068	0.118341
C64	C	1.729944	0.499932	0.618341
C65	C	1.330028	-0.000068	0.120245
C66	C	1.830028	0.499932	0.620245
C67	C	1.071500	-0.000070	-0.040102
C68	C	1.571500	0.499930	0.459898
C69	C	1.069596	-0.000070	-0.140185
C70	C	1.569596	0.499930	0.359815
N71	N	1.080579	0.265462	0.109231
N72	N	1.580579	0.765462	0.609231
C73	C	0.986585	-0.000067	-0.176562
C74	C	1.486585	0.499933	0.323438
C75	C	1.150818	-0.000067	-0.197851
C76	C	1.650818	0.499933	0.302149
C77	C	1.149032	-0.000062	-0.291886
C78	C	1.649032	0.499938	0.208114
C79	C	1.066021	-0.000058	-0.328263
C80	C	1.566021	0.499942	0.171737
C81	C	0.984796	-0.000059	-0.270605
C82	C	1.484796	0.499941	0.229395
C83	C	1.230255	-0.000051	-0.349551
C84	C	1.730255	0.499949	0.150449
C85	C	1.228472	-0.000045	-0.443592
C86	C	1.728472	0.499955	0.056408
C87	C	1.145460	-0.000049	-0.479970
C88	C	1.645460	0.499951	0.020030
C89	C	1.064232	-0.000051	-0.422306
C90	C	1.564232	0.499949	0.077694
C91	C	0.981222	-0.000047	-0.458682
C92	C	1.481222	0.499953	0.041318
C93	C	0.899992	-0.000056	-0.401020
C94	C	1.399992	0.499944	0.098980
C95	C	0.901784	-0.000062	-0.306983
C96	C	1.401784	0.499938	0.193017
C97	C	1.143668	-0.000042	-0.574006
C98	C	1.643668	0.499958	-0.074006
C99	C	0.979433	-0.000039	-0.552726
C100	C	1.479433	0.499961	-0.052726
C101	C	1.058753	-0.000046	0.289534
C102	C	1.558753	0.499954	0.789534
C103	C	1.060657	-0.000039	0.389617
C104	C	1.560657	0.499961	0.889617
H105	H	0.810795	-0.000055	-0.019968
H106	H	1.310795	0.499945	0.480032
N107	N	1.161963	-0.467500	0.027658
N108	N	1.661963	0.032500	0.527658
H109	H	1.197830	-0.517667	-0.008292
H110	H	1.697830	-0.017667	0.491708
H111	H	1.129876	-0.422985	-0.014747
H112	H	1.629876	0.077015	0.485253
H113	H	0.772178	-0.000027	0.277999
H114	H	1.272178	0.499973	0.777999
H115	H	0.835652	-0.000067	-0.260026
H116	H	1.335652	0.499933	0.239974
H117	H	1.297834	-0.000117	-0.319922
H118	H	1.797834	0.499883	0.180078
H119	H	0.985280	-0.518410	0.204764
H120	H	1.485280	-0.018410	0.704764
H121	H	0.680393	-0.000067	-0.104760
H122	H	1.180393	0.499933	0.395240
H123	H	0.620473	-0.000019	0.357444
H124	H	1.120473	0.499981	0.857444
N125	N	0.898975	-0.000102	-0.114376
N126	N	1.398975	0.499898	0.385624
H127	H	0.912698	-0.000118	-0.049282
H128	H	1.412698	0.499882	0.450718
H129	H	0.866464	0.063073	-0.129831
H130	H	1.366464	0.563073	0.370169
H131	H	0.911834	-0.000045	-0.582335
H132	H	1.411834	0.499955	-0.082335
H133	H	0.832405	-0.000046	-0.430650
H134	H	1.332405	0.499954	0.069350
N135	N	0.500161	-0.000100	-0.129944
N136	N	1.000161	0.499900	0.370056
H137	H	0.431839	-0.000102	-0.118750
H138	H	0.931839	0.499898	0.381250
H139	H	0.524914	0.063074	-0.169179
H140	H	1.024914	0.563074	0.330821
H141	H	0.358067	-0.000088	-0.028567
H142	H	0.858067	0.499912	0.471433
H143	H	1.218400	-0.000090	-0.168226
H144	H	1.718400	0.499910	0.331774
N145	N	0.304225	-0.000043	0.290854
N146	N	0.804225	0.499957	0.790854
H147	H	0.239133	-0.000044	0.277125
H148	H	0.739133	0.499956	0.777125
H149	H	0.312340	-0.063220	0.330709
H150	H	0.812340	0.436780	0.830709
H151	H	1.294614	-0.000040	-0.490533
H152	H	1.794614	0.499960	0.009467
N153	N	1.231267	-0.000022	-0.636200
N154	N	1.731267	0.499978	-0.136200
H155	H	1.284125	-0.000020	-0.598886
H156	H	1.784125	0.499980	-0.098886
H157	H	1.230435	-0.063200	-0.672005
H158	H	1.730435	0.436800	-0.172005
H159	H	0.449871	-0.000023	0.354181
H160	H	0.949871	0.499977	0.854181
