data_functionalizedCrystal
_audit_creation_method	'MofGen! by Chris Wilmer'
_symmetry_space_group_name_H-M	'P1'
_symmetry_Int_Tables_number	1
_symmetry_cell_setting	triclinic
loop_
_symmetry_equiv_pos_as_xyz
  x,y,z
_cell_length_a	14.519731
_cell_length_b	11.792241
_cell_length_c	10.868271
_cell_angle_alpha	90.000107
_cell_angle_beta	89.993880
_cell_angle_gamma	96.058865
loop_
_atom_site_label
_atom_site_type_symbol
_atom_site_fract_x
_atom_site_fract_y
_atom_site_fract_z
O1	O	0.126403	-1.506220	-0.102206
O2	O	0.139430	-1.175807	-0.102235
O3	O	-0.001288	-1.349761	-0.102208
O4	O	0.267122	-1.332266	-0.102232
O5	O	-0.001294	-1.349747	0.102436
O6	O	0.139425	-1.175793	0.102410
O7	O	0.126398	-1.506205	0.102439
Zn8	Zn	0.132910	-1.340997	0.134916
Zn9	Zn	0.132918	-1.341016	-0.134712
O10	O	0.267116	-1.332251	0.102412
C11	C	0.138609	-1.133514	0.000084
C12	C	0.136160	-1.007513	0.000073
C13	C	-0.035654	-1.348934	0.000114
C14	C	-0.138043	-1.346478	0.000115
C15	C	0.127219	-1.548499	0.000117
C16	C	0.129668	-1.674499	0.000120
C17	C	-0.221194	-1.344482	0.000112
C18	C	-0.325512	-1.341988	0.000102
C19	C	-0.408658	-1.340008	0.000094
C20	C	-0.512983	-1.337514	0.000087
C21	C	0.301482	-1.333078	0.000087
C22	C	0.403871	-1.335535	0.000079
N23	N	0.132905	-1.340992	0.318930
C24	C	0.131656	-0.776826	0.000109
C25	C	0.134159	-0.905197	0.000089
N26	N	0.132916	-1.341029	-0.318726
C27	C	0.132916	-1.341010	0.569936
C28	C	0.132912	-1.340996	0.430259
