data_functionalizedCrystal
_audit_creation_method	'MofGen! by Chris Wilmer'
_symmetry_space_group_name_H-M	'P1'
_symmetry_Int_Tables_number	1
_symmetry_cell_setting	triclinic
loop_
_symmetry_equiv_pos_as_xyz
  x,y,z
_cell_length_a	16.109318
_cell_length_b	16.109304
_cell_length_c	14.586319
_cell_angle_alpha	89.999019
_cell_angle_beta	90.000075
_cell_angle_gamma	83.465600
loop_
_atom_site_label
_atom_site_type_symbol
_atom_site_fract_x
_atom_site_fract_y
_atom_site_fract_z
O1	O	1.103123	0.106935	-0.076158
O2	O	0.861063	0.120219	-0.076176
O3	O	0.988741	-0.007454	-0.076167
O4	O	0.975445	0.234607	-0.076167
O5	O	0.988732	-0.007456	0.076314
O6	O	0.861054	0.120217	0.076305
O7	O	1.103114	0.106933	0.076323
Cu8	Cu	0.982083	0.113575	0.090236
Cu9	Cu	0.982094	0.113577	-0.090090
O10	O	0.975436	0.234605	0.076314
C11	C	0.830084	0.119677	0.000062
C12	C	0.737789	0.118056	0.000055
C13	C	0.438720	0.112822	-0.083046
C14	C	0.525442	0.114340	-0.083052
C15	C	0.525451	0.114326	0.083191
C16	C	0.438732	0.112803	0.083196
C17	C	0.395368	0.112055	0.000074
C18	C	0.568809	0.115096	0.000064
C19	C	0.662836	0.116741	0.000059
C20	C	0.301336	0.110408	0.000079
C21	C	0.988198	-0.038430	0.000071
C22	C	0.986582	-0.130725	0.000065
C23	C	0.982853	-0.343061	-0.083049
C24	C	0.981327	-0.429782	-0.083049
C25	C	0.981322	-0.429781	0.083194
C26	C	0.982842	-0.343061	0.083193
C27	C	0.983612	-0.299704	0.000068
C28	C	0.980565	-0.473144	0.000070
C29	C	0.978911	-0.567170	0.000072
C30	C	0.985265	-0.205672	0.000066
C31	C	1.134093	0.107474	0.000082
C32	C	1.226388	0.109095	0.000084
C33	C	0.975979	0.265581	0.000073
C34	C	0.977595	0.357876	0.000074
N35	N	0.982082	0.113573	0.217068
N36	N	0.982102	0.113572	-0.216922
C37	C	1.038637	0.057058	0.452078
C38	C	1.038639	0.057056	0.548060
C39	C	0.925541	0.170090	0.548061
C40	C	0.925535	0.170087	0.452082
C41	C	0.982088	0.113572	0.404093
C42	C	0.982096	0.113573	0.596054
C43	C	0.982098	0.113571	0.700121
C44	C	0.982085	0.113573	0.300019
H45	H	0.560735	0.114963	-0.150737
H46	H	0.983455	-0.307758	0.150881
F47	F	0.983669	-0.296920	-0.171518
F48	F	1.098823	-0.003092	0.401009
F49	F	0.392573	0.112024	-0.171511
F50	F	1.098824	-0.003095	0.599126
H51	H	0.560768	0.114937	0.150866
H52	H	0.403434	0.112178	0.150887
F53	F	0.980518	-0.475921	-0.171514
F54	F	0.980502	-0.475931	0.171656
F55	F	0.865359	0.230236	0.599141
H56	H	0.879482	0.216108	0.413009
