data_functionalizedCrystal
_audit_creation_method	'MofGen! by Chris Wilmer'
_symmetry_space_group_name_H-M	'P1'
_symmetry_Int_Tables_number	1
_symmetry_cell_setting	triclinic
loop_
_symmetry_equiv_pos_as_xyz
  x,y,z
_cell_length_a	16.974829
_cell_length_b	23.532357
_cell_length_c	15.455313
_cell_angle_alpha	92.642146
_cell_angle_beta	83.671566
_cell_angle_gamma	83.113467
loop_
_atom_site_label
_atom_site_type_symbol
_atom_site_fract_x
_atom_site_fract_y
_atom_site_fract_z
O1	O	1.055625	0.067553	-0.146240
O2	O	0.824560	0.077354	-0.130023
O3	O	0.947080	-0.010473	-0.138604
O4	O	0.933105	0.155381	-0.137659
O5	O	0.940074	-0.005472	0.006149
O6	O	0.817554	0.082356	0.014729
O7	O	1.048619	0.072555	-0.001487
Cu8	Cu	0.932447	0.077912	0.019838
Cu9	Cu	0.940732	0.071997	-0.151349
O10	O	0.926099	0.160382	0.007094
C11	C	0.791501	0.079575	-0.055572
C12	C	0.703434	0.078732	-0.049391
C13	C	0.207298	0.074299	-0.006126
C14	C	0.290046	0.075091	-0.011936
C15	C	0.335240	0.072756	-0.093747
C16	C	0.297681	0.069635	-0.169753
C17	C	0.214934	0.068847	-0.163943
C18	C	0.583128	0.074823	-0.119587
C19	C	0.665881	0.075609	-0.125391
C20	C	0.658240	0.081066	0.032426
C21	C	0.575492	0.080275	0.038230
C22	C	0.537940	0.077157	-0.037776
N23	N	0.419823	0.073564	-0.099688
N24	N	0.453358	0.076354	-0.031835
C25	C	0.943227	-0.029189	-0.066200
C26	C	0.942176	-0.092409	-0.066118
C27	C	0.939398	-0.487154	-0.144607
C28	C	0.938399	-0.546554	-0.144542
O29	O	0.941104	-0.579590	-0.211609
N30	N	0.934085	-0.573539	-0.065603
C31	C	0.930761	-0.541120	0.013276
O32	O	0.926999	-0.569527	0.080425
C33	C	0.931754	-0.481720	0.013210
C34	C	0.936077	-0.454739	-0.065734
C35	C	0.943720	-0.460172	-0.223545
C36	C	0.944720	-0.400776	-0.223610
C37	C	0.941399	-0.368361	-0.144737
C38	C	0.937077	-0.395343	-0.065799
C39	C	0.928425	-0.449301	0.092088
C40	C	0.929418	-0.389898	0.092016
C41	C	0.933741	-0.362916	0.013072
C42	C	0.934757	-0.303532	0.013009
N43	N	0.939071	-0.276547	-0.065930
C44	C	0.942392	-0.308961	-0.144803
C45	C	0.928674	-0.665864	0.013408
C46	C	0.927686	-0.725263	0.013474
C47	C	0.935323	-0.730693	-0.144344
C48	C	0.936316	-0.671293	-0.144410
C49	C	0.932988	-0.638879	-0.065531
C50	C	0.944493	-0.184225	-0.144933
C51	C	0.945497	-0.124823	-0.144991
C52	C	0.937856	-0.119398	0.012826
C53	C	0.936857	-0.178795	0.012885
C54	C	0.940173	-0.211207	-0.066002
O55	O	0.932051	-0.270459	0.080042
O56	O	0.946143	-0.280545	-0.211940
C57	C	1.081678	0.070334	-0.075940
C58	C	1.169745	0.071177	-0.082127
C59	C	0.929952	0.179098	-0.065312
C60	C	0.931003	0.242317	-0.065399
N61	N	0.926625	0.082072	0.140242
N62	N	0.946560	0.067832	-0.271752
C63	C	0.978693	0.044773	0.181989
C64	C	0.974298	0.047925	0.273105
C65	C	0.917837	0.088378	0.322471
C66	C	0.865763	0.125678	0.280718
C67	C	0.870155	0.122524	0.189604
C68	C	0.898878	0.101978	0.595380
C69	C	0.894491	0.105131	0.686500
C70	C	1.003026	0.027376	0.678881
C71	C	1.007417	0.024228	0.587766
C72	C	0.955340	0.061526	0.546020
N73	N	0.913344	0.091601	0.415606
N74	N	0.959829	0.058300	0.452887
H75	H	0.184359	0.066306	-0.225830
H76	H	0.949019	-0.102859	-0.209280
F77	F	0.834395	0.148191	0.739034
H78	H	1.016696	0.017553	0.307095
F79	F	0.934323	-0.084890	0.096764
F80	F	0.947254	-0.494662	-0.307499
F81	F	0.949316	-0.372068	-0.307633
F82	F	1.058445	-0.012318	0.723315
H83	H	0.924178	-0.747227	0.077757
F84	F	1.038791	0.001720	0.129458
F85	F	0.805668	0.168729	0.333258
F86	F	0.940916	-0.642583	-0.228432
H87	H	0.320618	0.077632	0.049952
F88	F	0.938853	-0.765201	-0.228288
H89	H	0.702676	0.073712	-0.192015
F90	F	0.345782	0.067151	-0.256823
H91	H	0.827754	0.152896	0.155614
H92	H	0.552563	0.072282	-0.181476
F93	F	0.948023	-0.218712	-0.228893
F94	F	1.067509	-0.018826	0.535227
H95	H	0.925966	-0.639475	0.077644
F96	F	0.527397	0.082770	0.125305
H97	H	0.688824	0.083606	0.094306
F98	F	0.923821	-0.478003	0.176113
F99	F	0.925875	-0.355403	0.175972
H100	H	0.856477	0.132349	0.561399
F101	F	0.159207	0.076779	0.080949
F102	F	0.932270	-0.207513	0.096904
