data_functionalizedCrystal
_audit_creation_method	'MofGen! by Chris Wilmer'
_symmetry_space_group_name_H-M	'P1'
_symmetry_Int_Tables_number	1
_symmetry_cell_setting	triclinic
loop_
_symmetry_equiv_pos_as_xyz
  x,y,z
_cell_length_a	12.594517
_cell_length_b	18.050589
_cell_length_c	12.594510
_cell_angle_alpha	89.966182
_cell_angle_beta	89.978880
_cell_angle_gamma	90.028021
loop_
_atom_site_label
_atom_site_type_symbol
_atom_site_fract_x
_atom_site_fract_y
_atom_site_fract_z
Zn1	Zn	1.627175	-0.295596	-0.601864
Zn2	Zn	1.627029	-0.419813	-0.423887
Zn3	Zn	1.449179	-0.295641	-0.423893
Zn4	Zn	1.449123	-0.419748	-0.601817
O5	O	1.538126	-0.357700	-0.512865
O6	O	1.776101	-0.312082	-0.578272
O7	O	1.603399	-0.403388	-0.274942
O8	O	1.472876	-0.191711	-0.447523
O9	O	1.775994	-0.403344	-0.447513
O10	O	1.603648	-0.191678	-0.578278
O11	O	1.472734	-0.312159	-0.274946
O12	O	1.300226	-0.312096	-0.447478
O13	O	1.472780	-0.403233	-0.750769
O14	O	1.300185	-0.403277	-0.578198
O15	O	1.603594	-0.312019	-0.750804
O16	O	1.603344	-0.523729	-0.447468
O17	O	1.472638	-0.523682	-0.578192
C18	C	1.261585	-0.357685	-0.512834
C19	C	1.143280	-0.357696	-0.512846
C20	C	1.074018	-0.308035	-0.441883
C21	C	1.003187	-0.375779	-0.415704
C22	C	1.003313	-0.289985	-0.539043
C23	C	1.074007	-0.425476	-0.486616
C24	C	1.074139	-0.339636	-0.610001
C25	C	1.003339	-0.407427	-0.583858
C26	C	1.537998	-0.550652	-0.512848
C27	C	1.538040	-0.633198	-0.512876
C28	C	1.467032	-0.832649	-0.583939
C29	C	1.441084	-0.882102	-0.486814
C30	C	1.538145	-0.784328	-0.512890
C31	C	1.564145	-0.881957	-0.610026
C32	C	1.538244	-0.930313	-0.512911
C33	C	1.512146	-0.832693	-0.415713
C34	C	1.635252	-0.832544	-0.538991
C35	C	1.609341	-0.881974	-0.441799
C36	C	1.538085	-0.700230	-0.512878
C37	C	1.538304	-1.014410	-0.512912
C38	C	1.815747	-0.357715	-0.512897
C39	C	1.934053	-0.357722	-0.512911
C40	C	1.538197	-0.357614	-0.790486
C41	C	1.538227	-0.357577	-0.908792
C42	C	1.538284	-0.163994	-0.512906
C43	C	1.538352	-0.081448	-0.512924
C44	C	1.609398	-0.307963	-0.978064
C45	C	1.512327	-0.289784	-1.048854
C46	C	1.635354	-0.375704	-1.048800
C47	C	1.441104	-0.339364	-0.978024
C48	C	1.564197	-0.425315	-0.977964
C49	C	1.467059	-0.407163	-1.048723
C50	C	1.538118	-0.357732	-0.236324
C51	C	1.538294	-0.357559	-0.118019
H52	H	1.105327	-0.324325	-0.692110
H53	H	0.972500	-0.449483	-0.643897
O54	O	1.343245	-0.908199	-0.460449
C55	C	1.233936	-1.015755	-0.430116
C56	C	1.344797	-0.986303	-0.459951
H57	H	1.235149	-1.078905	-0.429726
H58	H	1.211197	-0.994701	-0.347874
H59	H	1.173364	-0.995453	-0.490742
H60	H	1.405444	-1.006593	-0.399398
H61	H	1.367447	-1.007352	-0.542220
H62	H	1.490099	-0.811142	-0.333552
O63	O	1.681002	-0.907746	-0.369986
C64	C	1.709757	-0.980862	-0.212469
C65	C	1.628503	-0.951739	-0.293739
H66	H	1.667340	-1.016423	-0.150791
H67	H	1.772194	-1.015618	-0.255018
H68	H	1.749891	-0.932053	-0.171392
H69	H	1.588291	-1.000503	-0.334841
H70	H	1.566133	-0.916960	-0.251132
H71	H	1.406806	-0.810991	-0.643938
O72	O	1.590592	-0.493622	-0.940829
C73	C	1.722790	-0.589988	-0.934748
C74	C	1.693027	-0.512619	-0.976856
H75	H	1.805600	-0.605378	-0.963877
H76	H	1.721811	-0.589485	-0.844238
H77	H	1.662947	-0.632406	-0.965018
H78	H	1.752841	-0.470157	-0.946664
H79	H	1.693972	-0.513184	-1.067365
O80	O	1.733390	-0.393922	-1.085765
C81	C	1.919152	-0.362168	-1.091835
C82	C	1.808190	-0.341469	-1.049886
H83	H	1.979655	-0.319763	-1.062863
H84	H	1.941933	-0.419496	-1.061430
H85	H	1.917997	-0.362543	-1.182342
H86	H	1.809261	-0.341051	-0.959382
H87	H	1.785453	-0.284155	-1.080373
O88	O	0.966390	-0.221605	-0.565329
C89	C	0.960379	-0.091977	-0.520123
C90	C	1.002280	-0.169374	-0.490259
H91	H	0.989360	-0.049730	-0.459433
H92	H	0.990811	-0.076103	-0.602310
H93	H	0.869871	-0.092814	-0.520700
H94	H	1.092784	-0.168596	-0.489621
H95	H	0.971767	-0.185217	-0.408091
H96	H	1.490384	-0.232492	-1.079994
H97	H	1.717308	-0.810762	-0.561093
O98	O	1.590216	-0.907687	-0.708093
C99	C	1.544594	-0.911838	-0.893787
C100	C	1.514972	-0.882640	-0.782789
H101	H	1.483764	-0.891613	-0.954205
H102	H	1.626725	-0.890582	-0.916695
H103	H	1.545189	-0.974989	-0.892616
H104	H	1.514316	-0.819492	-0.783875
H105	H	1.432861	-0.903953	-0.759924
O106	O	1.395145	-0.457114	-1.085642
C107	C	1.237606	-0.477058	-1.190328
C108	C	1.318993	-0.420420	-1.148608
H109	H	1.176004	-0.447410	-1.241227
H110	H	1.280070	-0.520621	-1.240205
H111	H	1.196453	-0.505070	-1.120365
H112	H	1.360171	-0.392353	-1.218507
H113	H	1.276471	-0.376904	-1.098699
H114	H	1.358970	-0.323959	-0.947066
O115	O	1.110999	-0.258065	-0.370063
C116	C	1.116740	-0.220662	-0.186522
C117	C	1.074810	-0.277311	-0.267741
H118	H	1.087480	-0.236193	-0.103779
H119	H	1.207253	-0.220740	-0.187607
H120	H	1.086468	-0.163076	-0.208072
H121	H	1.105005	-0.334924	-0.246247
H122	H	0.984299	-0.277168	-0.266641
H123	H	1.669478	-0.265980	-0.947035
H124	H	0.972024	-0.391071	-0.333570
H125	H	1.104931	-0.482766	-0.464394
