data_functionalizedCrystal
_audit_creation_method	'MofGen! by Chris Wilmer'
_symmetry_space_group_name_H-M	'P1'
_symmetry_Int_Tables_number	1
_symmetry_cell_setting	triclinic
loop_
_symmetry_equiv_pos_as_xyz
  x,y,z
_cell_length_a	29.839134
_cell_length_b	18.101396
_cell_length_c	18.101389
_cell_angle_alpha	90.016209
_cell_angle_beta	90.030437
_cell_angle_gamma	90.032371
loop_
_atom_site_label
_atom_site_type_symbol
_atom_site_fract_x
_atom_site_fract_y
_atom_site_fract_z
Zn1	Zn	-0.686763	0.294999	-0.418971
Zn2	Zn	-0.186763	0.794999	0.081029
Zn3	Zn	-0.686692	0.418825	-0.295134
Zn4	Zn	-0.186692	0.918825	0.204866
Zn5	Zn	-0.611637	0.294992	-0.295119
Zn6	Zn	-0.111637	0.794992	0.204881
Zn7	Zn	-0.611600	0.418793	-0.418909
Zn8	Zn	-0.111600	0.918793	0.081091
O9	O	-0.649173	0.356902	-0.357033
O10	O	-0.149173	0.856902	0.142967
O11	O	-0.749621	0.311441	-0.402576
O12	O	-0.249621	0.811441	0.097424
O13	O	-0.676722	0.402408	-0.191499
O14	O	-0.176722	0.902408	0.308501
O15	O	-0.621648	0.191360	-0.311567
O16	O	-0.121648	0.691360	0.188433
O17	O	-0.749569	0.402415	-0.311593
O18	O	-0.249569	0.902415	0.188407
O19	O	-0.676843	0.191365	-0.402561
O20	O	-0.176843	0.691365	0.097439
O21	O	-0.621580	0.311428	-0.191488
O22	O	-0.121580	0.811428	0.308512
O23	O	-0.548765	0.311398	-0.311508
O24	O	-0.048765	0.811398	0.188492
O25	O	-0.621584	0.402362	-0.522550
O26	O	-0.121584	0.902362	-0.022550
O27	O	-0.548737	0.402354	-0.402456
O28	O	-0.048737	0.902354	0.097544
O29	O	-0.676807	0.311411	-0.522596
O30	O	-0.176807	0.811411	-0.022596
O31	O	-0.676686	0.522454	-0.311534
O32	O	-0.176686	1.022454	0.188466
O33	O	-0.621515	0.522430	-0.402471
O34	O	-0.121515	1.022430	0.097529
C35	C	-0.532451	0.356872	-0.356974
C36	C	-0.032451	0.856872	0.143026
C37	C	-0.482516	0.356878	-0.356966
C38	C	0.017484	0.856878	0.143034
C39	C	-0.649101	0.549313	-0.357014
C40	C	-0.149101	1.049313	0.142986
C41	C	-0.649111	0.631627	-0.357030
C42	C	-0.149111	1.131627	0.142970
C43	C	-0.172868	0.404340	-0.404309
C44	C	0.327132	0.904340	0.095691
C45	C	0.014805	0.404364	-0.404332
C46	C	0.514805	0.904364	0.095668
O47	O	0.039074	0.444680	-0.444565
O48	O	0.539074	0.944680	0.055435
N49	N	0.038269	0.356939	-0.357055
N50	N	0.538269	0.856939	0.142945
C51	C	0.014812	0.309502	-0.309772
C52	C	0.514812	0.809502	0.190228
O53	O	0.039075	0.269160	-0.269566
O54	O	0.539075	0.769160	0.230434
C55	C	-0.172861	0.309475	-0.309753
C56	C	0.327139	0.809475	0.190247
C57	C	-0.196322	0.356908	-0.357028
C58	C	0.303678	0.856908	0.142972
C59	C	-0.196329	0.451768	-0.451580
C60	C	0.303671	0.951768	0.048420
C61	C	-0.243245	0.451765	-0.451571
C62	C	0.256755	0.951765	0.048429
C63	C	-0.266699	0.404333	-0.404290
C64	C	0.233301	0.904333	0.095710
C65	C	-0.243237	0.356905	-0.357018
C66	C	0.256763	0.856905	0.142982
C67	C	-0.196317	0.262035	-0.262474
C68	C	0.303683	0.762035	0.237526
C69	C	-0.243238	0.262031	-0.262475
C70	C	0.256762	0.762031	0.237525
C71	C	-0.266700	0.309464	-0.309750
C72	C	0.233300	0.809464	0.190250
C73	C	-0.313607	0.309469	-0.309728
C74	C	0.186393	0.809469	0.190272
N75	N	-0.337071	0.356894	-0.357005
N76	N	0.162929	0.856894	0.142995
C77	C	-0.313617	0.404326	-0.404286
C78	C	0.186383	0.904326	0.095714
C79	C	0.113342	0.309520	-0.309785
C80	C	0.613342	0.809520	0.190215
C81	C	0.160260	0.309528	-0.309789
C82	C	0.660260	0.809528	0.190211
C83	C	0.160250	0.404389	-0.404350
C84	C	0.660250	0.904389	0.095650
C85	C	0.113332	0.404384	-0.404342
C86	C	0.613332	0.904384	0.095658
C87	C	0.089878	0.356945	-0.357062
C88	C	0.589878	0.856945	0.142938
C89	C	-0.412142	0.404315	-0.404263
C90	C	0.087858	0.904315	0.095737
C91	C	-0.459062	0.404309	-0.404247
C92	C	0.040938	0.904309	0.095753
C93	C	-0.459048	0.309446	-0.309689
C94	C	0.040952	0.809446	0.190311
C95	C	-0.412133	0.309454	-0.309702
C96	C	0.087867	0.809454	0.190298
C97	C	-0.388681	0.356891	-0.356995
C98	C	0.111319	0.856891	0.143005
O99	O	-0.337905	0.269168	-0.269523
O100	O	0.162095	0.769168	0.230477
O101	O	-0.337888	0.444650	-0.444498
O102	O	0.162112	0.944650	0.055502
C103	C	-0.125952	0.404344	-0.404318
C104	C	0.374048	0.904344	0.095682
C105	C	-0.102491	0.356915	-0.357046
C106	C	0.397509	0.856915	0.142954
C107	C	-0.125945	0.309483	-0.309765
C108	C	0.374055	0.809483	0.190235
C109	C	-0.055573	0.356923	-0.357050
C110	C	0.444427	0.856923	0.142950
C111	C	-0.032119	0.404354	-0.404331
C112	C	0.467881	0.904354	0.095669
C113	C	-0.055583	0.451779	-0.451608
C114	C	0.444417	0.951779	0.048392
C115	C	-0.102498	0.451775	-0.451599
C116	C	0.397502	0.951775	0.048401
C117	C	-0.102481	0.262059	-0.262488
C118	C	0.397519	0.762059	0.237512
C119	C	-0.055566	0.262067	-0.262501
C120	C	0.444434	0.762067	0.237499
C121	C	-0.032112	0.309499	-0.309782
C122	C	0.467888	0.809499	0.190218
C123	C	-0.649199	0.356884	-0.550195
C124	C	-0.149199	0.856884	-0.050195
C125	C	-0.649210	0.356876	-0.632509
C126	C	-0.149210	0.856876	-0.132509
C127	C	0.233649	0.356936	-0.357081
C128	C	0.733649	0.856936	0.142919
C129	C	0.183714	0.356960	-0.357069
C130	C	0.683714	0.856960	0.142931
C131	C	-0.649191	0.930718	-0.357073
C132	C	-0.149191	1.430718	0.142927
C133	C	-0.614562	0.899409	-0.414430
C134	C	-0.114562	1.399409	0.085570
C135	C	-0.614403	0.813791	-0.414250
C136	C	-0.114403	1.313791	0.085750
C137	C	-0.649151	0.782335	-0.357052
C138	C	-0.149151	1.282335	0.142948
C139	C	-0.636332	0.813471	-0.278999
C140	C	-0.136332	1.313471	0.221001
C141	C	-0.636103	0.899116	-0.279343
C142	C	-0.136103	1.399116	0.220657
C143	C	-0.696718	0.899072	-0.377082
C144	C	-0.196718	1.399072	0.122918
C145	C	-0.696444	0.813421	-0.378793
C146	C	-0.196444	1.313421	0.121207
C147	C	-0.649130	0.698476	-0.357036
C148	C	-0.149130	1.198476	0.142964
C149	C	-0.649212	1.014577	-0.357084
C150	C	-0.149212	1.514577	0.142916
C151	C	-0.649242	1.163740	-0.357072
C152	C	-0.149242	1.663740	0.142928
C153	C	-0.649231	1.081426	-0.357096
C154	C	-0.149231	1.581426	0.142904
C155	C	-0.649236	0.356737	-0.931601
C156	C	-0.149236	0.856737	-0.431601
C157	C	-0.614372	0.413779	-0.900247
C158	C	-0.114372	0.913779	-0.400247
C159	C	-0.614466	0.414043	-0.814629
C160	C	-0.114466	0.914043	-0.314629
C161	C	-0.649223	0.356806	-0.783218
C162	C	-0.149223	0.856806	-0.283218
C163	C	-0.696554	0.377996	-0.814333
C164	C	-0.196554	0.877996	-0.314333
C165	C	-0.696360	0.378370	-0.899978
C166	C	-0.196360	0.878370	-0.399978
C167	C	-0.637181	0.278378	-0.900020
C168	C	-0.137181	0.778378	-0.400020
C169	C	-0.636127	0.278830	-0.814368
C170	C	-0.136127	0.778830	-0.314368
C171	C	-0.649218	0.356843	-0.699358
C172	C	-0.149218	0.856843	-0.199358
C173	C	-0.649244	0.356701	-1.015460
C174	C	-0.149244	0.856701	-0.515460
C175	C	-0.649173	0.356867	-0.164623
C176	C	-0.149173	0.856867	0.335377
C177	C	-0.649249	0.356667	-0.082309
C178	C	-0.149249	0.856667	0.417691
H179	H	-0.478162	0.442938	-0.442745
H180	H	0.021838	0.942938	0.057255
O181	O	-0.568179	0.927977	-0.397094
O182	O	-0.068179	1.427977	0.102906
H183	H	-0.569682	0.964377	-0.347803
H184	H	-0.069682	1.464377	0.152197
H185	H	-0.601362	0.919151	-0.262395
H186	H	-0.101362	1.419151	0.237605
H187	H	-0.723612	0.792005	-0.340063
H188	H	-0.223612	1.292005	0.159937
H189	H	-0.722518	0.919317	-0.335307
H190	H	-0.222518	1.419317	0.164693
H191	H	-0.579177	0.793361	-0.400994
H192	H	-0.079177	1.293361	0.099006
O193	O	-0.624801	0.490237	-0.928796
O194	O	-0.124801	0.990237	-0.428796
H195	H	-0.658987	0.506466	-0.910939
H196	H	-0.158987	1.006466	-0.410939
O197	O	-0.668055	0.926562	-0.220796
O198	O	-0.168055	1.426562	0.279204
H199	H	-0.683599	0.878660	-0.192360
H200	H	-0.183599	1.378660	0.307640
H201	H	-0.579368	0.400782	-0.793589
H202	H	-0.079368	0.900782	-0.293589
H203	H	-0.579168	0.400653	-0.920826
H204	H	-0.079168	0.900653	-0.420826
O205	O	0.088046	0.258356	-0.258784
O206	O	0.588046	0.758356	0.241216
H207	H	0.066691	0.291448	-0.221052
H208	H	0.566691	0.791448	0.278948
H209	H	-0.601961	0.792078	-0.261747
H210	H	-0.101961	1.292078	0.238253
H211	H	-0.177238	0.490393	-0.490086
H212	H	0.322762	0.990393	0.009914
H213	H	-0.603267	0.259073	-0.921599
H214	H	-0.103267	0.759073	-0.421599
H215	H	-0.660763	0.793096	-0.235097
H216	H	-0.160763	1.293096	0.264903
O217	O	0.185555	0.455623	-0.455269
O218	O	0.685555	0.955623	0.044731
H219	H	0.161362	0.488634	-0.488118
H220	H	0.661362	0.988634	0.011882
H221	H	-0.622425	0.472125	-0.794150
H222	H	-0.122425	0.972125	-0.294150
O223	O	-0.386851	0.455532	-0.455215
O224	O	0.113149	0.955532	0.044785
H225	H	-0.411053	0.488531	-0.488056
H226	H	0.088947	0.988531	0.011944
O227	O	-0.268547	0.502914	-0.502571
O228	O	0.231453	1.002914	-0.002571
H229	H	-0.244349	0.535885	-0.535452
H230	H	0.255651	1.035885	-0.035452
H231	H	-0.036478	0.490402	-0.490104
H232	H	0.463522	0.990402	0.009896
O233	O	0.185563	0.258373	-0.258796
O234	O	0.685563	0.758373	0.241204
H235	H	0.161367	0.225386	-0.225927
H236	H	0.661367	0.725386	0.274073
H237	H	-0.177223	0.223412	-0.223976
H238	H	0.322777	0.723412	0.276024
O239	O	-0.712194	0.927618	-0.451197
O240	O	-0.212194	1.427618	0.048803
H241	H	-0.743947	0.958737	-0.444154
H242	H	-0.243947	1.458737	0.055846
H243	H	-0.723228	0.337755	-0.793990
H244	H	-0.223228	0.837755	-0.293990
H245	H	-0.706111	0.793069	-0.436236
H246	H	-0.206111	1.293069	0.063764
O247	O	0.088027	0.455535	-0.455338
O248	O	0.588027	0.955535	0.044662
H249	H	0.112224	0.488512	-0.488216
H250	H	0.612224	0.988512	0.011784
O251	O	-0.670815	0.222082	-0.926884
O252	O	-0.170815	0.722082	-0.426884
H253	H	-0.687866	0.196568	-0.878742
H254	H	-0.187866	0.696568	-0.378742
O255	O	-0.268535	0.210873	-0.211470
O256	O	0.231465	0.710873	0.288530
H257	H	-0.244336	0.177901	-0.178595
H258	H	0.255664	0.677901	0.321405
O259	O	-0.710331	0.453068	-0.785947
O260	O	-0.210331	0.953068	-0.285947
H261	H	-0.683546	0.475408	-0.749689
H262	H	-0.183546	0.975408	-0.249689
H263	H	-0.622500	0.919968	-0.472493
H264	H	-0.122500	1.419968	0.027507
O265	O	-0.667315	0.219541	-0.786071
O266	O	-0.167315	0.719541	-0.286071
H267	H	-0.647751	0.177813	-0.754807
H268	H	-0.147751	0.677813	-0.254807
O269	O	-0.731940	0.325743	-0.927465
O270	O	-0.231940	0.825743	-0.427465
H271	H	-0.749211	0.300142	-0.879583
H272	H	-0.249211	0.800142	-0.379583
H273	H	-0.601296	0.262850	-0.794030
H274	H	-0.101296	0.762850	-0.294030
O275	O	-0.709891	0.454247	-0.926463
O276	O	-0.209891	0.954247	-0.426463
H277	H	-0.716509	0.490328	-0.878100
H278	H	-0.216509	0.990328	-0.378100
O279	O	-0.625025	0.785901	-0.490912
O280	O	-0.125025	1.285901	0.009088
H281	H	-0.624923	0.724584	-0.490860
H282	H	-0.124923	1.224584	0.009140
O283	O	-0.386824	0.258298	-0.258713
O284	O	0.113176	0.758298	0.241287
H285	H	-0.411017	0.225314	-0.225837
H286	H	0.088983	0.725314	0.274163
H287	H	-0.478153	0.270831	-0.271192
H288	H	0.021847	0.770831	0.228808
H289	H	-0.121596	0.490400	-0.490095
H290	H	0.378404	0.990400	0.009905
H291	H	-0.121573	0.223433	-0.223986
H292	H	0.378427	0.723433	0.276014
O293	O	-0.030263	0.210902	-0.211510
O294	O	0.469737	0.710902	0.288490
H295	H	-0.054459	0.177916	-0.178640
H296	H	0.445541	0.677916	0.321360
