data_functionalizedCrystal
_audit_creation_method	'MofGen! by Chris Wilmer'
_symmetry_space_group_name_H-M	'P1'
_symmetry_Int_Tables_number	1
_symmetry_cell_setting	triclinic
loop_
_symmetry_equiv_pos_as_xyz
  x,y,z
_cell_length_a	16.120530
_cell_length_b	18.050589
_cell_length_c	16.120297
_cell_angle_alpha	87.124343
_cell_angle_beta	89.871860
_cell_angle_gamma	87.123928
loop_
_atom_site_label
_atom_site_type_symbol
_atom_site_fract_x
_atom_site_fract_y
_atom_site_fract_z
Zn1	Zn	1.247404	-0.376248	0.534587
Zn2	Zn	1.497404	-0.126248	0.784587
Zn3	Zn	1.747404	0.123752	1.034587
Zn4	Zn	1.997404	0.373752	1.284587
Zn5	Zn	1.254344	-0.494473	0.395537
Zn6	Zn	1.504344	-0.244473	0.645537
Zn7	Zn	1.754344	0.005527	0.895537
Zn8	Zn	2.004344	0.255527	1.145537
Zn9	Zn	1.115396	-0.363698	0.388504
Zn10	Zn	1.365396	-0.113698	0.638504
Zn11	Zn	1.615396	0.136302	0.888504
Zn12	Zn	1.865396	0.386302	1.138504
Zn13	Zn	1.108300	-0.493789	0.527506
Zn14	Zn	1.358300	-0.243789	0.777506
Zn15	Zn	1.608300	0.006211	1.027506
Zn16	Zn	1.858300	0.256211	1.277506
O17	O	1.181361	-0.432052	0.461533
O18	O	1.431361	-0.182052	0.711533
O19	O	1.681361	0.067948	0.961533
O20	O	1.931361	0.317948	1.211533
O21	O	1.364691	-0.397469	0.522048
O22	O	1.614691	-0.147469	0.772048
O23	O	1.864691	0.102531	1.022048
O24	O	2.114691	0.352531	1.272048
O25	O	1.241786	-0.472159	0.278238
O26	O	1.491786	-0.222159	0.528238
O27	O	1.741786	0.027841	0.778238
O28	O	1.991786	0.277841	1.028238
O29	O	1.132972	-0.261442	0.407903
O30	O	1.382972	-0.011442	0.657903
O31	O	1.632972	0.238558	0.907903
O32	O	1.882972	0.488558	1.157903
O33	O	1.369789	-0.484328	0.419888
O34	O	1.619789	-0.234328	0.669888
O35	O	1.869789	0.015672	0.919888
O36	O	2.119789	0.265672	1.169888
O37	O	1.229959	-0.270662	0.515230
O38	O	1.479959	-0.020662	0.765230
O39	O	1.729959	0.229338	1.015230
O40	O	1.979959	0.479338	1.265230
O41	O	1.139701	-0.376080	0.273071
O42	O	1.389701	-0.126080	0.523071
O43	O	1.639701	0.123920	0.773071
O44	O	1.889701	0.373920	1.023071
O45	O	0.998089	-0.375417	0.401037
O46	O	1.248089	-0.125417	0.651037
O47	O	1.498089	0.124583	0.901037
O48	O	1.748089	0.374583	1.151037
O49	O	1.120879	-0.483162	0.644811
O50	O	1.370879	-0.233162	0.894811
O51	O	1.620879	0.016838	1.144811
O52	O	1.870879	0.266838	1.394811
O53	O	0.992876	-0.470994	0.503160
O54	O	1.242876	-0.220994	0.753160
O55	O	1.492876	0.029006	1.003160
O56	O	1.742876	0.279006	1.253160
O57	O	1.223078	-0.396806	0.650014
O58	O	1.473078	-0.146806	0.900014
O59	O	1.723078	0.103194	1.150014
O60	O	1.973078	0.353194	1.400014
O61	O	1.234906	-0.598303	0.413022
O62	O	1.484906	-0.348303	0.663022
O63	O	1.734906	-0.098303	0.913022
O64	O	1.984906	0.151697	1.163022
O65	O	1.127608	-0.597800	0.509979
O66	O	1.377608	-0.347800	0.759979
O67	O	1.627608	-0.097800	1.009979
O68	O	1.877608	0.152200	1.259979
C69	C	0.965310	-0.421770	0.450568
C70	C	1.215310	-0.171770	0.700568
C71	C	1.465310	0.078230	0.950568
C72	C	1.715310	0.328230	1.200568
C73	C	0.872881	-0.417390	0.445896
C74	C	1.122881	-0.167390	0.695896
C75	C	1.372881	0.082610	0.945896
C76	C	1.622881	0.332610	1.195896
C77	C	1.181261	-0.624999	0.461515
C78	C	1.431261	-0.374999	0.711515
C79	C	1.681261	-0.124999	0.961515
C80	C	1.931261	0.125001	1.211515
C81	C	1.181293	-0.707547	0.461538
C82	C	1.431293	-0.457547	0.711538
C83	C	1.681293	-0.207547	0.961538
C84	C	1.931293	0.042453	1.211538
C85	C	0.703653	-0.409376	0.437374
C86	C	0.953653	-0.159376	0.687374
C87	C	1.203653	0.090624	0.937374
C88	C	1.453653	0.340624	1.187374
C89	C	0.659907	-0.454785	0.485754
C90	C	0.909907	-0.204785	0.735754
C91	C	1.159907	0.045215	0.985754
C92	C	1.409907	0.295215	1.235754
C93	C	0.565742	-0.450326	0.481012
C94	C	0.815742	-0.200326	0.731012
C95	C	1.065742	0.049674	0.981012
C96	C	1.315742	0.299674	1.231012
C97	C	0.797826	-0.413834	0.442115
C98	C	1.047826	-0.163834	0.692115
C99	C	1.297826	0.086166	0.942115
C100	C	1.547826	0.336166	1.192115
C101	C	1.123001	-0.906753	0.514247
C102	C	1.373001	-0.656753	0.764247
C103	C	1.623001	-0.406753	1.014247
C104	C	1.873001	-0.156753	1.264247
C105	C	1.106578	-0.951975	0.437341
C106	C	1.356578	-0.701975	0.687341
C107	C	1.606578	-0.451975	0.937341
C108	C	1.856578	-0.201975	1.187341
C109	C	1.181375	-0.858682	0.461553
C110	C	1.431375	-0.608682	0.711553
C111	C	1.681375	-0.358682	0.961553
C112	C	1.931375	-0.108682	1.211553
C113	C	1.197838	-0.960544	0.538470
C114	C	1.447838	-0.710544	0.788470
C115	C	1.697838	-0.460544	1.038470
C116	C	1.947838	-0.210544	1.288470
C117	C	1.181451	-1.004671	0.461574
C118	C	1.431451	-0.754671	0.711574
C119	C	1.681451	-0.504671	0.961574
C120	C	1.931451	-0.254671	1.211574
C121	C	1.164914	-0.902813	0.384605
C122	C	1.414914	-0.652813	0.634605
C123	C	1.664914	-0.402813	0.884605
C124	C	1.914914	-0.152813	1.134605
C125	C	1.256207	-0.911381	0.485787
C126	C	1.506207	-0.661381	0.735787
C127	C	1.756207	-0.411381	0.985787
C128	C	2.006207	-0.161381	1.235787
C129	C	1.239815	-0.956580	0.408830
C130	C	1.489815	-0.706580	0.658830
C131	C	1.739815	-0.456580	0.908830
C132	C	1.989815	-0.206580	1.158830
C133	C	1.181328	-0.774581	0.461542
C134	C	1.431328	-0.524581	0.711542
C135	C	1.681328	-0.274581	0.961542
C136	C	1.931328	-0.024581	1.211542
C137	C	1.181498	-1.088770	0.461577
C138	C	1.431498	-0.838770	0.711577
C139	C	1.681498	-0.588770	0.961577
C140	C	1.931498	-0.338770	1.211577
C141	C	1.398256	-0.442375	0.472543
C142	C	1.648256	-0.192375	0.722543
C143	C	1.898256	0.057625	0.972543
C144	C	2.148256	0.307625	1.222543
C145	C	1.490683	-0.446774	0.477234
C146	C	1.740683	-0.196774	0.727234
C147	C	1.990683	0.053226	0.977234
C148	C	2.240683	0.303226	1.227234
C149	C	1.170413	-0.441308	0.678428
C150	C	1.420413	-0.191308	0.928428
C151	C	1.670413	0.058692	1.178428
C152	C	1.920413	0.308692	1.428428
C153	C	1.165748	-0.445252	0.770856
C154	C	1.415748	-0.195252	1.020856
C155	C	1.665748	0.054748	1.270856
C156	C	1.915748	0.304748	1.520856
C157	C	1.181483	-0.238354	0.461572
C158	C	1.431483	0.011646	0.711572
C159	C	1.681483	0.261646	0.961572
C160	C	1.931483	0.511646	1.211572
C161	C	1.181535	-0.155811	0.461588
C162	C	1.431535	0.094189	0.711588
C163	C	1.681535	0.344189	0.961588
C164	C	1.931535	0.594189	1.211588
C165	C	1.192314	-0.422781	0.245485
C166	C	1.442314	-0.172781	0.495485
C167	C	1.692314	0.077219	0.745485
C168	C	1.942314	0.327219	0.995485
C169	C	1.197141	-0.418635	0.153066
C170	C	1.447141	-0.168635	0.403066
C171	C	1.697141	0.081365	0.653066
C172	C	1.947141	0.331365	0.903066
C173	C	1.157199	-0.452435	0.940081
C174	C	1.407199	-0.202435	1.190081
C175	C	1.657199	0.047565	1.440081
C176	C	1.907199	0.297565	1.690081
C177	C	1.205687	-0.411454	0.983846
C178	C	1.455687	-0.161454	1.233846
C179	C	1.705687	0.088546	1.483846
C180	C	1.955687	0.338546	1.733846
C181	C	1.200930	-0.415451	1.078009
C182	C	1.450930	-0.165451	1.328009
C183	C	1.700930	0.084549	1.578009
C184	C	1.950930	0.334549	1.828009
C185	C	1.161955	-0.448439	0.845910
C186	C	1.411955	-0.198439	1.095910
C187	C	1.661955	0.051561	1.345910
C188	C	1.911955	0.301561	1.595910
H189	H	0.693175	-0.497008	0.530735
H190	H	0.943175	-0.247008	0.780735
H191	H	1.193175	0.002992	1.030735
H192	H	1.443175	0.252992	1.280735
H193	H	1.319438	-0.893389	0.506301
H194	H	1.569438	-0.643389	0.756301
H195	H	1.819438	-0.393389	1.006301
H196	H	2.069438	-0.143389	1.256301
C197	C	0.658711	-0.352340	0.376608
C198	C	0.908711	-0.102340	0.626608
C199	C	1.158711	0.147660	0.876608
C200	C	1.408711	0.397660	1.126608
N201	N	0.624851	-0.309384	0.330837
N202	N	0.874851	-0.059384	0.580837
N203	N	1.124851	0.190616	0.830837
N204	N	1.374851	0.440616	1.080837
H205	H	1.250770	-0.373367	0.950596
H206	H	1.500770	-0.123367	1.200596
H207	H	1.750770	0.126633	1.450596
H208	H	2.000770	0.376633	1.700596
H209	H	1.073570	-0.884877	0.558738
H210	H	1.323570	-0.634877	0.808738
H211	H	1.573570	-0.384877	1.058738
H212	H	1.823570	-0.134877	1.308738
H213	H	1.043330	-0.969970	0.416862
H214	H	1.293330	-0.719970	0.666862
H215	H	1.543330	-0.469970	0.916862
H216	H	1.793330	-0.219970	1.166862
C217	C	1.096296	-0.503884	0.984998
C218	C	1.346296	-0.253884	1.234998
C219	C	1.596296	-0.003884	1.484998
C220	C	1.846296	0.246116	1.734998
N221	N	1.050424	-0.542635	1.018839
N222	N	1.300424	-0.292635	1.268839
N223	N	1.550424	-0.042635	1.518839
N224	N	1.800424	0.207365	1.768839
C225	C	1.306550	-0.985946	0.348570
C226	C	1.556550	-0.735946	0.598570
C227	C	1.806550	-0.485946	0.848570
C228	C	2.056550	-0.235946	1.098570
N229	N	1.356811	-1.008066	0.303179
N230	N	1.606811	-0.758066	0.553179
N231	N	1.856811	-0.508066	0.803179
N232	N	2.106811	-0.258066	1.053179
C233	C	1.146039	-0.868862	0.296711
C234	C	1.396039	-0.618862	0.546711
C235	C	1.646039	-0.368862	0.796711
C236	C	1.896039	-0.118862	1.046711
N237	N	1.131819	-0.843288	0.230512
N238	N	1.381819	-0.593288	0.480512
N239	N	1.631819	-0.343288	0.730512
N240	N	1.881819	-0.093288	0.980512
C241	C	1.216610	-0.994612	0.626334
C242	C	1.466610	-0.744612	0.876334
C243	C	1.716610	-0.494612	1.126334
C244	C	1.966610	-0.244612	1.376334
N245	N	1.230744	-1.020269	0.692515
N246	N	1.480744	-0.770269	0.942515
N247	N	1.730744	-0.520269	1.192515
N248	N	1.980744	-0.270269	1.442515
