data_functionalizedCrystal
_audit_creation_method	'MofGen! by Chris Wilmer'
_symmetry_space_group_name_H-M	'P1'
_symmetry_Int_Tables_number	1
_symmetry_cell_setting	triclinic
loop_
_symmetry_equiv_pos_as_xyz
  x,y,z
_cell_length_a	17.699077
_cell_length_b	11.792254
_cell_length_c	16.176319
_cell_angle_alpha	89.993043
_cell_angle_beta	89.993140
_cell_angle_gamma	83.739587
loop_
_atom_site_label
_atom_site_type_symbol
_atom_site_fract_x
_atom_site_fract_y
_atom_site_fract_z
O1	O	1.004851	0.143494	-0.068736
O2	O	1.504851	0.643494	0.431264
O3	O	0.784572	0.162174	-0.068740
O4	O	1.284572	0.662174	0.431260
O5	O	0.900052	-0.012400	-0.068732
O6	O	1.400052	0.487600	0.431268
O7	O	0.889371	0.318068	-0.068744
O8	O	1.389371	0.818068	0.431256
O9	O	0.900036	-0.012411	0.068761
O10	O	1.400036	0.487589	0.568761
O11	O	0.784556	0.162163	0.068753
O12	O	1.284556	0.662163	0.568753
O13	O	1.004835	0.143483	0.068757
O14	O	1.504835	0.643483	0.568757
Cu15	Cu	0.894694	0.152822	0.081309
Cu16	Cu	1.394694	0.652822	0.581309
Cu17	Cu	0.894713	0.152835	-0.081292
Cu18	Cu	1.394713	0.652835	0.418708
O19	O	0.889355	0.318057	0.068749
O20	O	1.389355	0.818057	0.568749
C21	C	0.756363	0.161500	0.000006
C22	C	1.256363	0.661500	0.500006
C23	C	0.672334	0.159496	0.000005
C24	C	1.172334	0.659496	0.500005
C25	C	0.632853	0.158545	0.074953
C26	C	1.132853	0.658545	0.574953
C27	C	0.553900	0.156643	0.074954
C28	C	1.053900	0.656643	0.574954
C29	C	0.514429	0.155700	0.000006
C30	C	1.014429	0.655700	0.500006
C31	C	0.553916	0.156648	-0.074949
C32	C	1.053916	0.656648	0.425051
C33	C	0.632868	0.158541	-0.074949
C34	C	1.132868	0.658541	0.425051
C35	C	0.235512	0.149010	-0.074950
C36	C	0.735512	0.649010	0.425050
C37	C	0.156554	0.147120	-0.074944
C38	C	0.656554	0.647120	0.425056
C39	C	0.156544	0.147112	0.074953
C40	C	0.656544	0.647112	0.574953
C41	C	0.235496	0.149006	0.074953
C42	C	0.735496	0.649006	0.574953
C43	C	0.274977	0.149947	-0.000001
C44	C	0.774977	0.649947	0.499999
C45	C	0.360586	0.152007	-0.000001
C46	C	0.860586	0.652007	0.499999
C47	C	0.428821	0.153649	0.000005
C48	C	0.928821	0.653649	0.500005
C49	C	0.899371	-0.054688	0.000014
C50	C	1.399371	0.445312	0.500014
C51	C	0.897357	-0.180677	0.000013
C52	C	1.397357	0.319323	0.500013
C53	C	0.895721	-0.282994	0.000011
C54	C	1.395721	0.217006	0.500011
C55	C	0.893675	-0.411356	0.000003
C56	C	1.393675	0.088644	0.500003
C57	C	1.033043	0.144156	0.000009
C58	C	1.533043	0.644156	0.500009
C59	C	1.117072	0.146161	0.000005
C60	C	1.617072	0.646161	0.500005
C61	C	0.890036	0.360345	0.000001
C62	C	1.390036	0.860345	0.500001
C63	C	0.892050	0.486333	-0.000004
C64	C	1.392050	0.986333	0.499996
N65	N	0.894686	0.152812	0.195675
N66	N	1.394686	0.652812	0.695675
N67	N	0.894727	0.152836	-0.195657
N68	N	1.394727	0.652836	0.304343
C69	C	0.945836	0.075542	0.238942
C70	C	1.445836	0.575542	0.738942
C71	C	0.945840	0.075541	0.325489
C72	C	1.445840	0.575541	0.825489
C73	C	0.894697	0.152816	0.368767
C74	C	1.394697	0.652816	0.868767
C75	C	0.843541	0.230089	0.325493
C76	C	1.343541	0.730089	0.825493
C77	C	0.843534	0.230084	0.238948
C78	C	1.343534	0.730084	0.738948
C79	C	0.843567	0.230110	0.674522
C80	C	1.343567	0.730110	1.174522
C81	C	0.843579	0.230112	0.761073
C82	C	1.343579	0.730112	1.261073
C83	C	0.945873	0.075567	0.761063
C84	C	1.445873	0.575567	1.261063
C85	C	0.945866	0.075562	0.674518
C86	C	1.445866	0.575562	1.174518
C87	C	0.894708	0.152831	0.631251
C88	C	1.394708	0.652831	1.131251
C89	C	0.894704	0.152830	0.537407
C90	C	1.394704	0.652830	1.037407
C91	C	0.894704	0.152823	0.462610
C92	C	1.394704	0.652823	0.962610
H93	H	0.124390	0.146341	0.135984
H94	H	0.624390	0.646341	0.635984
H95	H	0.267629	0.149779	0.135983
H96	H	0.767629	0.649779	0.635983
H97	H	0.664984	0.159322	0.135985
H98	H	1.164984	0.659322	0.635985
N99	N	0.998114	-0.003377	0.805271
N100	N	1.498114	0.496623	1.305271
N101	N	0.973815	-0.073784	0.853574
N102	N	1.473815	0.426216	1.353574
H103	H	1.010709	-0.129537	0.884796
H104	H	1.510709	0.370463	1.384796
N105	N	0.791319	0.309043	0.805269
N106	N	1.291319	0.809043	1.305269
N107	N	0.721360	0.307606	0.795623
N108	N	1.221360	0.807606	1.295623
H109	H	0.684453	0.363348	0.826836
H110	H	1.184453	0.863348	1.326836
N111	N	0.513587	0.155693	0.151523
N112	N	1.013587	0.655693	0.651523
N113	N	0.515757	0.235880	0.201696
N114	N	1.015757	0.735880	0.701696
H115	H	0.487289	0.235211	0.255778
H116	H	0.987289	0.735211	0.755778
H117	H	0.267648	0.149773	-0.135982
H118	H	0.767648	0.649773	0.364018
N119	N	0.116246	0.146159	-0.151514
N120	N	0.616246	0.646159	0.348486
N121	N	0.151504	0.147000	-0.218431
N122	N	0.651504	0.647000	0.281569
H123	H	0.123037	0.146323	-0.272506
H124	H	0.623037	0.646323	0.227494
H125	H	0.521774	0.155872	-0.135973
H126	H	1.021774	0.655872	0.364027
N127	N	0.791305	0.309039	0.630347
N128	N	1.291305	0.809039	1.130347
N129	N	0.745646	0.378026	0.669000
N130	N	1.245646	0.878026	1.169000
H131	H	0.708732	0.433772	0.637800
H132	H	1.208732	0.933772	1.137800
H133	H	0.665013	0.159317	-0.135979
H134	H	1.165013	0.659317	0.364021
N135	N	0.998043	-0.003462	0.194752
N136	N	1.498043	0.496538	0.694752
N137	N	1.043678	-0.072493	0.233399
N138	N	1.543678	0.427507	0.733399
H139	H	1.080533	-0.128321	0.202192
H140	H	1.580533	0.371679	0.702192
N141	N	0.998091	-0.003401	0.369673
N142	N	1.498091	0.496599	0.869673
N143	N	1.043753	-0.072387	0.331023
N144	N	1.543753	0.427613	0.831023
H145	H	1.080657	-0.128145	0.362227
H146	H	1.580657	0.371855	0.862227
N147	N	0.998123	-0.003365	0.630324
N148	N	1.498123	0.496635	1.130324
N149	N	1.043793	-0.072347	0.668967
N150	N	1.543793	0.427653	1.168967
H151	H	1.080702	-0.128091	0.637758
H152	H	1.580702	0.371909	1.137758
N153	N	0.791298	0.309008	0.369710
N154	N	1.291298	0.809008	0.869710
N155	N	0.791310	0.309004	0.446982
N156	N	1.291310	0.809004	0.946982
H157	H	0.754414	0.364744	0.478211
H158	H	1.254414	0.864744	0.978211
N159	N	0.791277	0.309016	0.194761
N160	N	1.291277	0.809016	0.694761
N161	N	0.745616	0.378006	0.233409
N162	N	1.245616	0.878006	0.733409
H163	H	0.708705	0.433753	0.202204
H164	H	1.208705	0.933753	0.702204
