data_functionalizedCrystal
_audit_creation_method	'MofGen! by Chris Wilmer'
_symmetry_space_group_name_H-M	'P1'
_symmetry_Int_Tables_number	1
_symmetry_cell_setting	triclinic
loop_
_symmetry_equiv_pos_as_xyz
  x,y,z
_cell_length_a	17.640112
_cell_length_b	16.994747
_cell_length_c	17.640968
_cell_angle_alpha	101.211591
_cell_angle_beta	87.860920
_cell_angle_gamma	101.231708
loop_
_atom_site_label
_atom_site_type_symbol
_atom_site_fract_x
_atom_site_fract_y
_atom_site_fract_z
Zn1	Zn	1.247784	-0.022661	0.195088
Zn2	Zn	1.222059	-0.185380	0.068161
Zn3	Zn	1.095130	-0.073965	0.093751
Zn4	Zn	1.120797	-0.174998	0.220739
O5	O	1.171443	-0.114251	0.144435
O6	O	1.350637	-0.027120	0.156806
O7	O	1.183714	-0.196416	-0.034709
O8	O	1.115405	0.043222	0.107168
O9	O	1.331736	-0.146669	0.063553
O10	O	1.227559	0.080914	0.181620
O11	O	1.090460	-0.114560	-0.015908
O12	O	0.992271	-0.104493	0.132041
O13	O	1.159150	-0.128975	0.323601
O14	O	1.011128	-0.178722	0.225339
O15	O	1.252447	-0.017053	0.304755
O16	O	1.208602	-0.294384	0.088426
O17	O	1.134205	-0.286756	0.200525
C18	C	0.974146	-0.146049	0.184251
C19	C	0.889745	-0.159666	0.201303
C20	C	1.171406	-0.319190	0.144478
C21	C	1.171411	-0.408511	0.144474
Zn22	Zn	1.095148	-0.705053	0.093725
Zn23	Zn	1.247811	-0.653729	0.195047
Zn24	Zn	1.120820	-0.542389	0.220721
Zn25	Zn	1.222068	-0.552639	0.068133
O26	O	1.171462	-0.613452	0.144407
O27	O	1.115429	-0.808627	0.107132
O28	O	1.252484	-0.613190	0.304715
O29	O	1.011152	-0.581157	0.225330
O30	O	1.227590	-0.770919	0.181573
O31	O	0.992291	-0.700665	0.132027
O32	O	1.159184	-0.531390	0.323578
O33	O	1.134221	-0.433367	0.200514
O34	O	1.183714	-0.598626	-0.034734
O35	O	1.208607	-0.440897	0.088408
O36	O	1.090466	-0.710604	-0.015932
O37	O	1.350659	-0.623129	0.156757
O38	O	1.331745	-0.548858	0.063513
C39	C	0.563042	-0.010783	0.014902
C40	C	0.483737	-0.023592	0.030935
C41	C	0.503393	-0.101066	0.127918
C42	C	0.582702	-0.088260	0.111896
C43	C	0.612520	-0.043118	0.055386
C44	C	0.632180	-0.120595	0.152380
C45	C	0.711482	-0.107793	0.136356
C46	C	0.741305	-0.062656	0.079848
C47	C	0.691821	-0.030316	0.039362
C48	C	0.602360	-0.165741	0.208886
C49	C	0.651838	-0.198077	0.249370
C50	C	0.731142	-0.185270	0.233350
C51	C	0.760966	-0.140133	0.176842
C52	C	0.780626	-0.217610	0.273836
C53	C	0.859927	-0.204808	0.257812
C54	C	0.840267	-0.127331	0.160818
C55	C	1.369510	-0.082330	0.104463
C56	C	1.453914	-0.068727	0.087430
C57	C	1.211531	-0.066133	0.342501
C58	C	1.228614	-0.045628	0.426905
C59	C	1.171483	0.091488	0.144386
C60	C	1.171503	0.180809	0.144365
C61	C	1.131554	-0.162118	-0.052870
C62	C	1.114618	-0.182377	-0.137304
C63	C	1.041954	-0.269549	0.753555
C64	C	1.058023	-0.250269	0.832862
C65	C	1.155164	-0.133735	0.813229
C66	C	1.139102	-0.153003	0.733919
C67	C	1.082496	-0.220912	0.704088
C68	C	1.179644	-0.104366	0.684452
C69	C	1.163585	-0.123635	0.605149
C70	C	1.106984	-0.191542	0.575311
C71	C	1.066437	-0.240181	0.624784
C72	C	1.236253	-0.036461	0.714284
C73	C	1.276795	0.012176	0.664817
C74	C	1.260732	-0.007089	0.585513
C75	C	1.204131	-0.074996	0.555676
C76	C	1.301279	0.041550	0.536040
C77	C	1.285220	0.022280	0.456736
C78	C	1.188072	-0.094265	0.476372
C79	C	1.368755	-0.581538	0.104574
C80	C	1.453163	-0.567903	0.087556
C81	C	1.131355	-0.661483	-0.053656
C82	C	1.114263	-0.681951	-0.138059
C83	C	0.973398	-0.645493	0.184397
C84	C	0.888996	-0.659147	0.201438
C85	C	1.211359	-0.565662	0.341710
C86	C	1.228238	-0.545379	0.426155
C87	C	1.502619	-0.600228	0.128076
C88	C	1.581929	-0.587432	0.112085
C89	C	1.611782	-0.542305	0.055578
C90	C	1.562319	-0.509979	0.015054
C91	C	1.483010	-0.522781	0.031041
C92	C	1.057681	-0.749866	-0.167908
C93	C	1.041607	-0.769101	-0.247210
C94	C	1.082120	-0.720422	-0.296662
C95	C	1.138705	-0.652499	-0.266807
C96	C	1.154774	-0.633263	-0.187506
C97	C	0.859175	-0.603332	0.258020
C98	C	0.779870	-0.616145	0.274033
C99	C	0.730387	-0.684777	0.233466
C100	C	0.760212	-0.740595	0.176878
C101	C	0.839515	-0.727778	0.160862
C102	C	1.187930	-0.492851	0.475529
C103	C	1.203775	-0.473795	0.554877
C104	C	1.259933	-0.507263	0.584848
C105	C	1.300242	-0.559798	0.535468
C106	C	1.284392	-0.578858	0.456123
H107	H	0.805878	-0.052236	0.066801
H108	H	0.537787	-0.176163	0.221930
H109	H	1.171686	-0.612870	-0.307083
H110	H	1.025004	-0.289881	0.873136
H111	H	1.020325	-0.295463	0.600499
H112	H	1.322885	0.067465	0.689116
C113	C	1.125814	-0.168977	0.443559
C114	C	1.147683	-0.238847	0.382421
C115	C	1.085434	-0.313562	0.349610
C116	C	1.001316	-0.318408	0.377938
C117	C	0.979442	-0.248536	0.439079
C118	C	1.041691	-0.173821	0.471890
H119	H	1.209956	-0.235262	0.361448
H120	H	1.101626	-0.365286	0.304349
H121	H	0.955235	-0.373717	0.353650
H122	H	0.917169	-0.252121	0.460052
H123	H	1.025499	-0.122097	0.517151
C124	C	1.595166	-0.460333	-0.047097
C125	C	1.682406	-0.446251	-0.064668
C126	C	1.715256	-0.396600	-0.126815
C127	C	1.660867	-0.361031	-0.171392
C128	C	1.573622	-0.375113	-0.153823
C129	C	1.540771	-0.424764	-0.091675
H130	H	1.722673	-0.472581	-0.031668
H131	H	1.779841	-0.386175	-0.139821
H132	H	1.685184	-0.324277	-0.217397
H133	H	1.533354	-0.348783	-0.186822
H134	H	1.476186	-0.435189	-0.078670
H135	H	1.201255	-0.078446	0.837528
H136	H	0.864548	-0.090558	0.114814
C137	C	1.329816	0.075781	0.402319
C138	C	1.378387	0.037961	0.335773
C139	C	1.422988	0.091460	0.281356
C140	C	1.419017	0.182780	0.293483
C141	C	1.370443	0.220606	0.360031
C142	C	1.325842	0.167106	0.414449
H143	H	1.381329	-0.029644	0.326793
H144	H	1.458946	0.063459	0.232092
H145	H	1.452033	0.222384	0.253200
H146	H	1.367502	0.288211	0.369011
H147	H	1.289885	0.195108	0.463712
H148	H	1.272832	-0.491736	0.649458
H149	H	1.200852	-0.577962	-0.163210
H150	H	0.995530	-0.824408	-0.271506
C151	C	1.362020	-0.596603	0.568444
C152	C	1.379452	-0.575622	0.655721
C153	C	1.441234	-0.612421	0.688698
C154	C	1.485584	-0.670199	0.634397
C155	C	1.468153	-0.691183	0.547115
C156	C	1.406370	-0.654384	0.514138
H157	H	1.346620	-0.532849	0.695922
H158	H	1.454138	-0.596887	0.753310
H159	H	1.531319	-0.697440	0.658809
H160	H	1.500984	-0.733957	0.506914
H161	H	1.393467	-0.669918	0.449525
C162	C	0.979690	-0.344248	0.720722
C163	C	0.895568	-0.349084	0.749035
C164	C	0.833311	-0.423779	0.716195
C165	C	0.855176	-0.493639	0.655042
C166	C	0.939303	-0.488805	0.626725
C167	C	1.001560	-0.414110	0.659565
H168	H	0.879378	-0.297368	0.794307
H169	H	0.771035	-0.427357	0.737157
H170	H	0.809090	-0.548933	0.630732
H171	H	0.955492	-0.540522	0.581453
H172	H	1.063836	-0.410532	0.638603
C173	C	1.699025	-0.528221	0.038003
C174	C	1.738674	-0.601721	0.009588
C175	C	1.825918	-0.587638	-0.007981
C176	C	1.873513	-0.500056	0.002865
C177	C	1.833865	-0.426550	0.031281
C178	C	1.746621	-0.440633	0.048851
H179	H	1.703441	-0.666560	0.001558
H180	H	1.855268	-0.642052	-0.029017
H181	H	1.938097	-0.489631	-0.010141
H182	H	1.869098	-0.361711	0.039312
H183	H	1.717270	-0.386219	0.069886
C184	C	1.064442	-0.741592	-0.383895
C185	C	1.128576	-0.760688	-0.442258
C186	C	1.110896	-0.781864	-0.529490
C187	C	1.029084	-0.783944	-0.558359
C188	C	0.964945	-0.764847	-0.499995
C189	C	0.982624	-0.743671	-0.412763
H190	H	1.189143	-0.759149	-0.420889
H191	H	1.158377	-0.796001	-0.572695
H192	H	1.015996	-0.799620	-0.622933
H193	H	0.904377	-0.766387	-0.521364
H194	H	0.935143	-0.729535	-0.369558
H195	H	0.627549	-0.234834	0.295378
H196	H	1.478325	-0.636973	0.174091
H197	H	0.899455	-0.547442	0.291059
H198	H	0.716103	0.006457	-0.006642
C199	C	0.747075	-0.554745	0.336287
C200	C	0.801513	-0.479262	0.380916
C201	C	0.768722	-0.417863	0.443170
C202	C	0.681493	-0.431945	0.460795
C203	C	0.627050	-0.507431	0.416165
C204	C	0.659841	-0.568831	0.353911
H205	H	0.866090	-0.468835	0.367870
H206	H	0.809024	-0.361983	0.476208
H207	H	0.657219	-0.386494	0.506879
H208	H	0.562473	-0.517859	0.429211
H209	H	0.619539	-0.624710	0.320873
H210	H	1.093913	-0.207232	0.510736
H211	H	1.317223	-0.621627	0.415927
C212	C	0.872313	-0.789188	0.098627
C213	C	0.843918	-0.805461	0.014508
C214	C	0.876709	-0.866877	-0.047729
C215	C	0.937895	-0.912020	-0.025847
C216	C	0.966294	-0.895748	0.058276
C217	C	0.933502	-0.834332	0.120513
H218	H	0.798621	-0.772043	-0.001694
H219	H	0.855687	-0.878922	-0.110003
H220	H	0.962170	-0.957483	-0.071919
H221	H	1.011590	-0.929167	0.074478
H222	H	0.954525	-0.822287	0.182786
H223	H	0.587323	0.025990	-0.031103
C224	C	1.428616	-0.487211	-0.013532
C225	C	1.440812	-0.394258	-0.009437
C226	C	1.386422	-0.358686	-0.054016
C227	C	1.319837	-0.416067	-0.102691
C228	C	1.307638	-0.509025	-0.106789
C229	C	1.362027	-0.544597	-0.062209
H230	H	1.490105	-0.351776	0.026597
H231	H	1.395453	-0.289871	-0.050983
H232	H	1.279574	-0.389734	-0.135692
H233	H	1.258344	-0.551507	-0.142823
H234	H	1.352996	-0.613412	-0.065243
H235	H	0.479104	-0.137823	0.173926
C236	C	0.429312	0.011997	-0.013590
C237	C	0.462116	0.061659	-0.075738
C238	C	0.407692	0.097251	-0.120257
C239	C	0.320464	0.083182	-0.102628
C240	C	0.287655	0.033517	-0.040477
C241	C	0.342079	-0.002075	0.004043
H242	H	0.526691	0.072076	-0.088791
H243	H	0.431979	0.134016	-0.166266
H244	H	0.280176	0.109529	-0.135584
H245	H	0.223080	0.023100	-0.027424
H246	H	0.317792	-0.038840	0.050051
H247	H	0.756335	-0.254370	0.319840
H248	H	1.170949	-0.431015	0.595071
H249	H	0.900214	-0.231137	0.290779
H250	H	1.249328	-0.020776	0.778858
H251	H	1.347372	0.096836	0.560339
H252	H	1.622192	-0.613756	0.145091
H253	H	1.024687	-0.789513	-0.127654
H254	H	0.665814	-0.695202	0.246511
H255	H	0.719911	-0.796475	0.143852
H256	H	1.142204	-0.465589	0.451137
