data_functionalizedCrystal
_audit_creation_method	'MofGen! by Chris Wilmer'
_symmetry_space_group_name_H-M	'P1'
_symmetry_Int_Tables_number	1
_symmetry_cell_setting	triclinic
loop_
_symmetry_equiv_pos_as_xyz
  x,y,z
_cell_length_a	19.288864
_cell_length_b	15.944551
_cell_length_c	18.366186
_cell_angle_alpha	89.992809
_cell_angle_beta	89.977106
_cell_angle_gamma	83.317492
loop_
_atom_site_label
_atom_site_type_symbol
_atom_site_fract_x
_atom_site_fract_y
_atom_site_fract_z
O1	O	0.921629	0.104784	-0.060785
O2	O	0.719405	0.118919	-0.060735
O3	O	0.826039	-0.010445	-0.060755
O4	O	0.814995	0.234147	-0.060765
O5	O	0.826021	-0.010451	0.060345
O6	O	0.719387	0.118912	0.060364
O7	O	0.921611	0.104777	0.060315
Zn8	Zn	0.820496	0.111844	0.079567
Zn9	Zn	0.820520	0.111852	-0.079987
O10	O	0.814977	0.234141	0.060334
C11	C	0.693519	0.118461	-0.000179
C12	C	0.616411	0.117095	-0.000160
C13	C	0.571915	0.193000	-0.000175
C14	C	0.499465	0.191717	-0.000183
C15	C	0.471514	0.114526	-0.000191
C16	C	0.516020	0.038611	-0.000172
C17	C	0.588469	0.039896	-0.000156
C18	C	0.363098	0.053847	-0.042639
C19	C	0.290650	0.052565	-0.042659
C20	C	0.248058	0.110560	-0.000234
C21	C	0.277920	0.169850	0.042200
C22	C	0.350369	0.171135	0.042216
C23	C	0.392956	0.113124	-0.000207
C24	C	0.125002	0.185079	-0.000257
C25	C	0.052550	0.183793	-0.000260
C26	C	0.069107	0.030684	-0.000257
C27	C	0.141557	0.031972	-0.000246
C28	C	0.169500	0.109172	-0.000249
C29	C	0.825572	-0.041740	-0.000205
C30	C	0.824197	-0.134981	-0.000204
C31	C	0.754815	-0.349571	-0.000197
C32	C	0.787025	-0.410715	0.059504
C33	C	0.821710	-0.305697	-0.000209
C34	C	0.787058	-0.410692	-0.059890
C35	C	0.819303	-0.470601	-0.000217
C36	C	0.853939	-0.365614	0.059542
C37	C	0.853963	-0.365585	-0.059906
C38	C	0.886222	-0.426712	-0.000190
C39	C	0.823095	-0.210700	-0.000204
C40	C	0.817924	-0.565597	-0.000217
C41	C	0.947497	0.105235	-0.000243
C42	C	1.024605	0.106600	-0.000267
C43	C	0.815444	0.265436	-0.000217
C44	C	0.816819	0.358677	-0.000223
N45	N	0.820485	0.111838	0.188458
N46	N	0.820537	0.111852	-0.188878
C47	C	0.867718	0.054583	0.226549
C48	C	0.867722	0.054580	0.302777
C49	C	0.820500	0.111844	0.340910
C50	C	0.773258	0.169103	0.302810
C51	C	0.773251	0.169100	0.226583
C52	C	0.811404	0.188378	0.461669
C53	C	0.811416	0.188383	0.537894
C54	C	0.820520	0.111855	0.576018
C55	C	0.829626	0.035320	0.537908
C56	C	0.829618	0.035316	0.461681
C57	C	0.820503	0.111854	0.423565
C58	C	0.867760	0.054592	0.696765
C59	C	0.867760	0.054587	0.772994
C60	C	0.773299	0.169118	0.773025
C61	C	0.773296	0.169115	0.696797
C62	C	0.820531	0.111853	0.658671
H63	H	0.624699	-0.021917	-0.000145
N64	N	0.409031	-0.008711	-0.088401
H65	H	0.435776	0.022673	-0.124675
H66	H	0.442930	-0.044241	-0.055845
H67	H	0.243242	0.217075	0.076747
N68	N	0.602043	0.276268	-0.000168
H69	H	0.631706	0.280216	0.044730
H70	H	0.631724	0.280172	-0.045083
N71	N	0.918668	-0.007171	0.343880
H72	H	0.910675	-0.066766	0.330632
H73	H	0.967938	0.002430	0.330573
H74	H	0.699288	-0.316049	-0.000124
N75	N	0.451460	0.273588	-0.000200
H76	H	0.480155	0.322688	-0.000200
H77	H	0.421068	0.276382	-0.045102
H78	H	0.147754	0.247939	-0.000249
H79	H	0.016321	0.245606	-0.000268
N80	N	0.918718	-0.007155	0.814083
H81	H	0.948643	-0.043420	0.778361
H82	H	0.949415	0.024934	0.845681
N83	N	0.891420	-0.339060	-0.126785
H84	H	0.858790	-0.298010	-0.156168
H85	H	0.933457	-0.311046	-0.111528
N86	N	0.038965	-0.052571	-0.000264
H87	H	0.055216	-0.085814	-0.045151
H88	H	0.055175	-0.085748	0.044662
H89	H	0.177787	-0.029838	-0.000238
N90	N	0.722329	0.230870	0.343936
H91	H	0.692404	0.267141	0.308235
H92	H	0.691630	0.198806	0.375585
H93	H	0.493258	-0.024239	-0.000188
H94	H	0.734787	0.215724	0.195568
N95	N	0.839437	-0.047224	0.420575
H96	H	0.845206	-0.095708	0.456288
H97	H	0.797239	-0.051998	0.388972
H98	H	0.803978	0.250700	0.430635
N99	N	0.258442	-0.011379	-0.088423
H100	H	0.270237	-0.003339	-0.141361
H101	H	0.277443	-0.070224	-0.072511
H102	H	0.758723	-0.430717	0.109991
H103	H	0.804006	0.250702	0.568917
H104	H	0.837039	-0.026997	0.568947
N105	N	0.891380	-0.339293	0.126472
H106	H	0.892056	-0.276051	0.126073
H107	H	0.866275	-0.356143	0.171484
N108	N	0.722360	0.230878	0.814143
H109	H	0.729530	0.222191	0.868213
H110	H	0.730381	0.290442	0.800807
N111	N	0.959834	-0.470923	-0.000171
H112	H	0.984997	-0.454549	0.044941
H113	H	0.958452	-0.534046	-0.000627
H114	H	0.758763	-0.430658	-0.110366
N115	N	0.918657	-0.007179	0.185428
H116	H	0.967951	0.002347	0.198667
H117	H	0.910600	-0.066742	0.198725
N118	N	0.382580	0.235074	0.087983
H119	H	0.344610	0.271622	0.114859
H120	H	0.415961	0.204692	0.124227
N121	N	0.918700	-0.007167	0.655637
H122	H	0.948620	-0.043444	0.691338
H123	H	0.892108	-0.044219	0.624026
N124	N	0.722352	0.230868	0.655706
H125	H	0.692435	0.267145	0.691428
H126	H	0.748935	0.267921	0.624058
