data_functionalizedCrystal
_audit_creation_method	'MofGen! by Chris Wilmer'
_symmetry_space_group_name_H-M	'P1'
_symmetry_Int_Tables_number	1
_symmetry_cell_setting	triclinic
loop_
_symmetry_equiv_pos_as_xyz
  x,y,z
_cell_length_a	9.065218
_cell_length_b	14.519709
_cell_length_c	8.140239
_cell_angle_alpha	90.004467
_cell_angle_beta	90.002802
_cell_angle_gamma	84.348015
loop_
_atom_site_label
_atom_site_type_symbol
_atom_site_fract_x
_atom_site_fract_y
_atom_site_fract_z
O1	O	1.957864	0.135225	0.136622
O2	O	2.457864	0.635225	0.636622
O3	O	1.528371	0.146317	0.136625
O4	O	2.028371	0.646317	0.636625
O5	O	1.754505	0.006616	0.136608
O6	O	2.254505	0.506616	0.636608
O7	O	1.731730	0.274926	0.136638
O8	O	2.231730	0.774926	0.636638
O9	O	1.754492	0.006614	-0.136619
O10	O	2.254492	0.506614	0.363381
O11	O	1.528359	0.146315	-0.136603
O12	O	2.028359	0.646315	0.363397
O13	O	1.957851	0.135224	-0.136605
O14	O	2.457851	0.635224	0.363395
Zn15	Zn	1.743103	0.140769	-0.179985
Zn16	Zn	2.243103	0.640769	0.320015
Zn17	Zn	1.743119	0.140771	0.180004
Zn18	Zn	2.243119	0.640771	0.680004
O19	O	1.731718	0.274924	-0.136589
O20	O	2.231718	0.774924	0.363411
C21	C	1.473398	0.145250	0.000011
C22	C	1.973398	0.645250	0.500011
C23	C	1.309615	0.142063	0.000012
C24	C	1.809615	0.642063	0.500012
C25	C	1.753437	-0.027752	-0.000005
C26	C	2.253437	0.472248	0.499995
C27	C	1.750257	-0.130157	-0.000006
C28	C	2.250257	0.369843	0.499994
C29	C	1.738547	-0.505138	0.000036
C30	C	2.238547	-0.005138	0.500036
C31	C	1.741799	-0.400807	0.000024
C32	C	2.241799	0.099193	0.500024
C33	C	1.744402	-0.317651	0.000014
C34	C	2.244402	0.182349	0.500014
C35	C	1.747654	-0.213313	0.000004
C36	C	2.247654	0.286687	0.500004
C37	C	2.012824	0.136290	0.000012
C38	C	2.512824	0.636290	0.500012
C39	C	2.176607	0.139478	0.000022
C40	C	2.676607	0.639478	0.500022
C41	C	1.732785	0.309293	0.000028
C42	C	2.232785	0.809293	0.500028
C43	C	1.735966	0.411697	0.000040
C44	C	2.235966	0.911697	0.500040
N45	N	1.743103	0.140767	-0.425667
N46	N	2.243103	0.640767	0.074333
N47	N	1.743132	0.140766	0.425687
N48	N	2.243132	0.640766	0.925687
