data_functionalizedCrystal
_audit_creation_method	'MofGen! by Chris Wilmer'
_symmetry_space_group_name_H-M	'P1'
_symmetry_Int_Tables_number	1
_symmetry_cell_setting	triclinic
loop_
_symmetry_equiv_pos_as_xyz
  x,y,z
_cell_length_a	12.759395
_cell_length_b	12.594516
_cell_length_c	12.594517
_cell_angle_alpha	90.003002
_cell_angle_beta	89.998297
_cell_angle_gamma	90.011661
loop_
_atom_site_label
_atom_site_type_symbol
_atom_site_fract_x
_atom_site_fract_y
_atom_site_fract_z
Zn1	Zn	1.606071	-0.423976	0.601755
Zn2	Zn	1.606035	-0.601909	0.423778
Zn3	Zn	1.430434	-0.423944	0.423796
Zn4	Zn	1.430370	-0.601912	0.601719
O5	O	1.518227	-0.512935	0.512762
O6	O	1.753087	-0.447591	0.578153
O7	O	1.582753	-0.578287	0.274834
O8	O	1.453774	-0.275003	0.447425
O9	O	1.753061	-0.578317	0.447394
O10	O	1.582814	-0.275026	0.578171
O11	O	1.453739	-0.447537	0.274847
O12	O	1.283404	-0.447540	0.447390
O13	O	1.453665	-0.578323	0.750670
O14	O	1.283357	-0.578292	0.578110
O15	O	1.582752	-0.447594	0.750696
O16	O	1.582691	-0.750855	0.447360
O17	O	1.453631	-0.750857	0.578092
C18	C	1.245260	-0.512914	0.512749
C19	C	1.128483	-0.512931	0.512768
C20	C	1.128491	-0.377025	0.649148
C21	C	1.073634	-0.309085	0.717346
C22	C	0.963913	-0.309104	0.717359
C23	C	0.909045	-0.377068	0.649165
C24	C	0.963902	-0.445008	0.580967
C25	C	1.073626	-0.444984	0.580963
C26	C	0.963894	-0.580906	0.444583
C27	C	1.073616	-0.580894	0.444574
C28	C	0.909027	-0.648870	0.376389
C29	C	0.963884	-0.716817	0.308194
C30	C	1.073612	-0.716796	0.308184
C31	C	1.128473	-0.648834	0.376375
C32	C	1.518179	-0.789476	0.512743
C33	C	1.518254	-0.907782	0.512771
C34	C	1.588531	-0.976995	0.441741
C35	C	1.614173	-1.047733	0.538889
C36	C	1.492743	-1.047842	0.415685
C37	C	1.543945	-0.976962	0.609970
C38	C	1.422470	-0.977064	0.486700
C39	C	1.448076	-1.047771	0.583915
C40	C	1.792261	-0.512957	0.512776
C41	C	1.909037	-0.512967	0.512782
C42	C	1.518205	-0.512962	0.790383
C43	C	1.518196	-0.512974	0.908688
C44	C	1.518305	-0.235314	0.512804
C45	C	1.518338	-0.117009	0.512822
C46	C	1.447985	-0.584067	0.977927
C47	C	1.543829	-0.610104	1.048711
C48	C	1.422357	-0.486964	1.048703
C49	C	1.614091	-0.539062	0.977914
C50	C	1.492554	-0.415876	0.977900
C51	C	1.588464	-0.441876	1.048652
C52	C	1.518226	-0.512940	1.236221
C53	C	1.518190	-0.512954	1.117915
H54	H	0.919248	-0.253776	0.772886
O55	O	1.325723	-0.460779	1.085978
C56	C	1.217750	-0.430395	1.239984
C57	C	1.327232	-0.460074	1.197918
H58	H	1.218940	-0.429794	1.330491
H59	H	1.157958	-0.491110	1.211008
H60	H	1.195318	-0.348227	1.209582
H61	H	1.349763	-0.542217	1.228302
H62	H	1.386960	-0.399292	1.226885
H63	H	1.118270	-0.772117	0.252645
O64	O	1.659514	-0.370262	1.085426
C65	C	1.840765	-0.316754	1.090830
C66	C	1.760414	-0.397939	1.049130
H67	H	1.922358	-0.339088	1.061484
H68	H	1.839852	-0.316777	1.181344
H69	H	1.819551	-0.234238	1.060471
H70	H	1.781573	-0.480493	1.079411
H71	H	1.761343	-0.397822	0.958618
H72	H	1.565522	-0.692210	1.079815
O73	O	1.659516	-0.940090	0.370133
C74	C	1.790273	-0.984517	0.239429
C75	C	1.709938	-1.026456	0.320499
H76	H	1.831047	-1.054322	0.199262
H77	H	1.850960	-0.933456	0.281948
H78	H	1.748226	-0.934711	0.177005
H79	H	1.751895	-1.076306	0.382944
H80	H	1.649256	-1.077459	0.277906
H81	H	1.695162	-0.561146	0.946950
O82	O	1.377254	-0.655770	0.940692
C83	C	1.297433	-0.735545	0.786725
C84	C	1.377545	-0.654285	0.828750
H85	H	1.297657	-0.734387	0.696216
H86	H	1.215903	-0.714200	0.816978
H87	H	1.319486	-0.818268	0.815881
H88	H	1.355590	-0.571534	0.799612
H89	H	1.459054	-0.675721	0.798506
O90	O	0.910750	-0.782864	0.241858
C91	C	0.922310	-0.917715	0.106633
C92	C	0.982618	-0.842949	0.181685
H93	H	0.980389	-0.966329	0.057980
H94	H	0.870972	-0.868810	0.050996
H95	H	0.870908	-0.973410	0.155425
H96	H	1.034077	-0.787239	0.132980
H97	H	1.033890	-0.891920	0.237325
H98	H	0.819686	-0.648878	0.376401
H99	H	1.388681	-1.078651	0.644074
O100	O	1.466766	-0.317875	0.940882
C101	C	1.510532	-0.131803	0.936340
C102	C	1.539858	-0.242723	0.978359
H103	H	1.569624	-0.071016	0.966605
H104	H	1.428787	-0.109664	0.965402
H105	H	1.511511	-0.132630	0.845832
H106	H	1.538941	-0.241980	1.068864
H107	H	1.621586	-0.264819	0.949216
H108	H	1.695212	-1.078778	0.560968
H109	H	1.217814	-0.648805	0.376369
O110	O	1.569673	-0.940037	0.708040
C111	C	1.525362	-0.935099	0.893962
C112	C	1.496088	-0.976970	0.782960
H113	H	1.465897	-0.964961	0.954568
H114	H	1.525099	-0.844584	0.893205
H115	H	1.606819	-0.964817	0.916298
H116	H	1.414625	-0.947331	0.760555
H117	H	1.496423	-1.067483	0.783776
O118	O	1.325853	-0.940040	0.460144
C119	C	1.189650	-0.934140	0.327744
C120	C	1.299087	-0.976122	0.357690
H121	H	1.167966	-0.963313	0.244919
H122	H	1.190338	-0.843628	0.328673
H123	H	1.129592	-0.964460	0.387517
H124	H	1.359206	-0.945880	0.297946
H125	H	1.298312	-1.066632	0.356795
H126	H	1.217832	-0.376998	0.649139
O127	O	1.126982	-0.243224	0.783703
C128	C	1.250919	-0.229140	0.927377
C129	C	1.190554	-0.303849	0.852315
H130	H	1.302349	-0.278124	0.982854
H131	H	1.192913	-0.180603	0.976200
H132	H	1.302241	-0.173369	0.878585
H133	H	1.139231	-0.359684	0.901025
H134	H	1.248617	-0.352311	0.803489
O135	O	1.467010	-1.085163	0.317766
C136	C	1.437204	-1.239220	0.208385
C137	C	1.466370	-1.197102	0.319323
H138	H	1.436655	-1.329727	0.209613
H139	H	1.497179	-1.210221	0.147873
H140	H	1.356105	-1.208879	0.185554
H141	H	1.547443	-1.227425	0.342253
H142	H	1.406328	-1.226092	0.379770
H143	H	0.819704	-0.377069	0.649173
