data_functionalizedCrystal
_audit_creation_method	'MofGen! by Chris Wilmer'
_symmetry_space_group_name_H-M	'P1'
_symmetry_Int_Tables_number	1
_symmetry_cell_setting	triclinic
loop_
_symmetry_equiv_pos_as_xyz
  x,y,z
_cell_length_a	6.817900
_cell_length_b	17.982968
_cell_length_c	9.582889
_cell_angle_alpha	93.503180
_cell_angle_beta	111.207298
_cell_angle_gamma	102.451960
loop_
_atom_site_label
_atom_site_type_symbol
_atom_site_fract_x
_atom_site_fract_y
_atom_site_fract_z
V1	V	-4.055307	-0.237408	-0.208457
O2	O	-4.001167	-0.233032	0.008575
O3	O	-4.046166	-0.235646	-0.411947
O4	O	-4.001317	-0.341013	-0.205883
O5	O	-4.046326	-0.126936	-0.198916
V6	V	-4.534572	-0.224211	-0.182422
O7	O	-4.325905	-0.266356	-0.265565
O8	O	-4.714171	-0.195264	-0.125314
O9	O	-4.320506	-0.225973	0.021068
O10	O	-4.706108	-0.228587	-0.399454
O11	O	-4.660949	-0.334683	-0.191963
O12	O	-4.365354	-0.120607	-0.184996
C13	C	-3.900898	-0.231865	-0.461534
C14	C	-3.974674	-0.231116	-0.627894
C15	C	-3.843688	-0.366270	-0.198677
C16	C	-3.881089	-0.450967	-0.197919
C17	C	-4.082028	-0.494633	-0.205062
C18	C	-4.117158	-0.574215	-0.204350
C19	C	-3.951352	-0.610128	-0.196504
C20	C	-3.750395	-0.566455	-0.189356
C21	C	-3.715263	-0.486875	-0.190058
C22	C	-3.892076	-0.887394	-0.186522
C23	C	-3.927227	-0.966981	-0.185825
C24	C	-4.293971	-0.974734	-0.200813
C25	C	-4.258838	-0.895153	-0.201516
C26	C	-4.057882	-0.851487	-0.194359
C27	C	-4.019791	-0.765196	-0.195130
C28	C	-3.989446	-0.696419	-0.195745
C29	C	-4.129117	-0.229752	0.070647
C30	C	-4.034580	-0.230507	0.237006
C31	C	-4.186327	-0.095345	-0.192207
C32	C	-4.128163	-0.010648	-0.192957
H33	H	-4.217056	-0.465400	-0.211461
H34	H	-4.457600	-1.010297	-0.206634
C35	C	-3.671071	-0.839372	-0.178712
H36	H	-3.673879	-0.786832	-0.180251
H37	H	-3.643835	-0.857731	-0.263250
H38	H	-3.559148	-0.843915	-0.087805
H39	H	-3.615392	-0.595702	-0.182959
C40	C	-4.338185	-0.622244	-0.212200
H41	H	-4.431906	-0.589459	-0.216988
H42	H	-4.317210	-0.646547	-0.124517
H43	H	-4.401820	-0.660353	-0.299959
C44	C	-3.744834	-1.006487	-0.177185
H45	H	-3.794554	-1.060138	-0.177809
H46	H	-3.621435	-0.984956	-0.086501
H47	H	-3.706024	-0.998751	-0.261943
H48	H	-3.551623	-0.451319	-0.184204
H49	H	-4.393861	-0.865917	-0.207911
