data_functionalizedCrystal
_audit_creation_method	'MofGen! by Chris Wilmer'
_symmetry_space_group_name_H-M	'P1'
_symmetry_Int_Tables_number	1
_symmetry_cell_setting	triclinic
loop_
_symmetry_equiv_pos_as_xyz
  x,y,z
_cell_length_a	17.699083
_cell_length_b	23.532407
_cell_length_c	16.176319
_cell_angle_alpha	89.988536
_cell_angle_beta	89.998611
_cell_angle_gamma	83.065847
loop_
_atom_site_label
_atom_site_type_symbol
_atom_site_fract_x
_atom_site_fract_y
_atom_site_fract_z
O1	O	1.003713	0.072020	-0.068639
O2	O	1.503713	0.572020	0.431361
O3	O	0.783287	0.081390	-0.068667
O4	O	1.283287	0.581390	0.431333
O5	O	0.900147	-0.006208	-0.068637
O6	O	1.400147	0.493792	0.431363
O7	O	0.886853	0.159618	-0.068669
O8	O	1.386853	0.659618	0.431331
O9	O	0.900131	-0.006213	0.068856
O10	O	1.400131	0.493787	0.568856
O11	O	0.783271	0.081384	0.068826
O12	O	1.283271	0.581384	0.568826
O13	O	1.003697	0.072014	0.068854
O14	O	1.503697	0.572014	0.568854
Cu15	Cu	0.893483	0.076699	0.081394
Cu16	Cu	1.393483	0.576699	0.581394
Cu17	Cu	0.893502	0.076705	-0.081207
Cu18	Cu	1.393502	0.576705	0.418793
O19	O	0.886837	0.159612	0.068824
O20	O	1.386837	0.659612	0.568824
C21	C	0.755084	0.081051	0.000076
C22	C	1.255084	0.581051	0.500076
C23	C	0.671071	0.080044	0.000066
C24	C	1.171071	0.580044	0.500066
C25	C	0.622189	0.131462	0.000056
C26	C	1.122189	0.631462	0.500056
C27	C	0.543251	0.130512	0.000067
C28	C	1.043251	0.630512	0.500067
C29	C	0.513196	0.078144	0.000082
C30	C	1.013196	0.578144	0.500082
C31	C	0.562084	0.026722	0.000094
C32	C	1.062084	0.526722	0.500094
C33	C	0.641021	0.027672	0.000089
C34	C	1.141021	0.527672	0.500089
C35	C	0.243740	0.022888	0.000115
C36	C	0.743740	0.522888	0.500115
C37	C	0.164797	0.021942	0.000117
C38	C	0.664797	0.521942	0.500117
C39	C	0.145970	0.125728	0.000093
C40	C	0.645970	0.625728	0.500093
C41	C	0.224907	0.126678	0.000088
C42	C	0.724907	0.626678	0.500088
C43	C	0.273788	0.075257	0.000105
C44	C	0.773788	0.575257	0.500105
C45	C	0.359382	0.076287	0.000094
C46	C	0.859382	0.576287	0.500094
C47	C	0.427603	0.077113	0.000086
C48	C	0.927603	0.577113	0.500086
C49	C	0.899801	-0.027427	0.000111
C50	C	1.399801	0.472573	0.500111
C51	C	0.898783	-0.090647	0.000118
C52	C	1.398783	0.409353	0.500118
C53	C	0.961554	-0.489570	0.000080
C54	C	1.461554	0.010430	0.500080
C55	C	0.960609	-0.548973	0.000074
C56	C	1.460609	-0.048973	0.500074
O57	O	1.018799	-0.585550	0.000051
O58	O	1.518799	-0.085550	0.500051
N59	N	0.891136	-0.571799	0.000066
N60	N	1.391136	-0.071799	0.500066
C61	C	0.822604	-0.535218	0.000055
C62	C	1.322604	-0.035218	0.500055
O63	O	0.763424	-0.560088	0.000047
O64	O	1.263424	-0.060088	0.500047
C65	C	0.823550	-0.475816	0.000056
C66	C	1.323550	0.024184	0.500056
C67	C	0.893028	-0.452994	0.000073
C68	C	1.393028	0.047006	0.500073
C69	C	1.031026	-0.466747	0.000096
C70	C	1.531026	0.033253	0.500096
C71	C	1.031972	-0.407348	0.000104
C72	C	1.531972	0.092652	0.500104
C73	C	0.963445	-0.370772	0.000096
C74	C	1.463445	0.129228	0.500096
C75	C	0.893973	-0.393595	0.000080
C76	C	1.393973	0.106405	0.500080
C77	C	0.755019	-0.439237	0.000040
C78	C	1.255019	0.060763	0.500040
C79	C	0.755971	-0.379832	0.000039
C80	C	1.255971	0.120168	0.500039
C81	C	0.825448	-0.357009	0.000056
C82	C	1.325448	0.142991	0.500056
C83	C	0.826391	-0.297620	0.000081
C84	C	1.326391	0.202380	0.500081
N85	N	0.895864	-0.274795	0.000089
N86	N	1.395864	0.225205	0.500089
C87	C	0.964391	-0.311371	0.000097
C88	C	1.464391	0.188629	0.500097
C89	C	0.820622	-0.659966	0.000053
C90	C	1.320622	-0.159966	0.500053
C91	C	0.819674	-0.719367	0.000058
C92	C	1.319674	-0.219367	0.500058
C93	C	0.957680	-0.733118	0.000075
C94	C	1.457680	-0.233118	0.500075
C95	C	0.958626	-0.673716	0.000076
C96	C	1.458626	-0.173716	0.500076
C97	C	0.890095	-0.637141	0.000061
C98	C	1.390095	-0.137141	0.500061
C99	C	0.966371	-0.186628	0.000114
C100	C	1.466371	0.313372	0.500114
C101	C	0.967310	-0.127223	0.000125
C102	C	1.467310	0.372777	0.500125
C103	C	0.829305	-0.113478	0.000104
C104	C	1.329305	0.386522	0.500104
C105	C	0.828365	-0.172877	0.000097
C106	C	1.328365	0.327123	0.500097
C107	C	0.896904	-0.209452	0.000099
C108	C	1.396904	0.290548	0.500099
O109	O	0.768232	-0.261008	0.000100
O110	O	1.268232	0.238992	0.500100
O111	O	1.023560	-0.286493	0.000094
O112	O	1.523560	0.213507	0.500094
C113	C	1.031901	0.072353	0.000109
C114	C	1.531901	0.572353	0.500109
C115	C	1.115914	0.073360	0.000114
C116	C	1.615914	0.573360	0.500114
C117	C	0.887184	0.180832	0.000073
C118	C	1.387184	0.680832	0.500073
C119	C	0.888202	0.244052	0.000062
C120	C	1.388202	0.744052	0.500062
N121	N	0.893475	0.076694	0.195759
N122	N	1.393475	0.576694	0.695759
N123	N	0.893516	0.076706	-0.195573
N124	N	1.393516	0.576706	0.304427
C125	C	0.945236	0.037921	0.239037
C126	C	1.445236	0.537921	0.739037
C127	C	0.945240	0.037921	0.325584
C128	C	1.445240	0.537921	0.825584
C129	C	0.893486	0.076696	0.368852
C130	C	1.393486	0.576696	0.868852
C131	C	0.841719	0.115470	0.325568
C132	C	1.341719	0.615470	0.825568
C133	C	0.841713	0.115467	0.239023
C134	C	1.341713	0.615467	0.739023
C135	C	0.841745	0.115481	0.674597
C136	C	1.341745	0.615481	1.174597
C137	C	0.841758	0.115481	0.761148
C138	C	1.341758	0.615481	1.261148
C139	C	0.945273	0.037934	0.761158
C140	C	1.445273	0.537934	1.261158
C141	C	0.945266	0.037932	0.674612
C142	C	1.445266	0.537932	1.174612
C143	C	0.893497	0.076704	0.631336
C144	C	1.393497	0.576704	1.131336
C145	C	0.893493	0.076703	0.537492
C146	C	1.393493	0.576703	1.037492
C147	C	0.893493	0.076700	0.462695
C148	C	1.393493	0.576700	0.962695
H149	H	0.106161	0.167598	0.000084
H150	H	0.606161	0.667598	0.500084
H151	H	0.283530	-0.018983	0.000129
H152	H	0.783530	0.481017	0.500129
O153	O	0.253976	0.177599	0.000111
O154	O	0.753976	0.677599	0.500111
C155	C	0.193903	0.222779	0.000086
C156	C	0.693903	0.722779	0.500086
H157	H	0.140394	0.206888	0.026121
H158	H	0.640394	0.706888	0.526121
H159	H	0.210127	0.259345	0.039997
H160	H	0.710127	0.759345	0.539997
H161	H	0.182612	0.238639	-0.065879
H162	H	0.682612	0.738639	0.434121
H163	H	1.015201	-0.655139	0.000089
H164	H	1.515201	-0.155139	0.500089
O165	O	0.754094	-0.624381	0.000160
O166	O	1.254094	-0.124381	0.500160
C167	C	0.750492	-0.589629	0.071381
C168	C	1.250492	-0.089629	0.571381
H169	H	0.810539	-0.586698	0.095127
H170	H	1.310539	-0.086698	0.595127
H171	H	0.721946	-0.544947	0.055365
H172	H	1.221946	-0.044947	0.555365
H173	H	0.716076	-0.609140	0.121240
H174	H	1.216076	-0.109140	0.621240
O175	O	1.032899	-0.222209	0.000230
O176	O	1.532899	0.277791	0.500230
C177	C	1.036486	-0.256982	0.071447
C178	C	1.536486	0.243018	0.571447
H179	H	0.976432	-0.259923	0.095175
H180	H	1.476432	0.240077	0.595175
H181	H	1.065038	-0.301659	0.055435
H182	H	1.565038	0.198341	0.555435
H183	H	1.070887	-0.237485	0.121320
H184	H	1.570887	0.262515	0.621320
O185	O	0.791402	0.153168	0.803052
O186	O	1.291402	0.653168	1.303052
C187	C	0.745719	0.187397	0.746298
C188	C	1.245719	0.687397	1.246298
H189	H	0.745036	0.164048	0.684613
H190	H	1.245036	0.664048	1.184613
H191	H	0.685215	0.196136	0.771314
H192	H	1.185215	0.696136	1.271314
H193	H	0.769962	0.229685	0.737076
H194	H	1.269962	0.729685	1.237076
O195	O	1.024180	-0.768735	0.000036
O196	O	1.524180	-0.268735	0.500036
C197	C	1.008439	-0.826057	0.000048
C198	C	1.508439	-0.326057	0.500048
H199	H	0.949007	-0.828248	-0.025984
H200	H	1.449007	-0.328248	0.474016
H201	H	1.052143	-0.853020	-0.039873
H202	H	1.552143	-0.353020	0.460127
H203	H	1.011437	-0.843253	0.066008
H204	H	1.511437	-0.343253	0.566008
O205	O	0.532765	-0.024099	0.000073
O206	O	1.032765	0.475901	0.500073
C207	C	0.452611	-0.013914	0.000093
C208	C	0.952611	0.486086	0.500093
H209	H	0.433736	0.030556	-0.025947
H210	H	0.933736	0.530556	0.474053
H211	H	0.428624	-0.047416	-0.039816
H212	H	0.928624	0.452584	0.460184
H213	H	0.430657	-0.016645	0.066057
H214	H	0.930657	0.483355	0.566057
H215	H	0.799595	0.147051	0.639368
H216	H	1.299595	0.647051	1.139368
H217	H	0.646653	0.174106	0.000044
H218	H	1.146653	0.674106	0.500044
H219	H	0.771791	-0.191460	0.000106
H220	H	1.271791	0.308540	0.500106
O221	O	0.995627	0.000241	0.803069
O222	O	1.495627	0.500241	1.303069
C223	C	1.041291	-0.033991	0.746320
C224	C	1.541291	0.466009	1.246320
H225	H	1.041966	-0.010640	0.684622
H226	H	1.541966	0.489360	1.184622
H227	H	1.101799	-0.042740	0.771322
H228	H	1.601799	0.457260	1.271322
H229	H	1.017034	-0.076274	0.737127
H230	H	1.517034	0.423726	1.237127
H231	H	0.680820	-0.014197	0.000096
H232	H	1.180820	0.485803	0.500096
H233	H	1.023889	-0.108645	0.000141
H234	H	1.523889	0.391355	0.500141
O235	O	0.791518	0.153115	0.367724
O236	O	1.291518	0.653115	0.867724
C237	C	0.802611	0.144796	0.453392
C238	C	1.302611	0.644796	0.953392
H239	H	0.862944	0.123454	0.465213
H240	H	1.362944	0.623454	0.965213
H241	H	0.793866	0.187935	0.486268
H242	H	1.293866	0.687935	0.986268
H243	H	0.759993	0.116273	0.477970
H244	H	1.259993	0.616273	0.977970
H245	H	1.088547	-0.388773	0.000114
H246	H	1.588547	0.111227	0.500114
H247	H	1.086833	-0.496522	0.000099
H248	H	1.586833	0.003478	0.500099
H249	H	0.773512	-0.083687	0.000101
H250	H	1.273512	0.416313	0.500101
O251	O	0.752117	-0.741438	0.000015
O252	O	1.252117	-0.241438	0.500015
C253	C	0.691842	-0.696411	0.000032
C254	C	1.191842	-0.196411	0.500032
H255	H	0.712755	-0.656080	-0.025990
H256	H	1.212755	-0.156080	0.474010
H257	H	0.643311	-0.708752	-0.039895
H258	H	1.143311	-0.208752	0.460105
H259	H	0.670720	-0.687989	0.065992
H260	H	1.170720	-0.187989	0.565992
O261	O	0.791405	0.153188	0.197108
O262	O	1.291405	0.653188	0.697108
C263	C	0.745714	0.187403	0.253854
C264	C	1.245714	0.687403	0.753854
H265	H	0.776744	0.188021	0.315542
H266	H	1.276744	0.688021	0.815542
H267	H	0.733819	0.232895	0.228832
H268	H	1.233819	0.732895	0.728832
H269	H	0.689634	0.168963	0.263073
H270	H	1.189634	0.668963	0.763073
O271	O	0.687460	-0.461302	-0.000017
O272	O	1.187460	0.038698	0.499983
C273	C	0.627190	-0.416271	-0.000009
C274	C	1.127190	0.083729	0.499991
H275	H	0.648111	-0.375943	-0.026029
H276	H	1.148111	0.124057	0.473971
H277	H	0.578662	-0.428609	-0.039942
H278	H	1.078662	0.071391	0.460058
H279	H	0.606061	-0.407847	0.065949
H280	H	1.106061	0.092153	0.565949
O281	O	0.689417	-0.344279	-0.000119
O282	O	1.189417	0.155721	0.499881
C283	C	0.685852	-0.309485	-0.071314
C284	C	1.185852	0.190515	0.428686
H285	H	0.724733	-0.331278	-0.121080
H286	H	1.224733	0.168722	0.378920
H287	H	0.624838	-0.302727	-0.095228
H288	H	1.124838	0.197273	0.404772
H289	H	0.705100	-0.266314	-0.055206
H290	H	1.205100	0.233686	0.444794
O291	O	0.995602	0.000242	0.367495
O292	O	1.495602	0.500242	0.867495
C293	C	1.041274	-0.033986	0.310748
C294	C	1.541274	0.466014	0.810748
H295	H	1.041936	-0.010639	0.249045
H296	H	1.541936	0.489361	0.749045
H297	H	1.101785	-0.042719	0.335745
H298	H	1.601785	0.457281	0.835745
H299	H	1.017035	-0.076276	0.301565
H300	H	1.517035	0.423724	0.801565
H301	H	0.987383	0.006349	0.203814
H302	H	1.487383	0.506349	0.703814
H303	H	0.987411	0.006359	0.639386
H304	H	1.487411	0.506359	1.139386
O305	O	0.495875	0.180512	0.000020
O306	O	0.995875	0.680512	0.500020
C307	C	0.539329	0.226937	0.000022
C308	C	1.039329	0.726937	0.500022
H309	H	0.598356	0.212400	-0.026012
H310	H	1.098356	0.712400	0.473988
H311	H	0.509934	0.262958	-0.039903
H312	H	1.009934	0.762958	0.460097
H313	H	0.544835	0.242994	0.065979
H314	H	1.044835	0.742994	0.565979
O315	O	0.135727	-0.028982	0.000173
O316	O	0.635727	0.471018	0.500173
C317	C	0.195796	-0.074165	0.000168
C318	C	0.695796	0.425835	0.500168
H319	H	0.249307	-0.058277	0.026192
H320	H	0.749307	0.441723	0.526192
H321	H	0.179570	-0.110731	0.040099
H322	H	0.679570	0.389269	0.540099
H323	H	0.207086	-0.090022	-0.065789
H324	H	0.707086	0.409978	0.434211
