data_functionalizedCrystal
_audit_creation_method	'MofGen! by Chris Wilmer'
_symmetry_space_group_name_H-M	'P1'
_symmetry_Int_Tables_number	1
_symmetry_cell_setting	triclinic
loop_
_symmetry_equiv_pos_as_xyz
  x,y,z
_cell_length_a	20.919309
_cell_length_b	14.628931
_cell_length_c	20.919319
_cell_angle_alpha	122.559331
_cell_angle_beta	90.176972
_cell_angle_gamma	57.441313
loop_
_atom_site_label
_atom_site_type_symbol
_atom_site_fract_x
_atom_site_fract_y
_atom_site_fract_z
Zr1	Zr	0.639274	0.936277	0.061511
O2	O	0.528413	1.151657	0.172375
O3	O	0.673259	0.738007	0.027525
O4	O	0.667621	0.944830	0.166733
O5	O	0.538498	0.932120	-0.076641
O6	O	0.777431	0.932114	0.162281
O7	O	0.534051	0.944833	0.033168
O8	O	0.787516	0.562145	-0.086735
O9	O	0.528413	1.302089	0.172376
O10	O	0.769703	0.803731	0.009709
O11	O	0.691072	0.803733	-0.068919
O12	O	0.684434	1.047241	0.094980
O13	O	0.605803	1.047242	0.016353
Zr14	Zr	0.821501	0.895719	-0.120721
Zr15	Zr	0.814408	0.915996	0.054412
Zr16	Zr	0.646367	0.916000	-0.113622
Zr17	Zr	0.639274	1.176198	0.061511
Zr18	Zr	0.821501	0.655797	-0.120721
O19	O	0.787516	1.093988	-0.086735
O20	O	0.777431	1.122820	0.162282
O21	O	0.538498	1.122825	-0.076641
O22	O	0.932362	0.680339	-0.231585
O23	O	0.922277	0.709170	0.017431
O24	O	0.683344	0.709176	-0.221491
O25	O	0.922277	0.899876	0.017431
O26	O	0.793154	0.887165	-0.225942
O27	O	0.683344	0.899881	-0.221491
O28	O	0.926725	0.887162	-0.092378
O29	O	0.667621	1.285968	0.166733
O30	O	0.793154	0.546027	-0.225942
O31	O	0.932362	0.529907	-0.231585
O32	O	0.926724	0.546024	-0.092378
O33	O	0.534051	1.285971	0.033168
O34	O	0.673259	1.269850	0.027526
O35	O	0.776341	0.784755	-0.154190
O36	O	0.854972	0.784753	-0.075562
O37	O	0.769703	1.028262	0.009709
O38	O	0.691072	1.028264	-0.068918
C39	C	0.730387	0.615892	-0.029605
C40	C	0.730387	0.514039	-0.029605
C41	C	0.511321	0.941366	-0.020725
C42	C	0.436972	0.949976	-0.017711
C43	C	0.769393	0.468629	0.009399
C44	C	0.769394	0.363359	0.009400
C45	C	0.446550	0.826915	-0.060802
C46	C	0.376688	0.835013	-0.057968
C47	C	0.297250	0.966174	-0.012039
C48	C	0.287673	1.089244	0.031053
C49	C	0.357535	1.081144	0.028214
C50	C	0.084088	0.996989	-0.001245
C51	C	0.014225	1.005080	0.001592
C52	C	0.103245	0.750848	-0.087431
C53	C	0.173103	0.742760	-0.090261
C54	C	0.163521	0.865830	-0.047173
C55	C	0.225839	0.974455	-0.009139
C56	C	0.234932	0.857547	-0.050078
C57	C	0.949454	0.890629	-0.038485
C58	C	1.023803	0.882019	-0.041498
C59	C	0.721515	0.941361	0.189460
C60	C	0.718504	0.949969	0.263808
C61	C	0.730388	1.216103	-0.029605
C62	C	0.730388	1.317956	-0.029604
C63	C	0.699192	1.005081	0.686558
C64	C	0.702027	0.996982	0.616696
C65	C	0.747960	0.865820	0.537257
C66	C	0.791053	0.742751	0.527680
C67	C	0.788213	0.750852	0.597542
C68	C	0.758758	0.835001	0.324093
C69	C	0.761596	0.826909	0.254230
C70	C	0.672569	1.081142	0.343251
C71	C	0.669736	1.089231	0.413110
C72	C	0.712827	0.966162	0.403528
C73	C	0.750861	0.857538	0.465845
C74	C	0.709920	0.974446	0.474939
C75	C	0.739263	0.890633	0.751330
C76	C	0.742285	0.882021	0.676981
C77	C	0.949453	0.590524	-0.038485
C78	C	1.023802	0.480061	-0.041499
C79	C	0.739260	0.590529	-0.248670
C80	C	0.742271	0.480068	-0.323018
C81	C	0.958326	0.565160	-0.257549
C82	C	1.035686	0.446089	-0.334912
C83	C	0.502449	1.266835	0.198340
C84	C	0.425089	1.385906	0.275702
C85	C	0.511322	1.241471	-0.020725
C86	C	0.436973	1.351934	-0.017711
C87	C	0.721515	1.241467	0.189460
C88	C	0.718504	1.351928	0.263809
C89	C	1.014208	0.438094	0.001604
C90	C	1.084059	0.334318	-0.001211
C91	C	1.163504	0.272505	-0.047134
C92	C	1.173098	0.314481	-0.090238
C93	C	1.103247	0.418262	-0.087418
C94	C	0.788195	0.418287	-0.402451
C95	C	0.791021	0.314510	-0.472316
C96	C	0.747928	0.272509	-0.462746
C97	C	0.701998	0.334301	-0.383305
C98	C	0.699168	0.438083	-0.313442
C99	C	1.113067	0.390171	-0.330199
C100	C	1.185761	0.278304	-0.402883
C101	C	1.181073	0.222352	-0.480278
C102	C	1.103684	0.278281	-0.484988
C103	C	1.030991	0.390152	-0.412306
C104	C	0.347708	1.441836	0.270990
C105	C	0.275014	1.553733	0.343673
C106	C	0.279702	1.609690	0.421068
C107	C	0.357091	1.553754	0.425779
C108	C	0.429784	1.441867	0.353096
C109	C	0.446567	1.393912	-0.060806
C110	C	0.376715	1.497716	-0.057972
C111	C	0.297270	1.559534	-0.012046
C112	C	0.287676	1.517552	0.031054
C113	C	0.357528	1.413757	0.028224
C114	C	0.761607	1.393894	0.254213
C115	C	0.758794	1.497669	0.324064
C116	C	0.712873	1.559482	0.403510
C117	C	0.669769	1.517506	0.413105
C118	C	0.672588	1.413726	0.343254
H119	H	0.802792	0.507679	0.042789
H120	H	1.099879	0.232708	-0.548013
C121	C	0.751059	0.158329	-0.539608
N122	N	0.753424	0.072323	-0.597503
C123	C	0.625171	1.216508	0.353783
N124	N	0.589467	1.318472	0.361717
H125	H	0.666913	0.300088	-0.375526
C126	C	0.220439	1.673704	-0.008946
N127	N	0.162573	1.759693	-0.006617
H128	H	0.222983	1.567900	0.068446
C129	C	0.814511	0.310605	0.054515
N130	N	0.848495	0.270866	0.088495
H131	H	1.240271	0.131259	-0.539455
H132	H	0.799001	1.343581	0.189529
C133	C	0.841558	0.246543	-0.559694
N134	N	0.879624	0.195350	-0.625505
C135	C	0.648655	0.506017	-0.226067
N136	N	0.610608	0.557178	-0.160257
H137	H	0.828449	0.635956	0.462994
H138	H	0.798999	0.720096	0.189545
H139	H	0.212008	1.599257	0.339822
C140	C	0.387230	0.699637	-0.105357
N141	N	0.395173	0.597666	-0.141048
C142	C	0.806157	0.699620	0.313543
N143	N	0.841860	0.597645	0.305596
H144	H	1.248768	0.232778	-0.399033
C145	C	0.346960	1.367578	0.075625
N146	N	0.338994	1.332799	0.111329
H147	H	0.710585	1.643986	0.460380
C148	C	0.926823	0.506079	0.052131
N149	N	0.861007	0.557286	0.090196
C150	C	0.260485	0.598473	-0.140788
N151	N	0.326301	0.489794	-0.178843
H152	H	1.237791	0.264138	-0.127627
C153	C	0.533951	1.325938	-0.111327
N154	N	0.599767	1.274752	-0.149376
H155	H	0.661792	1.111887	0.751238
H156	H	0.967987	0.435668	-0.416154
H157	H	1.116900	0.435711	-0.267187
H158	H	0.632381	1.567850	0.477799
H159	H	0.793894	1.531834	0.316235
C160	C	1.240335	0.158334	-0.050235
N161	N	1.298201	0.072337	-0.052570
C162	C	0.835600	0.464475	-0.412998
N163	N	0.871303	0.499264	-0.420948
H164	H	0.788261	0.750746	0.401158
C165	C	1.113816	0.464400	-0.134847
N166	N	1.121782	0.499143	-0.170574
H167	H	0.492789	1.396330	0.356943
C168	C	0.199730	1.732760	0.501015
N169	N	0.139492	1.825451	0.561227
H170	H	0.111037	0.650652	-0.122511
H171	H	0.343875	1.396283	0.207978
H172	H	0.696988	0.357008	-0.062995
C173	C	0.362235	1.615312	0.510922
N174	N	0.366106	1.661673	0.575054
H175	H	0.696995	0.474979	-0.063000
H176	H	0.161152	1.081246	0.028256
C177	C	0.073537	1.132372	0.046168
N178	N	0.065589	1.234350	0.081887
C179	C	0.200287	1.233523	0.081579
N180	N	0.134468	1.342198	0.119641
H181	H	0.637484	1.379570	0.351079
C182	C	0.654627	1.132359	0.627239
N183	N	0.618925	1.234331	0.635182
C184	C	0.619165	1.233524	0.500494
N185	N	0.581061	1.342209	0.566313
H186	H	0.511230	0.720109	-0.098206
H187	H	-0.050460	1.111893	0.038997
H188	H	0.384542	1.531879	-0.093073
H189	H	0.299614	0.750756	-0.087477
H190	H	0.823302	0.650643	0.589738
H191	H	0.672518	1.081237	0.539621
H192	H	1.076232	0.300155	0.033890
H193	H	0.349731	1.181352	0.063293
