data_functionalizedCrystal
_audit_creation_method	'MofGen! by Chris Wilmer'
_symmetry_space_group_name_H-M	'P1'
_symmetry_Int_Tables_number	1
_symmetry_cell_setting	triclinic
loop_
_symmetry_equiv_pos_as_xyz
  x,y,z
_cell_length_a	17.077404
_cell_length_b	21.295417
_cell_length_c	17.077395
_cell_angle_alpha	89.968068
_cell_angle_beta	89.984359
_cell_angle_gamma	90.030732
loop_
_atom_site_label
_atom_site_type_symbol
_atom_site_fract_x
_atom_site_fract_y
_atom_site_fract_z
Zn1	Zn	1.199983	-0.250613	-0.443817
Zn2	Zn	1.699983	0.249387	0.056183
Zn3	Zn	1.199882	-0.355884	-0.312540
Zn4	Zn	1.699882	0.144116	0.187460
Zn5	Zn	1.068724	-0.250633	-0.312565
Zn6	Zn	1.568724	0.249367	0.187435
Zn7	Zn	1.068665	-0.355849	-0.443764
Zn8	Zn	1.568665	0.144151	0.056236
O9	O	1.134314	-0.303245	-0.378171
O10	O	1.634314	0.196755	0.121829
O11	O	1.309817	-0.264584	-0.426415
O12	O	1.809817	0.235416	0.073585
O13	O	1.182465	-0.341945	-0.202697
O14	O	1.682465	0.158055	0.297303
O15	O	1.086203	-0.162541	-0.330008
O16	O	1.586203	0.337459	0.169992
O17	O	1.309742	-0.341926	-0.329966
O18	O	1.809742	0.158074	0.170034
O19	O	1.182638	-0.162526	-0.426439
O20	O	1.682638	0.337474	0.073561
O21	O	1.086104	-0.264618	-0.202715
O22	O	1.586104	0.235382	0.297285
O23	O	0.958869	-0.264584	-0.329957
O24	O	1.458869	0.235416	0.170043
O25	O	1.086103	-0.341866	-0.553618
O26	O	1.586103	0.158134	-0.053618
O27	O	0.958826	-0.341885	-0.426348
O28	O	1.458826	0.158115	0.073652
O29	O	1.182582	-0.264550	-0.553657
O30	O	1.682582	0.235450	-0.053657
O31	O	1.182409	-0.443969	-0.329915
O32	O	1.682409	0.056031	0.170085
O33	O	1.086005	-0.443943	-0.426324
O34	O	1.586005	0.056057	0.073676
C35	C	0.930366	-0.303233	-0.378150
C36	C	1.430366	0.196767	0.121850
C37	C	0.843116	-0.303244	-0.378159
C38	C	1.343116	0.196756	0.121841
C39	C	0.802124	-0.343555	-0.428270
C40	C	1.302124	0.156445	0.071730
C41	C	0.720143	-0.343557	-0.428282
C42	C	1.220143	0.156443	0.071718
C43	C	0.679156	-0.303249	-0.378180
C44	C	1.179156	0.196751	0.121820
C45	C	0.720154	-0.262933	-0.328067
C46	C	1.220154	0.237067	0.171933
C47	C	0.802133	-0.262929	-0.328059
C48	C	1.302133	0.237071	0.171941
C49	C	0.549284	-0.262945	-0.328086
C50	C	1.049284	0.237055	0.171914
C51	C	0.467299	-0.262950	-0.328093
C52	C	0.967299	0.237050	0.171907
C53	C	0.467294	-0.343573	-0.428309
C54	C	0.967294	0.156427	0.071691
C55	C	0.549273	-0.343569	-0.428301
C56	C	1.049273	0.156431	0.071699
C57	C	0.590265	-0.303254	-0.378187
C58	C	1.090265	0.196746	0.121813
C59	C	1.134211	-0.466796	-0.378128
C60	C	1.634211	0.033204	0.121872
C61	C	1.134238	-0.536765	-0.378136
C62	C	1.634238	-0.036765	0.121864
C63	C	1.184481	-0.569624	-0.327987
C64	C	1.684481	-0.069624	0.172013
C65	C	1.184517	-0.635366	-0.328004
C66	C	1.684517	-0.135366	0.171996
C67	C	1.134298	-0.668247	-0.378163
C68	C	1.634298	-0.168247	0.121837
C69	C	1.084052	-0.635380	-0.428321
C70	C	1.584052	-0.135380	0.071679
C71	C	1.084023	-0.569639	-0.428308
C72	C	1.584023	-0.069639	0.071692
N73	N	1.065629	-0.771513	-0.384140
N74	N	1.565629	-0.271513	0.115860
N75	N	1.065659	-0.833964	-0.384148
N76	N	1.565659	-0.333964	0.115852
C77	C	1.134386	-0.866322	-0.378208
C78	C	1.634386	-0.366322	0.121792
N79	N	1.203082	-0.833868	-0.372244
N80	N	1.703082	-0.333868	0.127756
N81	N	1.203051	-0.771411	-0.372231
N82	N	1.703051	-0.271411	0.127769
C83	C	1.134325	-0.739532	-0.378183
C84	C	1.634325	-0.239532	0.121817
C85	C	1.184672	-0.970466	-0.328075
C86	C	1.684672	-0.470466	0.171925
C87	C	1.184710	-1.036210	-0.328098
C88	C	1.684710	-0.536210	0.171902
C89	C	1.084238	-1.036223	-0.428411
C90	C	1.584238	-0.536223	0.071589
C91	C	1.084207	-0.970480	-0.428392
C92	C	1.584207	-0.470480	0.071608
C93	C	1.134423	-0.937606	-0.378220
C94	C	1.634423	-0.437606	0.121780
C95	C	1.339058	-0.303257	-0.378194
C96	C	1.839058	0.196743	0.121806
C97	C	1.426308	-0.303262	-0.378203
C98	C	1.926308	0.196738	0.121797
C99	C	1.134347	-0.303202	-0.582916
C100	C	1.634347	0.196798	-0.082916
C101	C	1.134362	-0.303184	-0.670166
C102	C	1.634362	0.196816	-0.170166
C103	C	1.134438	-0.139055	-0.378232
C104	C	1.634438	0.360945	0.121768
C105	C	1.134491	-0.069086	-0.378258
C106	C	1.634491	0.430914	0.121742
C107	C	1.184685	-0.262840	-1.046002
C108	C	1.684685	0.237160	-0.546002
C109	C	1.184669	-0.262862	-0.964021
C110	C	1.684669	0.237138	-0.464021
C111	C	1.134426	-0.303124	-0.923015
C112	C	1.634426	0.196876	-0.423015
C113	C	1.084202	-0.343372	-0.963993
C114	C	1.584202	0.156628	-0.463993
C115	C	1.084222	-0.343352	-1.045972
C116	C	1.584222	0.156648	-0.545972
C117	C	1.084161	-0.343408	-0.793123
C118	C	1.584161	0.156592	-0.293123
C119	C	1.084139	-0.343427	-0.711138
C120	C	1.584139	0.156573	-0.211138
C121	C	1.184608	-0.262918	-0.711172
C122	C	1.684608	0.237082	-0.211172
C123	C	1.184628	-0.262898	-0.793151
C124	C	1.684628	0.237102	-0.293151
C125	C	1.134403	-0.303145	-0.834124
C126	C	1.634403	0.196855	-0.334124
C127	C	1.134325	-0.303242	-0.174224
C128	C	1.634325	0.196758	0.325776
C129	C	1.134463	-0.303083	-0.086974
C130	C	1.634463	0.196917	0.413026
H131	H	0.582657	-0.230111	-0.287285
H132	H	1.082657	0.269889	0.212715
C133	C	1.239015	-0.671166	-0.273616
C134	C	1.739015	-0.171166	0.226384
C135	C	1.228295	-0.735775	-0.284371
C136	C	1.728295	-0.235775	0.215629
C137	C	1.278481	-0.768771	-0.234280
C138	C	1.778481	-0.268771	0.265720
H139	H	1.227582	-0.660498	-0.220837
H140	H	1.727582	-0.160498	0.279163
H141	H	1.291771	-0.660395	-0.285132
H142	H	1.791771	-0.160395	0.214868
H143	H	1.175550	-0.746541	-0.272849
H144	H	1.675550	-0.246541	0.227151
H145	H	1.239734	-0.746461	-0.337139
H146	H	1.739734	-0.246461	0.162861
H147	H	1.331237	-0.758000	-0.245796
H148	H	1.831237	-0.258000	0.254204
H149	H	1.267043	-0.758098	-0.181505
H150	H	1.767043	-0.258098	0.318495
H151	H	1.271219	-0.812611	-0.241576
H152	H	1.771219	-0.312611	0.258424
H153	H	1.043165	-0.662156	-0.469162
H154	H	1.543165	-0.162156	0.030838
H155	H	1.043109	-0.542884	-0.469146
H156	H	1.543109	-0.042884	0.030854
H157	H	0.835490	-0.376381	-0.469066
H158	H	1.335490	0.123619	0.030934
H159	H	0.686771	-0.376383	-0.469086
H160	H	1.186771	0.123617	0.030914
C161	C	0.846681	-0.219085	-0.273780
C162	C	1.346681	0.280915	0.226220
C163	C	0.893769	-0.178769	-0.318315
C164	C	1.393769	0.321231	0.181685
C165	C	0.934808	-0.138363	-0.268342
C166	C	1.434808	0.361637	0.231658
H167	H	0.878699	-0.243053	-0.239503
H168	H	1.378699	0.256947	0.260497
H169	H	0.810554	-0.195044	-0.243955
H170	H	1.310554	0.304956	0.256045
H171	H	0.929892	-0.202808	-0.348127
H172	H	1.429892	0.297192	0.151873
H173	H	0.861771	-0.154787	-0.352590
H174	H	1.361771	0.345213	0.147410
H175	H	0.898681	-0.114323	-0.238517
H176	H	1.398681	0.385677	0.261483
H177	H	0.966821	-0.162337	-0.234067
H178	H	1.466821	0.337663	0.265933
H179	H	0.966756	-0.111001	-0.298552
H180	H	1.466756	0.388999	0.201448
H181	H	1.225564	-0.943699	-0.287224
H182	H	1.725564	-0.443699	0.212776
H183	H	1.043297	-0.376157	-0.930599
H184	H	1.543297	0.123843	-0.430599
C185	C	1.239092	-0.219274	-0.666551
C186	C	1.739092	0.280726	-0.166551
C187	C	1.228331	-0.227913	-0.585980
C188	C	1.728331	0.272087	-0.085980
C189	C	1.278500	-0.187717	-0.544847
C190	C	1.778500	0.312283	-0.044847
H191	H	1.227667	-0.176955	-0.679915
H192	H	1.727667	0.323045	-0.179915
H193	H	1.291854	-0.228476	-0.679930
H194	H	1.791854	0.271524	-0.179930
H195	H	1.175581	-0.218706	-0.572606
H196	H	1.675581	0.281294	-0.072606
H197	H	1.239761	-0.270223	-0.572593
H198	H	1.739761	0.229777	-0.072593
H199	H	1.331262	-0.196919	-0.558227
H200	H	1.831262	0.303081	-0.058227
H201	H	1.267071	-0.145400	-0.558218
H202	H	1.767071	0.354600	-0.058218
H203	H	1.271211	-0.193577	-0.490176
H204	H	1.771211	0.306423	0.009824
C205	C	1.239293	-1.071775	-0.273562
C206	C	1.739293	-0.571775	0.226438
C207	C	1.283245	-1.028911	-0.229609
C208	C	1.783245	-0.528911	0.270391
C209	C	1.333527	-1.061651	-0.179354
C210	C	1.833527	-0.561651	0.320646
H211	H	1.273561	-1.097379	-0.303537
H212	H	1.773561	-0.597379	0.196463
H213	H	1.209314	-1.097451	-0.239299
H214	H	1.709314	-0.597451	0.260701
H215	H	1.313222	-1.003246	-0.263867
H216	H	1.813222	-0.503246	0.236133
H217	H	1.248997	-1.003305	-0.199618
H218	H	1.748997	-0.503305	0.300382
H219	H	1.303548	-1.087326	-0.145091
H220	H	1.803548	-0.587326	0.354909
H221	H	1.367790	-1.087254	-0.209335
H222	H	1.867790	-0.587254	0.290665
H223	H	1.363349	-1.032573	-0.149520
H224	H	1.863349	-0.532573	0.350480
C225	C	1.029746	-1.072027	-0.482789
C226	C	1.529746	-0.572027	0.017211
C227	C	1.040514	-1.136634	-0.472058
C228	C	1.540514	-0.636634	0.027942
C229	C	0.990325	-1.169640	-0.522134
C230	C	1.490325	-0.669640	-0.022134
H231	H	1.041148	-1.061288	-0.535570
H232	H	1.541148	-0.561288	-0.035570
H233	H	0.976989	-1.061336	-0.471244
H234	H	1.476989	-0.561336	0.028756
H235	H	1.093259	-1.147321	-0.483608
H236	H	1.593259	-0.647321	0.016392
H237	H	1.029107	-1.147392	-0.419287
H238	H	1.529107	-0.647392	0.080713
H239	H	0.937567	-1.158949	-0.510589
H240	H	1.437567	-0.658949	-0.010589
H241	H	1.001730	-1.158896	-0.574912
H242	H	1.501730	-0.658896	-0.074912
H243	H	0.997618	-1.213479	-0.514855
H244	H	1.497618	-0.713479	-0.014855
C245	C	1.029562	-0.934914	-0.482862
C246	C	1.529562	-0.434914	0.017138
C247	C	0.985574	-0.977778	-0.526779
C248	C	1.485574	-0.477778	-0.026779
C249	C	0.935218	-0.945037	-0.576960
C250	C	1.435218	-0.445037	-0.076960
H251	H	1.059466	-0.909223	-0.517157
H252	H	1.559466	-0.409223	-0.017157
H253	H	0.995326	-0.909325	-0.452812
H254	H	1.495326	-0.409325	0.047188
H255	H	1.019805	-1.003355	-0.556827
H256	H	1.519805	-0.503355	-0.056827
H257	H	0.955654	-1.003470	-0.492505
H258	H	1.455654	-0.503470	0.007495
H259	H	0.900982	-0.919449	-0.546910
H260	H	1.400982	-0.419449	-0.046910
H261	H	0.965128	-0.919347	-0.611250
H262	H	1.465128	-0.419347	-0.111250
H263	H	0.905361	-0.974115	-0.606759
H264	H	1.405361	-0.474115	-0.106759
C265	C	0.422935	-0.387415	-0.482748
C266	C	0.922935	0.112585	0.017252
C267	C	0.476375	-0.422730	-0.526603
C268	C	0.976375	0.077270	-0.026603
C269	C	0.435537	-0.463131	-0.576746
C270	C	0.935537	0.036869	-0.076746
H271	H	0.390978	-0.363447	-0.517083
H272	H	0.890978	0.136553	-0.017083
H273	H	0.390945	-0.414844	-0.452673
H274	H	0.890945	0.085156	0.047327
H275	H	0.508352	-0.395304	-0.556677
H276	H	1.008352	0.104696	-0.056677
H277	H	0.508333	-0.446710	-0.492289
H278	H	1.008333	0.053290	0.007711
H279	H	0.403547	-0.490560	-0.546670
H280	H	0.903547	0.009440	-0.046670
H281	H	0.403582	-0.439158	-0.611076
H282	H	0.903582	0.060842	-0.111076
H283	H	0.471790	-0.487101	-0.606502
H284	H	0.971790	0.012899	-0.106502
C285	C	1.239149	-0.219148	-1.090661
C286	C	1.739149	0.280852	-0.590661
C287	C	1.228405	-0.227729	-1.171226
C288	C	1.728405	0.272271	-0.671226
C289	C	1.278559	-0.187485	-1.212387
C290	C	1.778559	0.312515	-0.712387
H291	H	1.291912	-0.228329	-1.077319
H292	H	1.791912	0.271671	-0.577319
H293	H	1.227684	-0.176841	-1.077283
H294	H	1.727684	0.323159	-0.577283
H295	H	1.239876	-0.270026	-1.184598
H296	H	1.739876	0.229974	-0.684598
H297	H	1.175652	-0.218544	-1.184591
H298	H	1.675652	0.281456	-0.684591
H299	H	1.267093	-0.145179	-1.199009
H300	H	1.767093	0.354821	-0.699009
H301	H	1.331319	-0.196669	-1.199039
H302	H	1.831319	0.303331	-0.699039
H303	H	1.271271	-0.193298	-1.267054
H304	H	1.771271	0.306702	-0.767054
H305	H	1.225567	-0.230094	-0.930665
H306	H	1.725567	0.269906	-0.430665
C307	C	1.239262	-0.219161	-0.837533
C308	C	1.739262	0.280839	-0.337533
C309	C	1.283259	-0.183931	-0.784108
C310	C	1.783259	0.316069	-0.284108
C311	C	1.333605	-0.143641	-0.824963
C312	C	1.833605	0.356359	-0.324963
H313	H	1.209351	-0.191669	-0.869526
H314	H	1.709351	0.308331	-0.369526
H315	H	1.273493	-0.243225	-0.869489
H316	H	1.773493	0.256775	-0.369489
H317	H	1.249032	-0.159869	-0.752165
H318	H	1.749032	0.340131	-0.252165
H319	H	1.313186	-0.211407	-0.752114
H320	H	1.813186	0.288593	-0.252114
H321	H	1.367836	-0.167705	-0.856919
H322	H	1.867836	0.332295	-0.356919
H323	H	1.303687	-0.116153	-0.856954
H324	H	1.803687	0.383847	-0.356954
H325	H	1.363468	-0.119737	-0.788721
H326	H	1.863468	0.380263	-0.288721
H327	H	0.433930	-0.230121	-0.287304
H328	H	0.933930	0.269879	0.212696
C329	C	1.029596	-0.387237	-0.666756
C330	C	1.529596	0.112763	-0.166756
C331	C	0.985649	-0.422506	-0.720182
C332	C	1.485649	0.077494	-0.220182
C333	C	0.935417	-0.462888	-0.679326
C334	C	1.435417	0.037112	-0.179326
H335	H	0.995323	-0.363256	-0.634764
H336	H	1.495323	0.136744	-0.134764
H337	H	1.059612	-0.414695	-0.634800
H338	H	1.559612	0.085305	-0.134800
H339	H	0.955635	-0.395051	-0.752125
H340	H	1.455635	0.104949	-0.252125
H341	H	1.019901	-0.446500	-0.752175
H342	H	1.519901	0.053500	-0.252175
H343	H	0.965432	-0.490346	-0.647369
H344	H	1.465432	0.009654	-0.147369
H345	H	0.901149	-0.438902	-0.647336
H346	H	1.401149	0.061098	-0.147336
H347	H	0.905597	-0.486827	-0.715569
H348	H	1.405597	0.013173	-0.215569
H349	H	0.686776	-0.230111	-0.287276
H350	H	1.186776	0.269889	0.212724
C351	C	1.029759	-0.387180	-0.837651
C352	C	1.529759	0.112820	-0.337651
C353	C	1.074181	-0.427533	-0.884690
C354	C	1.574181	0.072467	-0.384690
C355	C	1.024092	-0.467865	-0.925713
C356	C	1.524092	0.032135	-0.425713
H357	H	0.995571	-0.363160	-0.869701
H358	H	1.495571	0.136840	-0.369701
H359	H	0.999844	-0.411198	-0.801515
H360	H	1.499844	0.088802	-0.301515
H361	H	1.104083	-0.403518	-0.920822
H362	H	1.604083	0.096482	-0.420822
H363	H	1.108367	-0.451567	-0.852659
H364	H	1.608367	0.048433	-0.352659
H365	H	0.994177	-0.491882	-0.889577
H366	H	1.494177	0.008118	-0.389577
H367	H	0.989907	-0.443839	-0.957759
H368	H	1.489907	0.056161	-0.457759
H369	H	1.054225	-0.495252	-0.957628
H370	H	1.554225	0.004748	-0.457628
H371	H	1.043327	-0.376123	-1.079331
H372	H	1.543327	0.123877	-0.579331
C373	C	0.593819	-0.387407	-0.482567
C374	C	1.093819	0.112593	0.017433
C375	C	0.640830	-0.427714	-0.438021
C376	C	1.140830	0.072286	0.061979
C377	C	0.681869	-0.468110	-0.487986
C378	C	1.181869	0.031890	0.012014
H379	H	0.625889	-0.363430	-0.516834
H380	H	1.125889	0.136570	-0.016834
H381	H	0.557692	-0.411455	-0.512403
H382	H	1.057692	0.088545	-0.012403
H383	H	0.676952	-0.403670	-0.408198
H384	H	1.176952	0.096330	0.091802
H385	H	0.608779	-0.451705	-0.403757
H386	H	1.108779	0.048295	0.096243
H387	H	0.645743	-0.492157	-0.517822
H388	H	1.145743	0.007843	-0.017822
H389	H	0.713935	-0.444128	-0.522250
H390	H	1.213935	0.055872	-0.022250
H391	H	0.713765	-0.495466	-0.457769
H392	H	1.213765	0.004534	0.042231
C393	C	1.239094	-0.534046	-0.273495
C394	C	1.739094	-0.034046	0.226505
C395	C	1.283119	-0.576900	-0.229596
C396	C	1.783119	-0.076900	0.270404
C397	C	1.333447	-0.544147	-0.179401
C398	C	1.833447	-0.044147	0.320599
H399	H	1.209169	-0.508437	-0.239190
H400	H	1.709169	-0.008437	0.260810
H401	H	1.273309	-0.508375	-0.303535
H402	H	1.773309	-0.008375	0.196465
H403	H	1.248909	-0.602560	-0.199559
H404	H	1.748909	-0.102560	0.300441
H405	H	1.313060	-0.602510	-0.263881
H406	H	1.813060	-0.102510	0.236119
H407	H	1.367661	-0.518476	-0.209441
H408	H	1.867661	-0.018476	0.290559
H409	H	1.303516	-0.518539	-0.145101
H410	H	1.803516	-0.018539	0.354899
H411	H	1.363329	-0.573218	-0.149615
H412	H	1.863329	-0.073218	0.350385
