data_functionalizedCrystal
_audit_creation_method	'MofGen! by Chris Wilmer'
_symmetry_space_group_name_H-M	'P1'
_symmetry_Int_Tables_number	1
_symmetry_cell_setting	triclinic
loop_
_symmetry_equiv_pos_as_xyz
  x,y,z
_cell_length_a	15.538191
_cell_length_b	19.288864
_cell_length_c	18.366186
_cell_angle_alpha	89.977106
_cell_angle_beta	89.995484
_cell_angle_gamma	65.204172
loop_
_atom_site_label
_atom_site_type_symbol
_atom_site_fract_x
_atom_site_fract_y
_atom_site_fract_z
O1	O	0.117639	0.891965	-0.060769
O2	O	0.617639	1.391965	0.439231
O3	O	0.133508	0.685740	-0.060717
O4	O	0.633508	1.185740	0.439283
O5	O	-0.011726	0.828996	-0.060756
O6	O	0.488274	1.328996	0.439244
O7	O	0.262873	0.748709	-0.060729
O8	O	0.762873	1.248709	0.439271
O9	O	-0.011734	0.828980	0.060343
O10	O	0.488266	1.328980	0.560343
O11	O	0.133501	0.685724	0.060382
O12	O	0.633501	1.185724	0.560382
O13	O	0.117632	0.891949	0.060331
O14	O	0.617632	1.391949	0.560331
Zn15	Zn	0.125565	0.788834	0.079584
Zn16	Zn	0.625565	1.288834	0.579584
Zn17	Zn	0.125574	0.788855	-0.079970
Zn18	Zn	0.625574	1.288855	0.420030
O19	O	0.262866	0.748693	0.060370
O20	O	0.762866	1.248693	0.560370
C21	C	0.132994	0.659983	-0.000161
C22	C	0.632994	1.159983	0.499839
C23	C	0.131461	0.583263	-0.000142
C24	C	0.631461	1.083263	0.499858
C25	C	-0.046861	0.837388	-0.000211
C26	C	0.453139	1.337388	0.499789
C27	C	-0.151541	0.862409	-0.000225
C28	C	0.348459	1.362409	0.499775
C29	C	0.216678	0.517278	-0.000145
C30	C	0.716678	1.017278	0.499855
C31	C	0.215238	0.445191	-0.000153
C32	C	0.715238	0.945191	0.499847
C33	C	0.128576	0.439092	-0.000173
C34	C	0.628576	0.939092	0.499827
C35	C	0.043348	0.505089	-0.000166
C36	C	0.543348	1.005089	0.499834
C37	C	0.044790	0.577175	-0.000150
C38	C	0.544790	1.077175	0.499850
C39	C	0.060453	0.347855	-0.042631
C40	C	0.560453	0.847855	0.457369
C41	C	0.059014	0.275770	-0.042651
C42	C	0.559014	0.775770	0.457349
C43	C	0.124123	0.216759	-0.000218
C44	C	0.624123	0.716759	0.499782
C45	C	0.190688	0.229837	0.042226
C46	C	0.690688	0.729837	0.542226
C47	C	0.192131	0.301922	0.042242
C48	C	0.692131	0.801922	0.542242
C49	C	0.127002	0.360931	-0.000189
C50	C	0.627002	0.860931	0.499811
C51	C	0.207785	0.072607	-0.000228
C52	C	0.707785	0.572607	0.499772
C53	C	0.206341	0.000520	-0.000232
C54	C	0.706341	0.500520	0.499768
C55	C	0.034449	0.060421	-0.000252
C56	C	0.534449	0.560421	0.499748
C57	C	0.035895	0.132506	-0.000241
C58	C	0.535895	0.632506	0.499759
C59	C	0.122565	0.138594	-0.000233
C60	C	0.622565	0.638594	0.499767
C61	C	-0.438277	0.613831	-0.000147
C62	C	0.061723	1.113831	0.499853
C63	C	-0.536642	0.637359	-0.000151
C64	C	-0.036642	1.137359	0.499849
C65	C	-0.559647	0.769703	-0.000185
C66	C	-0.059647	1.269703	0.499815
C67	C	-0.461281	0.746185	-0.000184
C68	C	0.038719	1.246185	0.499816
C69	C	-0.400603	0.668248	-0.000164
C70	C	0.099397	1.168248	0.499836
C71	C	-0.423608	0.800603	-0.000201
C72	C	0.076392	1.300603	0.499799
C73	C	-0.325251	0.777087	-0.000197
C74	C	0.174749	1.277087	0.499803
C75	C	-0.264567	0.699153	-0.000175
C76	C	0.235433	1.199153	0.499825
C77	C	-0.302246	0.644732	-0.000160
C78	C	0.197754	1.144732	0.499840
C79	C	-0.484287	0.878540	-0.000216
C80	C	0.015713	1.378540	0.499784
C81	C	-0.446614	0.932957	-0.000233
C82	C	0.053386	1.432957	0.499767
C83	C	-0.348255	0.909441	-0.000234
C84	C	0.151745	1.409441	0.499766
C85	C	-0.287571	0.831508	-0.000212
C86	C	0.212429	1.331508	0.499788
C87	C	-0.310576	0.963863	-0.000249
C88	C	0.189424	1.463863	0.499751
C89	C	-0.212219	0.940346	-0.000244
C90	C	0.287781	1.440346	0.499756
C91	C	-0.189214	0.807992	-0.000207
C92	C	0.310786	1.307992	0.499793
C93	C	0.298001	0.740301	-0.000177
C94	C	0.798001	1.240301	0.499823
C95	C	0.402681	0.715280	-0.000168
C96	C	0.902681	1.215280	0.499832
C97	C	0.118146	0.917706	-0.000227
C98	C	0.618146	1.417706	0.499773
C99	C	0.119679	0.994427	-0.000251
C100	C	0.619679	1.494427	0.499749
N101	N	0.125558	0.788824	0.188475
N102	N	0.625558	1.288824	0.688475
N103	N	0.125574	0.788872	-0.188861
N104	N	0.625574	1.288872	0.311139
C105	C	0.061280	0.852266	0.226558
C106	C	0.561280	1.352266	0.726558
C107	C	0.061276	0.852271	0.302786
C108	C	0.561276	1.352271	0.802786
C109	C	0.125566	0.788838	0.340928
C110	C	0.625566	1.288838	0.840928
C111	C	0.189849	0.725386	0.302835
C112	C	0.689849	1.225386	0.802835
C113	C	0.189845	0.725380	0.226609
C114	C	0.689845	1.225380	0.726609
C115	C	0.211489	0.758075	0.461698
C116	C	0.711489	1.258075	0.961698
C117	C	0.211494	0.758086	0.537923
C118	C	0.711494	1.258086	1.037923
C119	C	0.125578	0.788855	0.576035
C120	C	0.625578	1.288855	1.076035
C121	C	0.039653	0.819627	0.537913
C122	C	0.539653	1.319627	1.037913
C123	C	0.039649	0.819621	0.461687
C124	C	0.539649	1.319621	0.961687
C125	C	0.125577	0.788838	0.423582
C126	C	0.625577	1.288838	0.923582
C127	C	0.061290	0.852306	0.696773
C128	C	0.561290	1.352306	1.196773
C129	C	0.061284	0.852307	0.773002
C130	C	0.561284	1.352307	1.273002
C131	C	0.189866	0.725423	0.773051
C132	C	0.689866	1.225423	1.273051
C133	C	0.189863	0.725421	0.696823
C134	C	0.689863	1.225421	1.196823
C135	C	0.125576	0.788866	0.658689
C136	C	0.625576	1.288866	1.158689
H137	H	0.287252	0.522228	-0.000140
H138	H	0.787252	1.022228	0.499860
Cl139	Cl	-0.021408	0.422035	-0.095980
Cl140	Cl	0.478592	0.922035	0.404020
H141	H	-0.564375	0.897684	-0.000226
H142	H	-0.064375	1.397684	0.499774
Cl143	Cl	-0.386867	1.061836	-0.000260
Cl144	Cl	0.113133	1.561836	0.499740
H145	H	0.242208	0.673773	0.804105
H146	H	0.742208	1.173773	1.304105
H147	H	-0.496031	0.996414	-0.000246
H148	H	0.003969	1.496414	0.499754
Cl149	Cl	0.322376	0.362226	-0.000155
Cl150	Cl	0.822376	0.862226	0.499845
H151	H	0.281457	0.733007	0.430673
H152	H	0.781457	1.233007	0.930673
Cl153	Cl	0.275803	0.318363	0.095600
Cl154	Cl	0.775803	0.818363	0.595600
H155	H	0.243706	0.181790	0.076780
H156	H	0.743706	0.681790	0.576780
H157	H	-0.030314	0.844675	0.430651
H158	H	0.469686	1.344675	0.930651
Cl159	Cl	-0.019538	0.932034	0.350669
Cl160	Cl	0.480462	1.432034	0.850669
H161	H	-0.567310	0.593040	-0.000126
H162	H	-0.067310	1.093040	0.499874
H163	H	-0.139806	0.744528	-0.000197
H164	H	0.360194	1.244528	0.499803
H165	H	-0.181545	0.984659	-0.000258
H166	H	0.318455	1.484659	0.499742
H167	H	0.008931	0.903925	0.195511
H168	H	0.508931	1.403925	0.695511
Cl169	Cl	-0.065599	0.497424	-0.000186
Cl170	Cl	0.434401	0.997424	0.499814
Cl171	Cl	-0.068364	0.858315	0.585817
Cl172	Cl	0.431636	1.358315	1.085817
H173	H	-0.388869	0.550366	-0.000136
H174	H	0.111131	1.050366	0.499864
H175	H	0.242194	0.673737	0.333894
H176	H	0.742194	1.173737	0.833894
Cl177	Cl	-0.062349	0.660132	-0.000147
Cl178	Cl	0.437651	1.160132	0.499853
H179	H	-0.609064	0.833159	-0.000198
H180	H	-0.109064	1.333159	0.499802
H181	H	0.242189	0.673717	0.195601
H182	H	0.742189	1.173717	0.695601
Cl183	Cl	-0.225958	0.546752	-0.000142
Cl184	Cl	0.274042	1.046752	0.499858
H185	H	0.008940	0.903965	0.665723
H186	H	0.508940	1.403965	1.165723
Cl187	Cl	-0.019535	0.932065	0.820881
Cl188	Cl	0.480465	1.432065	1.320881
Cl189	Cl	0.319512	0.719406	0.585840
Cl190	Cl	0.819512	1.219406	1.085840
Cl191	Cl	0.316740	0.080265	-0.000211
Cl192	Cl	0.816740	0.580265	0.499789
H193	H	0.242208	0.673763	0.665814
H194	H	0.742208	1.173763	1.165814
H195	H	-0.036113	0.055457	-0.000313
H196	H	0.463887	0.555457	0.499687
Cl197	Cl	0.313482	-0.082436	-0.000232
Cl198	Cl	0.813482	0.417564	0.499768
Cl199	Cl	-0.071242	0.215463	-0.000241
Cl200	Cl	0.428758	0.715463	0.499759
H201	H	-0.184479	0.680008	-0.000167
H202	H	0.315521	1.180008	0.499833
Cl203	Cl	-0.024657	0.259333	-0.096015
Cl204	Cl	0.475343	0.759333	0.403985
