data_functionalizedCrystal
_audit_creation_method	'MofGen! by Chris Wilmer'
_symmetry_space_group_name_H-M	'P1'
_symmetry_Int_Tables_number	1
_symmetry_cell_setting	triclinic
loop_
_symmetry_equiv_pos_as_xyz
  x,y,z
_cell_length_a	6.817900
_cell_length_b	11.102183
_cell_length_c	17.110486
_cell_angle_alpha	95.183856
_cell_angle_beta	99.060439
_cell_angle_gamma	108.603876
loop_
_atom_site_label
_atom_site_type_symbol
_atom_site_fract_x
_atom_site_fract_y
_atom_site_fract_z
V1	V	-4.002954	-0.175460	-0.246719
O2	O	-3.964064	0.008821	-0.242024
O3	O	-3.980463	-0.348282	-0.245030
O4	O	-3.932385	-0.172590	-0.354322
O5	O	-4.012474	-0.168087	-0.131975
V6	V	-4.486097	-0.153438	-0.232995
O7	O	-4.265045	-0.223767	-0.276824
O8	O	-4.674202	-0.105131	-0.202890
O9	O	-4.285381	0.019384	-0.234683
O10	O	-4.642384	-0.337719	-0.237690
O11	O	-4.593973	-0.160811	-0.347738
O12	O	-4.333459	-0.156308	-0.125391
C13	C	-3.832484	-0.390418	-0.241138
C14	C	-3.895234	-0.531702	-0.240474
C15	C	-3.838655	-0.495646	-0.095540
C16	C	-3.839842	-0.543993	-0.022763
C17	C	-3.898808	-0.676742	-0.022144
C18	C	-3.956597	-0.761149	-0.094309
C19	C	-3.955411	-0.712803	-0.167085
C20	C	-3.896435	-0.580048	-0.167697
C21	C	-4.012004	-0.748858	-0.312018
C22	C	-3.953024	-0.616109	-0.312639
C23	C	-4.069793	-0.833265	-0.384183
C24	C	-4.068593	-0.784918	-0.456961
C25	C	-4.009620	-0.652160	-0.457577
C26	C	-3.951838	-0.567762	-0.385415
C27	C	-3.771155	-0.166304	-0.380549
C28	C	-3.794913	-0.165101	-0.468515
C29	C	-3.988312	-0.170879	-0.513873
C30	C	-4.010622	-0.169748	-0.596527
C31	C	-3.839536	-0.162848	-0.633821
C32	C	-3.646119	-0.157066	-0.588457
C33	C	-3.623807	-0.158188	-0.505804
C34	C	-3.897783	-0.159135	-0.883176
C35	C	-3.920113	-0.158017	-0.965835
C36	C	-4.284615	-0.170697	-0.973899
C37	C	-4.262288	-0.171826	-0.891245
C38	C	-4.068872	-0.166037	-0.845887
C39	C	-3.862338	-0.161696	-0.718307
C40	C	-4.046068	-0.167180	-0.761403
C41	C	-4.096703	0.061513	-0.238574
C42	C	-4.013190	0.202795	-0.239242
C43	C	-4.158032	-0.162599	-0.099160
C44	C	-4.113512	-0.163795	-0.011193
H45	H	-3.790580	-0.387551	-0.096035
C46	C	-3.411056	-0.151836	-0.455912
N47	N	-3.250804	-0.147050	-0.418333
H48	H	-4.185362	-0.172794	-0.731033
C49	C	-4.450494	-0.179400	-0.850226
N50	N	-4.592253	-0.185105	-0.819330
H51	H	-3.723045	-0.156083	-0.748682
H52	H	-4.442087	-0.175408	-1.010838
H53	H	-3.740317	-0.154466	-0.846260
C54	C	-3.776259	-0.451136	0.056615
N55	N	-3.728368	-0.381199	0.116402
H56	H	-4.008686	-0.612807	-0.516841
H57	H	-4.127638	-0.176506	-0.483515
C58	C	-4.021727	-0.907185	-0.093630
N59	N	-4.070871	-1.017184	-0.093120
C60	C	-3.457858	-0.149341	-0.629471
N61	N	-3.316035	-0.143479	-0.660358
C62	C	-3.731890	-0.150420	-1.006857
N63	N	-3.590129	-0.144698	-1.037754
C64	C	-3.886969	-0.421732	-0.386086
N65	N	-3.838118	-0.311740	-0.386588
H66	H	-4.168102	-0.174445	-0.633453
C67	C	-4.132149	-0.877771	-0.536333
N68	N	-4.180010	-0.947713	-0.596117
C69	C	-3.900111	-0.729925	0.057913
N70	N	-3.901090	-0.769982	0.118212
H71	H	-4.117817	-0.941355	-0.383674
