data_functionalizedCrystal
_audit_creation_method	'MofGen! by Chris Wilmer'
_symmetry_space_group_name_H-M	'P1'
_symmetry_Int_Tables_number	1
_symmetry_cell_setting	triclinic
loop_
_symmetry_equiv_pos_as_xyz
  x,y,z
_cell_length_a	23.204063
_cell_length_b	23.204065
_cell_length_c	23.204116
_cell_angle_alpha	59.997987
_cell_angle_beta	89.998953
_cell_angle_gamma	60.000253
loop_
_atom_site_label
_atom_site_type_symbol
_atom_site_fract_x
_atom_site_fract_y
_atom_site_fract_z
O1	O	-0.491197	-0.412484	0.017135
O2	O	-0.407392	-0.294473	-0.017070
O3	O	-0.407389	-0.412483	0.100940
O4	O	-0.491200	-0.294474	-0.100875
O5	O	-0.311538	-0.508333	0.100940
O6	O	-0.311541	-0.390323	-0.017071
O7	O	-0.395346	-0.508335	0.017135
Zn8	Zn	-0.338225	-0.464547	0.000032
Zn9	Zn	-0.464513	-0.338260	0.000033
O10	O	-0.395349	-0.390324	-0.100876
C11	C	-0.310652	-0.181456	-0.024838
C12	C	-0.346214	-0.110333	-0.019942
C13	C	-0.241294	-0.215971	-0.025323
C14	C	-0.310655	-0.285810	-0.024846
C15	C	-0.346219	-0.326263	-0.019957
C16	C	-0.241297	-0.320167	-0.025331
C17	C	-0.206293	-0.285815	-0.024838
C18	C	-0.130274	-0.326273	-0.019941
C19	C	-0.345497	-0.215967	-0.025331
C20	C	-0.658540	-0.590043	0.035860
C21	C	-0.734559	-0.549588	0.030967
C22	C	-0.623539	-0.659889	0.036349
C23	C	-0.554183	-0.590040	0.035855
C24	C	-0.518621	-0.549582	0.030958
C25	C	-0.519339	-0.659886	0.036344
C26	C	-0.554182	-0.694402	0.035859
C27	C	-0.518619	-0.765527	0.030967
C28	C	-0.623539	-0.555686	0.036345
C29	C	-0.489889	-0.822989	0.027012
C30	C	-0.795974	-0.516903	0.027013
C31	C	-0.489891	-0.516895	0.027000
C32	C	-0.453845	-0.895077	0.022052
C33	C	-0.873022	-0.475899	0.022054
C34	C	-0.453848	-0.475888	0.022036
C35	C	-0.554187	-0.212776	-0.445775
C36	C	-0.518624	-0.253233	-0.481336
C37	C	-0.623545	-0.142931	-0.480619
C38	C	-0.554188	-0.212775	-0.341416
C39	C	-0.518626	-0.253231	-0.265397
C40	C	-0.623546	-0.142930	-0.376419
C41	C	-0.658547	-0.108416	-0.445777
C42	C	-0.734566	-0.037291	-0.481340
C43	C	-0.519344	-0.247131	-0.376417
C44	C	-0.795982	0.020169	-0.510072
C45	C	-0.489893	-0.285920	-0.510065
C46	C	-0.489896	-0.285917	-0.203980
C47	C	-0.873032	0.092257	-0.546117
C48	C	-0.453848	-0.326925	-0.546108
C49	C	-0.453852	-0.326922	-0.126930
O50	O	0.100922	-0.508345	0.017151
O51	O	-0.100892	-0.390333	-0.017055
O52	O	0.017109	-0.508348	0.100956
O53	O	-0.017080	-0.390330	-0.100860
O54	O	0.017112	-0.412502	0.100963
O55	O	-0.100890	-0.294486	-0.017048
O56	O	0.100924	-0.412499	0.017158
Zn57	Zn	0.000018	-0.338275	0.000056
Zn58	Zn	0.000014	-0.464556	0.000047
O59	O	-0.017077	-0.294483	-0.100853
O60	O	-0.395342	0.083766	0.017156
O61	O	-0.311534	-0.083842	-0.017048
O62	O	-0.311538	-0.083852	0.100962
O63	O	-0.395338	0.083777	-0.100854
O64	O	-0.407391	-0.083849	0.100954
O65	O	-0.407387	-0.083839	-0.017056
O66	O	-0.491195	0.083770	0.017149
Zn67	Zn	-0.464510	-0.000034	0.000045
Zn68	Zn	-0.338219	-0.000039	0.000055
O69	O	-0.491191	0.083780	-0.100861
O70	O	-1.100901	0.281028	-0.592582
O71	O	-0.899087	0.113413	-0.508770
O72	O	-1.017091	0.113409	-0.508767
O73	O	-0.982897	0.281032	-0.592584
O74	O	-1.017088	0.113407	-0.604617
O75	O	-0.899085	0.113411	-0.604619
O76	O	-1.100898	0.281026	-0.688432
Zn77	Zn	-0.999991	0.197218	-0.661744
Zn78	Zn	-0.999994	0.197221	-0.535458
O79	O	-0.982895	0.281030	-0.688434
O80	O	-0.407389	-0.412483	-0.688416
O81	O	-0.491197	-0.294477	-0.604610
O82	O	-0.491195	-0.412486	-0.604605
O83	O	-0.407390	-0.294474	-0.688421
O84	O	-0.395343	-0.508338	-0.508754
O85	O	-0.395345	-0.390329	-0.508759
O86	O	-0.311537	-0.508334	-0.592565
Zn87	Zn	-0.338222	-0.464550	-0.535443
Zn88	Zn	-0.464511	-0.338262	-0.661732
O89	O	-0.311539	-0.390326	-0.592570
C90	C	-0.206294	-0.621360	0.310702
C91	C	-0.130275	-0.692485	0.346265
C92	C	-0.241296	-0.586846	0.345545
C93	C	-0.310654	-0.517001	0.206342
C94	C	-0.346216	-0.476544	0.130323
C95	C	-0.345497	-0.482645	0.241343
C96	C	-0.310653	-0.517001	0.310701
C97	C	-0.346216	-0.476544	0.346263
C98	C	-0.241296	-0.586846	0.241345
C99	C	0.024887	-0.517030	0.310724
C100	C	0.019993	-0.476577	0.346290
C101	C	0.025371	-0.586874	0.345565
C102	C	0.024889	-0.517022	0.206362
C103	C	0.019998	-0.476562	0.130342
C104	C	0.025374	-0.586867	0.241361
C105	C	0.024884	-0.621384	0.310718
C106	C	0.019987	-0.692509	0.346278
C107	C	0.025377	-0.482671	0.241366
C108	C	-0.310656	-0.285855	0.310709
C109	C	-0.346220	-0.326314	0.346266
C110	C	-0.241298	-0.320218	0.345555
C111	C	-0.310655	-0.181484	0.206357
C112	C	-0.346217	-0.110348	0.130340
C113	C	-0.241296	-0.216005	0.241362
C114	C	-0.206295	-0.285860	0.310717
C115	C	-0.130275	-0.326323	0.346282
C116	C	-0.345499	-0.216001	0.241354
C117	C	-0.035774	-0.108410	-0.445754
C118	C	-0.030877	-0.037285	-0.481314
C119	C	-0.036262	-0.142920	-0.480600
C120	C	-0.035780	-0.212771	-0.341397
C121	C	-0.030889	-0.253231	-0.265377
C122	C	-0.036268	-0.247124	-0.376401
C123	C	-0.035777	-0.212765	-0.445759
C124	C	-0.030883	-0.253218	-0.481324
C125	C	-0.036265	-0.142927	-0.376396
C126	C	-0.026928	-0.285901	-0.510056
C127	C	-0.026920	0.020175	-0.510042
C128	C	-0.026936	-0.285920	-0.203961
C129	C	-0.021967	-0.326903	-0.546103
C130	C	-0.021955	0.092262	-0.546083
C131	C	-0.021978	-0.326928	-0.126911
O132	O	-0.017120	-0.390358	0.491266
O133	O	0.017098	-0.508368	0.407461
O134	O	-0.100916	-0.390357	0.407446
O135	O	0.100893	-0.508369	0.491281
O136	O	-0.100904	-0.294507	0.311599
O137	O	0.017110	-0.412518	0.311614
O138	O	-0.017109	-0.294509	0.395420
Zn139	Zn	0.000002	-0.338295	0.338299
Zn140	Zn	-0.000013	-0.464581	0.464581
O141	O	0.100905	-0.412519	0.395435
C142	C	-0.658539	0.410016	-0.445751
C143	C	-0.734559	0.450479	-0.481316
C144	C	-0.623536	0.444375	-0.480590
C145	C	-0.554179	0.305641	-0.341392
C146	C	-0.518616	0.234505	-0.265374
C147	C	-0.519335	0.340158	-0.376388
C148	C	-0.554178	0.410013	-0.445743
C149	C	-0.518614	0.450471	-0.481300
C150	C	-0.623537	0.340162	-0.376396
C151	C	-0.489883	0.483159	-0.510025
C152	C	-0.795975	0.483170	-0.510049
C153	C	-0.489886	0.177036	-0.203959
C154	C	-0.453838	0.524167	-0.546063
C155	C	-0.873025	0.524182	-0.546095
C156	C	-0.453842	0.104937	-0.126912
H157	H	-0.402486	-0.187075	-0.026121
H158	H	0.026144	-0.615754	0.402549
C159	C	-0.443338	-0.698319	0.037441
C160	C	-0.420173	-0.653127	0.037774
C161	C	-0.350163	-0.688518	0.038802
H162	H	-0.440548	-0.698630	-0.003254
H163	H	-0.414346	-0.752671	0.078620
H164	H	-0.449157	-0.598789	-0.003400
H165	H	-0.422946	-0.652813	0.078467
H166	H	-0.321171	-0.742870	0.079981
H167	H	-0.347379	-0.688827	-0.001894
H168	H	-0.334434	-0.657865	0.039034
H169	H	-0.213192	-0.615736	0.402533
C170	C	0.026313	-0.407655	0.203940
C171	C	-0.033756	-0.343816	0.200494
C172	C	-0.032915	-0.274705	0.166028
H173	H	0.026502	-0.391942	0.157514
H174	H	0.067440	-0.419791	0.229335
H175	H	-0.074872	-0.331682	0.175098
H176	H	-0.033958	-0.359503	0.246910
H177	H	0.008212	-0.286841	0.191424
H178	H	-0.032724	-0.259000	0.119604
H179	H	-0.073667	-0.231385	0.163692
H180	H	-0.651642	-0.688773	0.037135
C181	C	-0.443347	-0.322045	-0.339075
C182	C	-0.420183	-0.344881	-0.384597
C183	C	-0.350179	-0.413878	-0.350226
H184	H	-0.440569	-0.365524	-0.298070
H185	H	-0.414347	-0.309872	-0.325895
H186	H	-0.449175	-0.357058	-0.397767
H187	H	-0.422944	-0.301422	-0.425602
H188	H	-0.321179	-0.401705	-0.337046
H189	H	-0.347408	-0.457351	-0.309222
H190	H	-0.334452	-0.429376	-0.381109
C191	C	-0.421433	-0.407602	0.203873
C192	C	-0.425176	-0.343777	0.200432
C193	C	-0.495110	-0.274632	0.165919
H194	H	-0.450471	-0.419670	0.229219
H195	H	-0.437291	-0.391915	0.157441
H196	H	-0.409327	-0.359461	0.246856
H197	H	-0.396153	-0.331684	0.175081
H198	H	-0.510968	-0.258946	0.119487
H199	H	-0.524143	-0.286708	0.191269
H200	H	-0.497658	-0.231317	0.163574
H201	H	-0.213184	-0.615720	0.213239
H202	H	0.026169	-0.615754	0.213258
H203	H	-0.651645	-0.114047	-0.348315
C204	C	-0.443313	0.301648	-0.339039
C205	C	-0.400775	0.278512	-0.376605
C206	C	-0.330745	0.243046	-0.342228
H207	H	-0.427388	0.254986	-0.292635
H208	H	-0.440588	0.339955	-0.336653
H209	H	-0.403497	0.240208	-0.378983
H210	H	-0.416678	0.325160	-0.423008
H211	H	-0.328020	0.281353	-0.339841
H212	H	-0.314827	0.196387	-0.295825
H213	H	-0.301876	0.227351	-0.367714
H214	H	-0.213198	-0.376369	-0.026116
H215	H	-0.651645	-0.499479	0.037123
H216	H	-0.213196	-0.187082	-0.026109
H217	H	-0.213195	-0.187119	0.213260
C218	C	-0.037274	-0.104563	-0.338788
C219	C	-0.037586	-0.149781	-0.270426
C220	C	-0.038506	-0.114475	-0.235757
H221	H	-0.078411	-0.050203	-0.364092
H222	H	0.003463	-0.104314	-0.336328
H223	H	-0.078319	-0.150021	-0.272889
H224	H	0.003547	-0.204140	-0.245103
H225	H	0.002232	-0.114226	-0.233297
H226	H	-0.079643	-0.060116	-0.261067
H227	H	-0.038711	-0.145154	-0.189368
H228	H	-0.651638	-0.114039	-0.537611
H229	H	-0.213202	-0.376423	0.402543
C230	C	-0.421532	-0.177409	0.203957
C231	C	-0.464081	-0.154247	0.241504
C232	C	-0.534124	-0.118683	0.207068
H233	H	-0.424325	-0.215646	0.201521
H234	H	-0.437392	-0.130745	0.157563
H235	H	-0.448226	-0.200905	0.287886
H236	H	-0.461309	-0.116002	0.243941
H237	H	-0.549984	-0.072019	0.160673
H238	H	-0.536910	-0.156924	0.204634
H239	H	-0.563004	-0.102956	0.232534
H240	H	-0.037054	-0.303326	-0.348299
C241	C	-0.037213	-0.104346	-0.556556
C242	C	-0.037479	-0.035701	-0.579697
C243	C	-0.038320	-0.000172	-0.649649
H244	H	-0.078340	-0.088492	-0.585646
H245	H	0.003535	-0.142665	-0.559216
H246	H	-0.078223	0.002611	-0.577042
H247	H	0.003645	-0.051533	-0.550627
H248	H	0.002429	-0.038491	-0.652309
H249	H	-0.079447	0.015677	-0.678732
H250	H	-0.038493	0.046403	-0.665357
C251	C	-0.661146	0.519372	-0.556550
C252	C	-0.729522	0.542246	-0.579700
C253	C	-0.764194	0.611344	-0.649659
H254	H	-0.635862	0.507320	-0.585627
H255	H	-0.663579	0.562788	-0.559221
H256	H	-0.727086	0.498840	-0.577035
H257	H	-0.754825	0.554315	-0.550642
H258	H	-0.766628	0.654760	-0.652331
H259	H	-0.738904	0.599285	-0.678731
H260	H	-0.810593	0.626877	-0.665374
H261	H	-0.651648	0.311288	-0.348296
