data_functionalizedCrystal
_audit_creation_method	'MofGen! by Chris Wilmer'
_symmetry_space_group_name_H-M	'P1'
_symmetry_Int_Tables_number	1
_symmetry_cell_setting	triclinic
loop_
_symmetry_equiv_pos_as_xyz
  x,y,z
_cell_length_a	18.050591
_cell_length_b	19.121449
_cell_length_c	18.050582
_cell_angle_alpha	92.462284
_cell_angle_beta	90.010544
_cell_angle_gamma	87.584163
loop_
_atom_site_label
_atom_site_type_symbol
_atom_site_fract_x
_atom_site_fract_y
_atom_site_fract_z
Zn1	Zn	1.147918	-0.279675	0.407216
Zn2	Zn	1.647918	0.220325	0.907216
Zn3	Zn	1.153130	-0.397116	0.277732
Zn4	Zn	1.653130	0.102884	0.777732
Zn5	Zn	1.023738	-0.279683	0.283050
Zn6	Zn	1.523738	0.220317	0.783050
Zn7	Zn	1.028986	-0.397085	0.401891
Zn8	Zn	1.528986	0.102915	0.901891
O9	O	1.088443	-0.338390	0.342472
O10	O	1.588443	0.161610	0.842472
O11	O	1.252534	-0.295263	0.390043
O12	O	1.752534	0.204737	0.890043
O13	O	1.135951	-0.381555	0.174512
O14	O	1.635951	0.118445	0.674512
O15	O	1.035833	-0.181400	0.303975
O16	O	1.535833	0.318600	0.803975
O17	O	1.256364	-0.381547	0.294911
O18	O	1.756364	0.118453	0.794911
O19	O	1.127067	-0.181393	0.395200
O20	O	1.627067	0.318607	0.895200
O21	O	1.040887	-0.295278	0.178419
O22	O	1.540887	0.204722	0.678419
O23	O	0.920509	-0.295247	0.298811
O24	O	1.420509	0.204753	0.798811
O25	O	1.044777	-0.381493	0.506523
O26	O	1.544777	0.118507	1.006523
O27	O	0.924364	-0.381502	0.386123
O28	O	1.424364	0.118498	0.886123
O29	O	1.132156	-0.295233	0.510435
O30	O	1.632156	0.204767	1.010435
O31	O	1.141040	-0.495395	0.289747
O32	O	1.641040	0.004605	0.789747
O33	O	1.049831	-0.495372	0.380967
O34	O	1.549831	0.004628	0.880967
C35	C	0.895490	-0.338373	0.342467
C36	C	1.395490	0.161627	0.842467
C37	C	0.812945	-0.338382	0.342481
C38	C	1.312945	0.161618	0.842481
C39	C	1.096591	-0.520867	0.334218
C40	C	1.596591	-0.020867	0.834218
C41	C	1.100145	-0.598931	0.330712
C42	C	1.600145	-0.098931	0.830712
C43	C	0.566242	-0.385384	0.389890
C44	C	1.066242	0.114616	0.889890
C45	C	0.616383	-0.402474	0.321333
C46	C	1.116383	0.097526	0.821333
C47	C	0.515825	-0.338404	0.342479
C48	C	1.015825	0.161596	0.842479
C49	C	0.612766	-0.321337	0.411031
C50	C	1.112766	0.178663	0.911031
C51	C	0.661810	-0.338395	0.342484
C52	C	1.161810	0.161605	0.842484
C53	C	0.564881	-0.355527	0.273885
C54	C	1.064881	0.144473	0.773885
C55	C	0.561259	-0.274360	0.363630
C56	C	1.061259	0.225640	0.863630
C57	C	0.611377	-0.291425	0.295028
C58	C	1.111377	0.208575	0.795028
C59	C	0.431727	-0.338411	0.342477
C60	C	0.931727	0.161589	0.842477
C61	C	0.745906	-0.338388	0.342478
C62	C	1.245906	0.161612	0.842478
C63	C	1.054294	-0.635620	0.376518
C64	C	1.554294	-0.135620	0.876518
C65	C	1.057636	-0.708969	0.373221
C66	C	1.557636	-0.208969	0.873221
C67	C	1.106833	-0.745630	0.324120
C68	C	1.606833	-0.245630	0.824120
C69	C	1.152686	-0.708936	0.278308
C70	C	1.652686	-0.208936	0.778308
C71	C	1.149339	-0.635587	0.281603
C72	C	1.649339	-0.135587	0.781603
C73	C	1.119312	-0.967094	0.311796
C74	C	1.619312	-0.467094	0.811796
C75	C	1.122657	-1.040447	0.308506
C76	C	1.622657	-0.540447	0.808506
C77	C	1.027606	-1.040476	0.403418
C78	C	1.527606	-0.540476	0.903418
C79	C	1.024267	-0.967126	0.406711
C80	C	1.524267	-0.467126	0.906711
C81	C	1.070116	-0.930439	0.360897
C82	C	1.570116	-0.430439	0.860897
C83	C	1.110253	-0.820605	0.320750
C84	C	1.610253	-0.320605	0.820750
C85	C	1.066693	-0.855465	0.364264
C86	C	1.566693	-0.355465	0.864264
C87	C	1.282149	-0.338408	0.342478
C88	C	1.782149	0.161592	0.842478
C89	C	1.364695	-0.338415	0.342480
C90	C	1.864695	0.161585	0.842480
C91	C	1.088471	-0.338359	0.536179
C92	C	1.588471	0.161641	1.036179
C93	C	1.088482	-0.338345	0.618726
C94	C	1.588482	0.161655	1.118726
C95	C	1.080283	-0.155200	0.350775
C96	C	1.580283	0.344800	0.850775
C97	C	1.076806	-0.077136	0.354313
C98	C	1.576806	0.422864	0.854313
C99	C	1.088456	-0.338370	0.149521
C100	C	1.588456	0.161630	0.649521
C101	C	1.088579	-0.338186	0.066984
C102	C	1.588579	0.161814	0.566984
C103	C	1.041001	-0.385190	0.816052
C104	C	1.541001	0.114810	1.316052
C105	C	1.109531	-0.402359	0.864664
C106	C	1.609531	0.097641	1.364664
C107	C	1.088517	-0.338292	0.769859
C108	C	1.588517	0.161708	1.269859
C109	C	1.020023	-0.321103	0.868329
C110	C	1.520023	0.178897	1.368329
C111	C	1.088544	-0.338241	0.915846
C112	C	1.588544	0.161759	1.415846
C113	C	1.157084	-0.355495	0.817382
C114	C	1.657084	0.144505	1.317382
C115	C	1.067529	-0.274209	0.821044
C116	C	1.567529	0.225791	1.321044
C117	C	1.136105	-0.291354	0.869635
C118	C	1.636105	0.208646	1.369635
C119	C	1.088500	-0.338323	0.685759
C120	C	1.588500	0.161677	1.185759
C121	C	1.088568	-0.338210	0.999944
C122	C	1.588568	0.161790	1.499944
H123	H	0.546357	-0.425148	0.429928
H124	H	1.046357	0.074852	0.929928
H125	H	0.543915	-0.370025	0.215895
H126	H	1.043915	0.129975	0.715895
H127	H	1.156646	-0.937229	0.274493
H128	H	1.656646	-0.437229	0.774493
C129	C	1.051022	-0.791410	0.469407
C130	C	1.551022	-0.291410	0.969407
C131	C	1.007241	-0.749296	0.423579
C132	C	1.507241	-0.249296	0.923579
H133	H	1.019907	-0.816308	0.500494
H134	H	1.519907	-0.316308	1.000494
H135	H	1.082051	-0.762753	0.499121
H136	H	1.582051	-0.262753	0.999121
H137	H	1.080793	-0.823740	0.439683
H138	H	1.580793	-0.323740	0.939683
H139	H	0.977474	-0.716963	0.453303
H140	H	1.477474	-0.216963	0.953303
H141	H	0.976199	-0.777956	0.393861
H142	H	1.476199	-0.277956	0.893861
C143	C	0.930628	-0.974525	0.500176
C144	C	1.430628	-0.474525	1.000176
C145	C	0.970175	-0.926831	0.460671
C146	C	1.470175	-0.426831	0.960671
H147	H	0.897230	-0.949647	0.533484
H148	H	1.397230	-0.449647	1.033484
H149	H	0.964265	-1.003083	0.527337
H150	H	1.464265	-0.503083	1.027337
H151	H	0.903560	-1.003181	0.466497
H152	H	1.403560	-0.503181	0.966497
H153	H	0.997247	-0.898178	0.494350
H154	H	1.497247	-0.398178	0.994350
H155	H	0.936533	-0.898261	0.433509
H156	H	1.436533	-0.398261	0.933509
C157	C	0.892143	-0.350712	0.871368
C158	C	1.392143	0.149288	1.371368
C159	C	0.941813	-0.301499	0.898504
C160	C	1.441813	0.198501	1.398504
H161	H	0.843859	-0.338611	0.889992
H162	H	1.343859	0.161389	1.389992
H163	H	0.907389	-0.395889	0.886973
H164	H	1.407389	0.104111	1.386973
H165	H	0.891487	-0.351004	0.818733
H166	H	1.391487	0.148996	1.318733
H167	H	0.942473	-0.301212	0.951139
H168	H	1.442473	0.198788	1.451139
H169	H	0.926563	-0.256310	0.882902
H170	H	1.426563	0.243690	1.382902
C171	C	1.216269	-1.033056	0.215006
C172	C	1.716269	-0.533056	0.715006
C173	C	1.176734	-1.080746	0.254527
C174	C	1.676734	-0.580746	0.754527
H175	H	1.249649	-1.057936	0.181682
H176	H	1.749649	-0.557936	0.681682
H177	H	1.243350	-1.004405	0.248668
H178	H	1.743350	-0.504405	0.748668
H179	H	1.182618	-1.004491	0.187856
H180	H	1.682618	-0.504491	0.687856
H181	H	1.210385	-1.109308	0.281681
H182	H	1.710385	-0.609308	0.781681
H183	H	1.149651	-1.109409	0.220860
H184	H	1.649651	-0.609409	0.720860
C185	C	0.485118	-0.206314	0.451391
C186	C	0.985118	0.293686	0.951391
C187	C	0.528666	-0.201273	0.387808
C188	C	1.028666	0.298727	0.887808
H189	H	0.464992	-0.161194	0.466319
H190	H	0.964992	0.338806	0.966319
H191	H	0.514883	-0.224331	0.490164
H192	H	1.014883	0.275669	0.990164
H193	H	0.445934	-0.236830	0.440804
H194	H	0.945934	0.263170	0.940804
H195	H	0.567853	-0.170762	0.398396
H196	H	1.067853	0.329238	0.898396
H197	H	0.498899	-0.183247	0.349027
H198	H	0.998899	0.316753	0.849027
C199	C	0.626244	-0.524705	0.346895
C200	C	1.126244	-0.024705	0.846895
C201	C	0.648947	-0.475582	0.297176
C202	C	1.148947	0.024418	0.797176
H203	H	0.646349	-0.569838	0.331985
H204	H	1.146349	-0.069838	0.831985
H205	H	0.573658	-0.525340	0.347154
H206	H	1.073658	-0.025340	0.847154
H207	H	0.643340	-0.512256	0.395263
H208	H	1.143340	-0.012256	0.895263
H209	H	0.631846	-0.488028	0.248808
H210	H	1.131846	0.011972	0.748808
H211	H	0.701545	-0.474948	0.296909
H212	H	1.201545	0.025052	0.796909
C213	C	1.213881	-0.903053	0.306780
C214	C	1.713881	-0.403053	0.806780
C215	C	1.164302	-0.860922	0.266763
C216	C	1.664302	-0.360922	0.766763
H217	H	1.247239	-0.927946	0.273443
H218	H	1.747239	-0.427946	0.773443
H219	H	1.187045	-0.935380	0.333600
H220	H	1.687045	-0.435380	0.833600
H221	H	1.240992	-0.874403	0.340427
H222	H	1.740992	-0.374403	0.840427
H223	H	1.137186	-0.889573	0.233120
H224	H	1.637186	-0.389573	0.733120
H225	H	1.191141	-0.828591	0.239931
H226	H	1.691141	-0.328591	0.739931
H227	H	0.990277	-1.070354	0.440717
H228	H	1.490277	-0.570354	0.940717
H229	H	0.631126	-0.251692	0.254888
H230	H	1.131126	0.248308	0.754888
C231	C	1.189554	-0.237772	0.978692
C232	C	1.689554	0.262228	1.478692
C233	C	1.190418	-0.237776	0.901124
C234	C	1.690418	0.262224	1.401124
H235	H	1.223081	-0.204691	0.998130
H236	H	1.723081	0.295309	1.498130
H237	H	1.204068	-0.283130	0.994308
H238	H	1.704068	0.216870	1.494308
H239	H	1.140926	-0.225479	0.996243
H240	H	1.640926	0.274521	1.496243
H241	H	1.239045	-0.250073	0.883572
H242	H	1.739045	0.249927	1.383572
H243	H	1.175908	-0.192407	0.885501
H244	H	1.675908	0.307593	1.385501
C245	C	0.979911	-0.206068	0.751006
C246	C	1.479911	0.293932	1.251006
C247	C	1.043519	-0.201102	0.795014
C248	C	1.543519	0.298898	1.295014
H249	H	0.965087	-0.160935	0.734932
H250	H	1.465087	0.339065	1.234932
H251	H	0.941099	-0.224021	0.779151
H252	H	1.441099	0.275979	1.279151
H253	H	0.990417	-0.236609	0.709083
H254	H	1.490417	0.263391	1.209083
H255	H	1.033012	-0.170565	0.836941
H256	H	1.533012	0.329435	1.336941
H257	H	1.082340	-0.183140	0.766869
H258	H	1.582340	0.316860	1.266869
C259	C	0.618490	-0.351125	0.538833
C260	C	1.118490	0.148875	1.038833
C261	C	0.641196	-0.301847	0.489289
C262	C	1.141196	0.198153	0.989289
H263	H	0.636037	-0.339094	0.587147
H264	H	1.136037	0.160906	1.087147
H265	H	0.638152	-0.396289	0.523483
H266	H	1.138152	0.103711	1.023483
H267	H	0.565881	-0.351402	0.539476
H268	H	1.065881	0.148598	1.039476
H269	H	0.693805	-0.301574	0.488642
H270	H	1.193805	0.198426	0.988642
H271	H	0.621537	-0.256672	0.504643
H272	H	1.121537	0.243328	1.004643
H273	H	1.014236	-0.605776	0.416505
H274	H	1.514236	-0.105776	0.916505
H275	H	1.192740	-0.738790	0.238326
H276	H	1.692740	-0.238790	0.738326
H277	H	1.186674	-0.605716	0.244301
H278	H	1.686674	-0.105716	0.744301
H279	H	1.026634	-0.825614	0.404239
H280	H	1.526634	-0.325614	0.904239
H281	H	1.215039	-0.370073	0.795118
H282	H	1.715039	0.129927	1.295118
C283	C	1.008988	-0.505844	0.806288
C284	C	1.508988	-0.005844	1.306288
C285	C	0.986813	-0.438795	0.784373
C286	C	1.486813	0.061205	1.284373
H287	H	0.975539	-0.538937	0.786726
H288	H	1.475539	-0.038937	1.286726
H289	H	1.008950	-0.506486	0.858875
H290	H	1.508950	-0.006486	1.358875
H291	H	1.057513	-0.517584	0.788115
H292	H	1.557513	-0.017584	1.288115
H293	H	0.938290	-0.427053	0.802551
H294	H	1.438290	0.072947	1.302551
H295	H	0.986844	-0.438152	0.731776
H296	H	1.486844	0.061848	1.231776
H297	H	1.127299	-0.456531	0.883919
H298	H	1.627299	0.043469	1.383919
