data_functionalizedCrystal
_audit_creation_method	'MofGen! by Chris Wilmer'
_symmetry_space_group_name_H-M	'P1'
_symmetry_Int_Tables_number	1
_symmetry_cell_setting	triclinic
loop_
_symmetry_equiv_pos_as_xyz
  x,y,z
_cell_length_a	15.944551
_cell_length_b	17.019294
_cell_length_c	15.021413
_cell_angle_alpha	86.125043
_cell_angle_beta	89.997174
_cell_angle_gamma	83.446674
loop_
_atom_site_label
_atom_site_type_symbol
_atom_site_fract_x
_atom_site_fract_y
_atom_site_fract_z
O1	O	1.114401	0.101727	-0.081736
O2	O	1.447735	0.435060	0.251597
O3	O	1.781068	0.768393	0.584930
O4	O	0.869836	0.114270	-0.082720
O5	O	1.203169	0.447603	0.250614
O6	O	1.536503	0.780937	0.583947
O7	O	0.998941	-0.006833	-0.073420
O8	O	1.332274	0.326500	0.259913
O9	O	1.665607	0.659834	0.593247
O10	O	0.985297	0.222829	-0.091036
O11	O	1.318630	0.556163	0.242297
O12	O	1.651963	0.889496	0.575631
O13	O	0.998920	-0.006816	0.074643
O14	O	1.332253	0.326518	0.407976
O15	O	1.665587	0.659851	0.741309
O16	O	0.869816	0.114287	0.065343
O17	O	1.203149	0.447620	0.398676
O18	O	1.536482	0.780954	0.732010
O19	O	1.114381	0.101744	0.066327
O20	O	1.447714	0.435077	0.399660
O21	O	1.781048	0.768411	0.732993
Zn22	Zn	0.992095	0.108018	0.089343
Zn23	Zn	1.325428	0.441352	0.422676
Zn24	Zn	1.658762	0.774685	0.756010
Zn25	Zn	0.992122	0.107996	-0.105736
Zn26	Zn	1.325455	0.441329	0.227597
Zn27	Zn	1.658789	0.774662	0.560930
O28	O	0.985276	0.222847	0.057027
O29	O	1.318610	0.556180	0.390360
O30	O	1.651943	0.889513	0.723694
C31	C	0.838533	0.113758	-0.008651
C32	C	1.171866	0.447091	0.324682
C33	C	1.505199	0.780424	0.658015
C34	C	0.745288	0.112197	-0.008540
C35	C	1.078622	0.445530	0.324793
C36	C	1.411955	0.778863	0.658127
C37	C	0.530530	0.033400	-0.002479
C38	C	0.863864	0.366733	0.330855
C39	C	1.197197	0.700067	0.664188
C40	C	0.469475	0.069982	-0.078288
C41	C	0.802808	0.403315	0.255045
C42	C	1.136141	0.736649	0.588379
C43	C	0.574566	0.109372	-0.008313
C44	C	0.907899	0.442706	0.325021
C45	C	1.241233	0.776039	0.658354
C46	C	0.469477	0.070017	0.067689
C47	C	0.802810	0.403350	0.401022
C48	C	1.136143	0.736684	0.734356
C49	C	0.409657	0.106639	-0.008089
C50	C	0.742990	0.439972	0.325244
C51	C	1.076323	0.773306	0.658578
C52	C	0.514738	0.145975	-0.084184
C53	C	0.848072	0.479309	0.249149
C54	C	1.181405	0.812642	0.582483
C55	C	0.514747	0.146000	0.061859
C56	C	0.848080	0.479333	0.395193
C57	C	1.181413	0.812666	0.728526
C58	C	0.453709	0.182637	-0.013972
C59	C	0.787042	0.515970	0.319361
C60	C	1.120375	0.849304	0.652695
C61	C	0.669566	0.110945	-0.008442
C62	C	1.002900	0.444278	0.324891
C63	C	1.336233	0.777612	0.658224
C64	C	0.314658	0.105072	-0.007966
C65	C	0.647991	0.438406	0.325367
C66	C	0.981324	0.771739	0.658700
C67	C	0.998413	-0.036213	0.002863
C68	C	1.331746	0.297120	0.336197
C69	C	1.665079	0.630453	0.669530
C70	C	0.996860	-0.123783	0.009574
C71	C	1.330193	0.209551	0.342907
C72	C	1.663527	0.542884	0.676241
C73	C	0.996144	-0.164928	-0.067982
C74	C	1.329477	0.168405	0.265352
C75	C	1.662811	0.501739	0.598685
C76	C	0.994680	-0.247208	-0.061674
C77	C	1.328013	0.086125	0.271660
C78	C	1.661346	0.419458	0.604993
C79	C	0.993938	-0.288343	0.022191
C80	C	1.327271	0.044991	0.355524
C81	C	1.660604	0.378324	0.688858
C82	C	0.994652	-0.247191	0.099753
C83	C	1.327985	0.086142	0.433086
C84	C	1.661318	0.419476	0.766419
C85	C	0.996110	-0.164912	0.093444
C86	C	1.329443	0.168422	0.426777
C87	C	1.662776	0.501755	0.760110
C88	C	0.989529	-0.536773	0.045278
C89	C	1.322862	-0.203439	0.378611
C90	C	1.656195	0.129894	0.711944
C91	C	0.988073	-0.619058	0.051581
C92	C	1.321406	-0.285725	0.384914
C93	C	1.654740	0.047609	0.718248
C94	C	0.988100	-0.619069	-0.109846
C95	C	1.321433	-0.285736	0.223487
C96	C	1.654766	0.047597	0.556820
C97	C	0.989563	-0.536789	-0.116148
C98	C	1.322896	-0.203456	0.217186
C99	C	1.656230	0.129878	0.550519
C100	C	0.990272	-0.495644	-0.038586
C101	C	1.323606	-0.162311	0.294747
C102	C	1.656939	0.171022	0.628080
C103	C	0.992444	-0.372446	0.028641
C104	C	1.325777	-0.039113	0.361974
C105	C	1.659110	0.294220	0.695308
C106	C	0.991760	-0.411541	-0.045037
C107	C	1.325094	-0.078208	0.288296
C108	C	1.658427	0.255126	0.621630
C109	C	1.145684	0.102256	-0.007744
C110	C	1.479018	0.435589	0.325589
C111	C	1.812351	0.768923	0.658923
C112	C	1.238929	0.103817	-0.007861
C113	C	1.572262	0.437150	0.325472
C114	C	1.905595	0.770484	0.658806
C115	C	0.985804	0.252227	-0.019259
C116	C	1.319138	0.585560	0.314075
C117	C	1.652471	0.918894	0.647408
C118	C	0.987357	0.339797	-0.025975
C119	C	1.320690	0.673130	0.307358
C120	C	1.654023	1.006463	0.640692
N121	N	0.992083	0.108033	0.222480
N122	N	1.325416	0.441367	0.555813
N123	N	1.658749	0.774700	0.889146
N124	N	0.992141	0.107974	-0.238872
N125	N	1.325474	0.441308	0.094461
N126	N	1.658808	0.774641	0.427795
C127	C	0.932376	0.164005	0.457865
C128	C	1.265709	0.497338	0.791198
C129	C	1.599042	0.830672	1.124531
C130	C	1.008257	0.179319	0.516031
C131	C	1.341590	0.512653	0.849365
C132	C	1.674923	0.845986	1.182698
C133	C	0.992104	0.108014	0.404088
C134	C	1.325437	0.441347	0.737421
C135	C	1.658771	0.774680	1.070755
C136	C	0.916243	0.092717	0.522662
C137	C	1.249577	0.426050	0.855995
C138	C	1.582910	0.759384	1.189328
C139	C	0.992118	0.107996	0.579513
C140	C	1.325451	0.441330	0.912847
C141	C	1.658785	0.774663	1.246180
C142	C	1.068024	0.123363	0.460945
C143	C	1.401357	0.456697	0.794279
C144	C	1.734690	0.790030	1.127612
C145	C	0.975960	0.036730	0.467573
C146	C	1.309294	0.370064	0.800906
C147	C	1.642627	0.703397	1.134240
C148	C	1.051897	0.052014	0.525715
C149	C	1.385230	0.385348	0.859048
C150	C	1.718563	0.718681	1.192382
C151	C	0.992095	0.108026	0.303030
C152	C	1.325428	0.441359	0.636363
C153	C	1.658762	0.774692	0.969696
C154	C	0.992136	0.107984	0.680569
C155	C	1.325469	0.441317	1.013903
C156	C	1.658803	0.774651	1.347236
H157	H	0.420471	0.245753	-0.018854
H158	H	0.753804	0.579086	0.314479
H159	H	1.087138	0.912419	0.647813
H160	H	0.534694	0.178077	-0.148432
H161	H	0.868028	0.511411	0.184901
H162	H	1.201361	0.844744	0.518234
H163	H	0.449413	0.037842	-0.137542
H164	H	0.782747	0.371175	0.195791
H165	H	1.116080	0.704508	0.529124
O166	O	1.026377	0.259147	0.544492
O167	O	1.359711	0.592480	0.877825
O168	O	1.693044	0.925813	1.211158
H169	H	1.026823	0.258201	0.618446
H170	H	1.360156	0.591535	0.951780
H171	H	1.693489	0.924868	1.285113
O172	O	1.118877	-0.010717	0.564796
O173	O	1.452210	0.322616	0.898129
O174	O	1.785543	0.655949	1.231463
H175	H	1.181752	0.002166	0.539905
H176	H	1.515085	0.335500	0.873238
H177	H	1.848419	0.668833	1.206572
O178	O	0.957831	-0.043085	0.439098
O179	O	1.291165	0.290249	0.772431
O180	O	1.624498	0.623582	1.105764
H181	H	0.894788	-0.055640	0.463793
H182	H	1.228121	0.277693	0.797126
H183	H	1.561454	0.611027	1.130459
O184	O	0.831261	0.075578	0.558521
O185	O	1.164594	0.408911	0.891854
O186	O	1.497928	0.742245	1.225187
H187	H	0.781792	0.122144	0.531205
H188	H	1.115126	0.455477	0.864539
H189	H	1.448459	0.788810	1.197872
O190	O	0.996938	-0.120569	-0.158441
O191	O	1.330271	0.212765	0.174893
O192	O	1.663605	0.546098	0.508226
H193	H	1.054828	-0.090114	-0.164642
H194	H	1.388161	0.243219	0.168691
H195	H	1.721494	0.576553	0.502024
H196	H	0.563942	-0.029651	0.002267
H197	H	0.897276	0.303682	0.335601
H198	H	1.230609	0.637016	0.668934
O199	O	0.541371	0.188534	0.140349
O200	O	0.874705	0.521868	0.473682
O201	O	1.208038	0.855201	0.807016
H202	H	0.523461	0.156881	0.203292
H203	H	0.856795	0.490214	0.536625
H204	H	1.190128	0.823547	0.869959
H205	H	0.449422	0.037877	0.131871
H206	H	0.782755	0.371210	0.465204
H207	H	1.116089	0.704544	0.798537
O208	O	1.153029	0.140589	0.425231
O209	O	1.486362	0.473922	0.758564
O210	O	1.819696	0.807255	1.091897
H211	H	1.202582	0.094351	0.453065
H212	H	1.535915	0.427684	0.786398
H213	H	1.869249	0.761018	1.119731
O214	O	0.987316	-0.663442	-0.193500
O215	O	1.320649	-0.330108	0.139833
O216	O	1.653982	0.003225	0.473166
H217	H	1.043867	-0.707963	-0.193952
H218	H	1.377201	-0.374629	0.139381
H219	H	1.710534	-0.041296	0.472714
O220	O	0.993865	-0.291585	-0.145323
O221	O	1.327198	0.041749	0.188011
O222	O	1.660532	0.375082	0.521344
H223	H	0.994621	-0.249158	-0.204698
H224	H	1.327954	0.084176	0.128635
H225	H	1.661287	0.417509	0.461968
H226	H	0.990168	-0.503303	-0.184439
H227	H	1.323502	-0.169970	0.148894
H228	H	1.656835	0.163363	0.482227
H229	H	0.987465	-0.652547	0.119877
H230	H	1.320798	-0.319213	0.453210
H231	H	1.654131	0.014120	0.786544
H232	H	0.994042	-0.280688	0.168037
H233	H	1.327376	0.052645	0.501371
H234	H	1.660709	0.385978	0.834704
O235	O	0.990316	-0.492401	0.128929
O236	O	1.323649	-0.159068	0.462262
O237	O	1.656982	0.174265	0.795596
H238	H	0.989570	-0.534832	0.188303
H239	H	1.322903	-0.201499	0.521636
H240	H	1.656236	0.131835	0.854969
O241	O	0.992560	-0.367174	-0.135487
O242	O	1.325893	-0.033841	0.197846
O243	O	1.659227	0.299492	0.531180
H244	H	0.935062	-0.375935	-0.173525
H245	H	1.268395	-0.042602	0.159808
H246	H	1.601728	0.290731	0.493142
H247	H	0.996681	-0.131411	0.156598
H248	H	1.330014	0.201923	0.489931
H249	H	1.663348	0.535256	0.823265
H250	H	0.991842	-0.405947	0.096924
H251	H	1.325176	-0.072614	0.430257
H252	H	1.658509	0.260719	0.763591
O253	O	0.865536	0.226768	0.418570
O254	O	1.198870	0.560102	0.751903
O255	O	1.532203	0.893435	1.085236
H256	H	0.879152	0.285877	0.437825
H257	H	1.212486	0.619210	0.771158
H258	H	1.545819	0.952543	1.104491
