data_functionalizedCrystal
_audit_creation_method	'MofGen! by Chris Wilmer'
_symmetry_space_group_name_H-M	'P1'
_symmetry_Int_Tables_number	1
_symmetry_cell_setting	triclinic
loop_
_symmetry_equiv_pos_as_xyz
  x,y,z
_cell_length_a	14.044220
_cell_length_b	10.654550
_cell_length_c	9.730223
_cell_angle_alpha	90.000193
_cell_angle_beta	89.995496
_cell_angle_gamma	88.836890
loop_
_atom_site_label
_atom_site_type_symbol
_atom_site_fract_x
_atom_site_fract_y
_atom_site_fract_z
O1	O	-1.259693	-0.302980	-0.114137
O2	O	-0.759693	0.197020	0.385863
O3	O	-0.983652	-0.292047	-0.114172
O4	O	-0.483652	0.207953	0.385828
O5	O	-1.128019	-0.115412	-0.114149
O6	O	-0.628019	0.384588	0.385851
O7	O	-1.115326	-0.479615	-0.114161
O8	O	-0.615326	0.020385	0.385839
O9	O	-1.128018	-0.115417	0.114431
O10	O	-0.628018	0.384583	0.614431
O11	O	-0.983650	-0.292052	0.114408
O12	O	-0.483650	0.207948	0.614408
O13	O	-1.259691	-0.302985	0.114443
O14	O	-0.759691	0.197015	0.614443
Zn15	Zn	-1.121671	-0.297519	0.150717
Zn16	Zn	-0.621671	0.202481	0.650717
Zn17	Zn	-1.121673	-0.297513	-0.150447
Zn18	Zn	-0.621673	0.202487	0.349553
O19	O	-1.115324	-0.479620	0.114419
O20	O	-0.615324	0.020380	0.614419
C21	C	-0.948305	-0.287263	0.000113
C22	C	-0.448305	0.212737	0.500113
C23	C	-0.842986	-0.272988	0.000100
C24	C	-0.342986	0.227012	0.500100
C25	C	-1.127086	-0.068523	0.000139
C26	C	-0.627086	0.431477	0.500139
C27	C	-1.124298	0.071201	0.000134
C28	C	-0.624298	0.571201	0.500134
C29	C	-1.295038	-0.307769	0.000154
C30	C	-0.795038	0.192231	0.500154
C31	C	-1.400358	-0.322044	0.000159
C32	C	-0.900358	0.177956	0.500159
C33	C	-0.650153	-0.246889	0.000128
C34	C	-0.150153	0.253111	0.500128
C35	C	-0.593185	-0.348137	0.000130
C36	C	-0.093185	0.151863	0.500130
C37	C	-0.485886	-0.333615	0.000146
C38	C	0.014114	0.166385	0.500146
C39	C	-0.757461	-0.261409	0.000112
C40	C	-0.257461	0.238591	0.500112
C41	C	-1.116257	-0.526509	0.000128
C42	C	-0.616257	-0.026509	0.500128
C43	C	-1.119045	-0.666233	0.000124
C44	C	-0.619045	-0.166233	0.500124
N45	N	-1.121676	-0.297523	0.356254
N46	N	-0.621676	0.202477	0.856254
C47	C	-1.209299	0.142144	0.000149
C48	C	-0.709299	0.642144	0.500149
C49	C	-1.206673	0.273429	0.000139
C50	C	-0.706673	0.773429	0.500139
C51	C	-1.034038	0.262814	0.000105
C52	C	-0.534038	0.762814	0.500105
C53	C	-1.036664	0.131532	0.000105
C54	C	-0.536664	0.631532	0.500105
C55	C	-1.308969	0.148274	0.000175
C56	C	-0.808969	0.648274	0.500175
C57	C	-1.306343	0.279559	0.000165
C58	C	-0.806343	0.779559	0.500165
N59	N	-1.121675	-0.297500	-0.355983
N60	N	-0.621675	0.202500	0.144017
C61	C	-1.185618	-0.219340	0.428190
C62	C	-0.685618	0.280660	0.928190
C63	C	-1.185616	-0.219324	0.572073
C64	C	-0.685616	0.280676	1.072073
C65	C	-1.057725	-0.375686	0.572070
C66	C	-0.557725	0.124314	1.072070
C67	C	-1.057724	-0.375694	0.428190
C68	C	-0.557724	0.124306	0.928190
C69	C	-1.259458	-0.129069	0.428193
C70	C	-0.759458	0.370931	0.928193
C71	C	-1.259455	-0.129054	0.572076
C72	C	-0.759455	0.370946	1.072076
H73	H	-0.624998	-0.445725	0.000121
H74	H	-0.124998	0.054275	0.500121
H75	H	-0.967448	0.073774	0.000074
H76	H	-0.467448	0.573774	0.500074
Cl77	Cl	-0.923876	0.338668	0.000066
Cl78	Cl	-0.423876	0.838668	0.500066
Cl79	Cl	-1.223866	0.015353	0.640970
Cl80	Cl	-0.723866	0.515353	1.140970
Cl81	Cl	-1.369156	0.096892	-0.147495
Cl82	Cl	-0.869156	0.596892	0.352505
H83	H	-1.243262	-0.030909	0.389139
H84	H	-0.743262	0.469091	0.889139
Cl85	Cl	-1.371995	-0.173574	0.632391
Cl86	Cl	-0.871995	0.326426	1.132391
H87	H	-1.340707	0.109456	0.098875
H88	H	-0.840707	0.609456	0.598875
Cl89	Cl	-0.601039	-0.096230	0.000135
Cl90	Cl	-0.101039	0.403770	0.500135
Cl91	Cl	-1.352848	0.345369	-0.152200
Cl92	Cl	-0.852848	0.845369	0.347800
H93	H	-1.343897	0.317543	0.095828
H94	H	-0.843897	0.817543	0.595828
Cl95	Cl	-1.365780	-0.186995	0.359294
Cl96	Cl	-0.865780	0.313005	0.859294
H97	H	-1.005649	-0.439345	0.369621
H98	H	-0.505649	0.060655	0.869621
Cl99	Cl	-0.977333	-0.473953	0.662513
Cl100	Cl	-0.477333	0.026047	1.162513
