data_functionalizedCrystal
_audit_creation_method	'MofGen! by Chris Wilmer'
_symmetry_space_group_name_H-M	'P1'
_symmetry_Int_Tables_number	1
_symmetry_cell_setting	triclinic
loop_
_symmetry_equiv_pos_as_xyz
  x,y,z
_cell_length_a	17.077404
_cell_length_b	11.169416
_cell_length_c	17.077396
_cell_angle_alpha	89.977334
_cell_angle_beta	89.980499
_cell_angle_gamma	90.010565
loop_
_atom_site_label
_atom_site_type_symbol
_atom_site_fract_x
_atom_site_fract_y
_atom_site_fract_z
Zn1	Zn	1.200123	-0.477800	-0.443874
Zn2	Zn	1.200059	-0.678512	-0.312622
Zn3	Zn	1.068855	-0.477842	-0.312622
Zn4	Zn	1.068852	-0.678440	-0.443845
O5	O	1.134472	-0.578149	-0.378241
O6	O	1.309961	-0.504437	-0.426475
O7	O	1.182629	-0.651940	-0.202775
O8	O	1.086296	-0.309887	-0.330046
O9	O	1.309914	-0.651899	-0.330045
O10	O	1.182738	-0.309856	-0.426476
O11	O	1.086234	-0.504509	-0.202775
O12	O	0.959008	-0.504440	-0.330017
O13	O	1.086291	-0.651778	-0.553696
O14	O	0.959005	-0.651818	-0.426426
O15	O	1.182735	-0.504368	-0.553718
O16	O	1.182626	-0.846452	-0.330016
O17	O	1.086228	-0.846400	-0.426426
C18	C	0.930524	-0.578127	-0.378219
C19	C	0.843274	-0.578146	-0.378229
C20	C	0.802304	-0.655002	-0.428348
C21	C	0.720323	-0.655005	-0.428361
C22	C	0.679315	-0.578157	-0.378249
C23	C	0.720292	-0.501292	-0.328127
C24	C	0.802271	-0.501285	-0.328119
C25	C	0.549422	-0.501316	-0.328146
C26	C	0.467437	-0.501325	-0.328153
C27	C	0.467474	-0.655036	-0.428388
C28	C	0.549453	-0.655029	-0.428380
C29	C	0.590424	-0.578165	-0.378257
C30	C	1.134441	-0.889973	-0.378235
C31	C	1.134500	-1.023373	-0.378259
C32	C	1.339216	-0.578171	-0.378263
C33	C	1.426466	-0.578181	-0.378273
C34	C	1.134520	-0.578060	-0.582985
C35	C	1.134540	-0.578022	-0.670235
C36	C	1.134525	-0.265106	-0.378264
C37	C	1.134547	-0.131706	-0.378274
C38	C	1.184760	-0.501260	-0.711238
C39	C	1.184770	-0.501220	-0.793218
C40	C	1.134562	-0.577949	-0.834195
C41	C	1.084336	-0.654715	-0.793186
C42	C	1.084323	-0.654748	-0.711207
C43	C	1.084368	-0.654643	-0.964057
C44	C	1.084381	-0.654612	-1.046041
C45	C	1.184814	-0.501115	-1.046067
C46	C	1.184801	-0.501148	-0.964088
C47	C	1.134576	-0.577916	-0.923086
C48	C	1.134470	-0.578150	-0.174293
C49	C	1.134602	-0.577850	-0.087044
H50	H	0.835687	-0.717585	-0.469153
C51	C	0.594488	-0.416765	-0.273006
N52	N	0.628432	-0.353088	-0.231471
H53	H	0.835628	-0.438694	-0.287311
H54	H	1.225689	-0.438674	-0.930728
C55	C	1.240018	-0.416777	-0.838317
N56	N	1.281633	-0.353170	-0.872285
H57	H	1.225648	-0.438781	-0.677881
C58	C	0.675259	-0.739576	-0.483481
N59	N	0.641317	-0.803286	-0.524996
C60	C	0.422405	-0.739581	-0.483528
N61	N	0.388455	-0.803259	-0.525056
C62	C	1.240062	-0.416668	-1.091172
N63	N	1.281676	-0.353069	-1.125148
C64	C	1.029145	-0.739011	-1.091114
N65	N	0.987540	-0.802580	-1.125062
H66	H	1.043457	-0.717137	-0.930675
C67	C	1.029099	-0.739107	-0.838263
N68	N	0.987493	-0.802673	-0.872215
C69	C	0.422330	-0.416784	-0.273031
N70	N	0.388355	-0.353105	-0.231512
H71	H	0.582840	-0.717612	-0.469181
H72	H	0.686896	-0.438716	-0.287329
C73	C	1.029078	-0.739196	-0.666105
N74	N	0.987464	-0.802802	-0.632135
