data_functionalizedCrystal
_audit_creation_method	'MofGen! by Chris Wilmer'
_symmetry_space_group_name_H-M	'P1'
_symmetry_Int_Tables_number	1
_symmetry_cell_setting	triclinic
loop_
_symmetry_equiv_pos_as_xyz
  x,y,z
_cell_length_a	12.645329
_cell_length_b	21.395362
_cell_length_c	21.395355
_cell_angle_alpha	89.951961
_cell_angle_beta	90.013708
_cell_angle_gamma	89.963759
loop_
_atom_site_label
_atom_site_type_symbol
_atom_site_fract_x
_atom_site_fract_y
_atom_site_fract_z
Zn1	Zn	-0.421645	-0.957915	0.354675
Zn2	Zn	-0.598895	-0.957841	0.249906
Zn3	Zn	-0.421702	-0.853130	0.249869
Zn4	Zn	-0.598924	-0.853122	0.354604
O5	O	-0.510291	-0.905502	0.302264
O6	O	-0.445122	-1.045583	0.340823
O7	O	-0.575401	-0.943923	0.162223
O8	O	-0.273347	-0.867064	0.263786
O9	O	-0.575346	-1.045528	0.263850
O10	O	-0.273306	-0.944049	0.340787
O11	O	-0.445219	-0.866992	0.162196
O12	O	-0.445247	-0.765451	0.263717
O13	O	-0.575396	-0.867051	0.442291
O14	O	-0.575451	-0.765445	0.340665
O15	O	-0.445150	-0.944042	0.442344
O16	O	-0.747246	-0.943915	0.263781
O17	O	-0.747267	-0.866979	0.340701
C18	C	-0.510359	-0.742714	0.302179
C19	C	-0.510413	-0.673073	0.302158
C20	C	-0.785721	-0.905455	0.302251
C21	C	-0.903551	-0.905493	0.302266
C22	C	-0.948491	-0.857070	0.350629
C23	C	-1.071051	-0.857270	0.350839
C24	C	-1.071289	-0.971644	0.320088
C25	C	-0.948691	-0.971306	0.320419
C26	C	-0.948826	-0.888464	0.236004
C27	C	-1.071435	-0.887065	0.236376
C28	C	-0.578303	-0.640373	0.342163
C29	C	-0.578281	-0.574938	0.342186
C30	C	-0.510382	-0.542205	0.302193
C31	C	-0.442479	-0.574912	0.262186
C32	C	-0.442495	-0.640346	0.262168
C33	C	-0.501849	-0.438479	0.245780
C34	C	-0.501841	-0.373046	0.245797
C35	C	-0.510327	-0.340384	0.302248
C36	C	-0.518844	-0.373163	0.358684
C37	C	-0.518860	-0.438597	0.358667
C38	C	-0.510357	-0.471252	0.302208
C39	C	-0.578197	-0.236732	0.342281
C40	C	-0.578168	-0.171295	0.342305
C41	C	-0.442371	-0.171271	0.262300
C42	C	-0.442395	-0.236706	0.262281
C43	C	-0.510313	-0.269433	0.302271
C44	C	-0.233786	-0.905566	0.302290
C45	C	-0.115956	-0.905593	0.302301
C46	C	-0.510270	-0.905554	0.465687
C47	C	-0.510261	-0.905576	0.535328
C48	C	-0.510242	-0.068925	0.302331
C49	C	-0.510266	-0.138567	0.302313
C50	C	-0.510236	-0.905486	0.139476
C51	C	-0.509947	-0.905585	0.069835
C52	C	-0.442439	-0.945663	0.568070
C53	C	-0.442393	-0.945663	0.633505
C54	C	-0.510189	-0.905581	0.666197
C55	C	-0.578015	-0.865486	0.633447
C56	C	-0.578051	-0.865483	0.568013
C57	C	-0.605644	-0.900618	0.769865
C58	C	-0.605609	-0.900624	0.835298
C59	C	-0.510077	-0.905585	0.868017
C60	C	-0.414575	-0.910552	0.835296
C61	C	-0.414611	-0.910549	0.769862
C62	C	-0.510156	-0.905579	0.737149
C63	C	-0.442200	-0.945673	0.971711
C64	C	-0.442152	-0.945668	1.037148
C65	C	-0.577783	-0.865495	1.037089
C66	C	-0.577821	-0.865497	0.971654
C67	C	-0.510031	-0.905589	0.938969
H68	H	-0.919140	-0.807914	0.339631
N69	N	-0.369324	-0.988903	0.532817
H70	H	-0.326351	-1.014298	0.563492
H71	H	-0.320287	-0.963410	0.505645
H72	H	-0.336783	-0.914592	0.861935
N73	N	-0.708690	-0.895276	0.734577
H74	H	-0.769182	-0.892139	0.765233
H75	H	-0.718518	-0.933452	0.707464
H76	H	-0.919747	-0.923729	0.199971
N77	N	-0.907581	-0.871818	0.415294
H78	H	-0.860067	-0.909731	0.413397
H79	H	-0.969139	-0.880601	0.444051
N80	N	-1.109815	-0.872251	0.415890
H81	H	-1.082702	-0.914733	0.428882
H82	H	-1.189680	-0.872406	0.416258
N83	N	-0.369103	-0.988924	0.936455
H84	H	-0.379432	-0.982849	0.890034
H85	H	-0.385607	-1.033661	0.947942
H86	H	-0.633211	-0.832849	0.660069
N87	N	-0.651401	-0.136023	0.385452
H88	H	-0.635067	-0.147469	0.430234
H89	H	-0.727089	-0.147379	0.375577
N90	N	-0.528056	-0.337927	0.419563
H91	H	-0.596741	-0.349309	0.440786
H92	H	-0.526720	-0.291517	0.410942
N93	N	-0.910711	-0.990397	0.384573
H94	H	-0.973609	-0.998952	0.412372
H95	H	-0.866937	-0.955582	0.403143
H96	H	-0.918951	-1.008626	0.286718
H97	H	-0.633494	-0.263379	0.374846
H98	H	-1.100647	-0.838456	0.222960
H99	H	-1.102016	-0.919772	0.198434
N100	N	-1.109790	-1.020783	0.274880
H101	H	-1.156671	-1.000653	0.242358
H102	H	-1.151257	-1.053582	0.298371
N103	N	-0.369163	-0.271972	0.219131
H104	H	-0.385507	-0.260528	0.174350
H105	H	-0.379499	-0.318380	0.225239
N106	N	-0.492659	-0.337692	0.184931
H107	H	-0.553884	-0.349024	0.156823
H108	H	-0.423961	-0.349100	0.163733
N109	N	-0.369257	-0.539609	0.219045
H110	H	-0.293536	-0.551035	0.228847
H111	H	-0.379648	-0.493206	0.225146
H112	H	-0.387159	-0.978305	0.660168
H113	H	-0.494934	-0.465067	0.199808
H114	H	-0.387081	-0.144620	0.229740
H115	H	-1.101924	-0.986336	0.368000
H116	H	-0.633606	-0.667015	0.374726
H117	H	-0.633278	-0.832837	0.541355
H118	H	-0.387208	-0.666970	0.229592
H119	H	-1.101261	-0.808298	0.339719
H120	H	-0.336851	-0.914592	0.743223
N121	N	-0.651505	-0.539658	0.385336
H122	H	-0.694531	-0.570320	0.410667
H123	H	-0.700488	-0.512459	0.359785
H124	H	-0.386917	-0.978311	1.063805
N125	N	-0.528043	-0.473953	0.419531
H126	H	-0.533418	-0.443338	0.455298
H127	H	-0.463472	-0.501138	0.425405
H128	H	-0.633056	-0.832857	0.944995
N129	N	-0.908038	-0.825713	0.214508
H130	H	-0.859791	-0.807686	0.247510
H131	H	-0.969607	-0.796464	0.207406
H132	H	-0.632973	-0.832853	1.063706
H133	H	-0.683372	-0.896584	0.861935
