data_functionalizedCrystal
_audit_creation_method	'MofGen! by Chris Wilmer'
_symmetry_space_group_name_H-M	'P1'
_symmetry_Int_Tables_number	1
_symmetry_cell_setting	triclinic
loop_
_symmetry_equiv_pos_as_xyz
  x,y,z
_cell_length_a	19.288864
_cell_length_b	19.188930
_cell_length_c	17.766277
_cell_angle_alpha	89.988508
_cell_angle_beta	89.976791
_cell_angle_gamma	83.140512
loop_
_atom_site_label
_atom_site_type_symbol
_atom_site_fract_x
_atom_site_fract_y
_atom_site_fract_z
O1	O	0.921360	0.087099	-0.062844
O2	O	0.719100	0.098849	-0.062794
O3	O	0.826066	-0.008682	-0.062806
O4	O	0.814393	0.194630	-0.062832
O5	O	0.826048	-0.008688	0.062383
O6	O	0.719081	0.098843	0.062395
O7	O	0.921341	0.087094	0.062345
Cu8	Cu	0.820209	0.092968	0.073800
Cu9	Cu	0.820231	0.092974	-0.074250
O10	O	0.814374	0.194625	0.062356
C11	C	0.693214	0.098468	-0.000193
C12	C	0.616110	0.097333	-0.000173
C13	C	0.571419	0.160427	-0.000193
C14	C	0.498972	0.159361	-0.000201
C15	C	0.471219	0.095197	-0.000204
C16	C	0.515921	0.032095	-0.000180
C17	C	0.588366	0.033163	-0.000164
C18	C	0.362960	0.044759	-0.044082
C19	C	0.290515	0.043694	-0.044103
C20	C	0.247773	0.091900	-0.000249
C21	C	0.277483	0.141184	0.043614
C22	C	0.349929	0.142252	0.043630
C23	C	0.392665	0.094032	-0.000221
C24	C	0.124526	0.153843	-0.000277
C25	C	0.052078	0.152774	-0.000281
C26	C	0.069028	0.025506	-0.000267
C27	C	0.141475	0.026576	-0.000256
C28	C	0.169219	0.090747	-0.000265
C29	C	0.825679	-0.034696	-0.000209
C30	C	0.824544	-0.112200	-0.000202
C31	C	0.887309	-0.157129	-0.000214
C32	C	0.886243	-0.229953	-0.000226
C33	C	0.822408	-0.257844	-0.000211
C34	C	0.759636	-0.212906	-0.000203
C35	C	0.760704	-0.140084	-0.000199
N36	N	0.773608	-0.365848	0.042405
N37	N	0.772598	-0.435026	0.042403
C38	C	0.819187	-0.477253	-0.000225
N39	N	0.866835	-0.447689	-0.042841
N40	N	0.867847	-0.378504	-0.042836
C41	C	0.821243	-0.336807	-0.000216
C42	C	0.880800	-0.601146	-0.000251
C43	C	0.879731	-0.673971	-0.000268
C44	C	0.753122	-0.656922	-0.000237
C45	C	0.754193	-0.584099	-0.000228
C46	C	0.818034	-0.556216	-0.000231
C47	C	0.947227	0.087475	-0.000258
C48	C	1.024330	0.088609	-0.000283
C49	C	0.814762	0.220638	-0.000242
C50	C	0.815896	0.298143	-0.000253
N51	N	0.820199	0.092963	0.177931
N52	N	0.820247	0.092974	-0.178380
C53	C	0.867579	0.045372	0.217312
C54	C	0.867583	0.045368	0.296114
C55	C	0.820213	0.092969	0.335531
C56	C	0.772824	0.140564	0.296140
C57	C	0.772817	0.140561	0.217340
C58	C	0.810919	0.156585	0.460362
C59	C	0.810931	0.156589	0.539161
C60	C	0.820232	0.092977	0.578578
C61	C	0.829535	0.029359	0.539185
C62	C	0.829528	0.029356	0.460385
C63	C	0.820216	0.092977	0.420977
C64	C	0.867619	0.045378	0.703405
C65	C	0.867618	0.045374	0.782208
C66	C	0.772863	0.140575	0.782233
C67	C	0.772861	0.140573	0.703431
C68	C	0.820242	0.092976	0.664022
H69	H	0.177864	-0.024802	-0.000244
H70	H	0.015690	0.204155	-0.000293
H71	H	0.374116	0.182379	0.079348
O72	O	0.686492	-0.535640	-0.000201
H73	H	0.683951	-0.502046	-0.051225
O74	O	0.690784	-0.242984	-0.000187
H75	H	0.660625	-0.224924	0.050842
H76	H	0.930844	-0.710552	-0.000281
H77	H	0.462577	0.210742	-0.000215
H78	H	0.906158	0.006613	0.185228
H79	H	0.906167	0.006612	0.328185
H80	H	0.242684	0.180439	0.079324
O81	O	0.953943	-0.278421	-0.000232
H82	H	0.956463	-0.312016	0.050791
H83	H	0.046433	-0.026738	-0.000317
H84	H	0.709591	-0.103502	-0.000189
H85	H	0.837108	-0.022440	0.571277
O86	O	0.800902	0.225202	0.581647
H87	H	0.847288	0.229566	0.617513
O88	O	0.154453	0.223054	-0.000276
H89	H	0.212338	0.213197	-0.000272
H90	H	0.906199	0.006616	0.814274
O91	O	0.918711	-0.005964	0.660890
H92	H	0.951651	-0.039068	0.701517
H93	H	0.493320	-0.020148	-0.000193
H94	H	0.266331	0.003566	-0.079822
O95	O	0.409059	-0.007235	-0.091388
H96	H	0.376230	-0.041674	-0.121901
H97	H	0.624755	-0.018218	-0.000148
O98	O	0.956162	-0.127052	-0.000239
H99	H	0.999628	-0.170534	-0.000261
O100	O	0.949652	-0.571062	-0.000270
H101	H	0.993119	-0.614542	-0.000295
H102	H	0.701147	-0.679631	-0.000228
H103	H	0.837101	-0.022444	0.428315
O104	O	0.721770	0.191920	0.824734
H105	H	0.729737	0.183930	0.886146
O106	O	0.721766	0.191912	0.660947
H107	H	0.688830	0.225017	0.701592
O108	O	0.800893	0.225199	0.417850
H109	H	0.794438	0.269436	0.458478
O110	O	0.721735	0.191910	0.338647
H111	H	0.729705	0.183922	0.400059
H112	H	0.734234	0.179316	0.185275
H113	H	0.594003	0.212680	-0.000201
