data_functionalizedCrystal
_audit_creation_method	'MofGen! by Chris Wilmer'
_symmetry_space_group_name_H-M	'P1'
_symmetry_Int_Tables_number	1
_symmetry_cell_setting	triclinic
loop_
_symmetry_equiv_pos_as_xyz
  x,y,z
_cell_length_a	29.839131
_cell_length_b	25.639242
_cell_length_c	25.639233
_cell_angle_alpha	89.976717
_cell_angle_beta	90.019585
_cell_angle_gamma	89.963922
loop_
_atom_site_label
_atom_site_type_symbol
_atom_site_fract_x
_atom_site_fract_y
_atom_site_fract_z
Zn1	Zn	-0.178972	-0.799215	0.295755
Zn2	Zn	0.154361	-0.465882	0.629088
Zn3	Zn	0.487695	-0.132548	0.962421
Zn4	Zn	-0.254086	-0.799134	0.208318
Zn5	Zn	0.079247	-0.465801	0.541651
Zn6	Zn	0.412580	-0.132468	0.874984
Zn7	Zn	-0.178964	-0.711791	0.208317
Zn8	Zn	0.154369	-0.378458	0.541650
Zn9	Zn	0.487702	-0.045125	0.874984
Zn10	Zn	-0.254069	-0.711732	0.295706
Zn11	Zn	0.079265	-0.378399	0.629039
Zn12	Zn	0.412598	-0.045066	0.962373
O13	O	-0.216523	-0.755468	0.252024
O14	O	0.116810	-0.422135	0.585357
O15	O	0.450144	-0.088802	0.918691
O16	O	-0.188947	-0.872370	0.284177
O17	O	0.144387	-0.539036	0.617510
O18	O	0.477720	-0.205703	0.950843
O19	O	-0.244126	-0.787539	0.135153
O20	O	0.089208	-0.454206	0.468486
O21	O	0.422541	-0.120872	0.801819
O22	O	-0.116098	-0.723447	0.219936
O23	O	0.217235	-0.390114	0.553269
O24	O	0.550568	-0.056780	0.886603
O25	O	-0.244133	-0.872310	0.219937
O26	O	0.089200	-0.538977	0.553271
O27	O	0.422534	-0.205644	0.886604
O28	O	-0.116104	-0.787677	0.284176
O29	O	0.217229	-0.454343	0.617509
O30	O	0.550563	-0.121010	0.950843
O31	O	-0.188934	-0.723369	0.135152
O32	O	0.144400	-0.390035	0.468485
O33	O	0.477733	-0.056702	0.801819
O34	O	-0.188916	-0.638618	0.219889
O35	O	0.144417	-0.305285	0.553222
O36	O	0.477750	0.028048	0.886555
O37	O	-0.244103	-0.723346	0.368878
O38	O	0.089231	-0.390013	0.702211
O39	O	0.422564	-0.056680	1.035544
O40	O	-0.244095	-0.638575	0.284093
O41	O	0.089238	-0.305242	0.617426
O42	O	0.422571	0.028092	0.950760
O43	O	-0.188930	-0.787619	0.368914
O44	O	0.144404	-0.454286	0.702247
O45	O	0.477737	-0.120953	1.035580
O46	O	-0.316951	-0.787482	0.219890
O47	O	0.016382	-0.454149	0.553223
O48	O	0.349715	-0.120815	0.886557
O49	O	-0.316938	-0.723268	0.284094
O50	O	0.016395	-0.389935	0.617427
O51	O	0.349728	-0.056601	0.950760
C52	C	-0.216503	-0.619626	0.251986
C53	C	0.116830	-0.286292	0.585319
C54	C	0.450163	0.047041	0.918653
C55	C	-0.216506	-0.561512	0.251982
C56	C	0.116827	-0.228178	0.585315
C57	C	0.450161	0.105155	0.918649
C58	C	-0.187742	-0.310332	0.218637
C59	C	0.145592	0.023001	0.551971
C60	C	0.478925	0.356335	0.885304
C61	C	-0.187738	-0.364936	0.218632
C62	C	0.145596	-0.031603	0.551966
C63	C	0.478929	0.301730	0.885299
O64	O	-0.163256	-0.393185	0.190259
O65	O	0.170078	-0.059851	0.523593
O66	O	0.503411	0.273482	0.856926
N67	N	-0.216511	-0.392238	0.252003
N68	N	0.116822	-0.058905	0.585337
N69	N	0.450156	0.274429	0.918670
C70	C	-0.245287	-0.364932	0.285385
C71	C	0.088047	-0.031599	0.618718
C72	C	0.421380	0.301735	0.952052
O73	O	-0.269760	-0.393168	0.313770
O74	O	0.063574	-0.059835	0.647103
O75	O	0.396907	0.273499	0.980436
C76	C	-0.245288	-0.310329	0.285392
C77	C	0.088045	0.023005	0.618726
C78	C	0.421379	0.356338	0.952059
C79	C	-0.216516	-0.283030	0.252016
C80	C	0.116817	0.050303	0.585349
C81	C	0.450151	0.383636	0.918682
C82	C	-0.158972	-0.283033	0.185264
C83	C	0.174361	0.050300	0.518597
C84	C	0.507695	0.383633	0.851930
C85	C	-0.158977	-0.228433	0.185268
C86	C	0.174357	0.104900	0.518601
C87	C	0.507690	0.438234	0.851935
C88	C	-0.187751	-0.201131	0.218646
C89	C	0.145582	0.132202	0.551980
C90	C	0.478916	0.465536	0.885313
C91	C	-0.216521	-0.228430	0.252020
C92	C	0.116813	0.104904	0.585353
C93	C	0.450146	0.438237	0.918687
C94	C	-0.274061	-0.283024	0.318776
C95	C	0.059272	0.050309	0.652110
C96	C	0.392606	0.383643	0.985443
C97	C	-0.274060	-0.228417	0.318781
C98	C	0.059274	0.104916	0.652114
C99	C	0.392607	0.438250	0.985448
C100	C	-0.245288	-0.201118	0.285404
C101	C	0.088045	0.132215	0.618738
C102	C	0.421379	0.465548	0.952071
C103	C	-0.245300	-0.146527	0.285403
C104	C	0.088033	0.186806	0.618736
C105	C	0.421367	0.520139	0.952069
N106	N	-0.216527	-0.119226	0.252032
N107	N	0.116807	0.214108	0.585365
N108	N	0.450140	0.547441	0.918698
C109	C	-0.187752	-0.146528	0.218654
C110	C	0.145581	0.186806	0.551987
C111	C	0.478914	0.520139	0.885320
C112	C	-0.245281	-0.479603	0.285368
C113	C	0.088052	-0.146269	0.618701
C114	C	0.421386	0.187064	0.952035
C115	C	-0.245282	-0.534205	0.285358
C116	C	0.088051	-0.200872	0.618692
C117	C	0.421384	0.132462	0.952025
C118	C	-0.187733	-0.534206	0.218606
C119	C	0.145601	-0.200872	0.551940
C120	C	0.478934	0.132461	0.885273
C121	C	-0.187734	-0.479602	0.218613
C122	C	0.145599	-0.146269	0.551947
C123	C	0.478933	0.187064	0.885280
C124	C	-0.216508	-0.452301	0.251997
C125	C	0.116825	-0.118968	0.585330
C126	C	0.450159	0.214365	0.918664
C127	C	-0.187765	-0.031863	0.218665
C128	C	0.145569	0.301471	0.551998
C129	C	0.478902	0.634804	0.885332
C130	C	-0.187773	0.022743	0.218671
C131	C	0.145560	0.356076	0.552004
C132	C	0.478894	0.689409	0.885338
C133	C	-0.245321	0.022739	0.285425
C134	C	0.088013	0.356072	0.618758
C135	C	0.421346	0.689405	0.952092
C136	C	-0.245314	-0.031862	0.285417
C137	C	0.088019	0.301471	0.618751
C138	C	0.421352	0.634805	0.952084
C139	C	-0.216532	-0.059161	0.252036
C140	C	0.116801	0.274172	0.585369
C141	C	0.450134	0.607505	0.918702
O142	O	-0.269768	-0.118244	0.313763
O143	O	0.063565	0.215089	0.647096
O144	O	0.396899	0.548423	0.980429
O145	O	-0.163279	-0.118285	0.190279
O146	O	0.170054	0.215048	0.523612
O147	O	0.503388	0.548382	0.856945
C148	C	-0.333245	-0.755374	0.251998
C149	C	0.000088	-0.422041	0.585331
C150	C	0.333421	-0.088707	0.918665
C151	C	-0.383180	-0.755381	0.252004
C152	C	-0.049847	-0.422048	0.585338
C153	C	0.283487	-0.088715	0.918671
C154	C	-0.692817	-0.788965	0.218642
C155	C	-0.359484	-0.455632	0.551975
C156	C	-0.026151	-0.122299	0.885309
C157	C	-0.880490	-0.789030	0.218662
C158	C	-0.547157	-0.455696	0.551996
C159	C	-0.213824	-0.122363	0.885329
O160	O	-0.904750	-0.817509	0.190276
O161	O	-0.571417	-0.484176	0.523610
O162	O	-0.238084	-0.150843	0.856943
N163	N	-0.903965	-0.755577	0.252063
N164	N	-0.570632	-0.422243	0.585397
N165	N	-0.237298	-0.088910	0.918730
C166	C	-0.880518	-0.722108	0.285464
C167	C	-0.547185	-0.388774	0.618798
C168	C	-0.213852	-0.055441	0.952131
O169	O	-0.904791	-0.693659	0.313878
O170	O	-0.571458	-0.360326	0.647212
O171	O	-0.238124	-0.026992	0.980545
C172	C	-0.692846	-0.722046	0.285446
C173	C	-0.359513	-0.388713	0.618780
C174	C	-0.026179	-0.055379	0.952113
C175	C	-0.669374	-0.755498	0.252039
C176	C	-0.336041	-0.422164	0.585372
C177	C	-0.002707	-0.088831	0.918706
C178	C	-0.669345	-0.822415	0.185238
C179	C	-0.336012	-0.489081	0.518571
C180	C	-0.002679	-0.155748	0.851905
C181	C	-0.622430	-0.822396	0.185231
C182	C	-0.289097	-0.489063	0.518565
C183	C	0.044237	-0.155729	0.851898
C184	C	-0.598987	-0.788928	0.218628
C185	C	-0.265653	-0.455595	0.551962
C186	C	0.067680	-0.122262	0.885295
C187	C	-0.622459	-0.755479	0.252032
C188	C	-0.289125	-0.422146	0.585366
C189	C	0.044208	-0.088812	0.918699
C190	C	-0.669400	-0.688580	0.318849
C191	C	-0.336067	-0.355247	0.652183
C192	C	-0.002734	-0.021913	0.985516
C193	C	-0.622479	-0.688568	0.318843
C194	C	-0.289146	-0.355235	0.652176
C195	C	0.044187	-0.021902	0.985509
C196	C	-0.599007	-0.722020	0.285436
C197	C	-0.265674	-0.388687	0.618769
C198	C	0.067659	-0.055353	0.952102
C199	C	-0.552100	-0.721993	0.285423
C200	C	-0.218766	-0.388660	0.618756
C201	C	0.114567	-0.055326	0.952089
N202	N	-0.528625	-0.755446	0.252022
N203	N	-0.195292	-0.422113	0.585355
N204	N	0.138041	-0.088779	0.918688
C205	C	-0.552069	-0.788914	0.218624
C206	C	-0.218735	-0.455580	0.551958
C207	C	0.114598	-0.122247	0.885291
C208	C	-0.979049	-0.722141	0.285471
C209	C	-0.645716	-0.388808	0.618804
C210	C	-0.312382	-0.055475	0.952137
C211	C	-1.025967	-0.722156	0.285475
C212	C	-0.692633	-0.388823	0.618808
C213	C	-0.359300	-0.055489	0.952141
C214	C	-1.025936	-0.789079	0.218673
C215	C	-0.692602	-0.455746	0.552006
C216	C	-0.359269	-0.122413	0.885340
C217	C	-0.979017	-0.789062	0.218667
C218	C	-0.645684	-0.455728	0.552000
C219	C	-0.312350	-0.122395	0.885334
C220	C	-0.955574	-0.755595	0.252069
C221	C	-0.622241	-0.422261	0.585403
C222	C	-0.288908	-0.088928	0.918736
C223	C	-0.453543	-0.788872	0.218612
C224	C	-0.120210	-0.455539	0.551946
C225	C	0.213124	-0.122205	0.885279
C226	C	-0.406623	-0.788849	0.218607
C227	C	-0.073290	-0.455516	0.551941
C228	C	0.260043	-0.122182	0.885274
C229	C	-0.406658	-0.721928	0.285410
C230	C	-0.073325	-0.388595	0.618744
C231	C	0.260008	-0.055261	0.952077
C232	C	-0.453574	-0.721949	0.285414
C233	C	-0.120241	-0.388616	0.618747
C234	C	0.213093	-0.055282	0.952081
C235	C	-0.477015	-0.755425	0.252013
C236	C	-0.143682	-0.422092	0.585347
C237	C	0.189652	-0.088758	0.918680
O238	O	-0.527811	-0.693533	0.313798
O239	O	-0.194478	-0.360199	0.647131
O240	O	0.138856	-0.026866	0.980465
O241	O	-0.527788	-0.817366	0.190223
O242	O	-0.194455	-0.484033	0.523556
O243	O	0.138879	-0.150700	0.856890
C244	C	-0.739733	-0.788984	0.218649
C245	C	-0.406400	-0.455650	0.551982
C246	C	-0.073066	-0.122317	0.885315
C247	C	-0.763205	-0.755535	0.252053
C248	C	-0.429872	-0.422201	0.585386
C249	C	-0.096538	-0.088868	0.918719
C250	C	-0.739762	-0.722067	0.285450
C251	C	-0.406428	-0.388733	0.618783
C252	C	-0.073095	-0.055400	0.952116
C253	C	-0.810123	-0.755549	0.252057
C254	C	-0.476789	-0.422216	0.585390
C255	C	-0.143456	-0.088882	0.918723
C256	C	-0.833566	-0.789017	0.218659
C257	C	-0.500233	-0.455684	0.551993
C258	C	-0.166899	-0.122350	0.885326
C259	C	-0.810092	-0.822470	0.185258
C260	C	-0.476758	-0.489137	0.518592
C261	C	-0.143425	-0.155803	0.851925
C262	C	-0.763176	-0.822451	0.185251
C263	C	-0.429843	-0.489118	0.518585
C264	C	-0.096510	-0.155785	0.851918
C265	C	-0.763236	-0.688614	0.318851
C266	C	-0.429903	-0.355280	0.652184
C267	C	-0.096569	-0.021947	0.985518
C268	C	-0.810151	-0.688635	0.318855
C269	C	-0.476818	-0.355301	0.652188
C270	C	-0.143485	-0.021968	0.985521
C271	C	-0.833595	-0.722102	0.285457
C272	C	-0.500262	-0.388769	0.618791
C273	C	-0.166928	-0.055436	0.952124
C274	C	-0.099344	-0.755577	0.252061
C275	C	0.233989	-0.422244	0.585395
C276	C	0.567322	-0.088911	0.918728
C277	C	-0.049410	-0.755624	0.252077
C278	C	0.283923	-0.422290	0.585411
C279	C	0.617257	-0.088957	0.918744
C280	C	-0.216515	-0.755485	0.388397
C281	C	0.116818	-0.422152	0.721730
C282	C	0.450152	-0.088819	1.055064
C283	C	-0.216512	-0.755492	0.446511
C284	C	0.116822	-0.422159	0.779844
C285	C	0.450155	-0.088826	1.113178
C286	C	-0.216542	0.108159	0.252055
C287	C	0.116791	0.441492	0.585388
C288	C	0.450125	0.774825	0.918722
C289	C	-0.216548	0.050045	0.252049
C290	C	0.116786	0.383378	0.585383
C291	C	0.450119	0.716711	0.918716
C292	C	-0.216498	-0.755482	0.116181
C293	C	0.116835	-0.422148	0.449515
C294	C	0.450168	-0.088815	0.782848
C295	C	-0.216375	-0.755576	0.058068
C296	C	0.116958	-0.422242	0.391401
C297	C	0.450292	-0.088909	0.724734
C298	C	-0.187698	-0.789002	0.806899
C299	C	0.145636	-0.455669	1.140232
C300	C	0.478969	-0.122335	1.473565
C301	C	-0.187685	-0.789008	0.861503
C302	C	0.145648	-0.455675	1.194836
C303	C	0.478982	-0.122342	1.528170
O304	O	-0.163239	-0.817457	0.889760
O305	O	0.170094	-0.484124	1.223094
O306	O	0.503427	-0.150790	1.556427
N307	N	-0.216406	-0.755550	0.888794
N308	N	0.116927	-0.422217	1.222127
N309	N	0.450260	-0.088883	1.555460
C310	C	-0.245139	-0.722079	0.861477
C311	C	0.088195	-0.388746	1.194811
C312	C	0.421528	-0.055413	1.528144
O313	O	-0.269567	-0.693621	0.889704
O314	O	0.063767	-0.360287	1.223038
O315	O	0.397100	-0.026954	1.556371
C316	C	-0.245148	-0.722071	0.806874
C317	C	0.088185	-0.388737	1.140207
C318	C	0.421518	-0.055404	1.473541
C319	C	-0.216429	-0.755535	0.779586
C320	C	0.116905	-0.422202	1.112919
C321	C	0.450238	-0.088868	1.446253
C322	C	-0.158980	-0.822463	0.779610
C323	C	0.174354	-0.489130	1.112944
C324	C	0.507687	-0.155796	1.446277
C325	C	-0.158993	-0.822457	0.725010
C326	C	0.174340	-0.489124	1.058343
C327	C	0.507674	-0.155790	1.391677
C328	C	-0.187724	-0.788990	0.697697
C329	C	0.145609	-0.455657	1.031031
C330	C	0.478943	-0.122323	1.364364
C331	C	-0.216442	-0.755529	0.724985
C332	C	0.116892	-0.422196	1.058319
C333	C	0.450225	-0.088862	1.391652
C334	C	-0.273878	-0.688598	0.779559
C335	C	0.059455	-0.355264	1.112892
C336	C	0.392789	-0.021931	1.446225
C337	C	-0.273885	-0.688592	0.724952
C338	C	0.059448	-0.355258	1.058285
C339	C	0.392782	-0.021925	1.391618
C340	C	-0.245165	-0.722056	0.697664
C341	C	0.088168	-0.388722	1.030997
C342	C	0.421501	-0.055389	1.364330
C343	C	-0.245186	-0.722056	0.643072
C344	C	0.088148	-0.388723	0.976406
C345	C	0.421481	-0.055389	1.309739
N346	N	-0.216465	-0.755514	0.615782
N347	N	0.116869	-0.422181	0.949115
N348	N	0.450202	-0.088848	1.282448
C349	C	-0.187734	-0.788981	0.643094
C350	C	0.145600	-0.455648	0.976427
C351	C	0.478933	-0.122315	1.309761
C352	C	-0.245115	-0.722100	0.976148
C353	C	0.088218	-0.388766	1.309481
C354	C	0.421551	-0.055433	1.642815
C355	C	-0.245108	-0.722110	1.030750
C356	C	0.088225	-0.388777	1.364084
C357	C	0.421559	-0.055444	1.697417
C358	C	-0.187654	-0.789039	1.030772
C359	C	0.145679	-0.455706	1.364105
C360	C	0.479013	-0.122372	1.697439
C361	C	-0.187664	-0.789030	0.976169
C362	C	0.145670	-0.455697	1.309502
C363	C	0.479003	-0.122364	1.642835
C364	C	-0.216394	-0.755558	0.948857
C365	C	0.116939	-0.422224	1.282191
C366	C	0.450273	-0.088891	1.615524
C367	C	-0.187764	-0.788967	0.528429
C368	C	0.145570	-0.455633	0.861762
C369	C	0.478903	-0.122300	1.195096
C370	C	-0.187781	-0.788959	0.473824
C371	C	0.145553	-0.455626	0.807157
C372	C	0.478886	-0.122293	1.140490
C373	C	-0.245233	-0.722029	0.473807
C374	C	0.088100	-0.388696	0.807140
C375	C	0.421434	-0.055363	1.140473
C376	C	-0.245218	-0.722038	0.528407
C377	C	0.088116	-0.388705	0.861741
C378	C	0.421449	-0.055372	1.195074
C379	C	-0.216480	-0.755509	0.555717
C380	C	0.116854	-0.422175	0.889050
C381	C	0.450187	-0.088842	1.222384
O382	O	-0.269618	-0.693620	0.614780
O383	O	0.063716	-0.360287	0.948114
O384	O	0.397049	-0.026954	1.281447
O385	O	-0.163305	-0.817430	0.614860
O386	O	0.170028	-0.484097	0.948194
O387	O	0.503361	-0.150764	1.281527
H388	H	-0.164304	-0.457379	0.191437
H389	H	0.169029	-0.124046	0.524770
H390	H	0.502363	0.209287	0.858104
H391	H	-0.135581	-0.849716	0.801843
H392	H	0.197752	-0.516383	1.135176
H393	H	0.531086	-0.183049	1.468509
H394	H	-0.135605	-0.849706	0.702797
H395	H	0.197728	-0.516373	1.036130
H396	H	0.531061	-0.183039	1.369463
O397	O	-0.476308	-0.689437	0.317912
O398	O	-0.142975	-0.356103	0.651246
O399	O	0.190359	-0.022770	0.984579
C400	C	-0.471381	-0.623040	0.384152
C401	C	-0.138048	-0.289706	0.717486
C402	C	0.195285	0.043627	1.050819
C403	C	-0.445584	-0.659836	0.347377
C404	C	-0.112251	-0.326503	0.680711
C405	C	0.221083	0.006831	1.014044
H406	H	-0.446552	-0.599090	0.407976
H407	H	-0.113219	-0.265757	0.741310
H408	H	0.220115	0.067577	1.074643
H409	H	-0.493300	-0.647012	0.411557
H410	H	-0.159966	-0.313679	0.744890
H411	H	0.173367	0.019655	1.078223
H412	H	-0.493395	-0.595748	0.360117
H413	H	-0.160062	-0.262415	0.693451
H414	H	0.173271	0.070918	1.026784
H415	H	-0.423545	-0.687135	0.371370
H416	H	-0.090212	-0.353801	0.704703
H417	H	0.243121	-0.020468	1.038037
H418	H	-0.423694	-0.635831	0.319971
H419	H	-0.090360	-0.302498	0.653305
H420	H	0.242973	0.030835	0.986638
H421	H	-0.387514	-0.816089	0.191401
H422	H	-0.054180	-0.482756	0.524735
H423	H	0.279153	-0.149423	0.858068
O424	O	-0.159912	-0.821506	0.555010
O425	O	0.173422	-0.488173	0.888344
O426	O	0.506755	-0.154840	1.221677
C427	C	-0.153863	-0.892139	0.616646
C428	C	0.179470	-0.558806	0.949979
C429	C	0.512803	-0.225472	1.283313
C430	C	-0.185453	-0.855310	0.586585
C431	C	0.147881	-0.521977	0.919918
C432	C	0.481214	-0.188644	1.253251
H433	H	-0.174501	-0.919486	0.642173
H434	H	0.158832	-0.586153	0.975506
H435	H	0.492166	-0.252819	1.308839
H436	H	-0.130367	-0.868193	0.642240
H437	H	0.202967	-0.534860	0.975574
H438	H	0.536300	-0.201526	1.308907
H439	H	-0.133333	-0.916027	0.587746
H440	H	0.200000	-0.582694	0.921079
H441	H	0.533334	-0.249360	1.254413
H442	H	-0.206012	-0.831415	0.615447
H443	H	0.127321	-0.498081	0.948780
H444	H	0.460655	-0.164748	1.282114
H445	H	-0.208920	-0.879286	0.560982
H446	H	0.124414	-0.545953	0.894316
H447	H	0.457747	-0.212620	1.227649
O448	O	-0.599756	-0.656084	0.351364
O449	O	-0.266423	-0.322751	0.684697
O450	O	0.066910	0.010583	1.018031
C451	C	-0.585369	-0.630667	0.440276
C452	C	-0.252036	-0.297334	0.773609
C453	C	0.081297	0.035999	1.106942
C454	C	-0.611138	-0.667479	0.403506
C455	C	-0.277805	-0.334146	0.736839
C456	C	0.055529	-0.000812	1.070172
H457	H	-0.594555	-0.639874	0.482440
H458	H	-0.261221	-0.306541	0.815774
H459	H	0.072112	0.026792	1.149107
H460	H	-0.594641	-0.588509	0.431096
H461	H	-0.261307	-0.255175	0.764429
H462	H	0.072026	0.078158	1.097763
H463	H	-0.547806	-0.636391	0.434508
H464	H	-0.214473	-0.303058	0.767842
H465	H	0.118861	0.030276	1.101175
H466	H	-0.648707	-0.661802	0.409252
H467	H	-0.315374	-0.328469	0.742586
H468	H	0.017959	0.004865	1.075919
H469	H	-0.601829	-0.709624	0.412694
H470	H	-0.268496	-0.376291	0.746028
H471	H	0.064838	-0.042958	1.079361
H472	H	-0.688428	-0.849671	0.158042
H473	H	-0.355095	-0.516337	0.491375
H474	H	-0.021761	-0.183004	0.824708
H475	H	-0.268626	-0.694783	0.451559
H476	H	0.064707	-0.361450	0.784892
H477	H	0.398040	-0.028116	1.118226
O478	O	-0.301991	-0.309614	0.351155
O479	O	0.031342	0.023719	0.684489
O480	O	0.364675	0.357053	1.017822
C481	C	-0.327472	-0.393723	0.380780
C482	C	0.005862	-0.060389	0.714113
C483	C	0.339195	0.272944	1.047447
C484	C	-0.295826	-0.363676	0.344070
C485	C	0.037507	-0.030343	0.677404
C486	C	0.370841	0.302990	1.010737
H487	H	-0.322491	-0.437437	0.375073
H488	H	0.010842	-0.104104	0.708406
H489	H	0.344175	0.229230	1.041739
H490	H	-0.363697	-0.382996	0.371530
H491	H	-0.030364	-0.049663	0.704863
H492	H	0.302970	0.283671	1.038197
H493	H	-0.319632	-0.382973	0.422947
H494	H	0.013701	-0.049640	0.756280
H495	H	0.347034	0.283693	1.089613
H496	H	-0.303625	-0.374410	0.301892
H497	H	0.029708	-0.041076	0.635225
H498	H	0.363042	0.292257	0.968558
H499	H	-0.259610	-0.374405	0.353365
H500	H	0.073723	-0.041072	0.686699
H501	H	0.407056	0.292261	1.020032
O502	O	-0.273249	-0.560639	0.317826
O503	O	0.060084	-0.227306	0.651159
O504	O	0.393418	0.106028	0.984492
C505	C	-0.330349	-0.554860	0.384013
C506	C	0.002984	-0.221527	0.717346
C507	C	0.336318	0.111807	1.050680
C508	C	-0.298693	-0.524862	0.347275
C509	C	0.034640	-0.191529	0.680608
C510	C	0.367973	0.141805	1.013942
H511	H	-0.350936	-0.525948	0.407824
H512	H	-0.017602	-0.192614	0.741158
H513	H	0.315731	0.140719	1.074491
H514	H	-0.309780	-0.580436	0.411431
H515	H	0.023553	-0.247102	0.744764
H516	H	0.356887	0.086231	1.078098
H517	H	-0.353789	-0.580412	0.359950
H518	H	-0.020456	-0.247078	0.693283
H519	H	0.312877	0.086255	1.026616
H520	H	-0.275247	-0.499282	0.371296
H521	H	0.058087	-0.165949	0.704629
H522	H	0.391420	0.167385	1.037962
H523	H	-0.319290	-0.499319	0.319855
H524	H	0.014043	-0.165986	0.653189
H525	H	0.347376	0.167347	0.986522
H526	H	-0.387563	-0.694677	0.312600
H527	H	-0.054230	-0.361344	0.645934
H528	H	0.279103	-0.028011	0.979267
O529	O	-0.159721	-0.821551	0.949744
O530	O	0.173613	-0.488218	1.283078
O531	O	0.506946	-0.154884	1.616411
C532	C	-0.102754	-0.887958	0.955544
C533	C	0.230579	-0.554625	1.288877
C534	C	0.563913	-0.221292	1.622211
C535	C	-0.134371	-0.851146	0.985531
C536	C	0.198962	-0.517813	1.318864
C537	C	0.532296	-0.184480	1.652197
H538	H	-0.082257	-0.911904	0.984464
H539	H	0.251076	-0.578570	1.317797
H540	H	0.584410	-0.245237	1.651131
H541	H	-0.079231	-0.863998	0.929994
H542	H	0.254102	-0.530665	1.263327
H543	H	0.587435	-0.197332	1.596661
H544	H	-0.123393	-0.915253	0.929968
H545	H	0.209940	-0.581919	1.263301
H546	H	0.543274	-0.248586	1.596635
H547	H	-0.113768	-0.823845	1.011135
H548	H	0.219565	-0.490512	1.344468
H549	H	0.552899	-0.157178	1.677802
H550	H	-0.157895	-0.875139	1.011048
H551	H	0.175439	-0.541806	1.344381
H552	H	0.508772	-0.208472	1.677714
H553	H	-0.744069	-0.849691	0.158048
H554	H	-0.410735	-0.516358	0.491382
H555	H	-0.077402	-0.183024	0.824715
H556	H	-0.829258	-0.661390	0.346058
H557	H	-0.495925	-0.328056	0.679392
H558	H	-0.162592	0.005277	1.012725
H559	H	-0.164343	0.044967	0.191490
H560	H	0.168990	0.378300	0.524823
H561	H	0.502324	0.711634	0.858157
O562	O	-0.159690	-0.821470	1.057331
O563	O	0.173643	-0.488137	1.390664
O564	O	0.506976	-0.154804	1.723997
C565	C	-0.099041	-0.828553	1.119013
C566	C	0.234292	-0.495219	1.452346
C567	C	0.567625	-0.161886	1.785680
C568	C	-0.130674	-0.791768	1.088959
C569	C	0.202660	-0.458435	1.422292
C570	C	0.535993	-0.125102	1.755626
H571	H	-0.075580	-0.804554	1.144600
H572	H	0.257754	-0.471221	1.477933
H573	H	0.591087	-0.137887	1.811267
H574	H	-0.078480	-0.852457	1.090155
H575	H	0.254853	-0.519124	1.423489
H576	H	0.588186	-0.185790	1.756822
H577	H	-0.119672	-0.855887	1.144562
H578	H	0.213662	-0.522553	1.477895
H579	H	0.546995	-0.189220	1.811229
H580	H	-0.110078	-0.764403	1.063409
H581	H	0.223255	-0.431069	1.396743
H582	H	0.556589	-0.097736	1.730076
H583	H	-0.151236	-0.767901	1.117845
H584	H	0.182097	-0.434567	1.451178
H585	H	0.515431	-0.101234	1.784512
H586	H	-0.829187	-0.849719	0.158064
H587	H	-0.495854	-0.516386	0.491397
H588	H	-0.162521	-0.183052	0.824730
O589	O	-0.599582	-0.854920	0.152856
O590	O	-0.266249	-0.521587	0.486190
O591	O	0.067085	-0.188254	0.819523
C592	C	-0.546586	-0.925526	0.145897
C593	C	-0.213252	-0.592193	0.479230
C594	C	0.120081	-0.258860	0.812564
C595	C	-0.572421	-0.888714	0.182620
C596	C	-0.239088	-0.555381	0.515953
C597	C	0.094245	-0.222047	0.849286
H598	H	-0.524627	-0.952865	0.169946
H599	H	-0.191294	-0.619532	0.503280
H600	H	0.142039	-0.286198	0.836613
H601	H	-0.524618	-0.901567	0.118534
H602	H	-0.191285	-0.568234	0.451867
H603	H	0.142049	-0.234901	0.785201
H604	H	-0.571414	-0.949424	0.122020
H605	H	-0.238081	-0.616091	0.455353
H606	H	0.095252	-0.282757	0.788687
H607	H	-0.547625	-0.864808	0.206531
H608	H	-0.214292	-0.531475	0.539864
H609	H	0.119042	-0.198141	0.873197
H610	H	-0.594396	-0.912703	0.209948
H611	H	-0.261062	-0.579370	0.543282
H612	H	0.072271	-0.246036	0.876615
O613	O	-0.301734	-0.656021	0.698402
O614	O	0.031599	-0.322688	1.031735
O615	O	0.364933	0.010646	1.365068
C616	C	-0.307792	-0.585433	0.636716
C617	C	0.025542	-0.252100	0.970049
C618	C	0.358875	0.081233	1.303383
C619	C	-0.276200	-0.622276	0.666757
C620	C	0.057133	-0.288943	1.000090
C621	C	0.390467	0.044391	1.333423
H622	H	-0.287161	-0.558149	0.611116
H623	H	0.046173	-0.224815	0.944449
H624	H	0.379506	0.108518	1.277782
H625	H	-0.328305	-0.561485	0.665583
H626	H	0.005028	-0.228151	0.998916
H627	H	0.338362	0.105182	1.332250
H628	H	-0.331304	-0.609422	0.611182
H629	H	0.002030	-0.276089	0.944515
H630	H	0.335363	0.057245	1.277849
H631	H	-0.252661	-0.598328	0.692292
H632	H	0.080673	-0.264995	1.025625
H633	H	0.414006	0.068339	1.358958
H634	H	-0.255718	-0.646227	0.637862
H635	H	0.077615	-0.312893	0.971195
H636	H	0.410949	0.020440	1.304529
O637	O	-0.302052	-0.201979	0.351230
O638	O	0.031281	0.131355	0.684563
O639	O	0.364614	0.464688	1.017896
C640	C	-0.359104	-0.207746	0.417471
C641	C	-0.025771	0.125587	0.750804
C642	C	0.307562	0.458921	1.084138
C643	C	-0.327435	-0.237751	0.380741
C644	C	0.005899	0.095583	0.714075
C645	C	0.339232	0.428916	1.047408
H646	H	-0.379627	-0.236654	0.441349
H647	H	-0.046294	0.096679	0.774682
H648	H	0.287039	0.430012	1.108015
H649	H	-0.382600	-0.182168	0.393450
H650	H	-0.049267	0.151166	0.726784
H651	H	0.284067	0.484499	1.060117
H652	H	-0.338505	-0.182197	0.444832
H653	H	-0.005172	0.151137	0.778165
H654	H	0.328162	0.484470	1.111499
H655	H	-0.347998	-0.263328	0.353373
H656	H	-0.014665	0.070005	0.686706
H657	H	0.318669	0.403338	1.020040
H658	H	-0.303938	-0.263296	0.404794
H659	H	0.029395	0.070038	0.738128
H660	H	0.362729	0.403371	1.071461
O661	O	-0.273024	-0.689558	1.057174
O662	O	0.060309	-0.356225	1.390507
O663	O	0.393642	-0.022892	1.723841
C664	C	-0.330031	-0.623197	1.051374
C665	C	0.003303	-0.289863	1.384708
C666	C	0.336636	0.043470	1.718041
C667	C	-0.298432	-0.660030	1.021388
C668	C	0.034901	-0.326697	1.354721
C669	C	0.368234	0.006636	1.688054
H670	H	-0.350588	-0.599321	1.022454
H671	H	-0.017255	-0.265988	1.355787
H672	H	0.316079	0.067345	1.689121
H673	H	-0.309419	-0.595842	1.076917
H674	H	0.023914	-0.262509	1.410250
H675	H	0.357248	0.070824	1.743584
H676	H	-0.353501	-0.647189	1.076957
H677	H	-0.020168	-0.313855	1.410291
H678	H	0.313165	0.019478	1.743624
H679	H	-0.274955	-0.636081	0.995776
H680	H	0.058378	-0.302747	1.329110
H681	H	0.391711	0.030586	1.662443
H682	H	-0.319072	-0.687386	0.995878
H683	H	0.014261	-0.354053	1.329211
H684	H	0.347595	-0.020720	1.662544
O685	O	-0.301839	-0.656113	0.805996
O686	O	0.031494	-0.322779	1.139330
O687	O	0.364827	0.010554	1.472663
C688	C	-0.378253	-0.630671	0.822685
C689	C	-0.044920	-0.297337	1.156018
C690	C	0.288414	0.035996	1.489351
C691	C	-0.346635	-0.667488	0.792707
C692	C	-0.013301	-0.334155	1.126040
C693	C	0.320032	-0.000821	1.459373
H694	H	-0.414477	-0.639862	0.811959
H695	H	-0.081144	-0.306528	1.145293
H696	H	0.252190	0.026805	1.478626
H697	H	-0.370391	-0.588513	0.811919
H698	H	-0.037058	-0.255179	1.145252
H699	H	0.296276	0.078154	1.478585
H700	H	-0.373296	-0.636405	0.866403
H701	H	-0.039963	-0.303071	1.199736
H702	H	0.293370	0.030262	1.533070
H703	H	-0.351574	-0.661801	0.748981
H704	H	-0.018240	-0.328467	1.082315
H705	H	0.315093	0.004866	1.415648
H706	H	-0.354505	-0.709633	0.803516
H707	H	-0.021171	-0.376299	1.136849
H708	H	0.312162	-0.042966	1.470182
H709	H	-0.135547	-0.206211	0.158089
H710	H	0.197786	0.127122	0.491423
H711	H	0.531119	0.460455	0.824756
O712	O	-0.740536	-0.656049	0.351309
O713	O	-0.407203	-0.322716	0.684642
O714	O	-0.073870	0.010617	1.017975
C715	C	-0.745530	-0.589689	0.417582
C716	C	-0.412197	-0.256355	0.750915
C717	C	-0.078863	0.076978	1.084248
C718	C	-0.771290	-0.626539	0.380842
C719	C	-0.437957	-0.293206	0.714176
C720	C	-0.104624	0.040128	1.047509
H721	H	-0.770383	-0.565828	0.441477
H722	H	-0.437050	-0.232494	0.774810
H723	H	-0.103717	0.100839	1.108144
H724	H	-0.723611	-0.562322	0.393568
H725	H	-0.390278	-0.228989	0.726901
H726	H	-0.056944	0.104345	1.060234
H727	H	-0.723520	-0.613667	0.444926
H728	H	-0.390186	-0.280334	0.778259
H729	H	-0.056853	0.053000	1.111592
H730	H	-0.793325	-0.602603	0.353491
H731	H	-0.459992	-0.269270	0.686824
H732	H	-0.126658	0.064064	1.020158
H733	H	-0.793181	-0.653907	0.404889
H734	H	-0.459848	-0.320574	0.738222
H735	H	-0.126514	0.012760	1.071556
H736	H	-0.268746	-0.054090	0.312591
H737	H	0.064587	0.279244	0.645925
H738	H	0.397921	0.612577	0.979258
H739	H	-0.164302	-0.556445	0.191429
H740	H	0.169031	-0.223111	0.524762
H741	H	0.502365	0.110222	0.858096
O742	O	-0.273133	-0.689487	0.554837
O743	O	0.060200	-0.356153	0.888170
O744	O	0.393534	-0.022820	1.221504
C745	C	-0.330140	-0.623125	0.549046
C746	C	0.003194	-0.289791	0.882379
C747	C	0.336527	0.043542	1.215713
C748	C	-0.298545	-0.659958	0.519055
C749	C	0.034789	-0.326625	0.852388
C750	C	0.368122	0.006708	1.185721
H751	H	-0.350700	-0.599249	0.520129
H752	H	-0.017367	-0.265916	0.853462
H753	H	0.315967	0.067417	1.186796
H754	H	-0.309525	-0.595771	0.574586
H755	H	0.023808	-0.262437	0.907919
H756	H	0.357141	0.070896	1.241253
H757	H	-0.353608	-0.647117	0.574632
H758	H	-0.020274	-0.313783	0.907966
H759	H	0.313059	0.019550	1.241299
H760	H	-0.275070	-0.636009	0.493440
H761	H	0.058263	-0.302675	0.826773
H762	H	0.391596	0.030658	1.160107
H763	H	-0.319187	-0.687314	0.493548
H764	H	0.014146	-0.353981	0.826881
H765	H	0.347479	-0.020647	1.160214
O766	O	-0.159795	-0.058295	0.186186
O767	O	0.173538	0.275038	0.519519
O768	O	0.506871	0.608371	0.852852
C769	C	-0.102705	-0.052518	0.119990
C770	C	0.230628	0.280815	0.453323
C771	C	0.563961	0.614148	0.786656
C772	C	-0.134360	-0.022519	0.156741
C773	C	0.198973	0.310814	0.490074
C774	C	0.532307	0.644148	0.823408
H775	H	-0.082126	-0.023606	0.096182
H776	H	0.251207	0.309727	0.429515
H777	H	0.584541	0.643060	0.762849
H778	H	-0.123274	-0.078038	0.092569
H779	H	0.210059	0.255295	0.425902
H780	H	0.543392	0.588628	0.759236
H781	H	-0.079258	-0.078125	0.144042
H782	H	0.254075	0.255208	0.477375
H783	H	0.587409	0.588541	0.810709
H784	H	-0.157814	0.003116	0.132731
H785	H	0.175520	0.336450	0.466064
H786	H	0.508853	0.669783	0.799398
H787	H	-0.113763	0.002968	0.184164
H788	H	0.219570	0.336301	0.517497
H789	H	0.552903	0.669635	0.850830
H790	H	-0.959965	-0.694887	0.312672
H791	H	-0.626632	-0.361554	0.646005
H792	H	-0.293298	-0.028221	0.979338
H793	H	-0.688503	-0.661337	0.346051
H794	H	-0.355170	-0.328004	0.679384
H795	H	-0.021836	0.005329	1.012717
H796	H	-0.164393	-0.816212	0.451608
H797	H	0.168940	-0.482879	0.784941
H798	H	0.502274	-0.149545	1.118275
H799	H	-0.135538	-0.305257	0.158083
H800	H	0.197796	0.028076	0.491416
H801	H	0.531129	0.361410	0.824750
H802	H	-0.268716	-0.457378	0.312552
H803	H	0.064617	-0.124044	0.645885
H804	H	0.397951	0.209289	0.979218
H805	H	-0.472623	-0.816133	0.191416
H806	H	-0.139290	-0.482799	0.524749
H807	H	0.194044	-0.149466	0.858082
O808	O	-0.273053	-0.689661	0.949561
O809	O	0.060280	-0.356328	1.282895
O810	O	0.393614	-0.022995	1.616228
C811	C	-0.333743	-0.682566	0.887935
C812	C	-0.000409	-0.349233	1.221268
C813	C	0.332924	-0.015899	1.554601
C814	C	-0.302126	-0.719359	0.917999
C815	C	0.031208	-0.386026	1.251332
C816	C	0.364541	-0.052693	1.584665
H817	H	-0.357262	-0.706563	0.862417
H818	H	-0.023929	-0.373229	1.195751
H819	H	0.309405	-0.039896	1.529084
H820	H	-0.313147	-0.655247	0.862330
H821	H	0.020186	-0.321914	1.195664
H822	H	0.353520	0.011420	1.528997
H823	H	-0.354247	-0.658645	0.916832
H824	H	-0.020914	-0.325312	1.250166
H825	H	0.312420	0.008021	1.583499
H826	H	-0.281614	-0.743314	0.889139
H827	H	0.051719	-0.409981	1.222472
H828	H	0.385052	-0.076647	1.555805
H829	H	-0.322747	-0.746644	0.943611
H830	H	0.010586	-0.413310	1.276944
H831	H	0.343920	-0.079977	1.610278
H832	H	-0.959909	-0.816301	0.191464
H833	H	-0.626575	-0.482968	0.524798
H834	H	-0.293242	-0.149634	0.858131
H835	H	-1.045031	-0.816330	0.191480
H836	H	-0.711698	-0.482997	0.524813
H837	H	-0.378365	-0.149663	0.858147
H838	H	-1.045074	-0.694912	0.312673
H839	H	-0.711740	-0.361578	0.646006
H840	H	-0.378407	-0.028245	0.979340
O841	O	-0.273228	0.049346	0.317831
O842	O	0.060105	0.382679	0.651165
O843	O	0.393439	0.716012	0.984498
C844	C	-0.298746	0.133473	0.347399
C845	C	0.034588	0.466806	0.680732
C846	C	0.367921	0.800139	1.014066
C847	C	-0.267114	0.103404	0.310678
C848	C	0.066220	0.436737	0.644011
C849	C	0.399553	0.770070	0.977344
H850	H	-0.293820	0.177183	0.341620
H851	H	0.039513	0.510517	0.674954
H852	H	0.372847	0.843850	1.008287
H853	H	-0.290906	0.122751	0.389585
H854	H	0.042427	0.456084	0.722919
H855	H	0.375761	0.789418	1.056252
H856	H	-0.334955	0.122738	0.338151
H857	H	-0.001622	0.456071	0.671484
H858	H	0.331711	0.789405	1.004817
H859	H	-0.230893	0.114122	0.319879
H860	H	0.102440	0.447455	0.653212
H861	H	0.435773	0.780789	0.986546
H862	H	-0.274992	0.114128	0.268502
H863	H	0.058341	0.447461	0.601836
H864	H	0.391675	0.780794	0.935169
