data_functionalizedCrystal
_audit_creation_method	'MofGen! by Chris Wilmer'
_symmetry_space_group_name_H-M	'P1'
_symmetry_Int_Tables_number	1
_symmetry_cell_setting	triclinic
loop_
_symmetry_equiv_pos_as_xyz
  x,y,z
_cell_length_a	16.109318
_cell_length_b	10.489716
_cell_length_c	15.186229
_cell_angle_alpha	90.000291
_cell_angle_beta	90.000224
_cell_angle_gamma	83.998849
loop_
_atom_site_label
_atom_site_type_symbol
_atom_site_fract_x
_atom_site_fract_y
_atom_site_fract_z
O1	O	1.104123	0.164054	-0.073147
O2	O	0.862188	0.184434	-0.073164
O3	O	0.988671	-0.011435	-0.073159
O4	O	0.977640	0.359923	-0.073153
O5	O	0.988663	-0.011438	0.073299
O6	O	0.862179	0.184431	0.073293
O7	O	1.104115	0.164051	0.073310
Zn8	Zn	0.983146	0.174241	0.096555
Zn9	Zn	0.983157	0.174245	-0.096409
O10	O	0.977631	0.359921	0.073304
C11	C	0.831204	0.183603	0.000062
C12	C	0.738894	0.181117	0.000055
C13	C	0.987838	-0.058957	0.000067
C14	C	0.985358	-0.200552	0.000059
C15	C	0.439776	0.173087	-0.079763
C16	C	0.526512	0.175415	-0.079768
C17	C	0.526521	0.175394	0.079907
C18	C	0.439788	0.173057	0.079912
C19	C	0.396417	0.171910	0.000074
C20	C	0.569886	0.176575	0.000064
C21	C	0.663928	0.179099	0.000059
C22	C	0.302369	0.169384	0.000079
C23	C	1.062922	-0.299344	0.000073
C24	C	1.021940	-0.376112	-0.072139
C25	C	1.021914	-0.376079	0.072256
C26	C	0.944409	-0.275456	-0.072212
C27	C	0.944394	-0.275417	0.072248
C28	C	0.903355	-0.352136	0.000019
C29	C	1.135099	0.164882	0.000082
C30	C	1.227409	0.167369	0.000083
C31	C	0.978464	0.407442	0.000076
C32	C	0.980944	0.549038	0.000079
N33	N	0.983144	0.174238	0.228247
N34	N	0.983165	0.174238	-0.228102
C35	C	1.039170	0.087536	0.453973
C36	C	1.039173	0.087533	0.546162
C37	C	0.927133	0.260944	0.546167
C38	C	0.927127	0.260940	0.453979
C39	C	0.983150	0.174237	0.407884
C40	C	0.983159	0.174238	0.592262
C41	C	0.983161	0.174236	0.692218
C42	C	0.983147	0.174238	0.307922
H43	H	0.404466	0.172151	-0.144772
N44	N	0.818662	-0.381596	-0.000021
N45	N	0.792133	-0.444401	0.061993
H46	H	0.732320	-0.465211	0.061962
N47	N	1.096395	-0.001022	0.593249
N48	N	1.148239	0.039461	0.644698
H49	H	1.188650	-0.023089	0.677956
H50	H	0.911676	-0.231428	0.133297
H51	H	0.911687	-0.231679	-0.133329
H52	H	1.054669	-0.420025	0.133304
N53	N	1.096349	-0.001110	0.406901
N54	N	1.146328	-0.078568	0.448068
H55	H	1.186693	-0.141209	0.414827
H56	H	0.881521	0.331537	0.583706
N57	N	0.570800	0.176590	-0.161323
N58	N	0.568232	0.086477	-0.214779
H59	H	0.599509	0.087301	-0.272382
N60	N	0.869889	0.349508	0.406907
N61	N	0.819876	0.426918	0.448071
H62	H	0.779451	0.489464	0.414828
H63	H	0.404484	0.172098	0.144929
N64	N	0.570838	0.176565	0.161448
N65	N	0.648277	0.178652	0.161434
H66	H	0.679576	0.179480	0.219024
N67	N	1.147560	-0.269618	-0.000017
N68	N	1.195058	-0.306485	-0.062115
H69	H	1.254833	-0.285491	-0.062182
H70	H	1.054686	-0.420078	-0.133185
