data_functionalizedCrystal
_audit_creation_method	'MofGen! by Chris Wilmer'
_symmetry_space_group_name_H-M	'P1'
_symmetry_Int_Tables_number	1
_symmetry_cell_setting	triclinic
loop_
_symmetry_equiv_pos_as_xyz
  x,y,z
_cell_length_a	14.044191
_cell_length_b	16.109301
_cell_length_c	15.186229
_cell_angle_alpha	89.994299
_cell_angle_beta	90.001526
_cell_angle_gamma	91.673371
loop_
_atom_site_label
_atom_site_type_symbol
_atom_site_fract_x
_atom_site_fract_y
_atom_site_fract_z
O1	O	1.257646	-0.200464	0.073191
O2	O	1.507646	0.049536	0.323191
O3	O	1.757646	0.299536	0.573191
O4	O	2.007646	0.549536	0.823191
O5	O	0.981678	-0.193225	0.073202
O6	O	1.231678	0.056775	0.323202
O7	O	1.481678	0.306775	0.573202
O8	O	1.731678	0.556775	0.823202
O9	O	1.127243	-0.076378	0.073187
O10	O	1.377243	0.173622	0.323187
O11	O	1.627243	0.423622	0.573187
O12	O	1.877243	0.673622	0.823187
O13	O	1.112081	-0.317311	0.073206
O14	O	1.362081	-0.067311	0.323206
O15	O	1.612081	0.182689	0.573206
O16	O	1.862081	0.432689	0.823206
O17	O	1.127232	-0.076374	-0.073270
O18	O	1.377232	0.173626	0.176730
O19	O	1.627232	0.423626	0.426730
O20	O	1.877232	0.673626	0.676730
O21	O	0.981667	-0.193221	-0.073255
O22	O	1.231667	0.056779	0.176745
O23	O	1.481667	0.306779	0.426745
O24	O	1.731667	0.556779	0.676745
O25	O	1.257635	-0.200460	-0.073266
O26	O	1.507635	0.049540	0.176734
O27	O	1.757635	0.299540	0.426734
O28	O	2.007635	0.549540	0.676734
Zn29	Zn	1.119649	-0.196840	-0.096514
Zn30	Zn	1.369649	0.053160	0.153486
Zn31	Zn	1.619649	0.303160	0.403486
Zn32	Zn	1.869649	0.553160	0.653486
Zn33	Zn	1.119664	-0.196845	0.096450
Zn34	Zn	1.369664	0.053155	0.346450
Zn35	Zn	1.619664	0.303155	0.596450
Zn36	Zn	1.869664	0.553155	0.846450
O37	O	1.112070	-0.317308	-0.073251
O38	O	1.362070	-0.067308	0.176749
O39	O	1.612070	0.182692	0.426749
O40	O	1.862070	0.432692	0.676749
C41	C	0.946359	-0.190056	-0.000025
C42	C	1.196359	0.059944	0.249975
C43	C	1.446359	0.309944	0.499975
C44	C	1.696359	0.559944	0.749975
C45	C	0.841136	-0.180610	-0.000021
C46	C	1.091136	0.069390	0.249979
C47	C	1.341136	0.319390	0.499979
C48	C	1.591136	0.569390	0.749979
C49	C	0.590834	-0.230335	-0.000026
C50	C	0.840834	0.019665	0.249974
C51	C	1.090834	0.269665	0.499974
C52	C	1.340834	0.519665	0.749974
C53	C	0.648484	-0.163354	-0.000030
C54	C	0.898484	0.086646	0.249970
C55	C	1.148484	0.336646	0.499970
C56	C	1.398484	0.586646	0.749970
C57	C	0.755686	-0.172958	-0.000025
C58	C	1.005686	0.077042	0.249975
C59	C	1.255686	0.327042	0.499975
C60	C	1.505686	0.577042	0.749975
C61	C	0.483623	-0.220733	-0.000031
C62	C	0.733623	0.029267	0.249969
C63	C	0.983623	0.279267	0.499969
C64	C	1.233623	0.529267	0.749969
C65	C	1.126623	-0.045355	-0.000042
C66	C	1.376623	0.204645	0.249958
C67	C	1.626623	0.454645	0.499958
C68	C	1.876623	0.704645	0.749958
C69	C	1.124782	0.047077	-0.000043
C70	C	1.374782	0.297077	0.249957
C71	C	1.624782	0.547077	0.499957
C72	C	1.874782	0.797077	0.749957
C73	C	1.292954	-0.203629	-0.000037
C74	C	1.542954	0.046371	0.249963
C75	C	1.792954	0.296371	0.499963
C76	C	2.042954	0.546371	0.749963
C77	C	1.398177	-0.213075	-0.000035
C78	C	1.648177	0.036925	0.249965
C79	C	1.898177	0.286925	0.499965
C80	C	2.148177	0.536925	0.749965
C81	C	1.112690	-0.348330	-0.000020
C82	C	1.362690	-0.098330	0.249980
C83	C	1.612690	0.151670	0.499980
C84	C	1.862690	0.401670	0.749980
C85	C	1.114531	-0.440762	-0.000013
C86	C	1.364531	-0.190762	0.249987
C87	C	1.614531	0.059238	0.499987
C88	C	1.864531	0.309238	0.749987
C89	C	1.206876	0.263240	-0.000032
C90	C	1.456876	0.513240	0.249968
C91	C	1.706876	0.763240	0.499968
C92	C	1.956876	1.013240	0.749968
C93	C	1.205138	0.350089	-0.000025
C94	C	1.455138	0.600089	0.249975
C95	C	1.705138	0.850089	0.499975
C96	C	1.955138	1.100089	0.749975
C97	C	1.032431	0.343068	-0.000021
C98	C	1.282431	0.593068	0.249979
C99	C	1.532431	0.843068	0.499979
C100	C	1.782431	1.093068	0.749979
C101	C	1.034169	0.256220	-0.000022
C102	C	1.284169	0.506220	0.249978
C103	C	1.534169	0.756220	0.499978
C104	C	1.784169	1.006220	0.749978
C105	C	1.121395	0.216308	-0.000032
C106	C	1.371395	0.466308	0.249968
C107	C	1.621395	0.716308	0.499968
C108	C	1.871395	0.966308	0.749968
C109	C	1.117918	0.390006	-0.000024
C110	C	1.367918	0.640006	0.249976
C111	C	1.617918	0.890006	0.499976
C112	C	1.867918	1.140006	0.749976
C113	C	1.116034	0.484173	-0.000016
C114	C	1.366034	0.734173	0.249984
C115	C	1.616034	0.984173	0.499984
C116	C	1.866034	1.234173	0.749984
C117	C	1.123280	0.122136	-0.000039
C118	C	1.373280	0.372136	0.249961
C119	C	1.623280	0.622136	0.499961
C120	C	1.873280	0.872136	0.749961
N121	N	1.119646	-0.196837	-0.228207
N122	N	1.369646	0.053163	0.021793
N123	N	1.619646	0.303163	0.271793
N124	N	1.869646	0.553163	0.521793
C125	C	1.184128	-0.145118	-0.546131
C126	C	1.434128	0.104882	-0.296131
C127	C	1.684128	0.354882	-0.046131
C128	C	1.934128	0.604882	0.203869
C129	C	1.184126	-0.145118	-0.453942
C130	C	1.434126	0.104882	-0.203942
C131	C	1.684126	0.354882	0.046058
C132	C	1.934126	0.604882	0.296058
C133	C	1.055189	-0.248568	-0.453939
C134	C	1.305189	0.001432	-0.203939
C135	C	1.555189	0.251432	0.046061
C136	C	1.805189	0.501432	0.296061
C137	C	1.055197	-0.248571	-0.546127
C138	C	1.305197	0.001429	-0.296127
C139	C	1.555197	0.251429	-0.046127
C140	C	1.805197	0.501429	0.203873
C141	C	1.119666	-0.196841	-0.592221
C142	C	1.369666	0.053159	-0.342221
C143	C	1.619666	0.303159	-0.092221
C144	C	1.869666	0.553159	0.157779
C145	C	1.119655	-0.196838	-0.407843
C146	C	1.369655	0.053162	-0.157843
C147	C	1.619655	0.303162	0.092157
C148	C	1.869655	0.553162	0.342157
C149	C	1.119652	-0.196838	-0.307887
C150	C	1.369652	0.053162	-0.057887
C151	C	1.619652	0.303162	0.192113
C152	C	1.869652	0.553162	0.442113
C153	C	1.119670	-0.196842	-0.692183
C154	C	1.369670	0.053158	-0.442183
C155	C	1.619670	0.303158	-0.192183
C156	C	1.869670	0.553158	0.057817
N157	N	1.119675	-0.196843	0.228143
N158	N	1.369675	0.053157	0.478143
N159	N	1.619675	0.303157	0.728143
N160	N	1.869675	0.553157	0.978143
H161	H	1.277900	0.230746	-0.000038
H162	H	1.527900	0.480746	0.249962
H163	H	1.777900	0.730746	0.499962
H164	H	2.027900	0.980746	0.749962
N165	N	0.607229	-0.077838	-0.000026
N166	N	0.857229	0.172162	0.249974
N167	N	1.107229	0.422162	0.499974
N168	N	1.357229	0.672162	0.749974
H169	H	0.629326	-0.046600	-0.054317
H170	H	0.879326	0.203400	0.195683
H171	H	1.129326	0.453400	0.445683
H172	H	1.379326	0.703400	0.695683
H173	H	0.535392	-0.083075	0.000007
H174	H	0.785392	0.166925	0.250007
H175	H	1.035392	0.416925	0.500007
H176	H	1.285392	0.666925	0.750007
H177	H	1.002704	-0.290695	-0.583655
H178	H	1.252704	-0.040695	-0.333655
H179	H	1.502704	0.209305	-0.083655
H180	H	1.752704	0.459305	0.166345
N181	N	0.938360	0.386124	-0.000024
N182	N	1.188360	0.636124	0.249976
N183	N	1.438360	0.886124	0.499976
N184	N	1.688360	1.136124	0.749976
H185	H	0.900911	0.369478	-0.054315
H186	H	1.150911	0.619478	0.195685
H187	H	1.400911	0.869478	0.445685
H188	H	1.650911	1.119478	0.695685
H189	H	0.900986	0.369458	0.054304
H190	H	1.150986	0.619458	0.304304
H191	H	1.400986	0.869458	0.554304
H192	H	1.650986	1.119458	0.804304
H193	H	0.621988	-0.294886	-0.000019
H194	H	0.871988	-0.044886	0.249981
H195	H	1.121988	0.205114	0.499981
H196	H	1.371988	0.455114	0.749981
N197	N	1.297334	0.400712	-0.000036
N198	N	1.547334	0.650712	0.249964
N199	N	1.797334	0.900712	0.499964
N200	N	2.047334	1.150712	0.749964
H201	H	1.300470	0.436894	0.054257
H202	H	1.550470	0.686894	0.304257
H203	H	1.800470	0.936894	0.554257
H204	H	2.050470	1.186894	0.804257
H205	H	1.352798	0.362193	-0.000077
H206	H	1.602798	0.612193	0.249923
H207	H	1.852798	0.862193	0.499923
H208	H	2.102798	1.112193	0.749923
H209	H	0.964556	0.218007	-0.000020
H210	H	1.214556	0.468007	0.249980
H211	H	1.464556	0.718007	0.499980
H212	H	1.714556	0.968007	0.749980
H213	H	1.236623	-0.102997	-0.583659
H214	H	1.486623	0.147003	-0.333659
H215	H	1.736623	0.397003	-0.083659
H216	H	1.986623	0.647003	0.166341
H217	H	1.236618	-0.103001	-0.416418
H218	H	1.486618	0.146999	-0.166418
H219	H	1.736618	0.396999	0.083582
H220	H	1.986618	0.646999	0.333582
H221	H	1.002699	-0.290684	-0.416400
H222	H	1.252699	-0.040684	-0.166400
H223	H	1.502699	0.209316	0.083600
H224	H	1.752699	0.459316	0.333600
