data_functionalizedCrystal
_audit_creation_method	'MofGen! by Chris Wilmer'
_symmetry_space_group_name_H-M	'P1'
_symmetry_Int_Tables_number	1
_symmetry_cell_setting	triclinic
loop_
_symmetry_equiv_pos_as_xyz
  x,y,z
_cell_length_a	21.395362
_cell_length_b	25.639239
_cell_length_c	21.395356
_cell_angle_alpha	89.973562
_cell_angle_beta	89.964230
_cell_angle_gamma	90.054564
loop_
_atom_site_label
_atom_site_type_symbol
_atom_site_fract_x
_atom_site_fract_y
_atom_site_fract_z
Zn1	Zn	0.957774	-0.207953	-0.354582
Zn2	Zn	0.957677	-0.295384	-0.249803
Zn3	Zn	0.853004	-0.207988	-0.249783
Zn4	Zn	0.852944	-0.295384	-0.354508
O5	O	0.905350	-0.251677	-0.302169
O6	O	1.045439	-0.219536	-0.340722
O7	O	0.943777	-0.283805	-0.162122
O8	O	0.866968	-0.134818	-0.263708
O9	O	1.045368	-0.283771	-0.263741
O10	O	0.943942	-0.134793	-0.340703
O11	O	0.866874	-0.219596	-0.162108
O12	O	0.765318	-0.219596	-0.263636
O13	O	0.866865	-0.283771	-0.442195
O14	O	0.765274	-0.283805	-0.340576
O15	O	0.943884	-0.219536	-0.442250
O16	O	0.943718	-0.368549	-0.263669
O17	O	0.866771	-0.368549	-0.340596
C18	C	0.742562	-0.251705	-0.302096
C19	C	0.672921	-0.251729	-0.302080
C20	C	0.905244	-0.387520	-0.302140
C21	C	0.905257	-0.445634	-0.302149
C22	C	0.640201	-0.285207	-0.342083
C23	C	0.574766	-0.285194	-0.342111
C24	C	0.542053	-0.251709	-0.302125
C25	C	0.574780	-0.218225	-0.262119
C26	C	0.640214	-0.218235	-0.262097
C27	C	0.438337	-0.247503	-0.245720
C28	C	0.372904	-0.247497	-0.245741
C29	C	0.340232	-0.251675	-0.302194
C30	C	0.373001	-0.255871	-0.358627
C31	C	0.438435	-0.255881	-0.358605
C32	C	0.471100	-0.251694	-0.302145
C33	C	0.236560	-0.285141	-0.342231
C34	C	0.171123	-0.285124	-0.342259
C35	C	0.171139	-0.218157	-0.262262
C36	C	0.236574	-0.218171	-0.262238
C37	C	0.269281	-0.251666	-0.302222
C38	C	0.945521	-0.805984	-0.262182
C39	C	0.945545	-0.860589	-0.262190
O40	O	0.979670	-0.888815	-0.228177
N41	N	0.905460	-0.887916	-0.302211
C42	C	0.865352	-0.860637	-0.342230
O43	O	0.831260	-0.888895	-0.376271
C44	C	0.865332	-0.806033	-0.342224
C45	C	0.905415	-0.778709	-0.302196
C46	C	0.985601	-0.778659	-0.222158
C47	C	0.985576	-0.724059	-0.222149
C48	C	0.945470	-0.696783	-0.262164
C49	C	0.905390	-0.724108	-0.302187
C50	C	0.825228	-0.778755	-0.382246
C51	C	0.825211	-0.724148	-0.382237
C52	C	0.865294	-0.696823	-0.342209
C53	C	0.865259	-0.642232	-0.342193
N54	N	0.905344	-0.614904	-0.302173
C55	C	0.945450	-0.642180	-0.262158
C56	C	0.865400	-0.975307	-0.342239
C57	C	0.865417	-1.029910	-0.342242
C58	C	0.945610	-1.029858	-0.262204
C59	C	0.945590	-0.975254	-0.262198
C60	C	0.905485	-0.947980	-0.302219
C61	C	0.945393	-0.527515	-0.262142
C62	C	0.945362	-0.472909	-0.262134
C63	C	0.865172	-0.472966	-0.342175
C64	C	0.865200	-0.527567	-0.342180
C65	C	0.905315	-0.554840	-0.302162
O66	O	0.831153	-0.613971	-0.376190
O67	O	0.979542	-0.613915	-0.228128
C68	C	1.068773	-0.251650	-0.302242
C69	C	1.138414	-0.251638	-0.302274
C70	C	0.905379	-0.251650	-0.465592
C71	C	0.905391	-0.251638	-0.535234
C72	C	0.905473	-0.115304	-0.302212
C73	C	0.905525	-0.057190	-0.302230
C74	C	0.945504	-0.284962	-1.037038
C75	C	0.945493	-0.284979	-0.971603
C76	C	0.905451	-0.251555	-0.938872
C77	C	0.865405	-0.218122	-0.971583
C78	C	0.865413	-0.218110	-1.037017
C79	C	0.900533	-0.204469	-0.835216
C80	C	0.900529	-0.204480	-0.769783
C81	C	0.905422	-0.251592	-0.737051
C82	C	0.910332	-0.298695	-0.769761
C83	C	0.910340	-0.298683	-0.835195
C84	C	0.905437	-0.251565	-0.867920
C85	C	0.945450	-0.285044	-0.633396
C86	C	0.945435	-0.285061	-0.567960
C87	C	0.865350	-0.218200	-0.567941
C88	C	0.865362	-0.218187	-0.633376
C89	C	0.905416	-0.251608	-0.666100
C90	C	0.905357	-0.251667	-0.139381
C91	C	0.905466	-0.251531	-0.069741
H92	H	0.666827	-0.312480	-0.374642
O93	O	1.024665	-0.805156	-0.183393
C94	C	1.109333	-0.866678	-0.175122
C95	C	1.065119	-0.836711	-0.219089
H96	H	1.142043	-0.892205	-0.203964
H97	H	1.138016	-0.837763	-0.146558
H98	H	1.080637	-0.892278	-0.142284
H99	H	1.093767	-0.811109	-0.251965
H100	H	1.036435	-0.865653	-0.247609
O101	O	0.895730	-0.158683	-0.738109
C102	C	0.886039	-0.065232	-0.745039
C103	C	0.891455	-0.117061	-0.780985
H104	H	0.882594	-0.031566	-0.779688
H105	H	0.842437	-0.066023	-0.714397
H106	H	0.929126	-0.059735	-0.714413
H107	H	0.848401	-0.122591	-0.811645
H108	H	0.935084	-0.116246	-0.811587
O109	O	0.469974	-0.243469	-0.190818
C110	C	0.462971	-0.235149	-0.078854
C111	C	0.427066	-0.239724	-0.140980
H112	H	0.428295	-0.232109	-0.038544
H113	H	0.493529	-0.271114	-0.072114
H114	H	0.493677	-0.198796	-0.079918
H115	H	0.396326	-0.276055	-0.139960
H116	H	0.396547	-0.203733	-0.147696
O117	O	0.984421	-0.317381	-0.939760
C118	C	1.069026	-0.324400	-0.865953
C119	C	1.024969	-0.287646	-0.901961
H120	H	1.101829	-0.300373	-0.835395
H121	H	1.040272	-0.351743	-0.835253
H122	H	1.097623	-0.348295	-0.900596
H123	H	0.996363	-0.263716	-0.867363
H124	H	1.053759	-0.260337	-0.932671
O125	O	0.984482	-0.317351	-1.068848
C126	C	1.069067	-0.324346	-1.142777
C127	C	1.024970	-0.287607	-1.106783
H128	H	1.101804	-0.300313	-1.173467
H129	H	1.097727	-0.348229	-1.108182
H130	H	1.040281	-0.351702	-1.173365
H131	H	1.053708	-0.260219	-1.076195
H132	H	0.996309	-0.263761	-1.141413
O133	O	0.268362	-0.317727	-0.380984
C134	C	0.342174	-0.388320	-0.389238
C135	C	0.306190	-0.351458	-0.345278
H136	H	0.372777	-0.415593	-0.360389
H137	H	0.307572	-0.412281	-0.417828
H138	H	0.372848	-0.364347	-0.422052
H139	H	0.275515	-0.375391	-0.312427
H140	H	0.340826	-0.327495	-0.316732
H141	H	0.832808	-0.190886	-1.063643
H142	H	0.832516	-0.450750	-0.374753
O143	O	0.470334	-0.259876	-0.413389
C144	C	0.544302	-0.219953	-0.483681
C145	C	0.508228	-0.215373	-0.421614
H146	H	0.574938	-0.183973	-0.490357
H147	H	0.574932	-0.256302	-0.482639
H148	H	0.509702	-0.222961	-0.524022
H149	H	0.542783	-0.212344	-0.381240
H150	H	0.477589	-0.179031	-0.422710
H151	H	0.548120	-0.312456	-0.374689
O152	O	0.984681	-1.056283	-0.223368
C153	C	1.091308	-1.072863	-0.193153
C154	C	1.047123	-1.042906	-0.237159
H155	H	1.141802	-1.062067	-0.204296
H156	H	1.080398	-1.062149	-0.142605
H157	H	1.084431	-1.116585	-0.200009
H158	H	1.053975	-0.999177	-0.230359
H159	H	1.058044	-1.053663	-0.287692
H160	H	0.914318	-0.337058	-0.743112
O161	O	1.024489	-0.697578	-0.183185
C162	C	1.054957	-0.680880	-0.076644
C163	C	1.010853	-0.710905	-0.120700
H164	H	1.043939	-0.691635	-0.026115
H165	H	1.105482	-0.691573	-0.087668
H166	H	1.048072	-0.637168	-0.083537
H167	H	1.017681	-0.754623	-0.113831
H168	H	0.960343	-0.700167	-0.109665
H169	H	0.144484	-0.312385	-0.374839
H170	H	0.144505	-0.190891	-0.229707
H171	H	0.914336	-0.337035	-0.861824
O172	O	0.895871	-0.158726	-0.867075
C173	C	0.943878	-0.100092	-0.940956
C174	C	0.949228	-0.151912	-0.904929
H175	H	0.987016	-0.094560	-0.971560
H176	H	0.900325	-0.100887	-0.971613
H177	H	0.940346	-0.066443	-0.906325
H178	H	0.952785	-0.185589	-0.939515
H179	H	0.992772	-0.151071	-0.874263
O180	O	0.341370	-0.259945	-0.413526
C181	C	0.348376	-0.268195	-0.525497
C182	C	0.384280	-0.263601	-0.463372
H183	H	0.383053	-0.271141	-0.565815
H184	H	0.317698	-0.304566	-0.524514
H185	H	0.317790	-0.232237	-0.532155
H186	H	0.414900	-0.299531	-0.456675
H187	H	0.414918	-0.227207	-0.464384
O188	O	0.268265	-0.185637	-0.223315
C189	C	0.261373	-0.119192	-0.144001
C190	C	0.225406	-0.156022	-0.188038
H191	H	0.226738	-0.095231	-0.115477
H192	H	0.291926	-0.143139	-0.111134
H193	H	0.292090	-0.091914	-0.172826
H194	H	0.194656	-0.183308	-0.159263
H195	H	0.194893	-0.132043	-0.220906
H196	H	0.346228	-0.244083	-0.199789
H197	H	0.548141	-0.190960	-0.229563
H198	H	0.978063	-0.312259	-0.660041
H199	H	0.978229	-0.953010	-0.229605
O200	O	0.671905	-0.185699	-0.223173
C201	C	0.665015	-0.119255	-0.143857
C202	C	0.629047	-0.156082	-0.187897
H203	H	0.630381	-0.095292	-0.115334
H204	H	0.695565	-0.143204	-0.110991
H205	H	0.695735	-0.091977	-0.172681
H206	H	0.598293	-0.183367	-0.159124
H207	H	0.598537	-0.132100	-0.220766
H208	H	0.978003	-0.450663	-0.229537
H209	H	0.978061	-0.549714	-0.229556
O210	O	0.826455	-1.056369	-0.381179
C211	C	0.746886	-1.050642	-0.460539
C212	C	0.790987	-1.020615	-0.416480
H213	H	0.718189	-1.021749	-0.489082
H214	H	0.775610	-1.076143	-0.493386
H215	H	0.714179	-1.076271	-0.431728
H216	H	0.823702	-0.994958	-0.445240
H217	H	0.762224	-0.995147	-0.383631
O218	O	0.826522	-0.948791	-0.381179
C219	C	0.818000	-0.887095	-0.465734
C220	C	0.862098	-0.917097	-0.421684
H221	H	0.846744	-0.861455	-0.498484
H222	H	0.789366	-0.915987	-0.494380
H223	H	0.785232	-0.861604	-0.436911
H224	H	0.894903	-0.942589	-0.450459
H225	H	0.890687	-0.888178	-0.393035
H226	H	0.792585	-0.800993	-0.414837
H227	H	0.792554	-0.701943	-0.414829
H228	H	0.832563	-0.549816	-0.374776
H229	H	0.978035	-0.312289	-0.541334
H230	H	0.832744	-0.190987	-0.541292
O231	O	0.826454	-0.185658	-0.665050
C232	C	0.746996	-0.119365	-0.658124
C233	C	0.791041	-0.156169	-0.622176
H234	H	0.718343	-0.095521	-0.623476
H235	H	0.775759	-0.091980	-0.688763
H236	H	0.714244	-0.143378	-0.688753
H237	H	0.823801	-0.132198	-0.591513
H238	H	0.762238	-0.183555	-0.591576
O239	O	0.826477	-0.185727	-0.939722
C240	C	0.741860	-0.178727	-0.865830
C241	C	0.785919	-0.215471	-0.901861
H242	H	0.709049	-0.202761	-0.835221
H243	H	0.770611	-0.151395	-0.835177
H244	H	0.713272	-0.154817	-0.900458
H245	H	0.814517	-0.239415	-0.867279
H246	H	0.757133	-0.242769	-0.932524
