data_functionalizedCrystal
_audit_creation_method	'MofGen! by Chris Wilmer'
_symmetry_space_group_name_H-M	'P1'
_symmetry_Int_Tables_number	1
_symmetry_cell_setting	triclinic
loop_
_symmetry_equiv_pos_as_xyz
  x,y,z
_cell_length_a	16.959455
_cell_length_b	18.050588
_cell_length_c	16.959447
_cell_angle_alpha	89.970410
_cell_angle_beta	89.979626
_cell_angle_gamma	90.026581
loop_
_atom_site_label
_atom_site_type_symbol
_atom_site_fract_x
_atom_site_fract_y
_atom_site_fract_z
Zn1	Zn	1.208332	-0.295704	-0.447040
Zn2	Zn	1.208232	-0.419905	-0.314863
Zn3	Zn	1.076160	-0.295727	-0.314864
Zn4	Zn	1.076103	-0.419850	-0.446988
O5	O	1.142207	-0.357797	-0.380939
O6	O	1.318929	-0.312193	-0.429528
O7	O	1.190695	-0.403466	-0.204253
O8	O	1.093759	-0.191800	-0.332419
O9	O	1.318856	-0.403443	-0.332419
O10	O	1.190864	-0.191782	-0.429529
O11	O	1.093662	-0.312233	-0.204253
O12	O	0.965542	-0.312179	-0.332369
O13	O	1.093661	-0.403349	-0.557606
O14	O	0.965500	-0.403372	-0.429440
O15	O	1.190809	-0.312139	-0.557644
O16	O	1.190640	-0.523823	-0.332368
O17	O	1.093565	-0.523782	-0.429439
C18	C	0.936841	-0.357772	-0.380899
C19	C	0.848984	-0.357780	-0.380901
C20	C	0.477460	-0.405264	-0.330348
C21	C	0.477557	-0.310391	-0.431626
C22	C	0.560103	-0.310379	-0.431607
C23	C	0.601331	-0.357811	-0.380958
C24	C	0.560013	-0.405254	-0.330329
C25	C	0.601427	-0.262941	-0.482241
C26	C	0.683978	-0.262928	-0.482224
C27	C	0.725207	-0.310356	-0.431571
C28	C	0.683885	-0.357801	-0.380939
C29	C	0.725113	-0.405233	-0.330291
C30	C	0.683791	-0.452675	-0.279654
C31	C	0.601243	-0.452683	-0.279676
C32	C	0.807756	-0.310348	-0.431549
C33	C	0.807666	-0.405224	-0.330272
C34	C	1.142107	-0.550749	-0.380915
C35	C	1.142136	-0.633295	-0.380932
C36	C	1.089430	-0.882125	-0.433719
C37	C	1.161503	-0.832657	-0.453122
C38	C	1.142300	-0.930415	-0.380976
C39	C	1.070150	-0.832801	-0.361588
C40	C	1.142216	-0.784430	-0.380956
C41	C	1.214412	-0.882034	-0.400416
C42	C	1.123010	-0.882182	-0.308848
C43	C	1.195133	-0.832737	-0.328224
C44	C	1.142348	-1.014513	-0.380989
C45	C	1.142176	-0.700333	-0.380942
C46	C	1.348375	-0.357822	-0.380979
C47	C	1.436232	-0.357832	-0.380997
C48	C	1.142240	-0.357735	-0.587107
C49	C	1.142254	-0.357709	-0.674964
C50	C	1.142329	-0.164091	-0.380980
C51	C	1.142381	-0.081545	-0.380998
C52	C	1.091768	-0.405119	-1.046422
C53	C	1.192929	-0.310142	-1.046457
C54	C	1.192908	-0.310158	-0.963911
C55	C	1.142317	-0.357656	-0.922617
C56	C	1.091747	-0.405138	-0.963869
C57	C	1.243482	-0.262682	-0.922654
C58	C	1.243464	-0.262696	-0.840103
C59	C	1.192868	-0.310191	-0.798807
C60	C	1.142296	-0.357675	-0.840063
C61	C	1.091705	-0.405173	-0.798769
C62	C	1.041128	-0.452653	-0.840024
C63	C	1.041151	-0.452633	-0.922573
C64	C	1.192845	-0.310211	-0.716258
C65	C	1.091684	-0.405191	-0.716215
C66	C	1.142220	-0.357804	-0.175573
C67	C	1.142359	-0.357621	-0.087717
H68	H	0.443984	-0.271779	-0.472866
C69	C	0.556071	-0.210753	-0.537931
N70	N	0.521906	-0.171434	-0.579871
C71	C	0.432006	-0.457447	-0.274651
N72	N	0.397770	-0.496753	-0.232699
H73	H	0.717370	-0.491298	-0.238420
C74	C	0.853010	-0.457403	-0.274552
N75	N	0.887163	-0.496706	-0.232585
C76	C	0.729424	-0.210734	-0.537917
N77	N	0.763654	-0.171417	-0.579862
C78	C	0.853205	-0.258166	-0.487247
N79	N	0.887437	-0.218858	-0.529199
H80	H	1.009169	-0.811171	-0.345199
C81	C	1.029153	-0.911424	-0.494033
N82	N	0.983756	-0.933493	-0.539462
H83	H	1.177788	-0.810905	-0.514110
C84	C	0.985517	-0.504853	-0.967959
N85	N	0.943613	-0.544184	-1.002148
C86	C	1.248570	-0.257892	-1.091884
N87	N	1.290478	-0.218532	-1.126102
C88	C	1.248477	-0.257986	-0.670881
N89	N	1.290380	-0.218647	-0.636704
C90	C	0.985479	-0.504899	-0.794590
N91	N	0.943565	-0.544249	-0.760365
C92	C	1.036130	-0.457340	-1.091803
N93	N	0.994221	-0.496672	-1.125985
C94	C	1.299120	-0.210430	-0.968082
N95	N	1.341023	-0.171067	-1.002303
C96	C	1.036027	-0.457443	-0.670798
N97	N	0.994106	-0.496799	-0.636591
H98	H	1.275411	-0.903572	-0.416876
H99	H	1.284646	-0.224034	-0.806520
C100	C	1.255557	-0.803612	-0.267963
N101	N	1.301071	-0.781669	-0.222581
H102	H	0.567592	-0.491307	-0.238450
C103	C	1.100979	-0.911597	-0.226481
N104	N	1.084376	-0.933754	-0.164442
