data_functionalizedCrystal
_audit_creation_method	'MofGen! by Chris Wilmer'
_symmetry_space_group_name_H-M	'P1'
_symmetry_Int_Tables_number	1
_symmetry_cell_setting	triclinic
loop_
_symmetry_equiv_pos_as_xyz
  x,y,z
_cell_length_a	18.215407
_cell_length_b	17.640280
_cell_length_c	18.215399
_cell_angle_alpha	78.775397
_cell_angle_beta	89.980167
_cell_angle_gamma	78.800709
loop_
_atom_site_label
_atom_site_type_symbol
_atom_site_fract_x
_atom_site_fract_y
_atom_site_fract_z
Zn1	Zn	1.184366	-0.314661	-0.356963
Zn2	Zn	1.684366	0.185339	0.143037
Zn3	Zn	1.209181	-0.446838	-0.209048
Zn4	Zn	1.709181	0.053162	0.290952
Zn5	Zn	1.061303	-0.314687	-0.233905
Zn6	Zn	1.561303	0.185313	0.266095
Zn7	Zn	1.086163	-0.446794	-0.332082
Zn8	Zn	1.586163	0.053206	0.167918
O9	O	1.135253	-0.380745	-0.282999
O10	O	1.635253	0.119255	0.217001
O11	O	1.290643	-0.332202	-0.337352
O12	O	1.790643	0.167798	0.162648
O13	O	1.189546	-0.429337	-0.109356
O14	O	1.689546	0.070663	0.390644
O15	O	1.056838	-0.204079	-0.271045
O16	O	1.556838	0.295921	0.228955
O17	O	1.308875	-0.429312	-0.228680
O18	O	1.808875	0.070688	0.271320
O19	O	1.147252	-0.204060	-0.361454
O20	O	1.647252	0.295940	0.138546
O21	O	1.080901	-0.332246	-0.127618
O22	O	1.580901	0.167754	0.372382
O23	O	0.961615	-0.332203	-0.246918
O24	O	1.461615	0.167797	0.253082
O25	O	1.099208	-0.429237	-0.438372
O26	O	1.599208	0.070763	0.061628
O27	O	0.979879	-0.429262	-0.319048
O28	O	1.479879	0.070738	0.180952
O29	O	1.171357	-0.332159	-0.456652
O30	O	1.671357	0.167841	0.043348
O31	O	1.213652	-0.557436	-0.204553
O32	O	1.713652	-0.057436	0.295447
O33	O	1.123271	-0.557404	-0.294945
O34	O	1.623271	-0.057404	0.205055
C35	C	0.944044	-0.380731	-0.282981
C36	C	1.444044	0.119269	0.217019
C37	C	0.862248	-0.380745	-0.282987
C38	C	1.362248	0.119255	0.217013
C39	C	0.683598	-0.431363	-0.320471
C40	C	1.183598	0.068637	0.179529
C41	C	0.606740	-0.431365	-0.320479
C42	C	1.106740	0.068635	0.179521
C43	C	0.587662	-0.330142	-0.245542
C44	C	1.087662	0.169858	0.254458
C45	C	0.664519	-0.330136	-0.245538
C46	C	1.164519	0.169864	0.254462
C47	C	0.712485	-0.380751	-0.283000
C48	C	1.212485	0.119249	0.217000
C49	C	0.558771	-0.380759	-0.283013
C50	C	1.058771	0.119241	0.216987
C51	C	0.475438	-0.380761	-0.283022
C52	C	0.975438	0.119239	0.216978
C53	C	0.795824	-0.380748	-0.282993
C54	C	1.295824	0.119252	0.217007
C55	C	1.173871	-0.586099	-0.244368
C56	C	1.673871	-0.086099	0.255632
C57	C	1.190460	-0.673950	-0.227866
C58	C	1.690460	-0.173950	0.272134
C59	C	1.009534	-0.962935	-0.408631
C60	C	1.509534	-0.462935	0.091369
C61	C	1.025123	-1.045484	-0.393101
C62	C	1.525123	-0.545484	0.106899
C63	C	1.119295	-1.045452	-0.299071
C64	C	1.619295	-0.545452	0.200929
C65	C	1.103717	-0.962901	-0.314596
C66	C	1.603717	-0.462901	0.185404
C67	C	1.048835	-0.921649	-0.369375
C68	C	1.548835	-0.421649	0.130625
C69	C	1.143018	-0.921615	-0.275340
C70	C	1.643018	-0.421615	0.224660
C71	C	1.127438	-0.839071	-0.290861
C72	C	1.627438	-0.339071	0.209139
C73	C	1.072557	-0.797813	-0.345636
C74	C	1.572557	-0.297813	0.154364
C75	C	1.033255	-0.839105	-0.384896
C76	C	1.533255	-0.339105	0.115104
C77	C	1.197896	-0.962869	-0.220557
C78	C	1.697896	-0.462869	0.279443
C79	C	1.237196	-0.921583	-0.181301
C80	C	1.737196	-0.421583	0.318699
C81	C	1.221620	-0.839038	-0.196825
C82	C	1.721620	-0.339038	0.303175
C83	C	1.166739	-0.797780	-0.251601
C84	C	1.666739	-0.297780	0.248399
C85	C	1.260922	-0.797746	-0.157566
C86	C	1.760922	-0.297746	0.342434
C87	C	1.245342	-0.715202	-0.173086
C88	C	1.745342	-0.215202	0.326914
C89	C	1.151159	-0.715236	-0.267122
C90	C	1.651159	-0.215236	0.232878
C91	C	1.327209	-0.380759	-0.283018
C92	C	1.827209	0.119241	0.216982
C93	C	1.409009	-0.380765	-0.283027
C94	C	1.909009	0.119235	0.216973
C95	C	1.135288	-0.380690	-0.474963
C96	C	1.635288	0.119310	0.025037
C97	C	1.135302	-0.380667	-0.556766
C98	C	1.635302	0.119333	-0.056766
C99	C	1.096504	-0.174589	-0.321798
C100	C	1.596504	0.325411	0.178202
C101	C	1.079991	-0.086738	-0.338331
C102	C	1.579991	0.413262	0.161669
C103	C	1.172878	-0.330072	-0.754489
C104	C	1.672878	0.169928	-0.254489
C105	C	1.172883	-0.330049	-0.831352
C106	C	1.672883	0.169951	-0.331352
C107	C	1.097755	-0.431141	-0.812304
C108	C	1.597755	0.068859	-0.312304
C109	C	1.097747	-0.431159	-0.735444
C110	C	1.597747	0.068841	-0.235444
C111	C	1.135313	-0.380626	-0.706537
C112	C	1.635313	0.119374	-0.206537
C113	C	1.135326	-0.380584	-0.860261
C114	C	1.635326	0.119416	-0.360261
C115	C	1.135330	-0.380560	-0.943600
C116	C	1.635330	0.119440	-0.443600
C117	C	1.135307	-0.380649	-0.623194
C118	C	1.635307	0.119351	-0.123194
C119	C	1.135250	-0.380742	-0.091794
C120	C	1.635250	0.119258	0.408206
C121	C	1.135336	-0.380543	-0.010033
C122	C	1.635336	0.119457	0.489967
H123	H	0.548599	-0.288934	-0.215039
H124	H	1.048599	0.211066	0.284961
H125	H	0.688037	-0.288916	-0.215026
H126	H	1.188037	0.211084	0.284974
C127	C	1.296870	-0.966424	-0.121937
C128	C	1.796870	-0.466424	0.378063
C129	C	1.352957	-1.013747	-0.154748
C130	C	1.852957	-0.513747	0.345252
C131	C	1.407943	-1.055058	-0.100084
C132	C	1.907943	-0.555058	0.399916
H133	H	1.274911	-0.998722	-0.083761
H134	H	1.774911	-0.498722	0.416239
H135	H	1.318096	-0.930041	-0.100784
H136	H	1.818096	-0.430041	0.399216
H137	H	1.331734	-1.050125	-0.175889
H138	H	1.831734	-0.550125	0.324111
H139	H	1.374937	-0.981468	-0.192918
H140	H	1.874937	-0.481468	0.307082
H141	H	1.429168	-1.018676	-0.078931
H142	H	1.929168	-0.518676	0.421069
H143	H	1.385976	-1.087352	-0.061911
H144	H	1.885976	-0.587352	0.438089
H145	H	1.446007	-1.087166	-0.122340
H146	H	1.946007	-0.587166	0.377660
H147	H	1.305601	-0.831346	-0.112959
H148	H	1.805601	-0.331346	0.387041
C149	C	1.055634	-0.708193	-0.362334
C150	C	1.555634	-0.208193	0.137666
C151	C	1.031773	-0.680928	-0.297374
C152	C	1.531773	-0.180928	0.202626
C153	C	1.016186	-0.598375	-0.312725
C154	C	1.516186	-0.098375	0.187275
H155	H	1.017304	-0.689436	-0.400543
H156	H	1.517304	-0.189436	0.099457
H157	H	1.099586	-0.689444	-0.378591
H158	H	1.599586	-0.189444	0.121409
H159	H	0.987826	-0.699669	-0.281127
H160	H	1.487826	-0.199669	0.218873
H161	H	1.070091	-0.699662	-0.259157
H162	H	1.570091	-0.199662	0.240843
H163	H	1.060138	-0.579627	-0.328983
H164	H	1.560138	-0.079627	0.171017
H165	H	0.977858	-0.579627	-0.350935
H166	H	1.477858	-0.079627	0.149065
H167	H	1.000001	-0.579866	-0.268651
H168	H	1.500001	-0.079866	0.231349
H169	H	1.106474	-0.681646	-0.311735
H170	H	1.606474	-0.181646	0.188265
H171	H	1.067151	-0.472326	-0.696400
H172	H	1.567151	0.027674	-0.196400
H173	H	0.988570	-0.805515	-0.429509
H174	H	1.488570	-0.305515	0.070491
C175	C	1.213668	-0.275116	-0.723254
C176	C	1.713668	0.224884	-0.223254
C177	C	1.246549	-0.230823	-0.781706
C178	C	1.746549	0.269177	-0.281706
C179	C	1.284120	-0.180179	-0.752965
C180	C	1.784120	0.319821	-0.252965
H181	H	1.251464	-0.305268	-0.687599
H182	H	1.751464	0.194732	-0.187599
H183	H	1.179045	-0.240642	-0.699772
H184	H	1.679045	0.259358	-0.199772
H185	H	1.281169	-0.265292	-0.805176
H186	H	1.781169	0.234708	-0.305176
H187	H	1.208769	-0.200654	-0.817365
H188	H	1.708769	0.299346	-0.317365
H189	H	1.249498	-0.145705	-0.729483
H190	H	1.749498	0.354295	-0.229483
H191	H	1.321913	-0.210337	-0.717311
H192	H	1.821913	0.289663	-0.217311
H193	H	1.306429	-0.150115	-0.792621
H194	H	1.806429	0.349885	-0.292621
H195	H	0.722651	-0.472575	-0.350978
H196	H	1.222651	0.027425	0.149022
H197	H	0.583224	-0.472577	-0.350993
H198	H	1.083224	0.027423	0.149007
C199	C	0.949906	-0.918280	-0.468120
C200	C	1.449906	-0.418280	0.031880
C201	C	0.918813	-0.972102	-0.499175
C202	C	1.418813	-0.472102	0.000825
C203	C	0.863881	-0.930995	-0.553971
C204	C	1.363881	-0.430995	-0.053971
H205	H	0.971883	-0.886042	-0.506332
H206	H	1.471883	-0.386042	-0.006332
H207	H	0.911746	-0.886133	-0.446006
H208	H	1.411746	-0.386133	0.053994
H209	H	0.956966	-1.004235	-0.521289
H210	H	1.456966	-0.504235	-0.021289
H211	H	0.896821	-1.004342	-0.460982
H212	H	1.396821	-0.504342	0.039018
H213	H	0.825721	-0.898848	-0.531858
H214	H	1.325721	-0.398848	-0.031858
H215	H	0.885864	-0.898758	-0.592178
H216	H	1.385864	-0.398758	-0.092178
H217	H	0.842773	-0.967507	-0.575044
H218	H	1.342773	-0.467507	-0.075044
H219	H	0.993124	-1.079096	-0.425081
H220	H	1.493124	-0.579096	0.074919
H221	H	1.163978	-1.079051	-0.254467
H222	H	1.663978	-0.579051	0.245533
C223	C	1.287984	-0.670470	-0.130330
C224	C	1.787984	-0.170470	0.369670
C225	C	1.275817	-0.690611	-0.053715
C226	C	1.775817	-0.190611	0.446285
C227	C	1.315091	-0.649426	-0.014300
C228	C	1.815091	-0.149426	0.485700
H229	H	1.270885	-0.615390	-0.147322
H230	H	1.770885	-0.115390	0.352678
H231	H	1.339986	-0.683963	-0.138564
H232	H	1.839986	-0.183963	0.361436
H233	H	1.223826	-0.677112	-0.045485
H234	H	1.723826	-0.177112	0.454515
H235	H	1.292919	-0.745683	-0.036701
H236	H	1.792919	-0.245683	0.463299
H237	H	1.367092	-0.662919	-0.022534
H238	H	1.867092	-0.162919	0.477466
H239	H	1.297989	-0.594348	-0.031298
H240	H	1.797989	-0.094348	0.468702
H241	H	1.306846	-0.663091	0.037688
H242	H	1.806846	-0.163091	0.537688
C243	C	1.214896	-1.052489	-0.203844
C244	C	1.714896	-0.552489	0.296156
C245	C	1.238800	-1.079747	-0.268796
C246	C	1.738800	-0.579747	0.231204
C247	C	1.254480	-1.162299	-0.253427
C248	C	1.754480	-0.662299	0.246573
H249	H	1.170991	-1.071315	-0.187585
H250	H	1.670991	-0.571315	0.312415
H251	H	1.253235	-1.071174	-0.165625
H252	H	1.753235	-0.571174	0.334375
H253	H	1.200464	-1.061071	-0.307003
H254	H	1.700464	-0.561071	0.192997
H255	H	1.282709	-1.060943	-0.285065
H256	H	1.782709	-0.560943	0.214935
H257	H	1.292819	-1.180984	-0.215208
H258	H	1.792819	-0.680984	0.284792
H259	H	1.210572	-1.181117	-0.237167
H260	H	1.710572	-0.681117	0.262833
H261	H	1.270707	-1.180804	-0.297492
H262	H	1.770707	-0.680804	0.202508
C263	C	1.213527	-0.275060	-0.883468
C264	C	1.713527	0.224940	-0.383468
C265	C	1.162333	-0.224371	-0.937106
C266	C	1.662333	0.275629	-0.437106
C267	C	1.199745	-0.173693	-0.985121
C268	C	1.699745	0.326307	-0.485121
H269	H	1.251277	-0.305192	-0.907848
H270	H	1.751277	0.194808	-0.407848
H271	H	1.235873	-0.244923	-0.855272
H272	H	1.735873	0.255077	-0.355272
H273	H	1.139999	-0.254505	-0.965299
H274	H	1.639999	0.245495	-0.465299
H275	H	1.124582	-0.194222	-0.912747
H276	H	1.624582	0.305778	-0.412747
H277	H	1.222091	-0.143555	-0.956924
H278	H	1.722091	0.356445	-0.456924
H279	H	1.237494	-0.203831	-1.009496
H280	H	1.737494	0.296169	-0.509496
H281	H	1.165014	-0.139289	-1.021515
H282	H	1.665014	0.360711	-0.521515
C283	C	1.057051	-0.485978	-0.843828
C284	C	1.557051	0.014022	-0.343828
C285	C	1.065115	-0.475158	-0.921400
C286	C	1.565115	0.024842	-0.421400
C287	C	1.027637	-0.525670	-0.950461
C288	C	1.527637	-0.025670	-0.450461
H289	H	1.005407	-0.474462	-0.833480
H290	H	1.505407	0.025538	-0.333480
H291	H	1.077814	-0.539104	-0.821276
H292	H	1.577814	-0.039104	-0.321276
H293	H	1.044349	-0.422045	-0.943945
H294	H	1.544349	0.077955	-0.443945
H295	H	1.116750	-0.486680	-0.931769
H296	H	1.616750	0.013320	-0.431769
H297	H	1.048400	-0.578796	-0.927909
H298	H	1.548400	-0.078796	-0.427909
H299	H	0.975995	-0.514150	-0.940108
H300	H	1.475995	-0.014150	-0.440108
H301	H	1.033109	-0.518342	-1.003095
H302	H	1.533109	-0.018342	-0.503095
