data_functionalizedCrystal
_audit_creation_method	'MofGen! by Chris Wilmer'
_symmetry_space_group_name_H-M	'P1'
_symmetry_Int_Tables_number	1
_symmetry_cell_setting	triclinic
loop_
_symmetry_equiv_pos_as_xyz
  x,y,z
_cell_length_a	15.995300
_cell_length_b	15.995350
_cell_length_c	13.596369
_cell_angle_alpha	89.998161
_cell_angle_beta	90.007511
_cell_angle_gamma	83.482091
loop_
_atom_site_label
_atom_site_type_symbol
_atom_site_fract_x
_atom_site_fract_y
_atom_site_fract_z
O1	O	1.111014	0.107720	0.081823
O2	O	0.867233	0.121092	0.081816
O3	O	0.995788	-0.007483	0.081819
O4	O	0.982460	0.236295	0.081820
O5	O	0.995772	-0.007476	-0.081764
O6	O	0.867217	0.121099	-0.081767
O7	O	1.110998	0.107727	-0.081760
Zn8	Zn	0.989105	0.114414	-0.107736
Zn9	Zn	0.989126	0.114405	0.107792
O10	O	0.982444	0.236302	-0.081763
C11	C	0.836030	0.120550	0.000024
C12	C	0.743077	0.118915	0.000021
C13	C	0.572894	0.115896	0.000029
C14	C	0.525428	0.207443	0.000027
C15	C	0.428740	0.205773	0.000401
C16	C	0.405337	0.112924	0.000035
C17	C	0.446479	0.067500	0.093265
C18	C	0.543113	0.069816	0.093340
C19	C	0.543374	0.068469	-0.092691
C20	C	0.446429	0.068477	-0.093913
C21	C	0.310642	0.111239	0.000042
C22	C	0.667590	0.117577	0.000029
C23	C	0.995229	-0.038674	0.000029
C24	C	0.993577	-0.131624	0.000034
C25	C	0.987644	-0.469370	0.000031
C26	C	0.896090	-0.421920	0.000395
C27	C	0.897743	-0.325230	0.000027
C28	C	0.990587	-0.301810	0.000033
C29	C	1.035736	-0.342892	-0.093378
C30	C	1.033436	-0.439527	-0.093456
C31	C	1.035345	-0.439894	0.092568
C32	C	1.035323	-0.342948	0.093803
C33	C	0.992255	-0.207113	0.000031
C34	C	0.985979	-0.564068	0.000026
C35	C	1.142202	0.108269	0.000034
C36	C	1.235154	0.109904	0.000043
C37	C	0.983003	0.267493	0.000029
C38	C	0.984655	0.360443	0.000030
N39	N	0.989097	0.114420	-0.254828
C40	C	0.989101	0.114422	-0.343826
C41	C	0.989110	0.114416	-0.455477
C42	C	0.989121	0.114407	-0.544468
C43	C	0.989130	0.114402	-0.656126
N44	N	0.989141	0.114392	0.254883
H45	H	0.543913	0.244237	-0.066817
N46	N	1.120254	-0.323674	0.100889
N47	N	1.149326	-0.279109	0.036653
H48	H	1.209311	-0.265492	0.041653
N49	N	0.410924	0.106569	0.180647
N50	N	0.373840	0.064701	0.240931
H51	H	0.348731	0.092297	0.302645
N52	N	0.412129	0.110103	-0.180433
N53	N	0.357620	0.172272	-0.173008
H54	H	0.333393	0.201676	-0.234111
H55	H	0.862001	-0.297356	-0.067050
N56	N	0.550012	0.252920	0.083771
N57	N	0.519162	0.327384	0.097269
H58	H	0.536524	0.359501	0.156414
N59	N	0.428792	-0.018085	0.097318
N60	N	0.456563	-0.064335	0.166804
H61	H	0.444070	-0.124780	0.169667
N62	N	0.583619	-0.014506	0.098350
N63	N	0.662145	-0.027818	0.099307
H64	H	0.690752	-0.087369	0.102854
H65	H	1.102848	-0.471667	0.093201
H66	H	0.400899	0.241306	0.067622
N67	N	0.427177	-0.016441	-0.101319
N68	N	0.382663	-0.045718	-0.037186
H69	H	0.369067	-0.105695	-0.042409
H70	H	0.859504	-0.440448	0.067382
N71	N	0.997822	-0.465652	0.181401
N72	N	1.040312	-0.512900	0.240523
H73	H	1.013805	-0.531091	0.303259
N74	N	0.850397	-0.446458	-0.083200
N75	N	0.821930	-0.392520	-0.144740
H76	H	0.789666	-0.409848	-0.203789
H77	H	0.400271	0.241465	-0.066414
N78	N	0.583247	-0.016202	-0.093809
N79	N	0.633200	-0.041605	-0.026687
H80	H	0.661364	-0.101402	-0.027469
H81	H	0.563867	0.098612	-0.163376
N82	N	0.992117	-0.462468	-0.181060
N83	N	0.965175	-0.407135	-0.241715
H84	H	0.935992	-0.423331	-0.303587
N85	N	0.566083	0.110895	0.181093
N86	N	0.536335	0.185177	0.197958
H87	H	0.552549	0.214195	0.259935
N88	N	0.993960	-0.308697	0.180489
N89	N	0.931764	-0.254189	0.173313
H90	H	0.902549	-0.229993	0.234533
H91	H	0.862252	-0.296804	0.066987
H92	H	1.100653	-0.471787	-0.097690
H93	H	1.103946	-0.328778	-0.096847
N94	N	0.996376	-0.307274	-0.180582
N95	N	0.935084	-0.251646	-0.174178
H96	H	0.907281	-0.226491	-0.235763
