data_functionalizedCrystal
_audit_creation_method	'MofGen! by Chris Wilmer'
_symmetry_space_group_name_H-M	'P1'
_symmetry_Int_Tables_number	1
_symmetry_cell_setting	triclinic
loop_
_symmetry_equiv_pos_as_xyz
  x,y,z
_cell_length_a	23.096457
_cell_length_b	23.096457
_cell_length_c	18.878441
_cell_angle_alpha	89.997527
_cell_angle_beta	59.999380
_cell_angle_gamma	60.000612
loop_
_atom_site_label
_atom_site_type_symbol
_atom_site_fract_x
_atom_site_fract_y
_atom_site_fract_z
Zr1	Zr	0.633748	0.557781	-0.092971
O2	O	0.754536	0.465336	-0.206071
O3	O	0.512961	0.586118	-0.058302
O4	O	0.633750	0.586122	-0.206079
O5	O	0.633745	0.465332	0.058276
O6	O	0.633752	0.681403	-0.206083
O7	O	0.633746	0.465332	-0.058294
O8	O	0.417682	0.681396	0.058263
O9	O	0.849815	0.465339	-0.206069
O10	O	0.562644	0.669313	-0.043517
O11	O	0.562642	0.598206	0.043481
O12	O	0.704855	0.598210	-0.130507
O13	O	0.704853	0.527103	-0.043508
Zr14	Zr	0.633749	0.709741	0.092939
Zr15	Zr	0.633751	0.709742	-0.092978
Zr16	Zr	0.633746	0.557780	0.092945
Zr17	Zr	0.785708	0.557785	-0.092969
Zr18	Zr	0.481789	0.709737	0.092936
O19	O	0.754536	0.681404	0.058269
O20	O	0.754539	0.681406	-0.206081
O21	O	0.754532	0.465335	0.058279
O22	O	0.512961	0.802186	0.206038
O23	O	0.512964	0.802188	-0.058312
O24	O	0.512958	0.586117	0.206048
O25	O	0.633752	0.802191	-0.058309
O26	O	0.633747	0.681400	0.206046
O27	O	0.633745	0.586120	0.206050
O28	O	0.633751	0.802190	0.058261
O29	O	0.849817	0.586128	-0.206075
O30	O	0.417680	0.681395	0.206042
O31	O	0.417682	0.802183	0.206036
O32	O	0.417684	0.802184	0.058257
O33	O	0.849813	0.465338	-0.058290
O34	O	0.849815	0.586127	-0.058296
O35	O	0.562642	0.669312	0.130474
O36	O	0.562644	0.740419	0.043475
O37	O	0.704855	0.669317	-0.043514
O38	O	0.704853	0.598209	0.043484
C39	C	0.443670	0.633756	-0.000020
C40	C	0.379160	0.633755	-0.000021
C41	C	-0.028872	0.581283	-0.064234
C42	C	0.031747	0.581277	-0.064233
C43	C	0.009570	0.633766	-0.000017
C44	C	-0.073236	0.686255	0.064216
C45	C	-0.133852	0.686256	0.064219
N46	N	0.065672	0.696013	0.019424
N47	N	0.123259	0.696010	0.019416
C48	C	0.192200	0.633767	-0.000020
N49	N	0.201387	0.571524	-0.019465
N50	N	0.143797	0.571527	-0.019461
C51	C	0.075292	0.633771	-0.000012
C52	C	0.340724	0.581272	-0.064245
C53	C	0.401342	0.581265	-0.064239
C54	C	0.296356	0.686249	0.064208
C55	C	0.235741	0.686250	0.064204
C56	C	0.257930	0.633762	-0.000026
C57	C	0.633745	0.443681	-0.000008
C58	C	0.633744	0.379169	-0.000005
C59	C	0.559513	0.385978	0.045394
C60	C	0.559512	0.325363	0.045398
C61	C	0.633746	0.257939	-0.000014
C62	C	0.707987	0.251132	-0.045416
C63	C	0.707986	0.311747	-0.045411
N64	N	0.689003	0.135145	-0.073922
N65	N	0.688999	0.077565	-0.073925
C66	C	0.633753	0.075306	-0.000030
N67	N	0.578500	0.132807	0.073867
N68	N	0.578502	0.190393	0.073868
C69	C	0.633755	0.192207	-0.000024
C70	C	0.559516	0.016391	0.045378
C71	C	0.559518	-0.044227	0.045384
C72	C	0.707995	-0.118457	-0.045438
C73	C	0.707991	-0.057839	-0.045436
C74	C	0.633749	0.009582	-0.000030
C75	C	0.823827	0.633766	-0.000013
C76	C	0.888337	0.633767	-0.000012
C77	C	0.633751	0.633763	-0.232570
C78	C	0.633752	0.633763	-0.311497
C79	C	0.633752	0.823841	-0.000025
C80	C	0.633753	0.888353	-0.000028
C81	C	0.633754	0.686254	-0.348579
C82	C	0.633748	0.686256	-0.422734
C83	C	0.633745	0.633764	-0.459810
C84	C	0.633741	0.581271	-0.422721
C85	C	0.633741	0.581272	-0.348563
C86	C	0.633742	0.581271	-0.577290
C87	C	0.633743	0.581268	-0.651454
C88	C	0.633748	0.686255	-0.651461
C89	C	0.633749	0.686256	-0.577304
C90	C	0.633746	0.633762	-0.540221
C91	C	0.633746	0.633760	0.232537
C92	C	0.633745	0.633759	0.311464
C93	C	0.443674	0.823837	-0.000029
C94	C	0.379164	0.888347	-0.000033
C95	C	0.443668	0.633755	0.232534
C96	C	0.379156	0.633753	0.311459
C97	C	0.443671	0.823835	0.232525
C98	C	0.379160	0.888345	0.311448
C99	C	0.823826	0.443687	-0.232558
C100	C	0.888337	0.379178	-0.311480
C101	C	0.823823	0.443686	-0.000004
C102	C	0.888333	0.379176	-0.000000
C103	C	0.823829	0.633767	-0.232567
C104	C	0.888341	0.633769	-0.311492
C105	C	0.348869	0.881524	-0.045451
C106	C	0.288264	0.942133	-0.045473
C107	C	0.257950	1.009562	-0.000070
C108	C	0.288251	1.016383	0.045351
C109	C	0.348859	0.955775	0.045366
C110	C	0.348861	0.670868	0.393940
C111	C	0.288254	0.670864	0.468106
C112	C	0.257939	0.633747	0.459789
C113	C	0.288240	0.596627	0.377299
C114	C	0.348850	0.596628	0.303135
C115	C	0.348867	0.955762	0.303098
C116	C	0.288260	1.016382	0.377247
C117	C	0.257945	1.009582	0.459745
C118	C	0.288245	0.942156	0.468092
C119	C	0.348854	0.881539	0.393944
C120	C	0.918638	0.311760	-0.303131
C121	C	0.979263	0.251140	-0.377280
C122	C	1.009581	0.257941	-0.459778
C123	C	0.979278	0.325366	-0.468125
C124	C	0.918658	0.385983	-0.393977
C125	C	0.918634	0.385998	0.045411
C126	C	0.979256	0.325390	0.045411
C127	C	1.009572	0.257960	0.000006
C128	C	0.979268	0.251139	-0.045411
C129	C	0.918652	0.311747	-0.045416
C130	C	0.918637	0.670893	-0.303147
C131	C	0.979244	0.670909	-0.377299
C132	C	1.009559	0.633797	-0.459794
C133	C	0.979257	0.596672	-0.468138
C134	C	0.918647	0.596660	-0.393987
H135	H	-0.201268	0.728996	0.116518
H136	H	0.768435	0.306198	-0.082379
H137	H	-0.091289	0.728991	0.116503
F138	F	0.272748	0.742110	0.132555
F139	F	0.633763	0.742121	-0.309131
F140	F	1.011494	0.332664	0.093755
H141	H	0.168326	0.728991	0.116498
H142	H	0.633757	0.728996	-0.547120
F143	F	0.256024	0.934858	-0.093814
H144	H	0.358793	0.538532	-0.116545
H145	H	0.373511	0.826646	0.400755
H146	H	0.893982	0.306182	-0.082393
H147	H	0.373541	0.961313	0.235931
F148	F	0.886411	0.457733	-0.402877
F149	F	0.633735	0.525406	-0.309097
H150	H	0.893987	0.566427	-0.400793
F151	F	0.480499	0.457731	0.093724
F152	F	0.886384	0.710397	-0.215356
H153	H	1.058930	0.208615	0.000017
H154	H	0.263597	1.071277	0.370434
H155	H	0.499063	0.330907	0.082368
H156	H	0.373550	0.826625	-0.082435
F157	F	0.480503	0.088149	0.093706
F158	F	0.381083	0.557126	0.215354
F159	F	0.886382	0.457756	0.093739
F160	F	0.480507	-0.036975	0.093716
F161	F	0.786998	-0.065088	-0.093762
H162	H	0.893956	0.306209	-0.235964
F163	F	0.255972	0.934930	0.555900
H164	H	1.003949	0.566456	-0.535315
F165	F	0.633732	0.525407	-0.462177
F166	F	0.193438	1.074103	0.538653
H167	H	1.003926	0.196246	-0.370466
F168	F	1.074098	0.193419	-0.538686
H169	H	1.003971	0.330894	-0.535304
F170	F	0.489461	0.525397	-0.132591
F171	F	1.011539	0.179370	-0.093730
H172	H	1.003909	0.701140	-0.370489
H173	H	1.058912	0.633811	-0.520166
H174	H	0.263549	0.566407	0.370540
F175	F	-0.005251	0.525416	-0.132589
H176	H	0.099168	0.538528	-0.116522
H177	H	0.768437	-0.173354	-0.082415
F178	F	0.786991	0.179374	-0.093743
H179	H	0.633751	0.728997	-0.681658
H180	H	0.633749	0.728998	-0.452926
F181	F	0.255978	1.088152	0.093671
F182	F	0.381090	0.963047	0.093715
F183	F	0.633735	0.525401	-0.537825
F184	F	0.633738	0.525400	-0.690906
H185	H	0.208598	1.058907	-0.000089
H186	H	0.373536	0.701093	0.400729
H187	H	0.263590	0.701094	0.535265
F188	F	0.193431	0.633753	0.538729
