data_functionalizedCrystal
_audit_creation_method	'MofGen! by Chris Wilmer'
_symmetry_space_group_name_H-M	'P1'
_symmetry_Int_Tables_number	1
_symmetry_cell_setting	triclinic
loop_
_symmetry_equiv_pos_as_xyz
  x,y,z
_cell_length_a	6.817900
_cell_length_b	14.125369
_cell_length_c	10.992410
_cell_angle_alpha	94.596211
_cell_angle_beta	108.764651
_cell_angle_gamma	100.397648
loop_
_atom_site_label
_atom_site_type_symbol
_atom_site_fract_x
_atom_site_fract_y
_atom_site_fract_z
V1	V	-4.071574	-0.133113	-0.400088
O2	O	-4.074427	0.006397	-0.392992
O3	O	-4.007211	-0.263941	-0.396852
O4	O	-4.049822	-0.131066	-0.574808
O5	O	-4.031520	-0.127399	-0.213803
V6	V	-4.553817	-0.116426	-0.377868
O7	O	-4.335639	-0.169718	-0.448830
O8	O	-4.739949	-0.079822	-0.329125
O9	O	-4.394973	0.014402	-0.381104
O10	O	-4.668361	-0.255936	-0.384964
O11	O	-4.711268	-0.122141	-0.564152
O12	O	-4.352362	-0.118474	-0.203147
C13	C	-3.847466	-0.295835	-0.390411
C14	C	-3.876307	-0.402788	-0.388930
C15	C	-4.115548	-0.650929	-0.391694
C16	C	-3.929223	-0.598611	-0.386267
C17	C	-3.899781	-0.489645	-0.387749
C18	C	-4.144998	-0.759905	-0.390212
C19	C	-3.901820	-0.126337	-0.617411
C20	C	-3.965214	-0.125529	-0.760242
C21	C	-3.834698	-0.118163	-0.955394
C22	C	-3.768751	-0.119402	-0.806905
C23	C	-4.132818	-0.220391	-0.836986
C24	C	-4.197401	-0.219552	-0.985556
C25	C	-4.134055	-0.035864	-0.948221
C26	C	-4.063490	-0.035415	-0.799210
C27	C	-4.218059	0.046290	-0.387541
C28	C	-4.168458	0.153242	-0.389030
C29	C	-4.163705	-0.123206	-0.160538
C30	C	-4.079550	-0.124009	-0.017705
H31	H	-3.642163	-0.051192	-0.753824
C32	C	-3.663705	-0.206149	-0.773045
H33	H	-3.661235	-0.240774	-0.850093
H34	H	-3.522610	-0.182947	-0.714307
H35	H	-3.742502	-0.248259	-0.733863
H36	H	-3.791817	-0.635656	-0.380506
H37	H	-4.252942	-0.613886	-0.397452
H38	H	-4.376758	-0.227801	-1.028156
C39	C	-3.706097	-0.025392	-0.981193
H40	H	-3.800571	0.010606	-1.030205
H41	H	-3.618237	0.013308	-0.900804
H42	H	-3.620167	-0.042861	-1.028523
C43	C	-3.773569	-0.203720	-1.019889
H44	H	-3.896620	-0.242990	-1.084623
H45	H	-3.672678	-0.179217	-1.058759
H46	H	-3.713732	-0.241749	-0.956070
C47	C	-4.147465	-0.309708	-1.047727
H48	H	-4.087967	-0.346497	-0.982125
H49	H	-4.274533	-0.348703	-1.109244
H50	H	-4.049038	-0.289539	-1.090146
H51	H	-4.280659	-0.228300	-0.808153
C52	C	-4.042031	-0.310777	-0.802067
H53	H	-3.902082	-0.290901	-0.740776
H54	H	-4.129154	-0.350884	-0.765615
H55	H	-4.038805	-0.346300	-0.878276
C56	C	-4.026214	0.061452	-0.976079
H57	H	-3.946931	0.049232	-1.030353
H58	H	-4.131381	0.095191	-1.018474
H59	H	-3.933746	0.099962	-0.896588
H60	H	-3.942733	0.034761	-0.747118
H61	H	-4.205960	-0.034300	-0.766702
H62	H	-4.311933	-0.039312	-0.989049
