data_functionalizedCrystal
_audit_creation_method	'MofGen! by Chris Wilmer'
_symmetry_space_group_name_H-M	'P1'
_symmetry_Int_Tables_number	1
_symmetry_cell_setting	triclinic
loop_
_symmetry_equiv_pos_as_xyz
  x,y,z
_cell_length_a	17.699083
_cell_length_b	13.339070
_cell_length_c	16.176319
_cell_angle_alpha	89.996815
_cell_angle_beta	89.998611
_cell_angle_gamma	99.456154
loop_
_atom_site_label
_atom_site_type_symbol
_atom_site_fract_x
_atom_site_fract_y
_atom_site_fract_z
O1	O	1.031106	0.127864	-0.068625
O2	O	0.814244	0.144499	-0.068651
O3	O	0.897786	-0.011021	-0.068639
O4	O	0.947564	0.283384	-0.068637
O5	O	0.897768	-0.011031	0.068855
O6	O	0.814226	0.144489	0.068842
O7	O	1.031088	0.127854	0.068868
Cu8	Cu	0.922655	0.136171	0.081409
Cu9	Cu	0.922677	0.136182	-0.081192
O10	O	0.947546	0.283374	0.068856
C11	C	0.785912	0.143898	0.000092
C12	C	0.701516	0.142110	0.000082
C13	C	0.672191	0.233397	0.000082
C14	C	0.592891	0.231710	0.000093
C15	C	0.542918	0.138736	0.000097
C16	C	0.572248	0.047442	0.000099
C17	C	0.651546	0.049129	0.000094
C18	C	0.252446	0.040635	0.000119
C19	C	0.173143	0.038955	0.000122
C20	C	0.193791	0.223216	0.000118
C21	C	0.273089	0.224904	0.000113
C22	C	0.302412	0.133610	0.000120
C23	C	0.388398	0.135440	0.000110
C24	C	0.456933	0.136906	0.000101
C25	C	0.889369	-0.048694	0.000106
C26	C	0.864305	-0.160935	0.000100
C27	C	1.059185	-0.526207	0.000124
C28	C	1.082736	-0.420752	0.000134
C29	C	1.028130	-0.355792	0.000125
C30	C	0.949970	-0.396298	0.000106
C31	C	0.926417	-0.501763	0.000102
C32	C	0.895362	-0.331349	0.000104
C33	C	0.817202	-0.371855	0.000085
C34	C	0.793652	-0.477310	0.000080
C35	C	0.848258	-0.542269	0.000089
C36	C	0.918915	-0.225884	0.000108
C37	C	0.786147	-0.201441	0.000086
C38	C	0.762596	-0.306895	0.000076
C39	C	1.059420	0.128455	0.000123
C40	C	1.143816	0.130243	0.000128
C41	C	0.955963	0.321047	0.000110
C42	C	0.981027	0.433288	0.000110
N43	N	0.922646	0.136162	0.195775
N44	N	0.922691	0.136183	-0.195557
C45	C	0.959660	0.067326	0.239044
C46	C	0.959663	0.067324	0.325592
C47	C	0.922657	0.136165	0.368867
C48	C	0.885638	0.205005	0.325591
C49	C	0.885631	0.205000	0.239046
C50	C	0.885668	0.205024	0.674620
C51	C	0.885681	0.205025	0.761171
C52	C	0.959701	0.067348	0.761165
C53	C	0.959693	0.067343	0.674620
C54	C	0.922671	0.136179	0.631352
C55	C	0.922667	0.136178	0.537507
C56	C	0.922666	0.136172	0.462710
H57	H	0.313775	0.300613	0.000106
H58	H	0.569019	0.306046	0.000093
O59	O	0.280964	-0.048014	0.000261
C60	C	0.326232	-0.052553	0.071457
H61	H	0.308193	-0.000786	0.121232
H62	H	0.318002	-0.134024	0.095354
H63	H	0.389103	-0.026520	0.055355
H64	H	0.531553	-0.028259	0.000114
H65	H	0.855503	0.261053	0.360832
O66	O	0.124673	-0.051429	0.000021
C67	C	0.137754	-0.107062	-0.071193
H68	H	0.198266	-0.079647	-0.094937
H69	H	0.131020	-0.191288	-0.055170
H70	H	0.094557	-0.095237	-0.121057
H71	H	0.675420	-0.025206	0.000093
H72	H	0.730009	-0.510286	0.000071
O73	O	0.994812	-0.186423	0.000010
C74	C	1.012424	-0.126167	-0.071207
H75	H	0.958322	-0.099749	-0.094955
H76	H	1.057081	-0.057185	-0.055186
H77	H	1.036112	-0.172840	-0.121067
H78	H	1.047310	-0.269927	0.000134
H79	H	0.698956	-0.339890	0.000061
H80	H	1.146374	-0.387780	0.000151
O81	O	1.112122	-0.589450	0.000100
C82	C	1.074571	-0.691214	0.000119
H83	H	1.014310	-0.695105	-0.025925
H84	H	1.108021	-0.739104	-0.039788
H85	H	1.071018	-0.721722	0.066083
O86	O	0.849704	0.271990	0.632724
C87	C	0.817032	0.332734	0.689482
H88	H	0.848299	0.333825	0.751168
H89	H	0.822440	0.413502	0.664473
H90	H	0.753938	0.299997	0.698701
O91	O	0.995594	0.000330	0.803108
C92	C	0.962266	-0.099741	0.781981
H93	H	0.933127	-0.099565	0.719146
H94	H	1.008678	-0.149631	0.779018
H95	H	0.918043	-0.130945	0.830694
H96	H	0.829087	-0.628140	0.000077
O97	O	0.733196	-0.138206	0.000038
C98	C	0.770744	-0.036440	0.000062
H99	H	0.831015	-0.032543	-0.025958
H100	H	0.737308	0.011452	-0.039862
H101	H	0.774270	-0.005938	0.066025
H102	H	0.989798	0.011272	0.203815
H103	H	0.712875	0.309107	0.000078
H104	H	0.169907	0.297552	0.000118
H105	H	0.855544	0.261085	0.796405
H106	H	0.989802	0.011272	0.360821
O107	O	0.849670	0.271968	0.197139
C108	C	0.816993	0.332715	0.253891
H109	H	0.848257	0.333811	0.315580
H110	H	0.822401	0.413481	0.228878
H111	H	0.753899	0.299976	0.263107
H112	H	0.989830	0.011290	0.639387
