data_functionalizedCrystal
_audit_creation_method	'MofGen! by Chris Wilmer'
_symmetry_space_group_name_H-M	'P1'
_symmetry_Int_Tables_number	1
_symmetry_cell_setting	triclinic
loop_
_symmetry_equiv_pos_as_xyz
  x,y,z
_cell_length_a	6.817900
_cell_length_b	9.582860
_cell_length_c	17.982968
_cell_angle_alpha	93.503260
_cell_angle_beta	102.451960
_cell_angle_gamma	111.206767
loop_
_atom_site_label
_atom_site_type_symbol
_atom_site_fract_x
_atom_site_fract_y
_atom_site_fract_z
V1	V	-4.055304	-0.208457	-0.237408
V2	V	-3.555304	0.291543	0.262592
O3	O	-4.001168	0.008575	-0.233032
O4	O	-3.501168	0.508575	0.266968
O5	O	-4.046160	-0.411947	-0.235646
O6	O	-3.546160	0.088053	0.264354
O7	O	-4.001315	-0.205883	-0.341013
O8	O	-3.501315	0.294117	0.158987
O9	O	-4.046323	-0.198916	-0.126936
O10	O	-3.546323	0.301084	0.373064
V11	V	-4.534569	-0.182422	-0.224211
V12	V	-4.034569	0.317578	0.275789
O13	O	-4.325901	-0.265565	-0.266356
O14	O	-3.825901	0.234435	0.233644
O15	O	-4.714169	-0.125314	-0.195264
O16	O	-4.214169	0.374686	0.304736
O17	O	-4.320506	0.021068	-0.225973
O18	O	-3.820506	0.521068	0.274027
O19	O	-4.706102	-0.399454	-0.228587
O20	O	-4.206102	0.100546	0.271413
O21	O	-4.660946	-0.191963	-0.334683
O22	O	-4.160946	0.308037	0.165317
O23	O	-4.365352	-0.184996	-0.120607
O24	O	-3.865352	0.315004	0.379393
C25	C	-3.900891	-0.461534	-0.231865
C26	C	-3.400891	0.038466	0.268135
C27	C	-3.974665	-0.627894	-0.231115
C28	C	-3.474665	-0.127894	0.268885
C29	C	-3.843685	-0.198677	-0.366270
C30	C	-3.343685	0.301323	0.133730
C31	C	-3.881087	-0.197919	-0.450966
C32	C	-3.381087	0.302081	0.049034
C33	C	-4.082025	-0.205062	-0.494633
C34	C	-3.582025	0.294938	0.005367
C35	C	-4.117155	-0.204349	-0.574214
C36	C	-3.617155	0.295651	-0.074214
C37	C	-3.951349	-0.196504	-0.610128
C38	C	-3.451349	0.303496	-0.110128
C39	C	-3.750392	-0.189356	-0.566455
C40	C	-3.250392	0.310644	-0.066455
C41	C	-3.715260	-0.190058	-0.486874
C42	C	-3.215260	0.309942	0.013126
C43	C	-3.892073	-0.186522	-0.887394
C44	C	-3.392073	0.313478	-0.387394
C45	C	-3.927224	-0.185825	-0.966981
C46	C	-3.427224	0.314175	-0.466981
C47	C	-4.293968	-0.200813	-0.974734
C48	C	-3.793968	0.299187	-0.474734
C49	C	-4.258835	-0.201515	-0.895153
C50	C	-3.758835	0.298485	-0.395153
C51	C	-4.057879	-0.194359	-0.851487
C52	C	-3.557879	0.305641	-0.351487
C53	C	-4.019788	-0.195129	-0.765196
C54	C	-3.519788	0.304871	-0.265196
C55	C	-3.989443	-0.195744	-0.696418
C56	C	-3.489443	0.304256	-0.196418
C57	C	-4.129118	0.070647	-0.229752
C58	C	-3.629118	0.570647	0.270248
C59	C	-4.034583	0.237006	-0.230507
C60	C	-3.534583	0.737006	0.269493
C61	C	-4.186324	-0.192207	-0.095345
C62	C	-3.686324	0.307793	0.404655
C63	C	-4.128160	-0.192957	-0.010648
C64	C	-3.628160	0.307043	0.489352
H65	H	-4.280771	-0.210158	-0.609764
H66	H	-3.780771	0.289842	-0.109764
H67	H	-4.393859	-0.207911	-0.865917
H68	H	-3.893859	0.292089	-0.365917
H69	H	-4.217052	-0.211461	-0.465399
H70	H	-3.717052	0.288539	0.034601
H71	H	-4.457597	-0.206634	-1.010297
H72	H	-3.957597	0.293366	-0.510297
H73	H	-3.792192	-0.179432	-0.996218
H74	H	-3.292192	0.320568	-0.496218
H75	H	-3.728473	-0.180748	-0.851854
H76	H	-3.228473	0.319252	-0.351854
H77	H	-3.615389	-0.182959	-0.595701
H78	H	-3.115389	0.317041	-0.095701
H79	H	-3.551620	-0.184204	-0.451319
H80	H	-3.051620	0.315796	0.048681
