data_functionalizedCrystal
_audit_creation_method	'MofGen! by Chris Wilmer'
_symmetry_space_group_name_H-M	'P1'
_symmetry_Int_Tables_number	1
_symmetry_cell_setting	triclinic
loop_
_symmetry_equiv_pos_as_xyz
  x,y,z
_cell_length_a	14.519731
_cell_length_b	11.792241
_cell_length_c	10.868271
_cell_angle_alpha	89.999850
_cell_angle_beta	89.995592
_cell_angle_gamma	83.941134
loop_
_atom_site_label
_atom_site_type_symbol
_atom_site_fract_x
_atom_site_fract_y
_atom_site_fract_z
O1	O	1.224400	0.148896	-0.102311
O2	O	1.724400	0.648896	0.397689
O3	O	0.955990	0.166392	-0.102311
O4	O	1.455990	0.666392	0.397689
O5	O	1.096709	-0.007562	-0.102318
O6	O	1.596709	0.492438	0.397682
O7	O	1.083681	0.322850	-0.102304
O8	O	1.583681	0.822850	0.397696
O9	O	1.096697	-0.007569	0.102326
O10	O	1.596697	0.492431	0.602326
O11	O	0.955978	0.166385	0.102333
O12	O	1.455978	0.666385	0.602333
O13	O	1.224388	0.148889	0.102334
O14	O	1.724388	0.648889	0.602334
Zn15	Zn	1.090181	0.157636	0.134825
Zn16	Zn	1.590181	0.657636	0.634825
Zn17	Zn	1.090197	0.157645	-0.134803
Zn18	Zn	1.590197	0.657645	0.365197
O19	O	1.083670	0.322843	0.102341
O20	O	1.583670	0.822843	0.602341
C21	C	1.095884	-0.049852	-0.000001
C22	C	1.595884	0.450148	0.499999
C23	C	1.093435	-0.175852	-0.000014
C24	C	1.593435	0.324148	0.499986
C25	C	0.921622	0.165569	0.000011
C26	C	1.421622	0.665569	0.500011
C27	C	0.819232	0.163112	0.000010
C28	C	1.319232	0.663112	0.500010
C29	C	0.736081	0.161116	0.000005
C30	C	1.236081	0.661116	0.500005
C31	C	0.631763	0.158622	0.000004
C32	C	1.131763	0.658622	0.500004
C33	C	0.548617	0.156642	0.000005
C34	C	1.048617	0.656642	0.500005
C35	C	0.444292	0.154149	0.000002
C36	C	0.944292	0.654149	0.500002
C37	C	1.258757	0.149713	0.000009
C38	C	1.758757	0.649713	0.500009
C39	C	1.361146	0.152169	0.000002
C40	C	1.861146	0.652169	0.500002
C41	C	1.084494	0.365133	0.000020
C42	C	1.584494	0.865133	0.500020
C43	C	1.086943	0.491133	0.000026
C44	C	1.586943	0.991133	0.500026
N45	N	1.090178	0.157629	0.318839
N46	N	1.590178	0.657629	0.818839
C47	C	1.091447	0.721821	-0.000005
C48	C	1.591447	1.221821	0.499995
C49	C	1.088944	0.593450	0.000012
C50	C	1.588944	1.093450	0.500012
N51	N	1.090208	0.157643	-0.318817
N52	N	1.590208	0.657643	0.181183
C53	C	1.090192	0.157643	0.569845
C54	C	1.590192	0.657643	1.069845
C55	C	1.090181	0.157639	0.430168
C56	C	1.590181	0.657639	0.930168
