data_functionalizedCrystal
_audit_creation_method	'MofGen! by Chris Wilmer'
_symmetry_space_group_name_H-M	'P1'
_symmetry_Int_Tables_number	1
_symmetry_cell_setting	triclinic
loop_
_symmetry_equiv_pos_as_xyz
  x,y,z
_cell_length_a	12.759401
_cell_length_b	19.077174
_cell_length_c	12.759400
_cell_angle_alpha	92.275311
_cell_angle_beta	90.014845
_cell_angle_gamma	87.687685
loop_
_atom_site_label
_atom_site_type_symbol
_atom_site_fract_x
_atom_site_fract_y
_atom_site_fract_z
Zn1	Zn	1.630061	-0.397910	-0.442141
Zn2	Zn	1.622915	-0.280222	-0.610779
Zn3	Zn	1.447323	-0.280235	-0.435115
Zn4	Zn	1.454350	-0.397885	-0.617777
O5	O	1.538662	-0.339063	-0.526453
O6	O	1.776134	-0.382304	-0.464522
O7	O	1.593690	-0.181734	-0.581608
O8	O	1.471613	-0.295861	-0.289027
O9	O	1.770884	-0.295839	-0.588419
O10	O	1.605870	-0.382317	-0.294189
O11	O	1.464684	-0.181743	-0.452549
O12	O	1.301234	-0.295836	-0.459335
O13	O	1.483590	-0.496378	-0.600347
O14	O	1.306397	-0.382273	-0.593535
O15	O	1.612684	-0.496397	-0.471308
O16	O	1.600504	-0.295814	-0.758727
O17	O	1.476661	-0.382260	-0.763869
C18	C	1.265694	-0.339053	-0.526433
C19	C	1.148918	-0.339066	-0.526451
C20	C	1.096768	-0.383999	-0.596432
C21	C	0.987044	-0.384007	-0.596446
C22	C	0.981631	-0.294142	-0.456494
C23	C	1.091353	-0.294138	-0.456476
C24	C	1.099892	-0.435880	-0.677236
C25	C	0.990168	-0.435888	-0.677249
C26	C	1.549718	-0.522639	-0.537392
C27	C	1.554430	-0.600868	-0.542053
C28	C	1.489480	-0.637625	-0.477051
C29	C	1.493903	-0.711130	-0.481440
C30	C	1.563282	-0.747876	-0.550826
C31	C	1.628235	-0.711114	-0.615836
C32	C	1.623806	-0.637611	-0.611452
C33	C	1.583725	-0.967707	-0.571149
C34	C	1.588152	-1.041216	-0.575526
C35	C	1.453817	-1.041226	-0.441130
C36	C	1.449399	-0.967721	-0.436747
C37	C	1.514348	-0.930966	-0.501761
N38	N	1.567807	-0.823010	-0.555312
N39	N	1.509817	-0.855833	-0.497280
C40	C	1.812696	-0.339073	-0.526474
C41	C	1.929473	-0.339077	-0.526483
C42	C	1.538599	-0.339048	-0.799419
C43	C	1.538669	-0.339066	-0.916197
C44	C	1.527709	-0.156201	-0.515481
C45	C	1.523201	-0.077972	-0.510523
C46	C	1.603232	-0.294103	-0.968350
C47	C	1.603298	-0.294124	-1.078075
C48	C	1.474229	-0.384074	-1.083485
C49	C	1.474170	-0.384055	-0.973762
C50	C	1.677746	-0.242169	-0.965227
C51	C	1.677812	-0.242191	-1.074952
C52	C	1.538755	-0.339093	-0.252421
C53	C	1.538795	-0.339106	-0.135645
H54	H	0.959271	-0.487706	-0.651323
H55	H	1.652813	-0.187673	-1.101535
O56	O	1.143710	-0.508113	-0.652835
H57	H	1.191836	-0.504678	-0.580473
H58	H	1.133810	-0.257554	-0.399483
O59	O	1.383782	-1.080873	-0.371004
H60	H	1.332322	-1.114356	-0.420008
H61	H	0.959494	-0.421195	-0.757715
H62	H	1.421608	-0.420674	-0.931301
O63	O	1.414648	-0.597996	-0.402207
H64	H	1.459675	-0.564523	-0.346755
O65	O	1.662978	-1.080852	-0.650377
H66	H	1.744593	-1.066744	-0.631538
O67	O	1.781756	-0.268112	-1.121484
H68	H	1.769908	-0.315280	-1.173215
H69	H	0.934748	-0.257564	-0.399522
O70	O	1.423859	-0.750777	-0.411321
H71	H	1.374884	-0.712876	-0.362324
O72	O	1.374588	-0.928086	-0.361890
H73	H	1.330168	-0.965995	-0.317423
H74	H	1.421717	-0.420703	-1.130368
O75	O	1.693863	-0.597967	-0.681564
H76	H	1.679120	-0.540682	-0.666868
O77	O	1.143409	-0.409899	-0.777997
H78	H	1.077747	-0.396131	-0.831435
O79	O	1.635064	-0.173554	-0.916125
H80	H	1.636767	-0.176369	-0.829416
H81	H	1.636600	-0.937790	-0.624099
H82	H	1.759965	-0.256807	-0.936250
H83	H	1.684720	-0.741039	-0.672338
