data_functionalizedCrystal
_audit_creation_method	'MofGen! by Chris Wilmer'
_symmetry_space_group_name_H-M	'P1'
_symmetry_Int_Tables_number	1
_symmetry_cell_setting	triclinic
loop_
_symmetry_equiv_pos_as_xyz
  x,y,z
_cell_length_a	14.519709
_cell_length_b	13.596369
_cell_length_c	11.792254
_cell_angle_alpha	90.000552
_cell_angle_beta	83.939371
_cell_angle_gamma	90.000316
loop_
_atom_site_label
_atom_site_type_symbol
_atom_site_fract_x
_atom_site_fract_y
_atom_site_fract_z
O1	O	1.224420	0.081664	0.148772
O2	O	1.474420	0.331664	0.398772
O3	O	1.724420	0.581664	0.648772
O4	O	1.974420	0.831664	0.898772
O5	O	0.956008	0.081694	0.166293
O6	O	1.206008	0.331694	0.416293
O7	O	1.456008	0.581694	0.666293
O8	O	1.706008	0.831694	0.916293
O9	O	1.096722	0.081671	-0.007673
O10	O	1.346722	0.331671	0.242327
O11	O	1.596722	0.581671	0.492327
O12	O	1.846722	0.831671	0.742327
O13	O	1.083706	0.081686	0.322738
O14	O	1.333706	0.331686	0.572738
O15	O	1.583706	0.581686	0.822738
O16	O	1.833706	0.831686	1.072738
O17	O	1.096704	-0.081912	-0.007664
O18	O	1.346704	0.168088	0.242336
O19	O	1.596704	0.418088	0.492336
O20	O	1.846704	0.668088	0.742336
O21	O	0.955991	-0.081889	0.166302
O22	O	1.205991	0.168111	0.416302
O23	O	1.455991	0.418111	0.666302
O24	O	1.705991	0.668111	0.916302
O25	O	1.224403	-0.081919	0.148781
O26	O	1.474403	0.168081	0.398781
O27	O	1.724403	0.418081	0.648781
O28	O	1.974403	0.668081	0.898781
Zn29	Zn	1.090194	-0.107876	0.157543
Zn30	Zn	1.340194	0.142124	0.407543
Zn31	Zn	1.590194	0.392124	0.657543
Zn32	Zn	1.840194	0.642124	0.907543
Zn33	Zn	1.090217	0.107651	0.157531
Zn34	Zn	1.340217	0.357651	0.407531
Zn35	Zn	1.590217	0.607651	0.657531
Zn36	Zn	1.840217	0.857651	0.907531
O37	O	1.083689	-0.081896	0.322748
O38	O	1.333689	0.168104	0.572748
O39	O	1.583689	0.418104	0.822748
O40	O	1.833689	0.668104	1.072748
C41	C	0.921636	-0.000094	0.165481
C42	C	1.171636	0.249906	0.415481
C43	C	1.421636	0.499906	0.665481
C44	C	1.671636	0.749906	0.915481
C45	C	0.819246	-0.000083	0.163034
C46	C	1.069246	0.249917	0.413034
C47	C	1.319246	0.499917	0.663034
C48	C	1.569246	0.749917	0.913034
N49	N	1.090185	-0.254968	0.157551
N50	N	1.340185	-0.004968	0.407551
N51	N	1.590185	0.245032	0.657551
N52	N	1.840185	0.495032	0.907551
C53	C	0.444317	-0.000128	0.154026
C54	C	0.694317	0.249872	0.404026
C55	C	0.944317	0.499872	0.654026
C56	C	1.194317	0.749872	0.904026
C57	C	0.548634	-0.000115	0.156528
C58	C	0.798634	0.249885	0.406528
C59	C	1.048634	0.499885	0.656528
C60	C	1.298634	0.749885	0.906528
C61	C	0.631778	-0.000104	0.158530
C62	C	0.881778	0.249896	0.408530
C63	C	1.131778	0.499896	0.658530
C64	C	1.381778	0.749896	0.908530
C65	C	0.736102	-0.000093	0.161032
C66	C	0.986102	0.249907	0.411032
C67	C	1.236102	0.499907	0.661032
C68	C	1.486102	0.749907	0.911032
C69	C	1.090190	-0.343966	0.157554
C70	C	1.340190	-0.093966	0.407554
C71	C	1.590190	0.156034	0.657554
C72	C	1.840190	0.406034	0.907554
C73	C	1.090199	-0.455618	0.157546
C74	C	1.340199	-0.205618	0.407546
C75	C	1.590199	0.044382	0.657546
C76	C	1.840199	0.294382	0.907546
C77	C	1.090211	-0.544608	0.157533
C78	C	1.340211	-0.294608	0.407533
C79	C	1.590211	-0.044608	0.657533
C80	C	1.840211	0.205392	0.907533
C81	C	1.090221	-0.656267	0.157527
C82	C	1.340221	-0.406267	0.407527
C83	C	1.590221	-0.156267	0.657527
C84	C	1.840221	0.093733	0.907527
C85	C	1.258774	-0.000129	0.149593
C86	C	1.508774	0.249871	0.399593
C87	C	1.758774	0.499871	0.649593
C88	C	2.008774	0.749871	0.899593
C89	C	1.361164	-0.000134	0.152040
C90	C	1.611164	0.249866	0.402040
C91	C	1.861164	0.499866	0.652040
C92	C	2.111164	0.749866	0.902040
C93	C	1.095893	-0.000120	-0.049955
C94	C	1.345893	0.249880	0.200045
C95	C	1.595893	0.499880	0.450045
C96	C	1.845893	0.749880	0.700045
C97	C	1.093439	-0.000119	-0.175954
C98	C	1.343439	0.249881	0.074046
C99	C	1.593439	0.499881	0.324046
C100	C	1.843439	0.749881	0.574046
N101	N	1.090233	0.254743	0.157514
N102	N	1.340233	0.504743	0.407514
N103	N	1.590233	0.754743	0.657514
N104	N	1.840233	1.004743	0.907514
C105	C	1.091445	-0.000115	-0.278280
C106	C	1.341445	0.249885	-0.028280
C107	C	1.591445	0.499885	0.221720
C108	C	1.841445	0.749885	0.471720
C109	C	1.088952	-0.000106	-0.406652
C110	C	1.338952	0.249894	-0.156652
C111	C	1.588952	0.499894	0.093348
C112	C	1.838952	0.749894	0.343348
C113	C	1.084518	-0.000103	0.365029
C114	C	1.334518	0.249897	0.615029
C115	C	1.584518	0.499897	0.865029
C116	C	1.834518	0.749897	1.115029
C117	C	1.086972	-0.000098	0.491028
C118	C	1.336972	0.249902	0.741028
C119	C	1.586972	0.499902	0.991028
C120	C	1.836972	0.749902	1.241028
