data_functionalizedCrystal
_audit_creation_method	'MofGen! by Chris Wilmer'
_symmetry_space_group_name_H-M	'P1'
_symmetry_Int_Tables_number	1
_symmetry_cell_setting	triclinic
loop_
_symmetry_equiv_pos_as_xyz
  x,y,z
_cell_length_a	16.992694
_cell_length_b	27.732048
_cell_length_c	16.053802
_cell_angle_alpha	92.539157
_cell_angle_beta	87.249047
_cell_angle_gamma	86.655439
loop_
_atom_site_label
_atom_site_type_symbol
_atom_site_fract_x
_atom_site_fract_y
_atom_site_fract_z
O1	O	1.042477	0.100541	-0.069340
O2	O	1.542477	0.600541	0.430660
O3	O	0.814206	0.099416	-0.069364
O4	O	1.314206	0.599416	0.430636
O5	O	0.935430	0.029889	-0.069335
O6	O	1.435430	0.529889	0.430665
O7	O	0.921253	0.170068	-0.069368
O8	O	1.421253	0.670068	0.430632
O9	O	0.928758	0.033699	0.069522
O10	O	1.428758	0.533699	0.569522
O11	O	0.807534	0.103227	0.069493
O12	O	1.307534	0.603227	0.569493
O13	O	1.035804	0.104351	0.069518
O14	O	1.535804	0.604351	0.569518
Zn15	Zn	0.920610	0.104394	0.091552
Zn16	Zn	1.420610	0.604394	0.591552
Zn17	Zn	0.929401	0.099374	-0.091398
Zn18	Zn	1.429401	0.599374	0.408602
O19	O	0.914580	0.173879	0.069489
O20	O	1.414580	0.673879	0.569489
C21	C	0.781675	0.099876	0.000062
C22	C	1.281675	0.599876	0.500062
C23	C	0.694684	0.095561	0.000053
C24	C	1.194684	0.595561	0.500053
C25	C	0.643939	0.137184	0.000044
C26	C	1.143939	0.637184	0.500044
C27	C	0.562201	0.133129	0.000056
C28	C	1.062201	0.633129	0.500056
C29	C	0.531209	0.087449	0.000072
C30	C	1.031209	0.587449	0.500072
C31	C	0.581960	0.045823	0.000084
C32	C	1.081960	0.545823	0.500084
C33	C	0.663696	0.049880	0.000077
C34	C	1.163696	0.549880	0.500077
C35	C	0.287814	0.070636	0.000098
C36	C	0.787814	0.570636	0.500098
C37	C	0.206072	0.066583	0.000103
C38	C	0.706072	0.566583	0.500103
C39	C	0.186318	0.153889	0.000077
C40	C	0.686318	0.653889	0.500077
C41	C	0.268057	0.157941	0.000065
C42	C	0.768057	0.657941	0.500065
C43	C	0.318800	0.116315	0.000081
C44	C	0.818800	0.616315	0.500081
N45	N	0.447660	0.083302	0.000082
N46	N	0.947660	0.583302	0.500082
N47	N	0.402348	0.120463	0.000077
N48	N	0.902348	0.620463	0.500077
C49	C	0.931796	0.013774	0.000096
C50	C	1.431796	0.513774	0.500096
C51	C	0.930900	-0.039919	0.000103
C52	C	1.430900	0.460081	0.500103
C53	C	0.996895	-0.375882	0.000067
C54	C	1.496895	0.124118	0.500067
C55	C	0.993571	-0.577686	0.000055
C56	C	1.493571	-0.077686	0.500055
O57	O	1.053919	-0.606333	0.000025
O58	O	1.553919	-0.106333	0.500025
N59	N	0.921689	-0.599917	0.000048
N60	N	1.421689	-0.099917	0.500048
C61	C	0.850634	-0.571695	0.000038
C62	C	1.350634	-0.071695	0.500038
O63	O	0.789419	-0.595235	0.000024
O64	O	1.289419	-0.095235	0.500024
C65	C	0.853960	-0.369893	0.000045
C66	C	1.353960	0.130107	0.500045
C67	C	0.925846	-0.347663	0.000060
C68	C	1.425846	0.152337	0.500060
C69	C	1.068775	-0.353652	0.000081
C70	C	1.568775	0.146348	0.500081
C71	C	1.069606	-0.303204	0.000089
C72	C	1.569606	0.196796	0.500089
C73	C	0.998556	-0.274986	0.000082
C74	C	1.498556	0.225014	0.500082
C75	C	0.926676	-0.297215	0.000067
C76	C	1.426676	0.202785	0.500067
C77	C	0.782906	-0.341671	0.000029
C78	C	1.282906	0.158329	0.500029
C79	C	0.783744	-0.291218	0.000029
C80	C	1.283744	0.208782	0.500029
C81	C	0.855630	-0.268989	0.000044
C82	C	1.355630	0.231011	0.500044
C83	C	0.856457	-0.218549	0.000068
C84	C	1.356457	0.281451	0.500068
N85	N	0.928338	-0.196317	0.000075
N86	N	1.428338	0.303683	0.500075
C87	C	0.999388	-0.224535	0.000082
C88	C	1.499388	0.275465	0.500082
C89	C	0.848893	-0.677645	0.000037
C90	C	1.348893	-0.177645	0.500037
C91	C	0.848061	-0.728095	0.000037
C92	C	1.348061	-0.228095	0.500037
C93	C	0.990998	-0.734082	0.000052
C94	C	1.490998	-0.234082	0.500052
C95	C	0.991829	-0.683631	0.000058
C96	C	1.491829	-0.183631	0.500058
C97	C	0.920775	-0.655413	0.000044
C98	C	1.420775	-0.155413	0.500044
C99	C	1.001126	-0.118591	0.000098
C100	C	1.501126	0.381409	0.500098
C101	C	1.001949	-0.068138	0.000109
C102	C	1.501949	0.431862	0.500109
C103	C	0.859013	-0.062155	0.000090
C104	C	1.359013	0.437845	0.500090
C105	C	0.858189	-0.112603	0.000084
C106	C	1.358189	0.387397	0.500084
C107	C	0.929252	-0.140820	0.000085
C108	C	1.429252	0.359180	0.500085
O109	O	0.796141	-0.189872	0.000089
O110	O	1.296141	0.310128	0.500089
O111	O	1.060595	-0.200987	0.000078
O112	O	1.560595	0.299013	0.500078
C113	C	0.996065	-0.426330	0.000059
C114	C	1.496065	0.073670	0.500059
C115	C	0.924185	-0.448559	0.000045
C116	C	1.424185	0.051441	0.500045
C117	C	0.853136	-0.420341	0.000038
C118	C	1.353136	0.079659	0.500038
C119	C	0.923354	-0.499010	0.000045
C120	C	1.423354	0.000990	0.500045
C121	C	0.994403	-0.527228	0.000052
C122	C	1.494403	-0.027228	0.500052
C123	C	1.066285	-0.504997	0.000059
C124	C	1.566285	-0.004997	0.500059
C125	C	1.067115	-0.454549	0.000066
C126	C	1.567115	0.045451	0.500066
C127	C	0.781254	-0.442573	0.000031
C128	C	1.281254	0.057427	0.500031
C129	C	0.780430	-0.493021	0.000024
C130	C	1.280430	0.006979	0.500024
C131	C	0.851480	-0.521240	0.000031
C132	C	1.351480	-0.021240	0.500031
C133	C	1.068336	0.103892	0.000090
C134	C	1.568336	0.603892	0.500090
C135	C	1.155327	0.108206	0.000093
C136	C	1.655327	0.608206	0.500093
C137	C	0.918214	0.189993	0.000056
C138	C	1.418214	0.689993	0.500056
C139	C	0.919111	0.243686	0.000044
C140	C	1.419111	0.743686	0.500044
N141	N	0.914616	0.107820	0.216411
N142	N	1.414616	0.607820	0.716411
N143	N	0.935401	0.095944	-0.216257
N144	N	1.435401	0.595944	0.283743
C145	C	0.966215	0.078248	0.260117
C146	C	1.466215	0.578248	0.760117
C147	C	0.962030	0.080649	0.347523
C148	C	1.462030	0.580649	0.847523
C149	C	0.906248	0.112625	0.391221
C150	C	1.406248	0.612625	0.891221
C151	C	0.854643	0.142199	0.347509
C152	C	1.354643	0.642199	0.847509
C153	C	0.858825	0.139794	0.260104
C154	C	1.358825	0.639794	0.760104
C155	C	0.887978	0.123113	0.652626
C156	C	1.387978	0.623113	1.152626
C157	C	0.883801	0.125516	0.740037
C158	C	1.383801	0.625516	1.240037
C159	C	0.991188	0.063966	0.740045
C160	C	1.491188	0.563966	1.240045
C161	C	0.995369	0.061567	0.652639
C162	C	1.495369	0.561567	1.152639
C163	C	0.943761	0.091138	0.608934
C164	C	1.443761	0.591138	1.108934
N165	N	0.901970	0.115082	0.480564
N166	N	1.401970	0.615082	0.980564
N167	N	0.948036	0.088679	0.519593
N168	N	1.448036	0.588679	1.019593
H169	H	0.180842	0.029383	0.000114
H170	H	0.680842	0.529383	0.500114
H171	H	0.724370	-0.359762	0.000012
H172	H	1.224370	0.140238	0.500012
O173	O	1.049284	0.030284	0.610289
O174	O	1.549284	0.530284	1.110289
C175	C	1.009792	-0.002538	0.560035
C176	C	1.509792	0.497462	1.060035
H177	H	0.949022	0.014129	0.546761
H178	H	1.449022	0.514129	1.046761
H179	H	1.045522	-0.010901	0.498643
H180	H	1.545522	0.489099	0.998643
H181	H	1.002900	-0.037383	0.594060
H182	H	1.502900	0.462617	1.094060
O183	O	1.070211	-0.145948	-0.000008
O184	O	1.570211	0.354052	0.499992
C185	C	1.117340	-0.137412	-0.071924
C186	C	1.617340	0.362588	0.428076
H187	H	1.098766	-0.100587	-0.095901
H188	H	1.598766	0.399413	0.404099
H189	H	1.181969	-0.137976	-0.055737
H190	H	1.681969	0.362024	0.444263
H191	H	1.109397	-0.166769	-0.122286
H192	H	1.609397	0.333231	0.377714
O193	O	0.779912	-0.650182	0.000140
O194	O	1.279912	-0.150182	0.500140
C195	C	0.772647	-0.618861	0.072065
C196	C	1.272647	-0.118861	0.572065
H197	H	0.833669	-0.613242	0.096046
H198	H	1.333669	-0.113242	0.596046
H199	H	0.743752	-0.582562	0.055889
H200	H	1.243752	-0.082562	0.555889
H201	H	0.734645	-0.635452	0.122421
H202	H	1.234645	-0.135452	0.622421
H203	H	1.033204	0.039890	0.775637
H204	H	1.533204	0.539890	1.275637
O205	O	1.071739	-0.046493	0.000009
O206	O	1.571739	0.453507	0.500009
C207	C	1.079963	-0.019464	-0.071913
C208	C	1.579963	0.480536	0.428087
H209	H	1.019189	-0.009959	-0.095893
H210	H	1.519189	0.490041	0.404107
H211	H	1.110021	0.015185	-0.055731
H212	H	1.610021	0.515185	0.444269
H213	H	1.117326	-0.041763	-0.122270
H214	H	1.617326	0.458237	0.377730
H215	H	0.801167	-0.039170	0.000088
H216	H	1.301167	0.460830	0.500088
H217	H	0.669166	0.174382	0.000031
H218	H	1.169166	0.674382	0.500031
O219	O	0.808629	0.168452	0.217608
O220	O	1.308629	0.668452	0.717608
C221	C	0.763029	0.139301	0.167054
C222	C	1.263029	0.639301	0.667054
H223	H	0.760911	0.101872	0.193412
H224	H	1.260911	0.601872	0.693412
H225	H	0.700545	0.156557	0.166062
H226	H	1.200545	0.656557	0.666062
H227	H	0.790756	0.135903	0.100810
H228	H	1.290756	0.635903	0.600810
O229	O	0.714765	-0.263754	0.000128
O230	O	1.214765	0.236246	0.500128
C231	C	0.707495	-0.232435	0.072057
C232	C	1.207495	0.267565	0.572057
H233	H	0.768515	-0.226819	0.096045
H234	H	1.268515	0.273181	0.596045
H235	H	0.678605	-0.196134	0.055881
H236	H	1.178605	0.303866	0.555881
H237	H	0.669487	-0.249027	0.122406
H238	H	1.169487	0.250973	0.622406
O239	O	1.012136	0.051856	0.389882
O240	O	1.512136	0.551856	0.889882
C241	C	1.001002	0.002944	0.368561
C242	C	1.501002	0.502944	0.868561
H243	H	0.973823	0.000079	0.305107
H244	H	1.473823	0.500079	0.805107
H245	H	1.060349	-0.018628	0.365563
H246	H	1.560349	0.481372	0.865563
H247	H	0.959832	-0.012171	0.417768
H248	H	1.459832	0.487829	0.917768
H249	H	0.144995	0.187778	0.000065
H250	H	0.644995	0.687778	0.500065
O251	O	0.829534	0.156586	0.782357
O252	O	1.329534	0.656586	1.282357
C253	C	0.784889	0.182178	0.725041
C254	C	1.284889	0.682178	1.225041
H255	H	0.787231	0.160624	0.662742
H256	H	1.287231	0.660624	1.162742
H257	H	0.721004	0.187794	0.750304
H258	H	1.221004	0.687794	1.250304
H259	H	0.810328	0.218809	0.715729
H260	H	1.310328	0.718809	1.215729
O261	O	0.800348	0.173205	0.389919
O262	O	1.300348	0.673205	0.889919
C263	C	0.723889	0.161745	0.368562
C264	C	1.223889	0.661745	0.868562
H265	H	0.725130	0.122387	0.344550
H266	H	1.225130	0.622387	0.844550
H267	H	0.681741	0.167347	0.426047
H268	H	1.181741	0.667347	0.926047
H269	H	0.702968	0.186231	0.317821
H270	H	1.202968	0.686231	0.817821
O271	O	0.513022	0.173609	0.000009
O272	O	1.013022	0.673609	0.500009
C273	C	0.557902	0.214797	0.000010
C274	C	1.057902	0.714797	0.500010
H275	H	0.620320	0.204168	-0.026283
H276	H	1.120320	0.704168	0.473717
H277	H	0.529306	0.243048	-0.040310
H278	H	1.029306	0.743048	0.459690
H279	H	0.560370	0.230480	0.066621
H280	H	1.060370	0.730480	0.566621
O281	O	0.298027	0.202353	0.000092
O282	O	0.798027	0.702353	0.500092
C283	C	0.235711	0.238221	0.000066
C284	C	0.735711	0.738221	0.500066
H285	H	0.179083	0.223255	0.026362
H286	H	0.679083	0.723255	0.526362
H287	H	0.250489	0.271030	0.040370
H288	H	0.750489	0.771030	0.540370
H289	H	0.227172	0.249384	-0.066554
H290	H	0.727172	0.749384	0.433446
H291	H	0.556720	0.008630	0.000109
H292	H	1.056720	0.508630	0.500109
O293	O	1.137016	-0.433038	0.000038
O294	O	1.637016	0.066962	0.500038
C295	C	1.199538	-0.468770	0.000063
C296	C	1.699538	0.031230	0.500063
H297	H	1.179247	-0.504571	-0.026229
H298	H	1.679247	-0.004571	0.473771
H299	H	1.251703	-0.457396	-0.040246
H300	H	1.751703	0.042604	0.459754
H301	H	1.218224	-0.473237	0.066682
H302	H	1.718224	0.026763	0.566682
H303	H	1.124136	-0.527981	0.000068
H304	H	1.624136	-0.027981	0.500068
H305	H	0.329120	0.036741	0.000112
H306	H	0.829120	0.536741	0.500112
H307	H	1.128142	-0.285110	0.000098
H308	H	1.628142	0.214890	0.500098
O309	O	0.712883	0.009397	0.000045
O310	O	1.212883	0.509397	0.500045
C311	C	0.668003	-0.031791	0.000079
C312	C	1.168003	0.468209	0.500079
H313	H	0.608102	-0.022607	-0.026209
H314	H	1.108102	0.477393	0.473791
H315	H	0.700460	-0.062255	-0.040229
H316	H	1.200460	0.437745	0.459771
H317	H	0.659157	-0.043816	0.066700
H318	H	1.159157	0.456184	0.566700
H319	H	1.126636	-0.376623	0.000084
H320	H	1.626636	0.123377	0.500084
H321	H	1.050364	-0.665535	0.000070
H322	H	1.550364	-0.165535	0.500070
O323	O	0.837968	0.151867	0.610092
O324	O	1.337968	0.651867	1.110092
C325	C	0.881996	0.181928	0.559534
C326	C	1.381996	0.681928	1.059534
H327	H	0.944177	0.164712	0.546429
H328	H	1.444177	0.664712	1.046429
H329	H	0.852129	0.186615	0.498078
H330	H	1.352129	0.686615	0.998078
H331	H	0.885285	0.218766	0.593212
H332	H	1.385285	0.718766	1.093212
H333	H	1.048850	-0.757066	0.000058
H334	H	1.548850	-0.257066	0.500058
O335	O	0.788417	-0.134259	-0.000035
O336	O	1.288417	0.365741	0.499965
C337	C	0.787109	-0.165215	-0.071970
C338	C	1.287109	0.334785	0.428030
H339	H	0.850187	-0.176026	-0.095940
H340	H	1.350187	0.323974	0.404060
H341	H	0.755502	-0.198984	-0.055810
H342	H	1.255502	0.301016	0.444190
H343	H	0.754581	-0.145667	-0.122327
H344	H	1.254581	0.354333	0.377673
H345	H	0.721887	-0.511115	0.000019
H346	H	1.221887	-0.011115	0.500019
O347	O	0.778164	-0.749608	-0.000006
O348	O	1.278164	-0.249608	0.499994
C349	C	0.715637	-0.713877	0.000007
C350	C	1.215637	-0.213877	0.500007
H351	H	0.738452	-0.679513	-0.026276
H352	H	1.238452	-0.179513	0.473724
H353	H	0.667349	-0.727458	-0.040315
H354	H	1.167349	-0.227458	0.459685
H355	H	0.690549	-0.705767	0.066621
H356	H	1.190549	-0.205767	0.566621
H357	H	0.723396	-0.419602	0.000024
H358	H	1.223396	0.080398	0.500024
O359	O	1.020284	0.047139	0.217600
O360	O	1.520284	0.547139	0.717600
C361	C	0.981065	0.014300	0.167103
C362	C	1.481065	0.514300	0.667103
H363	H	0.920150	0.030810	0.153989
H364	H	1.420150	0.530810	0.653989
H365	H	1.016810	0.006210	0.105648
H366	H	1.516810	0.506210	0.605648
H367	H	0.974523	-0.020673	0.200839
H368	H	1.474523	0.479327	0.700839
