data_functionalizedCrystal
_audit_creation_method	'MofGen! by Chris Wilmer'
_symmetry_space_group_name_H-M	'P1'
_symmetry_Int_Tables_number	1
_symmetry_cell_setting	triclinic
loop_
_symmetry_equiv_pos_as_xyz
  x,y,z
_cell_length_a	11.169417
_cell_length_b	13.897448
_cell_length_c	11.169409
_cell_angle_alpha	89.967011
_cell_angle_beta	90.019824
_cell_angle_gamma	89.979553
loop_
_atom_site_label
_atom_site_type_symbol
_atom_site_fract_x
_atom_site_fract_y
_atom_site_fract_z
Zn1	Zn	1.834885	0.383914	0.678537
Zn2	Zn	2.168219	0.717248	1.011871
Zn3	Zn	2.501552	1.050581	1.345204
Zn4	Zn	1.834742	0.545250	0.477852
Zn5	Zn	2.168076	0.878583	0.811185
Zn6	Zn	2.501409	1.211917	1.144519
Zn7	Zn	1.634171	0.383973	0.477872
Zn8	Zn	1.967505	0.717306	0.811205
Zn9	Zn	2.300838	1.050640	1.144538
Zn10	Zn	1.634146	0.545171	0.678497
Zn11	Zn	1.967480	0.878505	1.011830
Zn12	Zn	2.300813	1.211838	1.345163
O13	O	1.734486	0.464577	0.578189
O14	O	2.067820	0.797910	0.911523
O15	O	2.401153	1.131244	1.244856
O16	O	2.002816	0.405324	0.651925
O17	O	2.336149	0.738657	0.985258
O18	O	2.669483	1.071991	1.318591
O19	O	1.808087	0.523914	0.309905
O20	O	2.141420	0.857247	0.643238
O21	O	2.474753	1.190580	0.976571
O22	O	1.660867	0.248984	0.504516
O23	O	1.994200	0.582317	0.837849
O24	O	2.327533	0.915650	1.171182
O25	O	2.002711	0.523857	0.504482
O26	O	2.336044	0.857190	0.837815
O27	O	2.669378	1.190523	1.171149
O28	O	1.808330	0.248940	0.651944
O29	O	2.141664	0.582274	0.985277
O30	O	2.474997	0.915607	1.318610
O31	O	1.660728	0.405424	0.309919
O32	O	1.994061	0.738758	0.643253
O33	O	2.327395	1.072091	0.976586
O34	O	1.466218	0.405348	0.504476
O35	O	1.799552	0.738681	0.837810
O36	O	2.132885	1.072015	1.171143
O37	O	1.660824	0.523723	0.846452
O38	O	1.994158	0.857056	1.179785
O39	O	2.327491	1.190389	1.513119
O40	O	1.466200	0.523780	0.651875
O41	O	1.799533	0.857113	0.985208
O42	O	2.132867	1.190446	1.318541
O43	O	1.808306	0.405248	0.846482
O44	O	2.141640	0.738581	1.179815
O45	O	2.474973	1.071914	1.513148
O46	O	1.808063	0.680221	0.504443
O47	O	2.141396	1.013554	0.837776
O48	O	2.474729	1.346888	1.171109
O49	O	1.660686	0.680163	0.651856
O50	O	1.994019	1.013497	0.985189
O51	O	2.327352	1.346830	1.318522
C52	C	1.422662	0.464562	0.578174
C53	C	1.755995	0.797896	0.911507
C54	C	2.089328	1.131229	1.244841
C55	C	1.289262	0.464579	0.578196
C56	C	1.622595	0.797913	0.911529
C57	C	1.955928	1.131246	1.244863
C58	C	1.734389	0.715191	0.578169
C59	C	2.067722	1.048525	0.911502
C60	C	2.401055	1.381858	1.244835
C61	C	1.734457	0.822405	0.578200
C62	C	2.067790	1.155739	0.911533
C63	C	2.401123	1.489072	1.244867
C64	C	1.734575	1.018700	0.578286
C65	C	2.067908	1.352034	0.911620
C66	C	2.401241	1.685367	1.244953
C67	C	1.734506	0.909468	0.578242
C68	C	2.067839	1.242801	0.911575
C69	C	2.401172	1.576135	1.244909
C70	C	2.047529	0.464592	0.578206
C71	C	2.380862	0.797926	0.911539
C72	C	2.714195	1.131259	1.244872
C73	C	2.180929	0.464599	0.578213
C74	C	2.514262	0.797932	0.911546
C75	C	2.847595	1.131266	1.244879
C76	C	1.734579	0.464470	0.891232
C77	C	2.067912	0.797803	1.224565
C78	C	2.401245	1.131137	1.557899
C79	C	1.734618	0.464424	1.024632
C80	C	2.067951	0.797758	1.357965
C81	C	2.401284	1.131091	1.691299
C82	C	1.734607	1.212984	0.578251
C83	C	2.067940	1.546317	0.911584
C84	C	2.401274	1.879651	1.244917
C85	C	1.734632	1.105770	0.578313
C86	C	2.067966	1.439103	0.911646
C87	C	2.401299	1.772437	1.244979
C88	C	1.734464	0.464614	0.266365
C89	C	2.067797	0.797948	0.599698
C90	C	2.401130	1.131281	0.933031
C91	C	1.734657	0.464388	0.132965
C92	C	2.067990	0.797721	0.466299
C93	C	2.401324	1.131055	0.799632
