data_functionalizedCrystal
_audit_creation_method	'MofGen! by Chris Wilmer'
_symmetry_space_group_name_H-M	'P1'
_symmetry_Int_Tables_number	1
_symmetry_cell_setting	triclinic
loop_
_symmetry_equiv_pos_as_xyz
  x,y,z
_cell_length_a	6.817900
_cell_length_b	13.694049
_cell_length_c	19.453114
_cell_angle_alpha	80.049833
_cell_angle_beta	101.709288
_cell_angle_gamma	106.285429
loop_
_atom_site_label
_atom_site_type_symbol
_atom_site_fract_x
_atom_site_fract_y
_atom_site_fract_z
V1	V	-4.004928	-0.141192	-0.191874
O2	O	-3.994818	0.005700	-0.215925
O3	O	-3.954709	-0.278916	-0.163918
O4	O	-3.947866	-0.139496	-0.287713
O5	O	-4.001708	-0.134685	-0.091273
V6	V	-4.489914	-0.123566	-0.183078
O7	O	-4.262977	-0.179856	-0.211169
O8	O	-4.682063	-0.084901	-0.163784
O9	O	-4.316927	0.014158	-0.211035
O10	O	-4.617422	-0.270457	-0.159028
O11	O	-4.610531	-0.130072	-0.283680
O12	O	-4.323770	-0.125261	-0.087240
C13	C	-3.799547	-0.312475	-0.154016
C14	C	-3.839716	-0.425070	-0.131798
C15	C	-3.824387	-0.463179	-0.059870
C16	C	-3.862157	-0.568966	-0.038986
C17	C	-3.915244	-0.636653	-0.090027
C18	C	-3.930559	-0.598543	-0.161955
C19	C	-3.892801	-0.492747	-0.182842
C20	C	-3.983657	-0.666221	-0.212999
C21	C	-3.998972	-0.628111	-0.284928
C22	C	-3.961216	-0.522324	-0.305811
C23	C	-3.908129	-0.454637	-0.254770
C24	C	-4.021415	-0.772017	-0.192112
C25	C	-4.089829	-0.801585	-0.315084
C26	C	-4.052059	-0.695798	-0.335969
C27	C	-3.790817	-0.134630	-0.311928
C28	C	-3.825434	-0.134155	-0.390102
C29	C	-4.023412	-0.139016	-0.429425
C30	C	-4.055938	-0.138570	-0.502878
C31	C	-3.890484	-0.133283	-0.537002
C32	C	-3.692476	-0.128416	-0.497670
C33	C	-3.659951	-0.128852	-0.424220
N34	N	-3.830034	-0.186772	-0.645516
N35	N	-3.860944	-0.186361	-0.715290
C36	C	-3.988467	-0.131966	-0.758304
N37	N	-4.083948	-0.078013	-0.728906
N38	N	-4.053042	-0.078429	-0.659125
C39	C	-3.925731	-0.132809	-0.616647
C40	C	-4.221726	-0.136342	-0.877273
C41	C	-4.254243	-0.135889	-0.950727
C42	C	-3.890778	-0.125745	-0.945517
C43	C	-3.858263	-0.126188	-0.872065
C44	C	-4.023746	-0.131491	-0.837947
C45	C	-4.135431	0.047712	-0.220934
C46	C	-4.074500	0.160306	-0.243156
C47	C	-4.144161	-0.130131	-0.063020
C48	C	-4.088783	-0.130601	0.015153
H49	H	-3.781181	-0.408060	-0.018321
H50	H	-4.133053	-0.856696	-0.356646
H51	H	-3.498728	-0.124886	-0.392204
C52	C	-3.693660	-0.665946	0.058213
C53	C	-3.845377	-0.610873	0.040070
H54	H	-3.683328	-0.691828	0.107019
H55	H	-3.564095	-0.621991	0.049139
H56	H	-3.730687	-0.721381	0.030790
H57	H	-3.808342	-0.555433	0.067489
H58	H	-3.974970	-0.654831	0.049151
H59	H	-4.356471	-0.140657	-0.849493
H60	H	-4.217163	-0.142533	-0.534901
C61	C	-3.891278	-0.319191	-0.351640
C62	C	-3.866613	-0.338351	-0.277728
H63	H	-3.865633	-0.247398	-0.365810
H64	H	-4.028698	-0.351879	-0.371222
H65	H	-3.796199	-0.345287	-0.368011
H66	H	-3.961703	-0.312261	-0.261357
H67	H	-3.729172	-0.305649	-0.258137
H68	H	-4.064523	-0.664754	-0.394534
H69	H	-4.008939	-0.803035	-0.133547
H70	H	-3.557762	-0.124108	-0.525460
H71	H	-3.973702	-0.491300	-0.364380
H72	H	-4.158163	-0.143330	-0.401651
C73	C	-4.609902	-0.231932	-0.970425
C74	C	-4.471877	-0.141229	-0.993955
H75	H	-4.744258	-0.235228	-0.997116
H76	H	-4.614205	-0.232947	-0.921803
H77	H	-4.564862	-0.289134	-0.976409
H78	H	-4.516909	-0.084026	-0.987965
H79	H	-4.467580	-0.140204	-1.042588
C80	C	-3.816554	-0.791362	-0.091218
C81	C	-3.956734	-0.752935	-0.067072
H82	H	-3.842170	-0.863153	-0.077047
H83	H	-3.679154	-0.758659	-0.071625
H84	H	-3.833297	-0.778348	-0.141360
H85	H	-3.939980	-0.765943	-0.016928
H86	H	-4.094167	-0.785649	-0.086662
C87	C	-3.646801	-0.208414	-0.779124
C88	C	-3.640643	-0.120924	-0.828850
H89	H	-3.512446	-0.205176	-0.752448
H90	H	-3.691478	-0.267796	-0.802916
H91	H	-3.740636	-0.211595	-0.748279
H92	H	-3.546819	-0.117747	-0.859699
H93	H	-3.595940	-0.061526	-0.805057
H94	H	-3.756058	-0.121432	-0.973301
