data_functionalizedCrystal
_audit_creation_method	'MofGen! by Chris Wilmer'
_symmetry_space_group_name_H-M	'P1'
_symmetry_Int_Tables_number	1
_symmetry_cell_setting	triclinic
loop_
_symmetry_equiv_pos_as_xyz
  x,y,z
_cell_length_a	25.639239
_cell_length_b	18.050591
_cell_length_c	18.050582
_cell_angle_alpha	90.023995
_cell_angle_beta	89.975362
_cell_angle_gamma	89.968232
loop_
_atom_site_label
_atom_site_type_symbol
_atom_site_fract_x
_atom_site_fract_y
_atom_site_fract_z
Zn1	Zn	-0.208280	-1.135238	-0.420082
Zn2	Zn	0.291720	-0.635238	0.079918
Zn3	Zn	-0.295708	-1.135126	-0.295887
Zn4	Zn	0.204292	-0.635126	0.204113
Zn5	Zn	-0.208278	-1.011058	-0.295886
Zn6	Zn	0.291722	-0.511058	0.204114
Zn7	Zn	-0.295676	-1.010983	-0.420016
Zn8	Zn	0.204324	-0.510983	0.079984
O9	O	-0.251986	-1.073101	-0.357968
O10	O	0.248014	-0.573101	0.142032
O11	O	-0.219892	-1.239148	-0.403635
O12	O	0.280108	-0.739148	0.096365
O13	O	-0.284123	-1.118653	-0.191962
O14	O	0.215877	-0.618653	0.308038
O15	O	-0.135113	-1.027609	-0.312388
O16	O	0.364887	-0.527609	0.187612
O17	O	-0.284125	-1.239066	-0.312390
O18	O	0.215875	-0.739066	0.187610
O19	O	-0.135115	-1.118844	-0.403634
O20	O	0.364885	-0.618844	0.096366
O21	O	-0.219888	-1.027500	-0.191962
O22	O	0.280112	-0.527500	0.308038
O23	O	-0.219857	-0.907123	-0.312324
O24	O	0.280143	-0.407123	0.187676
O25	O	-0.284070	-1.027481	-0.523949
O26	O	0.215930	-0.527481	-0.023949
O27	O	-0.284068	-0.907068	-0.403522
O28	O	0.215932	-0.407068	0.096478
O29	O	-0.219861	-1.118771	-0.523998
O30	O	0.280139	-0.618771	-0.023998
O31	O	-0.368869	-1.118580	-0.312326
O32	O	0.131131	-0.618580	0.187674
O33	O	-0.368846	-1.027373	-0.403523
O34	O	0.131154	-0.527373	0.096477
C35	C	-0.251959	-0.880149	-0.357916
C36	C	0.248041	-0.380149	0.142084
C37	C	-0.251961	-0.797604	-0.357912
C38	C	0.248039	-0.297604	0.142088
C39	C	-0.387828	-1.072977	-0.357934
C40	C	0.112172	-0.572977	0.142066
C41	C	-0.445942	-1.072991	-0.357944
C42	C	0.054058	-0.572991	0.142056
C43	C	-0.216995	-0.598161	-0.308422
C44	C	0.283005	-0.098161	0.191578
C45	C	-0.264681	-0.548729	-0.290141
C46	C	0.235319	-0.048729	0.209859
C47	C	-0.251971	-0.646473	-0.357937
C48	C	0.248029	-0.146473	0.142063
C49	C	-0.204297	-0.548824	-0.376209
C50	C	0.295703	-0.048824	0.123791
C51	C	-0.251977	-0.500488	-0.357961
C52	C	0.248023	-0.000488	0.142039
C53	C	-0.299682	-0.598128	-0.339621
C54	C	0.200318	-0.098128	0.160379
C55	C	-0.239266	-0.598227	-0.425720
C56	C	0.260734	-0.098227	0.074280
C57	C	-0.286984	-0.548817	-0.407465
C58	C	0.213016	-0.048817	0.092535
C59	C	-0.251967	-0.730571	-0.357922
C60	C	0.248033	-0.230571	0.142078
C61	C	-0.251986	-0.416392	-0.357976
C62	C	0.248014	0.083608	0.142024
C63	C	-0.806305	-1.120717	-0.310562
C64	C	-0.306305	-0.620717	0.189438
C65	C	-0.860909	-1.120746	-0.310572
C66	C	-0.360909	-0.620746	0.189428
O67	O	-0.889146	-1.161195	-0.270249
O68	O	-0.389146	-0.661195	0.229751
N69	N	-0.888225	-1.073232	-0.358017
N70	N	-0.388225	-0.573232	0.141983
C71	C	-0.860933	-1.025691	-0.405460
C72	C	-0.360933	-0.525691	0.094540
O73	O	-0.889181	-0.985280	-0.445817
O74	O	-0.389181	-0.485280	0.054183
C75	C	-0.806330	-1.025667	-0.405453
C76	C	-0.306330	-0.525667	0.094547
C77	C	-0.779017	-1.073179	-0.358000
C78	C	-0.279017	-0.573179	0.142000
C79	C	-0.778992	-1.168226	-0.263114
C80	C	-0.278992	-0.668226	0.236886
C81	C	-0.724392	-1.168196	-0.263103
C82	C	-0.224392	-0.668196	0.236897
C83	C	-0.697104	-1.120657	-0.310541
C84	C	-0.197104	-0.620657	0.189459
C85	C	-0.724417	-1.073149	-0.357989
C86	C	-0.224417	-0.573149	0.142011
C87	C	-0.779039	-0.978131	-0.452899
C88	C	-0.279039	-0.478131	0.047101
C89	C	-0.724432	-0.978111	-0.452889
C90	C	-0.224432	-0.478111	0.047111
C91	C	-0.697119	-1.025622	-0.405436
C92	C	-0.197119	-0.525622	0.094564
C93	C	-0.642528	-1.025580	-0.405417
C94	C	-0.142528	-0.525580	0.094583
N95	N	-0.615213	-1.073094	-0.357972
N96	N	-0.115213	-0.573094	0.142028
C97	C	-0.642501	-1.120633	-0.310534
C98	C	-0.142501	-0.620633	0.189466
C99	C	-0.975604	-1.025747	-0.405471
C100	C	-0.475604	-0.525747	0.094529
C101	C	-1.030206	-1.025767	-0.405475
C102	C	-0.530206	-0.525767	0.094525
C103	C	-1.030179	-1.120823	-0.310588
C104	C	-0.530179	-0.620823	0.189412
C105	C	-0.975575	-1.120799	-0.310581
C106	C	-0.475575	-0.620799	0.189419
C107	C	-0.948288	-1.073261	-0.358027
C108	C	-0.448288	-0.573261	0.141973
C109	C	-0.527836	-1.120566	-0.310515
C110	C	-0.027836	-0.620566	0.189485
C111	C	-0.473230	-1.120530	-0.310506
C112	C	0.026770	-0.620530	0.189494
C113	C	-0.473262	-1.025477	-0.405395
C114	C	0.026738	-0.525477	0.094605
C115	C	-0.527863	-1.025510	-0.405402
C116	C	-0.027863	-0.525510	0.094598
C117	C	-0.555148	-1.073061	-0.357959
C118	C	-0.055148	-0.573061	0.142041
O119	O	-0.614257	-0.985154	-0.445721
O120	O	-0.114257	-0.485154	0.054279
O121	O	-0.614246	-1.161044	-0.270191
O122	O	-0.114246	-0.661044	0.229809
C123	C	-0.115613	-1.073247	-0.358018
C124	C	0.384387	-0.573247	0.141982
C125	C	-0.057499	-1.073309	-0.358040
C126	C	0.442501	-0.573309	0.141960
C127	C	-0.251963	-1.073131	-0.551673
C128	C	0.248037	-0.573131	-0.051673
C129	C	-0.251953	-1.073143	-0.634219
C130	C	0.248047	-0.573143	-0.134219
C131	C	-0.252004	-0.266807	-0.358006
C132	C	0.247996	0.233193	0.141994
C133	C	-0.251988	-0.349353	-0.357988
C134	C	0.248012	0.150647	0.142012
C135	C	-0.286822	-1.023537	-0.833644
C136	C	0.213178	-0.523537	-0.333644
C137	C	-0.299608	-1.091289	-0.883045
C138	C	0.200392	-0.591289	-0.383045
C139	C	-0.251913	-1.073180	-0.785350
C140	C	0.248087	-0.573180	-0.285350
C141	C	-0.239112	-1.005465	-0.883030
C142	C	0.260888	-0.505465	-0.383030
C143	C	-0.251875	-1.073209	-0.931335
C144	C	0.248125	-0.573209	-0.431335
C145	C	-0.264724	-1.140967	-0.833664
C146	C	0.235276	-0.640967	-0.333664
C147	C	-0.204206	-1.055097	-0.833644
C148	C	0.295794	-0.555097	-0.333644
C149	C	-0.216974	-1.122896	-0.883023
C150	C	0.283026	-0.622896	-0.383023
C151	C	-0.251936	-1.073162	-0.701251
C152	C	0.248064	-0.573162	-0.201251
C153	C	-0.251852	-1.073235	-1.015431
C154	C	0.248148	-0.573235	-0.515431
C155	C	-0.251971	-1.073115	-0.165016
C156	C	0.248029	-0.573115	0.334984
C157	C	-0.251834	-1.073247	-0.082470
C158	C	0.248166	-0.573247	0.417530
H159	H	-0.187451	-0.619827	-0.266507
H160	H	0.312549	-0.119827	0.233493
C161	C	-1.060244	-0.973494	-0.457670
C162	C	-0.560244	-0.473494	0.042330
N163	N	-1.082866	-0.934122	-0.496988
N164	N	-0.582866	-0.434122	0.003012
C165	C	-0.694420	-0.925814	-0.505085
C166	C	-0.194420	-0.425814	-0.005085
N167	N	-0.671815	-0.886424	-0.544397
N168	N	-0.171815	-0.386424	-0.044397
C169	C	-0.279205	-0.519352	-0.212716
C170	C	0.220795	-0.019352	0.287284
N171	N	-0.290140	-0.497226	-0.154398
N172	N	0.209860	0.002774	0.345602
C173	C	-0.443235	-0.973190	-0.457577
C174	C	0.056765	-0.473190	0.042423
N175	N	-0.420617	-0.933812	-0.496886
N176	N	0.079383	-0.433812	0.003114
C177	C	-0.177070	-1.179690	-0.912132
C178	C	0.322930	-0.679690	-0.412132
N179	N	-0.147016	-1.222470	-0.934057
N180	N	0.352984	-0.722470	-0.434057
H181	H	-0.953389	-0.987030	-0.444105
H182	H	-0.453389	-0.487030	0.055895
C183	C	-0.354168	-0.627263	-0.318661
C184	C	0.145832	-0.127263	0.181339
N185	N	-0.395205	-0.649209	-0.302871
N186	N	0.104795	-0.149209	0.197129
H187	H	-0.228498	-0.619985	-0.483016
H188	H	0.271502	-0.119985	0.016984
H189	H	-0.163888	-1.039765	-0.811929
H190	H	0.336112	-0.539765	-0.311929
C191	C	-0.326757	-0.966887	-0.804335
C192	C	0.173243	-0.466887	-0.304335
N193	N	-0.356838	-0.924226	-0.782255
N194	N	0.143162	-0.424226	-0.282255
H195	H	-0.275581	-1.198261	-0.812070
H196	H	0.224419	-0.698261	-0.312070
C197	C	-0.557908	-0.973242	-0.457599
C198	C	-0.057908	-0.473242	0.042401
N199	N	-0.580534	-0.933879	-0.496922
N200	N	-0.080534	-0.433879	0.003078
H201	H	-0.339937	-1.106602	-0.904744
H202	H	0.160063	-0.606602	-0.404744
H203	H	-0.316599	-0.527288	-0.449348
H204	H	0.183401	-0.027288	0.050652
H205	H	-0.228301	-0.948187	-0.904715
H206	H	0.271699	-0.448187	-0.404715
H207	H	-0.450994	-1.159219	-0.271862
H208	H	0.049006	-0.659219	0.228138
C209	C	-0.557842	-1.172869	-0.258321
C210	C	-0.057842	-0.672869	0.241679
N211	N	-0.580442	-1.212260	-0.219004
N212	N	-0.080442	-0.712260	0.280996
C213	C	-0.694355	-1.220457	-0.210894
C214	C	-0.194355	-0.720457	0.289106
N215	N	-0.671735	-1.259821	-0.171566
N216	N	-0.171735	-0.759821	0.328434
C217	C	-0.149826	-0.519567	-0.397077
C218	C	0.350174	-0.019567	0.102923
N219	N	-0.108797	-0.497534	-0.412790
N220	N	0.391203	0.002466	0.087210
H221	H	-0.801205	-1.206941	-0.224484
H222	H	-0.301205	-0.706941	0.275516
C223	C	-0.945537	-1.173067	-0.258382
C224	C	-0.445537	-0.673067	0.241618
N225	N	-0.922914	-1.212439	-0.219065
N226	N	-0.422914	-0.712439	0.280935
H227	H	-1.052406	-1.159534	-0.271964
H228	H	-0.552406	-0.659534	0.228036
H229	H	-0.801267	-0.939438	-0.491537
H230	H	-0.301267	-0.439438	0.008463
