data_functionalizedCrystal
_audit_creation_method	'MofGen! by Chris Wilmer'
_symmetry_space_group_name_H-M	'P1'
_symmetry_Int_Tables_number	1
_symmetry_cell_setting	triclinic
loop_
_symmetry_equiv_pos_as_xyz
  x,y,z
_cell_length_a	17.699083
_cell_length_b	22.610064
_cell_length_c	17.699083
_cell_angle_alpha	89.996827
_cell_angle_beta	83.283015
_cell_angle_gamma	90.002185
loop_
_atom_site_label
_atom_site_type_symbol
_atom_site_fract_x
_atom_site_fract_y
_atom_site_fract_z
O1	O	1.004081	0.049103	0.095701
O2	O	1.504081	0.549103	0.595701
O3	O	0.783703	0.049122	0.108153
O4	O	1.283703	0.549122	0.608153
O5	O	0.900118	0.049107	-0.008262
O6	O	1.400118	0.549107	0.491738
O7	O	0.887666	0.049118	0.212116
O8	O	1.387666	0.549118	0.712116
O9	O	0.900098	-0.049262	-0.008245
O10	O	1.400098	0.450738	0.491755
O11	O	0.783682	-0.049247	0.108170
O12	O	1.283682	0.450753	0.608170
O13	O	1.004060	-0.049266	0.095718
O14	O	1.504060	0.450734	0.595718
Zn15	Zn	0.893868	-0.064875	0.101947
Zn16	Zn	1.393868	0.435125	0.601947
Zn17	Zn	0.893895	0.064731	0.101924
Zn18	Zn	1.393895	0.564731	0.601924
O19	O	0.887645	-0.049251	0.212133
O20	O	1.387645	0.450749	0.712133
C21	C	0.755495	-0.000060	0.107716
C22	C	1.255495	0.499940	0.607716
C23	C	0.671477	-0.000053	0.106377
C24	C	1.171477	0.499947	0.606377
N25	N	0.893855	-0.153327	0.101962
N26	N	1.393855	0.346673	0.601962
C27	C	0.622856	-0.000049	0.174711
C28	C	1.122856	0.499951	0.674711
C29	C	0.543913	-0.000057	0.173448
C30	C	1.043913	0.499943	0.673448
C31	C	0.513592	-0.000064	0.103852
C32	C	1.013592	0.499936	0.603852
C33	C	0.562219	-0.000069	0.035513
C34	C	1.062219	0.499931	0.535513
C35	C	0.641161	-0.000065	0.036776
C36	C	1.141161	0.499935	0.536776
C37	C	0.243856	-0.000084	0.030418
C38	C	0.743856	0.499916	0.530418
C39	C	0.164908	-0.000085	0.029160
C40	C	0.664908	0.499915	0.529160
C41	C	0.146608	-0.000075	0.167090
C42	C	0.646608	0.499925	0.667090
C43	C	0.225550	-0.000072	0.168353
C44	C	0.725550	0.499928	0.668353
C45	C	0.274170	-0.000080	0.100015
C46	C	0.774170	0.499920	0.600015
C47	C	0.359769	-0.000073	0.101384
C48	C	0.859769	0.499927	0.601384
C49	C	0.427995	-0.000067	0.102481
C50	C	0.927995	0.499933	0.602481
C51	C	0.945446	-0.561976	0.050384
C52	C	1.445446	-0.061976	0.550384
C53	C	0.945450	-0.623895	0.050378
C54	C	1.445450	-0.123895	0.550378
O55	O	0.989282	-0.655920	0.006536
O56	O	1.489282	-0.155920	0.506536
N57	N	0.893895	-0.654864	0.101909
N58	N	1.393895	-0.154864	0.601909
C59	C	0.842327	-0.623910	0.153443
C60	C	1.342327	-0.123910	0.653443
O61	O	0.798475	-0.655938	0.197273
O62	O	1.298475	-0.155938	0.697273
C63	C	0.842320	-0.561992	0.153444
C64	C	1.342320	-0.061992	0.653444
C65	C	0.893884	-0.531026	0.101916
C66	C	1.393884	-0.031026	0.601916
C67	C	0.997005	-0.531010	-0.001142
C68	C	1.497005	-0.031010	0.498858
C69	C	0.997002	-0.469094	-0.001135
C70	C	1.497002	0.030906	0.498865
C71	C	0.945440	-0.438144	0.050397
C72	C	1.445440	0.061856	0.550397
C73	C	0.893881	-0.469110	0.101922
C74	C	1.393881	0.030890	0.601922
C75	C	0.790749	-0.531038	0.204975
C76	C	1.290749	-0.031038	0.704975
C77	C	0.790746	-0.469115	0.204971
C78	C	1.290746	0.030885	0.704971
C79	C	0.842310	-0.438150	0.153442
C80	C	1.342310	0.061850	0.653442
C81	C	0.842315	-0.376245	0.153461
C82	C	1.342315	0.123755	0.653461
N83	N	0.893871	-0.345276	0.101930
N84	N	1.393871	0.154724	0.601930
C85	C	0.945433	-0.376226	0.050398
C86	C	1.445433	0.123774	0.550398
C87	C	0.842344	-0.753944	0.153436
C88	C	1.342344	-0.253944	0.653436
C89	C	0.842354	-0.815862	0.153439
C90	C	1.342354	-0.315862	0.653439
C91	C	0.945477	-0.815842	0.050372
C92	C	1.445477	-0.315842	0.550372
C93	C	0.945470	-0.753924	0.050374
C94	C	1.445470	-0.253924	0.550374
C95	C	0.893900	-0.722975	0.101905
C96	C	1.393900	-0.222975	0.601905
C97	C	0.945423	-0.246198	0.050416
C98	C	1.445423	0.253802	0.550416
C99	C	0.945417	-0.184277	0.050430
C100	C	1.445417	0.315723	0.550430
C101	C	0.842292	-0.184302	0.153493
C102	C	1.342292	0.315698	0.653493
C103	C	0.842300	-0.246217	0.153483
C104	C	1.342300	0.253783	0.653483
C105	C	0.893869	-0.277164	0.101938
C106	C	1.393869	0.222836	0.601938
O107	O	0.798503	-0.344181	0.197279
O108	O	1.298503	0.155819	0.697279
O109	O	0.989271	-0.344191	0.006569
O110	O	1.489271	0.155809	0.506569
C111	C	1.032268	-0.000083	0.096156
C112	C	1.532268	0.499917	0.596156
C113	C	1.116286	-0.000086	0.097494
C114	C	1.616286	0.499914	0.597494
C115	C	0.899662	-0.000078	-0.036451
C116	C	1.399662	0.499922	0.463549
C117	C	0.898323	-0.000078	-0.120469
C118	C	1.398323	0.499922	0.379531
N119	N	0.893914	0.153183	0.101904
N120	N	1.393914	0.653183	0.601904
C121	C	0.966656	-0.000085	-0.169090
C122	C	1.466656	0.499915	0.330910
C123	C	0.965394	-0.000079	-0.248033
C124	C	1.465394	0.499921	0.251967
C125	C	0.895798	-0.000071	-0.278354
C126	C	1.395798	0.499929	0.221646
C127	C	0.827459	-0.000063	-0.229727
C128	C	1.327459	0.499937	0.270273
C129	C	0.828722	-0.000064	-0.150785
C130	C	1.328722	0.499936	0.349215
C131	C	0.822364	-0.000058	-0.548090
C132	C	1.322364	0.499942	-0.048090
C133	C	0.821106	-0.000058	-0.627038
C134	C	1.321106	0.499942	-0.127038
C135	C	0.959036	-0.000073	-0.645338
C136	C	1.459036	0.499927	-0.145338
C137	C	0.960299	-0.000074	-0.566396
C138	C	1.460299	0.499926	-0.066396
C139	C	0.891961	-0.000062	-0.517776
C140	C	1.391961	0.499938	-0.017776
C141	C	0.893330	-0.000067	-0.432177
C142	C	1.393330	0.499933	0.067823
C143	C	0.894427	-0.000071	-0.363951
C144	C	1.394427	0.499929	0.136049
C145	C	0.888102	-0.000065	0.240322
C146	C	1.388102	0.499935	0.740322
C147	C	0.889440	-0.000061	0.324340
C148	C	1.389440	0.499939	0.824340
H149	H	0.647537	-0.000043	0.231384
H150	H	1.147537	0.499957	0.731384
H151	H	0.773078	-0.000058	-0.111198
H152	H	1.273078	0.499942	0.388802
H153	H	1.014680	-0.000080	-0.684934
H154	H	1.514680	0.499920	-0.184934
O155	O	1.041725	-0.000094	-0.136394
O156	O	1.541725	0.499906	0.363606
H157	H	1.031126	-0.000099	-0.073332
H158	H	1.531126	0.499901	0.426668
H159	H	0.800351	-0.728748	0.195405
H160	H	1.300351	-0.228748	0.695405
H161	H	0.283434	-0.000091	-0.025228
H162	H	0.783434	0.499909	0.474772
H163	H	1.016971	-0.000084	-0.541714
H164	H	1.516971	0.499916	-0.041714
O165	O	0.491469	-0.000053	0.247150
O166	O	0.991469	0.499947	0.747150
H167	H	0.525815	-0.000041	0.295756
H168	H	1.025815	0.499959	0.795756
O169	O	1.001051	-0.279566	-0.005173
O170	O	1.501051	0.220434	0.494827
H171	H	0.969276	-0.307772	-0.041936
H172	H	1.469276	0.192228	0.458064
H173	H	0.250232	-0.000063	0.225025
H174	H	0.750232	0.499937	0.725025
O175	O	0.693608	-0.000067	-0.036925
O176	O	1.193608	0.499933	0.463075
H177	H	0.659264	-0.000067	-0.085533
H178	H	1.159264	0.499933	0.414467
O179	O	0.752394	-0.000061	-0.262429
O180	O	1.252394	0.499939	0.237571
H181	H	0.748527	0.040028	-0.297969
H182	H	1.248527	0.540028	0.202031
O183	O	0.746038	-0.000045	-0.659745
O184	O	1.246038	0.499955	-0.159745
H185	H	0.698730	-0.000031	-0.612675
H186	H	1.198730	0.499969	-0.112675
O187	O	0.748660	-0.000060	-0.495653
O188	O	1.248660	0.499940	0.004347
H189	H	0.700056	-0.000065	-0.530002
H190	H	1.200056	0.499935	-0.030002
H191	H	0.748761	-0.556242	0.246934
H192	H	1.248761	-0.056242	0.746934
H193	H	0.107012	-0.000072	0.222734
H194	H	0.607012	0.499928	0.722734
H195	H	0.537526	-0.000083	-0.021154
H196	H	1.037526	0.499917	0.478846
O197	O	0.132201	-0.000103	-0.045908
O198	O	0.632201	0.499897	0.454092
H199	H	0.179271	-0.000116	-0.093216
H200	H	0.679271	0.499884	0.406784
H201	H	1.038988	-0.443885	-0.043096
H202	H	1.538988	0.056115	0.456904
H203	H	0.987410	-0.159067	0.008469
H204	H	1.487410	0.340933	0.508469
H205	H	1.038994	-0.556204	-0.043109
H206	H	1.538994	-0.056204	0.456891
O207	O	1.001077	-0.720525	-0.005210
O208	O	1.501077	-0.220525	0.494790
H209	H	1.036926	-0.752455	-0.041044
H210	H	1.536926	-0.252455	0.458956
O211	O	1.039096	-0.000097	-0.300477
O212	O	1.539096	0.499903	0.199523
H213	H	1.087702	-0.000113	-0.266131
H214	H	1.587702	0.499887	0.233869
O215	O	1.001087	-0.849229	-0.005219
O216	O	1.501087	-0.349229	0.494781
H217	H	0.992418	-0.897486	0.003436
H218	H	1.492418	-0.397486	0.503436
H219	H	0.800374	-0.841070	0.195406
H220	H	1.300374	-0.341070	0.695406
O221	O	0.735127	-0.435734	0.260556
O222	O	1.235127	0.064266	0.760556
H223	H	0.699281	-0.467673	0.296387
H224	H	1.199281	0.032327	0.796387
O225	O	0.786689	-0.279622	0.209059
O226	O	1.286689	0.220378	0.709059
H227	H	0.750832	-0.247696	0.244891
H228	H	1.250832	0.252304	0.744891
H229	H	0.800313	-0.159093	0.195452
H230	H	1.300313	0.340907	0.695452
