data_functionalizedCrystal
_audit_creation_method	'MofGen! by Chris Wilmer'
_symmetry_space_group_name_H-M	'P1'
_symmetry_Int_Tables_number	1
_symmetry_cell_setting	triclinic
loop_
_symmetry_equiv_pos_as_xyz
  x,y,z
_cell_length_a	27.732048
_cell_length_b	27.732048
_cell_length_c	26.809956
_cell_angle_alpha	90.000636
_cell_angle_beta	90.003258
_cell_angle_gamma	82.642655
loop_
_atom_site_label
_atom_site_type_symbol
_atom_site_fract_x
_atom_site_fract_y
_atom_site_fract_z
O1	O	-0.640931	-0.057510	-0.041421
O2	O	-0.140931	0.442490	0.458579
O3	O	-0.500138	-0.066256	-0.041436
O4	O	-0.000138	0.433744	0.458564
O5	O	-0.574907	0.008514	-0.041419
O6	O	-0.074907	0.508514	0.458581
O7	O	-0.566162	-0.132280	-0.041439
O8	O	-0.066162	0.367720	0.458561
O9	O	-0.574893	0.008502	0.041541
O10	O	-0.074893	0.508502	0.541541
O11	O	-0.500123	-0.066267	0.041523
O12	O	-0.000123	0.433733	0.541523
O13	O	-0.640917	-0.057522	0.041539
O14	O	-0.140917	0.442478	0.541539
Zn15	Zn	-0.570518	-0.061896	0.054702
Zn16	Zn	-0.070518	0.438104	0.554702
Zn17	Zn	-0.570536	-0.061881	-0.054600
Zn18	Zn	-0.070536	0.438119	0.445400
O19	O	-0.566147	-0.132291	0.041521
O20	O	-0.066147	0.367709	0.541521
C21	C	-0.574716	0.026515	0.000062
C22	C	-0.074716	0.526515	0.500062
C23	C	-0.574164	0.080170	0.000066
C24	C	-0.074164	0.580170	0.500066
C25	C	-0.482124	-0.066078	0.000041
C26	C	0.017876	0.433922	0.500041
C27	C	-0.428469	-0.065525	0.000036
C28	C	0.071531	0.434475	0.500036
C29	C	-0.658931	-0.057699	0.000060
C30	C	-0.158931	0.442301	0.500060
C31	C	-0.712586	-0.058252	0.000062
C32	C	-0.212586	0.441748	0.500062
C33	C	-0.089654	-0.106229	0.000051
C34	C	0.410346	0.393771	0.500051
C35	C	0.112006	-0.104178	0.000056
C36	C	0.612006	0.395822	0.500056
O37	O	0.143262	-0.141398	0.000073
O38	O	0.643262	0.358602	0.500073
N39	N	0.131130	-0.059843	0.000062
N40	N	0.631130	0.440157	0.500062
C41	C	0.099835	-0.016017	0.000069
C42	C	0.599835	0.483983	0.500069
O43	O	0.120728	0.021740	0.000079
O44	O	0.620728	0.521740	0.500079
C45	C	-0.101824	-0.018068	0.000068
C46	C	0.398176	0.481932	0.500068
C47	C	-0.120944	-0.062407	0.000057
C48	C	0.379056	0.437593	0.500057
C49	C	-0.108775	-0.150563	0.000042
C50	C	0.391225	0.349437	0.500042
C51	C	-0.159187	-0.151076	0.000038
C52	C	0.340813	0.348924	0.500038
C53	C	-0.190477	-0.107253	0.000044
C54	C	0.309523	0.392747	0.500044
C55	C	-0.171356	-0.062919	0.000054
C56	C	0.328644	0.437081	0.500054
C57	C	-0.133117	0.025757	0.000079
C58	C	0.366883	0.525757	0.500079
C59	C	-0.183535	0.025240	0.000080
C60	C	0.316465	0.525240	0.500080
C61	C	-0.202655	-0.019098	0.000069
C62	C	0.297345	0.480902	0.500069
C63	C	-0.253059	-0.019609	0.000056
C64	C	0.246941	0.480391	0.500056
N65	N	-0.272183	-0.063944	0.000050
N66	N	0.227817	0.436056	0.500050
C67	C	-0.240892	-0.107766	0.000044
C68	C	0.259108	0.392234	0.500044
C69	C	0.205709	-0.014943	0.000069
C70	C	0.705709	0.485057	0.500069
C71	C	0.256124	-0.014430	0.000068
C72	C	0.756124	0.485570	0.500068
C73	C	0.268291	-0.102591	0.000056
C74	C	0.768291	0.397409	0.500056
C75	C	0.217876	-0.103104	0.000053
C76	C	0.717876	0.396896	0.500053
C77	C	0.186585	-0.059278	0.000063
C78	C	0.686585	0.440722	0.500063
C79	C	-0.346761	-0.108839	0.000036
C80	C	0.153239	0.391161	0.500036
C81	C	-0.397178	-0.109347	0.000030
C82	C	0.102822	0.390653	0.500030
C83	C	-0.409341	-0.021186	0.000044
C84	C	0.090659	0.478814	0.500044
C85	C	-0.358929	-0.020678	0.000048
C86	C	0.141071	0.479322	0.500048
C87	C	-0.327639	-0.064508	0.000045
C88	C	0.172361	0.435492	0.500045
O89	O	-0.284343	0.017592	0.000045
O90	O	0.215657	0.517592	0.500045
O91	O	-0.261794	-0.145518	0.000045
O92	O	0.238206	0.354482	0.500045
C93	C	-0.039242	-0.105716	0.000055
C94	C	0.460758	0.394284	0.500055
C95	C	-0.020120	-0.061382	0.000065
C96	C	0.479880	0.438618	0.500065
C97	C	-0.051411	-0.017560	0.000071
C98	C	0.448589	0.482440	0.500071
C99	C	0.030294	-0.060869	0.000065
C100	C	0.530294	0.439131	0.500065
C101	C	0.061585	-0.104691	0.000059
C102	C	0.561585	0.395309	0.500059
C103	C	0.042461	-0.149026	0.000053
C104	C	0.542461	0.350974	0.500053
C105	C	-0.007951	-0.149539	0.000049
C106	C	0.492049	0.350461	0.500049
C107	C	-0.032287	0.026775	0.000077
C108	C	0.467713	0.526775	0.500077
C109	C	0.018125	0.027284	0.000080
C110	C	0.518125	0.527284	0.500080
C111	C	0.049416	-0.016538	0.000074
C112	C	0.549416	0.483462	0.500074
C113	C	-0.566338	-0.150292	0.000039
C114	C	-0.066338	0.349708	0.500039
C115	C	-0.566891	-0.203947	0.000031
C116	C	-0.066891	0.296053	0.500031
N117	N	-0.570509	-0.061906	0.129298
N118	N	-0.070509	0.438094	0.629298
C119	C	-0.614867	0.418985	0.000045
C120	C	-0.114867	0.918985	0.500045
C121	C	-0.612816	0.620645	0.000038
C122	C	-0.112816	1.120645	0.500038
O123	O	-0.650037	0.651900	0.000021
O124	O	-0.150037	1.151900	0.500021
N125	N	-0.568481	0.639768	0.000034
N126	N	-0.068481	1.139768	0.500034
C127	C	-0.524656	0.608474	0.000028
C128	C	-0.024656	1.108474	0.500028
O129	O	-0.486899	0.629367	0.000019
O130	O	0.013101	1.129367	0.500019
C131	C	-0.526707	0.406815	0.000031
C132	C	-0.026707	0.906815	0.500031
C133	C	-0.571045	0.387694	0.000041
C134	C	-0.071045	0.887694	0.500041
C135	C	-0.659202	0.399864	0.000054
C136	C	-0.159202	0.899864	0.500054
C137	C	-0.659714	0.349452	0.000059
C138	C	-0.159714	0.849452	0.500059
C139	C	-0.615892	0.318161	0.000054
C140	C	-0.115892	0.818161	0.500054
C141	C	-0.571557	0.337282	0.000045
C142	C	-0.071557	0.837282	0.500045
C143	C	-0.482882	0.375521	0.000022
C144	C	0.017118	0.875521	0.500022
C145	C	-0.483399	0.325104	0.000021
C146	C	0.016601	0.825104	0.500021
C147	C	-0.527737	0.305983	0.000031
C148	C	-0.027737	0.805983	0.500031
C149	C	-0.528247	0.255580	0.000045
C150	C	-0.028247	0.755580	0.500045
N151	N	-0.572583	0.236456	0.000050
N152	N	-0.072583	0.736456	0.500050
C153	C	-0.616405	0.267747	0.000054
C154	C	-0.116405	0.767747	0.500054
C155	C	-0.523582	0.714348	0.000027
C156	C	-0.023582	1.214348	0.500027
C157	C	-0.523069	0.764762	0.000027
C158	C	-0.023069	1.264762	0.500027
C159	C	-0.611230	0.776930	0.000036
C160	C	-0.111230	1.276930	0.500036
C161	C	-0.611742	0.726514	0.000040
C162	C	-0.111742	1.226514	0.500040
C163	C	-0.567917	0.695224	0.000031
C164	C	-0.067917	1.195224	0.500031
C165	C	-0.617477	0.161878	0.000064
C166	C	-0.117477	0.661878	0.500064
C167	C	-0.617986	0.111461	0.000071
C168	C	-0.117986	0.611461	0.500071
C169	C	-0.529825	0.099298	0.000059
C170	C	-0.029825	0.599298	0.500059
C171	C	-0.529316	0.149710	0.000055
C172	C	-0.029316	0.649710	0.500055
C173	C	-0.573147	0.180999	0.000056
C174	C	-0.073147	0.680999	0.500056
O175	O	-0.491047	0.224296	0.000057
O176	O	0.008953	0.724296	0.500057
O177	O	-0.654156	0.246844	0.000053
O178	O	-0.154156	0.746844	0.500053
C179	C	-0.614355	0.469397	0.000041
C180	C	-0.114355	0.969397	0.500041
C181	C	-0.570021	0.488518	0.000032
C182	C	-0.070021	0.988518	0.500032
C183	C	-0.526198	0.457228	0.000027
C184	C	-0.026198	0.957228	0.500027
C185	C	-0.569508	0.538933	0.000032
C186	C	-0.069508	1.038933	0.500032
C187	C	-0.613330	0.570223	0.000036
C188	C	-0.113330	1.070223	0.500036
C189	C	-0.657665	0.551100	0.000041
C190	C	-0.157665	1.051100	0.500041
C191	C	-0.658177	0.500688	0.000045
C192	C	-0.158177	1.000688	0.500045
C193	C	-0.481863	0.476351	0.000023
C194	C	0.018137	0.976351	0.500023
C195	C	-0.481355	0.526764	0.000019
C196	C	0.018645	1.026764	0.500019
C197	C	-0.525177	0.558054	0.000023
C198	C	-0.025177	1.058054	0.500023
N199	N	-0.570549	-0.061867	-0.129196
N200	N	-0.070549	0.438133	0.370804
C201	C	-0.603640	-0.028781	0.473932
C202	C	-0.103640	0.471219	0.973932
C203	C	-0.603652	-0.028774	0.682810
C204	C	-0.103652	0.471226	1.182810
O205	O	-0.631801	-0.000613	0.709820
O206	O	-0.131801	0.499387	1.209820
N207	N	-0.570539	-0.061870	0.708925
N208	N	-0.070539	0.438130	1.208925
C209	C	-0.537419	-0.094969	0.682818
C210	C	-0.037419	0.405031	1.182818
O211	O	-0.509252	-0.123116	0.709824
O212	O	-0.009252	0.376884	1.209824
C213	C	-0.537406	-0.094974	0.473941
C214	C	-0.037406	0.405026	0.973941
C215	C	-0.570524	-0.061878	0.447829
C216	C	-0.070524	0.438122	0.947829
C217	C	-0.636755	0.004312	0.447819
C218	C	-0.136755	0.504312	0.947819
C219	C	-0.636754	0.004308	0.395603
C220	C	-0.136754	0.504308	0.895603
C221	C	-0.603637	-0.028789	0.369500
C222	C	-0.103637	0.471211	0.869500
C223	C	-0.570522	-0.061882	0.395612
C224	C	-0.070522	0.438118	0.895612
C225	C	-0.504284	-0.128070	0.447835
C226	C	-0.004284	0.371930	0.947835
C227	C	-0.504283	-0.128067	0.395613
C228	C	-0.004283	0.371933	0.895613
C229	C	-0.537401	-0.094972	0.369500
C230	C	-0.037401	0.405028	0.869500
C231	C	-0.537405	-0.094983	0.317293
C232	C	-0.037405	0.405017	0.817293
N233	N	-0.570517	-0.061887	0.291177
N234	N	-0.070517	0.438113	0.791177
C235	C	-0.603633	-0.028790	0.317281
C236	C	-0.103633	0.471210	0.817281
C237	C	-0.537429	-0.094965	0.792481
C238	C	-0.037429	0.405035	1.292481
C239	C	-0.537433	-0.094964	0.844700
C240	C	-0.037433	0.405036	1.344700
C241	C	-0.603665	-0.028768	0.844689
C242	C	-0.103665	0.471232	1.344689
C243	C	-0.603663	-0.028772	0.792469
C244	C	-0.103663	0.471228	1.292469
C245	C	-0.570542	-0.061868	0.766366
C246	C	-0.070542	0.438132	1.266366
C247	C	-0.603628	-0.028801	0.207623
C248	C	-0.103628	0.471199	0.707623
C249	C	-0.603625	-0.028809	0.155402
C250	C	-0.103625	0.471191	0.655402
C251	C	-0.537392	-0.095003	0.155418
C252	C	-0.037392	0.404997	0.655418
C253	C	-0.537396	-0.094997	0.207635
C254	C	-0.037396	0.405003	0.707635
C255	C	-0.570516	-0.061892	0.233735
C256	C	-0.070516	0.438108	0.733735
O257	O	-0.509266	-0.123126	0.290250
O258	O	-0.009266	0.376874	0.790250
O259	O	-0.631789	-0.000640	0.290266
O260	O	-0.131789	0.499360	0.790266
C261	C	-0.603642	-0.028777	0.526149
C262	C	-0.103642	0.471223	1.026149
C263	C	-0.570527	-0.061870	0.552261
C264	C	-0.070527	0.438130	1.052261
C265	C	-0.537410	-0.094968	0.526158
C266	C	-0.037410	0.405032	1.026158
C267	C	-0.570531	-0.061870	0.604480
C268	C	-0.070531	0.438130	1.104480
C269	C	-0.603647	-0.028773	0.630584
C270	C	-0.103647	0.471227	1.130584
C271	C	-0.636759	0.004324	0.604468
C272	C	-0.136759	0.504324	1.104468
C273	C	-0.636758	0.004320	0.552252
C274	C	-0.136758	0.504320	1.052252
C275	C	-0.504298	-0.128064	0.552273
C276	C	-0.004298	0.371936	1.052273
C277	C	-0.504303	-0.128058	0.604489
C278	C	-0.004303	0.371942	1.104489
C279	C	-0.537419	-0.094961	0.630593
C280	C	-0.037419	0.405039	1.130593
H281	H	-0.412743	-0.145454	0.000021
H282	H	0.087257	0.354546	0.500021
H283	H	-0.446777	0.391080	0.000011
H284	H	0.053223	0.891080	0.500011
H285	H	-0.447710	0.299629	0.000014
H286	H	0.052290	0.799629	0.500014
N287	N	-0.468583	-0.163766	0.524120
N288	N	0.031417	0.336234	1.024120
H289	H	-0.447317	-0.145447	0.502454
H290	H	0.052683	0.354553	1.002454
H291	H	-0.447642	-0.184722	0.548620
H292	H	0.052358	0.315278	1.048620
H293	H	0.202311	-0.139207	0.000047
H294	H	0.702311	0.360793	0.500047
N295	N	-0.481496	0.170337	0.000051
N296	N	0.018504	0.670337	0.500051
H297	H	-0.453813	0.142863	0.000051
H298	H	0.046187	0.642863	0.500051
H299	H	-0.479369	0.190984	-0.030707
H300	H	0.020631	0.690984	0.469293
N301	N	-0.217283	0.072510	0.000094
N302	N	0.282717	0.572510	0.500094
H303	H	-0.197517	0.100672	0.000101
H304	H	0.302483	0.600672	0.500101
H305	H	-0.238467	0.074226	-0.030660
H306	H	0.261533	0.574226	0.469340
N307	N	-0.665811	0.090841	0.000083
N308	N	-0.165811	0.590841	0.500083
H309	H	-0.684998	0.102273	-0.030668
H310	H	-0.184998	0.602273	0.469332
H311	H	-0.659450	0.054158	0.000106
H312	H	-0.159450	0.554158	0.500106
N313	N	-0.704931	0.584854	0.000050
N314	N	-0.204931	1.084854	0.500050
H315	H	-0.697874	0.619691	0.000047
H316	H	-0.197874	1.119691	0.500047
H317	H	-0.724276	0.578701	-0.030701
H318	H	-0.224276	1.078701	0.469299
H319	H	-0.653168	0.187348	0.000063
H320	H	-0.153168	0.687348	0.500063
N321	N	-0.482561	0.065544	0.000067
N322	N	0.017439	0.565544	0.500067
H323	H	-0.489618	0.030706	0.000073
H324	H	0.010382	0.530706	0.500073
H325	H	-0.463222	0.071690	-0.030687
H326	H	0.036778	0.571690	0.469313
H327	H	0.293777	-0.138273	0.000051
H328	H	0.793777	0.361727	0.500051
H329	H	-0.023514	-0.185643	0.000042
H330	H	0.476486	0.314357	0.500042
N331	N	0.076215	-0.196293	0.000044
N332	N	0.576215	0.303707	0.500044
H333	H	0.111052	-0.189235	0.000047
H334	H	0.611052	0.310765	0.500047
H335	H	0.070064	-0.215636	0.030795
H336	H	0.570064	0.284364	0.530795
N337	N	-0.707536	0.328832	0.000068
N338	N	-0.207536	0.828832	0.500068
H339	H	-0.735215	0.356310	0.000069
H340	H	-0.235215	0.856310	0.500069
H341	H	-0.709676	0.308181	-0.030686
H342	H	-0.209676	0.808181	0.469314
N343	N	-0.658497	0.810682	0.000036
N344	N	-0.158497	1.310682	0.500036
H345	H	-0.677857	0.804574	0.030789
H346	H	-0.177857	1.304574	0.530789
H347	H	-0.651401	0.845506	0.000015
H348	H	-0.151401	1.345506	0.500015
N349	N	0.038748	0.075108	0.000091
N350	N	0.538748	0.575108	0.500091
H351	H	0.027313	0.094297	-0.030657
H352	H	0.527313	0.594297	0.469343
H353	H	0.027306	0.094241	0.030869
H354	H	0.527306	0.594241	0.530869
N355	N	-0.313018	-0.156111	0.000045
N356	N	0.186982	0.343889	0.500045
H357	H	-0.332788	-0.184271	0.000041
H358	H	0.167212	0.315729	0.500041
H359	H	-0.291831	-0.157824	-0.030705
H360	H	0.208169	0.342176	0.469295
N361	N	-0.066033	0.074043	0.000087
N362	N	0.433967	0.574043	0.500087
H363	H	-0.046264	0.102203	0.000092
H364	H	0.453736	0.602203	0.500092
H365	H	-0.087216	0.075758	-0.030668
H366	H	0.412784	0.575758	0.469332
N367	N	0.171963	0.032329	0.000082
N368	N	0.671963	0.532329	0.500082
H369	H	0.191733	0.060489	0.000085
H370	H	0.691733	0.560489	0.500085
H371	H	0.150777	0.034045	-0.030671
H372	H	0.650777	0.534045	0.469329
H373	H	-0.510433	-0.121951	0.228896
H374	H	-0.010433	0.378049	0.728896
H375	H	-0.694889	0.425336	0.000056
H376	H	-0.194889	0.925336	0.500056
H377	H	-0.510430	-0.121952	0.134157
H378	H	-0.010430	0.378048	0.634157
N379	N	-0.433530	0.547384	0.000017
N380	N	0.066470	1.047384	0.500017
H381	H	-0.405849	0.519907	0.000015
H382	H	0.094151	1.019907	0.500015
H383	H	-0.431399	0.568033	-0.030739
H384	H	0.068601	1.068033	0.469261
N385	N	-0.705999	0.480068	0.000057
N386	N	-0.205999	0.980068	0.500057
H387	H	-0.733679	0.507546	0.000059
H388	H	-0.233679	1.007546	0.500059
H389	H	-0.708141	0.459416	-0.030696
H390	H	-0.208141	0.959416	0.469304
H391	H	-0.477310	-0.155018	0.374362
H392	H	0.022690	0.344982	0.874362
H393	H	-0.647846	0.710950	0.000047
H394	H	-0.147846	1.210950	0.500047
H395	H	-0.174750	-0.187180	0.000029
H396	H	0.325250	0.312820	0.500029
N397	N	-0.476308	0.680606	0.000023
N398	N	0.023692	1.180606	0.500023
H399	H	-0.474548	0.659418	0.030776
H400	H	0.025452	1.159418	0.530776
H401	H	-0.474582	0.659449	-0.030750
H402	H	0.025418	1.159449	0.469250
N403	N	-0.468579	-0.163755	0.632651
N404	N	0.031421	0.336245	1.132651
H405	H	-0.447599	-0.184718	0.608186
H406	H	0.052401	0.315282	1.108186
H407	H	-0.447351	-0.145388	0.654313
H408	H	0.052649	0.354612	1.154313
N409	N	-0.475247	0.785383	0.000030
N410	N	0.024753	1.285383	0.500030
H411	H	-0.447566	0.757906	0.000027
H412	H	0.052434	1.257906	0.500027
H413	H	-0.473115	0.806035	-0.030723
H414	H	0.026885	1.306035	0.469277
H415	H	-0.663725	0.031269	0.530995
H416	H	-0.163725	0.531269	1.030995
H417	H	0.271687	0.021674	0.000069
H418	H	0.771687	0.521674	0.500069
N419	N	-0.672481	0.040020	0.632628
N420	N	-0.172481	0.540020	1.132628
H421	H	-0.667453	0.034996	0.669670
H422	H	-0.167453	0.534996	1.169670
H423	H	-0.667155	0.074274	0.623502
H424	H	-0.167155	0.574274	1.123502
H425	H	-0.117558	0.061861	0.000088
H426	H	0.382442	0.561861	0.500088
N427	N	-0.075030	-0.197833	0.000063
N428	N	0.424970	0.302167	0.500063
H429	H	-0.094801	-0.225992	0.000067
H430	H	0.405199	0.274008	0.500067
H431	H	-0.053838	-0.199557	-0.030683
H432	H	0.446162	0.300443	0.469317
N433	N	-0.338302	0.027142	0.000049
N434	N	0.161698	0.527142	0.500049
H435	H	-0.365776	0.054825	0.000050
H436	H	0.134224	0.554825	0.500050
H437	H	-0.317651	0.029272	0.030807
H438	H	0.182349	0.529272	0.530807
N439	N	-0.639378	0.006935	0.764314
N440	N	-0.139378	0.506935	1.264314
H441	H	-0.621065	0.028212	0.742655
H442	H	-0.121065	0.528212	1.242655
H443	H	-0.660636	-0.011416	0.742671
H444	H	-0.160636	0.488584	1.242671
H445	H	-0.663722	0.031266	0.469068
H446	H	-0.163722	0.531266	0.969068
H447	H	-0.434827	0.014492	0.000047
H448	H	0.065173	0.514492	0.500047
N449	N	-0.434595	0.442606	0.000018
N450	N	0.065405	0.942606	0.500018
H451	H	-0.406435	0.462375	0.000014
H452	H	0.093565	0.962375	0.500014
H453	H	-0.432881	0.421426	0.030774
H454	H	0.067119	0.921426	0.530774
N455	N	-0.639348	0.006887	0.127237
N456	N	-0.139348	0.506887	0.627237
H457	H	-0.660325	0.027854	0.151701
H458	H	-0.160325	0.527854	0.651701
H459	H	-0.621004	0.028129	0.105571
H460	H	-0.121004	0.528129	0.605571
N461	N	-0.501716	-0.130663	0.872862
N462	N	-0.001716	0.369337	1.372862
H463	H	-0.480737	-0.151626	0.848397
H464	H	0.019263	0.348374	1.348397
H465	H	-0.480488	-0.112300	0.894528
H466	H	0.019512	0.387700	1.394528
N467	N	-0.501710	-0.130668	0.764328
N468	N	-0.001710	0.369332	1.264328
H469	H	-0.480442	-0.112347	0.742665
H470	H	0.019558	0.387653	1.242665
H471	H	-0.480770	-0.151625	0.788829
H472	H	0.019230	0.348375	1.288829
N473	N	-0.639352	0.006901	0.235770
N474	N	-0.139352	0.506901	0.735770
H475	H	-0.660329	0.027861	0.211298
H476	H	-0.160329	0.527861	0.711298
H477	H	-0.660583	-0.011460	0.257432
H478	H	-0.160583	0.488540	0.757432
H479	H	-0.663720	0.031258	0.374345
H480	H	-0.163720	0.531258	0.874345
N481	N	-0.639386	0.006929	0.872847
N482	N	-0.139386	0.506929	1.372847
H483	H	-0.621076	0.028203	0.894515
H484	H	-0.121076	0.528203	1.394515
H485	H	-0.660354	0.027864	0.848350
H486	H	-0.160354	0.527864	1.348350
N487	N	-0.468555	-0.163759	0.475990
N488	N	0.031445	0.336241	0.975990
H489	H	-0.473854	-0.198032	0.466900
H490	H	0.026146	0.301968	0.966900
H491	H	-0.434313	-0.158372	0.466884
H492	H	0.065687	0.341628	0.966884
