data_functionalizedCrystal
_audit_creation_method	'MofGen! by Chris Wilmer'
_symmetry_space_group_name_H-M	'P1'
_symmetry_Int_Tables_number	1
_symmetry_cell_setting	triclinic
loop_
_symmetry_equiv_pos_as_xyz
  x,y,z
_cell_length_a	12.759394
_cell_length_b	12.759395
_cell_length_c	12.759393
_cell_angle_alpha	90.018221
_cell_angle_beta	90.030331
_cell_angle_gamma	90.014487
loop_
_atom_site_label
_atom_site_type_symbol
_atom_site_fract_x
_atom_site_fract_y
_atom_site_fract_z
Zn1	Zn	-0.418209	1.606257	0.593983
Zn2	Zn	-0.593928	1.606151	0.418307
Zn3	Zn	-0.418263	1.430558	0.418323
Zn4	Zn	-0.593846	1.430547	0.593949
O5	O	-0.506061	1.518378	0.506140
O6	O	-0.441530	1.753264	0.570686
O7	O	-0.570682	1.582819	0.271288
O8	O	-0.271235	1.453914	0.441646
O9	O	-0.570630	1.753186	0.441618
O10	O	-0.271195	1.582999	0.570702
O11	O	-0.441622	1.453812	0.271300
O12	O	-0.441543	1.283536	0.441613
O13	O	-0.570490	1.453895	0.740974
O14	O	-0.570543	1.283528	0.570644
O15	O	-0.441451	1.582988	0.740999
O16	O	-0.740938	1.582808	0.441585
O17	O	-0.740878	1.453793	0.570629
C18	C	-0.506041	1.245411	0.506127
C19	C	-0.506057	1.128634	0.506147
C20	C	-0.779029	1.518316	0.506124
C21	C	-0.895806	1.518386	0.506152
C22	C	-1.115238	1.652953	0.371923
C23	C	-1.060371	1.720149	0.304780
C24	C	-0.950649	1.720095	0.304759
C25	C	-0.895793	1.652834	0.371887
C26	C	-0.950660	1.585637	0.439030
C27	C	-1.060384	1.585701	0.439046
C28	C	-0.950673	1.451189	0.573296
C29	C	-1.060394	1.451247	0.573324
C30	C	-0.895816	1.383928	0.640423
C31	C	-0.950683	1.316735	0.707573
C32	C	-1.060411	1.316793	0.707592
C33	C	-1.115262	1.384051	0.640467
C34	C	-0.371842	1.128696	0.640763
C35	C	-0.304748	1.073865	0.708079
C36	C	-0.304767	0.964144	0.708092
C37	C	-0.371885	0.909250	0.640780
C38	C	-0.438979	0.964080	0.573463
C39	C	-0.438956	1.073804	0.573459
C40	C	-0.573187	0.964018	0.438843
C41	C	-0.573175	1.073740	0.438834
C42	C	-0.640305	0.909124	0.371530
C43	C	-0.707406	0.963955	0.304217
C44	C	-0.707386	1.073683	0.304208
C45	C	-0.640270	1.128570	0.371517
C46	C	-0.232028	1.518469	0.506179
C47	C	-0.115251	1.518508	0.506196
C48	C	-0.505955	1.518452	0.780174
C49	C	-0.505910	1.518483	0.896950
C50	C	-0.506083	1.792412	0.506154
C51	C	-0.506092	1.909188	0.506160
C52	C	-0.506091	1.518366	0.233173
C53	C	-0.505840	1.518538	0.116397
C54	C	-0.438713	1.585711	0.951827
C55	C	-0.438675	1.585736	1.061551
C56	C	-0.573041	1.451302	1.061512
C57	C	-0.573073	1.451273	0.951790
C58	C	-0.371550	1.652922	0.896987
C59	C	-0.304348	1.720156	0.951864
C60	C	-0.304310	1.720181	1.061588
C61	C	-0.371474	1.652971	1.116436
H62	H	-1.105048	1.774909	0.250124
C63	C	-0.371781	0.790123	0.640977
C64	C	-0.298670	0.753855	0.714348
C65	C	-0.298557	0.644121	0.714567
H66	H	-0.353496	0.765149	0.573274
H67	H	-0.439588	0.765261	0.659079
H68	H	-0.230879	0.778706	0.696240
H69	H	-0.316939	0.778800	0.782062
H70	H	-0.366363	0.619259	0.732669
H71	H	-0.280274	0.619158	0.646860
H72	H	-0.248960	0.619499	0.764355
H73	H	-0.762019	1.118319	0.249387
C74	C	-0.891262	1.793161	0.231819
C75	C	-0.962780	1.852092	0.173050
C76	C	-0.908111	1.919419	0.105856
H77	H	-0.848519	1.753085	0.185913
H78	H	-0.848418	1.838951	0.272017
H79	H	-1.005606	1.806308	0.132855
H80	H	-1.005526	1.892190	0.218928
H81	H	-0.865267	1.965209	0.146054
H82	H	-0.865369	1.879334	0.059958
H83	H	-0.956627	1.959418	0.065981
C84	C	-1.234388	1.383998	0.640678
C85	C	-1.270703	1.310773	0.713861
C86	C	-1.380437	1.310706	0.714090
H87	H	-1.259400	1.365843	0.572929
H88	H	-1.259181	1.451782	0.658960
H89	H	-1.245921	1.243003	0.695573
H90	H	-1.245721	1.328910	0.781620
H91	H	-1.405230	1.378491	0.732372
H92	H	-1.405438	1.292553	0.646338
H93	H	-1.405090	1.261031	0.763750
C94	C	-0.640444	1.247697	0.371616
C95	C	-0.740488	1.284010	0.398258
C96	C	-0.740679	1.393743	0.398374
H97	H	-0.622248	1.272624	0.303884
H98	H	-0.590912	1.272576	0.421375
H99	H	-0.790004	1.259142	0.348501
H100	H	-0.758704	1.259111	0.465990
H101	H	-0.691148	1.418622	0.448132
H102	H	-0.722480	1.418660	0.330640
H103	H	-0.808555	1.418395	0.416459
H104	H	-0.371816	1.218037	0.640754
C105	C	-0.231363	1.792947	0.892189
C106	C	-0.164056	1.733468	0.829187
C107	C	-0.096813	1.800487	0.774192
H108	H	-0.191234	1.833009	0.940470
H109	H	-0.271540	1.838685	0.849321
H110	H	-0.123883	1.687748	0.872051
H111	H	-0.204156	1.693408	0.780886
H112	H	-0.136990	1.846226	0.731324
H113	H	-0.056692	1.840546	0.822481
H114	H	-0.051145	1.760142	0.731432
C115	C	-0.231309	1.793285	1.120981
C116	C	-0.172520	1.852153	1.049466
C117	C	-0.105272	1.919523	1.104137
H118	H	-0.185418	1.753243	1.163794
H119	H	-0.271469	1.839113	1.163756
H120	H	-0.132363	1.806330	1.006709
H121	H	-0.218383	1.892216	1.006650
H122	H	-0.145432	1.965351	1.146912
H123	H	-0.059388	1.879472	1.146949
H124	H	-0.065383	1.959479	1.055623
H125	H	-0.806452	1.652786	0.371855
C126	C	-0.232059	1.133523	0.781291
C127	C	-0.291625	1.196516	0.848534
C128	C	-0.224701	1.251473	0.915997
H129	H	-0.186202	1.176400	0.741304
H130	H	-0.192120	1.085188	0.821445
H131	H	-0.331546	1.244845	0.808383
H132	H	-0.337479	1.153665	0.888544
H133	H	-0.184762	1.203139	0.956151
H134	H	-0.178848	1.294344	0.876001
H135	H	-0.265107	1.294213	0.961635
H136	H	-0.762044	0.919251	0.249412
C137	C	-0.640448	0.789998	0.371352
C138	C	-0.713567	0.753663	0.297980
C139	C	-0.713724	0.643929	0.297778
H140	H	-0.658749	0.765075	0.439058
H141	H	-0.572650	0.765129	0.353259
H142	H	-0.781351	0.778521	0.316079
H143	H	-0.695284	0.778557	0.230264
H144	H	-0.645926	0.619061	0.279685
H145	H	-0.732023	0.619017	0.365487
H146	H	-0.763328	0.619262	0.247990
H147	H	-0.250126	0.919501	0.762901
C148	C	-0.776689	1.383663	0.640510
C149	C	-0.740395	1.310356	0.713641
C150	C	-0.630662	1.310067	0.713740
H151	H	-0.751660	1.451372	0.658768
H152	H	-0.751900	1.365463	0.572706
H153	H	-0.765174	1.328561	0.781430
H154	H	-0.765396	1.242636	0.695400
H155	H	-0.605873	1.291868	0.645936
H156	H	-0.605643	1.377780	0.731996
H157	H	-0.606023	1.260323	0.763351
H158	H	-0.371426	1.652985	1.205780
H159	H	-0.906012	1.261971	0.762219
H160	H	-0.627722	1.396583	1.106178
H161	H	-1.204579	1.653014	0.371943
C162	C	-0.646170	1.378269	0.892391
C163	C	-0.705018	1.319452	0.963899
C164	C	-0.772384	1.252207	0.909219
H165	H	-0.606125	1.332396	0.849579
H166	H	-0.692010	1.418432	0.849614
H167	H	-0.659184	1.279293	1.006658
H168	H	-0.745084	1.365298	1.006713
H169	H	-0.818224	1.292370	0.866441
H170	H	-0.732331	1.206341	0.866409
H171	H	-0.812328	1.212299	0.957728
H172	H	-1.105078	1.262074	0.762270
H173	H	-0.371576	1.652911	0.807644
