data_functionalizedCrystal
_audit_creation_method	'MofGen! by Chris Wilmer'
_symmetry_space_group_name_H-M	'P1'
_symmetry_Int_Tables_number	1
_symmetry_cell_setting	triclinic
loop_
_symmetry_equiv_pos_as_xyz
  x,y,z
_cell_length_a	19.188905
_cell_length_b	14.044220
_cell_length_c	12.503572
_cell_angle_alpha	86.156832
_cell_angle_beta	86.486933
_cell_angle_gamma	91.838284
loop_
_atom_site_label
_atom_site_type_symbol
_atom_site_fract_x
_atom_site_fract_y
_atom_site_fract_z
O1	O	0.937474	-0.112684	-0.089503
O2	O	1.270808	0.220650	0.243831
O3	O	1.604141	0.553983	0.577164
O4	O	0.735189	-0.128637	-0.089466
O5	O	1.068522	0.204696	0.243867
O6	O	1.401855	0.538030	0.577200
O7	O	0.833295	0.017311	-0.089473
O8	O	1.166628	0.350644	0.243860
O9	O	1.499961	0.683977	0.577193
O10	O	0.839368	-0.258631	-0.089496
O11	O	1.172702	0.074702	0.243838
O12	O	1.506035	0.408035	0.577171
O13	O	0.825918	0.006316	0.089169
O14	O	1.159251	0.339650	0.422502
O15	O	1.492584	0.672983	0.755836
O16	O	0.727811	-0.139631	0.089176
O17	O	1.061145	0.193702	0.422509
O18	O	1.394478	0.527035	0.755843
O19	O	0.930097	-0.123678	0.089140
O20	O	1.263431	0.209655	0.422473
O21	O	1.596764	0.542989	0.755807
Cu22	Cu	0.828281	-0.132658	0.105469
Cu23	Cu	1.161614	0.200675	0.438803
Cu24	Cu	1.494947	0.534008	0.772136
Cu25	Cu	0.837005	-0.119656	-0.105796
Cu26	Cu	1.170338	0.213677	0.227537
Cu27	Cu	1.503672	0.547010	0.560871
O28	O	0.831991	-0.269626	0.089147
O29	O	1.165324	0.063708	0.422480
O30	O	1.498658	0.397041	0.755813
C31	C	0.705455	-0.133622	-0.000140
C32	C	1.038789	0.199712	0.333193
C33	C	1.372122	0.533045	0.666526
C34	C	0.627850	-0.132084	-0.000126
C35	C	0.961183	0.201249	0.333207
C36	C	1.294517	0.534583	0.666540
C37	C	0.595432	-0.125352	-0.097507
C38	C	0.928765	0.207982	0.235826
C39	C	1.262099	0.541315	0.569160
C40	C	0.522515	-0.123895	-0.097520
C41	C	0.855848	0.209439	0.235813
C42	C	1.189182	0.542772	0.569146
C43	C	0.482019	-0.129151	-0.000147
C44	C	0.815352	0.204182	0.333186
C45	C	1.148686	0.537516	0.666519
C46	C	0.514445	-0.135889	0.097246
C47	C	0.847779	0.197444	0.430580
C48	C	1.181112	0.530777	0.763913
C49	C	0.587361	-0.137356	0.097257
C50	C	0.920694	0.195977	0.430590
C51	C	1.254027	0.529311	0.763924
N52	N	0.366378	-0.077382	0.072323
N53	N	0.699711	0.255951	0.405656
N54	N	1.033044	0.589284	0.738989
N55	N	0.297111	-0.075987	0.072306
N56	N	0.630445	0.257346	0.405639
N57	N	0.963778	0.590680	0.738973
C58	C	0.262329	-0.124735	-0.000173
C59	C	0.595662	0.208599	0.333161
C60	C	0.928995	0.541932	0.666494
N61	N	0.299430	-0.174918	-0.072651
N62	N	0.632763	0.158415	0.260682
N63	N	0.966097	0.491749	0.594016
N64	N	0.368703	-0.176309	-0.072637
N65	N	0.702036	0.157024	0.260696
N66	N	1.035370	0.490357	0.594029
C67	C	0.402954	-0.127562	-0.000148
C68	C	0.736287	0.205771	0.333186
C69	C	1.069621	0.539105	0.666519
C70	C	0.150846	-0.116423	-0.097575
C71	C	0.484179	0.216910	0.235759
C72	C	0.817512	0.550243	0.569092
C73	C	0.077927	-0.114972	-0.097584
C74	C	0.411260	0.218361	0.235750
C75	C	0.744594	0.551694	0.569083
C76	C	0.069859	-0.126958	0.097186
C77	C	0.403192	0.206375	0.430519
C78	C	0.736526	0.539709	0.763852
C79	C	0.142776	-0.128418	0.097192
C80	C	0.476110	0.204915	0.430525
C81	C	0.809443	0.538248	0.763859
C82	C	0.183265	-0.123146	-0.000191
C83	C	0.516599	0.210187	0.333142
C84	C	0.849932	0.543520	0.666476
C85	C	0.826948	0.047117	-0.000151
C86	C	1.160281	0.380450	0.333182
C87	C	1.493615	0.713783	0.666515
C88	C	0.819019	0.152308	-0.000148
C89	C	1.152352	0.485642	0.333185
C90	C	1.485686	0.818975	0.666518
C91	C	0.959831	-0.118693	-0.000188
C92	C	1.293164	0.214640	0.333145
C93	C	1.626497	0.547974	0.666478
C94	C	1.037436	-0.120230	-0.000210
C95	C	1.370770	0.213103	0.333124
C96	C	1.704103	0.546436	0.666457
N97	N	0.822150	-0.141803	0.254062
N98	N	1.155483	0.191531	0.587395
N99	N	1.488816	0.524864	0.920729
C100	C	0.838338	-0.299431	-0.000178
C101	C	1.171671	0.033902	0.333156
C102	C	1.505005	0.367235	0.666489
C103	C	0.846267	-0.404623	-0.000188
C104	C	1.179601	-0.071289	0.333146
C105	C	1.512934	0.262044	0.666479
C106	C	0.804524	0.344909	-0.000161
C107	C	1.137857	0.678242	0.333172
C108	C	1.471191	1.011575	0.666505
C109	C	0.860759	0.402783	-0.000175
C110	C	1.194093	0.736116	0.333159
C111	C	1.527426	1.069449	0.666492
C112	C	0.852694	0.509952	-0.000182
C113	C	1.186027	0.843285	0.333152
C114	C	1.519361	1.176619	0.666485
C115	C	0.812588	0.237729	-0.000154
C116	C	1.145921	0.571062	0.333179
C117	C	1.479255	0.904396	0.666512
N118	N	0.843141	-0.110505	-0.254389
N119	N	1.176475	0.222829	0.078945
N120	N	1.509808	0.556162	0.412278
C121	C	0.813131	-0.155262	0.473178
C122	C	1.146464	0.178071	0.806511
C123	C	1.479798	0.511404	1.139845
C124	C	0.852158	-0.097048	0.526502
C125	C	1.185491	0.236285	0.859836
C126	C	1.518824	0.569618	1.193169
C127	C	0.847140	-0.104537	0.648426
C128	C	1.180473	0.228796	0.981759
C129	C	1.513806	0.562129	1.315093
C130	C	0.818148	-0.147774	0.351243
C131	C	1.151482	0.185559	0.684577
C132	C	1.484815	0.518892	1.017910
H133	H	0.496115	-0.118414	-0.176822
H134	H	0.829448	0.214920	0.156511
H135	H	1.162781	0.548253	0.489845
H136	H	0.750326	0.375846	-0.000154
H137	H	1.083660	0.709179	0.333179
H138	H	1.416993	1.042513	0.666512
N139	N	0.763883	-0.228726	0.533986
N140	N	1.097217	0.104607	0.867319
N141	N	1.430550	0.437940	1.200652
H142	H	0.767236	-0.223729	0.613726
H143	H	1.100570	0.109604	0.947059
H144	H	1.433903	0.442937	1.280392
H145	H	0.777013	-0.294707	0.514391
H146	H	1.110347	0.038627	0.847724
H147	H	1.443680	0.371960	1.181058
N148	N	0.901410	-0.023579	0.465694
N149	N	1.234743	0.309754	0.799027
N150	N	1.568076	0.643087	1.132361
H151	H	0.898062	-0.028574	0.385953
H152	H	1.231395	0.304759	0.719286
H153	H	1.564728	0.638092	1.052620
H154	H	0.950830	-0.035427	0.485267
H155	H	1.284164	0.297906	0.818600
H156	H	1.617497	0.631240	1.151934
H157	H	0.481469	-0.140171	0.176528
H158	H	0.814802	0.193162	0.509862
H159	H	1.148136	0.526495	0.843195
N160	N	0.639102	-0.119662	-0.202537
N161	N	0.972436	0.213672	0.130797
N162	N	1.305769	0.547005	0.464130
H163	H	0.607496	-0.115174	-0.264230
H164	H	0.940830	0.218159	0.069103
H165	H	1.274163	0.551492	0.402437
H166	H	0.667522	-0.178739	-0.206788
H167	H	1.000856	0.154594	0.126545
H168	H	1.334189	0.487928	0.459879
N169	N	0.194517	-0.110749	-0.202607
N170	N	0.527850	0.222584	0.130727
N171	N	0.861184	0.555917	0.464060
H172	H	0.222943	-0.169818	-0.206946
H173	H	0.556276	0.163516	0.126387
H174	H	0.889610	0.496849	0.459720
H175	H	0.226915	-0.052321	-0.206878
H176	H	0.560248	0.281012	0.126455
H177	H	0.893582	0.614345	0.459788
N178	N	0.622331	-0.144621	0.202293
N179	N	0.955664	0.188712	0.535626
N180	N	1.288998	0.522045	0.868960
H181	H	0.585616	-0.147735	0.263980
H182	H	0.918949	0.185599	0.597313
H183	H	1.252282	0.518932	0.930646
H184	H	0.654417	-0.086758	0.206547
H185	H	0.987751	0.246575	0.539880
H186	H	1.321084	0.579909	0.873213
N187	N	0.932554	0.361799	-0.000168
N188	N	1.265887	0.695133	0.333165
N189	N	1.599221	1.028466	0.666499
H190	H	0.956033	0.379936	0.066054
H191	H	1.289367	0.713270	0.399387
H192	H	1.622700	1.046603	0.732720
H193	H	0.961462	0.388078	-0.066436
H194	H	1.294795	0.721411	0.266897
H195	H	1.628129	1.054745	0.600231
H196	H	0.169171	-0.133894	0.176490
H197	H	0.502505	0.199439	0.509824
H198	H	0.835838	0.532773	0.843157
H199	H	0.051534	-0.109496	-0.176886
H200	H	0.384867	0.223838	0.156447
H201	H	0.718200	0.557171	0.489780
H202	H	0.036888	-0.131244	0.176469
H203	H	0.370221	0.202090	0.509802
H204	H	0.703555	0.535423	0.843136
