data_functionalizedCrystal
_audit_creation_method	'MofGen! by Chris Wilmer'
_symmetry_space_group_name_H-M	'P1'
_symmetry_Int_Tables_number	1
_symmetry_cell_setting	triclinic
loop_
_symmetry_equiv_pos_as_xyz
  x,y,z
_cell_length_a	6.817900
_cell_length_b	11.102244
_cell_length_c	19.453030
_cell_angle_alpha	94.505258
_cell_angle_beta	101.707737
_cell_angle_gamma	108.604870
loop_
_atom_site_label
_atom_site_type_symbol
_atom_site_fract_x
_atom_site_fract_y
_atom_site_fract_z
V1	V	-4.033131	-0.177161	-0.218997
O2	O	-3.993662	0.007152	-0.214830
O3	O	-4.010439	-0.349972	-0.217497
O4	O	-3.975722	-0.175034	-0.314510
O5	O	-4.028619	-0.168997	-0.117146
V6	V	-4.514595	-0.155045	-0.206815
O7	O	-4.298906	-0.225676	-0.245719
O8	O	-4.699018	-0.106530	-0.180093
O9	O	-4.314081	0.017766	-0.208314
O10	O	-4.671461	-0.339358	-0.210982
O11	O	-4.636504	-0.163209	-0.308666
O12	O	-4.348798	-0.157173	-0.111302
C13	C	-3.861985	-0.392081	-0.214042
C14	C	-3.924658	-0.533360	-0.213453
C15	C	-3.916954	-0.581204	-0.148856
C16	C	-3.975854	-0.713953	-0.148311
C17	C	-4.050151	-0.751002	-0.276963
C18	C	-3.991266	-0.618256	-0.277508
C19	C	-3.874051	-0.559815	-0.074580
C20	C	-3.932951	-0.692564	-0.074034
C21	C	-3.817699	-0.168928	-0.337790
C22	C	-3.852215	-0.168332	-0.415872
C23	C	-3.924988	-0.284499	-0.462576
C24	C	-3.957445	-0.283952	-0.535945
C25	C	-3.917083	-0.167230	-0.562605
C26	C	-3.844309	-0.051048	-0.515891
C27	C	-3.811875	-0.051599	-0.442524
N28	N	-3.811793	-0.075716	-0.668100
N29	N	-3.842604	-0.075200	-0.737795
C30	C	-4.014806	-0.165564	-0.783652
N31	N	-4.155019	-0.256481	-0.757182
N32	N	-4.124198	-0.257000	-0.687480
C33	C	-3.952247	-0.166620	-0.642157
C34	C	-4.122780	-0.281146	-0.909911
C35	C	-4.155247	-0.280595	-0.983280
C36	C	-4.042089	-0.047687	-0.963224
C37	C	-4.009644	-0.048242	-0.889857
C38	C	-4.049984	-0.164975	-0.863205
C39	C	-4.125878	0.059868	-0.211768
C40	C	-4.042443	0.201145	-0.212362
C41	C	-4.170164	-0.163282	-0.088018
C42	C	-4.114886	-0.163872	-0.009935
H43	H	-3.697716	-0.506858	-0.048927
C44	C	-3.733154	0.074621	-0.391901
C45	C	-3.879356	0.139015	-0.407084
C46	C	-3.806891	0.255301	-0.360470
H47	H	-3.719619	0.057757	-0.344365
H48	H	-3.598359	0.126699	-0.397530
H49	H	-4.014113	0.086948	-0.401449
H50	H	-3.892907	0.155911	-0.454612
H51	H	-3.672096	0.307379	-0.366099
H52	H	-3.793358	0.238426	-0.312936
H53	H	-3.906067	0.299013	-0.370769
C54	C	-4.233951	-0.406621	-1.034068
C55	C	-4.083441	-0.407078	-1.073414
C56	C	-4.155884	-0.523145	-1.120215
H57	H	-4.253310	-0.476321	-1.007773
H58	H	-4.365826	-0.415331	-1.065431
H59	H	-3.951603	-0.398382	-1.042056
H60	H	-4.064064	-0.337404	-1.099724
H61	H	-4.287760	-0.531855	-1.151578
H62	H	-4.175242	-0.592836	-1.093915
H63	H	-4.053785	-0.523466	-1.146922
C64	C	-3.998242	0.079173	-0.992023
C65	C	-3.927600	0.180793	-0.935414
C66	C	-3.887223	0.297676	-0.961920
H67	H	-3.891589	0.088482	-1.017927
H68	H	-4.125452	0.080226	-1.022493
H69	H	-3.800407	0.179742	-0.904956
H70	H	-4.034224	0.171526	-0.909505
H71	H	-4.014433	0.298729	-0.992390
H72	H	-3.780574	0.306972	-0.987824
H73	H	-3.839307	0.366638	-0.923516
C74	C	-3.931037	0.077836	-0.839122
C75	C	-4.081612	0.078327	-0.799809
C76	C	-4.009298	0.194462	-0.753073
H77	H	-3.799182	0.086663	-0.807728
H78	H	-3.911734	0.147461	-0.865485
H79	H	-4.100889	0.008722	-0.773447
H80	H	-4.213477	0.069521	-0.831183
H81	H	-3.989995	0.264087	-0.779436
H82	H	-3.877442	0.203279	-0.721685
H83	H	-4.111459	0.194816	-0.726398
H84	H	-3.811453	0.043988	-0.537602
C85	C	-4.122814	-0.843338	-0.346459
C86	C	-4.331265	-0.926776	-0.353201
C87	C	-4.398260	-1.011861	-0.417207
H88	H	-4.119169	-0.795996	-0.385070
H89	H	-4.030514	-0.891818	-0.346686
H90	H	-4.423540	-0.878301	-0.352980
H91	H	-4.334966	-0.974147	-0.314605
H92	H	-4.305960	-1.060341	-0.417435
H93	H	-4.394602	-0.964508	-0.455813
H94	H	-4.539691	-1.068491	-0.421787
H95	H	-3.792153	-0.715393	-0.042682
C96	C	-4.036368	-0.410215	-0.586547
C97	C	-4.064710	-0.512559	-0.547502
C98	C	-4.137383	-0.628888	-0.594089
H99	H	-4.168331	-0.419097	-0.617891
H100	H	-3.934444	-0.410828	-0.613284
H101	H	-4.166629	-0.511948	-0.520777
H102	H	-3.932776	-0.503719	-0.516160
H103	H	-4.035460	-0.629501	-0.620826
H104	H	-4.269342	-0.637757	-0.625431
H105	H	-4.156604	-0.698341	-0.567604
H106	H	-3.997560	-0.579309	-0.330109
C107	C	-4.166244	-0.407996	-0.881097
C108	C	-4.236740	-0.509611	-0.937703
C109	C	-4.276570	-0.626475	-0.911186
H110	H	-4.038898	-0.408919	-0.850674
H111	H	-4.272830	-0.417427	-0.855143
H112	H	-4.130163	-0.500183	-0.963646
H113	H	-4.364099	-0.508731	-0.968132
H114	H	-4.383155	-0.635906	-0.885231
H115	H	-4.149215	-0.627384	-0.880762
H116	H	-4.324424	-0.695435	-0.949589
H117	H	-4.082672	-0.732241	-0.053590
H118	H	-3.981904	-0.520564	-0.048896
H119	H	-3.957849	-0.379553	-0.440882
