data_functionalizedCrystal
_audit_creation_method	'MofGen! by Chris Wilmer'
_symmetry_space_group_name_H-M	'P1'
_symmetry_Int_Tables_number	1
_symmetry_cell_setting	triclinic
loop_
_symmetry_equiv_pos_as_xyz
  x,y,z
_cell_length_a	15.995350
_cell_length_b	13.339070
_cell_length_c	14.472310
_cell_angle_alpha	90.004068
_cell_angle_beta	89.990621
_cell_angle_gamma	99.560835
loop_
_atom_site_label
_atom_site_type_symbol
_atom_site_fract_x
_atom_site_fract_y
_atom_site_fract_z
O1	O	-1.141288	-0.130389	0.076757
O2	O	-0.641288	0.369611	0.576757
O3	O	-0.901254	-0.146491	0.076776
O4	O	-0.401254	0.353509	0.576776
O5	O	-0.993723	0.008823	0.076766
O6	O	-0.493723	0.508823	0.576766
O7	O	-1.048819	-0.285704	0.076767
O8	O	-0.548819	0.214296	0.576767
O9	O	-0.993692	0.008814	-0.076916
O10	O	-0.493692	0.508814	0.423084
O11	O	-0.901223	-0.146500	-0.076906
O12	O	-0.401223	0.353500	0.423094
O13	O	-1.141257	-0.130398	-0.076925
O14	O	-0.641257	0.369602	0.423075
Cu15	Cu	-1.021237	-0.138450	-0.090948
Cu16	Cu	-0.521237	0.361550	0.409052
Cu17	Cu	-1.021274	-0.138439	0.090799
Cu18	Cu	-0.521274	0.361561	0.590799
O19	O	-1.048788	-0.285713	-0.076915
O20	O	-0.548788	0.214287	0.423085
C21	C	-0.869889	-0.145830	-0.000063
C22	C	-0.369889	0.354170	0.499937
C23	C	-0.776475	-0.143834	-0.000056
C24	C	-0.276475	0.356166	0.499944
C25	C	-0.984400	0.046508	-0.000073
C26	C	-0.484400	0.546508	0.499927
C27	C	-0.956659	0.158810	-0.000067
C28	C	-0.456659	0.658810	0.499933
C29	C	-1.172622	-0.131059	-0.000084
C30	C	-0.672622	0.368941	0.499916
C31	C	-1.266036	-0.133055	-0.000085
C32	C	-0.766036	0.366945	0.499915
C33	C	-0.437062	-0.136667	-0.000075
C34	C	0.062938	0.363333	0.499925
C35	C	-0.458799	-0.026055	-0.000418
C36	C	0.041201	0.473945	0.499582
C37	C	-0.555953	-0.028051	-0.000065
C38	C	-0.055953	0.471949	0.499935
C39	C	-0.605449	-0.140222	-0.000066
C40	C	-0.105449	0.359778	0.499934
C41	C	-0.577054	-0.194775	0.087691
C42	C	-0.077054	0.305225	0.587691
C43	C	-0.479773	-0.191996	0.087758
C44	C	0.020227	0.308004	0.587758
C45	C	-0.479930	-0.194292	-0.087008
C46	C	0.020070	0.305708	0.412992
C47	C	-0.576869	-0.194265	-0.088161
C48	C	-0.076869	0.305735	0.411839
C49	C	-0.700614	-0.142237	-0.000058
C50	C	-0.200614	0.357763	0.499942
C51	C	-0.341897	-0.134655	-0.000077
C52	C	0.158103	0.365345	0.499923
C53	C	-1.058111	-0.323397	-0.000074
C54	C	-0.558111	0.176603	0.499926
C55	C	-1.085852	-0.435699	-0.000074
C56	C	-0.585852	0.064301	0.499926
N57	N	-1.021217	-0.138457	-0.218779
N58	N	-0.521217	0.361543	0.281221
C59	C	-1.172362	0.523603	-0.000084
C60	C	-0.672362	1.023603	0.499916
C61	C	-1.198430	0.418090	-0.000095
C62	C	-0.698430	0.918090	0.499905
C63	C	-1.137989	0.353265	-0.000088
C64	C	-0.637989	0.853265	0.499912
C65	C	-1.051477	0.393963	-0.000070
C66	C	-0.551477	0.893963	0.499930
C67	C	-1.025407	0.499486	-0.000067
C68	C	-0.525407	0.999486	0.499933
C69	C	-0.991034	0.329148	-0.000070
C70	C	-0.491034	0.829148	0.499930
C71	C	-0.904522	0.369846	-0.000053
C72	C	-0.404522	0.869846	0.499947
C73	C	-0.878457	0.475359	-0.000049
C74	C	-0.378457	0.975359	0.499951
C75	C	-0.938897	0.540184	-0.000056
C76	C	-0.438897	1.040184	0.499944
C77	C	-1.017104	0.223625	-0.000074
C78	C	-0.517104	0.723625	0.499926
C79	C	-0.870149	0.199508	-0.000056
C80	C	-0.370149	0.699508	0.499944
C81	C	-0.844081	0.305021	-0.000046
C82	C	-0.344081	0.805021	0.499954
C83	C	-1.021272	-0.138435	-0.592870
C84	C	-0.521272	0.361565	-0.092870
C85	C	-0.971498	-0.221262	-0.553699
C86	C	-0.471498	0.278738	-0.053699
C87	C	-0.971727	-0.221564	-0.446611
C88	C	-0.471727	0.278436	0.053389
C89	C	-1.021244	-0.138446	-0.407279
C90	C	-0.521244	0.361554	0.092721
C91	C	-1.113965	-0.161500	-0.446123
C92	C	-0.613965	0.338500	0.053877
C93	C	-1.113714	-0.162089	-0.553244
C94	C	-0.613714	0.337911	-0.053244
C95	C	-0.979047	-0.032308	-0.553398
C96	C	-0.479047	0.467692	-0.053398
C97	C	-0.977208	-0.033016	-0.446270
C98	C	-0.477208	0.466984	0.053730
C99	C	-1.021233	-0.138450	-0.302391
C100	C	-0.521233	0.361550	0.197609
C101	C	-1.021289	-0.138433	-0.697758
C102	C	-0.521289	0.361567	-0.197758
N103	N	-1.021298	-0.138424	0.218630
N104	N	-0.521298	0.361576	0.718630
H105	H	-0.574406	0.014831	-0.062973
H106	H	-0.074406	0.514831	0.437027
H107	H	-1.000756	-0.299574	-0.580609
H108	H	-0.500756	0.200426	-0.080609
H109	H	-0.429992	0.018156	-0.063352
H110	H	0.070008	0.518156	0.436648
Br111	Br	-1.169488	-0.291089	-0.594879
Br112	Br	-0.669488	0.208911	-0.094879
Br113	Br	-1.030572	0.074533	-0.401666
Br114	Br	-0.530572	0.574533	0.098334
Br115	Br	-1.254378	0.611581	-0.000116
Br116	Br	-0.754378	1.111581	0.499884
H117	H	-1.159218	0.267352	-0.000097
H118	H	-0.659218	0.767352	0.499903
Br119	Br	-0.761048	0.530590	-0.000043
Br120	Br	-0.261048	1.030590	0.499957
Br121	Br	-0.903522	0.683387	0.000083
Br122	Br	-0.403522	1.183387	0.500083
H123	H	-0.467114	-0.275845	-0.087601
H124	H	0.032886	0.224155	0.412399
Br125	Br	-1.020886	-0.352842	-0.403878
Br126	Br	-0.520886	0.147158	0.096122
H127	H	-0.452235	-0.152206	0.153358
H128	H	0.047765	0.347794	0.653358
Br129	Br	-0.606811	-0.127778	-0.196369
Br130	Br	-0.106811	0.372222	0.303631
Br131	Br	-1.134508	0.168405	-0.000100
Br132	Br	-0.634508	0.668405	0.499900
H133	H	-0.466392	-0.273205	0.091740
H134	H	0.033608	0.226795	0.591740
H135	H	-0.611236	-0.276065	-0.093462
H136	H	-0.111236	0.223935	0.406538
Br137	Br	-0.863316	-0.003850	-0.403961
Br138	Br	-0.363316	0.496150	0.096039
H139	H	-0.820933	0.146727	-0.000055
H140	H	-0.320933	0.646727	0.499945
Br141	Br	-0.632529	-0.332119	0.093155
Br142	Br	-0.132529	0.167881	0.593155
Br143	Br	-0.726675	0.360266	-0.000017
Br144	Br	-0.226675	0.860266	0.499983
Br145	Br	-0.431682	-0.134024	-0.197876
Br146	Br	0.068318	0.365976	0.302124
Br147	Br	-1.178875	-0.063625	-0.403665
Br148	Br	-0.678875	0.436375	0.096335
Br149	Br	-1.179300	-0.065254	-0.596436
Br150	Br	-0.679300	0.434746	-0.096436
H151	H	-0.903597	-0.207828	-0.420350
H152	H	-0.403597	0.292172	0.079650
Br153	Br	-0.857666	-0.198730	-0.596644
Br154	Br	-0.357666	0.301270	-0.096644
Br155	Br	-1.170019	-0.289030	-0.401396
Br156	Br	-0.670019	0.210970	0.098604
Br157	Br	-0.866574	0.004622	-0.598471
Br158	Br	-0.366574	0.504622	-0.098471
Br159	Br	-1.039066	0.070425	-0.595614
Br160	Br	-0.539066	0.570425	-0.095614
H161	H	-0.596638	-0.156878	0.153001
H162	H	-0.096638	0.343122	0.653001
H163	H	-0.428993	0.017960	0.062168
H164	H	0.071007	0.517960	0.562168
H165	H	-1.268867	0.384962	-0.000110
H166	H	-0.768867	0.884962	0.499890
H167	H	-0.573793	0.015128	0.062951
H168	H	-0.073793	0.515128	0.562951
