data_functionalizedCrystal
_audit_creation_method	'MofGen! by Chris Wilmer'
_symmetry_space_group_name_H-M	'P1'
_symmetry_Int_Tables_number	1
_symmetry_cell_setting	triclinic
loop_
_symmetry_equiv_pos_as_xyz
  x,y,z
_cell_length_a	10.489716
_cell_length_b	8.965430
_cell_length_c	10.489741
_cell_angle_alpha	90.000457
_cell_angle_beta	84.534155
_cell_angle_gamma	89.996741
loop_
_atom_site_label
_atom_site_type_symbol
_atom_site_fract_x
_atom_site_fract_y
_atom_site_fract_z
O1	O	1.694059	0.124026	0.179813
O2	O	1.322859	0.124032	0.196738
O3	O	1.516905	0.124020	0.002677
O4	O	1.500012	0.124038	0.373874
O5	O	1.516915	-0.124059	0.002683
O6	O	1.322868	-0.124047	0.196744
O7	O	1.694068	-0.124052	0.179819
Cu8	Cu	1.508469	-0.146701	0.188282
Cu9	Cu	1.508458	0.146681	0.188275
O10	O	1.500022	-0.124041	0.373880
C11	C	1.275332	-0.000007	0.195470
C12	C	1.133701	-0.000005	0.191665
C13	C	1.036027	0.000005	0.310669
C14	C	0.958685	-0.122321	0.247788
C15	C	0.958683	0.122265	0.247754
C16	C	1.058225	-0.122431	0.128833
C17	C	1.058227	0.122265	0.128816
C18	C	0.980935	-0.000091	0.065848
N19	N	1.508486	-0.353050	0.188287
C20	C	1.598255	-0.450322	0.098546
C21	C	1.482758	-0.549726	0.072721
C22	C	1.623937	-0.549774	0.214028
C23	C	1.392931	-0.450266	0.162404
C24	C	1.534186	-0.450305	0.303762
C25	C	1.418606	-0.549664	0.277986
C26	C	1.741596	-0.000010	0.181087
C27	C	1.883227	-0.000002	0.184892
C28	C	1.515634	-0.000018	-0.044852
C29	C	1.511817	-0.000016	-0.186481
N30	N	1.508451	0.353030	0.188260
C31	C	1.388351	-0.000003	-0.254610
C32	C	1.446680	-0.122319	-0.346735
C33	C	1.446700	0.122267	-0.346715
C34	C	1.570196	-0.122433	-0.276740
C35	C	1.570199	0.122263	-0.276711
C36	C	1.628618	-0.000083	-0.368808
C37	C	1.501293	0.000001	0.421409
C38	C	1.505110	0.000008	0.563038
H39	H	1.101719	0.225680	0.078616
H40	H	0.915195	0.225667	0.298012
O41	O	1.109854	-0.245831	0.068739
C42	C	1.139724	-0.386136	-0.127773
C43	C	1.081211	-0.246310	-0.059888
H44	H	1.116564	-0.386585	-0.231772
H45	H	1.248031	-0.385180	-0.124414
H46	H	1.097815	-0.490223	-0.077347
H47	H	1.123019	-0.142148	-0.110262
H48	H	0.972904	-0.247397	-0.063235
H49	H	1.060696	-0.000105	0.414185
H50	H	1.342593	-0.593008	0.353870
H51	H	1.286838	-0.000125	-0.204950
H52	H	1.730222	-0.000153	-0.418241
O53	O	1.456616	-0.601656	-0.043790
C54	C	1.306274	-0.607881	-0.203665
C55	C	1.335718	-0.548949	-0.071710
H56	H	1.208517	-0.565317	-0.226268
H57	H	1.382829	-0.567033	-0.280131
H58	H	1.305649	-0.735026	-0.202245
H59	H	1.336324	-0.421808	-0.073005
H60	H	1.259158	-0.589912	0.004699
O61	O	1.276312	-0.398435	0.136494
C62	C	1.049690	-0.391519	0.201021
C63	C	1.181681	-0.450286	0.230533
H64	H	0.973142	-0.433442	0.277018
H65	H	1.050565	-0.264365	0.201267
H66	H	1.027642	-0.433332	0.102859
H67	H	1.203811	-0.408583	0.328697
H68	H	1.180739	-0.577438	0.230201
O69	O	1.632345	-0.246098	-0.240110
C70	C	1.638025	-0.514707	-0.234883
C71	C	1.567543	-0.374784	-0.276467
H72	H	1.585647	-0.618783	-0.264237
H73	H	1.740138	-0.515253	-0.283068
H74	H	1.640426	-0.513660	-0.126462
H75	H	1.565044	-0.375738	-0.384873
H76	H	1.465468	-0.374291	-0.228189
O77	O	0.951565	-0.000084	-0.057662
C78	C	0.784326	0.000988	-0.200018
C79	C	0.817405	0.001011	-0.060088
H80	H	0.675858	0.001842	-0.202025
H81	H	0.826959	0.104312	-0.251106
H82	H	0.825686	-0.103324	-0.250521
H83	H	0.776051	0.105253	-0.009476
H84	H	0.774793	-0.102381	-0.009096
H85	H	0.915207	-0.225731	0.298027
H86	H	1.674096	-0.406701	0.022615
H87	H	1.555983	-0.406600	0.401398
H88	H	1.721587	-0.593483	0.235812
H89	H	1.622393	0.225677	-0.245674
H90	H	1.394442	-0.225728	-0.377739
H91	H	1.394439	0.225686	-0.377677
