data_functionalizedCrystal
_audit_creation_method	'MofGen! by Chris Wilmer'
_symmetry_space_group_name_H-M	'P1'
_symmetry_Int_Tables_number	1
_symmetry_cell_setting	triclinic
loop_
_symmetry_equiv_pos_as_xyz
  x,y,z
_cell_length_a	17.077404
_cell_length_b	12.827892
_cell_length_c	17.077396
_cell_angle_alpha	89.974933
_cell_angle_beta	89.978556
_cell_angle_gamma	90.013639
loop_
_atom_site_label
_atom_site_type_symbol
_atom_site_fract_x
_atom_site_fract_y
_atom_site_fract_z
Zn1	Zn	1.200096	-0.416082	-0.443902
Zn2	Zn	1.700096	0.083918	0.056098
Zn3	Zn	1.200020	-0.590844	-0.312644
Zn4	Zn	1.700020	-0.090844	0.187356
Zn5	Zn	1.068827	-0.416113	-0.312646
Zn6	Zn	1.568827	0.083887	0.187354
Zn7	Zn	1.068812	-0.590776	-0.443863
Zn8	Zn	1.568812	-0.090776	0.056137
O9	O	1.134439	-0.503454	-0.378264
O10	O	1.634439	-0.003454	0.121736
O11	O	1.309932	-0.439280	-0.426506
O12	O	1.809932	0.060720	0.073494
O13	O	1.182591	-0.567707	-0.202797
O14	O	1.682591	-0.067707	0.297203
O15	O	1.086278	-0.269872	-0.330074
O16	O	1.586278	0.230128	0.169926
O17	O	1.309877	-0.567677	-0.330071
O18	O	1.809877	-0.067677	0.169929
O19	O	1.182720	-0.269850	-0.426508
O20	O	1.682720	0.230150	0.073492
O21	O	1.086205	-0.439332	-0.202798
O22	O	1.586205	0.060668	0.297202
O23	O	0.958978	-0.439266	-0.330036
O24	O	1.458978	0.060734	0.169964
O25	O	1.086253	-0.567561	-0.553715
O26	O	1.586253	-0.067561	-0.053715
O27	O	0.958968	-0.567591	-0.426441
O28	O	1.458968	-0.067591	0.073559
O29	O	1.182706	-0.439214	-0.553744
O30	O	1.682706	0.060786	-0.053744
O31	O	1.182577	-0.737071	-0.330033
O32	O	1.682577	-0.237071	0.169967
O33	O	1.086179	-0.737021	-0.426439
O34	O	1.586179	-0.237021	0.073561
C35	C	0.930491	-0.503425	-0.378235
C36	C	1.430491	-0.003425	0.121765
C37	C	0.843241	-0.503438	-0.378241
C38	C	1.343241	-0.003438	0.121759
C39	C	0.467453	-0.436746	-0.428586
C40	C	0.967453	0.063254	0.071414
C41	C	0.549433	-0.436739	-0.428577
C42	C	1.049433	0.063261	0.071423
C43	C	0.590392	-0.503476	-0.378283
C44	C	1.090392	-0.003476	0.121717
C45	C	0.549367	-0.570232	-0.328000
C46	C	1.049367	-0.070232	0.172000
C47	C	0.467388	-0.570244	-0.328013
C48	C	0.967388	-0.070244	0.171987
C49	C	0.720237	-0.570201	-0.327975
C50	C	1.220237	-0.070201	0.172025
C51	C	0.802221	-0.570188	-0.327961
C52	C	1.302221	-0.070188	0.172039
C53	C	0.802282	-0.436695	-0.428539
C54	C	1.302282	0.063305	0.071461
C55	C	0.720303	-0.436707	-0.428552
C56	C	1.220303	0.063293	0.071448
C57	C	0.679283	-0.503463	-0.378268
C58	C	1.179283	-0.003463	0.121732
C59	C	1.134390	-0.774964	-0.378249
C60	C	1.634390	-0.274964	0.121751
C61	C	1.134440	-0.891117	-0.378269
C62	C	1.634440	-0.391117	0.121731
C63	C	1.182142	-0.942807	-0.426030
C64	C	1.682142	-0.442807	0.073970
C65	C	1.182195	-1.062857	-0.426052
C66	C	1.682195	-0.562857	0.073948
C67	C	1.339183	-0.503483	-0.378293
C68	C	1.839183	-0.003483	0.121707
C69	C	1.426433	-0.503495	-0.378305
C70	C	1.926433	-0.003495	0.121695
C71	C	1.134486	-0.503377	-0.583008
C72	C	1.634486	-0.003377	-0.083008
C73	C	1.134507	-0.503344	-0.670258
C74	C	1.634507	-0.003344	-0.170258
C75	C	1.134509	-0.230884	-0.378295
C76	C	1.634509	0.269116	0.121705
C77	C	1.134540	-0.114730	-0.378309
C78	C	1.634540	0.385270	0.121691
C79	C	1.184731	-0.436508	-0.711264
C80	C	1.684731	0.063492	-0.211264
C81	C	1.184741	-0.436473	-0.793245
C82	C	1.684741	0.063527	-0.293245
C83	C	1.134529	-0.503280	-0.834217
C84	C	1.634529	-0.003280	-0.334217
C85	C	1.084298	-0.570119	-0.793205
C86	C	1.584298	-0.070119	-0.293205
C87	C	1.084285	-0.570148	-0.711226
C88	C	1.584285	-0.070148	-0.211226
C89	C	1.084330	-0.570056	-0.964075
C90	C	1.584330	-0.070056	-0.464075
C91	C	1.084344	-0.570029	-1.046060
C92	C	1.584344	-0.070029	-0.546060
C93	C	1.184785	-0.436382	-1.046094
C94	C	1.684785	0.063618	-0.546094
C95	C	1.184772	-0.436410	-0.964115
C96	C	1.684772	0.063590	-0.464115
C97	C	1.134543	-0.503251	-0.923108
C98	C	1.634543	-0.003251	-0.423108
C99	C	1.134437	-0.503455	-0.174316
C100	C	1.634437	-0.003455	0.325684
C101	C	1.134568	-0.503193	-0.087066
C102	C	1.634568	-0.003193	0.412934
H103	H	0.433990	-0.624600	-0.287071
H104	H	0.933990	-0.124600	0.212929
H105	H	1.043455	-0.624427	-1.079418
H106	H	1.543455	-0.124427	-0.579418
Br107	Br	1.250136	-0.868444	-0.494172
Br108	Br	1.750136	-0.368444	0.005828
Br109	Br	0.604953	-0.660813	-0.259749
Br110	Br	1.104953	-0.160813	0.240251
Br111	Br	1.016116	-0.660851	-0.655573
Br112	Br	1.516116	-0.160851	-0.155573
Br113	Br	0.857951	-0.346089	-0.496775
Br114	Br	1.357951	0.153911	0.003225
Br115	Br	0.411874	-0.346161	-0.496840
Br116	Br	0.911874	0.153839	0.003160
Br117	Br	1.066472	-1.040654	-0.310143
Br118	Br	1.566472	-0.540654	0.189857
Br119	Br	1.250274	-1.136941	-0.494203
Br120	Br	1.750274	-0.636941	0.005797
H121	H	1.093638	-0.935740	-0.337399
H122	H	1.593638	-0.435740	0.162601
H123	H	1.225623	-0.382109	-0.677910
H124	H	1.725623	0.117891	-0.177910
Br125	Br	0.664716	-0.346127	-0.496804
Br126	Br	1.164716	0.153873	0.003196
Br127	Br	0.857809	-0.660791	-0.259727
Br128	Br	1.357809	-0.160791	0.240273
H129	H	0.686841	-0.624565	-0.287032
H130	H	1.186841	-0.124565	0.212968
H131	H	1.043415	-0.624469	-0.930690
H132	H	1.543415	-0.124469	-0.430690
Br133	Br	1.252958	-0.345673	-1.101744
Br134	Br	1.752958	0.154327	-0.601744
Br135	Br	1.252943	-0.345812	-0.848894
Br136	Br	1.752943	0.154188	-0.348894
H137	H	1.043412	-0.624511	-0.826572
H138	H	1.543412	-0.124511	-0.326572
Br139	Br	1.252925	-0.345752	-0.908509
Br140	Br	1.752925	0.154248	-0.408509
H141	H	0.582828	-0.382388	-0.469524
H142	H	1.082828	0.117612	0.030476
