data_functionalizedCrystal
_audit_creation_method	'MofGen! by Chris Wilmer'
_symmetry_space_group_name_H-M	'P1'
_symmetry_Int_Tables_number	1
_symmetry_cell_setting	triclinic
loop_
_symmetry_equiv_pos_as_xyz
  x,y,z
_cell_length_a	18.215407
_cell_length_b	18.050590
_cell_length_c	18.215399
_cell_angle_alpha	90.028735
_cell_angle_beta	90.017813
_cell_angle_gamma	90.013065
loop_
_atom_site_label
_atom_site_type_symbol
_atom_site_fract_x
_atom_site_fract_y
_atom_site_fract_z
Zn1	Zn	1.125104	-0.295776	0.416072
Zn2	Zn	1.625104	0.204224	0.916072
Zn3	Zn	1.125026	-0.419971	0.293004
Zn4	Zn	1.625026	0.080029	0.793004
Zn5	Zn	1.002037	-0.295787	0.293024
Zn6	Zn	1.502037	0.204213	0.793024
Zn7	Zn	1.002016	-0.419917	0.416033
Zn8	Zn	1.502016	0.080083	0.916033
O9	O	1.063546	-0.357863	0.354533
O10	O	1.563546	0.142137	0.854533
O11	O	1.228078	-0.312268	0.399755
O12	O	1.728078	0.187732	0.899755
O13	O	1.108687	-0.403525	0.190022
O14	O	1.608687	0.096475	0.690022
O15	O	1.018403	-0.191861	0.309371
O16	O	1.518403	0.308139	0.809371
O17	O	1.228021	-0.403514	0.309337
O18	O	1.728021	0.096486	0.809337
O19	O	1.108820	-0.191853	0.399774
O20	O	1.608820	0.308147	0.899774
O21	O	1.018328	-0.312288	0.190037
O22	O	1.518328	0.187712	0.690037
O23	O	0.899050	-0.312235	0.309333
O24	O	1.399050	0.187765	0.809333
O25	O	1.018368	-0.403422	0.519023
O26	O	1.518368	0.096578	1.019023
O27	O	0.899035	-0.403433	0.399708
O28	O	1.399035	0.096567	0.899708
O29	O	1.108800	-0.312216	0.519051
O30	O	1.608800	0.187784	1.019051
O31	O	1.108668	-0.523888	0.309300
O32	O	1.608668	-0.023888	0.809300
O33	O	1.018293	-0.523848	0.399689
O34	O	1.518293	-0.023848	0.899689
C35	C	0.872340	-0.357830	0.354519
C36	C	1.372340	0.142170	0.854519
C37	C	0.790541	-0.357834	0.354530
C38	C	1.290541	0.142166	0.854530
C39	C	0.525507	-0.310443	0.401689
C40	C	1.025507	0.189557	0.901689
C41	C	0.602366	-0.310431	0.401686
C42	C	1.102366	0.189569	0.901686
C43	C	0.602326	-0.405307	0.307394
C44	C	1.102326	0.094693	0.807394
C45	C	0.525468	-0.405322	0.307401
C46	C	1.025468	0.094678	0.807401
C47	C	0.487061	-0.357886	0.354547
C48	C	0.987061	0.142114	0.854547
C49	C	0.640777	-0.357858	0.354538
C50	C	1.140777	0.142142	0.854538
C51	C	0.724111	-0.357846	0.354535
C52	C	1.224111	0.142154	0.854535
C53	C	0.403722	-0.357899	0.354551
C54	C	0.903722	0.142101	0.854551
C55	C	1.063489	-0.550815	0.354504
C56	C	1.563489	-0.050815	0.854504
C57	C	1.063532	-0.633360	0.354516
C58	C	1.563532	-0.133360	0.854516
C59	C	1.112781	-0.832806	0.305431
C60	C	1.612781	-0.332806	0.805431
C61	C	1.130758	-0.882140	0.372597
C62	C	1.630758	-0.382140	0.872597
C63	C	1.063574	-0.784491	0.354545
C64	C	1.563574	-0.284491	0.854545
C65	C	1.045672	-0.882239	0.287409
C66	C	1.545672	-0.382239	0.787409
C67	C	1.063616	-0.930476	0.354568
C68	C	1.563616	-0.430476	0.854568
C69	C	1.081586	-0.832738	0.421747
C70	C	1.581586	-0.332738	0.921747
C71	C	0.996469	-0.832832	0.336514
C72	C	1.496469	-0.332832	0.836514
C73	C	1.014421	-0.882144	0.403726
C74	C	1.514421	-0.382144	0.903726
C75	C	1.063552	-0.700393	0.354532
C76	C	1.563552	-0.200393	0.854532
C77	C	1.063638	-1.014572	0.354589
C78	C	1.563638	-0.514572	0.854589
C79	C	1.255499	-0.357896	0.354548
C80	C	1.755499	0.142104	0.854548
C81	C	1.337298	-0.357910	0.354555
C82	C	1.837298	0.142090	0.854555
C83	C	1.063591	-0.357811	0.546486
C84	C	1.563591	0.142189	1.046486
C85	C	1.063610	-0.357790	0.628285
C86	C	1.563610	0.142210	1.128285
C87	C	1.063623	-0.164157	0.354579
C88	C	1.563623	0.335843	0.854579
C89	C	1.063656	-0.081611	0.354598
C90	C	1.563656	0.418389	0.854598
C91	C	1.063544	-0.357860	0.163327
C92	C	1.563544	0.142140	0.663327
C93	C	1.063667	-0.357673	0.081529
C94	C	1.563667	0.142327	0.581529
C95	C	1.110715	-0.310254	0.816495
C96	C	1.610715	0.189746	1.316495
C97	C	1.110724	-0.310233	0.893354
C98	C	1.610724	0.189767	1.393354
C99	C	1.016557	-0.405210	0.893313
C100	C	1.516557	0.094790	1.393313
C101	C	1.016545	-0.405227	0.816456
C102	C	1.516545	0.094773	1.316456
C103	C	1.063628	-0.357751	0.778049
C104	C	1.563628	0.142249	1.278049
C105	C	1.063649	-0.357712	0.931765
C106	C	1.563649	0.142288	1.431765
C107	C	1.063658	-0.357689	1.015099
C108	C	1.563658	0.142311	1.515099
C109	C	1.063618	-0.357773	0.694710
C110	C	1.563618	0.142227	1.194710
H111	H	0.494165	-0.443960	0.269011
H112	H	0.994165	0.056040	0.769011
N113	N	0.643753	-0.456456	0.256536
N114	N	1.143753	0.043544	0.756536
H115	H	0.607733	-0.486514	0.226673
H116	H	1.107733	0.013486	0.726673
H117	H	0.675655	-0.490855	0.286428
H118	H	1.175655	0.009145	0.786428
N119	N	1.167912	-0.804104	0.250468
N120	N	1.667912	-0.304104	0.750468
H121	H	1.218605	-0.822039	0.264197
H122	H	1.718605	-0.322039	0.764197
H123	H	1.167112	-0.748158	0.250540
H124	H	1.667112	-0.248158	0.750540
N125	N	1.161499	-0.259052	0.775072
N126	N	1.661499	0.240948	1.275072
H127	H	1.154353	-0.266273	0.720548
H128	H	1.654353	0.233727	1.220548
H129	H	1.214052	-0.270625	0.788519
H130	H	1.714052	0.229375	1.288519
H131	H	1.187525	-0.903800	0.387863
H132	H	1.687525	-0.403800	0.887863
H133	H	1.096688	-0.811087	0.478581
H134	H	1.596688	-0.311087	0.978581
N135	N	1.161516	-0.259003	0.934812
N136	N	1.661516	0.240997	1.434812
H137	H	1.195614	-0.289178	0.966700
H138	H	1.695614	0.210822	1.466700
H139	H	1.131576	-0.224580	0.966659
H140	H	1.631576	0.275420	1.466659
H141	H	0.972826	-0.903671	0.445318
H142	H	1.472826	-0.403671	0.945318
N143	N	0.921296	-0.804115	0.316272
N144	N	1.421296	-0.304115	0.816272
H145	H	0.907800	-0.822090	0.265513
H146	H	1.407800	-0.322090	0.765513
H147	H	0.921778	-0.748169	0.316932
H148	H	1.421778	-0.248169	0.816932
N149	N	1.025577	-0.911042	0.212197
N150	N	1.525577	-0.411042	0.712197
H151	H	1.066947	-0.942613	0.192609
H152	H	1.566947	-0.442613	0.692609
H153	H	1.016894	-0.867919	0.177974
H154	H	1.516894	-0.367919	0.677974
N155	N	0.965766	-0.456404	0.934738
N156	N	1.465766	0.043596	1.434738
H157	H	0.972914	-0.449184	0.989261
H158	H	1.472914	0.050816	1.489261
H159	H	0.977186	-0.509452	0.921297
H160	H	1.477186	-0.009452	1.421297
N161	N	0.643834	-0.259263	0.452535
N162	N	1.143834	0.240737	0.952535
H163	H	0.607838	-0.229218	0.482401
H164	H	1.107838	0.270782	0.982401
H165	H	0.675715	-0.224853	0.422636
H166	H	1.175715	0.275147	0.922636
N167	N	0.965741	-0.456443	0.774982
N168	N	1.465741	0.043557	1.274982
H169	H	0.935916	-0.486516	0.810974
H170	H	1.435916	0.013484	1.310974
H171	H	0.995668	-0.490825	0.743080
H172	H	1.495668	0.009175	1.243080
H173	H	0.494239	-0.271817	0.440078
H174	H	0.994239	0.228183	0.940078
