data_functionalizedCrystal
_audit_creation_method	'MofGen! by Chris Wilmer'
_symmetry_space_group_name_H-M	'P1'
_symmetry_Int_Tables_number	1
_symmetry_cell_setting	triclinic
loop_
_symmetry_equiv_pos_as_xyz
  x,y,z
_cell_length_a	6.817900
_cell_length_b	9.582880
_cell_length_c	9.582889
_cell_angle_alpha	89.899755
_cell_angle_beta	111.207298
_cell_angle_gamma	111.207034
loop_
_atom_site_label
_atom_site_type_symbol
_atom_site_fract_x
_atom_site_fract_y
_atom_site_fract_z
V1	V	-4.156354	-0.466328	-0.206425
V2	V	-3.656354	0.033672	0.293575
O3	O	-4.100353	-0.457733	0.010569
O4	O	-3.600353	0.042267	0.510569
O5	O	-4.146464	-0.462868	-0.409930
O6	O	-3.646464	0.037132	0.090070
O7	O	-4.146462	-0.669834	-0.202964
O8	O	-3.646462	-0.169834	0.297036
O9	O	-4.100354	-0.249334	-0.197829
O10	O	-3.600354	0.250666	0.302171
V11	V	-4.630003	-0.440407	-0.180503
V12	V	-4.130003	0.059593	0.319497
O13	O	-4.439274	-0.523189	-0.263285
O14	O	-3.939274	-0.023189	0.236715
O15	O	-4.797280	-0.383546	-0.123643
O16	O	-4.297280	0.116454	0.376357
O17	O	-4.416687	-0.443867	0.023002
O18	O	-3.916687	0.056133	0.523002
O19	O	-4.803401	-0.449002	-0.397497
O20	O	-4.303401	0.050998	0.102503
O21	O	-4.803400	-0.657401	-0.189099
O22	O	-4.303400	-0.157401	0.310901
O23	O	-4.416688	-0.236901	-0.183964
O24	O	-3.916688	0.263099	0.316036
C25	C	-3.999587	-0.455441	-0.459550
C26	C	-3.499587	0.044559	0.040450
C27	C	-4.073043	-0.453968	-0.625916
C28	C	-3.573043	0.046032	-0.125916
C29	C	-3.999583	-0.719445	-0.195542
C30	C	-3.499583	-0.219445	0.304458
C31	C	-4.073034	-0.885810	-0.194059
C32	C	-3.573034	-0.385810	0.305941
C33	C	-4.226906	-0.451290	0.072614
C34	C	-3.726906	0.048710	0.572614
C35	C	-4.132690	-0.452772	0.238979
C36	C	-3.632690	0.047228	0.738979
C37	C	-4.226909	-0.187282	-0.191391
C38	C	-3.726909	0.312718	0.308609
C39	C	-4.132695	-0.020916	-0.192866
C40	C	-3.632695	0.479084	0.307134
