data_functionalizedCrystal
_audit_creation_method	'MofGen! by Chris Wilmer'
_symmetry_space_group_name_H-M	'P1'
_symmetry_Int_Tables_number	1
_symmetry_cell_setting	triclinic
loop_
_symmetry_equiv_pos_as_xyz
  x,y,z
_cell_length_a	15.944545
_cell_length_b	17.666332
_cell_length_c	15.944564
_cell_angle_alpha	89.993609
_cell_angle_beta	96.499946
_cell_angle_gamma	90.006470
loop_
_atom_site_label
_atom_site_type_symbol
_atom_site_fract_x
_atom_site_fract_y
_atom_site_fract_z
O1	O	1.114538	0.062901	-0.108306
O2	O	0.869988	0.062914	-0.121668
O3	O	0.998936	0.062900	0.007287
O4	O	0.985591	0.062915	-0.237261
O5	O	0.998913	-0.062997	0.007291
O6	O	0.869966	-0.062983	-0.121664
O7	O	1.114515	-0.062995	-0.108302
Cu8	Cu	0.992238	-0.074484	-0.114983
Cu9	Cu	0.992265	0.074403	-0.114987
O10	O	0.985568	-0.062982	-0.237257
C11	C	0.838683	-0.000033	-0.121112
C12	C	0.745437	-0.000028	-0.119452
C13	C	0.474800	-0.000042	-0.034559
C14	C	0.525372	-0.062115	-0.075486
C15	C	0.409793	-0.000042	-0.113531
C16	C	0.525375	0.062010	-0.075511
C17	C	0.574706	-0.000034	-0.116436
C18	C	0.459137	-0.062166	-0.154437
C19	C	0.459136	0.062014	-0.154450
C20	C	0.509676	-0.000074	-0.195435
C21	C	0.314790	-0.000047	-0.111856
C22	C	0.669706	-0.000034	-0.118118
N23	N	0.992226	-0.179204	-0.114979
C24	C	1.043166	-0.218807	-0.165959
C25	C	1.043179	-0.298054	-0.165957
C26	C	0.992237	-0.337696	-0.114984
C27	C	0.941294	-0.298084	-0.063994
C28	C	0.941288	-0.218838	-0.063991
N29	N	0.918666	-0.462132	-0.112688
N30	N	0.918673	-0.537413	-0.112695
C31	C	0.992252	-0.576460	-0.114987
N32	N	1.065824	-0.537383	-0.117288
N33	N	1.065816	-0.462096	-0.117286
C34	C	0.992238	-0.423625	-0.114981
C35	C	1.043211	-0.701992	-0.165967
C36	C	1.043226	-0.781241	-0.165958
C37	C	0.941333	-0.781269	-0.064001
C38	C	0.941326	-0.702022	-0.064004
C39	C	0.992263	-0.662388	-0.114992
C40	C	1.145821	-0.000047	-0.108858
C41	C	1.239067	-0.000046	-0.110518
C42	C	0.998369	-0.000049	0.038583
C43	C	0.996702	-0.000049	0.131828
N44	N	0.992285	0.179122	-0.114984
C45	C	0.912788	-0.000035	0.346682
C46	C	0.951736	-0.062112	0.407701
C47	C	0.993687	-0.000044	0.302553
C48	C	0.951778	0.062012	0.407681
C49	C	0.990769	-0.000035	0.467465
C50	C	1.032658	-0.062172	0.362345
C51	C	1.032688	0.062008	0.362318
C52	C	1.071695	-0.000084	0.423320
C53	C	0.995366	-0.000049	0.207551
C54	C	0.989096	-0.000035	0.562465
C55	C	0.986124	-0.000032	0.731445
C56	C	0.987756	-0.000029	0.638195
H57	H	0.459144	-0.000106	0.033453
C58	C	0.564450	0.132903	-0.030445
C59	C	0.613339	0.190178	-0.079155
C60	C	0.652411	0.261067	-0.034083
C61	C	0.642593	0.274681	0.059698
C62	C	0.593702	0.217404	0.108414
C63	C	0.554630	0.146515	0.063342
H64	H	0.620609	0.180101	-0.148583
H65	H	0.688604	0.303467	-0.070146
H66	H	0.671517	0.327157	0.093063
H67	H	0.586432	0.227480	0.177842
H68	H	0.518437	0.104115	0.099405
H69	H	0.917559	0.114497	0.427756
H70	H	1.084646	-0.186542	-0.207474
C71	C	1.099207	-0.341635	-0.222043
C72	C	1.195641	-0.330738	-0.209743
C73	C	1.251665	-0.374318	-0.265830
C74	C	1.211254	-0.428795	-0.334217
C75	C	1.114815	-0.439694	-0.346520
C76	C	1.058792	-0.396114	-0.290433
H77	H	1.225560	-0.290409	-0.159116
H78	H	1.323055	-0.366250	-0.256722
H79	H	1.252727	-0.461056	-0.375736
H80	H	1.084897	-0.480023	-0.397147
H81	H	0.987401	-0.404183	-0.299541
C82	C	0.564451	-0.133012	-0.030431
C83	C	0.554647	-0.146653	0.063353
C84	C	0.593724	-0.217546	0.108414
C85	C	0.642605	-0.274798	0.059691
C86	C	0.652412	-0.261158	-0.034098
C87	C	0.613335	-0.190265	-0.079159
H88	H	0.518460	-0.104271	0.099425
H89	H	0.586464	-0.227643	0.177842
H90	H	0.671532	-0.327277	0.093047
H91	H	0.688599	-0.303541	-0.070170
H92	H	0.620595	-0.180168	-0.148588
H93	H	0.899817	-0.330365	-0.022491
C94	C	1.078887	0.132903	0.335112
C95	C	1.044941	0.212257	0.352685
C96	C	1.091132	0.283159	0.325475
C97	C	1.171269	0.274707	0.280693
C98	C	1.205219	0.195349	0.263118
C99	C	1.159028	0.124447	0.290328
H100	H	0.985615	0.218518	0.385837
H101	H	1.065999	0.341905	0.338486
H102	H	1.205462	0.327193	0.260551
H103	H	1.264544	0.189089	0.229966
H104	H	1.184160	0.065701	0.277317
C105	C	0.420214	-0.133138	-0.199460
C106	C	0.324208	-0.146272	-0.206185
C107	C	0.285284	-0.217242	-0.251206
C108	C	0.342367	-0.275079	-0.289501
C109	C	0.438380	-0.261946	-0.282777
C110	C	0.477303	-0.190976	-0.237756
H111	H	0.281946	-0.103456	-0.177836
H112	H	0.214209	-0.226963	-0.256184
H113	H	0.313554	-0.327615	-0.322828
H114	H	0.480641	-0.304762	-0.311126
H115	H	0.548378	-0.181255	-0.232778
H116	H	0.525171	-0.000106	-0.263500
H117	H	0.899805	-0.186593	-0.022477
C118	C	1.162483	-0.000130	0.468122
C119	C	1.222655	-0.065847	0.453707
C120	C	1.313442	-0.065896	0.498510
C121	C	1.344057	-0.000229	0.557727
C122	C	1.283884	0.065493	0.572145
C123	C	1.193097	0.065542	0.527343
H124	H	1.199993	-0.114462	0.409868
H125	H	1.357986	-0.114548	0.487836
H126	H	1.411263	-0.000265	0.590893
H127	H	1.306546	0.114108	0.615984
H128	H	1.148553	0.114194	0.538016
C129	C	0.905502	-0.133004	0.434877
C130	C	0.812493	-0.146636	0.400682
C131	C	0.766253	-0.217524	0.427854
C132	C	0.813022	-0.274780	0.489222
C133	C	0.906036	-0.261150	0.523420
C134	C	0.952276	-0.190262	0.496248
H135	H	0.777868	-0.104250	0.355251
H136	H	0.697398	-0.227613	0.402538
H137	H	0.778793	-0.327255	0.509336
H138	H	0.940662	-0.303536	0.568851
H139	H	1.021131	-0.180172	0.521565
H140	H	1.066837	-0.114711	0.342357
H141	H	0.430201	0.114498	-0.187775
C142	C	0.885279	-0.658453	-0.007936
C143	C	0.829240	-0.702052	0.048132
C144	C	0.773191	-0.658484	0.104204
C145	C	0.773180	-0.571316	0.104207
C146	C	0.829221	-0.527712	0.048137
C147	C	0.885270	-0.571281	-0.007935
H148	H	0.829246	-0.766583	0.048132
H149	H	0.731705	-0.690763	0.145711
H150	H	0.731689	-0.539065	0.145715
H151	H	0.829215	-0.463181	0.048137
H152	H	0.926755	-0.539001	-0.049442
C153	C	0.885300	-0.824869	-0.007927
C154	C	0.788866	-0.813994	-0.020240
C155	C	0.732836	-0.857601	0.035838
C156	C	0.773241	-0.912082	0.104229
C157	C	0.869681	-0.922959	0.116545
C158	C	0.925710	-0.879353	0.060467
H159	H	0.758951	-0.773662	-0.070871
H160	H	0.661445	-0.849548	0.026720
H161	H	0.731765	-0.944362	0.145742
H162	H	0.899595	-0.963291	0.167175
H163	H	0.997101	-0.887405	0.069585
C164	C	0.822080	-0.000110	0.301677
C165	C	0.761295	0.064875	0.317038
C166	C	0.670590	0.064796	0.272032
C167	C	0.640672	-0.000266	0.211664
C168	C	0.701458	-0.065256	0.196299
C169	C	0.792163	-0.065177	0.241306
H170	H	0.783441	0.113043	0.361729
H171	H	0.625592	0.112906	0.283406
H172	H	0.573527	-0.000324	0.178347
H173	H	0.679312	-0.113423	0.151609
H174	H	0.837161	-0.113287	0.229931
H175	H	1.084688	-0.669721	-0.207484
C176	C	1.099265	-0.824808	-0.222040
C177	C	1.155289	-0.781208	-0.278123
C178	C	1.211328	-0.824776	-0.334206
C179	C	1.211342	-0.911943	-0.334206
C180	C	1.155316	-0.955548	-0.278121
C181	C	1.099277	-0.911980	-0.222038
H182	H	1.155280	-0.716677	-0.278125
H183	H	1.252802	-0.792496	-0.375723
H184	H	1.252826	-0.944195	-0.375722
H185	H	1.155325	-1.020079	-0.278119
H186	H	1.057803	-0.944260	-0.180520
