data_functionalizedCrystal
_audit_creation_method	'MofGen! by Chris Wilmer'
_symmetry_space_group_name_H-M	'P1'
_symmetry_Int_Tables_number	1
_symmetry_cell_setting	triclinic
loop_
_symmetry_equiv_pos_as_xyz
  x,y,z
_cell_length_a	12.759395
_cell_length_b	29.839131
_cell_length_c	12.759387
_cell_angle_alpha	89.962744
_cell_angle_beta	89.979491
_cell_angle_gamma	90.042957
loop_
_atom_site_label
_atom_site_type_symbol
_atom_site_fract_x
_atom_site_fract_y
_atom_site_fract_z
Zn1	Zn	1.606074	-0.178811	-0.593958
Zn2	Zn	1.605882	-0.253949	-0.418259
Zn3	Zn	1.430372	-0.178836	-0.418295
Zn4	Zn	1.430282	-0.253917	-0.593898
O5	O	1.518153	-0.216378	-0.506102
O6	O	1.753069	-0.188782	-0.570661
O7	O	1.582558	-0.244009	-0.271242
O8	O	1.453797	-0.115965	-0.441637
O9	O	1.752929	-0.243985	-0.441575
O10	O	1.582884	-0.115947	-0.570696
O11	O	1.453611	-0.188823	-0.271269
O12	O	1.283339	-0.188792	-0.441579
O13	O	1.453644	-0.243930	-0.740927
O14	O	1.283273	-0.243954	-0.570593
O15	O	1.582797	-0.188751	-0.740971
O16	O	1.582471	-0.316812	-0.441517
O17	O	1.453458	-0.316788	-0.570558
C18	C	1.245185	-0.216373	-0.506084
C19	C	1.128408	-0.216381	-0.506101
C20	C	1.128378	-0.273914	-0.640227
C21	C	1.073502	-0.302684	-0.707293
C22	C	0.963781	-0.302690	-0.707306
C23	C	0.908933	-0.273921	-0.640248
C24	C	0.963808	-0.245151	-0.573182
C25	C	1.073532	-0.245150	-0.573174
C26	C	0.963838	-0.187617	-0.439063
C27	C	1.073560	-0.187613	-0.439043
C28	C	0.908990	-0.158848	-0.372005
C29	C	0.963866	-0.130079	-0.304933
C30	C	1.073594	-0.130076	-0.304922
C31	C	1.128436	-0.158843	-0.371978
C32	C	1.517963	-0.333101	-0.506050
C33	C	1.517978	-0.383035	-0.506063
C34	C	1.585452	-0.692678	-0.439009
C35	C	1.585581	-0.880351	-0.439049
O36	O	1.642799	-0.904616	-0.381997
N37	N	1.518370	-0.903820	-0.506181
C38	C	1.451127	-0.880368	-0.573313
O39	O	1.393971	-0.904636	-0.630421
C40	C	1.451004	-0.692696	-0.573277
C41	C	1.518211	-0.669229	-0.506133
C42	C	1.652655	-0.669211	-0.371871
C43	C	1.652617	-0.622296	-0.371857
C44	C	1.585377	-0.598847	-0.438981
C45	C	1.518174	-0.622314	-0.506119
C46	C	1.383766	-0.669245	-0.640413
C47	C	1.383743	-0.622324	-0.640400
C48	C	1.450951	-0.598857	-0.573256
C49	C	1.450897	-0.551950	-0.573230
N50	N	1.518108	-0.528481	-0.506098
C51	C	1.585348	-0.551929	-0.438974
C52	C	1.451195	-0.978899	-0.573326
C53	C	1.451225	-1.025817	-0.573334
C54	C	1.585680	-1.025796	-0.439071
C55	C	1.585645	-0.978878	-0.439059
C56	C	1.518406	-0.955430	-0.506194
C57	C	1.585264	-0.453404	-0.438949
C58	C	1.585218	-0.406484	-0.438939
C59	C	1.450767	-0.406508	-0.573205
C60	C	1.450808	-0.453424	-0.573212
C61	C	1.518066	-0.476870	-0.506081
O62	O	1.393717	-0.527656	-0.630260
O63	O	1.642512	-0.527653	-0.381890
C64	C	1.585489	-0.739594	-0.439022
C65	C	1.518286	-0.763060	-0.506160
C66	C	1.451045	-0.739611	-0.573284
C67	C	1.518315	-0.809978	-0.506168
C68	C	1.585555	-0.833427	-0.439044
C69	C	1.652766	-0.809958	-0.371912
C70	C	1.652729	-0.763042	-0.371898
C71	C	1.383835	-0.763081	-0.640416
C72	C	1.383876	-0.809996	-0.640423
C73	C	1.451117	-0.833445	-0.573299
C74	C	1.792186	-0.216384	-0.506121
C75	C	1.908963	-0.216387	-0.506129
C76	C	1.518232	-0.216334	-0.780136
C77	C	1.518266	-0.216315	-0.896913
C78	C	1.518372	-0.099200	-0.506177
C79	C	1.518465	-0.049265	-0.506210
C80	C	1.652762	-0.158860	-0.896978
C81	C	1.720025	-0.130126	-0.951872
C82	C	1.720050	-0.130110	-1.061594
C83	C	1.652804	-0.158830	-1.116424
C84	C	1.585541	-0.187564	-1.061531
C85	C	1.585525	-0.187578	-0.951806
C86	C	1.451041	-0.245016	-1.061465
C87	C	1.451019	-0.245035	-0.951743
C88	C	1.383794	-0.273736	-1.116295
C89	C	1.316535	-0.302473	-1.061401
C90	C	1.316513	-0.302489	-0.951673
C91	C	1.383756	-0.273770	-0.896849
C92	C	1.518134	-0.216390	-0.233135
C93	C	1.518304	-0.216282	-0.116359
H94	H	1.217719	-0.273916	-0.640215
H95	H	0.919101	-0.326114	-0.761922
O96	O	0.910542	-0.102201	-0.239687
C97	C	0.846975	-0.127744	-0.171747
H98	H	0.879980	-0.163122	-0.165095
H99	H	0.763835	-0.129310	-0.204241
C100	C	0.804728	-0.062285	-0.070795
C101	C	0.845270	-0.105737	-0.062618
H102	H	0.803671	-0.048710	-0.003481
H103	H	0.847550	-0.045076	-0.116570
H104	H	0.735447	-0.063597	-0.097877
H105	H	0.914553	-0.104425	-0.035549
H106	H	0.802459	-0.122946	-0.016836
H107	H	1.118172	-0.326106	-0.761892
H108	H	1.640430	-1.044896	-0.384416
H109	H	1.118268	-0.106644	-0.250316
O110	O	1.650608	-0.383759	-0.373680
C111	C	1.709945	-0.414520	-0.314424
H112	H	1.713582	-0.447948	-0.357474
H113	H	1.671516	-0.419555	-0.234599
C114	C	1.817290	-0.355108	-0.246497
C115	C	1.821765	-0.396164	-0.299377
H116	H	1.886265	-0.343785	-0.237211
H117	H	1.777312	-0.334383	-0.286416
H118	H	1.785262	-0.359309	-0.179982
H119	H	1.853781	-0.391961	-0.365895
H120	H	1.861752	-0.416887	-0.259469
H121	H	1.396488	-1.044919	-0.627999
H122	H	1.652758	-0.158875	-0.807637
H123	H	0.819649	-0.158852	-0.372025
H124	H	1.329081	-0.743992	-0.695078
O125	O	0.802350	-0.273995	-0.640362
C126	C	0.765676	-0.305547	-0.713959
H127	H	0.828872	-0.331800	-0.728549
H128	H	0.746273	-0.287774	-0.790648
C129	C	0.588843	-0.296310	-0.653128
C130	C	0.666458	-0.328557	-0.671041
H131	H	0.527638	-0.310503	-0.626658
H132	H	0.613549	-0.275052	-0.603547
H133	H	0.572686	-0.281502	-0.717040
H134	H	0.682623	-0.343361	-0.607128
H135	H	0.641752	-0.349818	-0.720611
H136	H	1.383816	-0.273719	-1.205636
O137	O	1.318575	-0.599526	-0.705727
C138	C	1.378336	-0.572329	-0.773610
H139	H	1.461091	-0.586427	-0.780171
H140	H	1.381941	-0.536779	-0.741122
C141	C	1.225315	-0.554282	-0.874729
C142	C	1.326954	-0.571600	-0.882794
H143	H	1.193619	-0.553830	-0.942077
H144	H	1.185052	-0.572604	-0.828992
H145	H	1.228333	-0.524659	-0.847651
H146	H	1.323934	-0.601224	-0.909859
H147	H	1.367216	-0.553283	-0.928538
H148	H	1.707347	-0.603192	-0.317186
H149	H	1.217777	-0.158843	-0.371972
O150	O	1.650456	-0.476229	-0.373700
C151	C	1.590712	-0.503413	-0.305774
H152	H	1.511074	-0.510469	-0.342749
H153	H	1.579203	-0.485364	-0.227897
C154	C	1.746386	-0.539292	-0.241416
C155	C	1.648577	-0.547961	-0.286833
H156	H	1.782081	-0.566771	-0.229728
H157	H	1.786638	-0.520977	-0.287176
H158	H	1.736782	-0.524251	-0.176523
H159	H	1.658182	-0.562997	-0.351731
H160	H	1.608328	-0.566281	-0.241084
H161	H	1.774774	-0.106742	-0.907217
H162	H	1.652822	-0.158810	-1.205766
O163	O	1.251317	-0.330354	-1.114824
C164	C	1.265737	-0.324166	-1.223437
H165	H	1.346849	-0.309454	-1.238445
H166	H	1.203473	-0.300233	-1.254575
C167	C	1.156403	-0.387680	-1.261313
C168	C	1.256031	-0.369614	-1.279747
H169	H	1.150412	-0.415714	-1.296050
H170	H	1.146685	-0.391849	-1.188139
H171	H	1.104528	-0.367732	-1.287261
H172	H	1.307903	-0.389560	-1.253787
H173	H	1.265757	-0.365450	-1.352919
O174	O	1.251147	-0.330448	-0.898515
C175	C	1.191790	-0.355783	-0.970442
H176	H	1.234832	-0.357324	-1.048664
H177	H	1.112029	-0.339328	-0.982102
C178	C	1.123688	-0.401713	-0.831522
C179	C	1.176557	-0.403609	-0.927593
H180	H	1.114287	-0.431213	-0.805090
H181	H	1.163675	-0.384643	-0.783062
H182	H	1.057226	-0.387998	-0.841252
H183	H	1.243022	-0.417318	-0.917860
H184	H	1.136581	-0.420682	-0.976051
H185	H	1.707415	-0.688299	-0.317210
H186	H	1.640372	-0.959774	-0.384385
O187	O	1.385768	-0.956194	-0.638571
C188	C	1.326476	-0.986975	-0.697831
H189	H	1.322899	-1.020433	-0.654793
H190	H	1.364904	-0.991924	-0.777662
C191	C	1.219023	-0.927623	-0.765724
C192	C	1.214623	-0.968715	-0.712859
H193	H	1.150028	-0.916359	-0.774999
H194	H	1.258971	-0.906885	-0.725803
H195	H	1.251051	-0.931752	-0.832244
H196	H	1.182608	-0.964584	-0.646336
H197	H	1.174666	-0.989452	-0.752770
H198	H	1.383749	-0.273781	-0.807508
O199	O	1.785237	-0.102150	-1.114970
C200	C	1.725493	-0.073131	-1.178473
H201	H	1.642747	-0.070354	-1.145393
H202	H	1.721859	-0.087012	-1.261615
C203	C	1.878549	-0.029841	-1.220842
C204	C	1.776921	-0.026428	-1.180207
H205	H	1.910274	-0.001033	-1.221916
H206	H	1.918801	-0.049393	-1.178062
H207	H	1.875506	-0.041411	-1.290123
H208	H	1.779967	-0.014864	-1.110922
H209	H	1.736671	-0.006873	-1.222975
O210	O	1.385514	-0.383773	-0.638558
C211	C	1.408463	-0.395184	-0.743292
H212	H	1.448857	-0.429234	-0.745511
H213	H	1.462463	-0.368746	-0.778702
C214	C	1.256410	-0.355544	-0.804140
C215	C	1.306014	-0.397367	-0.806866
H216	H	1.193216	-0.356889	-0.843359
H217	H	1.240950	-0.347855	-0.733580
H218	H	1.301420	-0.333517	-0.833647
H219	H	1.261009	-0.419392	-0.777348
H220	H	1.321464	-0.405060	-0.877424
H221	H	1.329034	-0.688343	-0.695084
H222	H	1.396086	-0.472531	-0.627889
H223	H	1.707456	-0.743939	-0.317223
H224	H	1.329138	-0.829099	-0.695099
O225	O	1.718222	-0.832755	-0.306871
C226	C	1.786039	-0.859843	-0.366787
H227	H	1.792435	-0.845670	-0.449535
H228	H	1.753594	-0.895418	-0.370382
C229	C	1.887450	-0.877932	-0.213968
C230	C	1.895313	-0.860522	-0.315597
H231	H	1.954855	-0.878353	-0.182390
H232	H	1.841759	-0.859684	-0.173600
H233	H	1.860409	-0.907576	-0.216978
H234	H	1.922341	-0.830877	-0.312585
H235	H	1.941012	-0.878766	-0.355964
