data_functionalizedCrystal
_audit_creation_method	'MofGen! by Chris Wilmer'
_symmetry_space_group_name_H-M	'P1'
_symmetry_Int_Tables_number	1
_symmetry_cell_setting	triclinic
loop_
_symmetry_equiv_pos_as_xyz
  x,y,z
_cell_length_a	16.992694
_cell_length_b	11.792241
_cell_length_c	15.455313
_cell_angle_alpha	92.683265
_cell_angle_beta	87.142206
_cell_angle_gamma	87.430819
loop_
_atom_site_label
_atom_site_type_symbol
_atom_site_fract_x
_atom_site_fract_y
_atom_site_fract_z
O1	O	1.044827	0.236106	-0.072022
O2	O	0.816531	0.233463	-0.072048
O3	O	0.936219	0.070068	-0.072029
O4	O	0.925139	0.399501	-0.072042
O5	O	0.929374	0.079370	0.072232
O6	O	0.809687	0.242766	0.072213
O7	O	1.037982	0.245409	0.072239
Cu8	Cu	0.923210	0.244937	0.085398
Cu9	Cu	0.931304	0.233935	-0.085207
O10	O	0.918295	0.408804	0.072219
C11	C	0.783882	0.234716	0.000079
C12	C	0.696795	0.224578	0.000070
C13	C	0.646971	0.322395	0.000066
C14	C	0.565143	0.312864	0.000079
C15	C	0.533142	0.205513	0.000088
C16	C	0.582973	0.107688	0.000094
C17	C	0.664799	0.117221	0.000088
C18	C	0.289375	0.166002	0.000113
C19	C	0.207543	0.156476	0.000117
C20	C	0.189719	0.361652	0.000103
C21	C	0.271548	0.371176	0.000091
C22	C	0.321371	0.273351	0.000102
N23	N	0.449501	0.195767	0.000098
N24	N	0.405010	0.283098	0.000098
C25	C	0.932101	0.032371	0.000102
C26	C	0.930017	-0.093813	0.000101
C27	C	0.926187	-0.324840	0.000086
C28	C	0.928315	-0.196280	0.000094
C29	C	1.070631	0.244155	0.000109
C30	C	1.157718	0.254293	0.000113
C31	C	0.922413	0.446501	0.000087
C32	C	0.924497	0.572684	0.000082
N33	N	0.917522	0.252674	0.205393
N34	N	0.936998	0.226189	-0.205202
C35	C	0.968388	0.183287	0.250795
C36	C	0.964094	0.189150	0.341602
C37	C	0.908938	0.264406	0.387005
C38	C	0.858067	0.333796	0.341597
C39	C	0.862358	0.327927	0.250791
C40	C	0.890417	0.289710	0.658584
C41	C	0.886132	0.295576	0.749396
C42	C	0.992158	0.150928	0.749395
C43	C	0.996447	0.145070	0.658588
C44	C	0.945574	0.214455	0.613187
N45	N	0.904549	0.270403	0.479825
N46	N	0.949959	0.208452	0.520369
H47	H	0.524579	0.392517	0.000075
H48	H	0.705366	0.037568	0.000090
H49	H	0.297597	0.458591	0.000074
H50	H	0.820937	0.384428	0.213825
H51	H	0.673020	0.409812	0.000058
H52	H	0.841215	0.356864	0.786359
C53	C	0.056371	0.438147	0.000114
C54	C	0.134951	0.469177	0.000103
H55	H	0.022561	0.504534	0.000122
H56	H	0.049005	0.391202	-0.050188
H57	H	0.044253	0.397676	0.050426
H58	H	0.147071	0.509641	-0.050213
H59	H	0.142321	0.516141	0.050410
C60	C	1.042765	-0.049166	0.631154
C61	C	1.057057	0.062085	0.608916
H62	H	1.080178	-0.100470	0.600553
H63	H	1.047357	-0.055325	0.691769
H64	H	0.991070	-0.067159	0.616206
H65	H	1.108750	0.080081	0.623869
H66	H	1.052471	0.068248	0.548287
C67	C	0.201049	-0.026137	-0.074023
C68	C	0.172364	0.038468	0.000129
H69	H	0.179333	-0.098986	-0.074013
H70	H	0.186358	0.011206	-0.124324
H71	H	0.256912	-0.034459	-0.074011
H72	H	0.116501	0.046798	0.000115
H73	H	0.187050	0.001117	0.050443
H74	H	0.329932	0.086346	0.000122
C75	C	0.465456	0.001971	0.000101
C76	C	0.547799	-0.010315	0.000103
H77	H	0.443745	-0.070883	0.000099
H78	H	0.446007	0.045795	0.050404
H79	H	0.450772	0.039317	-0.050211
H80	H	0.562483	-0.047654	0.050418
H81	H	0.567255	-0.054157	-0.050205
H82	H	1.013305	0.122010	0.213834
C83	C	0.785193	0.433286	0.667718
C84	C	0.834504	0.365988	0.608687
H85	H	0.750677	0.480384	0.636909
H86	H	0.755109	0.385730	0.703145
H87	H	0.816354	0.479401	0.703126
H88	H	0.803344	0.319867	0.573283
H89	H	0.864591	0.413550	0.573246
C90	C	1.069346	0.045616	0.332481
C91	C	1.020019	0.112895	0.391508
H92	H	1.103878	-0.001453	0.363292
H93	H	1.038204	-0.000516	0.297079
H94	H	1.099420	0.093195	0.297047
H95	H	0.989941	0.065317	0.426937
H96	H	1.051165	0.159032	0.426925
H97	H	1.033576	0.094436	0.786369
C98	C	0.811501	0.527940	0.369526
C99	C	0.797433	0.416518	0.391496
H100	H	0.774064	0.579008	0.400327
H101	H	0.863190	0.546024	0.384406
H102	H	0.806778	0.534356	0.308945
H103	H	0.802162	0.410100	0.452077
H104	H	0.745731	0.398429	0.376623
