data_functionalizedCrystal
_audit_creation_method	'MofGen! by Chris Wilmer'
_symmetry_space_group_name_H-M	'P1'
_symmetry_Int_Tables_number	1
_symmetry_cell_setting	triclinic
loop_
_symmetry_equiv_pos_as_xyz
  x,y,z
_cell_length_a	12.759401
_cell_length_b	12.759399
_cell_length_c	12.759386
_cell_angle_alpha	90.063304
_cell_angle_beta	89.957659
_cell_angle_gamma	89.977200
loop_
_atom_site_label
_atom_site_type_symbol
_atom_site_fract_x
_atom_site_fract_y
_atom_site_fract_z
Zn1	Zn	1.606425	0.417908	-0.594010
Zn2	Zn	1.606222	0.593721	-0.418327
Zn3	Zn	1.430657	0.418054	-0.418345
Zn4	Zn	1.430688	0.593543	-0.593965
O5	O	1.518498	0.505806	-0.506162
O6	O	1.753419	0.441243	-0.570716
O7	O	1.582836	0.570555	-0.271308
O8	O	1.454045	0.271014	-0.441674
O9	O	1.753270	0.570413	-0.441643
O10	O	1.583181	0.270906	-0.570734
O11	O	1.453849	0.441493	-0.271322
O12	O	1.283640	0.441320	-0.441631
O13	O	1.454097	0.570108	-0.740992
O14	O	1.283663	0.570250	-0.570658
O15	O	1.583211	0.441070	-0.741025
O16	O	1.582865	0.740719	-0.441600
O17	O	1.453901	0.740587	-0.570640
C18	C	1.245531	0.505782	-0.506142
C19	C	1.128754	0.505797	-0.506158
C20	C	1.073850	0.438575	-0.439097
C21	C	0.964126	0.438600	-0.439110
C22	C	0.964220	0.573072	-0.573256
C23	C	1.073942	0.573051	-0.573236
C24	C	0.814070	0.401009	-0.315297
C25	C	0.759162	0.333771	-0.248245
C26	C	0.794780	0.231240	-0.232288
C27	C	0.885304	0.195926	-0.283398
C28	C	0.940207	0.263159	-0.350458
C29	C	0.904590	0.365705	-0.366395
C30	C	1.224000	0.610631	-0.697051
C31	C	1.278905	0.677859	-0.764117
C32	C	1.243289	0.780392	-0.780085
C33	C	1.152760	0.815702	-0.728993
C34	C	1.097856	0.748474	-0.661927
C35	C	1.133480	0.645942	-0.645957
C36	C	1.518393	0.778774	-0.506136
C37	C	1.518444	0.895550	-0.506160
C38	C	1.585647	0.950266	-0.573417
C39	C	1.585689	1.059990	-0.573443
C40	C	1.451322	1.060273	-0.438945
C41	C	1.451276	0.950551	-0.438925
C42	C	1.623274	1.209751	-0.697408
C43	C	1.690493	1.264471	-0.764656
C44	C	1.792991	1.228755	-0.780869
C45	C	1.828289	1.138321	-0.729819
C46	C	1.761075	1.083607	-0.662564
C47	C	1.658563	1.119321	-0.646370
C48	C	1.413702	0.800788	-0.314959
C49	C	1.346492	0.746072	-0.247697
C50	C	1.243993	0.781786	-0.231473
C51	C	1.208699	0.872223	-0.282504
C52	C	1.275908	0.926939	-0.349766
C53	C	1.378406	0.891218	-0.365992
C54	C	1.792531	0.505831	-0.506183
C55	C	1.909308	0.505842	-0.506192
C56	C	1.518680	0.505553	-0.780196
C57	C	1.518757	0.505445	-0.896973
C58	C	1.518593	1.231773	-0.506204
C59	C	1.518532	1.114996	-0.506205
C60	C	1.518377	0.505983	-0.233194
C61	C	1.518504	0.505795	-0.116418
C62	C	1.450922	0.439005	-0.061613
C63	C	1.451052	0.438827	0.048111
C64	C	1.586346	0.572238	0.048214
C65	C	1.586221	0.572410	-0.061507
C66	C	1.412843	0.314959	0.197802
C67	C	1.345246	0.248178	0.252611
C68	C	1.242584	0.232841	0.217152
C69	C	1.207499	0.284300	0.126885
C70	C	1.275091	0.351089	0.072081
C71	C	1.377767	0.366406	0.107539
C72	C	1.624419	0.696280	-0.211200
C73	C	1.692006	0.763074	-0.266006
C74	C	1.794670	0.778422	-0.230548
C75	C	1.829752	0.726982	-0.140278
C76	C	1.762164	0.660187	-0.085472
C77	C	1.659501	0.644837	-0.120937
H78	H	0.685456	0.362533	-0.206632
O79	O	1.378902	1.119604	-0.366412
H80	H	1.325470	1.169592	-0.413388
O81	O	1.037866	0.225113	-0.405553
H82	H	1.026433	0.230158	-0.491627
H83	H	1.247162	1.000578	-0.391318
O84	O	1.523550	0.331523	0.236117
H85	H	1.565540	0.255329	0.237090
H86	H	0.785068	0.484502	-0.328273
O87	O	1.940460	0.743556	-0.101968
H88	H	1.982457	0.667366	-0.100999
O89	O	1.658094	0.890948	-0.645933
H90	H	1.611050	0.840919	-0.699334
O91	O	1.377901	0.367137	-0.120830
H92	H	1.424516	0.313434	-0.171048
O93	O	1.376594	0.639835	-0.819183
H94	H	1.365183	0.644863	-0.905262
H95	H	1.911757	1.109256	-0.743017
H96	H	1.373822	0.206280	0.326107
H97	H	1.123897	0.271816	0.098028
H98	H	1.024140	0.777230	-0.620329
O99	O	1.659374	0.644094	0.107437
H100	H	1.648101	0.632764	0.192942
H101	H	1.847721	1.273316	-0.835625
O102	O	1.867574	0.850465	-0.289657
H103	H	1.825938	0.883661	-0.358386
O104	O	1.114361	0.926308	-0.746170
H105	H	1.167763	0.967133	-0.801366
H106	H	1.790736	0.618301	-0.011969
H107	H	1.661744	1.338102	-0.806221
H108	H	1.287993	0.835124	-0.834710
O109	O	1.262410	0.500033	-0.679827
H110	H	1.334572	0.486769	-0.726637
O111	O	0.905103	0.645597	-0.645615
H112	H	0.819582	0.634310	-0.634373
H113	H	1.789816	1.009980	-0.620998
H114	H	1.125236	0.901304	-0.269291
H115	H	1.497160	0.771691	-0.328178
O116	O	1.512730	1.248303	-0.679914
H117	H	1.470231	1.249475	-0.755775
O118	O	1.171497	0.722774	-0.158925
H119	H	1.213254	0.653886	-0.126161
H120	H	1.663434	0.804959	-0.339509
H121	H	0.750066	0.176494	-0.177692
H122	H	1.375241	0.672437	-0.206140
H123	H	1.246525	0.392986	-0.001412
H124	H	1.540824	0.683779	-0.240085
O125	O	1.132974	0.366060	-0.366733
H126	H	1.076357	0.319332	-0.320093
O127	O	0.923724	0.085334	-0.266189
H128	H	0.870346	0.044519	-0.210963
H129	H	1.187546	0.178465	0.261785
