data_functionalizedCrystal
_audit_creation_method	'MofGen! by Chris Wilmer'
_symmetry_space_group_name_H-M	'P1'
_symmetry_Int_Tables_number	1
_symmetry_cell_setting	triclinic
loop_
_symmetry_equiv_pos_as_xyz
  x,y,z
_cell_length_a	15.537862
_cell_length_b	15.944493
_cell_length_c	14.185569
_cell_angle_alpha	76.852849
_cell_angle_beta	97.877082
_cell_angle_gamma	65.369739
loop_
_atom_site_label
_atom_site_type_symbol
_atom_site_fract_x
_atom_site_fract_y
_atom_site_fract_z
O1	O	1.228656	-0.247366	-0.083393
O2	O	0.954365	-0.150350	-0.083396
O3	O	1.099027	-0.323427	-0.083403
O4	O	1.083994	-0.074289	-0.083386
O5	O	1.141761	-0.374551	0.083429
O6	O	0.997100	-0.201475	0.083437
O7	O	1.271390	-0.298490	0.083439
Cu8	Cu	1.138147	-0.254650	0.098671
Cu9	Cu	1.087609	-0.194190	-0.098628
O10	O	1.126728	-0.125414	0.083446
C11	C	0.940633	-0.165762	0.000020
C12	C	0.836049	-0.135525	0.000018
C13	C	1.119779	-0.380095	0.000009
C14	C	1.117933	-0.472778	-0.000004
C15	C	0.677400	-0.012968	0.000022
C16	C	0.775674	-0.041389	0.000023
C17	C	0.798166	-0.201280	0.000017
C18	C	0.699893	-0.172874	0.000021
C19	C	0.639517	-0.078717	0.000022
C20	C	0.662010	-0.238623	0.000021
C21	C	0.563744	-0.210217	0.000020
C22	C	0.503361	-0.116063	0.000018
C23	C	0.541251	-0.050311	0.000021
C24	C	0.722386	-0.332778	0.000013
C25	C	0.684502	-0.398526	0.000013
C26	C	0.586237	-0.370124	0.000019
C27	C	0.525854	-0.275969	0.000017
C28	C	0.548347	-0.435875	0.000016
C29	C	0.450081	-0.407470	0.000015
C30	C	0.427588	-0.247564	0.000016
C31	C	1.203090	-0.734515	0.000016
C32	C	1.136100	-0.745871	-0.082241
C33	C	1.114522	-0.642461	0.000008
C34	C	1.178212	-0.796245	0.082243
C35	C	1.111234	-0.806372	0.000025
C36	C	1.047539	-0.652575	-0.082316
C37	C	1.089682	-0.702973	0.082241
C38	C	1.022623	-0.714270	-0.000036
C39	C	1.116418	-0.548037	-0.000002
C40	C	1.109330	-0.900789	0.000028
C41	C	1.285122	-0.283078	0.000021
C42	C	1.389705	-0.313312	0.000016
C43	C	1.105976	-0.068745	0.000032
C44	C	1.107821	0.023940	0.000038
N45	N	1.173700	-0.297178	0.237440
N46	N	1.052063	-0.151672	-0.237397
C47	C	0.947609	-0.026764	0.605101
C48	C	0.974546	-0.058974	0.710121
C49	C	1.102670	-0.212199	0.710076
C50	C	1.075741	-0.180003	0.605054
C51	C	0.998210	-0.087285	0.552575
C52	C	1.126342	-0.240524	0.552527
C53	C	1.099417	-0.208329	0.447514
C54	C	1.021892	-0.115613	0.395027
C55	C	0.971286	-0.055089	0.447561
C56	C	1.203876	-0.333239	0.605008
C57	C	1.254477	-0.393760	0.552482
C58	C	1.227549	-0.361568	0.447467
C59	C	1.150023	-0.268852	0.394980
C60	C	1.278155	-0.422091	0.394933
C61	C	1.251230	-0.389896	0.289919
C62	C	1.123099	-0.236657	0.289967
H63	H	0.378429	-0.170896	0.000031
H64	H	0.492092	0.026357	0.000036
C65	C	1.252828	-0.879528	0.176192
N66	N	1.309033	-0.942254	0.246951
C67	C	0.830481	-0.364022	0.000013
N68	N	0.911899	-0.387554	0.000014
C69	C	0.919466	-0.703691	-0.000097
N70	N	0.841768	-0.695724	-0.000147
H71	H	0.933335	-0.009681	0.752883
C72	C	0.408407	-0.479797	0.000016
N73	N	0.377018	-0.534275	0.000015
H74	H	1.165799	-0.287690	0.752817
H75	H	0.628241	0.063700	0.000037
H76	H	0.423346	-0.092936	0.000014
C77	C	1.306891	-0.456473	0.232137
N78	N	1.348819	-0.506621	0.188615
H79	H	1.155690	-0.764914	-0.151784
C80	C	0.972956	-0.569423	-0.176373
N81	N	0.916786	-0.506793	-0.247218
H82	H	0.806516	0.012155	0.000035
H83	H	1.070126	-0.683925	0.151786
H84	H	0.847336	-0.277942	0.000013
H85	H	0.908146	0.020408	0.404831
C86	C	1.233491	-0.368653	0.720527
N87	N	1.255796	-0.395326	0.807536
H88	H	1.059959	-0.161160	0.247236
C89	C	1.339756	-0.495750	0.610221
N90	N	1.403987	-0.572573	0.653709
C91	C	0.992273	-0.080198	0.279509
N92	N	0.969963	-0.053524	0.192500
C93	C	0.862283	0.075210	0.547368
N94	N	0.798007	0.152006	0.503883
H95	H	1.341287	-0.497580	0.437675
H96	H	0.597516	-0.512535	0.000005
C97	C	1.306123	-0.744798	-0.000094
N98	N	1.383724	-0.752539	-0.000181
C99	C	0.750929	-0.502100	0.000021
N100	N	0.800962	-0.580115	0.000034
