data_functionalizedCrystal
_audit_creation_method	'MofGen! by Chris Wilmer'
_symmetry_space_group_name_H-M	'P1'
_symmetry_Int_Tables_number	1
_symmetry_cell_setting	triclinic
loop_
_symmetry_equiv_pos_as_xyz
  x,y,z
_cell_length_a	18.050589
_cell_length_b	18.215407
_cell_length_c	18.215407
_cell_angle_alpha	89.989764
_cell_angle_beta	90.007870
_cell_angle_gamma	89.971331
loop_
_atom_site_label
_atom_site_type_symbol
_atom_site_fract_x
_atom_site_fract_y
_atom_site_fract_z
Zn1	Zn	-0.295774	-1.124985	0.416138
Zn2	Zn	-0.045774	-0.874985	0.666138
Zn3	Zn	0.204226	-0.624985	0.916138
Zn4	Zn	0.454226	-0.374985	1.166138
Zn5	Zn	-0.419934	-1.124907	0.293081
Zn6	Zn	-0.169934	-0.874907	0.543081
Zn7	Zn	0.080066	-0.624907	0.793081
Zn8	Zn	0.330066	-0.374907	1.043081
Zn9	Zn	-0.295764	-1.001938	0.293085
Zn10	Zn	-0.045764	-0.751938	0.543085
Zn11	Zn	0.204236	-0.501938	0.793085
Zn12	Zn	0.454236	-0.251938	1.043085
Zn13	Zn	-0.419927	-1.001876	0.416106
Zn14	Zn	-0.169927	-0.751876	0.666106
Zn15	Zn	0.080073	-0.501876	0.916106
Zn16	Zn	0.330073	-0.251876	1.166106
O17	O	-0.357850	-1.063427	0.354602
O18	O	-0.107850	-0.813427	0.604602
O19	O	0.142150	-0.563427	0.854602
O20	O	0.392150	-0.313427	1.104602
O21	O	-0.312251	-1.227959	0.399826
O22	O	-0.062251	-0.977959	0.649826
O23	O	0.187749	-0.727959	0.899826
O24	O	0.437749	-0.477959	1.149826
O25	O	-0.403462	-1.108588	0.190097
O26	O	-0.153462	-0.858588	0.440097
O27	O	0.096538	-0.608588	0.690097
O28	O	0.346538	-0.358588	0.940097
O29	O	-0.191840	-1.018319	0.309424
O30	O	0.058160	-0.768319	0.559424
O31	O	0.308160	-0.518319	0.809424
O32	O	0.558160	-0.268319	1.059424
O33	O	-0.403471	-1.227902	0.309416
O34	O	-0.153471	-0.977902	0.559416
O35	O	0.096529	-0.727902	0.809416
O36	O	0.346529	-0.477902	1.059416
O37	O	-0.191848	-1.108721	0.399830
O38	O	0.058152	-0.858721	0.649830
O39	O	0.308152	-0.608721	0.899830
O40	O	0.558152	-0.358721	1.149830
O41	O	-0.312234	-1.018244	0.190100
O42	O	-0.062234	-0.768244	0.440100
O43	O	0.187766	-0.518244	0.690100
O44	O	0.437766	-0.268244	0.940100
O45	O	-0.312227	-0.898946	0.309393
O46	O	-0.062227	-0.648946	0.559393
O47	O	0.187773	-0.398946	0.809393
O48	O	0.437773	-0.148946	1.059393
O49	O	-0.403459	-1.018214	0.519094
O50	O	-0.153459	-0.768214	0.769094
O51	O	0.096541	-0.518214	1.019094
O52	O	0.346541	-0.268214	1.269094
O53	O	-0.403450	-0.898900	0.399775
O54	O	-0.153450	-0.648900	0.649775
O55	O	0.096550	-0.398900	0.899775
O56	O	0.346550	-0.148900	1.149775
O57	O	-0.312244	-1.108661	0.519118
O58	O	-0.062244	-0.858661	0.769118
O59	O	0.187756	-0.608661	1.019118
O60	O	0.437756	-0.358661	1.269118
O61	O	-0.523858	-1.108528	0.309385
O62	O	-0.273858	-0.858528	0.559385
O63	O	-0.023858	-0.608528	0.809385
O64	O	0.226142	-0.358528	1.059385
O65	O	-0.523853	-1.018138	0.399771
O66	O	-0.273853	-0.768138	0.649771
O67	O	-0.023853	-0.518138	0.899771
O68	O	0.226147	-0.268138	1.149771
C69	C	-0.550802	-1.063338	0.354590
C70	C	-0.300802	-0.813338	0.604590
C71	C	-0.050802	-0.563338	0.854590
C72	C	0.199198	-0.313338	1.104590
C73	C	-0.633348	-1.063367	0.354610
C74	C	-0.383348	-0.813367	0.604610
C75	C	-0.133348	-0.563367	0.854610
C76	C	0.116652	-0.313367	1.104610
C77	C	-0.357837	-0.872220	0.354581
C78	C	-0.107837	-0.622220	0.604581
C79	C	0.142163	-0.372220	0.854581
C80	C	0.392163	-0.122220	1.104581
C81	C	-0.357849	-0.790422	0.354590
C82	C	-0.107849	-0.540422	0.604590
C83	C	0.142151	-0.290422	0.854590
C84	C	0.392151	-0.040422	1.104590
C85	C	-0.357852	-1.063439	0.546555
C86	C	-0.107852	-0.813439	0.796555
C87	C	0.142148	-0.563439	1.046555
C88	C	0.392148	-0.313439	1.296555
C89	C	-0.357853	-1.063445	0.628354
C90	C	-0.107853	-0.813445	0.878354
C91	C	0.142147	-0.563445	1.128354
C92	C	0.392147	-0.313445	1.378354
C93	C	-0.832822	-1.014261	0.403744
C94	C	-0.582822	-0.764261	0.653744
C95	C	-0.332822	-0.514261	0.903744
C96	C	-0.082822	-0.264261	1.153744
C97	C	-0.882244	-0.996333	0.336590
C98	C	-0.632244	-0.746333	0.586590
C99	C	-0.382244	-0.496333	0.836590
C100	C	-0.132244	-0.246333	1.086590
C101	C	-0.784478	-1.063440	0.354619
C102	C	-0.534478	-0.813440	0.604619
C103	C	-0.284478	-0.563440	0.854619
C104	C	-0.034478	-0.313440	1.104619
C105	C	-0.882138	-1.081404	0.421781
C106	C	-0.632138	-0.831404	0.671781
C107	C	-0.382138	-0.581404	0.921781
C108	C	-0.132138	-0.331404	1.171781
C109	C	-0.930463	-1.063508	0.354634
C110	C	-0.680463	-0.813508	0.604634
C111	C	-0.430463	-0.563508	0.854634
C112	C	-0.180463	-0.313508	1.104634
C113	C	-0.832813	-1.045476	0.287430
C114	C	-0.582813	-0.795476	0.537430
C115	C	-0.332813	-0.545476	0.787430
C116	C	-0.082813	-0.295476	1.037430
C117	C	-0.832702	-1.130578	0.372666
C118	C	-0.582702	-0.880578	0.622666
C119	C	-0.332702	-0.630578	0.872666
C120	C	-0.082702	-0.380578	1.122666
C121	C	-0.882101	-1.112675	0.305465
C122	C	-0.632101	-0.862675	0.555465
C123	C	-0.382101	-0.612675	0.805465
C124	C	-0.132101	-0.362675	1.055465
C125	C	-0.700380	-1.063398	0.354611
C126	C	-0.450380	-0.813398	0.604611
C127	C	-0.200380	-0.563398	0.854611
C128	C	0.049620	-0.313398	1.104611
C129	C	-1.014560	-1.063549	0.354635
C130	C	-0.764560	-0.813549	0.604635
C131	C	-0.514560	-0.563549	0.854635
C132	C	-0.264560	-0.313549	1.104635
C133	C	-0.164144	-1.063536	0.354631
C134	C	0.085856	-0.813536	0.604631
C135	C	0.335856	-0.563536	0.854631
C136	C	0.585856	-0.313536	1.104631
C137	C	-0.081598	-1.063583	0.354643
C138	C	0.168402	-0.813583	0.604643
C139	C	0.418402	-0.563583	0.854643
C140	C	0.668402	-0.313583	1.104643
C141	C	-0.357863	-1.255380	0.354624
C142	C	-0.107863	-1.005380	0.604624
C143	C	0.142137	-0.755380	0.854624
C144	C	0.392137	-0.505380	1.104624
C145	C	-0.357869	-1.337179	0.354633
C146	C	-0.107869	-1.087179	0.604633
C147	C	0.142131	-0.837179	0.854633
C148	C	0.392131	-0.587179	1.104633
C149	C	-0.405424	-0.602223	0.401593
C150	C	-0.155424	-0.352223	0.651593
C151	C	0.094576	-0.102223	0.901593
C152	C	0.344576	0.147777	1.151593
C153	C	-0.405426	-0.525364	0.401602
C154	C	-0.155426	-0.275364	0.651602
C155	C	0.094574	-0.025364	0.901602
C156	C	0.344574	0.224636	1.151602
C157	C	-0.310289	-0.525382	0.307628
C158	C	-0.060289	-0.275382	0.557628
C159	C	0.189711	-0.025382	0.807628
C160	C	0.439711	0.224618	1.057628
C161	C	-0.310284	-0.602240	0.307623
C162	C	-0.060284	-0.352240	0.557623
C163	C	0.189716	-0.102240	0.807623
C164	C	0.439716	0.147760	1.057623
C165	C	-0.357855	-0.640658	0.354604
C166	C	-0.107855	-0.390658	0.604604
C167	C	0.142145	-0.140658	0.854604
C168	C	0.392145	0.109342	1.104604
C169	C	-0.357863	-0.486942	0.354619
C170	C	-0.107863	-0.236942	0.604619
C171	C	0.142137	0.013058	0.854619
C172	C	0.392137	0.263058	1.104619
C173	C	-0.357865	-0.403608	0.354628
C174	C	-0.107865	-0.153608	0.604628
C175	C	0.142135	0.096392	0.854628
C176	C	0.392135	0.346392	1.104628
C177	C	-0.357852	-0.723997	0.354596
C178	C	-0.107852	-0.473997	0.604596
C179	C	0.142148	-0.223997	0.854596
C180	C	0.392148	0.026003	1.104596
C181	C	-0.310365	-1.110526	0.816562
C182	C	-0.060365	-0.860526	1.066562
C183	C	0.189635	-0.610526	1.316562
C184	C	0.439635	-0.360526	1.566562
C185	C	-0.310364	-1.110522	0.893420
C186	C	-0.060364	-0.860522	1.143420
C187	C	0.189636	-0.610522	1.393420
C188	C	0.439636	-0.360522	1.643420
C189	C	-0.405351	-1.016340	0.893385
C190	C	-0.155351	-0.766340	1.143385
C191	C	0.094649	-0.516340	1.393385
C192	C	0.344649	-0.266340	1.643385
C193	C	-0.405347	-1.016340	0.816527
C194	C	-0.155347	-0.766340	1.066527
C195	C	0.094653	-0.516340	1.316527
C196	C	0.344653	-0.266340	1.566527
C197	C	-0.357855	-1.063438	0.778118
C198	C	-0.107855	-0.813438	1.028118
C199	C	0.142145	-0.563438	1.278118
C200	C	0.392145	-0.313438	1.528118
C201	C	-0.357859	-1.063433	0.931834
C202	C	-0.107859	-0.813433	1.181834
C203	C	0.142141	-0.563433	1.431834
C204	C	0.392141	-0.313433	1.681834
C205	C	-0.357859	-1.063428	1.015167
C206	C	-0.107859	-0.813428	1.265167
C207	C	0.142141	-0.563428	1.515167
C208	C	0.392141	-0.313428	1.765167
C209	C	-0.357854	-1.063442	0.694779
C210	C	-0.107854	-0.813442	0.944779
C211	C	0.142146	-0.563442	1.194779
C212	C	0.392146	-0.313442	1.444779
C213	C	-0.357864	-1.063414	1.163396
C214	C	-0.107864	-0.813414	1.413396
C215	C	0.142136	-0.563414	1.663396
C216	C	0.392136	-0.313414	1.913396
C217	C	-0.357861	-1.063426	1.081597
C218	C	-0.107861	-0.813426	1.331597
C219	C	0.142139	-0.563426	1.581597
C220	C	0.392139	-0.313426	1.831597
H221	H	-0.811183	-0.972612	0.445229
H222	H	-0.561183	-0.722612	0.695229
H223	H	-0.311183	-0.472612	0.945229
H224	H	-0.061183	-0.222612	1.195229
H225	H	-0.271543	-0.633534	0.269359
H226	H	-0.021543	-0.383534	0.519359
H227	H	0.228457	-0.133534	0.769359
H228	H	0.478457	0.116466	1.019359
H229	H	-0.271692	-1.148865	0.924718
H230	H	-0.021692	-0.898865	1.174718
H231	H	0.228308	-0.648865	1.424718
H232	H	0.478308	-0.398865	1.674718
H233	H	-0.271691	-1.148874	0.785291
H234	H	-0.021691	-0.898874	1.035291
H235	H	0.228309	-0.648874	1.285291
H236	H	0.478309	-0.398874	1.535291
O237	O	-0.803854	-1.205726	0.392908
O238	O	-0.553854	-0.955726	0.642908
O239	O	-0.303854	-0.705726	0.892908
O240	O	-0.053854	-0.455726	1.142908
H241	H	-0.770029	-1.227708	0.347015
H242	H	-0.520029	-0.977708	0.597015
H243	H	-0.270029	-0.727708	0.847015
H244	H	-0.020029	-0.477708	1.097015
O245	O	-0.456575	-0.965544	0.934811
O246	O	-0.206575	-0.715544	1.184811
O247	O	0.043425	-0.465544	1.434811
O248	O	0.293425	-0.215544	1.684811
H249	H	-0.448605	-0.973457	0.994714
H250	H	-0.198605	-0.723457	1.244714
H251	H	0.051395	-0.473457	1.494714
H252	H	0.301395	-0.223457	1.744714
O253	O	-0.258998	-0.483931	0.256952
O254	O	-0.008998	-0.233931	0.506952
O255	O	0.241002	0.016069	0.756952
O256	O	0.491002	0.266069	1.006952
H257	H	-0.200726	-0.498694	0.269666
H258	H	0.049274	-0.248694	0.519666
H259	H	0.299274	0.001306	0.769666
H260	H	0.549274	0.251306	1.019666
O261	O	-0.456550	-0.965529	0.775054
O262	O	-0.206550	-0.715529	1.025054
O263	O	0.043450	-0.465529	1.275054
O264	O	0.293450	-0.215529	1.525054
H265	H	-0.489575	-0.932779	0.814673
H266	H	-0.239575	-0.682779	1.064673
H267	H	0.010425	-0.432779	1.314673
H268	H	0.260425	-0.182779	1.564673
O269	O	-0.910835	-1.101502	0.497007
O270	O	-0.660835	-0.851502	0.747007
O271	O	-0.410835	-0.601502	0.997007
O272	O	-0.160835	-0.351502	1.247007
H273	H	-0.891098	-1.060562	0.537667
H274	H	-0.641098	-0.810562	0.787667
H275	H	-0.391098	-0.560562	1.037667
H276	H	-0.141098	-0.310562	1.287667
H277	H	-0.904022	-0.939588	0.321340
H278	H	-0.654022	-0.689588	0.571340
H279	H	-0.404022	-0.439588	0.821340
H280	H	-0.154022	-0.189588	1.071340
H281	H	-0.444157	-0.633501	0.439850
H282	H	-0.194157	-0.383501	0.689850
H283	H	0.055843	-0.133501	0.939850
H284	H	0.305843	0.116499	1.189850
H285	H	-0.811236	-1.030243	0.230622
H286	H	-0.561236	-0.780243	0.480622
H287	H	-0.311236	-0.530243	0.730622
H288	H	-0.061236	-0.280243	0.980622
O289	O	-0.456814	-0.483907	0.452200
O290	O	-0.206814	-0.233907	0.702200
O291	O	0.043186	0.016093	0.952200
O292	O	0.293186	0.266093	1.202200
H293	H	-0.489922	-0.523536	0.484833
H294	H	-0.239922	-0.273536	0.734833
H295	H	0.010078	-0.023536	0.984833
H296	H	0.260078	0.226464	1.234833
H297	H	-0.903603	-1.154293	0.263880
H298	H	-0.653603	-0.904293	0.513880
H299	H	-0.403603	-0.654293	0.763880
H300	H	-0.153603	-0.404293	1.013880
