data_functionalizedCrystal
_audit_creation_method	'MofGen! by Chris Wilmer'
_symmetry_space_group_name_H-M	'P1'
_symmetry_Int_Tables_number	1
_symmetry_cell_setting	triclinic
loop_
_symmetry_equiv_pos_as_xyz
  x,y,z
_cell_length_a	13.262390
_cell_length_b	14.044190
_cell_length_c	11.804365
_cell_angle_alpha	102.923601
_cell_angle_beta	62.657606
_cell_angle_gamma	88.642439
loop_
_atom_site_label
_atom_site_type_symbol
_atom_site_fract_x
_atom_site_fract_y
_atom_site_fract_z
O1	O	1.520669	0.013854	-0.591549
O2	O	1.195743	0.047997	-0.486317
O3	O	1.353320	-0.106768	-0.537327
O4	O	1.363093	0.168619	-0.540539
O5	O	1.311832	-0.066063	-0.325841
O6	O	1.154255	0.088703	-0.274830
O7	O	1.479182	0.054559	-0.380063
Cu8	Cu	1.312930	0.075348	-0.308136
Cu9	Cu	1.361995	0.027209	-0.558243
O10	O	1.321605	0.209325	-0.329052
C11	C	1.133165	0.070180	-0.367024
C12	C	1.008509	0.075620	-0.326652
C13	C	0.747596	0.002186	-0.673992
C14	C	0.864717	-0.002931	-0.711926
C15	C	0.900671	0.016707	-0.615611
C16	C	0.819492	0.041462	-0.481355
C17	C	0.702360	0.046572	-0.443417
C18	C	0.855435	0.061092	-0.385036
C19	C	0.774256	0.085847	-0.250780
C20	C	0.657136	0.090957	-0.212848
C21	C	0.621182	0.071319	-0.309164
C22	C	0.972567	0.055983	-0.422974
C23	C	0.927331	0.100368	-0.192399
C24	C	0.810210	0.105485	-0.154464
C25	C	1.328305	-0.121479	-0.430197
C26	C	1.315563	-0.225956	-0.426060
C27	C	1.382633	-0.480184	-0.447828
C28	C	1.292300	-0.417256	-0.418564
C29	C	1.305247	-0.310807	-0.422736
C30	C	1.369687	-0.586644	-0.443657
C31	C	1.541761	0.032376	-0.499358
C32	C	1.666418	0.026934	-0.539739
C33	C	1.346621	0.224035	-0.436185
C34	C	1.359364	0.328510	-0.440330
N35	N	1.278429	0.109205	-0.132227
N36	N	1.396504	-0.006656	-0.734155
C37	C	1.479351	-0.087978	0.176680
C38	C	1.505450	-0.113595	0.043570
C39	C	1.448696	-0.057897	-0.000386
C40	C	1.365841	0.023422	0.088782
C41	C	1.339747	0.049046	0.221903
C42	C	1.309092	0.079127	0.044837
C43	C	1.226237	0.160446	0.134004
C44	C	1.200146	0.186065	0.267112
C45	C	1.256899	0.130368	0.311068
C46	C	1.335186	0.053503	-0.088285
C47	C	1.195582	0.190527	-0.043062
C48	C	1.169484	0.216144	0.090048
H49	H	0.996037	0.012540	-0.646505
O50	O	1.585919	-0.192640	-0.042854
C51	C	1.630434	-0.236293	0.024476
H52	H	1.565756	-0.216421	0.134296
H53	H	1.714030	-0.207815	0.010638
C54	C	1.732945	-0.373698	-0.166518
C55	C	1.653501	-0.349297	-0.031636
H56	H	1.747179	-0.443404	-0.201133
H57	H	1.702958	-0.344287	-0.211882
H58	H	1.802600	-0.349959	-0.178031
H59	H	1.583845	-0.373025	-0.020126
H60	H	1.683477	-0.378715	0.013729
O61	O	1.089089	0.295236	0.176509
C62	C	1.123081	0.381204	0.135045
H63	H	1.185235	0.359978	0.024393
H64	H	1.167137	0.421518	0.190924
C65	C	0.940401	0.475399	0.299645
C66	C	1.016732	0.449329	0.163738
H67	H	0.874801	0.517424	0.317349
H68	H	0.917501	0.417482	0.327584
H69	H	0.977129	0.508988	0.346195
H70	H	0.980010	0.415730	0.117193
H71	H	1.039624	0.507242	0.135792
H72	H	0.591043	0.111096	-0.103529
H73	H	1.402647	-0.012707	-0.160874
H74	H	0.744098	0.125640	-0.045151
O75	O	1.486395	-0.448915	-0.481360
C76	C	1.476385	-0.348052	-0.478126
H77	H	1.383308	-0.312268	-0.410496
H78	H	1.504430	-0.340497	-0.582216
C79	C	1.667618	-0.340367	-0.508407
C80	C	1.553300	-0.296415	-0.425333
H81	H	1.715066	-0.308514	-0.475848
H82	H	1.674364	-0.408321	-0.510591
H83	H	1.690973	-0.334068	-0.595143
H84	H	1.529943	-0.302725	-0.338605
H85	H	1.546552	-0.228460	-0.423134
O86	O	1.119516	0.264968	0.353722
C87	C	1.013362	0.249857	0.357644
H88	H	1.012396	0.167402	0.323706
H89	H	1.000829	0.289128	0.289335
C90	C	0.916826	0.392958	0.541730
C91	C	0.915636	0.291685	0.500057
H92	H	0.856543	0.418763	0.629575
H93	H	0.988344	0.403142	0.539085
H94	H	0.906386	0.425671	0.484794
H95	H	0.926090	0.258972	0.556983
H96	H	0.844117	0.281497	0.502715
O97	O	0.712600	-0.016711	-0.767484
C98	C	0.641685	0.067208	-0.750974
H99	H	0.661017	0.135787	-0.695991
H100	H	0.547859	0.058436	-0.691564
C101	C	0.641107	-0.006140	-0.955000
C102	C	0.664858	0.078090	-0.887478
H103	H	0.655397	0.000571	-1.039201
H104	H	0.688880	-0.062680	-0.966122
H105	H	0.562920	-0.013441	-0.905477
H106	H	0.743048	0.085384	-0.936993
H107	H	0.617099	0.134632	-0.876368
O108	O	1.231371	0.155361	0.440432
C109	C	1.146100	0.239097	0.509703
H110	H	1.096001	0.244660	0.454096
H111	H	1.188227	0.308278	0.518168
C112	C	1.125255	0.222768	0.717352
C113	C	1.063717	0.229595	0.649059
H114	H	1.074440	0.216910	0.803315
H115	H	1.182707	0.166355	0.670683
H116	H	1.160358	0.280420	0.724392
H117	H	1.028628	0.171938	0.642005
H118	H	1.006257	0.285998	0.695730
H119	H	1.469949	-0.078759	-0.108771
H120	H	0.930805	-0.023091	-0.821237
H121	H	1.205239	-0.443327	-0.390375
H122	H	1.149370	0.235883	-0.078849
H123	H	1.038652	0.035829	-0.532286
H124	H	1.525559	-0.133316	0.212477
O125	O	0.962387	0.119298	-0.098949
C126	C	1.033251	0.035360	-0.115415
H127	H	1.071928	-0.012109	-0.221672
H128	H	0.980097	-0.009352	-0.044912
C129	C	1.082713	0.126496	0.045403
C130	C	1.130224	0.068197	-0.085107
H131	H	1.142528	0.146749	0.064104
H132	H	1.034968	0.183046	0.056501
H133	H	1.038418	0.089227	0.104141
H134	H	1.174506	0.105470	-0.143842
H135	H	1.177980	0.011654	-0.096214
H136	H	0.525814	0.075487	-0.278284
