data_functionalizedCrystal
_audit_creation_method	'MofGen! by Chris Wilmer'
_symmetry_space_group_name_H-M	'P1'
_symmetry_Int_Tables_number	1
_symmetry_cell_setting	triclinic
loop_
_symmetry_equiv_pos_as_xyz
  x,y,z
_cell_length_a	19.121414
_cell_length_b	19.120786
_cell_length_c	19.121242
_cell_angle_alpha	89.925866
_cell_angle_beta	90.121862
_cell_angle_gamma	95.006361
loop_
_atom_site_label
_atom_site_type_symbol
_atom_site_fract_x
_atom_site_fract_y
_atom_site_fract_z
Zn1	Zn	1.077614	-0.248194	0.340649
Zn2	Zn	1.410947	0.085139	0.673982
Zn3	Zn	1.744281	0.418473	1.007315
Zn4	Zn	1.067536	-0.360890	0.218817
Zn5	Zn	1.400869	-0.027557	0.552150
Zn6	Zn	1.734202	0.305777	0.885484
Zn7	Zn	0.955370	-0.248644	0.228398
Zn8	Zn	1.288704	0.084689	0.561731
Zn9	Zn	1.622037	0.418023	0.895065
Zn10	Zn	0.954896	-0.370849	0.340595
Zn11	Zn	1.288230	-0.037515	0.673929
Zn12	Zn	1.621563	0.295818	1.007262
O13	O	1.013854	-0.307144	0.282115
O14	O	1.347187	0.026189	0.615448
O15	O	1.680521	0.359522	0.948781
O16	O	1.174577	-0.258788	0.320500
O17	O	1.507910	0.074546	0.653833
O18	O	1.841243	0.407879	0.987167
O19	O	1.048637	-0.342021	0.122146
O20	O	1.381970	-0.008688	0.455480
O21	O	1.715304	0.324646	0.788813
O22	O	0.976003	-0.150278	0.247320
O23	O	1.309336	0.183056	0.580654
O24	O	1.642669	0.516389	0.913987
O25	O	1.167172	-0.341585	0.230991
O26	O	1.500505	-0.008251	0.564324
O27	O	1.833839	0.325082	0.897658
O28	O	1.065815	-0.149947	0.329790
O29	O	1.399148	0.183386	0.663124
O30	O	1.732481	0.516720	0.996457
O31	O	0.966230	-0.259554	0.129185
O32	O	1.299563	0.073779	0.462519
O33	O	1.632897	0.407112	0.795852
O34	O	0.857008	-0.269211	0.247269
O35	O	1.190342	0.064123	0.580602
O36	O	1.523675	0.397456	0.913935
O37	O	0.975195	-0.358558	0.438544
O38	O	1.308528	-0.025224	0.771877
O39	O	1.641861	0.308109	1.105211
O40	O	0.856660	-0.358994	0.329699
O41	O	1.189993	-0.025661	0.663033
O42	O	1.523327	0.307673	0.996366
O43	O	1.065355	-0.268444	0.438583
O44	O	1.398688	0.064889	0.771917
O45	O	1.732022	0.398223	1.105250
O46	O	1.048177	-0.460518	0.230939
O47	O	1.381511	-0.127185	0.564273
O48	O	1.714844	0.206149	0.897606
O49	O	0.965422	-0.467834	0.320409
O50	O	1.298755	-0.134501	0.653742
O51	O	1.632089	0.198832	0.987076
C52	C	0.831346	-0.315232	0.289518
C53	C	1.164679	0.018101	0.622852
C54	C	1.498013	0.351434	0.956185
C55	C	0.753268	-0.318710	0.292701
C56	C	1.086602	0.014623	0.626035
C57	C	1.419935	0.347957	0.959368
C58	C	0.716754	-0.273534	0.251356
C59	C	1.050087	0.059800	0.584689
C60	C	1.383421	0.393133	0.918023
C61	C	0.643391	-0.276808	0.254346
C62	C	0.976725	0.056526	0.587680
C63	C	1.310058	0.389859	0.921013
C64	C	0.606545	-0.325255	0.298686
C65	C	0.939878	0.008079	0.632020
C66	C	1.273211	0.341412	0.965353
C67	C	0.643064	-0.370436	0.340033
C68	C	0.976397	-0.037102	0.673367
C69	C	1.309731	0.296231	1.006700
C70	C	0.716425	-0.367165	0.337039
C71	C	1.049758	-0.033831	0.670372
C72	C	1.383092	0.299502	1.003706
C73	C	0.385033	-0.337475	0.309868
C74	C	0.718366	-0.004142	0.643201
C75	C	1.051700	0.329191	0.976535
C76	C	0.311667	-0.340741	0.312861
C77	C	0.645000	-0.007408	0.646195
C78	C	0.978334	0.325925	0.979528
C79	C	0.311999	-0.247114	0.227173
C80	C	0.645333	0.086220	0.560506
C81	C	0.978666	0.419553	0.893839
C82	C	0.385362	-0.243844	0.224185
C83	C	0.718695	0.089489	0.557518
C84	C	1.052029	0.422822	0.890852
C85	C	0.421875	-0.289028	0.265529
C86	C	0.755208	0.044305	0.598863
C87	C	1.088541	0.377639	0.932196
C88	C	0.531556	-0.328601	0.301746
C89	C	0.864890	0.004733	0.635079
C90	C	1.198223	0.338066	0.968413
C91	C	0.496861	-0.285685	0.262466
C92	C	0.830195	0.047648	0.595799
C93	C	1.163528	0.380982	0.929133
C94	C	1.005674	-0.489666	0.274643
C95	C	1.339008	-0.156332	0.607976
C96	C	1.672341	0.177001	0.941310
C97	C	1.002240	-0.567747	0.271468
C98	C	1.335573	-0.234414	0.604801
C99	C	1.668907	0.098919	0.938134
C100	C	1.047355	-0.604201	0.312951
C101	C	1.380688	-0.270867	0.646284
C102	C	1.714022	0.062466	0.979618
C103	C	1.044125	-0.677567	0.309969
C104	C	1.377459	-0.344234	0.643302
C105	C	1.710792	-0.010900	0.976635
C106	C	0.995784	-0.714478	0.265498
C107	C	1.329117	-0.381145	0.598832
C108	C	1.662450	-0.047811	0.932165
C109	C	0.950664	-0.678020	0.224013
C110	C	1.283997	-0.344686	0.557347
C111	C	1.617331	-0.011353	0.890680
C112	C	0.953891	-0.604655	0.227000
C113	C	1.287224	-0.271322	0.560333
C114	C	1.620557	0.062012	0.893667
C115	C	0.983701	-0.936003	0.254334
C116	C	1.317034	-0.602670	0.587667
C117	C	1.650367	-0.269337	0.921001
C118	C	0.980479	-1.009373	0.251349
C119	C	1.313812	-0.676039	0.584682
C120	C	1.647145	-0.342706	0.918016
C121	C	1.073939	-1.008915	0.337306
C122	C	1.407273	-0.675582	0.670639
C123	C	1.740606	-0.342248	1.003972
C124	C	1.077165	-0.935549	0.340285
C125	C	1.410498	-0.602215	0.673619
C126	C	1.743831	-0.268882	1.006952
C127	C	1.032043	-0.899097	0.298803
C128	C	1.365376	-0.565764	0.632136
C129	C	1.698709	-0.232430	0.965470
C130	C	0.992483	-0.789470	0.262447
C131	C	1.325816	-0.456137	0.595781
C132	C	1.659150	-0.122803	0.929114
C133	C	1.035340	-0.824107	0.301858
C134	C	1.368674	-0.490774	0.635192
C135	C	1.702007	-0.157440	0.968525
C136	C	1.197075	-0.299025	0.274683
C137	C	1.530408	0.034308	0.608016
C138	C	1.863741	0.367642	0.941349
C139	C	1.275153	-0.295565	0.271516
C140	C	1.608486	0.037768	0.604849
C141	C	1.941819	0.371101	0.938182
C142	C	1.021346	-0.314562	0.464669
C143	C	1.354679	0.018772	0.798002
C144	C	1.688013	0.352105	1.131336
C145	C	1.024539	-0.317722	0.542463
C146	C	1.357872	0.015611	0.875796
C147	C	1.691205	0.348944	1.209129
C148	C	1.022086	-0.123910	0.289630
C149	C	1.355419	0.209424	0.622963
C150	C	1.688752	0.542757	0.956297
C151	C	1.025594	-0.045826	0.292833
C152	C	1.358927	0.287507	0.626166
C153	C	1.692260	0.620841	0.959499
C154	C	1.006434	-0.299703	0.100271
C155	C	1.339767	0.033630	0.433604
C156	C	1.673101	0.366963	0.766938
C157	C	1.003386	-0.296338	0.022480
C158	C	1.336720	0.036995	0.355814
C159	C	1.670053	0.370328	0.689147
C160	C	1.044785	-0.337787	0.982262
C161	C	1.378119	-0.004454	1.315595
C162	C	1.711452	0.328880	1.648928
C163	C	1.041775	-0.334813	0.909167
C164	C	1.375109	-0.001480	1.242500
C165	C	1.708442	0.331854	1.575833
C166	C	0.997370	-0.290387	0.876292
C167	C	1.330703	0.042947	1.209625
C168	C	1.664036	0.376280	1.542959
C169	C	0.955966	-0.248937	0.916516
C170	C	1.289299	0.084397	1.249849
C171	C	1.622633	0.417730	1.583183
C172	C	0.958973	-0.251915	0.989609
C173	C	1.292306	0.081419	1.322943
C174	C	1.625639	0.414752	1.656276
C175	C	0.986142	-0.279250	0.655780
C176	C	1.319475	0.054083	0.989114
C177	C	1.652808	0.387416	1.322447
C178	C	0.983140	-0.276274	0.582681
C179	C	1.316473	0.057059	0.916015
C180	C	1.649806	0.390393	1.249348
C181	C	1.068948	-0.362152	0.575337
C182	C	1.402282	-0.028818	0.908671
C183	C	1.735615	0.304515	1.242004
C184	C	1.071954	-0.365123	0.648433
C185	C	1.405288	-0.031789	0.981766
C186	C	1.738621	0.301544	1.315099
C187	C	1.030548	-0.323675	0.688650
C188	C	1.363881	0.009658	1.021984
C189	C	1.697215	0.342991	1.355317
C190	C	0.994294	-0.287344	0.801577
C191	C	1.327627	0.045989	1.134911
C192	C	1.660960	0.379322	1.468244
C193	C	1.033621	-0.326722	0.763363
C194	C	1.366954	0.006611	1.096697
C195	C	1.700287	0.339945	1.430030
H196	H	0.746154	-0.403952	0.370707
H197	H	1.079487	-0.070619	0.704040
H198	H	1.412821	0.262714	1.037373
H199	H	0.613057	-0.409885	0.376133
H200	H	0.946391	-0.076552	0.709466
H201	H	1.279724	0.256781	1.042799
H202	H	1.108114	-0.401300	0.675194
H203	H	1.441447	-0.067967	1.008527
H204	H	1.774780	0.265367	1.341861
H205	H	0.414753	-0.374267	0.343534
H206	H	0.748086	-0.040934	0.676867
H207	H	1.081420	0.292400	1.010200
H208	H	0.415357	-0.204398	0.188074
H209	H	0.748690	0.128935	0.521407
H210	H	1.082024	0.462268	0.854740
H211	H	0.526865	-0.246242	0.226362
H212	H	0.860198	0.087091	0.559695
H213	H	1.193531	0.420425	0.893028
H214	H	0.917153	-0.574976	0.193221
H215	H	1.250486	-0.241642	0.526554
H216	H	1.583819	0.091691	0.859887
H217	H	1.074698	-0.794052	0.338069
H218	H	1.408031	-0.460719	0.671402
H219	H	1.741364	-0.127385	1.004735
H220	H	1.110674	-1.038602	0.371079
H221	H	1.444008	-0.705269	0.704412
H222	H	1.777341	-0.371935	1.037746
H223	H	1.075478	-0.368574	0.876424
H224	H	1.408811	-0.035240	1.209757
H225	H	1.742145	0.298093	1.543090
H226	H	0.501548	-0.368046	0.337848
H227	H	0.834881	-0.034712	0.671182
H228	H	1.168214	0.298621	1.004515
H229	H	1.086723	-0.574152	0.349160
H230	H	1.420056	-0.240819	0.682494
H231	H	1.753389	0.092514	1.015827
H232	H	0.946981	-0.240092	0.555917
H233	H	1.280314	0.093242	0.889251
H234	H	1.613647	0.426575	1.222584
H235	H	0.953125	-0.819531	0.226237
H236	H	1.286458	-0.486198	0.559571
H237	H	1.619792	-0.152864	0.892904
H238	H	1.080949	-0.373960	1.009023
H239	H	1.414282	-0.040627	1.342356
H240	H	1.747615	0.292706	1.675689
H241	H	1.102658	-0.395896	0.542584
H242	H	1.435992	-0.062563	0.875918
H243	H	1.769325	0.270770	1.209251
H244	H	0.946962	-0.906330	0.220556
H245	H	1.280295	-0.572996	0.553889
H246	H	1.613628	-0.239663	0.887223
H247	H	1.116528	-0.905497	0.376496
H248	H	1.449862	-0.572164	0.709830
H249	H	1.783195	-0.238831	1.043163
H250	H	1.080868	-0.707244	0.343743
H251	H	1.414201	-0.373910	0.677077
H252	H	1.747535	-0.040577	1.010410
H253	H	0.941110	-1.039424	0.215136
H254	H	1.274443	-0.706090	0.548469
H255	H	1.607776	-0.372757	0.881802
H256	H	0.281669	-0.380192	0.348973
H257	H	0.615002	-0.046859	0.682306
H258	H	0.948335	0.286474	1.015639
H259	H	0.911301	-0.708079	0.187808
H260	H	1.244634	-0.374745	0.521141
H261	H	1.577967	-0.041412	0.854474
H262	H	0.952425	-0.245502	0.688517
H263	H	1.285758	0.087831	1.021850
H264	H	1.619091	0.421164	1.355184
H265	H	0.919807	-0.212767	0.889744
H266	H	1.253140	0.120566	1.223077
H267	H	1.586473	0.453900	1.556410
H268	H	0.925262	-0.218162	1.022355
H269	H	1.258595	0.115171	1.355688
H270	H	1.591929	0.448505	1.689022
H271	H	1.069774	-0.362895	0.790133
H272	H	1.403107	-0.029562	1.123467
H273	H	1.736441	0.303771	1.456800
H274	H	0.958139	-0.251171	0.774802
H275	H	1.291472	0.082162	1.108136
H276	H	1.624806	0.415495	1.441469
H277	H	0.746750	-0.234078	0.215255
H278	H	1.080083	0.099256	0.548588
H279	H	1.413416	0.432589	0.881922
H280	H	0.613664	-0.240024	0.220674
H281	H	0.946997	0.093309	0.554007
H282	H	1.280331	0.426643	0.887341
H283	H	0.282263	-0.210329	0.193512
H284	H	0.615596	0.123005	0.526845
H285	H	0.948929	0.456338	0.860178
