data_functionalizedCrystal
_audit_creation_method	'MofGen! by Chris Wilmer'
_symmetry_space_group_name_H-M	'P1'
_symmetry_Int_Tables_number	1
_symmetry_cell_setting	triclinic
loop_
_symmetry_equiv_pos_as_xyz
  x,y,z
_cell_length_a	12.759401
_cell_length_b	21.295417
_cell_length_c	21.295411
_cell_angle_alpha	89.971282
_cell_angle_beta	89.986764
_cell_angle_gamma	90.030668
loop_
_atom_site_label
_atom_site_type_symbol
_atom_site_fract_x
_atom_site_fract_y
_atom_site_fract_z
Zn1	Zn	1.606085	-0.250634	-0.355857
Zn2	Zn	1.605947	-0.355899	-0.250583
Zn3	Zn	1.430404	-0.250648	-0.250608
Zn4	Zn	1.430328	-0.355870	-0.355821
O5	O	1.518191	-0.303263	-0.303217
O6	O	1.753088	-0.264604	-0.341897
O7	O	1.582635	-0.341955	-0.162497
O8	O	1.453798	-0.162557	-0.264596
O9	O	1.752987	-0.341942	-0.264553
O10	O	1.582870	-0.162547	-0.341922
O11	O	1.453664	-0.264628	-0.162516
O12	O	1.283372	-0.264599	-0.264560
O13	O	1.453668	-0.341892	-0.443915
O14	O	1.283317	-0.341906	-0.341859
O15	O	1.582797	-0.264576	-0.443942
O16	O	1.582562	-0.443985	-0.264517
O17	O	1.453534	-0.443963	-0.341834
C18	C	1.245224	-0.303251	-0.303209
C19	C	1.128447	-0.303261	-0.303220
C20	C	1.073583	-0.343579	-0.343403
C21	C	0.963859	-0.343587	-0.343410
C22	C	0.963872	-0.262958	-0.263045
C23	C	1.073594	-0.262947	-0.263042
C24	C	1.128436	-0.383893	-0.383581
C25	C	1.073572	-0.424215	-0.423767
C26	C	0.963848	-0.424223	-0.423773
C27	C	0.908988	-0.383909	-0.383595
C28	C	1.518053	-0.466815	-0.303182
C29	C	1.518090	-0.536783	-0.303189
C30	C	1.585335	-0.569640	-0.262971
C31	C	1.585384	-0.635382	-0.262985
C32	C	1.518170	-0.668265	-0.303210
C33	C	1.450921	-0.635400	-0.343436
C34	C	1.450881	-0.569659	-0.343425
N35	N	1.426262	-0.771531	-0.308006
N36	N	1.426303	-0.833983	-0.308013
C37	C	1.518288	-0.866340	-0.303246
N38	N	1.610232	-0.833886	-0.298461
N39	N	1.610190	-0.771429	-0.298451
C40	C	1.518206	-0.739550	-0.303227
C41	C	1.585591	-0.970482	-0.263042
C42	C	1.585642	-1.036226	-0.263060
C43	C	1.451170	-1.036243	-0.343508
C44	C	1.451129	-0.970500	-0.343493
C45	C	1.518338	-0.937624	-0.303256
C46	C	1.792224	-0.303275	-0.303226
C47	C	1.909001	-0.303280	-0.303230
C48	C	1.518239	-0.303229	-0.467408
C49	C	1.518260	-0.303215	-0.537376
C50	C	1.518358	-0.139073	-0.303266
C51	C	1.518429	-0.069104	-0.303287
C52	C	1.585533	-0.343349	-1.036825
C53	C	1.585514	-0.343369	-0.971082
C54	C	1.518359	-0.303117	-0.938215
C55	C	1.451200	-0.262853	-0.971097
C56	C	1.451213	-0.262838	-1.036838
N57	N	1.510334	-0.248037	-0.835010
N58	N	1.510328	-0.248053	-0.772559
C59	C	1.518313	-0.303159	-0.740141
N60	N	1.526326	-0.358251	-0.772533
N61	N	1.526338	-0.358234	-0.834990
C62	C	1.518337	-0.303128	-0.866930
C63	C	1.585443	-0.343446	-0.635982
C64	C	1.585416	-0.343467	-0.570238
C65	C	1.451108	-0.262945	-0.570254
C66	C	1.451129	-0.262930	-0.635996
C67	C	1.518302	-0.303179	-0.668856
C68	C	1.518203	-0.303251	-0.139666
C69	C	1.518386	-0.303088	-0.069698
H70	H	0.919181	-0.457050	-0.456499
N71	N	1.382525	-1.069833	-0.384598
N72	N	1.382571	-1.128530	-0.384605
H73	H	1.334091	-1.152258	-0.413627
H74	H	1.217779	-0.383892	-0.383579
H75	H	1.396521	-0.230080	-0.944332
N76	N	1.382201	-0.536084	-0.384509
N77	N	1.419107	-0.499352	-0.424632
H78	H	1.370602	-0.475638	-0.453648
H79	H	1.396534	-0.230052	-1.063603
N80	N	1.654147	-0.384463	-1.070386
N81	N	1.751096	-0.380294	-1.063052
H82	H	1.799554	-0.409333	-1.086756
H83	H	1.640136	-0.376221	-0.662738
H84	H	1.396427	-0.230173	-0.543494
N85	N	1.654109	-0.384502	-0.937503
N86	N	1.714074	-0.420436	-0.966850
H87	H	1.762521	-0.449487	-0.943137
H88	H	1.396197	-0.662178	-0.376189
N89	N	1.654006	-0.384605	-0.536666
N90	N	1.713969	-0.420537	-0.566017
H91	H	1.762412	-0.449592	-0.542307
H92	H	1.396455	-0.230142	-0.662762
N93	N	0.907837	-0.221795	-0.221994
N94	N	0.920060	-0.225892	-0.163900
H95	H	0.880486	-0.196822	-0.134904
N96	N	1.654238	-0.936882	-0.221953
N97	N	1.617297	-0.900243	-0.181815
H98	H	1.665781	-0.876512	-0.152798
N99	N	1.129627	-0.221753	-0.222001
N100	N	1.080642	-0.185762	-0.186131
H101	H	1.120215	-0.156664	-0.157148
H102	H	1.118247	-0.457032	-0.456483
H103	H	1.396368	-0.943746	-0.376240
H104	H	1.640063	-0.542874	-0.230209
N105	N	1.654075	-0.668944	-0.221893
N106	N	1.714072	-0.639583	-0.185970
H107	H	1.762581	-0.663284	-0.156946
H108	H	0.819643	-0.383914	-0.383609
H109	H	1.640407	-1.062977	-0.230311
