data_functionalizedCrystal
_audit_creation_method	'MofGen! by Chris Wilmer'
_symmetry_space_group_name_H-M	'P1'
_symmetry_Int_Tables_number	1
_symmetry_cell_setting	triclinic
loop_
_symmetry_equiv_pos_as_xyz
  x,y,z
_cell_length_a	31.640172
_cell_length_b	31.640171
_cell_length_c	31.640172
_cell_angle_alpha	120.006748
_cell_angle_beta	89.998517
_cell_angle_gamma	120.017006
loop_
_atom_site_label
_atom_site_type_symbol
_atom_site_fract_x
_atom_site_fract_y
_atom_site_fract_z
Zr1	Zr	-0.407059	0.462717	0.055720
O2	O	-0.339541	0.550920	0.123233
O3	O	-0.427774	0.374512	0.034995
O4	O	-0.427745	0.462700	0.123201
O5	O	-0.339574	0.462746	-0.034518
O6	O	-0.497303	0.462689	0.123208
O7	O	-0.339570	0.462732	0.035027
O8	O	-0.497355	0.304937	-0.034576
O9	O	-0.339522	0.620498	0.123266
O10	O	-0.488499	0.410785	0.026197
O11	O	-0.436591	0.410804	-0.025710
O12	O	-0.436557	0.514634	0.078141
O13	O	-0.384650	0.514653	0.026234
Zr14	Zr	-0.518003	0.462723	-0.055185
Zr15	Zr	-0.517996	0.462700	0.055732
Zr16	Zr	-0.407066	0.462740	-0.055197
Zr17	Zr	-0.407029	0.573687	0.055772
Zr18	Zr	-0.518033	0.351753	-0.055237
O19	O	-0.497288	0.550928	-0.034460
O20	O	-0.497279	0.550895	0.123250
O21	O	-0.339550	0.550953	-0.034477
O22	O	-0.585521	0.374520	-0.122698
O23	O	-0.585512	0.374488	0.035012
O24	O	-0.427783	0.374545	-0.122715
O25	O	-0.585488	0.462694	0.035054
O26	O	-0.497317	0.462740	-0.122665
O27	O	-0.427759	0.462751	-0.122673
O28	O	-0.585492	0.462708	-0.034492
O29	O	-0.427702	0.620485	0.123275
O30	O	-0.497360	0.304955	-0.122740
O31	O	-0.585540	0.304942	-0.122730
O32	O	-0.585535	0.304923	-0.034566
O33	O	-0.339527	0.620517	0.035102
O34	O	-0.427707	0.620503	0.035111
O35	O	-0.488505	0.410806	-0.077605
O36	O	-0.540412	0.410788	-0.025699
O37	O	-0.488471	0.514636	0.026245
O38	O	-0.436563	0.514655	-0.025661
C39	C	-0.462569	0.323914	0.000202
C40	C	-0.462581	0.276804	0.000180
C41	C	-0.435436	-0.059408	-0.026832
C42	C	-0.435463	0.117545	-0.026877
O43	O	-0.412441	0.140415	-0.049943
N44	N	-0.462562	0.139664	0.000212
C45	C	-0.489659	0.117539	0.027312
O46	O	-0.512713	0.140408	0.050348
C47	C	-0.489634	-0.059417	0.027355
C48	C	-0.462529	-0.081529	0.000268
C49	C	-0.408333	-0.081521	-0.053917
C50	C	-0.408324	-0.125755	-0.053903
C51	C	-0.435418	-0.147875	-0.026804
C52	C	-0.462520	-0.125763	0.000282
C53	C	-0.516734	-0.081544	0.054451
C54	C	-0.516726	-0.125787	0.054459
C55	C	-0.489621	-0.147899	0.027372
C56	C	-0.489605	-0.192117	0.027395
N57	N	-0.462506	-0.214236	0.000305
C58	C	-0.435412	-0.192115	-0.026794
C59	C	-0.489669	0.210444	0.027289
C60	C	-0.489675	0.254684	0.027279
C61	C	-0.435480	0.254686	-0.026911
C62	C	-0.435472	0.210449	-0.026898
C63	C	-0.462570	0.188325	0.000200
C64	C	-0.435395	-0.285008	-0.026762
C65	C	-0.435387	-0.329244	-0.026744
C66	C	-0.489584	-0.329244	0.027444
C67	C	-0.489590	-0.285010	0.027428
C68	C	-0.462495	-0.262895	0.000321
O69	O	-0.512620	-0.215019	0.050443
O70	O	-0.412371	-0.215001	-0.049836
C71	C	-0.435445	-0.015175	-0.026846
C72	C	-0.462547	0.006938	0.000240
C73	C	-0.489640	-0.015183	0.027339
C74	C	-0.462553	0.051177	0.000230
C75	C	-0.435459	0.073298	-0.026869
C76	C	-0.408360	0.051179	-0.053959
C77	C	-0.408351	0.006946	-0.053945
C78	C	-0.516739	0.006936	0.054429
C79	C	-0.516746	0.051170	0.054413
C80	C	-0.489652	0.073291	0.027314
C81	C	-0.323766	0.462742	0.000253
C82	C	-0.276670	0.462749	0.000248
C83	C	0.059605	0.462729	-0.038053
C84	C	-0.117378	0.462742	-0.038062
O85	O	-0.140273	0.462726	-0.070658
N86	N	-0.139511	0.462735	0.000252
C87	C	-0.117396	0.462722	0.038568
O88	O	-0.140285	0.462711	0.071152
C89	C	0.059585	0.462705	0.038574
C90	C	0.081718	0.462717	0.000261
C91	C	0.081738	0.462740	-0.076363
C92	C	0.125983	0.462740	-0.076359
C93	C	0.148095	0.462729	-0.038045
C94	C	0.125963	0.462717	0.000265
C95	C	0.081696	0.462687	0.076887
C96	C	0.125943	0.462681	0.076884
C97	C	0.148076	0.462694	0.038572
C98	C	0.192320	0.462706	0.038583
N99	N	0.214452	0.462712	0.000270
C100	C	0.192340	0.462723	-0.038044
C101	C	-0.210313	0.462732	0.038563
C102	C	-0.254558	0.462738	0.038562
C103	C	-0.254537	0.462756	-0.038068
C104	C	-0.210290	0.462755	-0.038065
C105	C	-0.188181	0.462738	0.000249
C106	C	0.285257	0.462724	-0.038032
C107	C	0.329508	0.462726	-0.038023
C108	C	0.329482	0.462705	0.038605
C109	C	0.285237	0.462705	0.038598
C110	C	0.263125	0.462713	0.000275
O111	O	0.215238	0.462714	0.071159
O112	O	0.215230	0.462721	-0.070630
C113	C	0.015360	0.462729	-0.038057
C114	C	-0.006772	0.462717	0.000253
C115	C	0.015340	0.462705	0.038567
C116	C	-0.051017	0.462722	0.000252
C117	C	-0.073129	0.462734	-0.038062
C118	C	-0.050997	0.462740	-0.076375
C119	C	-0.006752	0.462740	-0.076371
C120	C	-0.006792	0.462699	0.076880
C121	C	-0.051037	0.462700	0.076873
C122	C	-0.073149	0.462711	0.038559
C123	C	0.398707	0.462704	0.000283
C124	C	0.351620	0.462715	0.000291
C125	C	-0.462523	0.462691	0.139008
C126	C	-0.462520	0.462682	0.186095
C127	C	-0.462493	0.601526	0.000333
C128	C	-0.462480	0.648636	0.000355
C129	C	-0.489646	0.408504	0.495285
C130	C	-0.489641	0.408487	0.318286
O131	O	-0.512716	0.362384	0.272343
N132	N	-0.462527	0.462694	0.323267
C133	C	-0.435415	0.516908	0.372502
O134	O	-0.412357	0.563014	0.372677
C135	C	-0.435423	0.516925	0.549500
C136	C	-0.462535	0.462714	0.544515
C137	C	-0.516756	0.354298	0.490303
C138	C	-0.516755	0.354303	0.534550
C139	C	-0.489643	0.408513	0.583780
C140	C	-0.462533	0.462719	0.588762
C141	C	-0.408314	0.571139	0.598734
C142	C	-0.408320	0.571138	0.642983
C143	C	-0.435432	0.516928	0.637999
C144	C	-0.435421	0.516934	0.682239
N145	N	-0.462535	0.462728	0.677259
C146	C	-0.489646	0.408517	0.628029
C147	C	-0.435412	0.516896	0.279574
C148	C	-0.435409	0.516892	0.235325
C149	C	-0.489636	0.408471	0.181112
C150	C	-0.489636	0.408475	0.225362
C151	C	-0.462526	0.462689	0.274593
C152	C	-0.489641	0.408531	0.720953
C153	C	-0.489635	0.408541	0.765207
C154	C	-0.435411	0.516962	0.819416
C155	C	-0.435414	0.516953	0.775166
C156	C	-0.462533	0.462732	0.725934
O157	O	-0.412363	0.563013	0.728198
O158	O	-0.512710	0.362418	0.627865
C159	C	-0.489647	0.408499	0.451038
C160	C	-0.462538	0.462705	0.456020
C161	C	-0.435426	0.516915	0.505250
C162	C	-0.462535	0.462701	0.411771
C163	C	-0.489646	0.408490	0.362541
C164	C	-0.516760	0.354284	0.357561
C165	C	-0.516759	0.354288	0.401808
C166	C	-0.408312	0.571122	0.510231
C167	C	-0.408315	0.571113	0.465981
C168	C	-0.435427	0.516902	0.416752
C169	C	-0.462534	0.462747	0.861527
C170	C	-0.462524	0.462751	0.814437
C171	C	-0.601334	0.323892	0.000217
C172	C	-0.648443	0.276775	0.000200
C173	C	-0.462577	0.323943	-0.138538
C174	C	-0.462592	0.276843	-0.185647
C175	C	-0.601342	0.323921	-0.138523
C176	C	-0.648453	0.276814	-0.185627
C177	C	-0.323720	0.601519	0.139058
C178	C	-0.276609	0.648626	0.186163
C179	C	-0.323728	0.601548	0.000318
C180	C	-0.276619	0.648665	0.000335
C181	C	-0.462485	0.601498	0.139073
C182	C	-0.462470	0.648597	0.186183
C183	C	-0.643467	0.254647	0.027286
C184	C	-0.687726	0.210382	0.027280
C185	C	-0.736961	0.188243	0.000185
C186	C	-0.741935	0.210375	-0.026901
C187	C	-0.697676	0.254643	-0.026892
C188	C	-0.489697	0.254726	-0.234864
C189	C	-0.489710	0.210477	-0.279132
C190	C	-0.462620	0.188343	-0.274183
C191	C	-0.435511	0.210464	-0.224961
C192	C	-0.435496	0.254715	-0.180694
C193	C	-0.697677	0.254682	-0.180653
C194	C	-0.741947	0.210426	-0.224908
C195	C	-0.736992	0.188300	-0.274137
C196	C	-0.687763	0.210436	-0.279110
C197	C	-0.643494	0.254694	-0.234855
C198	C	-0.227385	0.670764	0.181189
C199	C	-0.183115	0.715033	0.225444
C200	C	-0.188069	0.737162	0.274673
C201	C	-0.237298	0.715023	0.279646
C202	C	-0.281568	0.670757	0.235391
C203	C	-0.281595	0.670797	-0.026746
C204	C	-0.237336	0.715075	-0.026728
C205	C	-0.188101	0.737216	0.000368
C206	C	-0.183127	0.715081	0.027453
C207	C	-0.227386	0.670808	0.027437
C208	C	-0.489565	0.670717	0.181217
C209	C	-0.489561	0.714967	0.225477
C210	C	-0.462458	0.737098	0.274702
C211	C	-0.435361	0.714974	0.279667
C212	C	-0.435369	0.670722	0.235407
H213	H	-0.511642	-0.347260	0.049510
H214	H	-0.143034	0.733115	0.049513
C215	C	-0.405555	0.646399	0.240875
C216	C	-0.375741	0.670752	0.295024
C217	C	-0.345925	0.646432	0.300496
C218	C	-0.345924	0.597760	0.251819
C219	C	-0.375740	0.573404	0.197666
C220	C	-0.405555	0.597724	0.192194
H221	H	-0.375740	0.706784	0.331061
H222	H	-0.323853	0.664461	0.340584
H223	H	-0.323852	0.579756	0.255870
H224	H	-0.375740	0.537372	0.161630
H225	H	-0.427627	0.579695	0.152107
H226	H	-0.511636	0.652705	0.141139
H227	H	-0.413313	-0.347244	-0.048801
H228	H	-0.603416	0.272708	-0.238913
H229	H	-0.538836	0.310151	0.450220
H230	H	-0.413418	0.272706	-0.048975
H231	H	-0.773043	0.152262	-0.310168
H232	H	-0.462455	0.773131	0.310737
H233	H	-0.683666	0.192367	0.049337
C234	C	-0.378490	0.630749	0.471469
C235	C	-0.334525	0.645675	0.448513
C236	C	-0.304706	0.705309	0.454002
C237	C	-0.318852	0.750017	0.482446
C238	C	-0.362819	0.735092	0.505405
C239	C	-0.392638	0.675459	0.499916
H240	H	-0.324052	0.612578	0.427455
H241	H	-0.272159	0.716356	0.437007
H242	H	-0.296778	0.794161	0.486509
H243	H	-0.373292	0.768189	0.526463
H244	H	-0.425186	0.664411	0.516911
C245	C	-0.221907	0.646457	0.057221
C246	C	-0.167748	0.670811	0.087019
C247	C	-0.162266	0.646462	0.116804
C248	C	-0.210942	0.597760	0.116790
C249	C	-0.265104	0.573403	0.086991
C250	C	-0.270587	0.597752	0.057207
H251	H	-0.131712	0.706866	0.087030
H252	H	-0.122171	0.664493	0.138863
H253	H	-0.206883	0.579735	0.138839
H254	H	-0.301140	0.537348	0.086980
H255	H	-0.310682	0.579721	0.035147
C256	C	-0.519364	0.739302	0.220008
C257	C	-0.549166	0.714964	0.165859
C258	C	-0.578968	0.739299	0.160389
C259	C	-0.578967	0.787972	0.209066
C260	C	-0.549163	0.812313	0.263218
C261	C	-0.519362	0.787979	0.268689
H262	H	-0.549168	0.678930	0.129822
H263	H	-0.601030	0.721279	0.120301
H264	H	-0.601028	0.805986	0.205017
H265	H	-0.549162	0.848347	0.299256
H266	H	-0.497299	0.805998	0.308776
C267	C	-0.519462	0.348844	0.219877
C268	C	-0.563429	0.333924	0.242831
C269	C	-0.593257	0.274290	0.237343
C270	C	-0.579117	0.229576	0.208900
C271	C	-0.535148	0.244494	0.185944
C272	C	-0.505320	0.304128	0.191433
H273	H	-0.573898	0.367026	0.263888
H274	H	-0.625806	0.263247	0.254336
H275	H	-0.601198	0.185431	0.204837
H276	H	-0.524679	0.211393	0.164887
H277	H	-0.472771	0.315172	0.174439
H278	H	-0.782028	0.192343	-0.048960
H279	H	-0.321680	0.652774	-0.048814
C280	C	-0.128968	0.739375	0.219965
C281	C	-0.091072	0.806317	0.242939
C282	C	-0.036927	0.830656	0.237459
C283	C	-0.020678	0.788053	0.209004
C284	C	-0.058574	0.721107	0.186029
C285	C	-0.112719	0.696768	0.191509
H286	H	-0.103100	0.837857	0.264004
H287	H	-0.008874	0.880213	0.254467
H288	H	0.019404	0.806070	0.204948
H289	H	-0.046546	0.689567	0.164964
H290	H	-0.140773	0.647211	0.174501
H291	H	-0.152019	0.773206	0.310703
C292	C	0.150323	0.462745	-0.118508
C293	C	0.118405	0.411109	-0.175945
C294	C	0.142740	0.411111	-0.218097
C295	C	0.198993	0.462748	-0.202812
C296	C	0.230914	0.514387	-0.145372
C297	C	0.206579	0.514386	-0.103219
H298	H	0.076760	0.372881	-0.187263
H299	H	0.119110	0.372883	-0.260619
H300	H	0.217007	0.462749	-0.234016
H301	H	0.272559	0.552615	-0.134054
H302	H	0.230209	0.552613	-0.060698
C303	C	-0.405716	0.186110	-0.219520
C304	C	-0.346842	0.228702	-0.191077
C305	C	-0.317051	0.204344	-0.185637
C306	C	-0.346134	0.137394	-0.208640
C307	C	-0.405011	0.094799	-0.237085
C308	C	-0.434802	0.119157	-0.242526
H309	H	-0.325311	0.278266	-0.174047
H310	H	-0.273466	0.235876	-0.164580
H311	H	-0.324081	0.119363	-0.204613
H312	H	-0.426543	0.045235	-0.254116
H313	H	-0.478387	0.087624	-0.263583
C314	C	-0.242815	0.739412	-0.056527
C315	C	-0.219850	0.733342	-0.100481
C316	C	-0.225331	0.757676	-0.130281
C317	C	-0.253776	0.788081	-0.116126
C318	C	-0.276743	0.794153	-0.072169
C319	C	-0.271262	0.769818	-0.042370
H320	H	-0.198792	0.710833	-0.110962
H321	H	-0.208329	0.753182	-0.162821
H322	H	-0.257833	0.806095	-0.138185
H323	H	-0.297801	0.816662	-0.061689
H324	H	-0.288264	0.774313	-0.009830
C325	C	-0.242742	0.739366	0.333800
C326	C	-0.219759	0.733280	0.371656
C327	C	-0.225200	0.757622	0.425812
C328	C	-0.253624	0.788051	0.442113
C329	C	-0.276610	0.794138	0.404256
C330	C	-0.271168	0.769796	0.350100
H331	H	-0.198716	0.710754	0.359590
H332	H	-0.208185	0.753115	0.453836
H333	H	-0.257652	0.806070	0.482202
H334	H	-0.297653	0.816665	0.416322
H335	H	-0.288184	0.774303	0.322076
C336	C	-0.519488	0.279007	0.057079
C337	C	-0.549292	0.254665	0.086882
C338	C	-0.579110	0.278983	0.116678
C339	C	-0.579124	0.327643	0.116672
C340	C	-0.549318	0.351988	0.086867
C341	C	-0.519500	0.327670	0.057071
H342	H	-0.549283	0.218641	0.086888
H343	H	-0.601174	0.260961	0.138741
H344	H	-0.601197	0.345644	0.138729
H345	H	-0.549327	0.388011	0.086861
H346	H	-0.497436	0.345692	0.035008
H347	H	-0.511737	0.192434	0.049357
C348	C	-0.405548	0.739326	0.333818
C349	C	-0.419702	0.696733	0.350083
C350	C	-0.389886	0.721089	0.404236
C351	C	-0.345916	0.788039	0.442123
C352	C	-0.331760	0.830636	0.425859
C353	C	-0.361576	0.806279	0.371707
H354	H	-0.452252	0.647169	0.322036
H355	H	-0.400365	0.689556	0.416275
H356	H	-0.323845	0.806069	0.482210
H357	H	-0.299209	0.880199	0.453907
H358	H	-0.351097	0.837813	0.359667
H359	H	-0.603382	0.272673	0.049356
C360	C	-0.405684	0.279035	-0.126556
C361	C	-0.405663	0.327707	-0.077857
C362	C	-0.375849	0.352024	-0.023720
C363	C	-0.346057	0.327669	-0.018282
C364	C	-0.346077	0.278994	-0.066983
C365	C	-0.375890	0.254677	-0.121120
H366	H	-0.427718	0.345739	-0.081881
H367	H	-0.375835	0.388056	0.012332
H368	H	-0.323987	0.345669	0.021793
H369	H	-0.324021	0.260962	-0.062960
H370	H	-0.375905	0.218645	-0.157172
H371	H	-0.413330	-0.267005	-0.048834
C372	C	0.353852	0.462737	-0.080171
C373	C	0.410105	0.514380	-0.064878
C374	C	0.434447	0.514389	-0.107024
C375	C	0.402537	0.462756	-0.164464
C376	C	0.346281	0.411110	-0.179760
C377	C	0.321938	0.411100	-0.137613
H378	H	0.433730	0.552605	-0.022355
H379	H	0.476092	0.552621	-0.095701
H380	H	0.420557	0.462763	-0.195663
H381	H	0.322656	0.372884	-0.222282
H382	H	0.280294	0.372868	-0.148937
C383	C	-0.703136	0.279019	-0.126505
C384	C	-0.654449	0.327703	-0.077819
C385	C	-0.659914	0.352040	-0.023673
C386	C	-0.714065	0.327692	-0.018212
C387	C	-0.762755	0.279006	-0.066900
C388	C	-0.757291	0.254669	-0.121046
H389	H	-0.614360	0.345728	-0.081860
H390	H	-0.623869	0.388081	0.012369
H391	H	-0.718110	0.345708	0.021870
H392	H	-0.802844	0.260980	-0.062859
H393	H	-0.793335	0.218628	-0.157088
H394	H	-0.782027	0.192407	-0.220850
C395	C	-0.785643	0.139544	0.000174
C396	C	-0.780163	0.115203	0.029966
C397	C	-0.828843	0.066502	0.029955
C398	C	-0.883003	0.042142	0.000152
C399	C	-0.888484	0.066482	-0.029643
C400	C	-0.839804	0.115183	-0.029631
H401	H	-0.740069	0.133237	0.052030
H402	H	-0.824785	0.048484	0.052011
H403	H	-0.919038	0.006090	0.000143
H404	H	-0.928578	0.048449	-0.051707
H405	H	-0.843863	0.133201	-0.051687
H406	H	-0.511656	-0.267000	0.049491
C407	C	-0.519497	0.279070	-0.240317
C408	C	-0.549305	0.254738	-0.294460
C409	C	-0.579103	0.279081	-0.299918
C410	C	-0.579093	0.327757	-0.251234
C411	C	-0.549284	0.352091	-0.197087
C412	C	-0.519486	0.327748	-0.191628
H413	H	-0.549313	0.218703	-0.330503
H414	H	-0.601169	0.261067	-0.340002
H415	H	-0.601151	0.345777	-0.255274
H416	H	-0.549275	0.388126	-0.161044
H417	H	-0.497419	0.345762	-0.151545
C418	C	-0.139419	0.785913	0.000378
C419	C	-0.144899	0.810251	-0.029417
C420	C	-0.096219	0.858946	-0.029412
C421	C	-0.042059	0.883303	0.000388
C422	C	-0.036578	0.858966	0.030185
C423	C	-0.085257	0.810271	0.030180
H424	H	-0.184992	0.792220	-0.051479
H425	H	-0.100277	0.876962	-0.051470
H426	H	-0.006024	0.919350	0.000392
H427	H	0.003516	0.876996	0.052247
H428	H	-0.081199	0.792254	0.052238
C429	C	-0.378492	0.630773	0.604228
C430	C	-0.392639	0.675480	0.632674
C431	C	-0.362814	0.735120	0.638172
C432	C	-0.318843	0.750052	0.615225
C433	C	-0.304695	0.705344	0.586776
C434	C	-0.334519	0.645705	0.581278
H435	H	-0.425191	0.664428	0.649663
H436	H	-0.373289	0.768216	0.659232
H437	H	-0.296766	0.794201	0.619295
H438	H	-0.272143	0.716397	0.569787
H439	H	-0.324045	0.612609	0.560219
H440	H	-0.386255	-0.143756	-0.075962
H441	H	-0.683737	0.192414	-0.319198
C442	C	-0.378558	0.075517	-0.083770
C443	C	-0.392719	0.032904	-0.142634
C444	C	-0.362922	0.057241	-0.172445
C445	C	-0.318963	0.124192	-0.143392
C446	C	-0.304799	0.166808	-0.084525
C447	C	-0.334597	0.142471	-0.054714
H448	H	-0.425262	-0.016660	-0.164143
H449	H	-0.373407	0.025693	-0.216023
H450	H	-0.296905	0.142207	-0.165461
H451	H	-0.272256	0.216373	-0.063016
H452	H	-0.324112	0.174019	-0.011136
C453	C	-0.378525	-0.057192	-0.083728
C454	C	-0.392680	-0.099810	-0.142590
C455	C	-0.362866	-0.075482	-0.172400
C456	C	-0.318896	-0.008536	-0.143347
C457	C	-0.304738	0.034086	-0.084481
C458	C	-0.334553	0.009758	-0.054672
H459	H	-0.425231	-0.149372	-0.164099
H460	H	-0.373346	-0.107034	-0.215976
H461	H	-0.296825	0.009474	-0.165414
H462	H	-0.272187	0.083648	-0.062972
H463	H	-0.324072	0.041310	-0.011096
H464	H	-0.413400	0.192448	-0.048955
H465	H	-0.413336	0.561099	0.859506
H466	H	-0.538803	-0.011072	0.076495
H467	H	-0.538805	-0.063547	0.076508
H468	H	-0.386280	-0.011054	-0.076002
C469	C	-0.546534	-0.150121	0.084269
C470	C	-0.532376	-0.107504	0.143132
C471	C	-0.562182	-0.131836	0.172943
C472	C	-0.606147	-0.198784	0.143892
C473	C	-0.620307	-0.241404	0.085025
C474	C	-0.590501	-0.217073	0.055214
H475	H	-0.499829	-0.057941	0.164641
H476	H	-0.551700	-0.100285	0.216520
H477	H	-0.628211	-0.216795	0.165960
H478	H	-0.652854	-0.290967	0.063517
H479	H	-0.600983	-0.248624	0.011637
C480	C	-0.519536	0.186145	-0.333271
C481	C	-0.578406	0.155709	-0.349538
C482	C	-0.608232	0.131379	-0.403675
C483	C	-0.579188	0.137486	-0.441546
C484	C	-0.520315	0.167924	-0.425279
C485	C	-0.490489	0.192254	-0.371142
H486	H	-0.599909	0.151187	-0.321504
H487	H	-0.651814	0.108847	-0.415717
H488	H	-0.601267	0.119476	-0.481621
H489	H	-0.498812	0.172446	-0.453314
H490	H	-0.446907	0.214786	-0.359101
H491	H	-0.223341	0.652749	0.141108
H492	H	-0.538816	0.069174	0.076475
H493	H	0.267258	0.462729	-0.069239
H494	H	0.063737	0.462747	-0.107565
C495	C	-0.185949	0.462763	-0.080212
C496	C	-0.217865	0.411132	-0.137651
C497	C	-0.193527	0.411138	-0.179801
C498	C	-0.137273	0.462775	-0.164512
C499	C	-0.105354	0.514410	-0.107070
C500	C	-0.129691	0.514404	-0.064920
H501	H	-0.259511	0.372903	-0.148971
H502	H	-0.217157	0.372914	-0.222323
H503	H	-0.119257	0.462780	-0.195714
H504	H	-0.063708	0.552639	-0.095750
H505	H	-0.106062	0.552628	-0.022398
H506	H	-0.272548	0.462767	-0.069265
H507	H	0.011208	0.462689	0.108079
H508	H	-0.272570	0.462737	0.069764
C509	C	0.057353	0.462668	0.119029
C510	C	0.037633	0.411035	0.124821
C511	C	0.013289	0.411014	0.166964
C512	C	0.008665	0.462626	0.203315
C513	C	0.028387	0.514263	0.197525
C514	C	0.052730	0.514284	0.155381
H515	H	0.041055	0.372825	0.097910
H516	H	-0.001310	0.372788	0.171250
H517	H	-0.009355	0.462610	0.234512
H518	H	0.024965	0.552473	0.224435
H519	H	0.067329	0.552510	0.151095
H520	H	-0.321646	0.652733	0.239447
H521	H	-0.538836	0.310145	0.397743
H522	H	-0.192315	0.462719	0.069764
H523	H	0.267221	0.462704	0.069800
C524	C	0.353808	0.462689	0.080748
C525	C	0.358561	0.411153	0.065435
C526	C	0.382886	0.411132	0.107576
C527	C	0.402457	0.462647	0.165030
C528	C	0.397705	0.514187	0.180346
C529	C	0.373380	0.514208	0.138205
H530	H	0.344073	0.373015	0.022902
H531	H	0.386404	0.372979	0.096238
H532	H	0.420463	0.462632	0.196226
H533	H	0.412193	0.552325	0.222879
H534	H	0.369862	0.552362	0.149543
H535	H	-0.386244	0.615287	0.683069
C536	C	0.017589	0.462748	-0.118519
C537	C	-0.014327	0.411116	-0.175957
C538	C	0.010009	0.411122	-0.218108
C539	C	0.066262	0.462762	-0.202819
C540	C	0.098181	0.514399	-0.145378
C541	C	0.073844	0.514392	-0.103228
H542	H	-0.055972	0.372885	-0.187277
H543	H	-0.013620	0.372897	-0.260629
H544	H	0.084277	0.462767	-0.234022
H545	H	0.139825	0.552629	-0.134058
H546	H	0.097473	0.552617	-0.060706
H547	H	0.143942	0.462666	0.108084
H548	H	-0.069006	0.462752	-0.107571
C549	C	-0.075381	0.462686	0.119020
C550	C	-0.095109	0.411050	0.124809
C551	C	-0.119454	0.411030	0.166952
C552	C	-0.124072	0.462646	0.203305
C553	C	-0.104344	0.514286	0.197517
C554	C	-0.079998	0.514306	0.155375
H555	H	-0.091691	0.372837	0.097897
H556	H	-0.134058	0.372802	0.171236
H557	H	-0.142094	0.462631	0.234501
H558	H	-0.107762	0.552499	0.224429
H559	H	-0.065394	0.552534	0.151091
H560	H	-0.511712	0.364394	0.761142
C561	C	-0.519468	0.348889	0.666802
C562	C	-0.563436	0.333957	0.628917
C563	C	-0.593259	0.274316	0.574766
C564	C	-0.579115	0.229608	0.558500
C565	C	-0.535144	0.244540	0.596386
C566	C	-0.505321	0.304180	0.650537
H567	H	-0.573909	0.367053	0.640957
H568	H	-0.625809	0.263262	0.546721
H569	H	-0.601192	0.185458	0.518415
H570	H	-0.524672	0.211443	0.584346
H571	H	-0.472771	0.315234	0.678582
C572	C	-0.405591	0.576582	0.780644
C573	C	-0.419733	0.621294	0.809088
C574	C	-0.389915	0.680923	0.814569
C575	C	-0.345955	0.695841	0.791606
C576	C	-0.331811	0.651128	0.763159
C577	C	-0.361629	0.591498	0.757678
H578	H	-0.452276	0.610252	0.826089
H579	H	-0.400386	0.714022	0.835627
H580	H	-0.323882	0.739982	0.795663
H581	H	-0.299267	0.662170	0.746159
H582	H	-0.351158	0.558399	0.736621
C583	C	-0.462643	0.139662	-0.322881
C584	C	-0.492463	0.115335	-0.377017
C585	C	-0.492490	0.066654	-0.425716
C586	C	-0.462695	0.042300	-0.420280
C587	C	-0.432872	0.066627	-0.366142
C588	C	-0.432846	0.115309	-0.317442
H589	H	-0.514521	0.133363	-0.381043
H590	H	-0.514567	0.048645	-0.465793
H591	H	-0.462715	0.006263	-0.456331
H592	H	-0.410815	0.048599	-0.362116
H593	H	-0.410769	0.133317	-0.277366
H594	H	-0.413325	0.561036	0.239390
H595	H	-0.538834	0.310159	0.530484
H596	H	-0.511710	0.364330	0.141021
H597	H	-0.413335	0.561047	0.319658
H598	H	-0.538833	0.310143	0.317469
H599	H	-0.701735	0.272653	-0.048951
H600	H	-0.386235	0.615268	0.550313
