data_functionalizedCrystal
_audit_creation_method	'MofGen! by Chris Wilmer'
_symmetry_space_group_name_H-M	'P1'
_symmetry_Int_Tables_number	1
_symmetry_cell_setting	triclinic
loop_
_symmetry_equiv_pos_as_xyz
  x,y,z
_cell_length_a	14.519709
_cell_length_b	9.065215
_cell_length_c	12.996460
_cell_angle_alpha	90.005021
_cell_angle_beta	90.000052
_cell_angle_gamma	95.652579
loop_
_atom_site_label
_atom_site_type_symbol
_atom_site_fract_x
_atom_site_fract_y
_atom_site_fract_z
O1	O	-0.135216	1.957872	0.085539
O2	O	-0.146310	1.528379	0.085542
O3	O	-0.006608	1.754513	0.085550
O4	O	-0.274918	1.731738	0.085531
O5	O	-0.006600	1.754489	-0.085584
O6	O	-0.146302	1.528355	-0.085592
O7	O	-0.135208	1.957848	-0.085595
Cu8	Cu	-0.140754	1.743100	-0.101219
Cu9	Cu	-0.140764	1.743127	0.101166
O10	O	-0.274910	1.731714	-0.085603
C11	C	-0.145241	1.473400	-0.000024
C12	C	-0.142054	1.309617	-0.000022
C13	C	-0.309282	1.732788	-0.000038
C14	C	-0.411686	1.735968	-0.000045
C15	C	-0.786668	1.747677	-0.000004
C16	C	-0.682336	1.744426	-0.000016
C17	C	-0.599180	1.741823	-0.000026
C18	C	-0.494842	1.738571	-0.000035
C19	C	0.027764	1.753439	-0.000013
C20	C	0.130168	1.750259	0.000001
C21	C	-0.136277	2.012827	-0.000027
C22	C	-0.139464	2.176610	-0.000022
N23	N	-0.140747	1.743091	-0.243566
C24	C	-0.140765	1.743125	-0.663381
C25	C	-0.140763	1.743111	-0.546576
C26	C	-0.140757	1.743109	-0.453477
C27	C	-0.140753	1.743093	-0.336665
N28	N	-0.140764	1.743148	0.243513
