data_functionalizedCrystal
_audit_creation_method	'MofGen! by Chris Wilmer'
_symmetry_space_group_name_H-M	'P1'
_symmetry_Int_Tables_number	1
_symmetry_cell_setting	triclinic
loop_
_symmetry_equiv_pos_as_xyz
  x,y,z
_cell_length_a	16.992701
_cell_length_b	27.731996
_cell_length_c	15.455313
_cell_angle_alpha	92.636264
_cell_angle_beta	87.136501
_cell_angle_gamma	86.644279
loop_
_atom_site_label
_atom_site_type_symbol
_atom_site_fract_x
_atom_site_fract_y
_atom_site_fract_z
O1	O	1.042582	0.100459	-0.072156
O2	O	1.542582	0.600459	0.427844
O3	O	0.814310	0.099336	-0.072156
O4	O	1.314310	0.599336	0.427844
O5	O	0.935556	0.029807	-0.072137
O6	O	1.435556	0.529807	0.427863
O7	O	0.921336	0.169988	-0.072175
O8	O	1.421336	0.669988	0.427825
O9	O	0.928623	0.033766	0.072124
O10	O	1.428623	0.533766	0.572124
O11	O	0.807377	0.103295	0.072105
O12	O	1.307377	0.603295	0.572105
O13	O	1.035649	0.104418	0.072105
O14	O	1.535649	0.604418	0.572105
Cu15	Cu	0.920880	0.104218	0.085277
Cu16	Cu	1.420880	0.604218	0.585277
Cu17	Cu	0.929079	0.099536	-0.085328
Cu18	Cu	1.429079	0.599536	0.414672
O19	O	0.914403	0.173947	0.072086
O20	O	1.414403	0.673947	0.572086
C21	C	0.781649	0.099870	-0.000025
C22	C	1.281649	0.599870	0.499975
C23	C	0.694659	0.095557	-0.000024
C24	C	1.194659	0.595557	0.499976
C25	C	0.206059	0.066574	-0.000020
C26	C	0.706059	0.566574	0.499980
C27	C	0.287794	0.070631	-0.000016
C28	C	0.787794	0.570631	0.499984
C29	C	0.318771	0.116311	-0.000032
C30	C	0.818771	0.616311	0.499968
C31	C	0.268007	0.157938	-0.000043
C32	C	0.768007	0.657938	0.499957
C33	C	0.186272	0.153880	-0.000041
C34	C	0.686272	0.653880	0.499959
C35	C	0.562159	0.133126	-0.000034
C36	C	1.062159	0.633126	0.499966
C37	C	0.643901	0.137180	-0.000039
C38	C	1.143901	0.637180	0.499961
C39	C	0.663683	0.049873	-0.000009
C40	C	1.163683	0.549873	0.499991
C41	C	0.581946	0.045820	-0.000013
C42	C	1.081946	0.545820	0.499987
C43	C	0.531189	0.087446	-0.000019
C44	C	1.031189	0.587446	0.499981
N45	N	0.402318	0.120459	-0.000030
N46	N	0.902318	0.620459	0.499970
N47	N	0.447643	0.083298	-0.000015
N48	N	0.947643	0.583298	0.499985
C49	C	0.931797	0.013766	-0.000004
C50	C	1.431797	0.513766	0.499996
C51	C	0.930917	-0.039928	0.000005
C52	C	1.430917	0.460072	0.500005
C53	C	0.929162	-0.375042	-0.078674
C54	C	1.429162	0.124958	0.421326
C55	C	0.925821	-0.576845	-0.078689
C56	C	1.425821	-0.076845	0.421311
O57	O	0.928569	-0.604771	-0.145567
O58	O	1.428569	-0.104771	0.354433
N59	N	0.921627	-0.599923	-0.000053
N60	N	1.421627	-0.099923	0.499947
C61	C	0.918262	-0.572546	0.078592
C62	C	1.418262	-0.072546	0.578592
O63	O	0.914610	-0.596804	0.145476
O64	O	1.414610	-0.096804	0.645476
C65	C	0.921597	-0.370743	0.078606
C66	C	1.421597	0.129257	0.578606
C67	C	0.925800	-0.347669	-0.000035
C68	C	1.425800	0.152331	0.499965
C69	C	0.933363	-0.351968	-0.157309
C70	C	1.433363	0.148032	0.342691
C71	C	0.934202	-0.301520	-0.157304
C72	C	1.434202	0.198480	0.342696
C73	C	0.930841	-0.274147	-0.078665
C74	C	1.430841	0.225853	0.421335
C75	C	0.926639	-0.297221	-0.000030
C76	C	1.426639	0.202779	0.499970
C77	C	0.918227	-0.343367	0.157251
C78	C	1.418227	0.156633	0.657251
C79	C	0.919060	-0.292913	0.157247
C80	C	1.419060	0.207087	0.657247
C81	C	0.923262	-0.269839	0.078606
C82	C	1.423262	0.230161	0.578606
C83	C	0.924117	-0.219401	0.078614
C84	C	1.424117	0.280599	0.578614
N85	N	0.928311	-0.196323	-0.000022
N86	N	1.428311	0.303677	0.499978
C87	C	0.931673	-0.223697	-0.078661
C88	C	1.431673	0.276303	0.421339
C89	C	0.916513	-0.678495	0.078579
C90	C	1.416513	-0.178495	0.578579
C91	C	0.915681	-0.728945	0.078576
C92	C	1.415681	-0.228945	0.578576
C93	C	0.923238	-0.733242	-0.078706
C94	C	1.423238	-0.233242	0.421294
C95	C	0.924076	-0.682790	-0.078702
C96	C	1.424076	-0.182790	0.421298
C97	C	0.920707	-0.655418	-0.000057
C98	C	1.420707	-0.155418	0.499943
C99	C	0.933436	-0.117753	-0.078646
C100	C	1.433436	0.382247	0.421354
C101	C	0.934279	-0.067301	-0.078634
C102	C	1.434279	0.432699	0.421366
C103	C	0.926717	-0.063009	0.078647
C104	C	1.426717	0.436991	0.578647
C105	C	0.925879	-0.113457	0.078636
C106	C	1.425879	0.386543	0.578636
C107	C	0.929236	-0.140828	-0.000018
C108	C	1.429236	0.359172	0.499982
O109	O	0.921362	-0.191444	0.145457
O110	O	1.421362	0.308556	0.645457
O111	O	0.935307	-0.199428	-0.145536
O112	O	1.435307	0.300572	0.354464
C113	C	0.928322	-0.425490	-0.078679
C114	C	1.428322	0.074510	0.421321
C115	C	0.924121	-0.448564	-0.000044
C116	C	1.424121	0.051436	0.499956
C117	C	0.920759	-0.421191	0.078595
C118	C	1.420759	0.078809	0.578595
C119	C	0.923289	-0.499015	-0.000047
C120	C	1.423289	0.000985	0.499953
C121	C	0.926651	-0.526388	-0.078687
C122	C	1.426651	-0.026388	0.421313
C123	C	0.930845	-0.503310	-0.157323
C124	C	1.430845	-0.003310	0.342677
C125	C	0.931684	-0.452863	-0.157318
C126	C	1.431684	0.047137	0.342682
C127	C	0.916565	-0.444268	0.157231
C128	C	1.416565	0.055732	0.657231
C129	C	0.915727	-0.494716	0.157220
C130	C	1.415727	0.005284	0.657220
C131	C	0.919089	-0.522089	0.078581
C132	C	1.419089	-0.022089	0.578581
C133	C	1.068310	0.103884	-0.000028
C134	C	1.568310	0.603884	0.499972
C135	C	1.155301	0.108197	-0.000034
C136	C	1.655301	0.608197	0.499966
C137	C	0.918162	0.189988	-0.000049
C138	C	1.418162	0.689988	0.499951
C139	C	0.919043	0.243681	-0.000064
C140	C	1.419043	0.743681	0.499936
N141	N	0.915119	0.107510	0.205272
N142	N	1.415119	0.607510	0.705272
N143	N	0.934847	0.096240	-0.205323
N144	N	1.434847	0.596240	0.294677
C145	C	0.966646	0.077984	0.250674
C146	C	1.466646	0.577984	0.750674
C147	C	0.962296	0.080479	0.341481
C148	C	1.462296	0.580479	0.841481
C149	C	0.906422	0.112503	0.386885
C150	C	1.406422	0.612503	0.886885
C151	C	0.854890	0.142030	0.341476
C152	C	1.354890	0.642030	0.841476
C153	C	0.859236	0.139533	0.250671
C154	C	1.359236	0.639533	0.750671
C155	C	0.887661	0.123270	0.658463
C156	C	1.387661	0.623270	1.158463
C157	C	0.883319	0.125766	0.749275
C158	C	1.383319	0.625766	1.249275
C159	C	0.990725	0.064214	0.749274
C160	C	1.490725	0.564214	1.249274
C161	C	0.995070	0.061722	0.658467
C162	C	1.495070	0.561722	1.158467
C163	C	0.943535	0.091247	0.613066
C164	C	1.443535	0.591247	1.113066
N165	N	0.901976	0.115055	0.479704
N166	N	1.401976	0.615055	0.979704
N167	N	0.947978	0.088693	0.520248
N168	N	1.447978	0.588693	1.020248
H169	H	0.705018	0.015983	-0.000003
H170	H	1.205018	0.515983	0.499997
N171	N	0.550311	-0.000843	0.000034
N172	N	1.050311	0.499157	0.500034
N173	N	0.503993	-0.011174	0.060856
N174	N	1.003993	0.488826	0.560856
H175	H	0.481652	-0.044130	0.060891
H176	H	0.981652	0.455870	0.560891
N177	N	1.014904	0.050296	0.387849
N178	N	1.514904	0.550296	0.887849
N179	N	0.987961	0.020723	0.438507
N180	N	1.487961	0.520723	0.938507
H181	H	1.025109	-0.000605	0.471247
H182	H	1.525109	0.499395	0.971247
H183	H	0.669117	0.174380	-0.000039
H184	H	1.169117	0.674380	0.499961
H185	H	0.845700	0.147312	0.621505
H186	H	1.345700	0.647312	1.121505
H187	H	0.520842	0.167021	-0.000044
H188	H	1.020842	0.667021	0.499956
H189	H	0.809392	0.168103	0.378449
H190	H	1.309392	0.668103	0.878449
H191	H	0.817277	0.163575	0.213705
H192	H	1.317277	0.663575	0.713705
N193	N	0.299633	0.204603	-0.000066
N194	N	0.799633	0.704603	0.499934
N195	N	0.254302	0.241763	-0.000079
N196	N	0.754302	0.741763	0.499921
H197	H	0.276635	0.274722	-0.000096
H198	H	0.776635	0.774722	0.499904
H199	H	0.144945	0.187775	-0.000050
H200	H	0.644945	0.687775	0.499950
N201	N	0.921599	-0.137036	0.158958
N202	N	1.421599	0.362964	0.658958
N203	N	0.975547	-0.167036	0.176508
N204	N	1.475547	0.332964	0.676508
H205	H	0.972518	-0.183686	0.233237
H206	H	1.472518	0.316314	0.733237
H207	H	0.837818	0.151846	0.786238
H208	H	1.337818	0.651846	1.286238
H209	H	0.916305	-0.270628	0.221291
H210	H	1.416305	0.229372	0.721291
N211	N	0.923291	-0.035036	0.158964
N212	N	1.423291	0.464964	0.658964
N213	N	0.924039	0.010008	0.158946
N214	N	1.424039	0.510008	0.658946
H215	H	0.921616	0.029766	0.215670
H216	H	1.421616	0.529766	0.715670
N217	N	0.938578	-0.043740	-0.158976
N218	N	1.438578	0.456260	0.341024
N219	N	0.941579	-0.068190	-0.229182
N220	N	1.441579	0.431810	0.270818
H221	H	0.944615	-0.051552	-0.285922
H222	H	1.444615	0.448448	0.214078
N223	N	1.023687	0.045263	0.204271
N224	N	1.523687	0.545263	0.704271
N225	N	1.001581	0.012922	0.153625
N226	N	1.501581	0.512922	0.653625
H227	H	1.041857	-0.010191	0.120843
H228	H	1.541857	0.489809	0.620843
H229	H	0.933586	-0.525607	-0.221354
H230	H	1.433586	-0.025607	0.278646
N231	N	1.043358	0.034046	0.795637
N232	N	1.543358	0.534046	1.295637
N233	N	1.093238	0.005453	0.755087
N234	N	1.593238	0.505453	1.255087
H235	H	1.130411	-0.015857	0.787829
H236	H	1.630411	0.484143	1.287829
H237	H	0.927497	-0.664007	-0.142738
H238	H	1.427497	-0.164007	0.357262
H239	H	0.180845	0.029376	-0.000012
H240	H	0.680845	0.529376	0.499988
N241	N	0.936863	-0.145699	-0.158995
N242	N	1.436863	0.354301	0.341005
N243	N	0.940613	-0.125082	-0.229192
N244	N	1.440613	0.374918	0.270808
H245	H	0.943037	-0.144819	-0.285940
H246	H	1.443037	0.355181	0.214060
N247	N	0.913094	-0.650539	0.158918
N248	N	1.413094	-0.150539	0.658918
N249	N	0.967983	-0.624234	0.176471
N250	N	1.467983	-0.124234	0.676471
H251	H	0.965572	-0.604491	0.233211
H252	H	1.465572	-0.104491	0.733211
H253	H	0.937622	-0.282738	-0.221342
H254	H	1.437622	0.217262	0.278658
N255	N	0.339645	0.028114	-0.000022
N256	N	0.839645	0.528114	0.499978
N257	N	0.390384	0.018970	-0.060830
N258	N	0.890384	0.518970	0.439170
H259	H	0.427005	-0.011059	-0.060834
H260	H	0.927005	0.488941	0.439166
N261	N	0.936793	-0.379916	-0.237652
N262	N	1.436793	0.120084	0.262348
N263	N	0.940541	-0.359298	-0.307848
N264	N	1.440541	0.140702	0.192152
H265	H	0.942968	-0.379033	-0.364597
H266	H	1.442968	0.120967	0.135403
H267	H	0.925976	-0.755537	-0.142737
H268	H	1.425976	-0.255537	0.357263
H269	H	0.912271	-0.747728	0.142613
H270	H	1.412271	-0.247728	0.642613
H271	H	0.914807	-0.362145	0.221289
H272	H	1.414807	0.137855	0.721289
N273	N	0.913150	-0.416312	0.237564
N274	N	1.413150	0.083688	0.737564
N275	N	0.968045	-0.390011	0.255115
N276	N	1.468045	0.109989	0.755115
H277	H	0.965638	-0.370268	0.311855
H278	H	1.465638	0.129732	0.811855
H279	H	0.935106	-0.434080	-0.221356
H280	H	1.435106	0.065920	0.278644
N281	N	1.052281	0.029095	0.612104
N282	N	1.552281	0.529095	1.112104
N283	N	1.098372	0.002792	0.652654
N284	N	1.598372	0.502792	1.152654
H285	H	1.138830	-0.020217	0.619911
H286	H	1.638830	0.479783	1.119911
H287	H	0.912311	-0.513499	0.221264
H288	H	1.412311	-0.013499	0.721264
