data_functionalizedCrystal
_audit_creation_method	'MofGen! by Chris Wilmer'
_symmetry_space_group_name_H-M	'P1'
_symmetry_Int_Tables_number	1
_symmetry_cell_setting	triclinic
loop_
_symmetry_equiv_pos_as_xyz
  x,y,z
_cell_length_a	13.032721
_cell_length_b	18.215407
_cell_length_c	18.215399
_cell_angle_alpha	90.018561
_cell_angle_beta	97.154738
_cell_angle_gamma	82.803795
loop_
_atom_site_label
_atom_site_type_symbol
_atom_site_fract_x
_atom_site_fract_y
_atom_site_fract_z
Zn1	Zn	-0.416276	-1.087860	-0.453317
Zn2	Zn	0.083724	-0.587860	0.046683
Zn3	Zn	-0.591036	-1.072146	-0.345879
Zn4	Zn	-0.091036	-0.572146	0.154121
Zn5	Zn	-0.416284	-0.964792	-0.330268
Zn6	Zn	0.083716	-0.464792	0.169732
Zn7	Zn	-0.590951	-0.949144	-0.468899
Zn8	Zn	-0.090951	-0.449144	0.031101
O9	O	-0.503637	-1.018485	-0.399591
O10	O	-0.003637	-0.518485	0.100409
O11	O	-0.439491	-1.188757	-0.439077
O12	O	0.060509	-0.688757	0.060923
O13	O	-0.567893	-1.057878	-0.240827
O14	O	-0.067893	-0.557878	0.259173
O15	O	-0.270046	-0.994242	-0.333536
O16	O	0.229954	-0.494242	0.166464
O17	O	-0.567886	-1.177212	-0.360143
O18	O	-0.067886	-0.677212	0.139857
O19	O	-0.270040	-1.084660	-0.423940
O20	O	0.229960	-0.584660	0.076060
O21	O	-0.439503	-0.979005	-0.229358
O22	O	0.060497	-0.479005	0.270642
O23	O	-0.439421	-0.859735	-0.348645
O24	O	0.060579	-0.359735	0.151355
O25	O	-0.567741	-0.967572	-0.569813
O26	O	-0.067741	-0.467572	-0.069813
O27	O	-0.567749	-0.848238	-0.450497
O28	O	-0.067749	-0.348238	0.049503
O29	O	-0.439408	-1.069486	-0.558365
O30	O	0.060592	-0.569486	-0.058365
O31	O	-0.737261	-1.042704	-0.375252
O32	O	-0.237261	-0.542704	0.124748
O33	O	-0.737199	-0.952335	-0.465635
O34	O	-0.237199	-0.452335	0.034365
C35	C	-0.503577	-0.827284	-0.399569
C36	C	-0.003577	-0.327284	0.100431
C37	C	-0.503577	-0.745485	-0.399579
C38	C	-0.003577	-0.245485	0.100421
C39	C	-0.775148	-0.994136	-0.423845
C40	C	-0.275148	-0.494136	0.076155
C41	C	-0.891301	-0.983787	-0.434245
C42	C	-0.391301	-0.483787	0.065755
C43	C	-0.436873	-0.486420	-0.440768
C44	C	0.063127	0.013580	0.059232
C45	C	-0.436861	-0.563280	-0.440766
C46	C	0.063139	-0.063280	0.059234
C47	C	-0.570365	-0.551295	-0.358413
C48	C	-0.070365	-0.051295	0.141587
C49	C	-0.570382	-0.474436	-0.358420
C50	C	-0.070382	0.025564	0.141580
C51	C	-0.503629	-0.442001	-0.399596
C52	C	-0.003629	0.057999	0.100404
C53	C	-0.503602	-0.595720	-0.399587
C54	C	-0.003602	-0.095720	0.100413
C55	C	-0.503590	-0.679054	-0.399584
C56	C	-0.003590	-0.179054	0.100416
C57	C	-0.503643	-0.358661	-0.399600
C58	C	-0.003643	0.141339	0.100400
C59	C	-0.943082	-1.023926	-0.394196
C60	C	-0.443082	-0.523926	0.105804
C61	C	-1.063133	-1.013230	-0.404944
C62	C	-0.563133	-0.513230	0.095056
C63	C	-0.231065	-1.042949	-0.375259
C64	C	0.268935	-0.542949	0.124741
C65	C	-0.114912	-1.053374	-0.364890
C66	C	0.385088	-0.553374	0.135110
C67	C	-0.503565	-1.018536	-0.591537
C68	C	-0.003565	-0.518536	-0.091537
C69	C	-0.503534	-1.018558	-0.673334
C70	C	-0.003534	-0.518558	-0.173334
C71	C	-0.503680	-0.210434	-0.399609
C72	C	-0.003680	0.289566	0.100391
C73	C	-0.503654	-0.292235	-0.399604
C74	C	-0.003654	0.207765	0.100396
C75	C	-0.436648	-1.071648	-0.855562
C76	C	0.063352	-0.571648	-0.355562
C77	C	-0.436618	-1.071659	-0.932418
C78	C	0.063382	-0.571659	-0.432418
C79	C	-0.570258	-0.965536	-0.944328
C80	C	-0.070258	-0.465536	-0.444328
C81	C	-0.570282	-0.965521	-0.867473
C82	C	-0.070282	-0.465521	-0.367473
C83	C	-0.503479	-1.018582	-0.823092
C84	C	-0.003479	-0.518582	-0.323092
C85	C	-0.503424	-1.018607	-0.976804
C86	C	-0.003424	-0.518607	-0.476804
C87	C	-0.503392	-1.018619	-1.060134
C88	C	-0.003392	-0.518619	-0.560134
C89	C	-0.503510	-1.018569	-0.739756
C90	C	-0.003510	-0.518569	-0.239756
C91	C	-0.503633	-1.018483	-0.208384
C92	C	-0.003633	-0.518483	0.291616
C93	C	-0.503369	-1.018630	-0.126562
C94	C	-0.003369	-0.518630	0.373438
H95	H	-0.382519	-0.460014	-0.474296
H96	H	0.117481	0.039986	0.025704
H97	H	-0.382250	-1.114851	-0.819429
H98	H	0.117750	-0.614851	-0.319429
H99	H	-0.624749	-0.438268	-0.324893
H100	H	-0.124749	0.061732	0.175107
H101	H	-0.898540	-1.066211	-0.351953
H102	H	-0.398540	-0.566211	0.148047
H103	H	-0.624703	-0.922303	-0.841036
H104	H	-0.124703	-0.422303	-0.341036
H105	H	-0.624649	-0.922337	-0.980473
H106	H	-0.124649	-0.422337	-0.480473
H107	H	-0.382502	-0.599443	-0.474293
H108	H	0.117498	-0.099443	0.025707
C109	C	-1.123303	-0.956103	-0.462019
C110	C	-0.623303	-0.456103	0.037981
N111	N	-1.168624	-0.913075	-0.505005
N112	N	-0.668624	-0.413075	-0.005005
H113	H	-0.624711	-0.577713	-0.324888
H114	H	-0.124711	-0.077713	0.175112
C115	C	-1.054744	-1.110501	-0.307814
C116	C	-0.554744	-0.610501	0.192186
N117	N	-1.009425	-1.153527	-0.264824
N118	N	-0.509425	-0.653527	0.235176
H119	H	-0.382196	-1.114870	-0.958851
H120	H	0.117804	-0.614870	-0.458851
H121	H	-0.935847	-0.941508	-0.476493
H122	H	-0.435847	-0.441508	0.023507
