data_functionalizedCrystal
_audit_creation_method	'MofGen! by Chris Wilmer'
_symmetry_space_group_name_H-M	'P1'
_symmetry_Int_Tables_number	1
_symmetry_cell_setting	triclinic
loop_
_symmetry_equiv_pos_as_xyz
  x,y,z
_cell_length_a	11.792241
_cell_length_b	10.654550
_cell_length_c	9.730223
_cell_angle_alpha	90.000193
_cell_angle_beta	90.000651
_cell_angle_gamma	95.660841
loop_
_atom_site_label
_atom_site_type_symbol
_atom_site_fract_x
_atom_site_fract_y
_atom_site_fract_z
O1	O	1.507300	-0.172130	-0.114259
O2	O	1.177000	-0.189870	-0.114267
O3	O	1.349744	0.001761	-0.114258
O4	O	1.334556	-0.363761	-0.114268
O5	O	1.349742	0.001756	0.114322
O6	O	1.176998	-0.189875	0.114313
O7	O	1.507298	-0.172135	0.114321
Zn8	Zn	1.342147	-0.181006	0.150609
Zn9	Zn	1.342150	-0.180999	-0.150555
O10	O	1.334554	-0.363766	0.114312
C11	C	1.134705	-0.188758	0.000022
C12	C	1.008684	-0.185423	0.000018
C13	C	1.348628	0.048553	0.000030
C14	C	1.345291	0.187987	0.000026
C15	C	1.549592	-0.173247	0.000029
C16	C	1.675614	-0.176582	0.000023
C17	C	1.906340	-0.182715	0.000024
C18	C	1.777947	-0.179308	0.000024
C19	C	1.335670	-0.410558	0.000020
C20	C	1.339006	-0.549992	0.000016
N21	N	1.342154	-0.181009	0.356145
C22	C	1.447000	0.267760	0.000032
C23	C	1.443858	0.398772	0.000023
C24	C	1.237290	0.370224	0.000005
C25	C	1.240433	0.239215	0.000005
C26	C	1.566261	0.284243	0.000048
C27	C	1.563120	0.415255	0.000039
N28	N	1.342153	-0.180986	-0.356092
C29	C	1.418665	-0.096184	0.428075
C30	C	1.418662	-0.096169	0.571958
C31	C	1.265633	-0.265815	0.571968
C32	C	1.265632	-0.265823	0.428088
C33	C	1.507018	0.001756	0.428071
C34	C	1.507015	0.001772	0.571954
H35	H	1.157611	0.174267	-0.000019
H36	H	1.604238	0.248722	0.098746
C37	C	1.121951	0.426589	-0.000001
N38	N	1.035075	0.469040	-0.000000
C39	C	1.629273	0.244756	-0.129176
N40	N	1.676731	0.215014	-0.226507
C41	C	1.611833	0.477067	-0.133277
N42	N	1.648530	0.523626	-0.233684
C43	C	1.181462	-0.359104	0.651119
N44	N	1.118062	-0.429371	0.710733
C45	C	1.623813	0.471844	0.129274
N46	N	1.669523	0.514466	0.226613
H47	H	1.589425	-0.028599	0.383446
H48	H	1.203321	-0.334884	0.369523
C49	C	1.624818	-0.027061	0.624718
N50	N	1.713533	-0.048815	0.664459
H51	H	1.487639	0.098234	0.389019
C52	C	1.469748	0.124895	0.632237
N53	N	1.441671	0.217625	0.677644
