data_functionalizedCrystal
_audit_creation_method	'MofGen! by Chris Wilmer'
_symmetry_space_group_name_H-M	'P1'
_symmetry_Int_Tables_number	1
_symmetry_cell_setting	triclinic
loop_
_symmetry_equiv_pos_as_xyz
  x,y,z
_cell_length_a	13.185408
_cell_length_b	15.995292
_cell_length_c	12.376457
_cell_angle_alpha	101.276936
_cell_angle_beta	82.594262
_cell_angle_gamma	67.721058
loop_
_atom_site_label
_atom_site_type_symbol
_atom_site_fract_x
_atom_site_fract_y
_atom_site_fract_z
O1	O	1.467930	-0.238897	-0.093932
O2	O	1.150413	-0.154021	-0.093947
O3	O	1.317884	-0.320314	-0.093941
O4	O	1.300458	-0.072605	-0.093938
O5	O	1.276031	-0.278788	0.094070
O6	O	1.108560	-0.112495	0.094063
O7	O	1.426077	-0.197371	0.094079
Zn8	Zn	1.260673	-0.148340	0.123922
Zn9	Zn	1.315816	-0.203052	-0.123790
O10	O	1.258605	-0.031079	0.094072
C11	C	1.088856	-0.124654	0.000056
C12	C	0.967790	-0.099025	0.000049
C13	C	0.897896	-0.007770	0.000048
C14	C	0.784144	0.016316	0.000059
C15	C	0.740278	-0.050853	0.000061
C16	C	0.810175	-0.142112	0.000055
C17	C	0.923935	-0.166199	0.000053
C18	C	0.766317	-0.209282	0.000067
C19	C	0.836214	-0.300542	0.000060
C20	C	0.949963	-0.324624	0.000057
C21	C	0.993830	-0.257454	0.000055
C22	C	0.652557	-0.185196	0.000068
C23	C	0.678596	-0.343625	0.000073
C24	C	0.792348	-0.367711	0.000063
C25	C	1.296249	-0.330587	0.000061
C26	C	1.294125	-0.423063	0.000053
C27	C	1.286306	-0.759038	0.000063
C28	C	1.407089	-0.762871	0.000489
C29	C	1.409481	-0.666807	0.000061
C30	C	1.290186	-0.592357	0.000059
C31	C	1.253653	-0.631553	-0.107304
C32	C	1.252217	-0.728035	-0.107390
C33	C	1.202154	-0.680113	0.106413
C34	C	1.206318	-0.584317	0.107828
C35	C	1.292373	-0.498155	0.000052
C36	C	1.284117	-0.853241	0.000061
C37	C	1.487634	-0.226739	0.000073
C38	C	1.608702	-0.252370	0.000072
C39	C	1.280241	-0.020806	0.000067
C40	C	1.282367	0.071668	0.000068
N41	N	1.223048	-0.111003	0.292978
N42	N	1.353451	-0.240398	-0.292847
C43	C	1.440792	-0.327087	0.647972
C44	C	1.467120	-0.353218	0.529633
C45	C	1.406104	-0.292667	0.470464
C46	C	1.318756	-0.205979	0.529645
C47	C	1.292431	-0.179842	0.647995
C48	C	1.257743	-0.145422	0.470487
C49	C	1.170394	-0.058735	0.529668
C50	C	1.144073	-0.032602	0.648006
C51	C	1.205089	-0.093154	0.707176
C52	C	1.284068	-0.171559	0.352136
C53	C	1.135706	-0.024314	0.352159
C54	C	1.109378	0.001817	0.470498
H55	H	0.933621	0.046911	0.000054
C56	C	1.332893	-0.800956	-0.215796
H57	H	1.332725	-0.860446	-0.216807
H58	H	1.406771	-0.804763	-0.217466
H59	H	1.308941	-0.782650	-0.280002
H60	H	1.439679	-0.641449	0.077021
H61	H	0.647655	-0.031237	0.000071
C62	C	0.575681	-0.084822	0.000068
H63	H	0.501648	-0.080091	0.000078
H64	H	0.603569	-0.070704	-0.065496
H65	H	0.574385	-0.041742	0.065639
C66	C	0.707268	0.116691	0.000060
H67	H	0.749685	0.153243	0.000048
H68	H	0.647761	0.143861	0.065625
H69	H	0.676946	0.114895	-0.065510
H70	H	1.086023	0.024994	0.303984
C71	C	1.048010	0.062760	0.713103
H72	H	1.015437	0.095078	0.660919
H73	H	1.076970	0.098984	0.759257
H74	H	0.992347	0.053045	0.759281
C75	C	1.013280	0.097158	0.535600
H76	H	0.980694	0.129475	0.483419
H77	H	1.042199	0.133404	0.581777
H78	H	0.957638	0.087405	0.581755
H79	H	1.006868	-0.398930	0.000066
C80	C	1.133969	-0.722180	-0.114008
H81	H	1.087023	-0.660903	-0.116640
H82	H	1.102988	-0.735491	-0.049275
H83	H	1.138951	-0.766528	-0.180222
C84	C	1.118956	-0.283946	0.000048
H85	H	1.135064	-0.230870	0.000050
H86	H	1.164089	-0.333133	-0.065512
H87	H	1.134903	-0.304160	0.065623
C88	C	1.081741	-0.671709	0.107392
H89	H	1.082693	-0.716061	0.043343
H90	H	1.035143	-0.610261	0.105032
H91	H	1.053111	-0.683643	0.174397
C92	C	1.136272	-0.562972	-0.112721
H93	H	1.115836	-0.588045	-0.178266
H94	H	1.137638	-0.504548	-0.115942
H95	H	1.082919	-0.554026	-0.047298
C96	C	0.869238	-0.468088	0.000067
H97	H	0.943263	-0.472805	0.000073
H98	H	0.870538	-0.511174	-0.065493
H99	H	0.841353	-0.482202	0.065642
H100	H	1.222104	-0.698805	0.187793
H101	H	1.474251	-0.676158	-0.077031
H102	H	0.642893	-0.398332	0.000024
H103	H	1.436541	-0.784361	0.077483
C104	C	1.492706	-0.839009	-0.102937
H105	H	1.455163	-0.868469	-0.146379
H106	H	1.548573	-0.884398	-0.078249
H107	H	1.527188	-0.811122	-0.148006
C108	C	1.380147	-0.266903	0.287045
H109	H	1.387099	-0.273796	0.208090
H110	H	1.364023	-0.315851	0.306440
H111	H	1.448610	-0.269877	0.306437
C112	C	1.334274	-0.640946	-0.215240
H113	H	1.390251	-0.621054	-0.195106
H114	H	1.293167	-0.603014	-0.258572
H115	H	1.369135	-0.704539	-0.258623
H116	H	1.232642	-0.558125	0.187254
H117	H	1.117801	-0.530294	0.114310
H118	H	1.427544	-0.313947	0.374107
C119	C	1.563188	-0.448569	0.464542
H120	H	1.595749	-0.480892	0.516728
H121	H	1.618843	-0.438852	0.418367
H122	H	1.534230	-0.484800	0.418385
C123	C	1.507900	-0.393681	0.713058
H124	H	1.479707	-0.365700	0.792014
H125	H	1.584994	-0.405240	0.693654
H126	H	1.500385	-0.451191	0.693673
C127	C	1.176134	-0.064409	0.837350
H128	H	1.224987	-0.112887	0.864107
H129	H	1.100481	-0.054279	0.864134
H130	H	1.185096	-0.008332	0.864118
