data_functionalizedCrystal
_audit_creation_method	'MofGen! by Chris Wilmer'
_symmetry_space_group_name_H-M	'P1'
_symmetry_Int_Tables_number	1
_symmetry_cell_setting	triclinic
loop_
_symmetry_equiv_pos_as_xyz
  x,y,z
_cell_length_a	21.395364
_cell_length_b	12.594516
_cell_length_c	21.395355
_cell_angle_alpha	90.013083
_cell_angle_beta	90.024516
_cell_angle_gamma	90.007580
loop_
_atom_site_label
_atom_site_type_symbol
_atom_site_fract_x
_atom_site_fract_y
_atom_site_fract_z
Zn1	Zn	0.957941	-0.423986	0.354284
Zn2	Zn	0.957878	-0.601950	0.249517
Zn3	Zn	0.853156	-0.423973	0.249521
Zn4	Zn	0.853160	-0.601909	0.354257
O5	O	0.905534	-0.512954	0.301895
O6	O	1.045611	-0.447615	0.340396
O7	O	0.943959	-0.578352	0.161840
O8	O	0.867081	-0.275029	0.263432
O9	O	1.045565	-0.578365	0.263424
O10	O	0.944066	-0.275038	0.340401
O11	O	0.867020	-0.447593	0.161843
O12	O	0.765479	-0.447554	0.263405
O13	O	0.867087	-0.578296	0.441939
O14	O	0.765482	-0.578283	0.340354
O15	O	0.944070	-0.447576	0.441959
O16	O	0.943962	-0.750890	0.263398
O17	O	0.867026	-0.750861	0.340350
C18	C	0.742746	-0.512914	0.301877
C19	C	0.673105	-0.512922	0.301885
C20	C	0.171332	-0.445034	0.342049
C21	C	0.236768	-0.445026	0.342048
C22	C	0.269467	-0.512987	0.301909
C23	C	0.236725	-0.580980	0.261778
C24	C	0.171291	-0.580994	0.261784
C25	C	0.373105	-0.521229	0.245442
C26	C	0.438538	-0.521208	0.245436
C27	C	0.471288	-0.512952	0.301892
C28	C	0.438596	-0.504694	0.358356
C29	C	0.373162	-0.504707	0.358362
C30	C	0.340419	-0.512980	0.301899
C31	C	0.574974	-0.444959	0.342023
C32	C	0.640411	-0.444959	0.342024
C33	C	0.640367	-0.580908	0.261748
C34	C	0.574931	-0.580914	0.261753
C35	C	0.542239	-0.512934	0.301889
C36	C	0.905505	-0.789495	0.301884
C37	C	0.905550	-0.907801	0.301900
C38	C	0.947444	-0.977031	0.260091
C39	C	0.962759	-1.047755	0.317278
C40	C	0.890313	-1.047876	0.244749
C41	C	0.920894	-0.976966	0.359118
C42	C	0.848422	-0.977081	0.286550
C43	C	0.863715	-1.047773	0.343777
C44	C	1.068957	-0.512996	0.301913
C45	C	1.138599	-0.513014	0.301921
C46	C	0.905586	-0.512933	0.465318
C47	C	0.905608	-0.512924	0.534960
C48	C	0.905580	-0.235334	0.301920
C49	C	0.905600	-0.117028	0.301930
C50	C	0.905518	-0.512899	0.139107
C51	C	0.905617	-0.512608	0.069466
C52	C	0.945691	-0.444855	0.567684
C53	C	0.945690	-0.444809	0.633120
C54	C	0.905613	-0.512851	0.665828
C55	C	0.865522	-0.580925	0.633096
C56	C	0.865520	-0.580961	0.567661
C57	C	0.900656	-0.608688	0.769499
C58	C	0.900663	-0.608654	0.834932
C59	C	0.905617	-0.512739	0.867649
C60	C	0.910578	-0.416855	0.834925
C61	C	0.910575	-0.416892	0.769491
C62	C	0.905611	-0.512819	0.736780
C63	C	0.945701	-0.444615	0.971326
C64	C	0.945696	-0.444567	1.036763
C65	C	0.865531	-0.580692	1.036737
C66	C	0.865533	-0.580730	0.971302
C67	C	0.905621	-0.512693	0.938600
H68	H	0.465260	-0.497965	0.404328
N69	N	1.023393	-1.086723	0.333565
N70	N	1.066800	-1.023036	0.344728
H71	H	1.109625	-1.050564	0.356216
H72	H	0.800102	-0.946012	0.273533
N73	N	0.819298	-1.086514	0.388193
N74	N	0.811815	-1.184236	0.395123
H75	H	0.780446	-1.211599	0.426492
N76	N	0.824584	-0.650414	0.666513
N77	N	0.824591	-0.650374	0.724935
H78	H	0.795675	-0.699449	0.748537
N79	N	0.937169	-0.938086	0.419785
N80	N	0.948765	-1.001844	0.463025
H81	H	0.960262	-0.974385	0.505870
N82	N	0.339779	-0.496338	0.416043
N83	N	0.303289	-0.568700	0.432380
H84	H	0.279715	-0.562807	0.473121
H85	H	0.667062	-0.389604	0.374706
H86	H	0.666989	-0.636251	0.229071
N87	N	0.541577	-0.375557	0.383041
N88	N	0.548915	-0.382787	0.440847
H89	H	0.525328	-0.333781	0.469820
N90	N	0.986641	-0.375018	1.070183
N91	N	1.022428	-0.314279	1.040974
H92	H	1.051347	-0.265158	1.064576
N93	N	0.824601	-0.650281	0.937869
N94	N	0.846633	-0.718132	0.901369
H95	H	0.817723	-0.767253	0.877756
N96	N	0.541500	-0.650361	0.220758
N97	N	0.570700	-0.711041	0.184924
H98	H	0.547090	-0.760095	0.155970
N99	N	0.874102	-1.086947	0.184107
N100	N	0.826683	-1.143752	0.177229
H101	H	0.815236	-1.171343	0.134399
H102	H	0.978334	-0.389453	0.541062
N103	N	0.986635	-0.375261	0.666547
N104	N	1.022420	-0.314515	0.637341
H105	H	1.051337	-0.265395	0.660947
H106	H	0.465150	-0.527926	0.199458
N107	N	0.137945	-0.375613	0.383061
N108	N	0.101457	-0.413158	0.422960
H109	H	0.077878	-0.364130	0.451927
H110	H	0.914613	-0.338820	0.742849
H111	H	0.346446	-0.527957	0.199466
N112	N	0.137852	-0.650415	0.220778
N113	N	0.101324	-0.612868	0.180890
H114	H	0.077706	-0.661895	0.151927
H115	H	0.832877	-0.636389	0.541017
N116	N	0.270133	-0.650401	0.220784
N117	N	0.328555	-0.650380	0.220784
H118	H	0.352150	-0.699414	0.191833
N119	N	0.915631	-0.318861	0.868325
N120	N	0.920055	-0.233264	0.839101
H121	H	0.923626	-0.164057	0.862692
N122	N	0.991899	-0.938072	0.215777
N123	N	1.048481	-0.960731	0.221591
H124	H	1.079879	-0.933216	0.190298
H125	H	0.978340	-0.389209	0.944699
N126	N	0.824582	-0.650182	1.070138
N127	N	0.784661	-0.612701	1.106629
H128	H	0.755736	-0.661777	1.130220
N129	N	0.270204	-0.375574	0.383043
N130	N	0.241007	-0.314885	0.418874
H131	H	0.264620	-0.265831	0.447826
H132	H	0.896627	-0.686728	0.861571
N133	N	0.895588	-0.706679	0.736093
N134	N	0.891164	-0.792277	0.765315
H135	H	0.887584	-0.861482	0.741723
