data_functionalizedCrystal
_audit_creation_method	'MofGen! by Chris Wilmer'
_symmetry_space_group_name_H-M	'P1'
_symmetry_Int_Tables_number	1
_symmetry_cell_setting	triclinic
loop_
_symmetry_equiv_pos_as_xyz
  x,y,z
_cell_length_a	17.077404
_cell_length_b	16.625545
_cell_length_c	17.077396
_cell_angle_alpha	90.026422
_cell_angle_beta	90.017244
_cell_angle_gamma	90.027175
loop_
_atom_site_label
_atom_site_type_symbol
_atom_site_fract_x
_atom_site_fract_y
_atom_site_fract_z
Zn1	Zn	-1.200015	0.320990	-0.443858
Zn2	Zn	-0.866682	0.654323	-0.110525
Zn3	Zn	-0.533348	0.987657	0.222808
Zn4	Zn	-1.199918	0.455835	-0.312599
Zn5	Zn	-0.866585	0.789168	0.020734
Zn6	Zn	-0.533251	1.122501	0.354068
Zn7	Zn	-1.068752	0.321020	-0.312606
Zn8	Zn	-0.735419	0.654354	0.020727
Zn9	Zn	-0.402085	0.987687	0.354060
Zn10	Zn	-1.068705	0.455785	-0.443823
Zn11	Zn	-0.735372	0.789118	-0.110489
Zn12	Zn	-0.402039	1.122452	0.222844
O13	O	-1.134348	0.388408	-0.378222
O14	O	-0.801014	0.721741	-0.044888
O15	O	-0.467681	1.055074	0.288445
O16	O	-1.309849	0.338886	-0.426459
O17	O	-0.976516	0.672219	-0.093125
O18	O	-0.643182	1.005552	0.240208
O19	O	-1.182497	0.437985	-0.202753
O20	O	-0.849164	0.771318	0.130580
O21	O	-0.515831	1.104652	0.463914
O22	O	-1.086224	0.208184	-0.330035
O23	O	-0.752891	0.541517	0.003298
O24	O	-0.419558	0.874851	0.336631
O25	O	-1.309778	0.437956	-0.330023
O26	O	-0.976444	0.771289	0.003310
O27	O	-0.643111	1.104622	0.336644
O28	O	-1.182663	0.208162	-0.426466
O29	O	-0.849329	0.541495	-0.093132
O30	O	-0.515996	0.874828	0.240201
O31	O	-1.086130	0.338937	-0.202758
O32	O	-0.752797	0.672271	0.130575
O33	O	-0.419464	1.005604	0.463908
O34	O	-0.958899	0.338889	-0.330001
O35	O	-0.625566	0.672222	0.003333
O36	O	-0.292232	1.005556	0.336666
O37	O	-1.086145	0.437871	-0.553674
O38	O	-0.752812	0.771204	-0.220341
O39	O	-0.419478	1.104537	0.112992
O40	O	-0.958865	0.437900	-0.426405
O41	O	-0.625531	0.771233	-0.093071
O42	O	-0.292198	1.104567	0.240262
O43	O	-1.182618	0.338837	-0.553701
O44	O	-0.849284	0.672171	-0.220367
O45	O	-0.515951	1.005504	0.112966
O46	O	-1.182452	0.568661	-0.329988
O47	O	-0.849119	0.901994	0.003345
O48	O	-0.515786	1.235327	0.336679
O49	O	-1.086051	0.568624	-0.426398
O50	O	-0.752718	0.901957	-0.093064
O51	O	-0.419384	1.235291	0.240269
C52	C	-0.930400	0.388393	-0.378200
C53	C	-0.597066	0.721726	-0.044867
C54	C	-0.263733	1.055060	0.288467
C55	C	-0.843150	0.388406	-0.378209
C56	C	-0.509817	0.721739	-0.044876
C57	C	-0.176483	1.055073	0.288457
C58	C	-1.134257	0.597898	-0.378205
C59	C	-0.800924	0.931232	-0.044872
C60	C	-0.467591	1.264565	0.288461
C61	C	-1.134291	0.687520	-0.378225
C62	C	-0.800957	1.020853	-0.044891
C63	C	-0.467624	1.354186	0.288442
C64	C	-1.134387	0.388345	-0.582966
C65	C	-0.801054	0.721678	-0.249633
C66	C	-0.467720	1.055012	0.083701
C67	C	-1.134404	0.388319	-0.670216
C68	C	-0.801070	0.721652	-0.336883
C69	C	-0.467737	1.054985	-0.003549
C70	C	-1.339092	0.388423	-0.378244
C71	C	-1.005758	0.721756	-0.044911
C72	C	-0.672425	1.055090	0.288423
C73	C	-1.426342	0.388429	-0.378253
C74	C	-1.093008	0.721763	-0.044920
C75	C	-0.759675	1.055096	0.288413
C76	C	-0.802163	0.440039	-0.428326
C77	C	-0.468829	0.773372	-0.094993
C78	C	-0.135496	1.106706	0.238340
C79	C	-0.720182	0.440041	-0.428339
C80	C	-0.386849	0.773374	-0.095006
C81	C	-0.053515	1.106707	0.238328
C82	C	-0.679191	0.388413	-0.378230
C83	C	-0.345857	0.721746	-0.044897
C84	C	-0.012524	1.055080	0.288437
C85	C	-0.720184	0.336775	-0.328111
C86	C	-0.386850	0.670108	0.005223
C87	C	-0.053517	1.003441	0.338556
C88	C	-0.802163	0.336769	-0.328103
C89	C	-0.468829	0.670103	0.005231
C90	C	-0.135496	1.003436	0.338564
C91	C	-0.549314	0.336791	-0.328130
C92	C	-0.215980	0.670124	0.005204
C93	C	0.117353	1.003457	0.338537
C94	C	-0.467329	0.336797	-0.328136
C95	C	-0.133996	0.670130	0.005197
C96	C	0.199338	1.003463	0.338530
C97	C	-0.467333	0.440062	-0.428366
C98	C	-0.134000	0.773395	-0.095033
C99	C	0.199334	1.106728	0.238301
C100	C	-0.549312	0.440057	-0.428358
C101	C	-0.215979	0.773390	-0.095025
C102	C	0.117355	1.106723	0.238309
C103	C	-0.590300	0.388419	-0.378237
C104	C	-0.256966	0.721752	-0.044904
C105	C	0.076367	1.055086	0.288429
C106	C	-1.134319	0.760302	-0.378243
C107	C	-0.800986	1.093635	-0.044910
C108	C	-0.467653	1.426969	0.288424
C109	C	-1.134363	0.851610	-0.378264
C110	C	-0.801030	1.184944	-0.044931
C111	C	-0.467696	1.518277	0.288403
C112	C	-1.134402	0.924387	-0.378277
C113	C	-0.801069	1.257720	-0.044944
C114	C	-0.467735	1.591054	0.288390
C115	C	-1.134445	1.015701	-0.378297
C116	C	-0.801111	1.349034	-0.044963
C117	C	-0.467778	1.682368	0.288370
C118	C	-1.134454	1.178099	-0.378265
C119	C	-0.801120	1.511432	-0.044932
C120	C	-0.467787	1.844765	0.288401
C121	C	-1.134484	1.088478	-0.378309
C122	C	-0.801150	1.421811	-0.044976
C123	C	-0.467817	1.755144	0.288357
C124	C	-1.084241	0.336738	-0.711208
C125	C	-0.750907	0.670072	-0.377875
C126	C	-0.417574	1.003405	-0.044542
C127	C	-1.084254	0.336720	-0.793189
C128	C	-0.750920	0.670053	-0.459855
C129	C	-0.417587	1.003387	-0.126522
C130	C	-1.134434	0.388278	-0.834175
C131	C	-0.801101	0.721612	-0.500842
C132	C	-0.467767	1.054945	-0.167509
C133	C	-1.184599	0.439864	-0.793177
C134	C	-0.851266	0.773198	-0.459844
C135	C	-0.517933	1.106531	-0.126511
C136	C	-1.184582	0.439886	-0.711198
C137	C	-0.851249	0.773219	-0.377865
C138	C	-0.517915	1.106553	-0.044532
C139	C	-1.184633	0.439814	-0.964047
C140	C	-0.851300	0.773147	-0.630714
C141	C	-0.517967	1.106481	-0.297381
C142	C	-1.184652	0.439791	-1.046032
C143	C	-0.851318	0.773125	-0.712699
C144	C	-0.517985	1.106458	-0.379365
C145	C	-1.084305	0.336648	-1.046038
C146	C	-0.750972	0.669981	-0.712705
C147	C	-0.417638	1.003314	-0.379371
C148	C	-1.084288	0.336670	-0.964059
C149	C	-0.750954	0.670003	-0.630726
C150	C	-0.417621	1.003336	-0.297392
C151	C	-1.134454	0.388255	-0.923066
C152	C	-0.801121	0.721588	-0.589733
C153	C	-0.467787	1.054921	-0.256400
C154	C	-1.134353	0.388412	-0.174274
C155	C	-0.801020	0.721745	0.159059
C156	C	-0.467687	1.055078	0.492393
C157	C	-1.134489	0.388211	-0.087024
C158	C	-0.801155	0.721544	0.246309
C159	C	-0.467822	1.054878	0.579642
H160	H	-0.835532	0.482083	-0.469129
H161	H	-0.502199	0.815416	-0.135795
H162	H	-0.168865	1.148750	0.197538
Cl163	Cl	-1.021208	0.271847	-0.912534
Cl164	Cl	-0.687875	0.605180	-0.579200
Cl165	Cl	-0.354541	0.938514	-0.245867
Cl166	Cl	-1.021240	0.271796	-1.097571
Cl167	Cl	-0.687907	0.605130	-0.764237
Cl168	Cl	-0.354573	0.938463	-0.430904
Cl169	Cl	-1.247698	0.504668	-0.912515
Cl170	Cl	-0.914364	0.838001	-0.579182
Cl171	Cl	-0.581031	1.171335	-0.245849
H172	H	-0.433956	0.294747	-0.287342
H173	H	-0.100623	0.628081	0.045991
H174	H	0.232711	0.961414	0.379324
Cl175	Cl	-1.021152	0.271911	-0.844719
Cl176	Cl	-0.687819	0.605244	-0.511385
Cl177	Cl	-0.354485	0.938577	-0.178052
Cl178	Cl	-1.021157	0.271914	-0.659690
Cl179	Cl	-0.687823	0.605247	-0.326357
Cl180	Cl	-0.354490	0.938581	0.006976
H181	H	-0.686814	0.482086	-0.469149
H182	H	-0.353480	0.815419	-0.135815
H183	H	-0.020147	1.148753	0.197518
H184	H	-1.225513	0.481775	-1.079401
H185	H	-0.892180	0.815108	-0.746068
H186	H	-0.558846	1.148441	-0.412735
Cl187	Cl	-1.247643	0.504736	-0.659665
Cl188	Cl	-0.914310	0.838070	-0.326331
Cl189	Cl	-0.580977	1.171403	0.007002
Cl190	Cl	-0.600843	0.504966	-0.491348
Cl191	Cl	-0.267510	0.838300	-0.158014
Cl192	Cl	0.065823	1.171633	0.175319
Cl193	Cl	-0.415807	0.504966	-0.491386
Cl194	Cl	-0.082473	0.838300	-0.158052
Cl195	Cl	0.250860	1.171633	0.175281
Cl196	Cl	-0.600839	0.271873	-0.265120
Cl197	Cl	-0.267506	0.605207	0.068214
Cl198	Cl	0.065827	0.938540	0.401547
Cl199	Cl	-0.668651	0.271866	-0.265121
Cl200	Cl	-0.335318	0.605199	0.068212
Cl201	Cl	-0.001985	0.938532	0.401546
H202	H	-0.835534	0.294720	-0.287296
H203	H	-0.502200	0.628054	0.046037
H204	H	-0.168867	0.961387	0.379370
Cl205	Cl	-1.247679	0.504686	-0.844704
Cl206	Cl	-0.914345	0.838020	-0.511370
Cl207	Cl	-0.581012	1.171353	-0.178037
