data_functionalizedCrystal
_audit_creation_method	'MofGen! by Chris Wilmer'
_symmetry_space_group_name_H-M	'P1'
_symmetry_Int_Tables_number	1
_symmetry_cell_setting	triclinic
loop_
_symmetry_equiv_pos_as_xyz
  x,y,z
_cell_length_a	14.908742
_cell_length_b	11.169416
_cell_length_c	11.169409
_cell_angle_alpha	90.030816
_cell_angle_beta	93.278675
_cell_angle_gamma	93.283368
loop_
_atom_site_label
_atom_site_type_symbol
_atom_site_fract_x
_atom_site_fract_y
_atom_site_fract_z
Zn1	Zn	1.379262	0.583541	-0.572547
Zn2	Zn	1.379177	0.784275	-0.371876
Zn3	Zn	1.228393	0.572035	-0.383477
Zn4	Zn	1.228400	0.772606	-0.584109
O5	O	1.303808	0.678114	-0.478002
O6	O	1.505491	0.619869	-0.536234
O7	O	1.359136	0.756190	-0.205468
O8	O	1.248438	0.405614	-0.408574
O9	O	1.505428	0.767347	-0.388801
O10	O	1.359281	0.414068	-0.547483
O11	O	1.248356	0.600258	-0.213991
O12	O	1.102154	0.588942	-0.419785
O13	O	1.248451	0.747457	-0.750522
O14	O	1.102159	0.736300	-0.567189
O15	O	1.359289	0.608553	-0.742028
O16	O	1.359143	0.950674	-0.400012
O17	O	1.248369	0.942101	-0.555939
C18	C	1.069424	0.660107	-0.496001
C19	C	0.969153	0.652432	-0.503730
C20	C	0.827855	0.564967	-0.591493
C21	C	0.922068	0.572168	-0.584238
C22	C	0.922019	0.725504	-0.430474
C23	C	0.827805	0.718303	-0.437730
C24	C	0.780727	0.638031	-0.518241
C25	C	0.686512	0.630825	-0.525489
C26	C	0.686464	0.784167	-0.371733
C27	C	0.780677	0.791367	-0.364477
C28	C	1.303772	0.989936	-0.477996
C29	C	1.303839	1.123341	-0.478027
C30	C	1.303880	0.677987	-0.791039
C31	C	1.303911	0.677933	-0.924437
C32	C	1.539107	0.696193	-0.459934
C33	C	1.639378	0.703897	-0.452234
C34	C	1.303868	0.365077	-0.478033
C35	C	1.303894	0.231679	-0.478046
C36	C	1.303788	0.678159	-0.166179
C37	C	1.303932	0.677888	-0.032769
H38	H	0.960366	0.790861	-0.364930
H39	H	0.819021	0.856725	-0.298931
F40	F	0.636301	0.861926	-0.293762
F41	F	0.972222	0.494406	-0.662206
H42	H	0.648182	0.565458	-0.591040
H43	H	0.789523	0.499595	-0.657037
