data_functionalizedCrystal
_audit_creation_method	'MofGen! by Chris Wilmer'
_symmetry_space_group_name_H-M	'P1'
_symmetry_Int_Tables_number	1
_symmetry_cell_setting	triclinic
loop_
_symmetry_equiv_pos_as_xyz
  x,y,z
_cell_length_a	25.639239
_cell_length_b	21.395362
_cell_length_c	21.395356
_cell_angle_alpha	90.047076
_cell_angle_beta	89.971496
_cell_angle_gamma	89.943053
loop_
_atom_site_label
_atom_site_type_symbol
_atom_site_fract_x
_atom_site_fract_y
_atom_site_fract_z
Zn1	Zn	-0.207909	-0.957819	-0.354651
Zn2	Zn	0.042091	-0.707819	-0.104651
Zn3	Zn	0.292091	-0.457819	0.145349
Zn4	Zn	0.542091	-0.207819	0.395349
Zn5	Zn	-0.295343	-0.957709	-0.249872
Zn6	Zn	-0.045343	-0.707709	0.000128
Zn7	Zn	0.204657	-0.457709	0.250128
Zn8	Zn	0.454657	-0.207709	0.500128
Zn9	Zn	-0.207951	-0.853036	-0.249844
Zn10	Zn	0.042049	-0.603036	0.000156
Zn11	Zn	0.292049	-0.353036	0.250156
Zn12	Zn	0.542049	-0.103036	0.500156
Zn13	Zn	-0.295343	-0.852988	-0.354569
Zn14	Zn	-0.045343	-0.602988	-0.104569
Zn15	Zn	0.204657	-0.352988	0.145431
Zn16	Zn	0.454657	-0.102988	0.395431
O17	O	-0.251637	-0.905388	-0.302234
O18	O	-0.001637	-0.655388	-0.052234
O19	O	0.248363	-0.405388	0.197766
O20	O	0.498363	-0.155388	0.447766
O21	O	-0.219490	-1.045482	-0.340797
O22	O	0.030510	-0.795482	-0.090797
O23	O	0.280510	-0.545482	0.159203
O24	O	0.530510	-0.295482	0.409203
O25	O	-0.283768	-0.943797	-0.162190
O26	O	-0.033768	-0.693797	0.087810
O27	O	0.216232	-0.443797	0.337810
O28	O	0.466232	-0.193797	0.587810
O29	O	-0.134780	-0.867001	-0.263770
O30	O	0.115220	-0.617001	-0.013770
O31	O	0.365220	-0.367001	0.236230
O32	O	0.615220	-0.117001	0.486230
O33	O	-0.283727	-1.045401	-0.263816
O34	O	-0.033727	-0.795401	-0.013816
O35	O	0.216273	-0.545401	0.236184
O36	O	0.466273	-0.295401	0.486184
O37	O	-0.134749	-0.943985	-0.340771
O38	O	0.115251	-0.693985	-0.090771
O39	O	0.365251	-0.443985	0.159229
O40	O	0.615251	-0.193985	0.409229
O41	O	-0.219561	-0.866894	-0.162170
O42	O	0.030439	-0.616894	0.087830
O43	O	0.280439	-0.366894	0.337830
O44	O	0.530439	-0.116894	0.587830
O45	O	-0.219562	-0.765351	-0.263691
O46	O	0.030438	-0.515351	-0.013691
O47	O	0.280438	-0.265351	0.236309
O48	O	0.530438	-0.015351	0.486309
O49	O	-0.283728	-0.866921	-0.442258
O50	O	-0.033728	-0.616921	-0.192258
O51	O	0.216272	-0.366921	0.057742
O52	O	0.466272	-0.116921	0.307742
O53	O	-0.283768	-0.765317	-0.340631
O54	O	-0.033768	-0.515317	-0.090631
O55	O	0.216232	-0.265317	0.159369
O56	O	0.466232	-0.015317	0.409369
O57	O	-0.219490	-0.943939	-0.442318
O58	O	0.030510	-0.693939	-0.192318
O59	O	0.280510	-0.443939	0.057682
O60	O	0.530510	-0.193939	0.307682
O61	O	-0.368508	-0.943751	-0.263737
O62	O	-0.118508	-0.693751	-0.013737
O63	O	0.131492	-0.443751	0.236263
O64	O	0.381492	-0.193751	0.486263
O65	O	-0.368508	-0.866814	-0.340658
O66	O	-0.118508	-0.616814	-0.090658
O67	O	0.131492	-0.366814	0.159342
O68	O	0.381492	-0.116814	0.409342
C69	C	-0.251670	-0.742600	-0.302149
C70	C	-0.001670	-0.492600	-0.052149
C71	C	0.248330	-0.242600	0.197851
C72	C	0.498330	0.007400	0.447851
C73	C	-0.251697	-0.672959	-0.302128
C74	C	-0.001697	-0.422959	-0.052128
C75	C	0.248303	-0.172959	0.197872
C76	C	0.498303	0.077041	0.447872
C77	C	-0.285175	-0.640244	-0.342129
C78	C	-0.035175	-0.390244	-0.092129
C79	C	0.214825	-0.140244	0.157871
C80	C	0.464825	0.109756	0.407871
C81	C	-0.285164	-0.574809	-0.342152
C82	C	-0.035164	-0.324809	-0.092152
C83	C	0.214836	-0.074809	0.157848
C84	C	0.464836	0.175191	0.407848
C85	C	-0.251681	-0.542091	-0.302164
C86	C	-0.001681	-0.292091	-0.052164
C87	C	0.248319	-0.042091	0.197836
C88	C	0.498319	0.207909	0.447836
C89	C	-0.218197	-0.574813	-0.262160
C90	C	0.031803	-0.324813	-0.012160
C91	C	0.281803	-0.074813	0.237840
C92	C	0.531803	0.175187	0.487840
C93	C	-0.218205	-0.640247	-0.262142
C94	C	0.031795	-0.390247	-0.012142
C95	C	0.281795	-0.140247	0.237858
C96	C	0.531795	0.109753	0.487858
C97	C	-0.247480	-0.438368	-0.245751
C98	C	0.002520	-0.188368	0.004249
C99	C	0.252520	0.061632	0.254249
C100	C	0.502520	0.311632	0.504249
C101	C	-0.247476	-0.372935	-0.245768
C102	C	0.002524	-0.122935	0.004232
C103	C	0.252524	0.127065	0.254232
C104	C	0.502524	0.377065	0.504232
C105	C	-0.251654	-0.340270	-0.302218
C106	C	-0.001654	-0.090270	-0.052218
C107	C	0.248346	0.159730	0.197782
C108	C	0.498346	0.409730	0.447782
C109	C	-0.255847	-0.373046	-0.358654
C110	C	-0.005847	-0.123046	-0.108654
C111	C	0.244153	0.126954	0.141346
C112	C	0.494153	0.376954	0.391346
C113	C	-0.255855	-0.438480	-0.358637
C114	C	-0.005855	-0.188480	-0.108637
C115	C	0.244145	0.061520	0.141363
C116	C	0.494145	0.311520	0.391363
C117	C	-0.251669	-0.471138	-0.302178
C118	C	-0.001669	-0.221138	-0.052178
C119	C	0.248331	0.028862	0.197822
C120	C	0.498331	0.278862	0.447822
C121	C	-0.285122	-0.236603	-0.342247
C122	C	-0.035122	0.013397	-0.092247
C123	C	0.214878	0.263397	0.157753
C124	C	0.464878	0.513397	0.407753
C125	C	-0.285108	-0.171166	-0.342272
C126	C	-0.035108	0.078834	-0.092272
C127	C	0.214892	0.328834	0.157728
C128	C	0.464892	0.578834	0.407728
C129	C	-0.218144	-0.171172	-0.262274
C130	C	0.031856	0.078828	-0.012274
C131	C	0.281856	0.328828	0.237726
C132	C	0.531856	0.578828	0.487726
C133	C	-0.218155	-0.236607	-0.262255
C134	C	0.031845	0.013393	-0.012255
C135	C	0.281845	0.263393	0.237745
C136	C	0.531845	0.513393	0.487745
C137	C	-0.251647	-0.269319	-0.302241
C138	C	-0.001647	-0.019319	-0.052241
C139	C	0.248353	0.230681	0.197759
C140	C	0.498353	0.480681	0.447759
C141	C	-0.387479	-0.905283	-0.302205
C142	C	-0.137479	-0.655283	-0.052205
C143	C	0.112521	-0.405283	0.197795
C144	C	0.362521	-0.155283	0.447795
C145	C	-0.445593	-0.905295	-0.302214
C146	C	-0.195593	-0.655295	-0.052214
C147	C	0.054407	-0.405295	0.197786
C148	C	0.304407	-0.155295	0.447786
C149	C	-0.805943	-0.945554	-0.262250
C150	C	-0.555943	-0.695554	-0.012250
C151	C	-0.305943	-0.445554	0.237750
C152	C	-0.055943	-0.195554	0.487750
C153	C	-0.860548	-0.945578	-0.262258
C154	C	-0.610548	-0.695578	-0.012258
C155	C	-0.360548	-0.445578	0.237742
C156	C	-0.110548	-0.195578	0.487742
O157	O	-0.888774	-0.979698	-0.228247
O158	O	-0.638774	-0.729698	0.021753
O159	O	-0.388774	-0.479698	0.271753
O160	O	-0.138774	-0.229698	0.521753
N161	N	-0.887876	-0.905498	-0.302275
N162	N	-0.637876	-0.655498	-0.052275
N163	N	-0.387876	-0.405498	0.197725
N164	N	-0.137876	-0.155498	0.447725
C165	C	-0.860596	-0.865396	-0.342292
C166	C	-0.610596	-0.615396	-0.092292
C167	C	-0.360596	-0.365396	0.157708
C168	C	-0.110596	-0.115396	0.407708
O169	O	-0.888855	-0.831307	-0.376331
O170	O	-0.638855	-0.581307	-0.126331
O171	O	-0.388855	-0.331307	0.123669
O172	O	-0.138855	-0.081307	0.373669
C173	C	-0.805993	-0.865375	-0.342286
C174	C	-0.555993	-0.615375	-0.092286
C175	C	-0.305993	-0.365375	0.157714
C176	C	-0.055993	-0.115375	0.407714
C177	C	-0.778668	-0.905453	-0.302261
C178	C	-0.528668	-0.655453	-0.052261
C179	C	-0.278668	-0.405453	0.197739
C180	C	-0.028668	-0.155453	0.447739
C181	C	-0.778618	-0.985629	-0.222229
C182	C	-0.528618	-0.735629	0.027771
C183	C	-0.278618	-0.485629	0.277771
C184	C	-0.028618	-0.235629	0.527771
C185	C	-0.724018	-0.985604	-0.222220
C186	C	-0.474018	-0.735604	0.027780
C187	C	-0.224018	-0.485604	0.277780
C188	C	0.025982	-0.235604	0.527780
C189	C	-0.696742	-0.945503	-0.262231
C190	C	-0.446742	-0.695503	-0.012231
C191	C	-0.196742	-0.445503	0.237769
C192	C	0.053258	-0.195503	0.487769
C193	C	-0.724067	-0.905428	-0.302252
C194	C	-0.474067	-0.655428	-0.052252
C195	C	-0.224067	-0.405428	0.197748
C196	C	0.025933	-0.155428	0.447748
C197	C	-0.778715	-0.825276	-0.382305
C198	C	-0.528715	-0.575276	-0.132305
C199	C	-0.278715	-0.325276	0.117695
C200	C	-0.028715	-0.075276	0.367695
C201	C	-0.724108	-0.825259	-0.382296
C202	C	-0.474108	-0.575259	-0.132296
C203	C	-0.224108	-0.325259	0.117704
C204	C	0.025892	-0.075259	0.367704
C205	C	-0.696783	-0.865337	-0.342271
C206	C	-0.446783	-0.615337	-0.092271
C207	C	-0.196783	-0.365337	0.157729
C208	C	0.053217	-0.115337	0.407729
C209	C	-0.642191	-0.865302	-0.342255
C210	C	-0.392191	-0.615302	-0.092255
C211	C	-0.142191	-0.365302	0.157745
C212	C	0.107809	-0.115302	0.407745
N213	N	-0.614864	-0.905382	-0.302237
N214	N	-0.364864	-0.655382	-0.052237
N215	N	-0.114864	-0.405382	0.197763
N216	N	0.135136	-0.155382	0.447763
C217	C	-0.642139	-0.945483	-0.262226
C218	C	-0.392139	-0.695483	-0.012226
C219	C	-0.142139	-0.445483	0.237774
C220	C	0.107861	-0.195483	0.487774
C221	C	-0.975267	-0.865443	-0.342301
C222	C	-0.725267	-0.615443	-0.092301
C223	C	-0.475267	-0.365443	0.157699
C224	C	-0.225267	-0.115443	0.407699
C225	C	-1.029869	-0.865460	-0.342304
C226	C	-0.779869	-0.615460	-0.092304
C227	C	-0.529869	-0.365460	0.157696
C228	C	-0.279869	-0.115460	0.407696
C229	C	-1.029817	-0.945643	-0.262271
C230	C	-0.779817	-0.695643	-0.012271
C231	C	-0.529817	-0.445643	0.237729
C232	C	-0.279817	-0.195643	0.487729
C233	C	-0.975214	-0.945623	-0.262266
C234	C	-0.725214	-0.695623	-0.012266
C235	C	-0.475214	-0.445623	0.237734
C236	C	-0.225214	-0.195623	0.487734
C237	C	-0.947939	-0.905523	-0.302284
C238	C	-0.697939	-0.655523	-0.052284
C239	C	-0.447939	-0.405523	0.197716
C240	C	-0.197939	-0.155523	0.447716
C241	C	-0.527474	-0.945426	-0.262209
C242	C	-0.277474	-0.695426	-0.012209
C243	C	-0.027474	-0.445426	0.237791
C244	C	0.222526	-0.195426	0.487791
C245	C	-0.472869	-0.945395	-0.262202
C246	C	-0.222869	-0.695395	-0.012202
C247	C	0.027131	-0.445395	0.237798
C248	C	0.277131	-0.195395	0.487798
C249	C	-0.472926	-0.865215	-0.342237
C250	C	-0.222926	-0.615215	-0.092237
C251	C	0.027074	-0.365215	0.157763
C252	C	0.277074	-0.115215	0.407763
C253	C	-0.527526	-0.865243	-0.342242
C254	C	-0.277526	-0.615243	-0.092242
C255	C	-0.027526	-0.365243	0.157758
C256	C	0.222474	-0.115243	0.407758
C257	C	-0.554799	-0.905354	-0.302226
C258	C	-0.304799	-0.655354	-0.052226
C259	C	-0.054799	-0.405354	0.197774
C260	C	0.195201	-0.155354	0.447774
O261	O	-0.613931	-0.831201	-0.376250
O262	O	-0.363931	-0.581201	-0.126250
O263	O	-0.113931	-0.331201	0.123750
O264	O	0.136069	-0.081201	0.373750
O265	O	-0.613874	-0.979571	-0.228198
O266	O	-0.363874	-0.729571	0.021802
O267	O	-0.113874	-0.479571	0.271802
O268	O	0.136126	-0.229571	0.521802
C269	C	-0.115264	-0.905511	-0.302276
C270	C	0.134736	-0.655511	-0.052276
C271	C	0.384736	-0.405511	0.197724
C272	C	0.634736	-0.155511	0.447724
C273	C	-0.057149	-0.905563	-0.302295
C274	C	0.192851	-0.655563	-0.052295
C275	C	0.442851	-0.405563	0.197705
C276	C	0.692851	-0.155563	0.447705
C277	C	-0.251604	-0.905437	-0.465657
C278	C	-0.001604	-0.655437	-0.215657
C279	C	0.248396	-0.405437	0.034343
C280	C	0.498396	-0.155437	0.284343
C281	C	-0.251590	-0.905458	-0.535298
C282	C	-0.001590	-0.655458	-0.285298
C283	C	0.248410	-0.405458	-0.035298
C284	C	0.498410	-0.155458	0.214702
C285	C	-0.251612	-0.068811	-0.302301
C286	C	-0.001612	0.181189	-0.052301
C287	C	0.248388	0.431189	0.197699
C288	C	0.498388	0.681189	0.447699
C289	C	-0.251624	-0.138452	-0.302284
C290	C	-0.001624	0.111548	-0.052284
C291	C	0.248376	0.361548	0.197716
C292	C	0.498376	0.611548	0.447716
C293	C	-0.218154	-0.865426	-0.567991
C294	C	0.031846	-0.615426	-0.317991
C295	C	0.281846	-0.365426	-0.067991
C296	C	0.531846	-0.115426	0.182009
C297	C	-0.218145	-0.865424	-0.633427
C298	C	0.031855	-0.615424	-0.383427
C299	C	0.281855	-0.365424	-0.133427
C300	C	0.531855	-0.115424	0.116573
C301	C	-0.251565	-0.905465	-0.666167
C302	C	-0.001565	-0.655465	-0.416167
C303	C	0.248435	-0.405465	-0.166167
C304	C	0.498435	-0.155465	0.083833
C305	C	-0.285008	-0.945501	-0.633466
C306	C	-0.035008	-0.695501	-0.383466
C307	C	0.214992	-0.445501	-0.133466
C308	C	0.464992	-0.195501	0.116534
C309	C	-0.285020	-0.945497	-0.568032
C310	C	-0.035020	-0.695497	-0.318032
C311	C	0.214980	-0.445497	-0.068032
C312	C	0.464980	-0.195497	0.181968
C313	C	-0.255661	-0.961916	-0.769876
C314	C	-0.005661	-0.711916	-0.519876
C315	C	0.244339	-0.461916	-0.269876
C316	C	0.494339	-0.211916	-0.019876
C317	C	-0.255645	-0.961921	-0.835309
C318	C	-0.005645	-0.711921	-0.585309
C319	C	0.244355	-0.461921	-0.335309
C320	C	0.494355	-0.211921	-0.085309
C321	C	-0.251530	-0.905475	-0.867988
C322	C	-0.001530	-0.655475	-0.617988
C323	C	0.248470	-0.405475	-0.367988
C324	C	0.498470	-0.155475	-0.117988
C325	C	-0.247421	-0.849024	-0.835225
C326	C	0.002579	-0.599024	-0.585225
C327	C	0.252579	-0.349024	-0.335225
C328	C	0.502579	-0.099024	-0.085225
C329	C	-0.247433	-0.849020	-0.769791
C330	C	0.002567	-0.599020	-0.519791
C331	C	0.252567	-0.349020	-0.269791
C332	C	0.502567	-0.099020	-0.019791
C333	C	-0.251556	-0.905473	-0.737119
C334	C	-0.001556	-0.655473	-0.487119
C335	C	0.248444	-0.405473	-0.237119
C336	C	0.498444	-0.155473	0.012881
C337	C	-0.218082	-0.865437	-0.971633
C338	C	0.031918	-0.615437	-0.721633
C339	C	0.281918	-0.365437	-0.471633
C340	C	0.531918	-0.115437	-0.221633
C341	C	-0.218076	-0.865434	-1.037070
C342	C	0.031924	-0.615434	-0.787070
C343	C	0.281924	-0.365434	-0.537070
C344	C	0.531924	-0.115434	-0.287070
C345	C	-0.284936	-0.945517	-1.037108
C346	C	-0.034936	-0.695517	-0.787108
C347	C	0.215064	-0.445517	-0.537108
C348	C	0.465064	-0.195517	-0.287108
C349	C	-0.284945	-0.945514	-0.971672
C350	C	-0.034945	-0.695514	-0.721672
C351	C	0.215055	-0.445514	-0.471672
C352	C	0.465055	-0.195514	-0.221672
C353	C	-0.251515	-0.905475	-0.938939
C354	C	-0.001515	-0.655475	-0.688939
C355	C	0.248485	-0.405475	-0.438939
C356	C	0.498485	-0.155475	-0.188939
C357	C	-0.251631	-0.905375	-0.139446
C358	C	-0.001631	-0.655375	0.110554
C359	C	0.248369	-0.405375	0.360554
C360	C	0.498369	-0.155375	0.610554
C361	C	-0.251498	-0.905475	-0.069805
C362	C	-0.001498	-0.655475	0.180195
C363	C	0.248502	-0.405475	0.430195
C364	C	0.498502	-0.155475	0.680195
H365	H	-0.190934	-0.548170	-0.229602
H366	H	0.059066	-0.298170	0.020398
H367	H	0.309066	-0.048170	0.270398
H368	H	0.559066	0.201830	0.520398
H369	H	-0.312446	-0.666874	-0.374689
H370	H	-0.062446	-0.416874	-0.124689
H371	H	0.187554	-0.166874	0.125311
H372	H	0.437554	0.083126	0.375311
F373	F	-0.320797	-0.539984	-0.384728
F374	F	-0.070797	-0.289984	-0.134728
F375	F	0.179203	-0.039984	0.115272
F376	F	0.429203	0.210016	0.365272
H377	H	-0.259248	-0.346452	-0.404622
H378	H	-0.009248	-0.096452	-0.154622
H379	H	0.240752	0.153548	0.095378
H380	H	0.490752	0.403548	0.345378
F381	F	-0.243062	-0.788942	-0.734925
F382	F	0.006938	-0.538942	-0.484925
F383	F	0.256938	-0.288942	-0.234925
F384	F	0.506938	-0.038942	0.015075
H385	H	-0.190896	-0.263244	-0.229679
H386	H	0.059104	-0.013244	0.020321
H387	H	0.309104	0.236756	0.270321
H388	H	0.559104	0.486756	0.520321
H389	H	-0.190935	-0.832821	-0.541344
H390	H	0.059065	-0.582821	-0.291344
H391	H	0.309065	-0.332821	-0.041344
H392	H	0.559065	-0.082821	0.208656
H393	H	-0.244066	-0.803061	-0.861831
H394	H	0.005934	-0.553061	-0.611831
H395	H	0.255934	-0.303061	-0.361831
H396	H	0.505934	-0.053061	-0.111831
H397	H	-0.259007	-1.007885	-0.743275
H398	H	-0.009007	-0.757885	-0.493275
H399	H	0.240993	-0.507885	-0.243275
H400	H	0.490993	-0.257885	0.006725
F401	F	-0.182547	-0.822824	-0.668228
F402	F	0.067453	-0.572824	-0.418228
F403	F	0.317453	-0.322824	-0.168228
F404	F	0.567453	-0.072824	0.081772
H405	H	-1.052113	-0.832818	-0.374890
H406	H	-0.802113	-0.582818	-0.124890
H407	H	-0.552113	-0.332818	0.125110
H408	H	-0.302113	-0.082818	0.375110
F409	F	-0.182571	-0.675066	-0.219567
F410	F	0.067429	-0.425066	0.030433
F411	F	0.317429	-0.175066	0.280433
F412	F	0.567429	0.074934	0.530433
F413	F	-0.182506	-0.822822	-0.936794
F414	F	0.067494	-0.572822	-0.686794
F415	F	0.317494	-0.322822	-0.436794
F416	F	0.567494	-0.072822	-0.186794
H417	H	-0.952969	-0.978258	-0.229675
H418	H	-0.702969	-0.728258	0.020325
H419	H	-0.452969	-0.478258	0.270325
H420	H	-0.202969	-0.228258	0.520325
H421	H	-0.190879	-0.144533	-0.229718
H422	H	0.059121	0.105467	0.020282
H423	H	0.309121	0.355467	0.270282
H424	H	0.559121	0.605467	0.520282
H425	H	-0.190850	-0.832830	-1.063687
H426	H	0.059150	-0.582830	-0.813687
H427	H	0.309150	-0.332830	-0.563687
H428	H	0.559150	-0.082830	-0.313687
F429	F	-0.443888	-0.822540	-0.384820
F430	F	-0.193888	-0.572540	-0.134820
F431	F	0.056112	-0.322540	0.115180
F432	F	0.306112	-0.072540	0.365180
H433	H	-0.312147	-0.978121	-1.063764
H434	H	-0.062147	-0.728121	-0.813764
H435	H	0.187853	-0.478121	-0.563764
H436	H	0.437853	-0.228121	-0.313764
F437	F	-0.694943	-1.028268	-0.179627
F438	F	-0.444943	-0.778268	0.070373
F439	F	-0.194943	-0.528268	0.320373
F440	F	0.055057	-0.278268	0.570373
H441	H	-0.312247	-0.978099	-0.541414
H442	H	-0.062247	-0.728099	-0.291414
H443	H	0.187753	-0.478099	-0.041414
H444	H	0.437753	-0.228099	0.208586
H445	H	-0.312391	-0.263238	-0.374809
H446	H	-0.062391	-0.013238	-0.124809
H447	H	0.187609	0.236762	0.125191
H448	H	0.437609	0.486762	0.375191
H449	H	-0.450622	-0.978032	-0.229607
H450	H	-0.200622	-0.728032	0.020393
H451	H	0.049378	-0.478032	0.270393
H452	H	0.299378	-0.228032	0.520393
H453	H	-0.312171	-0.978115	-0.945054
H454	H	-0.062171	-0.728115	-0.695054
H455	H	0.187829	-0.478115	-0.445054
H456	H	0.437829	-0.228115	-0.195054
H457	H	-0.953063	-0.832784	-0.374887
H458	H	-0.703063	-0.582784	-0.124887
H459	H	-0.453063	-0.332784	0.125113
H460	H	-0.203063	-0.082784	0.375113
F461	F	-1.058855	-0.988322	-0.219686
F462	F	-0.808855	-0.738322	0.030314
F463	F	-0.558855	-0.488322	0.280314
F464	F	-0.308855	-0.238322	0.530314
F465	F	-0.260023	-1.022001	-0.870172
F466	F	-0.010023	-0.772001	-0.620172
F467	F	0.239977	-0.522001	-0.370172
F468	F	0.489977	-0.272001	-0.120172
H469	H	-0.259267	-0.465164	-0.404589
H470	H	-0.009267	-0.215164	-0.154589
H471	H	0.240733	0.034836	0.095411
H472	H	0.490733	0.284836	0.345411
F473	F	-0.320739	-0.136349	-0.384852
F474	F	-0.070739	0.113651	-0.134852
F475	F	0.179261	0.363651	0.115148
F476	F	0.429261	0.613651	0.365148
H477	H	-0.244065	-0.346253	-0.199814
H478	H	0.005935	-0.096253	0.050186
H479	H	0.255935	0.153747	0.300186
H480	H	0.505935	0.403747	0.550186
H481	H	-0.800953	-0.792637	-0.414894
H482	H	-0.550953	-0.542637	-0.164894
H483	H	-0.300953	-0.292637	0.085106
H484	H	-0.050953	-0.042637	0.335106
H485	H	-0.312220	-0.978103	-0.660127
H486	H	-0.062220	-0.728103	-0.410127
H487	H	0.187780	-0.478103	-0.160127
H488	H	0.437780	-0.228103	0.089873
H489	H	-0.549673	-0.978090	-0.229626
H490	H	-0.299673	-0.728090	0.020374
H491	H	-0.049673	-0.478090	0.270374
H492	H	0.200327	-0.228090	0.520374
F493	F	-0.243035	-0.473125	-0.185664
F494	F	0.006965	-0.223125	0.064336
F495	F	0.256965	0.026875	0.314336
F496	F	0.506965	0.276875	0.564336
H497	H	-0.800820	-1.018287	-0.189646
H498	H	-0.550820	-0.768287	0.060354
H499	H	-0.300820	-0.518287	0.310354
H500	H	-0.050820	-0.268287	0.560354
H501	H	-0.701903	-0.792606	-0.414885
H502	H	-0.451903	-0.542606	-0.164885
H503	H	-0.201903	-0.292606	0.085115
H504	H	0.048097	-0.042606	0.335115
H505	H	-0.549776	-0.832610	-0.374835
H506	H	-0.299776	-0.582610	-0.124835
H507	H	-0.049776	-0.332610	0.125165
H508	H	0.200224	-0.082610	0.375165
