data_functionalizedCrystal
_audit_creation_method	'MofGen! by Chris Wilmer'
_symmetry_space_group_name_H-M	'P1'
_symmetry_Int_Tables_number	1
_symmetry_cell_setting	triclinic
loop_
_symmetry_equiv_pos_as_xyz
  x,y,z
_cell_length_a	14.044220
_cell_length_b	12.811457
_cell_length_c	11.892095
_cell_angle_alpha	91.498327
_cell_angle_beta	94.243827
_cell_angle_gamma	88.595730
loop_
_atom_site_label
_atom_site_type_symbol
_atom_site_fract_x
_atom_site_fract_y
_atom_site_fract_z
O1	O	0.130897	1.401369	0.049656
O2	O	0.464230	1.734702	0.382990
O3	O	0.797564	2.068035	0.716323
O4	O	0.142797	1.099114	0.018668
O5	O	0.476130	1.432448	0.352001
O6	O	0.809464	1.765781	0.685334
O7	O	-0.001185	1.245704	0.033708
O8	O	0.332149	1.579037	0.367041
O9	O	0.665482	1.912371	0.700375
O10	O	0.274879	1.254779	0.034616
O11	O	0.608212	1.588112	0.367949
O12	O	0.941545	1.921446	0.701283
O13	O	0.010802	1.233480	0.220461
O14	O	0.344135	1.566813	0.553795
O15	O	0.677468	1.900146	0.887128
O16	O	0.154783	1.086890	0.205421
O17	O	0.488117	1.420224	0.538754
O18	O	0.821450	1.753557	0.872088
O19	O	0.142883	1.389144	0.236410
O20	O	0.476217	1.722478	0.569743
O21	O	0.809550	2.055811	0.903076
Zn22	Zn	0.150736	1.236077	0.250566
Zn23	Zn	0.484070	1.569410	0.583900
Zn24	Zn	0.817403	1.902743	0.917233
Zn25	Zn	0.134944	1.252182	0.004511
Zn26	Zn	0.468277	1.585516	0.337844
Zn27	Zn	0.801611	1.918849	0.671178
O28	O	0.286865	1.242555	0.221369
O29	O	0.620198	1.575888	0.554703
O30	O	0.953532	1.909222	0.888036
C31	C	0.147756	1.054087	0.108055
C32	C	0.481089	1.387420	0.441388
C33	C	0.814423	1.720753	0.774721
C34	C	0.144663	0.938129	0.096167
C35	C	0.477997	1.271463	0.429500
C36	C	0.811330	1.604796	0.762833
C37	C	0.151903	0.706904	0.277449
C38	C	0.485236	1.040237	0.610782
C39	C	0.818569	1.373571	0.944115
C40	C	0.148997	0.597952	0.266284
C41	C	0.482330	0.931285	0.599618
C42	C	0.815663	1.264618	0.932951
C43	C	0.135939	0.611270	0.062675
C44	C	0.469272	0.944603	0.396008
C45	C	0.802605	1.277936	0.729341
C46	C	0.138845	0.720222	0.073839
C47	C	0.472178	1.053556	0.407172
C48	C	0.805511	1.386889	0.740506
C49	C	0.146828	0.768035	0.181229
C50	C	0.480162	1.101369	0.514563
C51	C	0.813495	1.434702	0.847896
C52	C	0.149741	0.876990	0.192393
C53	C	0.483074	1.210323	0.525726
C54	C	0.816408	1.543656	0.859059
C55	C	0.136676	0.890306	-0.011216
C56	C	0.470010	1.223640	0.322117
C57	C	0.803343	1.556973	0.655451
C58	C	0.133770	0.781354	-0.022380
C59	C	0.467104	1.114687	0.310953
C60	C	0.800437	1.448020	0.644286
C61	C	-0.030548	1.235620	0.126678
C62	C	0.302785	1.568953	0.460011
C63	C	0.636119	1.902287	0.793344
C64	C	-0.135899	1.223773	0.125465
C65	C	0.197435	1.557106	0.458798
C66	C	0.530768	1.890439	0.792131
C67	C	-0.328789	1.202114	0.123228
C68	C	0.004544	1.535447	0.456561
C69	C	0.337877	1.868781	0.789894
C70	C	-0.385537	1.286141	0.131839
C71	C	-0.052203	1.619474	0.465172
C72	C	0.281130	1.952807	0.798506
C73	C	-0.492868	1.274090	0.130595
C74	C	-0.159534	1.607423	0.463928
C75	C	0.173799	1.940756	0.797261
C76	C	-0.221448	1.214164	0.124472
C77	C	0.111885	1.547497	0.457806
C78	C	0.445218	1.880830	0.791139
C79	C	0.316228	1.252639	0.128397
C80	C	0.649561	1.585972	0.461730
C81	C	0.982895	1.919306	0.795064
C82	C	0.421578	1.264487	0.129603
C83	C	0.754912	1.597820	0.462936
C84	C	1.088245	1.931154	0.796269
C85	C	0.137924	1.434172	0.147020
C86	C	0.471257	1.767506	0.480353
C87	C	0.804591	2.100839	0.813687
C88	C	0.141016	1.550130	0.158901
C89	C	0.474350	1.883463	0.492234
C90	C	0.807683	2.216797	0.825568
N91	N	0.161514	1.225092	0.418493
N92	N	0.494847	1.558426	0.751827
N93	N	0.828180	1.891759	1.085160
N94	N	0.124159	1.263174	-0.163415
N95	N	0.457492	1.596507	0.169918
N96	N	0.790826	1.929841	0.503251
C97	C	0.049111	1.339602	0.666890
C98	C	0.382444	1.672935	1.000223
C99	C	0.715778	2.006269	1.333557
C100	C	0.056651	1.331932	0.784445
C101	C	0.389984	1.665266	1.117778
C102	C	0.723318	1.998599	1.451112
C103	C	0.184129	1.202079	0.771160
C104	C	0.517463	1.535412	1.104493
C105	C	0.850796	1.868745	1.437827
C106	C	0.176589	1.209748	0.653605
C107	C	0.509922	1.543082	0.986938
C108	C	0.843256	1.876415	1.320272
C109	C	0.109079	1.278513	0.601475
C110	C	0.442412	1.611847	0.934808
C111	C	0.775745	1.945180	1.268141
C112	C	0.101544	1.286188	0.483918
C113	C	0.434877	1.619521	0.817251
C114	C	0.768210	1.952855	1.150585
C115	C	0.229017	1.156329	0.470635
C116	C	0.562350	1.489662	0.803968
C117	C	0.895683	1.822996	1.137301
C118	C	0.236557	1.148659	0.588190
C119	C	0.569890	1.481993	0.921523
C120	C	0.903223	1.815326	1.254856
H121	H	0.158416	0.745833	0.364890
H122	H	0.491749	1.079167	0.698223
H123	H	0.825082	1.412500	1.031557
H124	H	0.132550	0.940091	-0.089565
H125	H	0.465883	1.273424	0.243769
H126	H	0.799217	1.606758	0.577102
H127	H	-0.353516	1.367134	0.140067
H128	H	-0.020183	1.700467	0.473400
H129	H	0.313150	2.033801	0.806734
H130	H	0.291520	1.092669	0.630648
H131	H	0.624854	1.426003	0.963981
H132	H	0.958187	1.759336	1.297314
H133	H	0.277849	1.106590	0.417360
H134	H	0.611182	1.439923	0.750693
H135	H	0.944516	1.773256	1.084026
H136	H	-0.360813	1.121132	0.114922
H137	H	-0.027479	1.454466	0.448256
H138	H	0.305854	1.787799	0.781589
H139	H	0.046576	1.342183	0.441475
H140	H	0.379909	1.675516	0.774808
H141	H	0.713242	2.008849	1.108142
H142	H	-0.005853	1.395601	0.624446
H143	H	0.327481	1.728934	0.957779
H144	H	0.660814	2.062268	1.291112
H145	H	0.129423	0.572322	-0.024757
H146	H	0.462756	0.905655	0.308576
H147	H	0.796090	1.238988	0.641909
H148	H	0.156247	0.915917	0.279835
H149	H	0.489580	1.249250	0.613169
H150	H	0.822914	1.582584	0.946502
H151	H	0.239088	1.146084	0.813619
H152	H	0.572422	1.479418	1.146953
H153	H	0.905755	1.812751	1.480286
H154	H	0.153134	0.548182	0.344636
H155	H	0.486467	0.881515	0.677969
H156	H	0.819801	1.214848	1.011303
H157	H	0.127266	0.742409	-0.109814
H158	H	0.460599	1.075743	0.223519
H159	H	0.793932	1.409076	0.556852
H160	H	0.007818	1.381676	0.837704
H161	H	0.341152	1.715009	1.171037
H162	H	0.674485	2.048342	1.504370
