data_functionalizedCrystal
_audit_creation_method	'MofGen! by Chris Wilmer'
_symmetry_space_group_name_H-M	'P1'
_symmetry_Int_Tables_number	1
_symmetry_cell_setting	triclinic
loop_
_symmetry_equiv_pos_as_xyz
  x,y,z
_cell_length_a	21.295418
_cell_length_b	21.295417
_cell_length_c	21.295411
_cell_angle_alpha	90.020597
_cell_angle_beta	90.043738
_cell_angle_gamma	90.045515
loop_
_atom_site_label
_atom_site_type_symbol
_atom_site_fract_x
_atom_site_fract_y
_atom_site_fract_z
Zn1	Zn	0.962359	-0.250415	0.356238
Zn2	Zn	1.462359	0.249585	0.856238
Zn3	Zn	0.962263	-0.355667	0.250965
Zn4	Zn	1.462263	0.144333	0.750965
Zn5	Zn	0.857082	-0.250445	0.250948
Zn6	Zn	1.357082	0.249555	0.750948
Zn7	Zn	0.857053	-0.355680	0.356162
Zn8	Zn	1.357053	0.144320	0.856162
O9	O	0.909690	-0.303052	0.303578
O10	O	1.409690	0.196948	0.803578
O11	O	1.050436	-0.264360	0.342313
O12	O	1.550436	0.235640	0.842313
O13	O	0.948283	-0.341716	0.162874
O14	O	1.448283	0.158284	0.662874
O15	O	0.871100	-0.162351	0.264940
O16	O	1.371100	0.337649	0.764940
O17	O	1.050365	-0.341688	0.264969
O18	O	1.550365	0.158312	0.764969
O19	O	0.948447	-0.162330	0.342296
O20	O	1.448447	0.337670	0.842296
O21	O	0.871007	-0.264410	0.162861
O22	O	1.371007	0.235590	0.662861
O23	O	0.768989	-0.264422	0.264866
O24	O	1.268989	0.235578	0.764866
O25	O	0.871050	-0.341709	0.444262
O26	O	1.371050	0.158291	0.944262
O27	O	0.768968	-0.341738	0.342166
O28	O	1.268968	0.158262	0.842166
O29	O	0.948418	-0.264372	0.444318
O30	O	1.448418	0.235628	0.944318
O31	O	0.948254	-0.443758	0.264895
O32	O	1.448254	0.056242	0.764895
O33	O	0.870957	-0.443767	0.342183
O34	O	1.370957	0.056233	0.842183
C35	C	0.746138	-0.303085	0.303506
C36	C	1.246138	0.196915	0.803506
C37	C	0.676170	-0.303114	0.303490
C38	C	1.176170	0.196886	0.803490
C39	C	0.643308	-0.343426	0.343680
C40	C	1.143308	0.156574	0.843680
C41	C	0.577566	-0.343410	0.343708
C42	C	1.077566	0.156590	0.843708
C43	C	0.544687	-0.303090	0.303535
C44	C	1.044687	0.196910	0.803535
C45	C	0.577557	-0.262770	0.263342
C46	C	1.077557	0.237230	0.763342
C47	C	0.643298	-0.262783	0.263320
C48	C	1.143298	0.237217	0.763320
N49	N	0.441411	-0.298163	0.248477
N50	N	0.941411	0.201837	0.748477
N51	N	0.378960	-0.298155	0.248501
N52	N	0.878960	0.201845	0.748501
C53	C	0.346613	-0.303050	0.303602
C54	C	0.846613	0.196950	0.803602
N55	N	0.379076	-0.307965	0.358680
N56	N	0.879076	0.192035	0.858680
N57	N	0.441533	-0.307976	0.358656
N58	N	0.941533	0.192024	0.858656
C59	C	0.473402	-0.303072	0.303556
C60	C	0.973402	0.196928	0.803556
C61	C	0.242466	-0.343346	0.343826
C62	C	0.742466	0.156654	0.843826
C63	C	0.176722	-0.343326	0.343855
C64	C	0.676722	0.156674	0.843855
C65	C	0.176714	-0.262690	0.263484
C66	C	0.676714	0.237310	0.763484
C67	C	0.242456	-0.262707	0.263460
C68	C	0.742456	0.237293	0.763460
C69	C	0.275328	-0.303038	0.303630
C70	C	0.775328	0.196962	0.803630
C71	C	0.909609	-0.466603	0.303547
C72	C	1.409609	0.033397	0.803547
C73	C	0.909633	-0.536571	0.303554
C74	C	1.409633	-0.036571	0.803554
C75	C	0.949884	-0.569370	0.343862
C76	C	1.449884	-0.069370	0.843862
C77	C	0.949906	-0.635112	0.343878
C78	C	1.449906	-0.135112	0.843878
C79	C	0.909684	-0.668054	0.303574
C80	C	1.409684	-0.168054	0.803574
C81	C	0.869425	-0.635248	0.263263
C82	C	1.369425	-0.135248	0.763263
C83	C	0.869399	-0.569507	0.263253
C84	C	1.369399	-0.069507	0.763253
N85	N	0.904924	-0.771307	0.248481
N86	N	1.404924	-0.271307	0.748481
N87	N	0.904952	-0.833759	0.248492
N88	N	1.404952	-0.333759	0.748492
C89	C	0.909757	-0.866129	0.303602
C90	C	1.409757	-0.366129	0.803602
N91	N	0.914546	-0.833687	0.358702
N92	N	1.414546	-0.333687	0.858702
N93	N	0.914521	-0.771230	0.358690
N94	N	1.414521	-0.271230	0.858690
C95	C	0.909707	-0.739339	0.303580
C96	C	1.409707	-0.239339	0.803580
C97	C	0.950035	-0.970212	0.343931
C98	C	1.450035	-0.470212	0.843931
C99	C	0.950052	-1.035956	0.343947
C100	C	1.450052	-0.535956	0.843947
C101	C	0.869574	-1.036090	0.263327
C102	C	1.369574	-0.536090	0.763327
C103	C	0.869553	-0.970348	0.263316
C104	C	1.369553	-0.470348	0.763316
C105	C	0.909787	-0.937413	0.303617
C106	C	1.409787	-0.437413	0.803617
C107	C	1.073880	-0.303019	0.303652
C108	C	1.573880	0.196981	0.803652
C109	C	1.143848	-0.303005	0.303683
C110	C	1.643848	0.196995	0.803683
C111	C	0.909742	-0.303038	0.467769
C112	C	1.409742	0.196962	0.967769
C113	C	0.909764	-0.303033	0.537737
C114	C	1.409764	0.196967	1.037737
C115	C	0.909787	-0.138861	0.303624
C116	C	1.409787	0.361139	0.803624
C117	C	0.909829	-0.068893	0.303644
C118	C	1.409829	0.431107	0.803644
C119	C	0.909674	-0.303019	0.140027
C120	C	1.409674	0.196981	0.640027
C121	C	0.909774	-0.302848	0.070059
C122	C	1.409774	0.197152	0.570059
C123	C	0.950048	-0.262761	0.570634
C124	C	1.450048	0.237239	1.070634
C125	C	0.950047	-0.262734	0.636376
C126	C	1.450047	0.237266	1.136376
C127	C	0.909769	-0.302989	0.669219
C128	C	1.409769	0.197011	1.169219
C129	C	0.869477	-0.343263	0.636315
C130	C	1.369477	0.156737	1.136315
C131	C	0.869475	-0.343285	0.570573
C132	C	1.369475	0.156715	1.070573
N133	N	0.904913	-0.358058	0.772434
N134	N	1.404913	0.141942	1.272434
N135	N	0.904919	-0.358036	0.834886
N136	N	1.404919	0.141964	1.334886
C137	C	0.909773	-0.302926	0.867294
C138	C	1.409773	0.197074	1.367294
N139	N	0.914633	-0.247837	0.834892
N140	N	1.414633	0.252163	1.334892
N141	N	0.914630	-0.247860	0.772435
N142	N	1.414630	0.252140	1.272435
C143	C	0.909767	-0.302970	0.740505
C144	C	1.409767	0.197030	1.240505
C145	C	0.950058	-0.262621	0.971477
C146	C	1.450058	0.237379	1.471477
C147	C	0.950053	-0.262593	1.037220
C148	C	1.450053	0.237407	1.537220
C149	C	0.869486	-0.343128	1.037158
C150	C	1.369486	0.156872	1.537158
C151	C	0.869488	-0.343151	0.971415
C152	C	1.369488	0.156849	1.471415
C153	C	0.909777	-0.302898	0.938579
C154	C	1.409777	0.197102	1.438579
H155	H	0.670053	-0.229954	0.230592
H156	H	1.170053	0.270046	0.730592
N157	N	0.826040	-0.386541	1.072576
N158	N	1.326040	0.113459	1.572576
H159	H	0.851604	-0.415699	1.099872
H160	H	1.351604	0.084301	1.599872
H161	H	0.800528	-0.412017	1.041720
H162	H	1.300528	0.087983	1.541720
H163	H	0.550783	-0.229940	0.230634
H164	H	1.050783	0.270060	0.730634
N165	N	0.826148	-0.934970	0.219829
N166	N	1.326148	-0.434970	0.719829
H167	H	0.832236	-0.888325	0.225938
H168	H	1.332236	-0.388325	0.725938
H169	H	0.781189	-0.946508	0.229570
H170	H	1.281189	-0.446508	0.729570
H171	H	0.670069	-0.376266	0.376391
H172	H	1.170069	0.123734	0.876391
N173	N	0.277927	-0.386842	0.387151
N174	N	0.777927	0.113158	0.887151
H175	H	0.247130	-0.412374	0.412621
H176	H	0.747130	0.087626	0.912621
H177	H	0.305263	-0.361267	0.416318
H178	H	0.805263	0.138733	0.916318
H179	H	0.982830	-1.062659	0.376774
H180	H	1.482830	-0.562659	0.876774
H181	H	0.550805	-0.376236	0.376438
H182	H	1.050805	0.123764	0.876438
H183	H	0.149945	-0.229857	0.230777
H184	H	0.649945	0.270143	0.730777
H185	H	0.836820	-1.062911	0.230515
H186	H	1.336820	-0.562911	0.730515
H187	H	0.149968	-0.376152	0.376587
H188	H	0.649968	0.123848	0.876587
N189	N	0.826029	-0.386576	0.935928
N190	N	1.326029	0.113424	1.435928
H191	H	0.800508	-0.412071	0.966708
H192	H	1.300508	0.087929	1.466708
H193	H	0.851622	-0.415716	0.908663
H194	H	1.351622	0.084284	1.408663
N195	N	0.993508	-0.219158	1.072703
N196	N	1.493508	0.280842	1.572703
H197	H	0.987396	-0.225249	1.119333
H198	H	1.487396	0.274751	1.619333
H199	H	0.983743	-0.174205	1.061205
H200	H	1.483743	0.325795	1.561205
H201	H	0.982678	-0.661822	0.376709
H202	H	1.482678	-0.161822	0.876709
N203	N	0.277902	-0.219237	0.220101
N204	N	0.777902	0.280763	0.720101
H205	H	0.324538	-0.225363	0.226181
H206	H	0.824538	0.274637	0.726181
H207	H	0.266468	-0.174291	0.229982
H208	H	0.766468	0.325709	0.729982
H209	H	0.836621	-0.542802	0.230429
H210	H	1.336621	-0.042802	0.730429
N211	N	0.826042	-0.670773	0.219791
N212	N	1.326042	-0.170773	0.719791
H213	H	0.832168	-0.717397	0.225911
H214	H	1.332168	-0.217397	0.725911
H215	H	0.835859	-0.659290	0.174845
H216	H	1.335859	-0.159290	0.674845
H217	H	0.982849	-0.229937	0.663166
H218	H	1.482849	0.270063	1.163166
N219	N	0.993272	-0.533847	0.387332
N220	N	1.493272	-0.033847	0.887332
H221	H	1.018773	-0.564604	0.412871
H222	H	1.518773	-0.064604	0.912871
H223	H	0.967621	-0.506588	0.416428
H224	H	1.467621	-0.006588	0.916428
N225	N	0.993425	-0.934683	0.387397
N226	N	1.493425	-0.434683	0.887397
H227	H	1.018925	-0.965440	0.412939
H228	H	1.518925	-0.465440	0.912939
H229	H	0.967777	-0.907419	0.416490
H230	H	1.467777	-0.407419	0.916490
N231	N	0.826031	-0.386731	0.535089
N232	N	1.326031	0.113269	1.035089
H233	H	0.832144	-0.380638	0.488460
H234	H	1.332144	0.119362	0.988460
H235	H	0.781078	-0.376939	0.546545
H236	H	1.281078	0.123061	1.046545
N237	N	0.826024	-0.386672	0.671734
N238	N	1.326024	0.113328	1.171734
H239	H	0.832137	-0.380547	0.718373
H240	H	1.332137	0.119453	1.218373
H241	H	0.835785	-0.431635	0.660251
H242	H	1.335785	0.068365	1.160251
H243	H	0.982854	-0.229984	0.543902
H244	H	1.482854	0.270016	1.043902
H245	H	0.982860	-0.229842	0.944740
H246	H	1.482860	0.270158	1.444740
