data_functionalizedCrystal
_audit_creation_method	'MofGen! by Chris Wilmer'
_symmetry_space_group_name_H-M	'P1'
_symmetry_Int_Tables_number	1
_symmetry_cell_setting	triclinic
loop_
_symmetry_equiv_pos_as_xyz
  x,y,z
_cell_length_a	12.759401
_cell_length_b	19.076808
_cell_length_c	19.076919
_cell_angle_alpha	89.878360
_cell_angle_beta	92.284146
_cell_angle_gamma	92.323712
loop_
_atom_site_label
_atom_site_type_symbol
_atom_site_fract_x
_atom_site_fract_y
_atom_site_fract_z
Zn1	Zn	1.565243	-0.295737	-0.385998
Zn2	Zn	1.565686	-0.408532	-0.263767
Zn3	Zn	1.396888	-0.291037	-0.268512
Zn4	Zn	1.382742	-0.413214	-0.381241
O5	O	1.477640	-0.352130	-0.324880
O6	O	1.712322	-0.310707	-0.369789
O7	O	1.549400	-0.389019	-0.166065
O8	O	1.424956	-0.193324	-0.288073
O9	O	1.712648	-0.393577	-0.279987
O10	O	1.548646	-0.196777	-0.374390
O11	O	1.425385	-0.302696	-0.169551
O12	O	1.247991	-0.307237	-0.283461
O13	O	1.400845	-0.401558	-0.480203
O14	O	1.237598	-0.397000	-0.366282
O15	O	1.534929	-0.315248	-0.483698
O16	O	1.535683	-0.507490	-0.275374
O17	O	1.401274	-0.510930	-0.361681
C18	C	1.204674	-0.352117	-0.324871
C19	C	1.087896	-0.352129	-0.324883
C20	C	1.027650	-0.398937	-0.367931
C21	C	0.917925	-0.398947	-0.367938
C22	C	0.928701	-0.305336	-0.281843
C23	C	1.038424	-0.305324	-0.281840
C24	C	1.021427	-0.452985	-0.417634
C25	C	0.911702	-0.452994	-0.417642
C26	C	1.467019	-0.534708	-0.317512
C27	C	1.462570	-0.612817	-0.314383
C28	C	1.524827	-0.651251	-0.357890
C29	C	1.520642	-0.724642	-0.354952
C30	C	1.454206	-0.759598	-0.308503
C31	C	1.391943	-0.721158	-0.264994
C32	C	1.396123	-0.647768	-0.267937
C33	C	1.434801	-0.978903	-0.294883
C34	C	1.430628	-1.052298	-0.291943
C35	C	1.559326	-1.055777	-0.381902
C36	C	1.563505	-0.982386	-0.384837
C37	C	1.501238	-0.943953	-0.341331
N38	N	1.449930	-0.834615	-0.305497
N39	N	1.505509	-0.868937	-0.344341
C40	C	1.751672	-0.352144	-0.324889
C41	C	1.868448	-0.352150	-0.324893
C42	C	1.466260	-0.359449	-0.508160
C43	C	1.461410	-0.362568	-0.586263
C44	C	1.488329	-0.168840	-0.332291
C45	C	1.492885	-0.090733	-0.335450
C46	C	1.528938	-0.319098	-0.624777
C47	C	1.524369	-0.322026	-0.698163
C48	C	1.452276	-0.368428	-0.733034
C49	C	1.384741	-0.411899	-0.694515
C50	C	1.389306	-0.408967	-0.621130
C51	C	1.431133	-0.382012	-0.952316
C52	C	1.426575	-0.384942	-1.025706
C53	C	1.566203	-0.295068	-1.029349
C54	C	1.570766	-0.292143	-0.955962
C55	C	1.503227	-0.335611	-0.917450
N56	N	1.447606	-0.371423	-0.808047
N57	N	1.507892	-0.332612	-0.842439
C58	C	1.489039	-0.344789	-0.142314
C59	C	1.494103	-0.341472	-0.064220
H60	H	0.888408	-0.267229	-0.246800
H61	H	1.610019	-1.087078	-0.417323
O62	O	1.598830	-0.273983	-0.590832
C63	C	1.623640	-0.175766	-0.511858
C64	C	1.544378	-0.226828	-0.550241
H65	H	1.579646	-0.137618	-0.479043
H66	H	1.678824	-0.206613	-0.476153
H67	H	1.671134	-0.145232	-0.552007
H68	H	1.496812	-0.257374	-0.510142
H69	H	1.489265	-0.195940	-0.585958
H70	H	1.579360	-0.286630	-0.729518
H71	H	1.629474	-0.254360	-0.927575
O72	O	1.631651	-0.252766	-1.066794
C73	C	1.646159	-0.161227	-1.153515
C74	C	1.571921	-0.209085	-1.111142
H75	H	1.597898	-0.125909	-1.189390
H76	H	1.698450	-0.127509	-1.116019
H77	H	1.697100	-0.194876	-1.186540
H78	H	1.520914	-0.175490	-1.078113
H79	H	1.519702	-0.242807	-1.148675
O80	O	1.374206	-0.941551	-0.252719
C81	C	1.237707	-0.858376	-0.246489
C82	C	1.306248	-0.900651	-0.294326
H83	H	1.182761	-0.825286	-0.280108
H84	H	1.189439	-0.895941	-0.212799
H85	H	1.290242	-0.822566	-0.211136
H86	H	1.253792	-0.936463	-0.329721
H87	H	1.354524	-0.863046	-0.327968
O88	O	1.581175	-0.762056	-0.397107
C89	C	1.717741	-0.845186	-0.403305
C90	C	1.649237	-0.802866	-0.355483
H91	H	1.772801	-0.878180	-0.369671
H92	H	1.665282	-0.881073	-0.438630
H93	H	1.765904	-0.807589	-0.437024
H94	H	1.601063	-0.840410	-0.321721
H95	H	1.701754	-0.766970	-0.320205
H96	H	1.367865	-0.422729	-1.054096
O97	O	1.327315	-0.755002	-0.219856
C98	C	1.200154	-0.743798	-0.130908
C99	C	1.273280	-0.705384	-0.182010
H100	H	1.156464	-0.703699	-0.100286
H101	H	1.141154	-0.779445	-0.161726
H102	H	1.248772	-0.776695	-0.092846
H103	H	1.224747	-0.672449	-0.220084
H104	H	1.332283	-0.669779	-0.151147
O105	O	1.314564	-0.456898	-0.728358
C106	C	1.132471	-0.491926	-0.749382
C107	C	1.211829	-0.440906	-0.711030
H108	H	1.049393	-0.479024	-0.735375
H109	H	1.140716	-0.486556	-0.808457
H110	H	1.148568	-0.548009	-0.732668
H111	H	1.195782	-0.384802	-0.727686
H112	H	1.203566	-0.446337	-0.651963
O113	O	1.365472	-0.424298	-0.915018
C114	C	1.226420	-0.513694	-0.919158
C115	C	1.300751	-0.465862	-0.961487
H116	H	1.174059	-0.547301	-0.956711
H117	H	1.274566	-0.549123	-0.883325
H118	H	1.175556	-0.480029	-0.886095
H119	H	1.351631	-0.499472	-0.994590
H120	H	1.252542	-0.430429	-0.997276
H121	H	1.334307	-0.444358	-0.589774
H122	H	1.048671	-0.440666	-0.472665
O123	O	1.096900	-0.259919	-0.239926
C124	C	1.139809	-0.220795	-0.121848
C125	C	1.073543	-0.272272	-0.169233
H126	H	1.120933	-0.230755	-0.064685
H127	H	1.226747	-0.228821	-0.129176
H128	H	1.120753	-0.164659	-0.136614
H129	H	1.092508	-0.328428	-0.154498
H130	H	0.986624	-0.264185	-0.161899
O131	O	1.059734	-0.513740	-0.391800
C132	C	1.019324	-0.627879	-0.343158
C133	C	0.975799	-0.559118	-0.372419
H134	H	0.951486	-0.664580	-0.327467
H135	H	1.065497	-0.654118	-0.385058
H136	H	1.073230	-0.615821	-0.295238
H137	H	0.921850	-0.571116	-0.420329
H138	H	0.929687	-0.532899	-0.330475
H139	H	0.879677	-0.506814	-0.400782
O140	O	0.868571	-0.432197	-0.480238
C141	C	0.761744	-0.348440	-0.541218
C142	C	0.810551	-0.371907	-0.470290
H143	H	0.714805	-0.299702	-0.533196
H144	H	0.826734	-0.335860	-0.579145
H145	H	0.707496	-0.392424	-0.563817
H146	H	0.864788	-0.327953	-0.447628
H147	H	0.745506	-0.384510	-0.432410
H148	H	1.617602	-0.953927	-0.422660
H149	H	1.578930	-0.622795	-0.395711
O150	O	1.365992	-1.086146	-0.246805
C151	C	1.238818	-1.074954	-0.157865
C152	C	1.311946	-1.036533	-0.208960
H153	H	1.195118	-1.034859	-0.127243
H154	H	1.179825	-1.110602	-0.188687
H155	H	1.287435	-1.107850	-0.119801
H156	H	1.263415	-1.003599	-0.247035
H157	H	1.370941	-1.000927	-0.178092
O158	O	1.335533	-0.610402	-0.225775
C159	C	1.199048	-0.527214	-0.219566
C160	C	1.267587	-0.569502	-0.267392
H161	H	1.144112	-0.494125	-0.253194
H162	H	1.150769	-0.564770	-0.185874
H163	H	1.251584	-0.491403	-0.184215
H164	H	1.215129	-0.605317	-0.302785
H165	H	1.315874	-0.531907	-0.301037
