data_functionalizedCrystal
_audit_creation_method	'MofGen! by Chris Wilmer'
_symmetry_space_group_name_H-M	'P1'
_symmetry_Int_Tables_number	1
_symmetry_cell_setting	triclinic
loop_
_symmetry_equiv_pos_as_xyz
  x,y,z
_cell_length_a	19.077105
_cell_length_b	21.295417
_cell_length_c	19.076919
_cell_angle_alpha	92.266620
_cell_angle_beta	90.076224
_cell_angle_gamma	87.726672
loop_
_atom_site_label
_atom_site_type_symbol
_atom_site_fract_x
_atom_site_fract_y
_atom_site_fract_z
Zn1	Zn	1.058236	-0.304534	-0.440387
Zn2	Zn	1.062864	-0.405747	-0.322870
Zn3	Zn	0.945454	-0.296102	-0.318181
Zn4	Zn	0.940686	-0.405368	-0.435623
O5	O	1.001810	-0.352938	-0.379265
O6	O	1.157181	-0.321649	-0.428754
O7	O	1.051222	-0.387832	-0.223917
O8	O	0.960474	-0.209134	-0.334424
O9	O	1.160581	-0.396009	-0.342415
O10	O	1.043334	-0.215330	-0.424208
O11	O	0.964962	-0.307276	-0.220472
O12	O	0.846490	-0.306908	-0.329804
O13	O	0.952346	-0.395362	-0.534586
O14	O	0.842987	-0.387185	-0.416088
O15	O	1.038710	-0.321280	-0.538086
O16	O	1.046598	-0.493783	-0.337795
O17	O	0.956834	-0.493504	-0.420634
C18	C	0.819242	-0.346091	-0.371921
C19	C	0.741139	-0.343178	-0.368795
C20	C	0.702642	-0.383663	-0.412179
C21	C	0.629255	-0.380918	-0.409246
C22	C	0.594366	-0.337689	-0.362924
C23	C	0.632868	-0.297199	-0.319538
C24	C	0.706253	-0.299942	-0.322476
C25	C	0.375080	-0.324994	-0.349333
C26	C	0.301690	-0.322256	-0.346397
C27	C	0.298082	-0.405974	-0.436106
C28	C	0.371470	-0.408715	-0.439037
C29	C	0.409965	-0.368223	-0.395653
N30	N	0.519353	-0.334883	-0.359923
N31	N	0.484976	-0.371027	-0.398658
C32	C	1.001719	-0.516485	-0.379223
C33	C	1.001744	-0.586454	-0.379231
C34	C	1.048522	-0.619448	-0.336144
C35	C	1.048554	-0.685192	-0.336161
C36	C	1.001796	-0.717939	-0.379257
C37	C	0.955015	-0.684937	-0.422352
C38	C	0.954989	-0.619195	-0.422339
N39	N	0.940111	-0.819089	-0.382141
N40	N	0.940138	-0.881541	-0.382149
C41	C	1.001873	-0.916018	-0.379300
N42	N	1.063583	-0.885683	-0.376429
N43	N	1.063555	-0.823224	-0.376417
C44	C	1.001820	-0.789226	-0.379276
C45	C	1.048690	-1.020300	-0.336230
C46	C	1.048724	-1.086046	-0.336252
C47	C	0.955178	-1.085789	-0.422439
C48	C	0.955151	-1.020045	-0.422421
C49	C	1.001906	-0.987304	-0.379313
C50	C	1.185090	-0.359812	-0.386639
C51	C	1.263193	-0.362741	-0.389782
C52	C	0.994480	-0.359220	-0.562545
C53	C	0.991356	-0.361897	-0.640648
C54	C	1.001919	-0.188754	-0.379324
C55	C	1.001966	-0.118788	-0.379349
C56	C	1.034851	-0.324586	-0.679164
C57	C	1.031907	-0.327098	-0.752550
C58	C	0.985472	-0.366925	-0.787418
C59	C	0.941972	-0.404238	-0.748896
C60	C	0.944913	-0.401722	-0.675512
C61	C	0.971853	-0.378584	-1.006698
C62	C	0.968917	-0.381099	-1.080087
C63	C	1.058852	-0.303958	-1.083736
C64	C	1.061791	-0.301448	-1.010350
C65	C	1.018289	-0.338758	-0.971835
N66	N	0.982464	-0.369496	-0.862429
N67	N	1.021294	-0.336183	-0.896824
C68	C	1.009152	-0.346637	-0.196700
C69	C	1.012412	-0.343787	-0.118604
H70	H	0.399871	-0.443918	-0.476755
O71	O	0.598948	-0.255291	-0.274468
C72	C	0.519835	-0.240336	-0.176329
C73	C	0.558219	-0.287866	-0.227316
H74	H	0.486885	-0.266653	-0.138203
H75	H	0.559926	-0.211876	-0.145774
H76	H	0.484240	-0.207283	-0.207304
H77	H	0.593813	-0.320959	-0.196395
H78	H	0.518090	-0.316280	-0.257872
O79	O	0.267906	-0.280203	-0.301382
C80	C	0.279225	-0.197478	-0.212686
C81	C	0.317573	-0.245057	-0.263643
H82	H	0.319363	-0.169059	-0.182150
H83	H	0.243616	-0.164395	-0.243610
H84	H	0.246299	-0.223793	-0.174536
H85	H	0.350536	-0.218794	-0.301804
H86	H	0.353139	-0.278139	-0.232673
O87	O	0.743677	-0.260554	-0.280431
C88	C	0.826974	-0.178356	-0.274470
C89	C	0.784623	-0.222922	-0.322166
H90	H	0.860100	-0.147929	-0.308192
H91	H	0.789463	-0.146945	-0.240870
H92	H	0.862750	-0.207238	-0.239027
H93	H	0.748844	-0.194090	-0.357651
H94	H	0.822173	-0.254335	-0.355717
H95	H	0.597915	-0.413886	-0.444573
H96	H	0.917110	-1.112451	-0.457532
H97	H	0.731044	-0.418867	-0.449897
H98	H	0.909487	-0.432098	-0.644152
O99	O	0.896963	-0.442997	-0.782801
C100	C	0.884130	-0.530445	-0.865272
C101	C	0.935181	-0.486601	-0.826912
H102	H	0.915007	-0.565701	-0.900956
H103	H	0.853557	-0.556727	-0.825169
H104	H	0.846019	-0.501329	-0.898128
H105	H	0.973334	-0.515670	-0.794056
H106	H	0.965703	-0.460316	-0.867051
H107	H	1.086764	-0.993641	-0.301131
H108	H	1.086820	-1.112908	-0.301168
H109	H	0.917057	-0.993179	-0.457503
O110	O	1.101032	-0.267734	-1.121256
C111	C	1.136389	-0.237444	-1.235926
C112	C	1.088570	-0.278494	-1.193522
H113	H	1.126341	-0.246138	-1.294361
H114	H	1.124656	-0.185718	-1.221070
H115	H	1.193614	-0.250118	-1.223734
H116	H	1.031329	-0.265875	-1.205691
H117	H	1.100364	-0.330209	-1.208384
O118	O	0.909689	-0.716819	-0.464253
C119	C	0.896397	-0.793882	-0.558773
C120	C	0.947803	-0.757831	-0.511352
H121	H	0.927192	-0.827039	-0.596874
H122	H	0.860993	-0.822265	-0.525050
H123	H	0.862943	-0.758990	-0.589534
H124	H	0.981304	-0.792678	-0.480582
H125	H	0.983160	-0.729438	-0.545113
H126	H	0.406414	-0.292027	-0.314002
O127	O	1.079978	-0.285842	-0.645406
C128	C	1.168895	-0.209619	-0.656780
C129	C	1.117811	-0.253460	-0.695096
H130	H	1.199508	-0.183437	-0.696938
H131	H	1.138066	-0.174277	-0.621156
H132	H	1.206967	-0.238727	-0.623873
H133	H	1.079729	-0.224405	-0.728041
H134	H	1.148686	-0.288805	-0.730678
H135	H	1.067327	-0.296717	-0.783907
H136	H	0.266732	-0.438939	-0.471428
H137	H	1.086595	-0.592792	-0.301045
H138	H	1.099606	-0.269018	-0.981966
H139	H	1.086649	-0.712061	-0.301075
O140	O	0.923743	-0.419802	-1.113848
C141	C	0.834878	-0.496076	-1.102490
C142	C	0.885986	-0.452263	-1.064167
H143	H	0.804348	-0.522342	-1.062341
H144	H	0.796737	-0.467002	-1.135360
H145	H	0.865753	-0.531353	-1.138151
H146	H	0.855169	-0.416978	-1.028470
H147	H	0.924127	-0.481377	-1.031342
O148	O	0.929696	-0.414862	-0.969224
C149	C	0.923482	-0.496688	-0.886005
C150	C	0.971311	-0.455631	-0.928390
H151	H	0.957109	-0.529670	-0.852991
H152	H	0.888142	-0.465269	-0.850135
H153	H	0.889780	-0.525553	-0.923555
H154	H	1.005057	-0.426761	-0.890892
H155	H	1.006604	-0.487086	-0.964268
O156	O	0.909477	-0.587237	-0.464213
C157	C	0.816729	-0.593922	-0.549733
C158	C	0.868223	-0.630193	-0.502335
H159	H	0.783372	-0.628638	-0.580578
H160	H	0.781242	-0.560724	-0.515991
H161	H	0.847491	-0.565549	-0.587759
H162	H	0.837518	-0.658603	-0.464301
H163	H	0.903710	-0.663354	-0.536122
