data_functionalizedCrystal
_audit_creation_method	'MofGen! by Chris Wilmer'
_symmetry_space_group_name_H-M	'P1'
_symmetry_Int_Tables_number	1
_symmetry_cell_setting	triclinic
loop_
_symmetry_equiv_pos_as_xyz
  x,y,z
_cell_length_a	17.038272
_cell_length_b	14.044220
_cell_length_c	13.101039
_cell_angle_alpha	93.667477
_cell_angle_beta	86.404528
_cell_angle_gamma	92.150217
loop_
_atom_site_label
_atom_site_type_symbol
_atom_site_fract_x
_atom_site_fract_y
_atom_site_fract_z
O1	O	1.055801	0.202095	-0.085089
O2	O	1.555801	0.702095	0.414911
O3	O	0.827941	0.198806	-0.085119
O4	O	1.327941	0.698806	0.414881
O5	O	0.938450	0.062191	-0.085095
O6	O	1.438450	0.562191	0.414905
O7	O	0.945292	0.338710	-0.085114
O8	O	1.445292	0.838710	0.414886
O9	O	0.930523	0.072010	0.085333
O10	O	1.430523	0.572010	0.585333
O11	O	0.820014	0.208625	0.085309
O12	O	1.320014	0.708625	0.585309
O13	O	1.047873	0.211914	0.085339
O14	O	1.547873	0.711914	0.585339
Zn15	Zn	0.932685	0.211829	0.112383
Zn16	Zn	1.432685	0.711829	0.612383
Zn17	Zn	0.943130	0.198891	-0.112163
Zn18	Zn	1.443130	0.698891	0.387837
O19	O	0.937364	0.348530	0.085314
O20	O	1.437364	0.848530	0.585314
C21	C	0.931492	0.031544	0.000119
C22	C	1.431492	0.531544	0.500119
C23	C	0.922561	-0.074402	0.000119
C24	C	1.422561	0.425598	0.500119
C25	C	0.794640	0.200726	0.000091
C26	C	1.294640	0.700726	0.500091
C27	C	0.707224	0.191806	0.000080
C28	C	1.207224	0.691806	0.500080
C29	C	0.906233	-0.268381	0.000103
C30	C	1.406233	0.231619	0.500103
C31	C	0.969578	-0.320905	0.000108
C32	C	1.469578	0.179095	0.500108
C33	C	0.960493	-0.428842	0.000098
C34	C	1.460493	0.071158	0.500098
C35	C	0.915317	-0.160434	0.000112
C36	C	1.415317	0.339566	0.500112
C37	C	0.662839	0.273694	0.000075
C38	C	1.162839	0.773694	0.500075
C39	C	0.580701	0.265309	0.000090
C40	C	1.080701	0.765309	0.500090
C41	C	0.542950	0.175034	0.000102
C42	C	1.042950	0.675034	0.500102
C43	C	0.587341	0.093140	0.000110
C44	C	1.087341	0.593140	0.500110
C45	C	0.669477	0.101527	0.000102
C46	C	1.169477	0.601527	0.500102
C47	C	0.295118	0.145406	0.000131
C48	C	0.795118	0.645406	0.500131
C49	C	0.212976	0.137025	0.000136
C50	C	0.712976	0.637025	0.500136
C51	C	0.206341	0.309195	0.000117
C52	C	0.706341	0.809195	0.500117
C53	C	0.288480	0.317573	0.000104
C54	C	0.788480	0.817573	0.500104
C55	C	0.332863	0.235680	0.000117
C56	C	0.832863	0.735680	0.500117
C57	C	0.458992	0.166461	0.000114
C58	C	0.958992	0.666461	0.500114
C59	C	0.416819	0.244254	0.000113
C60	C	0.916819	0.744254	0.500113
C61	C	1.081174	0.209994	0.000126
C62	C	1.581174	0.709994	0.500126
C63	C	1.168591	0.218913	0.000131
C64	C	1.668591	0.718913	0.500131
C65	C	0.944322	0.379176	0.000098
C66	C	1.444322	0.879176	0.500098
C67	C	0.953254	0.485121	0.000091
C68	C	1.453254	0.985121	0.500091
N69	N	0.925562	0.220658	0.265630
N70	N	1.425562	0.720658	0.765630
N71	N	0.950258	0.190055	-0.265410
N72	N	1.450258	0.690055	0.234590
C73	C	0.915872	0.232680	0.474670
C74	C	1.415872	0.732680	0.974670
C75	C	0.959946	0.178037	0.525556
C76	C	1.459946	0.678037	1.025556
C77	C	0.954554	0.184725	0.641873
C78	C	1.454554	0.684725	1.141873
C79	C	0.921263	0.225992	0.358342
C80	C	1.421263	0.725992	0.858342
H81	H	1.030636	-0.284815	0.000047
H82	H	1.530636	0.215185	0.500047
Br83	Br	0.520466	0.376448	0.000079
Br84	Br	1.020466	0.876448	0.500079
H85	H	0.705615	0.034845	0.000106
H86	H	1.205615	0.534845	0.500106
Br87	Br	0.714064	0.396215	0.000047
Br88	Br	1.214064	0.896215	0.500047
H89	H	0.845184	-0.304474	0.000092
H90	H	1.345184	0.195526	0.500092
Br91	Br	0.339708	0.440093	0.000075
Br92	Br	0.839708	0.940093	0.500075
Br93	Br	0.146103	0.420330	0.000100
Br94	Br	0.646103	0.920330	0.500100
Br95	Br	0.161742	0.014503	0.000174
Br96	Br	0.661742	0.514503	0.500174
Br97	Br	1.029947	0.092120	0.452572
Br98	Br	1.529947	0.592120	0.952572
Br99	Br	0.355343	0.034264	0.000152
Br100	Br	0.855343	0.534264	0.500152
Br101	Br	0.536109	-0.029376	0.000137
Br102	Br	1.036109	0.470624	0.500137
H103	H	0.447559	0.317756	0.000108
H104	H	0.947559	0.817756	0.500108
Br105	Br	0.846235	0.319022	0.547654
Br106	Br	1.346235	0.819022	1.047654
H107	H	0.428245	0.092960	0.000153
H108	H	0.928245	0.592960	0.500153
