data_functionalizedCrystal
_audit_creation_method	'MofGen! by Chris Wilmer'
_symmetry_space_group_name_H-M	'P1'
_symmetry_Int_Tables_number	1
_symmetry_cell_setting	triclinic
loop_
_symmetry_equiv_pos_as_xyz
  x,y,z
_cell_length_a	10.654541
_cell_length_b	10.489741
_cell_length_c	9.730217
_cell_angle_alpha	89.997012
_cell_angle_beta	89.999932
_cell_angle_gamma	84.511551
loop_
_atom_site_label
_atom_site_type_symbol
_atom_site_fract_x
_atom_site_fract_y
_atom_site_fract_z
O1	O	1.667922	0.179145	-0.114247
O2	O	1.302451	0.196218	-0.114259
O3	O	1.493503	0.002080	-0.114245
O4	O	1.476871	0.373284	-0.114261
O5	O	1.493497	0.002078	0.114336
O6	O	1.302445	0.196216	0.114321
O7	O	1.667916	0.179143	0.114333
Zn8	Zn	1.485180	0.187679	0.150619
Zn9	Zn	1.485188	0.187682	-0.150545
O10	O	1.476865	0.373282	0.114319
C11	C	1.255650	0.194964	0.000030
C12	C	1.116205	0.191216	0.000025
C13	C	1.088342	0.423360	-0.000003
C14	C	1.008902	0.537667	-0.000022
C15	C	0.877882	0.534137	-0.000023
C16	C	0.826301	0.416288	-0.000001
C17	C	0.905742	0.301982	0.000019
C18	C	1.036763	0.305524	0.000016
C19	C	0.933604	0.069840	0.000056
C20	C	1.064624	0.073367	0.000048
C21	C	0.882024	-0.048009	0.000078
C22	C	0.961465	-0.162318	0.000088
C23	C	1.092492	-0.158783	0.000088
C24	C	1.144065	-0.040939	0.000067
C25	C	1.492244	-0.045452	0.000045
C26	C	1.488486	-0.187080	0.000042
C27	C	1.366925	-0.255160	0.000028
C28	C	1.424346	-0.347312	0.112732
C29	C	1.424381	-0.347285	-0.112630
C30	C	1.545957	-0.277366	0.112839
C31	C	1.545974	-0.277330	-0.112624
C32	C	1.603484	-0.369454	0.000107
C33	C	1.714718	0.180397	0.000041
C34	C	1.854163	0.184146	0.000037
C35	C	1.478124	0.420814	0.000026
C36	C	1.481882	0.562441	0.000020
N37	N	1.485184	0.187677	0.356156
N38	N	1.485194	0.187674	-0.356082
C39	C	1.654430	0.015818	0.356159
C40	C	1.739061	-0.070107	0.428101
C41	C	1.739074	-0.070108	0.571980
C42	C	1.654444	0.015823	0.643922
C43	C	1.569812	0.101749	0.571980
C44	C	1.569811	0.101743	0.428097
C45	C	1.400562	0.273600	0.571977
C46	C	1.400554	0.273609	0.428097
C47	C	1.315932	0.359532	0.643918
C48	C	1.231305	0.445466	0.571977
C49	C	1.231296	0.445464	0.428088
C50	C	1.315922	0.359535	0.356156
H51	H	1.195024	0.426246	-0.000032
H52	H	1.050913	0.633617	-0.000036
H53	H	0.813200	0.627215	-0.000029
H54	H	0.719617	0.413424	0.000015
H55	H	0.775340	-0.050875	0.000085
C56	C	1.618165	-0.102615	0.240493
C57	C	1.615322	-0.235790	0.241619
H58	H	1.660978	-0.076948	0.320001
H59	H	1.661063	-0.078110	0.160572
H60	H	1.534376	-0.062470	0.240165
H61	H	1.699112	-0.275936	0.241936
H62	H	1.572427	-0.260308	0.321560
C63	C	1.353127	-0.522369	-0.240534
C64	C	1.354927	-0.389072	-0.241258
H65	H	1.310235	-0.548158	-0.319935
H66	H	1.437150	-0.561868	-0.240685
H67	H	1.310754	-0.547477	-0.160498
H68	H	1.397308	-0.363964	-0.321290
H69	H	1.270888	-0.349558	-0.241120
H70	H	1.162399	0.515419	0.630560
H71	H	1.703520	-0.418927	0.000173
C72	C	1.810886	-0.290223	0.383715
C73	C	1.832085	-0.164527	0.348979
H74	H	1.868309	-0.348503	0.334852
H75	H	1.823030	-0.302545	0.479681
H76	H	1.726943	-0.304871	0.360146
H77	H	1.916026	-0.149876	0.372557
H78	H	1.819951	-0.152200	0.252992
H79	H	1.597368	-0.246309	-0.207909
H80	H	1.162374	0.515430	0.369521
H81	H	1.654438	0.015821	0.239005
H82	H	0.919457	-0.258261	0.000105
C83	C	1.764780	-0.243444	0.733808
C84	C	1.832095	-0.164560	0.651071
H85	H	1.822208	-0.301758	0.782629
H86	H	1.714394	-0.192261	0.797229
H87	H	1.712101	-0.289828	0.677671
H88	H	1.884768	-0.118169	0.707210
H89	H	1.882503	-0.215749	0.587643
C90	C	1.562294	0.109377	0.850029
C91	C	1.654443	0.015812	0.802077
H92	H	1.562288	0.109362	0.947668
H93	H	1.580216	0.191060	0.817488
H94	H	1.481877	0.091148	0.817468
H95	H	1.734861	0.034046	0.834630
H96	H	1.636528	-0.065889	0.834632
C97	C	1.197358	0.332670	0.150058
C98	C	1.315912	0.359535	0.198001
H99	H	1.197354	0.332675	0.052419
H100	H	1.179465	0.250982	0.182612
H101	H	1.134856	0.396149	0.182613
H102	H	1.378413	0.296050	0.165454
H103	H	1.333820	0.441234	0.165432
H104	H	1.157166	-0.251866	0.000109
H105	H	1.250746	-0.038050	0.000050
H106	H	1.266979	-0.205460	0.000138
H107	H	1.372909	-0.378299	0.208011
H108	H	1.315941	0.359522	0.761073
