data_functionalizedCrystal
_audit_creation_method	'MofGen! by Chris Wilmer'
_symmetry_space_group_name_H-M	'P1'
_symmetry_Int_Tables_number	1
_symmetry_cell_setting	triclinic
loop_
_symmetry_equiv_pos_as_xyz
  x,y,z
_cell_length_a	18.215407
_cell_length_b	19.805405
_cell_length_c	18.215399
_cell_angle_alpha	89.966980
_cell_angle_beta	89.983176
_cell_angle_gamma	90.026858
loop_
_atom_site_label
_atom_site_type_symbol
_atom_site_fract_x
_atom_site_fract_y
_atom_site_fract_z
Zn1	Zn	1.125042	-0.269446	-0.416102
Zn2	Zn	1.375042	-0.019446	-0.166102
Zn3	Zn	1.625042	0.230554	0.083898
Zn4	Zn	1.875042	0.480554	0.333898
Zn5	Zn	1.124954	-0.382642	-0.293030
Zn6	Zn	1.374954	-0.132642	-0.043030
Zn7	Zn	1.624954	0.117358	0.206970
Zn8	Zn	1.874954	0.367358	0.456970
Zn9	Zn	1.001981	-0.269473	-0.293050
Zn10	Zn	1.251981	-0.019473	-0.043050
Zn11	Zn	1.501981	0.230527	0.206950
Zn12	Zn	1.751981	0.480527	0.456950
Zn13	Zn	1.001937	-0.382599	-0.416055
Zn14	Zn	1.251937	-0.132599	-0.166055
Zn15	Zn	1.501937	0.117401	0.083945
Zn16	Zn	1.751937	0.367401	0.333945
O17	O	1.063479	-0.326040	-0.354559
O18	O	1.313479	-0.076040	-0.104559
O19	O	1.563479	0.173960	0.145441
O20	O	1.813479	0.423960	0.395441
O21	O	1.228015	-0.284468	-0.399788
O22	O	1.478015	-0.034468	-0.149788
O23	O	1.728015	0.215532	0.100212
O24	O	1.978015	0.465532	0.350212
O25	O	1.108623	-0.367659	-0.190049
O26	O	1.358623	-0.117659	0.059951
O27	O	1.608623	0.132341	0.309951
O28	O	1.858623	0.382341	0.559951
O29	O	1.018361	-0.174753	-0.309401
O30	O	1.268361	0.075247	-0.059401
O31	O	1.518361	0.325247	0.190599
O32	O	1.768361	0.575247	0.440599
O33	O	1.227950	-0.367633	-0.309368
O34	O	1.477950	-0.117633	-0.059368
O35	O	1.727950	0.132367	0.190632
O36	O	1.977950	0.382367	0.440632
O37	O	1.108773	-0.174733	-0.399807
O38	O	1.358773	0.075267	-0.149807
O39	O	1.608773	0.325267	0.100193
O40	O	1.858773	0.575267	0.350193
O41	O	1.018275	-0.284514	-0.190063
O42	O	1.268275	-0.034514	0.059937
O43	O	1.518275	0.215486	0.309937
O44	O	1.768275	0.465486	0.559937
O45	O	0.898991	-0.284473	-0.309355
O46	O	1.148991	-0.034473	-0.059355
O47	O	1.398991	0.215527	0.190645
O48	O	1.648991	0.465527	0.440645
O49	O	1.018286	-0.367560	-0.519046
O50	O	1.268286	-0.117560	-0.269046
O51	O	1.518286	0.132440	-0.019046
O52	O	1.768286	0.382440	0.230954
O53	O	0.898959	-0.367586	-0.399727
O54	O	1.148959	-0.117586	-0.149727
O55	O	1.398959	0.132414	0.100273
O56	O	1.648959	0.382414	0.350273
O57	O	1.108731	-0.284427	-0.519080
O58	O	1.358731	-0.034427	-0.269080
O59	O	1.608731	0.215573	-0.019080
O60	O	1.858731	0.465573	0.230920
O61	O	1.108580	-0.477353	-0.309322
O62	O	1.358580	-0.227353	-0.059322
O63	O	1.608580	0.022647	0.190678
O64	O	1.858580	0.272647	0.440678
O65	O	1.018201	-0.477321	-0.399708
O66	O	1.268201	-0.227321	-0.149708
O67	O	1.518201	0.022679	0.100292
O68	O	1.768201	0.272679	0.350292
C69	C	0.872272	-0.326028	-0.354538
C70	C	1.122272	-0.076028	-0.104538
C71	C	1.372272	0.173972	0.145462
C72	C	1.622272	0.423972	0.395462
C73	C	0.790474	-0.326040	-0.354547
C74	C	1.040474	-0.076040	-0.104547
C75	C	1.290474	0.173960	0.145453
C76	C	1.540474	0.423960	0.395453
C77	C	0.602282	-0.369385	-0.401544
C78	C	0.852282	-0.119385	-0.151544
C79	C	1.102282	0.130615	0.098456
C80	C	1.352282	0.380615	0.348456
C81	C	0.525423	-0.369387	-0.401553
C82	C	0.775423	-0.119387	-0.151553
C83	C	1.025423	0.130613	0.098447
C84	C	1.275423	0.380613	0.348447
C85	C	0.525427	-0.282707	-0.307591
C86	C	0.775427	-0.032707	-0.057591
C87	C	1.025427	0.217293	0.192409
C88	C	1.275427	0.467293	0.442409
C89	C	0.602285	-0.282702	-0.307586
C90	C	0.852285	-0.032702	-0.057586
C91	C	1.102285	0.217298	0.192414
C92	C	1.352285	0.467298	0.442414
C93	C	0.640710	-0.326045	-0.354561
C94	C	0.890710	-0.076045	-0.104561
C95	C	1.140710	0.173955	0.145439
C96	C	1.390710	0.423955	0.395439
C97	C	0.486994	-0.326052	-0.354575
C98	C	0.736994	-0.076052	-0.104575
C99	C	0.986994	0.173948	0.145425
C100	C	1.236994	0.423948	0.395425
C101	C	0.403660	-0.326054	-0.354585
C102	C	0.653660	-0.076054	-0.104585
C103	C	0.903660	0.173946	0.145415
C104	C	1.153660	0.423946	0.395415
C105	C	0.724049	-0.326042	-0.354553
C106	C	0.974049	-0.076042	-0.104553
C107	C	1.224049	0.173958	0.145447
C108	C	1.474049	0.423958	0.395447
C109	C	1.063396	-0.501896	-0.354524
C110	C	1.313396	-0.251896	-0.104524
C111	C	1.563396	-0.001896	0.145476
C112	C	1.813396	0.248104	0.395476
C113	C	1.063428	-0.577128	-0.354533
C114	C	1.313428	-0.327128	-0.104533
C115	C	1.563428	-0.077128	0.145467
C116	C	1.813428	0.172872	0.395467
C117	C	1.110534	-0.612466	-0.307518
C118	C	1.360534	-0.362466	-0.057518
C119	C	1.610534	-0.112466	0.192482
C120	C	1.860534	0.137534	0.442482
C121	C	1.110565	-0.683154	-0.307535
C122	C	1.360565	-0.433154	-0.057535
C123	C	1.610565	-0.183154	0.192465
C124	C	1.860565	0.066846	0.442465
C125	C	1.063486	-0.718504	-0.354562
C126	C	1.313486	-0.468504	-0.104562
C127	C	1.563486	-0.218504	0.145438
C128	C	1.813486	0.031496	0.395438
C129	C	1.016378	-0.683161	-0.401582
C130	C	1.266378	-0.433161	-0.151582
C131	C	1.516378	-0.183161	0.098418
C132	C	1.766378	0.066839	0.348418
C133	C	1.016351	-0.612474	-0.401569
C134	C	1.266351	-0.362474	-0.151569
C135	C	1.516351	-0.112474	0.098431
C136	C	1.766351	0.137526	0.348431
C137	C	1.016486	-0.968234	-0.401637
C138	C	1.266486	-0.718234	-0.151637
C139	C	1.516486	-0.468234	0.098363
C140	C	1.766486	-0.218234	0.348363
C141	C	1.016515	-1.038926	-0.401645
C142	C	1.266515	-0.788926	-0.151645
C143	C	1.516515	-0.538926	0.098355
C144	C	1.766515	-0.288926	0.348355
C145	C	1.110701	-1.038915	-0.307602
C146	C	1.360701	-0.788915	-0.057602
C147	C	1.610701	-0.538915	0.192398
C148	C	1.860701	-0.288915	0.442398
C149	C	1.110674	-0.968228	-0.307589
C150	C	1.360674	-0.718228	-0.057589
C151	C	1.610674	-0.468228	0.192411
C152	C	1.860674	-0.218228	0.442411
C153	C	1.063569	-0.932891	-0.354611
C154	C	1.313569	-0.682891	-0.104611
C155	C	1.563569	-0.432891	0.145389
C156	C	1.813569	-0.182891	0.395389
C157	C	1.063536	-0.856242	-0.354594
C158	C	1.313536	-0.606242	-0.104594
C159	C	1.563536	-0.356242	0.145406
C160	C	1.813536	-0.106242	0.395406
C161	C	1.063514	-0.795151	-0.354577
C162	C	1.313514	-0.545151	-0.104577
C163	C	1.563514	-0.295151	0.145423
C164	C	1.813514	-0.045151	0.395423
C165	C	1.255432	-0.326052	-0.354581
C166	C	1.505432	-0.076052	-0.104581
C167	C	1.755432	0.173948	0.145419
C168	C	2.005432	0.423948	0.395419
C169	C	1.337231	-0.326057	-0.354590
C170	C	1.587231	-0.076057	-0.104590
C171	C	1.837231	0.173943	0.145410
C172	C	2.087231	0.423943	0.395410
C173	C	1.063514	-0.325986	-0.546512
C174	C	1.313514	-0.075986	-0.296512
C175	C	1.563514	0.174014	-0.046512
C176	C	1.813514	0.424014	0.203488
C177	C	1.063528	-0.325963	-0.628311
C178	C	1.313528	-0.075963	-0.378311
C179	C	1.563528	0.174037	-0.128311
C180	C	1.813528	0.424037	0.121689
C181	C	1.063582	-0.149497	-0.354611
C182	C	1.313582	0.100503	-0.104611
C183	C	1.563582	0.350503	0.145389
C184	C	1.813582	0.600503	0.395389
C185	C	1.063626	-0.074265	-0.354633
C186	C	1.313626	0.175735	-0.104633
C187	C	1.563626	0.425735	0.145367
C188	C	1.813626	0.675735	0.395367
C189	C	1.016524	-0.282640	-0.816514
C190	C	1.266524	-0.032640	-0.566514
C191	C	1.516524	0.217360	-0.316514
C192	C	1.766524	0.467360	-0.066514
C193	C	1.016537	-0.282627	-0.893372
C194	C	1.266537	-0.032627	-0.643372
C195	C	1.516537	0.217373	-0.393372
C196	C	1.766537	0.467373	-0.143372
C197	C	1.110620	-0.369205	-0.893347
C198	C	1.360620	-0.119205	-0.643347
C199	C	1.610620	0.130795	-0.393347
C200	C	1.860620	0.380795	-0.143347
C201	C	1.110603	-0.369221	-0.816489
C202	C	1.360603	-0.119221	-0.566489
C203	C	1.610603	0.130779	-0.316489
C204	C	1.860603	0.380779	-0.066489
C205	C	1.063556	-0.325935	-0.778075
C206	C	1.313556	-0.075935	-0.528075
C207	C	1.563556	0.174065	-0.278075
C208	C	1.813556	0.424065	-0.028075
C209	C	1.063586	-0.325905	-0.931791
C210	C	1.313586	-0.075905	-0.681791
C211	C	1.563586	0.174095	-0.431791
C212	C	1.813586	0.424095	-0.181791
C213	C	1.063600	-0.325891	-1.015125
C214	C	1.313600	-0.075891	-0.765125
C215	C	1.563600	0.174109	-0.515125
C216	C	1.813600	0.424109	-0.265125
C217	C	1.063541	-0.325950	-0.694736
C218	C	1.313541	-0.075950	-0.444736
C219	C	1.563541	0.174050	-0.194736
C220	C	1.813541	0.424050	0.055264
C221	C	1.063486	-0.326045	-0.163353
C222	C	1.313486	-0.076045	0.086647
C223	C	1.563486	0.173955	0.336647
C224	C	1.813486	0.423955	0.586647
C225	C	1.063614	-0.325877	-0.081555
C226	C	1.313614	-0.075877	0.168445
C227	C	1.563614	0.174123	0.418445
C228	C	1.813614	0.424123	0.668445
H229	H	0.633574	-0.247405	-0.269327
H230	H	0.883574	0.002595	-0.019327
H231	H	1.133574	0.252595	0.230673
H232	H	1.383574	0.502595	0.480673
H233	H	0.494132	-0.247420	-0.269344
H234	H	0.744132	0.002580	-0.019344
H235	H	0.994132	0.252580	0.230656
H236	H	1.244132	0.502580	0.480656
Cl237	Cl	0.957398	-0.228205	-0.941692
Cl238	Cl	1.207398	0.021795	-0.691692
Cl239	Cl	1.457398	0.271795	-0.441692
Cl240	Cl	1.707398	0.521795	-0.191692
H241	H	0.633566	-0.404676	-0.439797
H242	H	0.883566	-0.154676	-0.189797
H243	H	1.133566	0.095324	0.060203
H244	H	1.383566	0.345324	0.310203
H245	H	1.148904	-0.404480	-0.785192
H246	H	1.398904	-0.154480	-0.535192
H247	H	1.648904	0.095520	-0.285192
H248	H	1.898904	0.345520	-0.035192
H249	H	1.149059	-1.067694	-0.269317
H250	H	1.399059	-0.817694	-0.019317
H251	H	1.649059	-0.567694	0.230683
H252	H	1.899059	-0.317694	0.480683
Cl253	Cl	0.957196	-0.727600	-0.460708
Cl254	Cl	1.207196	-0.477600	-0.210708
Cl255	Cl	1.457196	-0.227600	0.039292
Cl256	Cl	1.707196	0.022400	0.289292
H257	H	1.148868	-0.583689	-0.269220
H258	H	1.398868	-0.333689	-0.019220
H259	H	1.648868	-0.083689	0.230780
H260	H	1.898868	0.166311	0.480780
Cl261	Cl	1.169790	-0.727576	-0.248430
Cl262	Cl	1.419790	-0.477576	0.001570
Cl263	Cl	1.669790	-0.227576	0.251570
Cl264	Cl	1.919790	0.022424	0.501570
H265	H	0.978178	-1.067705	-0.439946
H266	H	1.228178	-0.817705	-0.189946
H267	H	1.478178	-0.567705	0.060054
H268	H	1.728178	-0.317705	0.310054
Cl269	Cl	0.477117	-0.423873	-0.460622
Cl270	Cl	0.727117	-0.173873	-0.210622
Cl271	Cl	0.977117	0.076127	0.039378
Cl272	Cl	1.227117	0.326127	0.289378
Cl273	Cl	1.169862	-0.923792	-0.248467
Cl274	Cl	1.419862	-0.673792	0.001533
Cl275	Cl	1.669862	-0.423792	0.251533
Cl276	Cl	1.919862	-0.173792	0.501533
H277	H	0.978215	-0.247394	-0.785239
H278	H	1.228215	0.002606	-0.535239
H279	H	1.478215	0.252606	-0.285239
H280	H	1.728215	0.502606	-0.035239
Cl281	Cl	0.957266	-0.923820	-0.460749
Cl282	Cl	1.207266	-0.673820	-0.210749
Cl283	Cl	1.457266	-0.423820	0.039251
Cl284	Cl	1.707266	-0.173820	0.289251
H285	H	0.977993	-0.583702	-0.439854
H286	H	1.227993	-0.333702	-0.189854
H287	H	1.477993	-0.083702	0.060146
H288	H	1.727993	0.166298	0.310146
Cl289	Cl	1.169764	-0.423617	-0.941645
Cl290	Cl	1.419764	-0.173617	-0.691645
Cl291	Cl	1.669764	0.076383	-0.441645
Cl292	Cl	1.919764	0.326383	-0.191645
