data_functionalizedCrystal
_audit_creation_method	'MofGen! by Chris Wilmer'
_symmetry_space_group_name_H-M	'P1'
_symmetry_Int_Tables_number	1
_symmetry_cell_setting	triclinic
loop_
_symmetry_equiv_pos_as_xyz
  x,y,z
_cell_length_a	19.077105
_cell_length_b	18.101397
_cell_length_c	19.076919
_cell_angle_alpha	87.731459
_cell_angle_beta	89.923776
_cell_angle_gamma	87.716700
loop_
_atom_site_label
_atom_site_type_symbol
_atom_site_fract_x
_atom_site_fract_y
_atom_site_fract_z
Zn1	Zn	1.058295	-0.358273	0.440399
Zn2	Zn	1.391628	-0.024940	0.773732
Zn3	Zn	1.724961	0.308394	1.107065
Zn4	Zn	1.062943	-0.477346	0.322885
Zn5	Zn	1.396276	-0.144013	0.656219
Zn6	Zn	1.729610	0.189321	0.989552
Zn7	Zn	0.945512	-0.348352	0.318192
Zn8	Zn	1.278845	-0.015019	0.651526
Zn9	Zn	1.612179	0.318314	0.984859
Zn10	Zn	0.940765	-0.476900	0.435638
Zn11	Zn	1.274098	-0.143566	0.768971
Zn12	Zn	1.607431	0.189767	1.102305
O13	O	1.001879	-0.415218	0.379279
O14	O	1.335212	-0.081884	0.712612
O15	O	1.668545	0.251449	1.045945
O16	O	1.157243	-0.378407	0.428767
O17	O	1.490577	-0.045074	0.762100
O18	O	1.823910	0.288260	1.095433
O19	O	1.051297	-0.456270	0.223932
O20	O	1.384631	-0.122937	0.557265
O21	O	1.717964	0.210397	0.890598
O22	O	0.960514	-0.246038	0.334432
O23	O	1.293848	0.087295	0.667765
O24	O	1.627181	0.420628	1.001098
O25	O	1.160658	-0.465890	0.342430
O26	O	1.493992	-0.132556	0.675763
O27	O	1.827325	0.200777	1.009097
O28	O	1.043375	-0.253327	0.424216
O29	O	1.376709	0.080006	0.757549
O30	O	1.710042	0.413340	1.090883
O31	O	0.965021	-0.361499	0.220484
O32	O	1.298355	-0.028165	0.553817
O33	O	1.631688	0.305168	0.887151
O34	O	0.846550	-0.361066	0.329816
O35	O	1.179883	-0.027732	0.663149
O36	O	1.513217	0.305601	0.996482
O37	O	0.952423	-0.465128	0.534601
O38	O	1.285756	-0.131795	0.867934
O39	O	1.619090	0.201538	1.201267
O40	O	0.843062	-0.455509	0.416102
O41	O	1.176396	-0.122175	0.749436
O42	O	1.509729	0.211158	1.082769
O43	O	1.038772	-0.377974	0.538098
O44	O	1.372105	-0.044641	0.871431
O45	O	1.705439	0.288693	1.204765
O46	O	1.046694	-0.580917	0.337814
O47	O	1.380027	-0.247583	0.671147
O48	O	1.713361	0.085750	1.004481
O49	O	0.956930	-0.580589	0.420653
O50	O	1.290263	-0.247255	0.753986
O51	O	1.623597	0.086078	1.087320
C52	C	0.819310	-0.407163	0.371934
C53	C	1.152643	-0.073829	0.705267
C54	C	1.485976	0.259504	1.038600
C55	C	0.741205	-0.403735	0.368808
C56	C	1.074539	-0.070402	0.702141
C57	C	1.407872	0.262931	1.035475
C58	C	1.001820	-0.607624	0.379242
C59	C	1.335153	-0.274291	0.712575
C60	C	1.668486	0.059042	1.045909
C61	C	1.001858	-0.689940	0.379253
C62	C	1.335191	-0.356607	0.712586
C63	C	1.668525	-0.023274	1.045919
C64	C	0.702717	-0.451365	0.412194
C65	C	1.036050	-0.118032	0.745527
C66	C	1.369384	0.215302	1.078860
C67	C	0.629329	-0.448135	0.409260
C68	C	0.962663	-0.114802	0.742594
C69	C	1.295996	0.218532	1.075927
C70	C	0.594432	-0.397278	0.362937
C71	C	0.927765	-0.063945	0.696270
C72	C	1.261098	0.269389	1.029604
C73	C	0.632925	-0.349643	0.319549
C74	C	0.966259	-0.016310	0.652883
C75	C	1.299592	0.317023	0.986216
C76	C	0.706311	-0.352870	0.322487
C77	C	1.039645	-0.019537	0.655820
C78	C	1.372978	0.313796	0.989154
C79	C	0.375144	-0.382343	0.349345
C80	C	0.708477	-0.049010	0.682678
C81	C	1.041810	0.284323	1.016012
C82	C	0.301752	-0.379121	0.346409
C83	C	0.635086	-0.045788	0.679743
C84	C	0.968419	0.287545	1.013076
C85	C	0.298161	-0.477612	0.436122
C86	C	0.631495	-0.144279	0.769455
C87	C	0.964828	0.189054	1.102788
C88	C	0.371549	-0.480838	0.439052
C89	C	0.704882	-0.147505	0.772385
C90	C	1.038216	0.185829	1.105719
C91	C	0.410036	-0.433200	0.395667
C92	C	0.743370	-0.099867	0.729000
C93	C	1.076703	0.233466	1.062334
N94	N	0.519418	-0.393977	0.359936
N95	N	0.852751	-0.060644	0.693269
N96	N	1.186085	0.272690	1.026603
N97	N	0.485048	-0.436499	0.398672
N98	N	0.818382	-0.103165	0.732006
N99	N	1.151715	0.230168	1.065339
C100	C	1.001945	-0.989038	0.379320
C101	C	1.335278	-0.655705	0.712654
C102	C	1.668612	-0.322371	1.045987
C103	C	1.058277	-0.957876	0.327049
C104	C	1.391610	-0.624542	0.660382
C105	C	1.724943	-0.291209	0.993716
C106	C	1.058458	-0.872271	0.327197
C107	C	1.391792	-0.538938	0.660531
C108	C	1.725125	-0.205604	0.993864
C109	C	1.001902	-0.840652	0.379286
C110	C	1.335235	-0.507319	0.712619
C111	C	1.668569	-0.173985	1.045953
C112	C	1.018998	-0.875550	0.454158
C113	C	1.352331	-0.542216	0.787491
C114	C	1.685664	-0.208883	1.120825
C115	C	1.019429	-0.961201	0.453878
C116	C	1.352762	-0.627868	0.787212
C117	C	1.686095	-0.294534	1.120545
C118	C	0.928348	-0.953502	0.357355
C119	C	1.261681	-0.620168	0.690689
C120	C	1.595014	-0.286835	1.024022
C121	C	0.928782	-0.867801	0.355717
C122	C	1.262115	-0.534468	0.689050
C123	C	1.595448	-0.201135	1.022383
C124	C	1.001876	-0.756791	0.379271
C125	C	1.335209	-0.423458	0.712605
C126	C	1.668543	-0.090124	1.045938
C127	C	1.001972	-1.072899	0.379340
C128	C	1.335306	-0.739566	0.712674
C129	C	1.668639	-0.406233	1.046007
C130	C	1.185160	-0.423305	0.386653
C131	C	1.518494	-0.089971	0.719986
C132	C	1.851827	0.243362	1.053319
C133	C	1.263264	-0.426751	0.389795
C134	C	1.596597	-0.093418	0.723129
C135	C	1.929931	0.239916	1.056462
C136	C	0.994550	-0.422608	0.562558
C137	C	1.327883	-0.089275	0.895892
C138	C	1.661216	0.244059	1.229225
C139	C	0.991426	-0.425757	0.640661
C140	C	1.324760	-0.092424	0.973995
C141	C	1.658093	0.240909	1.307328
C142	C	1.001956	-0.222061	0.379331
C143	C	1.335289	0.111272	0.712665
C144	C	1.668623	0.444605	1.045998
C145	C	1.001989	-0.139750	0.379354
C146	C	1.335322	0.193584	0.712687
C147	C	1.668656	0.526917	1.046021
C148	C	1.009219	-0.407805	0.196713
C149	C	1.342553	-0.074471	0.530047
C150	C	1.675886	0.258862	0.863380
C151	C	1.012479	-0.404453	0.118616
C152	C	1.345812	-0.071119	0.451950
C153	C	1.679145	0.262214	0.785283
C154	C	1.034914	-0.381862	0.679176
C155	C	1.368247	-0.048529	1.012510
C156	C	1.701581	0.284804	1.345843
C157	C	1.031971	-0.384818	0.752562
C158	C	1.365304	-0.051485	1.085895
C159	C	1.698638	0.281848	1.419229
C160	C	0.985543	-0.431674	0.787431
C161	C	1.318877	-0.098340	1.120765
C162	C	1.652210	0.234993	1.454098
C163	C	0.942051	-0.475570	0.748911
C164	C	1.275384	-0.142237	1.082244
C165	C	1.608717	0.191096	1.415578
C166	C	0.944991	-0.472610	0.675527
C167	C	1.278324	-0.139277	1.008860
C168	C	1.611658	0.194057	1.342193
C169	C	0.971926	-0.445389	1.006712
C170	C	1.305260	-0.112056	1.340045
C171	C	1.638593	0.221278	1.673378
C172	C	0.968991	-0.448348	1.080102
C173	C	1.302324	-0.115014	1.413435
C174	C	1.635658	0.218319	1.746768
C175	C	1.058911	-0.357594	1.083747
C176	C	1.392244	-0.024261	1.417081
C177	C	1.725577	0.309072	1.750414
C178	C	1.061850	-0.354641	1.010361
C179	C	1.395183	-0.021308	1.343695
C180	C	1.728516	0.312025	1.677028
C181	C	1.018355	-0.398535	0.971847
C182	C	1.351688	-0.065202	1.305181
C183	C	1.685021	0.268131	1.638514
N184	N	0.982535	-0.434698	0.862443
N185	N	1.315869	-0.101364	1.195777
N186	N	1.649202	0.231969	1.529110
N187	N	1.021359	-0.395507	0.896837
N188	N	1.354693	-0.062173	1.230170
N189	N	1.688026	0.271160	1.563503
H190	H	0.731125	-0.492781	0.449913
H191	H	1.064459	-0.159447	0.783246
H192	H	1.397792	0.173886	1.116580
H193	H	0.273341	-0.337699	0.308692
H194	H	0.606674	-0.004366	0.642025
H195	H	0.940007	0.328968	0.975358
H196	H	0.931182	-0.486505	1.108490
H197	H	1.264515	-0.153171	1.441823
H198	H	1.597848	0.180162	1.775157
Cl199	Cl	0.908790	-0.832074	0.270627
Cl200	Cl	1.242123	-0.498740	0.603960
Cl201	Cl	1.575456	-0.165407	0.937293
Cl202	Cl	1.042548	-0.985456	0.241233
Cl203	Cl	1.375881	-0.652123	0.574566
Cl204	Cl	1.709214	-0.318789	0.907899
H205	H	0.936520	-0.481142	0.975363
H206	H	1.269853	-0.147808	1.308696
H207	H	1.603186	0.185525	1.642029
Cl208	Cl	0.860865	-0.834199	0.409823
Cl209	Cl	1.194198	-0.500866	0.743156
Cl210	Cl	1.527531	-0.167533	1.076490
H211	H	0.979094	-0.855198	0.494280
H212	H	1.312427	-0.521864	0.827613
H213	H	1.645760	-0.188531	1.160947
Cl214	Cl	0.589054	-0.285704	0.261319
Cl215	Cl	0.922387	0.047629	0.594652
Cl216	Cl	1.255720	0.380963	0.927985
H217	H	0.737648	-0.314081	0.287161
H218	H	1.070981	0.019252	0.620494
H219	H	1.404314	0.352585	0.953828
Cl220	Cl	1.042432	-0.835607	0.241637
Cl221	Cl	1.375766	-0.502274	0.574970
Cl222	Cl	1.709099	-0.168941	0.908304
Cl223	Cl	1.093287	-0.322959	0.635348
Cl224	Cl	1.426621	0.010374	0.968681
Cl225	Cl	1.759954	0.343708	1.302015
H226	H	0.406471	-0.343559	0.314013
H227	H	0.739804	-0.010225	0.647346
H228	H	1.073138	0.323108	0.980679
Cl229	Cl	1.100962	-0.847027	0.482734
Cl230	Cl	1.434296	-0.513694	0.816067
Cl231	Cl	1.767629	-0.180360	1.149400
Cl232	Cl	0.580947	-0.508015	0.463805
Cl233	Cl	0.914280	-0.174682	0.797139
Cl234	Cl	1.247614	0.158651	1.130472
H235	H	1.112558	-0.982260	0.341661
H236	H	1.445892	-0.648927	0.674995
H237	H	1.779225	-0.315594	1.008328
Cl238	Cl	1.142720	-0.845080	0.350005
Cl239	Cl	1.476054	-0.511747	0.683338
Cl240	Cl	1.809387	-0.178414	1.016671
Cl241	Cl	0.863603	-0.984534	0.416076
Cl242	Cl	1.196937	-0.651201	0.749409
Cl243	Cl	1.530270	-0.317867	1.082742
H244	H	0.912220	-0.972204	0.303550
H245	H	1.245553	-0.638870	0.636883
H246	H	1.578886	-0.305537	0.970216
H247	H	1.067385	-0.349076	0.783918
H248	H	1.400718	-0.015743	1.117251
H249	H	1.734052	0.317591	1.450584
H250	H	0.399958	-0.522253	0.476772
H251	H	0.733291	-0.188919	0.810105
H252	H	1.066624	0.144414	1.143438
Cl253	Cl	1.120219	-0.295736	0.966531
Cl254	Cl	1.453552	0.037598	1.299864
Cl255	Cl	1.786885	0.370931	1.633198
H256	H	1.073136	-0.984166	0.472138
H257	H	1.406470	-0.650833	0.805471
H258	H	1.739803	-0.317500	1.138805
H259	H	0.266817	-0.516395	0.471444
H260	H	0.600151	-0.183062	0.804777
H261	H	0.933484	0.150272	1.138111
Cl262	Cl	0.958578	-0.993269	0.516299
Cl263	Cl	1.291912	-0.659936	0.849633
Cl264	Cl	1.625245	-0.326602	1.182966
Cl265	Cl	1.113584	-0.302414	1.132169
Cl266	Cl	1.446917	0.030919	1.465502
Cl267	Cl	1.780250	0.364252	1.798835
H268	H	0.904246	-0.513718	0.777308
H269	H	1.237579	-0.180385	1.110641
H270	H	1.570912	0.152949	1.443974
Cl271	Cl	0.890316	-0.527792	0.627107
Cl272	Cl	1.223649	-0.194459	0.960441
Cl273	Cl	1.556983	0.138874	1.293774
