data_functionalizedCrystal
_audit_creation_method	'MofGen! by Chris Wilmer'
_symmetry_space_group_name_H-M	'P1'
_symmetry_Int_Tables_number	1
_symmetry_cell_setting	triclinic
loop_
_symmetry_equiv_pos_as_xyz
  x,y,z
_cell_length_a	16.959454
_cell_length_b	17.077404
_cell_length_c	17.077396
_cell_angle_alpha	90.019501
_cell_angle_beta	89.975265
_cell_angle_gamma	89.979700
loop_
_atom_site_label
_atom_site_type_symbol
_atom_site_fract_x
_atom_site_fract_y
_atom_site_fract_z
Zn1	Zn	-0.314677	-1.200070	-0.443863
Zn2	Zn	0.018657	-0.866737	-0.110530
Zn3	Zn	0.351990	-0.533403	0.222804
Zn4	Zn	-0.446865	-1.199983	-0.312606
Zn5	Zn	-0.113531	-0.866650	0.020728
Zn6	Zn	0.219802	-0.533317	0.354061
Zn7	Zn	-0.314705	-1.068802	-0.312611
Zn8	Zn	0.018629	-0.735468	0.020722
Zn9	Zn	0.351962	-0.402135	0.354056
Zn10	Zn	-0.446818	-1.068776	-0.443829
Zn11	Zn	-0.113484	-0.735443	-0.110496
Zn12	Zn	0.219849	-0.402110	0.222837
O13	O	-0.380766	-1.134408	-0.378227
O14	O	-0.047433	-0.801075	-0.044894
O15	O	0.285901	-0.467741	0.288439
O16	O	-0.332220	-1.309905	-0.426463
O17	O	0.001114	-0.976572	-0.093130
O18	O	0.334447	-0.643239	0.240203
O19	O	-0.429365	-1.182556	-0.202759
O20	O	-0.096031	-0.849223	0.130574
O21	O	0.237302	-0.515890	0.463907
O22	O	-0.204090	-1.086262	-0.330038
O23	O	0.129243	-0.752928	0.003295
O24	O	0.462577	-0.419595	0.336628
O25	O	-0.429338	-1.309842	-0.330029
O26	O	-0.096004	-0.976509	0.003304
O27	O	0.237329	-0.643175	0.336637
O28	O	-0.204070	-1.182704	-0.426469
O29	O	0.129264	-0.849371	-0.093135
O30	O	0.462597	-0.516037	0.240198
O31	O	-0.332267	-1.086178	-0.202763
O32	O	0.001066	-0.752844	0.130570
O33	O	0.334400	-0.419511	0.463903
O34	O	-0.332222	-0.958951	-0.330006
O35	O	0.001112	-0.625618	0.003328
O36	O	0.334445	-0.292285	0.336661
O37	O	-0.429258	-1.086218	-0.553681
O38	O	-0.095924	-0.752885	-0.220347
O39	O	0.237409	-0.419551	0.112986
O40	O	-0.429285	-0.958933	-0.426411
O41	O	-0.095951	-0.625599	-0.093078
O42	O	0.237382	-0.292266	0.240256
O43	O	-0.332174	-1.182679	-0.553706
O44	O	0.001159	-0.849346	-0.220372
O45	O	0.334492	-0.516012	0.112961
O46	O	-0.557469	-1.182532	-0.329996
O47	O	-0.224136	-0.849198	0.003337
O48	O	0.109197	-0.515865	0.336670
O49	O	-0.557435	-1.086134	-0.426406
O50	O	-0.224101	-0.752801	-0.093072
O51	O	0.109232	-0.419468	0.240261
C52	C	-0.380752	-0.930460	-0.378206
C53	C	-0.047418	-0.597127	-0.044872
C54	C	0.285915	-0.263793	0.288461
C55	C	-0.380764	-0.843210	-0.378215
C56	C	-0.047431	-0.509877	-0.044882
C57	C	0.285902	-0.176544	0.288452
C58	C	-0.586132	-1.134342	-0.378214
C59	C	-0.252799	-0.801009	-0.044881
C60	C	0.080534	-0.467675	0.288453
C61	C	-0.673989	-1.134386	-0.378235
C62	C	-0.340655	-0.801052	-0.044901
C63	C	-0.007322	-0.467719	0.288432
C64	C	-0.380708	-1.134455	-0.582972
C65	C	-0.047374	-0.801122	-0.249638
C66	C	0.285959	-0.467789	0.083695
C67	C	-0.380683	-1.134476	-0.670222
C68	C	-0.047350	-0.801142	-0.336888
C69	C	0.285984	-0.467809	-0.003555
C70	C	-1.045476	-1.084287	-0.428422
C71	C	-0.712143	-0.750953	-0.095089
C72	C	-0.378810	-0.417620	0.238244
C73	C	-1.045452	-1.184748	-0.328112
C74	C	-0.712119	-0.851414	0.005221
C75	C	-0.378786	-0.518081	0.338554
C76	C	-0.962906	-1.184720	-0.328105
C77	C	-0.629573	-0.851387	0.005228
C78	C	-0.296240	-0.518054	0.338562
C79	C	-0.921642	-1.134474	-0.378256
C80	C	-0.588308	-0.801141	-0.044923
C81	C	-0.254975	-0.467808	0.288410
C82	C	-0.962923	-1.084256	-0.428415
C83	C	-0.629589	-0.750923	-0.095082
C84	C	-0.296256	-0.417589	0.238252
C85	C	-0.921619	-1.234932	-0.277942
C86	C	-0.588286	-0.901599	0.055392
C87	C	-0.254952	-0.568266	0.388725
C88	C	-0.839068	-1.234906	-0.277932
C89	C	-0.505735	-0.901573	0.055401
C90	C	-0.172401	-0.568240	0.388735
C91	C	-0.797802	-1.184664	-0.328088
C92	C	-0.464469	-0.851330	0.005245
C93	C	-0.131135	-0.517997	0.338579
C94	C	-0.839088	-1.134444	-0.378249
C95	C	-0.505755	-0.801110	-0.044916
C96	C	-0.172421	-0.467777	0.288418
C97	C	-0.797823	-1.084198	-0.428400
C98	C	-0.464490	-0.750865	-0.095067
C99	C	-0.131157	-0.417531	0.238266
C100	C	-0.839108	-1.033981	-0.478566
C101	C	-0.505775	-0.700648	-0.145233
C102	C	-0.172441	-0.367315	0.188100
C103	C	-0.921657	-1.034013	-0.478571
C104	C	-0.588323	-0.700680	-0.145238
C105	C	-0.254990	-0.367347	0.188096
C106	C	-0.715254	-1.184632	-0.328083
C107	C	-0.381920	-0.851298	0.005250
C108	C	-0.048587	-0.517965	0.338584
C109	C	-0.715270	-1.084167	-0.428393
C110	C	-0.381937	-0.750834	-0.095060
C111	C	-0.048603	-0.417501	0.238274
C112	C	-0.174598	-1.134495	-0.378258
C113	C	0.158736	-0.801162	-0.044925
C114	C	0.492069	-0.467829	0.288409
C115	C	-0.086741	-1.134533	-0.378271
C116	C	0.246592	-0.801199	-0.044938
C117	C	0.579926	-0.467866	0.288396
C118	C	-0.380781	-1.339152	-0.378250
C119	C	-0.047448	-1.005819	-0.044916
C120	C	0.285886	-0.672485	0.288417
C121	C	-0.380787	-1.426402	-0.378259
C122	C	-0.047454	-1.093069	-0.044926
C123	C	0.285879	-0.759735	0.288408
C124	C	-0.431381	-0.802231	-0.428333
C125	C	-0.098048	-0.468897	-0.094999
C126	C	0.235285	-0.135564	0.238334
C127	C	-0.431383	-0.720250	-0.428345
C128	C	-0.098050	-0.386917	-0.095012
C129	C	0.235284	-0.053584	0.238321
C130	C	-0.380771	-0.679251	-0.378236
C131	C	-0.047438	-0.345917	-0.044902
C132	C	0.285895	-0.012584	0.288431
C133	C	-0.330149	-0.720236	-0.328116
C134	C	0.003185	-0.386903	0.005218
C135	C	0.336518	-0.053569	0.338551
C136	C	-0.330144	-0.802215	-0.328108
C137	C	0.003190	-0.468882	0.005226
C138	C	0.336523	-0.135548	0.338559
C139	C	-0.330164	-0.549366	-0.328134
C140	C	0.003169	-0.216033	0.005199
C141	C	0.336502	0.117301	0.338532
C142	C	-0.330170	-0.467381	-0.328141
C143	C	0.003163	-0.134048	0.005192
C144	C	0.336496	0.199285	0.338525
C145	C	-0.431404	-0.467401	-0.428372
C146	C	-0.098070	-0.134068	-0.095039
C147	C	0.235263	0.199265	0.238294
C148	C	-0.431399	-0.549380	-0.428364
C149	C	-0.098065	-0.216047	-0.095031
C150	C	0.235268	0.117286	0.238302
C151	C	-0.380777	-0.590360	-0.378243
C152	C	-0.047444	-0.257026	-0.044910
C153	C	0.285890	0.076307	0.288424
C154	C	-0.330127	-1.184705	-0.711226
C155	C	0.003206	-0.851371	-0.377893
C156	C	0.336539	-0.518038	-0.044559
C157	C	-0.330101	-1.184714	-0.793206
C158	C	0.003232	-0.851381	-0.459873
C159	C	0.336566	-0.518047	-0.126540
C160	C	-0.380635	-1.134498	-0.834181
C161	C	-0.047301	-0.801165	-0.500848
C162	C	0.286032	-0.467831	-0.167514
C163	C	-0.431193	-1.084263	-0.793171
C164	C	-0.097859	-0.750930	-0.459838
C165	C	0.235474	-0.417597	-0.126504
C166	C	-0.431214	-1.084250	-0.711192
C167	C	-0.097881	-0.750917	-0.377859
C168	C	0.235452	-0.417584	-0.044525
C169	C	-0.431145	-1.084295	-0.964041
C170	C	-0.097812	-0.750962	-0.630708
C171	C	0.235522	-0.417628	-0.297374
C172	C	-0.431125	-1.084309	-1.046026
C173	C	-0.097791	-0.750975	-0.712692
C174	C	0.235542	-0.417642	-0.379359
C175	C	-0.330032	-1.184759	-1.046056
C176	C	0.003302	-0.851425	-0.712722
C177	C	0.336635	-0.518092	-0.379389
C178	C	-0.330053	-1.184746	-0.964077
C179	C	0.003280	-0.851412	-0.630743
C180	C	0.336613	-0.518079	-0.297410
C181	C	-0.380613	-1.134512	-0.923072
C182	C	-0.047279	-0.801179	-0.589739
C183	C	0.286054	-0.467845	-0.256405
C184	C	-0.380767	-1.134406	-0.174279
C185	C	-0.047434	-0.801072	0.159054
C186	C	0.285900	-0.467739	0.492387
C187	C	-0.380569	-1.134538	-0.087030
C188	C	-0.047236	-0.801204	0.246303
C189	C	0.286098	-0.467871	0.579637
H190	H	-0.681677	-1.043254	-0.469236
H191	H	-0.348344	-0.709920	-0.135902
H192	H	-0.015010	-0.376587	0.197431
H193	H	-0.805501	-0.993067	-0.519396
H194	H	-0.472168	-0.659734	-0.186063
H195	H	-0.138834	-0.326400	0.147270
H196	H	-0.288948	-0.434002	-0.287347
H197	H	0.044385	-0.100668	0.045987
H198	H	0.377718	0.232665	0.379320
H199	H	-0.955278	-0.993129	-0.519412
H200	H	-0.621945	-0.659796	-0.186079
H201	H	-0.288611	-0.326462	0.147254
Cl202	Cl	-1.097374	-1.021164	-0.491488
Cl203	Cl	-0.764041	-0.687831	-0.158155
Cl204	Cl	-0.430707	-0.354497	0.175179
Cl205	Cl	-0.494770	-1.021100	-0.659643
Cl206	Cl	-0.161437	-0.687767	-0.326310
Cl207	Cl	0.171897	-0.354434	0.007023
Cl208	Cl	-0.495015	-0.853765	-0.491328
Cl209	Cl	-0.161682	-0.520432	-0.157995
Cl210	Cl	0.171651	-0.187098	0.175339
Cl211	Cl	-0.266517	-0.668693	-0.265125
Cl212	Cl	0.066817	-0.335360	0.068208
Cl213	Cl	0.400150	-0.002027	0.401542
H214	H	-0.472303	-1.043377	-0.930658
H215	H	-0.138970	-0.710044	-0.597324
H216	H	0.194363	-0.376710	-0.263991
H217	H	-0.472335	-1.043373	-0.826539
H218	H	-0.139002	-0.710040	-0.493206
H219	H	0.194332	-0.376707	-0.159872
H220	H	-0.288936	-1.225617	-0.826589
H221	H	0.044398	-0.892284	-0.493255
H222	H	0.377731	-0.558951	-0.159922
H223	H	-0.805459	-1.275796	-0.237085
H224	H	-0.472126	-0.942462	0.096248
H225	H	-0.138793	-0.609129	0.429581
H226	H	-0.681643	-1.225514	-0.287235
H227	H	-0.348310	-0.892180	0.046098
H228	H	-0.014977	-0.558847	0.379431
H229	H	-0.288922	-0.835579	-0.287301
H230	H	0.044411	-0.502246	0.046033
H231	H	0.377745	-0.168913	0.379366
Cl232	Cl	-1.097329	-1.247911	-0.265069
Cl233	Cl	-0.763995	-0.914578	0.068264
Cl234	Cl	-0.430662	-0.581244	0.401598
H235	H	-0.472601	-0.686889	-0.469156
H236	H	-0.139268	-0.353555	-0.135822
H237	H	0.194065	-0.020222	0.197511
Cl238	Cl	-0.973498	-1.298099	-0.214904
Cl239	Cl	-0.640164	-0.964766	0.118430
Cl240	Cl	-0.306831	-0.631432	0.451763
Cl241	Cl	-0.495031	-0.600922	-0.491355
Cl242	Cl	-0.161698	-0.267588	-0.158022
Cl243	Cl	0.171635	0.065745	0.175312
H244	H	-0.472620	-0.434032	-0.469185
H245	H	-0.139286	-0.100699	-0.135852
H246	H	0.194047	0.232635	0.197482
H247	H	-0.288936	-0.582729	-0.287327
H248	H	0.044398	-0.249396	0.046006
H249	H	0.377731	0.083938	0.379339
Cl250	Cl	-0.266599	-1.247841	-0.659723
Cl251	Cl	0.066734	-0.914508	-0.326390
Cl252	Cl	0.400067	-0.581175	0.006944
Cl253	Cl	-0.266529	-1.247880	-0.912566
Cl254	Cl	0.066804	-0.914547	-0.579233
Cl255	Cl	0.400138	-0.581214	-0.245900
H256	H	-0.288863	-1.225659	-1.079445
H257	H	0.044470	-0.892326	-0.746112
H258	H	0.377803	-0.558993	-0.412779
H259	H	-0.472272	-1.043416	-1.079385
H260	H	-0.138939	-0.710083	-0.746052
H261	H	0.194395	-0.376750	-0.412718
