data_functionalizedCrystal
_audit_creation_method	'MofGen! by Chris Wilmer'
_symmetry_space_group_name_H-M	'P1'
_symmetry_Int_Tables_number	1
_symmetry_cell_setting	triclinic
loop_
_symmetry_equiv_pos_as_xyz
  x,y,z
_cell_length_a	10.654545
_cell_length_b	10.723024
_cell_length_c	9.730223
_cell_angle_alpha	90.001806
_cell_angle_beta	90.003032
_cell_angle_gamma	84.475474
loop_
_atom_site_label
_atom_site_type_symbol
_atom_site_fract_x
_atom_site_fract_y
_atom_site_fract_z
O1	O	1.667817	0.175245	0.114272
O2	O	1.302335	0.191950	0.114278
O3	O	1.493506	0.002023	0.114270
O4	O	1.476645	0.365173	0.114280
O5	O	1.493492	0.002023	-0.114310
O6	O	1.302321	0.191950	-0.114302
O7	O	1.667803	0.175245	-0.114308
Zn8	Zn	1.485060	0.183598	-0.150597
Zn9	Zn	1.485078	0.183598	0.150567
O10	O	1.476632	0.365173	-0.114300
C11	C	1.255530	0.190725	-0.000011
C12	C	1.116087	0.187059	-0.000009
C13	C	1.050576	0.185333	-0.124609
C14	C	0.919557	0.181867	-0.124609
C15	C	0.919572	0.181859	0.124601
C16	C	1.050590	0.185315	0.124600
C17	C	1.492272	-0.044477	-0.000018
C18	C	1.488601	-0.183032	-0.000014
C19	C	1.595571	-0.258000	-0.000013
C20	C	1.591779	-0.401204	-0.000008
C21	C	1.714608	0.176471	-0.000015
C22	C	1.854051	0.180137	-0.000008
C23	C	1.477866	0.411672	-0.000008
C24	C	1.481537	0.550227	-0.000004
N25	N	1.485057	0.183597	-0.356133
C26	C	1.561877	0.259988	-0.428053
C27	C	1.561898	0.259981	-0.571936
C28	C	1.408268	0.107189	-0.571967
C29	C	1.408254	0.107190	-0.428086
N30	N	1.485091	0.183588	0.356103
H31	H	0.866228	0.180441	0.226053
C32	C	1.122620	0.187236	-0.261683
N33	N	1.176881	0.188663	-0.364931
H34	H	1.103931	0.186717	0.226070
C35	C	0.847498	0.179984	-0.261679
N36	N	0.793224	0.178569	-0.364926
H37	H	1.683353	-0.465625	-0.000014
H38	H	1.389957	-0.385360	-0.000014
C39	C	1.723089	-0.201490	-0.000025
N40	N	1.819139	-0.158929	-0.000039
H41	H	1.394214	-0.224867	-0.000003
C42	C	1.646373	0.344026	-0.348910
N43	N	1.710023	0.407322	-0.289303
H44	H	1.624454	0.322185	-0.630487
C45	C	1.323776	0.023159	-0.651128
N46	N	1.260130	-0.040129	-0.710752
C47	C	1.323740	0.023151	-0.348970
N48	N	1.260089	-0.040146	-0.289379
