data_functionalizedCrystal
_audit_creation_method	'MofGen! by Chris Wilmer'
_symmetry_space_group_name_H-M	'P1'
_symmetry_Int_Tables_number	1
_symmetry_cell_setting	triclinic
loop_
_symmetry_equiv_pos_as_xyz
  x,y,z
_cell_length_a	9.065215
_cell_length_b	14.971482
_cell_length_c	13.448316
_cell_angle_alpha	89.993798
_cell_angle_beta	90.005418
_cell_angle_gamma	95.686347
loop_
_atom_site_label
_atom_site_type_symbol
_atom_site_fract_x
_atom_site_fract_y
_atom_site_fract_z
O1	O	-0.192236	1.188381	-0.082676
O2	O	-0.215265	0.928152	-0.082681
O3	O	0.011002	1.063647	-0.082675
O4	O	-0.418502	1.052886	-0.082683
O5	O	0.011016	1.063629	0.082709
O6	O	-0.215251	0.928134	0.082703
O7	O	-0.192222	1.188364	0.082707
Cu8	Cu	-0.203735	1.058247	0.097806
Cu9	Cu	-0.203752	1.058268	-0.097780
O10	O	-0.418488	1.052869	0.082701
C11	C	-0.214229	0.894811	0.000010
C12	C	-0.211146	0.795491	0.000009
C13	C	-0.209686	0.748826	0.090160
C14	C	-0.206765	0.655505	0.090162
C15	C	-0.205315	0.608851	0.000010
C16	C	-0.206770	0.655523	-0.090149
C17	C	-0.209680	0.748842	-0.090149
C18	C	-0.200708	0.461016	-0.090142
C19	C	-0.197801	0.367690	-0.090143
C20	C	-0.197793	0.367679	0.090168
C21	C	-0.200703	0.460998	0.090168
C22	C	-0.202161	0.507663	0.000009
C23	C	-0.473461	1.053911	0.000008
C24	C	-0.637241	1.057001	0.000005
C25	C	0.065974	1.062604	0.000016
C26	C	0.229755	1.059514	0.000012
C27	C	-0.193257	1.221705	0.000014
C28	C	-0.196341	1.321025	0.000009
N29	N	-0.203723	1.058240	0.235370
N30	N	-0.203752	1.058283	-0.235344
C31	C	-0.103573	1.118256	0.287413
C32	C	-0.103572	1.118261	0.391517
C33	C	-0.203728	1.058254	0.443575
C34	C	-0.303883	0.998232	0.391524
C35	C	-0.303876	0.998222	0.287423
C36	C	-0.303893	0.998257	0.608505
C37	C	-0.303902	0.998267	0.712613
C38	C	-0.103589	1.118296	0.712598
C39	C	-0.103582	1.118286	0.608497
C40	C	-0.203738	1.058264	0.556453
H41	H	-0.201893	0.498981	0.163578
H42	H	-0.210879	0.786804	0.163573
F43	F	-0.205232	0.605844	0.186114
F44	F	-0.196241	0.318014	0.186123
H45	H	-0.385446	0.949377	0.566134
H46	H	-0.196621	0.329706	-0.163552
H47	H	-0.201896	0.499008	-0.163560
F48	F	-0.205182	0.605870	-0.186096
H49	H	-0.022038	1.167167	0.754978
F50	F	-0.410465	0.934342	0.232036
H51	H	-0.022034	1.167153	0.566111
F52	F	-0.211229	0.798506	-0.186101
F53	F	0.003020	1.182136	0.446905
F54	F	0.003023	1.182129	0.232019
F55	F	-0.410501	0.934397	0.768010
F56	F	-0.410472	0.934362	0.446930
