data_functionalizedCrystal
_audit_creation_method	'MofGen! by Chris Wilmer'
_symmetry_space_group_name_H-M	'P1'
_symmetry_Int_Tables_number	1
_symmetry_cell_setting	triclinic
loop_
_symmetry_equiv_pos_as_xyz
  x,y,z
_cell_length_a	21.295417
_cell_length_b	16.959455
_cell_length_c	16.959447
_cell_angle_alpha	89.977004
_cell_angle_beta	89.964725
_cell_angle_gamma	90.027526
loop_
_atom_site_label
_atom_site_type_symbol
_atom_site_fract_x
_atom_site_fract_y
_atom_site_fract_z
Zn1	Zn	-0.250646	1.208347	-0.447010
Zn2	Zn	0.249354	1.708347	0.052990
Zn3	Zn	-0.355923	1.208239	-0.314820
Zn4	Zn	0.144077	1.708239	0.185180
Zn5	Zn	-0.250666	1.076169	-0.314833
Zn6	Zn	0.249334	1.576169	0.185167
Zn7	Zn	-0.355876	1.076116	-0.446944
Zn8	Zn	0.144124	1.576116	0.053056
O9	O	-0.303278	1.142218	-0.380902
O10	O	0.196722	1.642218	0.119098
O11	O	-0.264623	1.318944	-0.429496
O12	O	0.235377	1.818944	0.070504
O13	O	-0.341989	1.190697	-0.204211
O14	O	0.158011	1.690697	0.295789
O15	O	-0.162574	1.093770	-0.332399
O16	O	0.337426	1.593770	0.167601
O17	O	-0.341969	1.318864	-0.332377
O18	O	0.158031	1.818864	0.167623
O19	O	-0.162560	1.190881	-0.429509
O20	O	0.337440	1.690881	0.070491
O21	O	-0.264657	1.093666	-0.204220
O22	O	0.235343	1.593666	0.295780
O23	O	-0.264611	0.965551	-0.332336
O24	O	0.235389	1.465551	0.167664
O25	O	-0.341889	1.093679	-0.557564
O26	O	0.158111	1.593679	-0.057564
O27	O	-0.341908	0.965512	-0.429398
O28	O	0.158092	1.465512	0.070602
O29	O	-0.264577	1.190829	-0.557612
O30	O	0.235423	1.690829	-0.057612
O31	O	-0.444006	1.190646	-0.332313
O32	O	0.055994	1.690646	0.167687
O33	O	-0.443972	1.093575	-0.429385
O34	O	0.056028	1.593575	0.070615
C35	C	-0.303257	0.936852	-0.380862
C36	C	0.196743	1.436852	0.119138
C37	C	-0.303264	0.848995	-0.380864
C38	C	0.196736	1.348995	0.119136
C39	C	-0.343512	0.477468	-0.330306
C40	C	0.156488	0.977468	0.169694
C41	C	-0.263096	0.477571	-0.431594
C42	C	0.236904	0.977571	0.068406
C43	C	-0.263085	0.560117	-0.431574
C44	C	0.236915	1.060117	0.068426
C45	C	-0.303290	0.601342	-0.380921
C46	C	0.196710	1.101342	0.119079
C47	C	-0.343505	0.560021	-0.330287
C48	C	0.156495	1.060021	0.169713
C49	C	-0.222876	0.601444	-0.482213
C50	C	0.277124	1.101444	0.017787
C51	C	-0.222864	0.683995	-0.482197
C52	C	0.277136	1.183995	0.017803
C53	C	-0.263066	0.725222	-0.431539
C54	C	0.236934	1.225222	0.068461
C55	C	-0.303282	0.683896	-0.380902
C56	C	0.196718	1.183896	0.119098
C57	C	-0.343486	0.725121	-0.330248
C58	C	0.156514	1.225121	0.169752
C59	C	-0.383700	0.683796	-0.279607
C60	C	0.116300	1.183796	0.220393
C61	C	-0.383706	0.601248	-0.279629
C62	C	0.116294	1.101248	0.220371
C63	C	-0.263059	0.807770	-0.431517
C64	C	0.236941	1.307770	0.068483
C65	C	-0.343479	0.807674	-0.330229
C66	C	0.156521	1.307674	0.169771
C67	C	-0.466830	1.142114	-0.380858
C68	C	0.033170	1.642114	0.119142
C69	C	-0.536798	1.142142	-0.380866
C70	C	-0.036798	1.642142	0.119134
C71	C	-0.569661	1.192732	-0.330372
C72	C	-0.069661	1.692732	0.169628
C73	C	-0.635404	1.192769	-0.330390
C74	C	-0.135404	1.692769	0.169610
C75	C	-0.668280	1.142202	-0.380893
C76	C	-0.168280	1.642202	0.119107
C77	C	-0.635409	1.091609	-0.431396
C78	C	-0.135409	1.591609	0.068604
C79	C	-0.569667	1.091579	-0.431382
C80	C	-0.069667	1.591579	0.068618
N81	N	-0.771543	1.073056	-0.386905
N82	N	-0.271543	1.573056	0.113095
N83	N	-0.833994	1.073087	-0.386914
N84	N	-0.333994	1.573087	0.113086
C85	C	-0.866355	1.142291	-0.380938
C86	C	-0.366355	1.642291	0.119062
N87	N	-0.833905	1.211465	-0.374939
N88	N	-0.333905	1.711465	0.125061
N89	N	-0.771448	1.211433	-0.374926
N90	N	-0.271448	1.711433	0.125074
C91	C	-0.739566	1.142230	-0.380914
C92	C	-0.239566	1.642230	0.119086
C93	C	-0.970504	1.192925	-0.330462
C94	C	-0.470504	1.692925	0.169538
C95	C	-1.036248	1.192963	-0.330485
C96	C	-0.536248	1.692963	0.169515
C97	C	-1.036251	1.091796	-0.431487
C98	C	-0.536251	1.591796	0.068513
C99	C	-0.970509	1.091765	-0.431467
C100	C	-0.470509	1.591765	0.068533
C101	C	-0.937639	1.142328	-0.380951
C102	C	-0.437639	1.642328	0.119049
C103	C	-0.139088	1.142343	-0.380963
C104	C	0.360912	1.642343	0.119037
C105	C	-0.069120	1.142397	-0.380989
C106	C	0.430880	1.642397	0.119011
C107	C	-0.303226	1.142260	-0.587070
C108	C	0.196774	1.642260	-0.087070
C109	C	-0.303203	1.142278	-0.674927
C110	C	0.196797	1.642278	-0.174927
C111	C	-0.303299	1.348386	-0.380942
C112	C	0.196701	1.848386	0.119058
C113	C	-0.303308	1.436243	-0.380959
C114	C	0.196692	1.936243	0.119041
C115	C	-0.262874	1.091828	-1.046414
C116	C	0.237126	1.591828	-0.546414
C117	C	-0.343400	1.192868	-1.046391
C118	C	0.156600	1.692868	-0.546391
C119	C	-0.343415	1.192854	-0.963845
C120	C	0.156585	1.692854	-0.463845
C121	C	-0.303159	1.142326	-0.922580
C122	C	0.196841	1.642326	-0.422580
C123	C	-0.262889	1.091811	-0.963860
C124	C	0.237111	1.591811	-0.463860
C125	C	-0.383689	1.243362	-0.922559
C126	C	0.116311	1.743362	-0.422559
C127	C	-0.383706	1.243349	-0.840008
C128	C	0.116294	1.743349	-0.340008
C129	C	-0.343446	1.192825	-0.798741
C130	C	0.156554	1.692825	-0.298741
C131	C	-0.303174	1.142309	-0.840026
C132	C	0.196826	1.642309	-0.340026
C133	C	-0.262918	1.091781	-0.798761
C134	C	0.237082	1.591781	-0.298761
C135	C	-0.222642	1.041268	-0.840045
C136	C	0.277358	1.541268	-0.340045
C137	C	-0.222629	1.041287	-0.922593
C138	C	0.277371	1.541287	-0.422593
C139	C	-0.343459	1.192806	-0.716192
C140	C	0.156541	1.692806	-0.216192
C141	C	-0.262933	1.091764	-0.716207
C142	C	0.237067	1.591764	-0.216207
C143	C	-0.303285	1.142221	-0.175535
C144	C	0.196715	1.642221	0.324465
C145	C	-0.303130	1.142356	-0.087679
C146	C	0.196870	1.642356	0.412321
H147	H	-0.230320	0.841413	-0.472750
H148	H	0.269680	1.341413	0.027250
F149	F	-1.071236	1.037984	-0.485240
F150	F	-0.571236	1.537984	0.014760
H151	H	-0.230367	0.444001	-0.472838
H152	H	0.269633	0.944001	0.027162
F153	F	-0.426490	0.727680	-0.225704
F154	F	0.073510	1.227680	0.274296
H155	H	-0.542901	1.233905	-0.289241
H156	H	-0.042901	1.733905	0.210759
F157	F	-0.220083	1.037988	-0.672296
F158	F	0.279917	1.537988	-0.172296
F159	F	-0.220009	1.038075	-1.090351
F160	F	0.279991	1.538075	-0.590351
F161	F	-0.180098	0.557566	-0.536128
F162	F	0.319902	1.057566	-0.036128
H163	H	-0.662167	1.233968	-0.289273
H164	H	-0.162167	1.733968	0.210727
F165	F	-0.386246	1.246634	-1.090311
F166	F	0.113754	1.746634	-0.590311
H167	H	-0.662181	1.050439	-0.472517
H168	H	-0.162181	1.550439	0.027483
F169	F	-0.426569	1.297111	-0.796077
F170	F	0.073431	1.797111	-0.296077
F171	F	-0.426535	1.297126	-0.966480
F172	F	0.073465	1.797126	-0.466480
H173	H	-0.189868	1.000125	-0.806436
H174	H	0.310132	1.500125	-0.306436
H175	H	-0.190120	0.717635	-0.523432
H176	H	0.309880	1.217635	-0.023432
H177	H	-0.376251	0.443818	-0.289073
H178	H	0.123749	0.943818	0.210927
F179	F	-0.935520	1.246737	-0.276698
F180	F	-0.435520	1.746737	0.223302
F181	F	-0.935531	1.037917	-0.485207
F182	F	-0.435531	1.537917	0.014793
H183	H	-0.542909	1.050382	-0.472501
H184	H	-0.042909	1.550382	0.027499
F185	F	-1.071224	1.246816	-0.276745
F186	F	-0.571224	1.746816	0.223255
H187	H	-0.189839	1.000161	-0.956214
H188	H	0.310161	1.500161	-0.456214
F189	F	-0.386325	1.246556	-0.672258
F190	F	0.113675	1.746556	-0.172258
H191	H	-0.416445	0.567594	-0.238399
H192	H	0.083555	1.067594	0.261601
F193	F	-0.386267	0.851542	-0.276311
F194	F	0.113733	1.351542	0.223689
