data_functionalizedCrystal
_audit_creation_method	'MofGen! by Chris Wilmer'
_symmetry_space_group_name_H-M	'P1'
_symmetry_Int_Tables_number	1
_symmetry_cell_setting	triclinic
loop_
_symmetry_equiv_pos_as_xyz
  x,y,z
_cell_length_a	19.077105
_cell_length_b	29.839131
_cell_length_c	19.076919
_cell_angle_alpha	92.267459
_cell_angle_beta	90.076224
_cell_angle_gamma	87.737628
loop_
_atom_site_label
_atom_site_type_symbol
_atom_site_fract_x
_atom_site_fract_y
_atom_site_fract_z
Zn1	Zn	1.058171	-0.217337	-0.440392
Zn2	Zn	1.062777	-0.289569	-0.322877
Zn3	Zn	0.945391	-0.211319	-0.318186
Zn4	Zn	0.940599	-0.289298	-0.435629
O5	O	1.001735	-0.251881	-0.379271
O6	O	1.157112	-0.229551	-0.428760
O7	O	1.051139	-0.276784	-0.223924
O8	O	0.960429	-0.149253	-0.334427
O9	O	1.160497	-0.282620	-0.342422
O10	O	1.043288	-0.153674	-0.424211
O11	O	0.964896	-0.219294	-0.220477
O12	O	0.846425	-0.219031	-0.329809
O13	O	0.952262	-0.282158	-0.534592
O14	O	0.842904	-0.276322	-0.416094
O15	O	1.038641	-0.229288	-0.538091
O16	O	1.046493	-0.352398	-0.337803
O17	O	0.956729	-0.352199	-0.420642
C18	C	0.819169	-0.246995	-0.371926
C19	C	0.741065	-0.244915	-0.368801
C20	C	0.702560	-0.273809	-0.412186
C21	C	0.629174	-0.271849	-0.409252
C22	C	0.594294	-0.240998	-0.362930
C23	C	0.632804	-0.212102	-0.319543
C24	C	0.706189	-0.214059	-0.322481
C25	C	0.375011	-0.231938	-0.349338
C26	C	0.301621	-0.229984	-0.346403
C27	C	0.297996	-0.289731	-0.436113
C28	C	0.371382	-0.291688	-0.439043
C29	C	0.409886	-0.262790	-0.395659
N30	N	0.519281	-0.238996	-0.359929
N31	N	0.484897	-0.264790	-0.398664
C32	C	1.001609	-0.368599	-0.379231
C33	C	1.001619	-0.418534	-0.379240
C34	C	1.048554	-0.728276	-0.336206
C35	C	1.048639	-0.915952	-0.336237
O36	O	1.088445	-0.940297	-0.299616
N37	N	1.001878	-0.939328	-0.379330
C38	C	0.955095	-0.915782	-0.422422
O39	O	0.915329	-0.939972	-0.459082
C40	C	0.955014	-0.728107	-0.422395
C41	C	1.001773	-0.704734	-0.379293
C42	C	1.095310	-0.704902	-0.293109
C43	C	1.095285	-0.657986	-0.293099
C44	C	1.048505	-0.634443	-0.336186
C45	C	1.001749	-0.657817	-0.379283
C46	C	0.908235	-0.704563	-0.465490
C47	C	0.908220	-0.657641	-0.465480
C48	C	0.954979	-0.634267	-0.422379
C49	C	0.954944	-0.587358	-0.422360
N50	N	1.001705	-0.563982	-0.379267
C51	C	1.048485	-0.587525	-0.336180
C52	C	0.955141	-1.014314	-0.422432
C53	C	0.955160	-1.061233	-0.422439
C54	C	1.048705	-1.061399	-0.336254
C55	C	1.048682	-1.014480	-0.336245
C56	C	1.001902	-0.990938	-0.379339
C57	C	1.048430	-0.488997	-0.336161
C58	C	1.048399	-0.442077	-0.336153
C59	C	0.954857	-0.441914	-0.422340
C60	C	0.954885	-0.488831	-0.422346
C61	C	1.001677	-0.512371	-0.379255
O62	O	0.915164	-0.562985	-0.458967
O63	O	1.088256	-0.563328	-0.299537
C64	C	1.048578	-0.775192	-0.336216
C65	C	1.001822	-0.798566	-0.379313
C66	C	0.955041	-0.775024	-0.422401
C67	C	1.001841	-0.845485	-0.379319
C68	C	1.048622	-0.869027	-0.336232
C69	C	1.095383	-0.845651	-0.293139
C70	C	1.095359	-0.798735	-0.293129
C71	C	0.908280	-0.798400	-0.465494
C72	C	0.908308	-0.845316	-0.465500
C73	C	0.955089	-0.868859	-0.422413
C74	C	1.185013	-0.256787	-0.386645
C75	C	1.263116	-0.258877	-0.389788
C76	C	0.994403	-0.256364	-0.562551
C77	C	0.991279	-0.258274	-0.640654
C78	C	1.001879	-0.134708	-0.379327
C79	C	1.001941	-0.084775	-0.379351
C80	C	1.034782	-0.231647	-0.679169
C81	C	1.031838	-0.233440	-0.752555
C82	C	0.985394	-0.261863	-0.787424
C83	C	0.941886	-0.288492	-0.748903
C84	C	0.944827	-0.286696	-0.675518
C85	C	0.971772	-0.270184	-1.006704
C86	C	0.968835	-0.271978	-1.080093
C87	C	1.058787	-0.216925	-1.083741
C88	C	1.061727	-0.215134	-1.010355
C89	C	1.018216	-0.241761	-0.971840
N90	N	0.982385	-0.263698	-0.862436
N91	N	1.021222	-0.239924	-0.896830
C92	C	1.009078	-0.247384	-0.196706
C93	C	1.012338	-0.245351	-0.118609
H94	H	0.730954	-0.298932	-0.449904
N95	N	1.105710	-0.188203	-1.125276
H96	H	1.137033	-0.208074	-1.157028
H97	H	1.075912	-0.167368	-1.154539
N98	N	0.897899	-0.315415	-0.633979
H99	H	0.908257	-0.348118	-0.647172
H100	H	0.906825	-0.309927	-0.582213
N101	N	0.408992	-0.324965	-0.489008
H102	H	0.394228	-0.318926	-0.538723
H103	H	0.461315	-0.321809	-0.484229
H104	H	0.597826	-0.295378	-0.444580
H105	H	0.931013	-0.295125	-1.108481
H106	H	0.266638	-0.313257	-0.471435
H107	H	0.936353	-0.291872	-0.975354
H108	H	0.870225	-0.864343	-0.500597
H109	H	1.133435	-0.779707	-0.258032
H110	H	0.273224	-0.204856	-0.308686
H111	H	0.406352	-0.208411	-0.314006
H112	H	0.904068	-0.311633	-0.777298
H113	H	1.133363	-0.638958	-0.258004
N114	N	0.595190	-0.178829	-0.269573
H115	H	0.609963	-0.184873	-0.219862
H116	H	0.607570	-0.147366	-0.281148
N117	N	0.747723	-0.182893	-0.275692
H118	H	0.714492	-0.163052	-0.245901
H119	H	0.779451	-0.201160	-0.244338
H120	H	1.086534	-0.508158	-0.301074
H121	H	1.086476	-0.423047	-0.301052
H122	H	0.870187	-0.779235	-0.500582
H123	H	1.133408	-0.724066	-0.258022
H124	H	1.099548	-0.191990	-0.981970
H125	H	1.086757	-0.995452	-0.301148
N126	N	1.099160	-1.086796	-0.289778
H127	H	1.092073	-1.120064	-0.296326
H128	H	1.148893	-1.080172	-0.302777
H129	H	1.072604	-0.208503	-0.650785
N130	N	0.904673	-0.988929	-0.468911
H131	H	0.873268	-0.967922	-0.439015
H132	H	0.931932	-0.971023	-0.502642
H133	H	0.870155	-0.723586	-0.500584
N134	N	0.904715	-1.086436	-0.468918
H135	H	0.913576	-1.079769	-0.519568
H136	H	0.911841	-1.119724	-0.462331
N137	N	0.857765	-0.632250	-0.511964
H138	H	0.828150	-0.654180	-0.539266
H139	H	0.826402	-0.611244	-0.482026
H140	H	0.916812	-0.507863	-0.457445
N141	N	0.904398	-0.416517	-0.468806
H142	H	0.911484	-0.383249	-0.462257
H143	H	0.913291	-0.426216	-0.519441
H144	H	1.133472	-0.864828	-0.258053
N145	N	1.078744	-0.204711	-0.794097
H146	H	1.108611	-0.186432	-0.760873
H147	H	1.110022	-0.224605	-0.825856
