data_functionalizedCrystal
_audit_creation_method	'MofGen! by Chris Wilmer'
_symmetry_space_group_name_H-M	'P1'
_symmetry_Int_Tables_number	1
_symmetry_cell_setting	triclinic
loop_
_symmetry_equiv_pos_as_xyz
  x,y,z
_cell_length_a	10.654550
_cell_length_b	13.930277
_cell_length_c	10.654551
_cell_angle_alpha	90.001696
_cell_angle_beta	84.485132
_cell_angle_gamma	90.010740
loop_
_atom_site_label
_atom_site_type_symbol
_atom_site_fract_x
_atom_site_fract_y
_atom_site_fract_z
O1	O	1.667847	0.079903	0.176398
O2	O	1.302369	0.079887	0.193204
O3	O	1.493510	0.079896	0.002062
O4	O	1.476705	0.079894	0.367540
O5	O	1.493483	-0.079766	0.002057
O6	O	1.302342	-0.079775	0.193199
O7	O	1.667820	-0.079759	0.176393
Zn8	Zn	1.485077	-0.105116	0.184796
Zn9	Zn	1.485112	0.105245	0.184801
O10	O	1.476679	-0.079767	0.367536
C11	C	1.255557	0.000054	0.191968
C12	C	1.116114	0.000049	0.188276
N13	N	1.485062	-0.248682	0.184791
C14	C	1.036629	0.000062	0.300817
C15	C	0.905608	0.000079	0.297341
C16	C	0.933570	0.000072	0.068771
C17	C	1.064589	0.000049	0.072249
C18	C	1.088154	0.000062	0.416844
C19	C	1.008667	0.000076	0.529395
C20	C	0.877647	0.000093	0.525918
C21	C	0.826112	0.000095	0.409891
C22	C	1.400471	-0.700956	0.269406
C23	C	1.569788	-0.700917	0.100188
C24	C	1.569773	-0.600421	0.100184
C25	C	1.485107	-0.550188	0.184793
C26	C	1.400456	-0.600451	0.269407
C27	C	1.654431	-0.550151	0.015580
C28	C	1.654420	-0.449650	0.015574
C29	C	1.569747	-0.399414	0.100178
C30	C	1.485092	-0.449683	0.184794
C31	C	1.400426	-0.399450	0.269404
C32	C	1.315764	-0.449717	0.354015
C33	C	1.315783	-0.550215	0.354011
C34	C	1.569728	-0.298916	0.100182
C35	C	1.400411	-0.298945	0.269405
C36	C	1.714632	0.000076	0.177629
C37	C	1.854075	0.000089	0.181321
C38	C	1.492263	0.000067	-0.044739
C39	C	1.488570	0.000074	-0.184182
N40	N	1.485137	0.248811	0.184796
C41	C	1.486853	0.087104	-0.249691
C42	C	1.483372	0.087099	-0.380712
C43	C	1.483333	-0.086973	-0.380702
C44	C	1.486804	-0.086968	-0.249683
C45	C	1.488619	0.174145	-0.184190
C46	C	1.486903	0.261182	-0.249700
C47	C	1.483422	0.261177	-0.380720
C48	C	1.481658	0.174136	-0.446231
C49	C	1.477926	0.000064	0.414336
C50	C	1.481619	0.000064	0.553779
H51	H	1.194836	0.000053	0.419687
H52	H	1.331461	-0.258051	0.338300
Cl53	Cl	1.164520	0.000030	-0.069234
H54	H	1.482012	0.332047	-0.434054
H55	H	1.331537	-0.741885	0.338292
Cl56	Cl	0.661398	0.000102	0.405525
Cl57	Cl	1.493000	0.174156	-0.019480
H58	H	0.891600	0.000090	-0.025693
Cl59	Cl	1.209339	-0.386556	0.460385
Cl60	Cl	1.209363	-0.613410	0.460375
H61	H	1.488327	0.332048	-0.196351
H62	H	1.638726	-0.741820	0.031307
H63	H	1.723369	-0.591055	-0.053300
H64	H	1.723355	-0.408729	-0.053322
Cl65	Cl	1.481119	-0.196388	-0.463059
Cl66	Cl	1.676160	-0.235730	-0.006171
Cl67	Cl	1.477271	0.174133	-0.610943
Cl68	Cl	1.488971	-0.196379	-0.167323
H69	H	1.050636	0.000066	0.623860
H70	H	0.812931	0.000095	0.617562
