data_functionalizedCrystal
_audit_creation_method	'MofGen! by Chris Wilmer'
_symmetry_space_group_name_H-M	'P1'
_symmetry_Int_Tables_number	1
_symmetry_cell_setting	triclinic
loop_
_symmetry_equiv_pos_as_xyz
  x,y,z
_cell_length_a	17.699083
_cell_length_b	12.996460
_cell_length_c	17.699083
_cell_angle_alpha	90.007036
_cell_angle_beta	96.717152
_cell_angle_gamma	89.995129
loop_
_atom_site_label
_atom_site_type_symbol
_atom_site_fract_x
_atom_site_fract_y
_atom_site_fract_z
O1	O	-1.004077	0.085551	0.095710
O2	O	-0.783699	0.085558	0.108163
O3	O	-0.900114	0.085545	-0.008253
O4	O	-0.887662	0.085564	0.212125
O5	O	-0.900102	-0.085589	-0.008259
O6	O	-0.783687	-0.085576	0.108156
O7	O	-1.004065	-0.085582	0.095703
Cu8	Cu	-0.893875	-0.101205	0.101929
Cu9	Cu	-0.893889	0.101180	0.101937
O10	O	-0.887650	-0.085570	0.212119
C11	C	-0.755496	-0.000009	0.107713
C12	C	-0.671478	-0.000007	0.106375
C13	C	-0.632004	-0.093293	0.105741
C14	C	-0.553061	-0.093293	0.104471
C15	C	-0.513594	-0.000007	0.103841
C16	C	-0.553073	0.093286	0.104473
C17	C	-0.632015	0.093286	0.105737
C18	C	-0.234711	0.093289	0.099374
C19	C	-0.155763	0.093282	0.098112
C20	C	-0.155757	-0.093291	0.098108
C21	C	-0.234699	-0.093291	0.099372
C22	C	-0.274172	0.000002	0.100000
C23	C	-0.359771	0.000002	0.101375
C24	C	-0.427996	-0.000006	0.102472
N25	N	-0.893870	-0.243552	0.101923
C26	C	-0.893888	-0.663367	0.101938
C27	C	-0.893881	-0.546561	0.101936
C28	C	-0.893880	-0.453463	0.101931
C29	C	-0.893872	-0.336651	0.101929
C30	C	-0.032269	-0.000013	0.096148
C31	C	-0.116289	-0.000005	0.097472
C32	C	-0.899662	-0.000022	-0.036453
C33	C	-0.898323	-0.000022	-0.120471
N34	N	-0.893900	0.243527	0.101937
C35	C	-0.966657	-0.000025	-0.169092
C36	C	-0.965395	-0.000016	-0.248036
C37	C	-0.895798	-0.000011	-0.278356
C38	C	-0.827459	-0.000005	-0.229729
C39	C	-0.828722	-0.000007	-0.150787
C40	C	-0.822364	0.000004	-0.548092
C41	C	-0.821106	0.000002	-0.627040
C42	C	-0.959036	-0.000006	-0.645341
C43	C	-0.960299	-0.000008	-0.566399
C44	C	-0.891961	0.000004	-0.517778
C45	C	-0.893331	-0.000004	-0.432179
C46	C	-0.894428	-0.000011	-0.363954
C47	C	-0.888102	-0.000001	0.240319
C48	C	-0.889441	0.000006	0.324337
H49	H	-0.520927	-0.169256	0.103942
H50	H	-0.520933	0.169241	0.103955
Cl51	Cl	-0.739966	0.000014	-0.267846
H52	H	-1.023330	-0.000036	-0.144412
Cl53	Cl	-1.051304	-0.000024	-0.309157
Cl54	Cl	-0.681640	0.210565	0.106531
H55	H	-0.266829	-0.169254	0.099889
H56	H	-1.016972	-0.000017	-0.541717
H57	H	-1.014680	-0.000010	-0.684937
H58	H	-0.764429	0.000005	-0.651723
H59	H	-0.766719	0.000013	-0.508514
Cl60	Cl	-0.742814	0.000002	-0.089663
Cl61	Cl	-0.106129	-0.210575	0.097315
H62	H	-0.123631	0.169251	0.097598
H63	H	-0.664132	-0.169257	0.106260
Cl64	Cl	-0.284324	0.210571	0.100165
