data_functionalizedCrystal
_audit_creation_method	'MofGen! by Chris Wilmer'
_symmetry_space_group_name_H-M	'P1'
_symmetry_Int_Tables_number	1
_symmetry_cell_setting	triclinic
loop_
_symmetry_equiv_pos_as_xyz
  x,y,z
_cell_length_a	19.805407
_cell_length_b	16.625545
_cell_length_c	19.805399
_cell_angle_alpha	89.974296
_cell_angle_beta	90.019573
_cell_angle_gamma	89.975963
loop_
_atom_site_label
_atom_site_type_symbol
_atom_site_fract_x
_atom_site_fract_y
_atom_site_fract_z
Zn1	Zn	1.034747	0.321020	0.382728
Zn2	Zn	1.034666	0.455857	0.269544
Zn3	Zn	0.921561	0.321043	0.269553
Zn4	Zn	0.921530	0.455815	0.382691
O5	O	0.978126	0.388434	0.326129
O6	O	1.129453	0.338915	0.367726
O7	O	1.019642	0.438001	0.174829
O8	O	0.936623	0.208207	0.284586
O9	O	1.129394	0.437980	0.284570
O10	O	1.019780	0.208191	0.367735
O11	O	0.936545	0.338953	0.174835
O12	O	0.826841	0.338912	0.284549
O13	O	0.936569	0.437907	0.477412
O14	O	0.826817	0.437928	0.367671
O15	O	1.019749	0.338874	0.477440
O16	O	1.019612	0.568684	0.284533
O17	O	0.936491	0.568653	0.367662
C18	C	0.802270	0.388418	0.326107
C19	C	0.727038	0.388431	0.326114
C20	C	0.978057	0.597925	0.326107
C21	C	0.978090	0.687546	0.326121
C22	C	0.691699	0.440067	0.369325
C23	C	0.621011	0.440068	0.369335
C24	C	0.585663	0.388437	0.326129
C25	C	0.621006	0.336796	0.282916
C26	C	0.691693	0.336791	0.282910
C27	C	0.335933	0.336814	0.282938
C28	C	0.265241	0.336825	0.282946
C29	C	0.265251	0.440091	0.369363
C30	C	0.335938	0.440086	0.369357
C31	C	0.371275	0.388442	0.326147
C32	C	0.447924	0.388440	0.326138
C33	C	0.509015	0.388443	0.326134
C34	C	0.978200	1.015721	0.326202
C35	C	0.978167	0.924413	0.326181
C36	C	0.978144	0.851636	0.326161
C37	C	0.978113	0.760322	0.326141
C38	C	1.154669	0.388450	0.326151
C39	C	1.229901	0.388457	0.326161
C40	C	0.978164	0.388383	0.502672
C41	C	0.978180	0.388361	0.577904
C42	C	0.978208	1.178125	0.326174
C43	C	0.978228	1.088504	0.326213
C44	C	0.978127	0.388426	0.150273
C45	C	0.978242	0.388221	0.075041
C46	C	1.021493	0.336792	0.613264
C47	C	1.021500	0.336769	0.683952
C48	C	0.978197	0.388319	0.719280
C49	C	0.934879	0.439890	0.683915
C50	C	0.934870	0.439909	0.613228
C51	C	0.934918	0.439815	0.968988
C52	C	0.934932	0.439794	1.039680
C53	C	1.021548	0.336675	1.039713
C54	C	1.021538	0.336694	0.969025
C55	C	0.978218	0.388262	0.933667
C56	C	0.978210	0.388285	0.857019
C57	C	0.978208	0.388300	0.795927
H58	H	0.720475	0.482113	0.404506
H59	H	0.899667	0.481774	1.068442
H60	H	1.056819	0.294683	1.068510
F61	F	0.729303	0.281832	0.236920
H62	H	0.364696	0.294769	0.247748
F63	F	0.888813	0.494698	0.931366
F64	F	1.067629	0.281830	0.931431
F65	F	0.583384	0.281842	0.236937
H66	H	1.056758	0.294817	0.584505
H67	H	0.236470	0.482139	0.404549
H68	H	0.899619	0.481861	0.712684
F69	F	0.888768	0.494794	0.575596
H70	H	0.236462	0.294776	0.247762
H71	H	0.592241	0.482116	0.404521
F72	F	0.373555	0.495041	0.415340
H73	H	1.056771	0.294778	0.712739
