data_functionalizedCrystal
_audit_creation_method	'MofGen! by Chris Wilmer'
_symmetry_space_group_name_H-M	'P1'
_symmetry_Int_Tables_number	1
_symmetry_cell_setting	triclinic
loop_
_symmetry_equiv_pos_as_xyz
  x,y,z
_cell_length_a	12.759401
_cell_length_b	16.120484
_cell_length_c	16.120297
_cell_angle_alpha	95.614431
_cell_angle_beta	92.879989
_cell_angle_gamma	92.926992
loop_
_atom_site_label
_atom_site_type_symbol
_atom_site_fract_x
_atom_site_fract_y
_atom_site_fract_z
Zn1	Zn	1.552087	-0.356713	-0.489415
Zn2	Zn	2.052087	0.143287	0.010585
Zn3	Zn	1.551955	-0.489403	-0.356726
Zn4	Zn	2.051955	0.010597	0.143274
Zn5	Zn	1.385777	-0.349653	-0.349665
Zn6	Zn	1.885777	0.150347	0.150335
Zn7	Zn	1.366966	-0.496448	-0.496453
Zn8	Zn	1.866966	0.003552	0.003547
O9	O	1.464196	-0.423054	-0.423065
O10	O	1.964196	0.076946	0.076935
O11	O	1.699089	-0.374321	-0.471823
O12	O	2.199089	0.125679	0.028177
O13	O	1.537728	-0.464962	-0.238827
O14	O	2.037728	0.035038	0.261173
O15	O	1.415766	-0.233624	-0.362303
O16	O	1.915766	0.266376	0.137697
O17	O	1.698992	-0.471808	-0.374337
O18	O	2.198992	0.028192	0.125663
O19	O	1.537953	-0.238811	-0.464977
O20	O	2.037953	0.261189	0.035023
O21	O	1.415638	-0.362288	-0.233640
O22	O	1.915638	0.137712	0.266360
O23	O	1.236261	-0.369119	-0.369128
O24	O	1.736261	0.130881	0.130872
O25	O	1.383705	-0.483815	-0.612481
O26	O	1.883705	0.016185	-0.112481
O27	O	1.222441	-0.476969	-0.476972
O28	O	1.722441	0.023031	0.023028
O29	O	1.519713	-0.381153	-0.607311
O30	O	2.019713	0.118847	-0.107311
O31	O	1.519488	-0.607303	-0.381161
O32	O	2.019488	-0.107303	0.118839
O33	O	1.383577	-0.612479	-0.483818
O34	O	1.883577	-0.112479	0.016182
C35	C	1.191230	-0.423043	-0.423048
C36	C	1.691230	0.076957	0.076952
C37	C	1.074452	-0.423060	-0.423061
C38	C	1.574452	0.076940	0.076939
C39	C	1.012421	-0.479294	-0.479136
C40	C	1.512421	0.020706	0.020864
C41	C	0.902696	-0.479298	-0.479152
C42	C	1.402696	0.020702	0.020848
C43	C	0.917042	-0.366831	-0.367013
C44	C	1.417042	0.133169	0.132987
C45	C	1.026765	-0.366823	-0.367001
C46	C	1.526765	0.133177	0.132999
C47	C	1.449504	-0.640220	-0.434037
C48	C	1.949504	-0.140220	0.065963
C49	C	1.443313	-0.733125	-0.438759
C50	C	1.943313	-0.233125	0.061241
C51	C	1.432015	-0.903226	-0.447398
C52	C	1.932015	-0.403226	0.052602
C53	C	1.496565	-0.942043	-0.398746
C54	C	1.996565	-0.442043	0.101254
C55	C	1.490278	-1.036693	-0.403552
C56	C	1.990278	-0.536693	0.096448
C57	C	1.438300	-0.808568	-0.442592
C58	C	1.938300	-0.308568	0.057408
C59	C	1.738227	-0.423066	-0.423082
C60	C	2.238227	0.076934	0.076918
C61	C	1.855003	-0.423071	-0.423090
C62	C	2.355003	0.076929	0.076910
C63	C	1.449626	-0.434057	-0.641071
C64	C	1.949626	0.065943	-0.141071
C65	C	1.443417	-0.438746	-0.733972
C66	C	1.943417	0.061254	-0.233972
C67	C	1.478973	-0.205042	-0.412068
C68	C	1.978973	0.294958	0.087932
C69	C	1.485270	-0.112138	-0.407381
C70	C	1.985270	0.387862	0.092619
C71	C	1.432044	-0.447288	-0.904063
C72	C	1.932044	0.052712	-0.404063
C73	C	1.496572	-0.398570	-0.942906
C74	C	1.996572	0.101430	-0.442906
C75	C	1.490244	-0.403323	-1.037550
C76	C	1.990244	0.096677	-0.537550
C77	C	1.438370	-0.442537	-0.809410
C78	C	1.938370	0.057463	-0.309410
C79	C	1.478774	-0.412034	-0.205904
C80	C	1.978774	0.087966	0.294096
C81	C	1.485202	-0.407110	-0.112991
C82	C	1.985202	0.092890	0.387009
H83	H	1.051244	-0.525084	-0.524785
H84	H	1.551244	-0.025084	-0.024785
H85	H	1.556548	-0.904191	-0.353483
H86	H	2.056548	-0.404191	0.146517
H87	H	1.556568	-0.353290	-0.905081
H88	H	2.056568	0.146710	-0.405081
H89	H	0.878202	-0.321046	-0.321369
H90	H	1.378202	0.178954	0.178631
C91	C	0.834467	-0.541168	-0.540831
C92	C	1.334467	-0.041168	-0.040831
N93	N	0.783077	-0.587773	-0.587289
N94	N	1.283077	-0.087773	-0.087289
C95	C	1.095003	-0.304958	-0.305311
C96	C	1.595003	0.195042	0.194689
N97	N	1.146400	-0.258362	-0.258850
N98	N	1.646400	0.241638	0.241150
C99	C	1.350974	-0.954359	-0.508532
C100	C	1.850974	-0.454359	-0.008532
N101	N	1.289930	-0.992882	-0.554574
N102	N	1.789930	-0.492882	-0.054574
C103	C	1.350994	-0.508453	-0.955160
C104	C	1.850994	-0.008453	-0.455160
N105	N	1.289948	-0.554522	-0.993657
N106	N	1.789948	-0.054522	-0.493657
