data_functionalizedCrystal
_audit_creation_method	'MofGen! by Chris Wilmer'
_symmetry_space_group_name_H-M	'P1'
_symmetry_Int_Tables_number	1
_symmetry_cell_setting	triclinic
loop_
_symmetry_equiv_pos_as_xyz
  x,y,z
_cell_length_a	11.026607
_cell_length_b	15.995350
_cell_length_c	9.482900
_cell_angle_alpha	99.336743
_cell_angle_beta	78.636152
_cell_angle_gamma	96.039196
loop_
_atom_site_label
_atom_site_type_symbol
_atom_site_fract_x
_atom_site_fract_y
_atom_site_fract_z
O1	O	1.629075	0.340363	-0.120882
O2	O	1.275769	0.300437	-0.120885
O3	O	1.462080	0.199968	-0.120882
O4	O	1.442765	0.440832	-0.120885
O5	O	1.424236	0.220481	0.120910
O6	O	1.237926	0.320950	0.120907
O7	O	1.591231	0.360875	0.120910
Cu8	Cu	1.411123	0.342785	0.142986
Cu9	Cu	1.455878	0.318527	-0.142961
O10	O	1.404921	0.461344	0.120907
C11	C	1.211637	0.303328	0.000010
C12	C	1.076923	0.281371	0.000009
C13	C	1.003118	0.341997	0.000007
C14	C	0.863884	0.319305	0.000005
C15	C	1.442360	0.178909	0.000011
C16	C	1.439967	0.085597	0.000003
C17	C	1.431369	-0.253446	0.000008
C18	C	1.298767	-0.226057	-0.000536
C19	C	1.301076	-0.128960	0.000009
C20	C	1.435634	-0.085243	0.000005
C21	C	1.479470	-0.104742	0.138078
C22	C	1.476118	-0.201871	0.138193
C23	C	1.521895	-0.225142	-0.136769
C24	C	1.522149	-0.128356	-0.138594
C25	C	1.438051	0.009819	0.000008
C26	C	1.428954	-0.348507	0.000014
C27	C	1.655364	0.357984	0.000012
C28	C	1.790080	0.379940	0.000004
C29	C	1.424641	0.482403	0.000011
C30	C	1.427036	0.575714	0.000009
N31	N	1.379654	0.359848	0.344106
N32	N	1.487357	0.301459	-0.344081
C33	C	1.446587	0.323554	0.416306
C34	C	1.420413	0.337759	0.583723
H35	H	1.265122	-0.116689	-0.098967
H36	H	1.619870	-0.242236	-0.137701
H37	H	0.824003	0.250594	-0.000031
H38	H	0.829962	0.448650	0.000012
H39	H	1.490286	-0.116985	-0.240737
H40	H	1.494892	-0.261099	-0.241421
H41	H	1.523265	0.281962	0.354179
O42	O	1.050906	0.423915	-0.000051
C43	C	1.233224	0.521236	0.000056
C44	C	1.179277	0.428425	0.000084
H45	H	1.337014	0.524915	0.000196
H46	H	1.217204	0.545196	-0.101157
H47	H	1.185359	0.562319	0.101222
H48	H	1.227107	0.387275	-0.101014
H49	H	1.195281	0.404533	0.101363
O50	O	1.029154	0.199443	-0.000057
C51	C	0.846806	0.102139	0.000029
C52	C	0.900742	0.194955	0.000070
H53	H	0.742973	0.098483	0.000163
H54	H	0.894512	0.061011	-0.101186
H55	H	0.863000	0.078215	0.101193
H56	H	0.884562	0.218957	-0.101026
H57	H	0.853031	0.236026	0.101352
O58	O	1.406207	-0.068691	0.260813
C59	C	1.363584	-0.045988	0.522766
C60	C	1.446675	-0.086839	0.383893
H61	H	1.396255	-0.060660	0.622311
H62	H	1.369436	0.025754	0.524605
H63	H	1.263478	-0.072868	0.524182
H64	H	1.546815	-0.060027	0.382385
H65	H	1.440716	-0.158579	0.382108
H66	H	1.261230	-0.260983	-0.099551
H67	H	1.302967	0.401433	0.406234
H68	H	1.343722	0.379346	0.645846
H69	H	1.230558	-0.245256	0.097926
H70	H	1.233768	-0.100491	0.099153
O71	O	1.578612	0.251709	0.581596
C72	C	1.687500	0.191857	0.346968
C73	C	1.584286	0.248355	0.430956
H74	H	1.692104	0.189113	0.225160
H75	H	1.780338	0.219562	0.376462
H76	H	1.666409	0.125015	0.377120
H77	H	1.605259	0.315210	0.400849
H78	H	1.491481	0.220581	0.401455
O79	O	1.591093	-0.222348	0.145628
C80	C	1.719495	-0.333655	0.154427
C81	C	1.589242	-0.310592	0.145950
H82	H	1.718035	-0.404997	0.154721
H83	H	1.788805	-0.314924	0.056432
H84	H	1.748055	-0.298097	0.258518
H85	H	1.560566	-0.346137	0.041921
H86	H	1.520009	-0.329303	0.244018
O87	O	1.596522	-0.069737	0.144144
C88	C	1.807303	-0.094543	0.149269
C89	C	1.674805	-0.134300	0.142364
H90	H	1.870626	-0.146721	0.147863
H91	H	1.843184	-0.059856	0.051523
H92	H	1.806166	-0.047599	0.253649
H93	H	1.675837	-0.181279	0.038047
H94	H	1.638977	-0.168933	0.240182
O95	O	1.640682	-0.093069	-0.148476
C96	C	1.777122	0.034119	-0.168365
C97	C	1.642830	-0.005745	-0.157177
H98	H	1.778906	0.104723	-0.175434
H99	H	1.814578	0.025727	-0.068137
H100	H	1.837321	0.001395	-0.269919
H101	H	1.582534	0.026951	-0.055684
H102	H	1.605474	0.002637	-0.257476
H103	H	1.412240	-0.218609	0.241408
