data_functionalizedCrystal
_audit_creation_method	'MofGen! by Chris Wilmer'
_symmetry_space_group_name_H-M	'P1'
_symmetry_Int_Tables_number	1
_symmetry_cell_setting	triclinic
loop_
_symmetry_equiv_pos_as_xyz
  x,y,z
_cell_length_a	18.215407
_cell_length_b	16.959453
_cell_length_c	18.215399
_cell_angle_alpha	89.971557
_cell_angle_beta	89.983115
_cell_angle_gamma	90.017431
loop_
_atom_site_label
_atom_site_type_symbol
_atom_site_fract_x
_atom_site_fract_y
_atom_site_fract_z
Zn1	Zn	1.125093	-0.314740	-0.416067
Zn2	Zn	1.125013	-0.446927	-0.293001
Zn3	Zn	1.002027	-0.314760	-0.293020
Zn4	Zn	1.002002	-0.446875	-0.416031
O5	O	1.063534	-0.380826	-0.354530
O6	O	1.228067	-0.332289	-0.399749
O7	O	1.108676	-0.429425	-0.190019
O8	O	1.018396	-0.204147	-0.309365
O9	O	1.228008	-0.429405	-0.309333
O10	O	1.108812	-0.204132	-0.399768
O11	O	1.018318	-0.332322	-0.190033
O12	O	0.899040	-0.332272	-0.309330
O13	O	1.018354	-0.429317	-0.519020
O14	O	0.899021	-0.429336	-0.399706
O15	O	1.108788	-0.332238	-0.519047
O16	O	1.108652	-0.557531	-0.309298
O17	O	1.018276	-0.557493	-0.399687
C18	C	0.872328	-0.380801	-0.354517
C19	C	0.790529	-0.380810	-0.354529
C20	C	0.602365	-0.330345	-0.401683
C21	C	0.525506	-0.330352	-0.401685
C22	C	0.525456	-0.431328	-0.307389
C23	C	0.602313	-0.431317	-0.307384
C24	C	0.640765	-0.380826	-0.354535
C25	C	0.487049	-0.380845	-0.354543
C26	C	0.403716	-0.380852	-0.354545
C27	C	0.724104	-0.380817	-0.354531
C28	C	1.063473	-0.586192	-0.354503
C29	C	1.063514	-0.674048	-0.354516
C30	C	1.110674	-1.045458	-0.401691
C31	C	1.016600	-1.045590	-0.307478
C32	C	1.016572	-0.963044	-0.307461
C33	C	1.063596	-0.921701	-0.354560
C34	C	1.110647	-0.962904	-0.401677
C35	C	0.969517	-0.921835	-0.260350
C36	C	0.969487	-0.839284	-0.260332
C37	C	1.016515	-0.797940	-0.307429
C38	C	1.063568	-0.839148	-0.354546
C39	C	1.110592	-0.797805	-0.401646
C40	C	1.157650	-0.839011	-0.448761
C41	C	1.157675	-0.921560	-0.448774
C42	C	1.016490	-0.715391	-0.307416
C43	C	1.110565	-0.715251	-0.401632
C44	C	1.255487	-0.380850	-0.354543
C45	C	1.337286	-0.380861	-0.354549
C46	C	1.063577	-0.380770	-0.546483
C47	C	1.063596	-0.380746	-0.628281
C48	C	1.063616	-0.174657	-0.354573
C49	C	1.063651	-0.086801	-0.354591
C50	C	1.110712	-0.330129	-0.893354
C51	C	1.110703	-0.330150	-0.816495
C52	C	1.016539	-0.431248	-0.816457
C53	C	1.016552	-0.431230	-0.893315
C54	C	1.063637	-0.380666	-0.931761
C55	C	1.063616	-0.380705	-0.778045
C56	C	1.063606	-0.380729	-0.694711
C57	C	1.063648	-0.380643	-1.015100
C58	C	1.063533	-0.380824	-0.163323
C59	C	1.063658	-0.380625	-0.081525
H60	H	0.633580	-0.472425	-0.268986
H61	H	0.633670	-0.289230	-0.440074
H62	H	0.978173	-0.681845	-0.269059
Br63	Br	0.473393	-0.261836	-0.465672
Br64	Br	1.221456	-0.782894	-0.512689
Br65	Br	1.174392	-0.659149	-0.465551
Br66	Br	0.473265	-0.499848	-0.243403
Br67	Br	1.221530	-0.977487	-0.512711
H68	H	1.148989	-1.079012	-0.440049
H69	H	0.978312	-1.079256	-0.269134
Br70	Br	0.905686	-0.977946	-0.196451
Br71	Br	0.905622	-0.783368	-0.196395
H72	H	1.149052	-0.288956	-0.924655
H73	H	1.149037	-0.288998	-0.785228
H74	H	0.978203	-0.472415	-0.785145
H75	H	0.978218	-0.472388	-0.924587
