data_functionalizedCrystal
_audit_creation_method	'MofGen! by Chris Wilmer'
_symmetry_space_group_name_H-M	'P1'
_symmetry_Int_Tables_number	1
_symmetry_cell_setting	triclinic
loop_
_symmetry_equiv_pos_as_xyz
  x,y,z
_cell_length_a	18.426585
_cell_length_b	14.628931
_cell_length_c	14.628931
_cell_angle_alpha	60.000000
_cell_angle_beta	89.999756
_cell_angle_gamma	60.001356
loop_
_atom_site_label
_atom_site_type_symbol
_atom_site_fract_x
_atom_site_fract_y
_atom_site_fract_z
Zr1	Zr	0.699112	1.000615	-0.119984
O2	O	0.583236	1.191314	-0.265942
O3	O	0.734634	0.809912	-0.075241
O4	O	0.734634	1.000617	-0.265946
O5	O	0.583235	1.000610	0.075196
O6	O	0.854060	1.000623	-0.265950
O7	O	0.583236	1.000609	-0.075236
O8	O	0.854060	0.659487	0.075188
O9	O	0.583236	1.341746	-0.265942
O10	O	0.838910	0.888357	-0.056161
O11	O	0.749784	0.888353	0.056107
O12	O	0.749784	1.112884	-0.168424
O13	O	0.660658	1.112879	-0.056156
Zr14	Zr	0.889582	1.000626	0.119931
Zr15	Zr	0.889582	1.000626	-0.119991
Zr16	Zr	0.699112	1.000616	0.119937
Zr17	Zr	0.699112	1.240537	-0.119985
Zr18	Zr	0.889582	0.760705	0.119931
O19	O	0.854060	1.191330	0.075187
O20	O	0.854061	1.191329	-0.265950
O21	O	0.583236	1.191315	0.075195
O22	O	1.005458	0.809927	0.265888
O23	O	1.005459	0.809926	-0.075249
O24	O	0.734634	0.809913	0.265896
O25	O	1.005459	1.000632	-0.075250
O26	O	0.854060	1.000625	0.265892
O27	O	0.734634	1.000618	0.265896
O28	O	1.005459	1.000632	0.075182
O29	O	0.734635	1.341754	-0.265947
O30	O	0.854059	0.659487	0.265893
O31	O	1.005458	0.659495	0.265888
O32	O	1.005458	0.659495	0.075183
O33	O	0.583236	1.341747	-0.075236
O34	O	0.734635	1.341755	-0.075241
O35	O	0.838910	0.888358	0.168370
O36	O	0.928036	0.888363	0.056102
O37	O	0.838910	1.112889	-0.056161
O38	O	0.749784	1.112884	0.056107
C39	C	0.794347	0.700516	-0.000026
C40	C	0.794347	0.598663	-0.000026
C41	C	0.838559	0.553256	-0.055719
C42	C	0.838560	0.447985	-0.055720
C43	C	0.556098	1.000608	-0.000019
C44	C	0.475238	1.000604	-0.000017
C45	C	0.179123	1.000643	-0.000036
C46	C	0.261509	1.000637	-0.000034
C47	C	0.327178	1.000623	-0.000027
C48	C	0.409569	1.000618	-0.000023
C49	C	1.032597	1.000634	-0.000035
C50	C	1.113456	1.000638	-0.000037
C51	C	0.794347	1.000620	-0.300132
C52	C	0.794348	1.000620	-0.401985
C53	C	0.794347	1.300726	-0.000027
C54	C	0.794348	1.402579	-0.000027
C55	C	0.750135	1.112000	-0.503084
C56	C	0.750134	1.112002	-0.608355
C57	C	0.794347	1.000622	0.300078
C58	C	0.794347	1.000622	0.401931
C59	C	1.032596	0.700528	-0.000034
C60	C	1.113456	0.598680	-0.000037
C61	C	0.794346	0.700516	0.300078
C62	C	0.794346	0.598664	0.401931
C63	C	1.032596	0.700529	0.300071
C64	C	1.113455	0.598681	0.401921
C65	C	0.556098	1.300713	-0.300125
C66	C	0.475239	1.402561	-0.401975
C67	C	0.556098	1.300713	-0.000020
C68	C	0.475238	1.402562	-0.000017
C69	C	0.794348	1.300725	-0.300132
C70	C	0.794348	1.402578	-0.401985
C71	C	1.104906	0.550848	-0.058648
C72	C	1.180874	0.455163	-0.058672
C73	C	1.265393	0.407306	-0.000079
C74	C	1.273942	0.455147	0.058534
C75	C	1.197973	0.550837	0.058552
C76	C	1.197959	0.550854	0.391148
C77	C	1.273942	0.455170	0.486838
C78	C	1.265420	0.407308	0.593300
C79	C	1.180908	0.455144	0.604071
C80	C	1.104926	0.550833	0.508382
C81	C	0.390735	1.450399	-0.391202
C82	C	0.314752	1.546113	-0.486892
C83	C	0.323274	1.593980	-0.593354
C84	C	0.407786	1.546138	-0.604125
C85	C	0.483768	1.450432	-0.508436
C86	C	0.483789	1.450404	0.058584
C87	C	0.407820	1.546115	0.058582
C88	C	0.323301	1.593975	-0.000015
C89	C	0.314753	1.546130	-0.058623
C90	C	0.390721	1.450427	-0.058627
C91	C	0.838559	0.553257	0.503030
C92	C	0.838559	0.447987	0.608302
H93	H	0.876415	0.592309	-0.103394
H94	H	0.832196	0.905261	-0.511344
H95	H	0.552572	1.411483	-0.517221
H96	H	1.342749	0.416232	0.478049
H97	H	0.414715	1.585124	-0.690817
H98	H	0.756491	0.559608	0.393312
N99	N	0.841821	0.881002	-0.391179
N100	N	0.801282	0.854954	-0.431581
H101	H	0.834810	0.770471	-0.423948
H102	H	0.383779	1.411431	-0.304524
H103	H	1.204915	0.589809	0.304470
H104	H	0.261398	1.671909	-0.671261
N105	N	0.570122	1.401530	0.118422
N106	N	0.637953	1.316088	0.118416
H107	H	0.698926	1.281579	0.160675
H108	H	0.245946	1.585050	-0.478100
H109	H	0.876412	0.408937	0.695031
H110	H	0.712277	1.207358	-0.695084
N111	N	1.018585	0.599696	-0.118500
N112	N	1.010980	0.556963	-0.170823
H113	H	0.950018	0.591457	-0.213099
H114	H	0.876409	0.408942	-0.103406
N115	N	1.343047	0.309565	0.691027
N116	N	1.418490	0.266878	0.681380
H117	H	1.473318	0.197844	0.750396
H118	H	0.756497	0.559600	0.047656
N119	N	0.746836	0.451573	0.059769
N120	N	0.685610	0.569082	0.008702
H121	H	0.652051	0.603693	0.050930
H122	H	0.876406	0.592322	0.511649
N123	N	1.342979	0.309453	-0.000005
N124	N	1.335322	0.266688	-0.052269
H125	H	1.390114	0.197535	-0.052178
N126	N	0.702661	1.231617	-0.513890
N127	N	0.702733	1.231446	-0.428359
H128	H	0.669204	1.315929	-0.435992
N129	N	1.360284	0.406239	0.118379
N130	N	1.428098	0.320796	0.118353
H131	H	1.489081	0.286244	0.160624
H132	H	1.173897	0.416223	-0.106402
H133	H	1.204948	0.589769	0.106286
N134	N	1.172227	0.406228	0.712831
N135	N	1.240081	0.320783	0.798249
H136	H	1.233953	0.286225	0.875064
H137	H	1.036123	0.589761	0.517169
N138	N	0.416580	1.594963	0.118456
N139	N	0.492051	1.552202	0.170777
H140	H	0.498242	1.586697	0.213064
H141	H	0.261450	1.671902	-0.000002
N142	N	0.228410	1.595042	-0.118473
N143	N	0.160596	1.680486	-0.118447
H144	H	0.099613	1.715031	-0.160711
N145	N	0.381963	1.401576	-0.118495
N146	N	0.306492	1.444326	-0.170803
H147	H	0.300299	1.409831	-0.213089
N148	N	0.746881	0.451536	0.489218
N149	N	0.787433	0.440862	0.422780
H150	H	0.753915	0.475442	0.345932
