data_functionalizedCrystal
_audit_creation_method	'MofGen! by Chris Wilmer'
_symmetry_space_group_name_H-M	'P1'
_symmetry_Int_Tables_number	1
_symmetry_cell_setting	triclinic
loop_
_symmetry_equiv_pos_as_xyz
  x,y,z
_cell_length_a	33.592126
_cell_length_b	33.591377
_cell_length_c	33.588093
_cell_angle_alpha	60.004089
_cell_angle_beta	60.008299
_cell_angle_gamma	59.994549
loop_
_atom_site_label
_atom_site_type_symbol
_atom_site_fract_x
_atom_site_fract_y
_atom_site_fract_z
O1	O	0.055297	-0.581666	0.486338
O2	O	0.555297	-0.081666	0.986338
O3	O	0.020882	-0.452873	0.391864
O4	O	0.520882	0.047127	0.891864
O5	O	0.102445	-0.534352	0.391775
O6	O	0.602445	-0.034352	0.891775
O7	O	-0.026266	-0.500187	0.486427
O8	O	0.473734	-0.000187	0.986427
O9	O	0.129510	-0.507292	0.418747
O10	O	0.629510	-0.007292	0.918747
O11	O	0.047947	-0.425814	0.418835
O12	O	0.547947	0.074186	0.918835
O13	O	0.082362	-0.554606	0.513309
O14	O	0.582362	-0.054606	1.013309
Cu15	Cu	0.067626	-0.487739	0.468535
Cu16	Cu	0.567626	0.012261	0.968535
Cu17	Cu	0.035618	-0.519740	0.436638
Cu18	Cu	0.535618	-0.019740	0.936638
O19	O	0.000799	-0.473128	0.513398
O20	O	0.500799	0.026872	1.013398
N21	N	0.090139	-0.465235	0.490972
N22	N	0.590139	0.034765	0.990972
N23	N	0.013110	-0.542249	0.414202
N24	N	0.513110	-0.042249	0.914202
C25	C	0.124394	-0.431229	0.734914
C26	C	0.624394	0.068771	1.234914
C27	C	0.334265	-0.431145	0.524799
C28	C	0.834265	0.068855	1.024799
C29	C	0.124204	-0.431200	0.524965
C30	C	0.624204	0.068800	1.024965
C31	C	0.124184	-0.221175	0.524955
C32	C	0.624184	0.278825	1.024955
C33	C	0.158017	-0.322536	0.558710
C34	C	0.658017	0.177464	1.058710
C35	C	0.158027	-0.397406	0.558711
C36	C	0.658027	0.102594	1.058711
C37	C	0.176763	-0.378688	0.577408
C38	C	0.676763	0.121312	1.077408
C39	C	0.258412	-0.364594	0.534386
C40	C	0.758412	0.135406	1.034386
C41	C	0.309454	-0.381596	0.517340
C42	C	0.809454	0.118404	1.017340
C43	C	0.309485	-0.464188	0.548836
C44	C	0.809485	0.035812	1.048836
C45	C	0.258444	-0.447186	0.565883
C46	C	0.758444	0.052814	1.065883
C47	C	0.170304	-0.297002	0.508532
C48	C	0.670304	0.202998	1.008532
C49	C	0.153260	-0.245956	0.491537
C50	C	0.653260	0.254044	0.991537
C51	C	0.111648	-0.245983	0.574901
C52	C	0.611648	0.254017	1.074901
C53	C	0.128691	-0.297029	0.591896
C54	C	0.628691	0.202971	1.091896
C55	C	0.107841	-0.385091	0.571080
C56	C	0.607841	0.114909	1.071080
C57	C	0.090813	-0.402108	0.554078
C58	C	0.590813	0.097892	1.054078
C59	C	0.174153	-0.443755	0.512351
C60	C	0.674153	0.056245	1.012351
C61	C	0.191183	-0.426739	0.529347
C62	C	0.691183	0.073261	1.029347
C63	C	0.107923	-0.385106	0.659111
C64	C	0.607923	0.114894	1.159111
C65	C	0.090955	-0.402138	0.710156
C66	C	0.590955	0.097862	1.210156
C67	C	0.174335	-0.443795	0.710087
C68	C	0.674335	0.056205	1.210087
C69	C	0.191302	-0.426764	0.659041
C70	C	0.691302	0.073236	1.159041
C71	C	0.158095	-0.397418	0.633555
C72	C	0.658095	0.102582	1.133555
C73	C	0.232909	-0.397388	0.558656
C74	C	0.732909	0.102612	1.058656
C75	C	0.105069	-0.449619	0.791057
C76	C	0.605069	0.050381	1.291057
C77	C	0.390406	-0.449193	0.505789
C78	C	0.890406	0.050807	1.005789
C79	C	0.104813	-0.449599	0.506607
C80	C	0.604813	0.050401	1.006607
C81	C	0.105125	-0.165028	0.506915
C82	C	0.605125	0.334972	1.006915
C83	C	-0.020560	-0.576246	0.169890
C84	C	0.479440	-0.076246	0.669890
C85	C	-0.020889	-0.786183	0.379970
C86	C	0.479111	-0.286183	0.879970
C87	C	-0.020859	-0.576235	0.380063
C88	C	0.479141	-0.076235	0.880063
C89	C	-0.230772	-0.576015	0.379658
C90	C	0.269228	-0.076015	0.879658
C91	C	-0.129417	-0.609898	0.346025
C92	C	0.370583	-0.109898	0.846025
C93	C	-0.054587	-0.609979	0.346172
C94	C	0.445413	-0.109979	0.846172
C95	C	-0.073269	-0.628671	0.327396
C96	C	0.426731	-0.128671	0.827396
C97	C	-0.087401	-0.710299	0.370335
C98	C	0.412599	-0.210299	0.870335
C99	C	-0.070424	-0.761345	0.387369
C100	C	0.429576	-0.261345	0.887369
C101	C	0.012165	-0.761428	0.356003
C102	C	0.512165	-0.261428	0.856003
C103	C	-0.004813	-0.710383	0.338967
C104	C	0.495187	-0.210383	0.838967
C105	C	-0.155001	-0.622196	0.396191
C106	C	0.344999	-0.122196	0.896191
C107	C	-0.206043	-0.605128	0.413125
C108	C	0.293957	-0.105128	0.913125
C109	C	-0.205914	-0.563467	0.329724
C110	C	0.294086	-0.063467	0.829724
C111	C	-0.154872	-0.580535	0.312790
C112	C	0.345128	-0.080535	0.812790
C113	C	-0.066886	-0.559797	0.333828
C114	C	0.433114	-0.059797	0.833828
C115	C	-0.049903	-0.542809	0.350903
C116	C	0.450097	-0.042809	0.850903
C117	C	-0.008321	-0.626180	0.392654
C118	C	0.491679	-0.126180	0.892654
C119	C	-0.025304	-0.643170	0.375585
C120	C	0.474696	-0.143170	0.875585
C121	C	-0.066758	-0.559805	0.245702
C122	C	0.433242	-0.059805	0.745702
C123	C	-0.049671	-0.542819	0.194658
C124	C	0.450329	-0.042819	0.694658
C125	C	-0.008026	-0.626194	0.194706
C126	C	0.491974	-0.126194	0.694706
C127	C	-0.025111	-0.643179	0.245752
C128	C	0.474889	-0.143179	0.745752
C129	C	-0.054479	-0.609983	0.271248
C130	C	0.445521	-0.109983	0.771248
C131	C	-0.054597	-0.684821	0.346135
C132	C	0.445403	-0.184821	0.846135
C133	C	-0.002109	-0.556901	0.113746
C134	C	0.497891	-0.056901	0.613746
C135	C	-0.002869	-0.842328	0.398966
C136	C	0.497131	-0.342328	0.898966
C137	C	-0.002496	-0.556887	0.398501
C138	C	0.497504	-0.056887	0.898501
C139	C	-0.286914	-0.556929	0.397631
C140	C	0.213086	-0.056929	0.897631
N141	N	0.436349	-0.465146	0.490703
N142	N	0.936349	0.034854	0.990703
O143	O	0.592194	-0.469605	0.374236
O144	O	1.092194	0.030395	0.874236
O145	O	0.592389	-0.564393	0.502890
O146	O	1.092389	-0.064393	1.002890
O147	O	0.592305	-0.564176	0.421300
O148	O	1.092305	-0.064176	0.921300
O149	O	0.592277	-0.469822	0.455826
O150	O	1.092277	0.030178	0.955826
O151	O	0.511216	-0.537214	0.448415
O152	O	1.011216	-0.037214	0.948415
O153	O	0.511300	-0.537431	0.530004
O154	O	1.011300	-0.037431	1.030004
O155	O	0.511104	-0.442643	0.401350
O156	O	1.011104	0.057357	0.901350
Cu157	Cu	0.503798	-0.487575	0.468153
Cu158	Cu	1.003798	0.012425	0.968153
Cu159	Cu	0.599695	-0.519461	0.436087
Cu160	Cu	1.099695	-0.019461	0.936087
O161	O	0.511188	-0.442860	0.482940
O162	O	1.011188	0.057140	0.982940
N163	N	0.667145	-0.541890	0.413532
N164	N	1.167145	-0.041890	0.913532
N165	N	0.090108	-0.119085	0.490958
N166	N	0.590108	0.380915	0.990958
O167	O	-0.026275	0.036848	0.486394
O168	O	0.473725	0.536848	0.986394
O169	O	0.102381	0.036888	0.391584
O170	O	0.602381	0.536888	0.891584
O171	O	0.020751	0.036852	0.391854
O172	O	0.520751	0.536852	0.891854
O173	O	0.055356	0.036884	0.486124
O174	O	0.555356	0.536884	0.986124
O175	O	0.047821	-0.044242	0.418876
O176	O	0.547821	0.455758	0.918876
O177	O	0.129452	-0.044207	0.418606
O178	O	0.629452	0.455793	0.918606
O179	O	0.000796	-0.044246	0.513417
O180	O	0.500796	0.455754	1.013417
Cu181	Cu	0.067596	-0.051631	0.468479
Cu182	Cu	0.567596	0.448369	0.968479
Cu183	Cu	0.035582	0.044273	0.436522
Cu184	Cu	0.535582	0.544273	0.936522
O185	O	0.082426	-0.044211	0.513146
O186	O	0.582426	0.455789	1.013146
N187	N	0.013063	0.111726	0.414043
N188	N	0.513063	0.611726	0.914043
N189	N	0.090453	-0.465282	0.837001
N190	N	0.590453	0.034718	1.337001
O191	O	0.085913	-0.581648	0.992925
O192	O	0.585913	-0.081648	1.492925
O193	O	-0.008857	-0.452947	0.992970
O194	O	0.491143	0.047053	1.492970
O195	O	-0.008635	-0.534562	0.992946
O196	O	0.491365	-0.034562	1.492946
O197	O	0.085691	-0.500033	0.992949
O198	O	0.585691	-0.000033	1.492949
O199	O	0.018365	-0.507512	0.911855
O200	O	0.518365	-0.007512	1.411855
O201	O	0.018143	-0.425898	0.911878
O202	O	0.518143	0.074102	1.411878
O203	O	0.112912	-0.554598	0.911834
O204	O	0.612912	-0.054598	1.411834
Cu205	Cu	0.067993	-0.487778	0.904452
Cu206	Cu	0.567993	0.012222	1.404452
Cu207	Cu	0.036063	-0.519767	1.000352
Cu208	Cu	0.536063	-0.019767	1.500352
O209	O	0.112691	-0.472984	0.911857
O210	O	0.612691	0.027016	1.411857
N211	N	0.013602	-0.542269	1.067803
N212	N	0.513602	-0.042269	1.567803
C213	C	0.031188	-0.423114	0.392334
C214	C	0.531188	0.076886	0.892334
C215	C	0.132194	-0.524016	0.392223
C216	C	0.632194	-0.024016	0.892223
C217	C	0.072056	-0.584366	0.512840
C218	C	0.572056	-0.084366	1.012840
C219	C	-0.028950	-0.483464	0.512950
C220	C	0.471050	0.016536	1.012950
C221	C	0.551868	-0.563965	0.532655
C222	C	1.051868	-0.063965	1.032655
C223	C	0.551766	-0.563697	0.431617
C224	C	1.051766	-0.063697	0.931617
C225	C	0.551623	-0.443070	0.371586
C226	C	1.051623	0.056930	0.871586
C227	C	0.551728	-0.443339	0.472623
C228	C	1.051728	0.056661	0.972623
C229	C	0.132090	-0.003555	0.392006
C230	C	0.632090	0.496445	0.892006
C231	C	0.031035	-0.003698	0.392374
C232	C	0.531035	0.496302	0.892374
C233	C	-0.028947	-0.003703	0.512961
C234	C	0.471053	0.496297	1.012961
C235	C	0.072143	-0.003661	0.512626
C236	C	0.572143	0.496339	1.012626
C237	C	-0.008408	-0.423209	0.952430
C238	C	0.491592	0.076791	1.452430
C239	C	-0.008128	-0.524272	0.952385
C240	C	0.491872	-0.024272	1.452385
C241	C	0.112464	-0.584336	0.952374
C242	C	0.612464	-0.084336	1.452374
C243	C	0.112190	-0.483267	0.952401
C244	C	0.612190	0.016733	1.452401
H245	H	0.080878	-0.361206	0.638363
H246	H	0.580878	0.138794	1.138363
C247	C	0.152226	-0.473288	0.952393
C248	C	0.652226	0.026712	1.452393
C249	C	0.142244	-0.423281	0.952405
C250	C	0.642244	0.076719	1.452405
C251	C	0.182280	-0.413302	0.952397
C252	C	0.682280	0.086698	1.452397
C253	C	0.232300	-0.453332	0.952379
C254	C	0.732300	0.046668	1.452379
C255	C	0.242284	-0.503343	0.952367
C256	C	0.742284	-0.003343	1.452367
C257	C	0.202248	-0.513321	0.952374
C258	C	0.702248	-0.013321	1.452374
H259	H	0.105214	-0.393646	0.952419
H260	H	0.605214	0.106354	1.452419
H261	H	0.174888	-0.376281	0.952406
H262	H	0.674888	0.123719	1.452406
H263	H	0.261937	-0.445945	0.952373
H264	H	0.761937	0.054055	1.452373
H265	H	0.279314	-0.532978	0.952353
H266	H	0.779314	-0.032978	1.452353
H267	H	0.209640	-0.550343	0.952366
H268	H	0.709640	-0.050343	1.452366
H269	H	0.079554	-0.003651	0.542242
H270	H	0.579554	0.496349	1.042242
H271	H	0.168963	-0.003318	0.362168
H272	H	0.668963	0.496682	0.862168
C273	C	0.021027	-0.003709	0.352361
C274	C	0.521027	0.496291	0.852361
C275	C	-0.028983	-0.003728	0.362370
C276	C	0.471017	0.496272	0.862370
C277	C	-0.038991	-0.003739	0.322357
C278	C	0.461009	0.496261	0.822357
C279	C	0.001011	-0.003730	0.272334
C280	C	0.501011	0.496270	0.772334
C281	C	0.051023	-0.003710	0.262322
C282	C	0.551023	0.496290	0.762322
C283	C	0.061031	-0.003700	0.302335
C284	C	0.561031	0.496300	0.802335
H285	H	-0.058597	-0.003735	0.399403
H286	H	0.441403	0.496265	0.899403
H287	H	-0.076014	-0.003753	0.329769
H288	H	0.423986	0.496247	0.829769
H289	H	-0.006398	-0.003737	0.242713
H290	H	0.493602	0.496263	0.742713
H291	H	0.080638	-0.003703	0.225289
H292	H	0.580638	0.496297	0.725289
H293	H	0.098054	-0.003685	0.294923
H294	H	0.598054	0.496315	0.794923
H295	H	0.551918	-0.593721	0.569607
H296	H	1.051918	-0.093721	1.069607
H297	H	0.551722	-0.413701	0.480010
H298	H	1.051722	0.086299	0.980010
H299	H	-0.038161	-0.386246	0.952443
H300	H	0.461839	0.113754	1.452443
H301	H	-0.065895	-0.003715	0.542725
H302	H	0.434105	0.496285	1.042725
C303	C	-0.048146	-0.534232	0.952337
C304	C	0.451854	-0.034232	1.452337
C305	C	-0.038154	-0.584231	0.952298
C306	C	0.461846	-0.084231	1.452298
C307	C	-0.078172	-0.594191	0.952249
C308	C	0.421828	-0.094191	1.452249
C309	C	-0.128182	-0.554152	0.952241
C310	C	0.371818	-0.054152	1.452241
C311	C	-0.138176	-0.504150	0.952280
C312	C	0.361824	-0.004150	1.452280
C313	C	-0.098158	-0.494190	0.952328
C314	C	0.401842	0.005810	1.452328
H315	H	-0.001132	-0.613873	0.952304
H316	H	0.498868	-0.113873	1.452304
H317	H	-0.070773	-0.631205	0.952220
H318	H	0.429227	-0.131205	1.452220
H319	H	-0.157806	-0.561525	0.952205
H320	H	0.342194	-0.061525	1.452205
H321	H	-0.175199	-0.474508	0.952273
H322	H	0.324801	0.025492	1.452273
H323	H	-0.105557	-0.457175	0.952357
H324	H	0.394443	0.042825	1.452357
H325	H	0.142219	-0.621297	0.952354
H326	H	0.642219	-0.121297	1.452354
H327	H	-0.065919	-0.476185	0.542670
H328	H	0.434081	0.023815	1.042670
H329	H	0.050098	-0.392105	0.730957
H330	H	0.550098	0.107895	1.230957
H331	H	0.201378	-0.467681	0.730833
H332	H	0.701378	0.032319	1.230833
H333	H	0.551560	-0.413310	0.334638
H334	H	1.051560	0.086690	0.834638
H335	H	0.232159	-0.436796	0.638236
H336	H	0.732159	0.063204	1.138236
H337	H	0.080840	-0.361208	0.594989
H338	H	0.580840	0.138792	1.094989
H339	H	0.049948	-0.392069	0.564138
H340	H	0.549948	0.107931	1.064138
C341	C	0.210629	-0.476020	0.480050
C342	C	0.710629	0.023980	0.980050
C343	C	0.247386	-0.525248	0.499546
C344	C	0.747386	-0.025248	0.999546
C345	C	0.283864	-0.557511	0.467242
C346	C	0.783864	-0.057511	0.967242
C347	C	0.283585	-0.540544	0.415443
C348	C	0.783585	-0.040544	0.915443
C349	C	0.246827	-0.491313	0.395945
C350	C	0.746827	0.008687	0.895945
C351	C	0.210348	-0.459051	0.428249
C352	C	0.710348	0.040949	0.928249
H353	H	0.247593	-0.537810	0.537892
H354	H	0.747593	-0.037810	1.037892
H355	H	0.311075	-0.593955	0.481676
H356	H	0.811075	-0.093955	0.981676
H357	H	0.310588	-0.564427	0.391530
H358	H	0.810588	-0.064427	0.891530
H359	H	0.246619	-0.478751	0.357599
H360	H	0.746619	0.021249	0.857599
H361	H	0.183138	-0.422607	0.413815
H362	H	0.683138	0.077393	0.913815
C363	C	0.246394	-0.440255	0.515682
C364	C	0.746394	0.059745	1.015682
C365	C	0.269490	-0.399862	0.487221
C366	C	0.769490	0.100138	0.987221
C367	C	0.324703	-0.413366	0.473526
C368	C	0.824703	0.086634	0.973526
C369	C	0.356821	-0.467264	0.488292
C370	C	0.856821	0.032736	0.988292
C371	C	0.333725	-0.507661	0.516754
C372	C	0.833725	-0.007661	1.016754
C373	C	0.278512	-0.494157	0.530449
C374	C	0.778512	0.005843	1.030449
H375	H	0.245715	-0.359960	0.476289
H376	H	0.745715	0.140040	0.976289
H377	H	0.341800	-0.383461	0.452456
H378	H	0.841800	0.116539	0.952456
H379	H	0.397693	-0.477261	0.478154
H380	H	0.897693	0.022739	0.978154
H381	H	0.357501	-0.547563	0.527686
H382	H	0.857501	-0.047563	1.027686
H383	H	0.261415	-0.524062	0.551519
H384	H	0.761415	-0.024062	1.051519
C385	C	0.230389	-0.483261	0.592580
C386	C	0.730389	0.016739	1.092580
C387	C	0.258478	-0.538036	0.600525
C388	C	0.758478	-0.038036	1.100525
C389	C	0.230424	-0.574112	0.627224
C390	C	0.730424	-0.074112	1.127224
C391	C	0.174280	-0.555413	0.645979
C392	C	0.674280	-0.055413	1.145979
C393	C	0.146187	-0.500635	0.638035
C394	C	0.646187	-0.000635	1.138035
C395	C	0.174242	-0.464559	0.611336
C396	C	0.674242	0.035441	1.111336
H397	H	0.300042	-0.551881	0.586641
H398	H	0.800042	-0.051881	1.086641
H399	H	0.251220	-0.614662	0.633105
H400	H	0.751220	-0.114662	1.133105
H401	H	0.153512	-0.582118	0.665744
H402	H	0.653512	-0.082118	1.165744
H403	H	0.104623	-0.486790	0.651919
H404	H	0.604623	0.013210	1.151919
H405	H	0.153445	-0.424009	0.605455
H406	H	0.653445	0.075991	1.105455
H407	H	0.079411	-0.621363	0.542512
H408	H	0.579411	-0.121363	1.042512
H409	H	0.169160	-0.531297	0.362501
H410	H	0.669160	-0.031297	0.862501
H411	H	0.330218	-0.354891	0.497577
H412	H	0.830218	0.145109	0.997577
C413	C	0.230325	-0.309817	0.526437
C414	C	0.730325	0.190183	1.026437
C415	C	0.237298	-0.272696	0.474354
C416	C	0.737298	0.227304	0.974354
C417	C	0.209210	-0.217918	0.466405
C418	C	0.709210	0.282082	0.966405
C419	C	0.174148	-0.200260	0.510539
C420	C	0.674148	0.299740	1.010539
C421	C	0.167172	-0.237382	0.562626
C422	C	0.667172	0.262618	1.062626
C423	C	0.195261	-0.292160	0.570575
C424	C	0.695261	0.207840	1.070575
H425	H	0.263255	-0.285767	0.441680
H426	H	0.763255	0.214233	0.941680
H427	H	0.214374	-0.190438	0.427847
H428	H	0.714374	0.309562	0.927847
H429	H	0.153355	-0.159710	0.504655
H430	H	0.653355	0.340290	1.004655
H431	H	0.141216	-0.224311	0.595299
H432	H	0.641216	0.275689	1.095299
H433	H	0.190097	-0.319640	0.609133
H434	H	0.690097	0.180360	1.109133
H435	H	0.330277	-0.504737	0.554712
H436	H	0.830277	-0.004737	1.054712
C437	C	0.551781	-0.603743	0.421641
C438	C	1.051781	-0.103743	0.921641
C439	C	0.593863	-0.622763	0.380072
C440	C	1.093863	-0.122763	0.880072
C441	C	0.593878	-0.662809	0.370096
C442	C	1.093878	-0.162809	0.870096
C443	C	0.551812	-0.683834	0.401689
C444	C	1.051812	-0.183834	0.901689
C445	C	0.509727	-0.664813	0.443261
C446	C	1.009727	-0.164813	0.943261
C447	C	0.509711	-0.624767	0.453237
C448	C	1.009711	-0.124767	0.953237
H449	H	0.625006	-0.607200	0.356682
H450	H	1.125006	-0.107200	0.856682
H451	H	0.625033	-0.676889	0.339322
H452	H	1.125033	-0.176889	0.839322
H453	H	0.551823	-0.713478	0.394305
H454	H	1.051823	-0.213478	0.894305
H455	H	0.478583	-0.680377	0.466651
H456	H	0.978583	-0.180377	0.966651
H457	H	0.478557	-0.610687	0.484011
H458	H	0.978557	-0.110687	0.984011
C459	C	0.202558	-0.325061	0.472031
C460	C	0.702558	0.174939	0.972031
C461	C	0.221305	-0.381209	0.490723
C462	C	0.721305	0.118791	0.990723
C463	C	0.253559	-0.409268	0.454220
C464	C	0.753559	0.090732	0.954220
C465	C	0.267066	-0.381179	0.399023
C466	C	0.767066	0.118821	0.899023
C467	C	0.248318	-0.325028	0.380328
C468	C	0.748318	0.174972	0.880328
C469	C	0.216064	-0.296969	0.416832
C470	C	0.716064	0.203031	0.916832
H471	H	0.211307	-0.402005	0.531586
H472	H	0.711307	0.097995	1.031586
H473	H	0.267437	-0.450835	0.468060
H474	H	0.767437	0.049165	0.968060
H475	H	0.290942	-0.401950	0.372001
H476	H	0.790942	0.098050	0.872001
H477	H	0.258316	-0.304232	0.339466
H478	H	0.758316	0.195768	0.839466
H479	H	0.202186	-0.255402	0.402992
H480	H	0.702186	0.244598	0.902992
C481	C	0.166774	-0.217863	0.436338
C482	C	0.666774	0.282137	0.936338
C483	C	0.220671	-0.224859	0.404263
C484	C	0.720671	0.275141	0.904263
C485	C	0.234186	-0.196767	0.349064
C486	C	0.734186	0.303233	0.849064
C487	C	0.193804	-0.161679	0.325941
C488	C	0.693804	0.338321	0.825941
C489	C	0.139904	-0.154682	0.358017
C490	C	0.639904	0.345318	0.858017
C491	C	0.126389	-0.182774	0.413215
C492	C	0.626389	0.317226	0.913215
H493	H	0.250567	-0.250834	0.421380
H494	H	0.750567	0.249166	0.921380
H495	H	0.274087	-0.201947	0.325320
H496	H	0.774087	0.298053	0.825320
H497	H	0.203809	-0.140883	0.285080
H498	H	0.703809	0.359117	0.785080
H499	H	0.110008	-0.128706	0.340900
H500	H	0.610008	0.371294	0.840900
H501	H	0.086488	-0.177594	0.436959
H502	H	0.586488	0.322406	0.936959
C503	C	0.079397	-0.217918	0.611400
C504	C	0.579397	0.282082	1.111400
C505	C	0.098975	-0.224932	0.648087
C506	C	0.598975	0.275068	1.148087
C507	C	0.066725	-0.196867	0.684585
C508	C	0.566725	0.303133	1.184585
C509	C	0.014896	-0.161788	0.684396
C510	C	0.514896	0.338212	1.184396
C511	C	-0.004684	-0.154773	0.647708
C512	C	0.495316	0.345227	1.147708
C513	C	0.027566	-0.182838	0.611210
C514	C	0.527566	0.317162	1.111210
H515	H	0.137344	-0.250901	0.648227
H516	H	0.637344	0.249099	1.148227
H517	H	0.081220	-0.202060	0.711744
H518	H	0.581220	0.297940	1.211744
H519	H	-0.008977	-0.141012	0.711415
H520	H	0.491023	0.358988	1.211415
H521	H	-0.043053	-0.128804	0.647568
H522	H	0.456947	0.371196	1.147568
H523	H	0.013071	-0.177645	0.584051
H524	H	0.513071	0.322355	1.084051
C525	C	0.115178	-0.325122	0.647095
C526	C	0.615178	0.174878	1.147095
C527	C	0.155560	-0.360209	0.670218
C528	C	0.655560	0.139791	1.170218
C529	C	0.142045	-0.388301	0.725416
C530	C	0.642045	0.111699	1.225416
C531	C	0.088149	-0.381306	0.757492
C532	C	0.588149	0.118694	1.257492
C533	C	0.047763	-0.346217	0.734370
C534	C	0.547763	0.153783	1.234370
C535	C	0.061278	-0.318125	0.679171
C536	C	0.561278	0.181875	1.179171
H537	H	0.195461	-0.365389	0.646473
H538	H	0.695461	0.134611	1.146473
H539	H	0.171942	-0.414276	0.742533
H540	H	0.671942	0.085724	1.242533
H541	H	0.078144	-0.402101	0.798353
H542	H	0.578144	0.097899	1.298353
H543	H	0.007863	-0.341037	0.758114
H544	H	0.507863	0.158963	1.258114
H545	H	0.031382	-0.292149	0.662055
H546	H	0.531382	0.207851	1.162055
H547	H	-0.090673	-0.532769	0.266460
H548	H	0.409327	-0.032769	0.766460
C549	C	-0.063189	-0.487618	0.166563
C550	C	0.436811	0.012382	0.666563
C551	C	-0.095494	-0.451108	0.194612
C552	C	0.404506	0.048892	0.694612
C553	C	-0.109011	-0.395908	0.166515
C554	C	0.390989	0.104092	0.666515
C555	C	-0.090223	-0.377219	0.110369
C556	C	0.409777	0.122781	0.610369
C557	C	-0.057915	-0.413731	0.082317
C558	C	0.442085	0.086269	0.582317
C559	C	-0.044398	-0.468930	0.110414
C560	C	0.455602	0.031070	0.610414
H561	H	-0.109404	-0.464942	0.236177
H562	H	0.390596	0.035058	0.736177
H563	H	-0.132927	-0.368880	0.187281
H564	H	0.367073	0.131120	0.687281
H565	H	-0.100229	-0.336358	0.089570
H566	H	0.399771	0.163642	0.589570
H567	H	-0.044005	-0.399897	0.040752
H568	H	0.455995	0.100103	0.540752
H569	H	-0.020482	-0.495958	0.089648
H570	H	0.479518	0.004042	0.589648
H571	H	-0.015108	-0.684041	0.266548
H572	H	0.484892	-0.184041	0.766548
C573	C	0.024267	-0.662710	0.166664
C574	C	0.524267	-0.162710	0.666664
C575	C	0.037768	-0.717906	0.194766
C576	C	0.537768	-0.217906	0.694766
C577	C	0.070062	-0.754424	0.166724
C578	C	0.570062	-0.254424	0.666724
C579	C	0.088855	-0.735747	0.110578
C580	C	0.588855	-0.235747	0.610578
C581	C	0.075354	-0.680549	0.082472
C582	C	0.575354	-0.180549	0.582472
C583	C	0.043061	-0.644031	0.110515
C584	C	0.543061	-0.144031	0.610515
H585	H	0.023856	-0.731734	0.236331
H586	H	0.523856	-0.231734	0.736331
H587	H	0.080055	-0.795286	0.187530
H588	H	0.580055	-0.295286	0.687530
H589	H	0.112761	-0.762780	0.089819
H590	H	0.612761	-0.262780	0.589819
H591	H	0.089266	-0.666721	0.040907
H592	H	0.589266	-0.166721	0.540907
H593	H	0.033067	-0.603169	0.089709
H594	H	0.533067	-0.103169	0.589709
H595	H	-0.090726	-0.532768	0.309877
H596	H	0.409274	-0.032768	0.809877
H597	H	-0.059919	-0.501948	0.340854
H598	H	0.440081	-0.001948	0.840854
H599	H	0.052703	-0.782242	0.350169
H600	H	0.552703	-0.282242	0.850169
C601	C	0.023893	-0.662692	0.425004
C602	C	0.523893	-0.162692	0.925004
C603	C	0.037421	-0.717888	0.438575
C604	C	0.537421	-0.217888	0.938575
C605	C	0.069634	-0.754402	0.470927
C606	C	0.569634	-0.254402	0.970927
C607	C	0.088319	-0.735720	0.489708
C608	C	0.588319	-0.235720	0.989708
C609	C	0.074791	-0.680520	0.476137
C610	C	0.574791	-0.180520	0.976137
C611	C	0.042578	-0.644006	0.443785
C612	C	0.542578	-0.144006	0.943785
H613	H	0.023589	-0.731721	0.424673
H614	H	0.523589	-0.231721	0.924673
H615	H	0.079648	-0.795265	0.480973
H616	H	0.579648	-0.295265	0.980973
H617	H	0.112165	-0.762749	0.513657
H618	H	0.612165	-0.262749	1.013657
H619	H	0.088623	-0.666688	0.490039
H620	H	0.588623	-0.166688	0.990039
H621	H	0.032564	-0.603144	0.433738
H622	H	0.532564	-0.103144	0.933738
H623	H	-0.015291	-0.684031	0.385637
H624	H	0.484709	-0.184031	0.885637
H625	H	-0.097137	-0.782089	0.407066
H626	H	0.402863	-0.282089	0.907066
C627	C	0.031274	-0.682355	0.312349
C628	C	0.531274	-0.182355	0.812349
C629	C	0.086033	-0.710474	0.304471
C630	C	0.586033	-0.210474	0.804471
C631	C	0.122120	-0.682446	0.277852
C632	C	0.622120	-0.182446	0.777852
C633	C	0.103448	-0.626299	0.259111
C634	C	0.603448	-0.126299	0.759111
C635	C	0.048686	-0.598176	0.266989
C636	C	0.548686	-0.098176	0.766989
C637	C	0.012599	-0.626204	0.293608
C638	C	0.512599	-0.126204	0.793608
H639	H	0.099857	-0.752041	0.318344
H640	H	0.599857	-0.252041	0.818344
H641	H	0.162658	-0.703265	0.272020
H642	H	0.662658	-0.203265	0.772020
H643	H	0.130162	-0.605551	0.239406
H644	H	0.630162	-0.105551	0.739406
H645	H	0.034862	-0.556609	0.253115
H646	H	0.534862	-0.056609	0.753115
H647	H	-0.027939	-0.605385	0.299439
H648	H	0.472061	-0.105385	0.799439
H649	H	-0.134277	-0.646110	0.423254
H650	H	0.365723	-0.146110	0.923254
C651	C	-0.234190	-0.618650	0.468311
C652	C	0.265810	-0.118650	0.968311
C653	C	-0.206191	-0.650946	0.504869
C654	C	0.293809	-0.150946	1.004869
C655	C	-0.234337	-0.664467	0.560054
C656	C	0.265663	-0.164467	1.060054
C657	C	-0.290481	-0.645692	0.578682
C658	C	0.209519	-0.145692	1.078682
C659	C	-0.318483	-0.613394	0.542124
C660	C	0.181517	-0.113394	1.042124
C661	C	-0.290337	-0.599873	0.486938
C662	C	0.209663	-0.099873	0.986938
H663	H	-0.164627	-0.664846	0.491080
H664	H	0.335373	-0.164846	0.991080
H665	H	-0.213608	-0.688376	0.587117
H666	H	0.286392	-0.188376	1.087117
H667	H	-0.311316	-0.655701	0.619534
H668	H	0.188684	-0.155701	1.119534
H669	H	-0.360047	-0.599494	0.555913
H670	H	0.139953	-0.099494	1.055913
H671	H	-0.311066	-0.575964	0.459876
H672	H	0.188934	-0.075964	0.959876
C673	C	-0.233918	-0.531180	0.293168
C674	C	0.266082	-0.031180	0.793168
C675	C	-0.205776	-0.517666	0.237984
C676	C	0.294224	-0.017666	0.737984
C677	C	-0.233779	-0.485382	0.201428
C678	C	0.266221	0.014618	0.701428
C679	C	-0.289923	-0.466611	0.220055
C680	C	0.210077	0.033389	0.720055
C681	C	-0.318068	-0.480124	0.275241
C682	C	0.181932	0.019876	0.775241
C683	C	-0.290065	-0.512409	0.311797
C684	C	0.209935	-0.012409	0.811797
H685	H	-0.164212	-0.531562	0.224193
H686	H	0.335788	-0.031562	0.724193
H687	H	-0.212944	-0.475379	0.160575
H688	H	0.287056	0.024621	0.660575
H689	H	-0.310652	-0.442712	0.192993
H690	H	0.189348	0.057288	0.692993
H691	H	-0.359632	-0.466229	0.289032
H692	H	0.140368	0.033771	0.789032
H693	H	-0.310900	-0.522412	0.352650
H694	H	0.189100	-0.022412	0.852650
C695	C	-0.142162	-0.682181	0.378217
C696	C	0.357838	-0.182181	0.878217
C697	C	-0.159755	-0.647084	0.334043
C698	C	0.340245	-0.147084	0.834043
C699	C	-0.214517	-0.618964	0.341925
C700	C	0.285483	-0.118964	0.841925
C701	C	-0.251686	-0.625942	0.393981
C702	C	0.248314	-0.125942	0.893981
C703	C	-0.234094	-0.661040	0.438158
C704	C	0.265906	-0.161040	0.938158
C705	C	-0.179332	-0.689160	0.430276
C706	C	0.320668	-0.189160	0.930276
H707	H	-0.132240	-0.641918	0.295505
H708	H	0.367760	-0.141918	0.795505
H709	H	-0.227540	-0.592982	0.309221
H710	H	0.272460	-0.092982	0.809221
H711	H	-0.292225	-0.605126	0.399815
H712	H	0.207775	-0.105126	0.899815
H713	H	-0.261609	-0.666207	0.476696
H714	H	0.238391	-0.166207	0.976696
H715	H	-0.166309	-0.715143	0.462980
H716	H	0.333691	-0.215143	0.962980
H717	H	0.023834	-0.386116	0.362662
H718	H	0.523834	0.113884	0.862662
C719	C	-0.126722	-0.567013	0.257605
C720	C	0.373278	-0.067013	0.757605
C721	C	-0.133674	-0.513113	0.225543
C722	C	0.366326	-0.013113	0.725543
C723	C	-0.105523	-0.499591	0.170359
C724	C	0.394477	0.000409	0.670359
C725	C	-0.070420	-0.539969	0.147236
C726	C	0.429580	-0.039969	0.647236
C727	C	-0.063466	-0.593872	0.179298
C728	C	0.436534	-0.093872	0.679298
C729	C	-0.091617	-0.607394	0.234482
C730	C	0.408383	-0.107394	0.734482
H731	H	-0.159661	-0.483219	0.242659
H732	H	0.340339	0.016781	0.742659
H733	H	-0.110671	-0.459688	0.146624
H734	H	0.389329	0.040312	0.646624
H735	H	-0.049581	-0.529959	0.106385
H736	H	0.450419	-0.029959	0.606385
H737	H	-0.037480	-0.623766	0.162182
H738	H	0.462520	-0.123766	0.662182
H739	H	-0.086469	-0.647298	0.258217
H740	H	0.413531	-0.147298	0.758217
