data_functionalizedCrystal
_audit_creation_method	'MofGen! by Chris Wilmer'
_symmetry_space_group_name_H-M	'P1'
_symmetry_Int_Tables_number	1
_symmetry_cell_setting	triclinic
loop_
_symmetry_equiv_pos_as_xyz
  x,y,z
_cell_length_a	10.654544
_cell_length_b	10.654541
_cell_length_c	14.048226
_cell_angle_alpha	89.993817
_cell_angle_beta	89.992498
_cell_angle_gamma	84.484390
loop_
_atom_site_label
_atom_site_type_symbol
_atom_site_fract_x
_atom_site_fract_y
_atom_site_fract_z
O1	O	1.667844	0.176401	-0.079184
O2	O	1.302365	0.193207	-0.079181
O3	O	1.493509	0.002065	-0.079177
O4	O	1.476700	0.367544	-0.079188
O5	O	1.493486	0.002053	0.079145
O6	O	1.302342	0.193196	0.079141
O7	O	1.667821	0.176389	0.079137
Zn8	Zn	1.485078	0.184791	0.104276
Zn9	Zn	1.485108	0.184806	-0.104319
O10	O	1.476677	0.367532	0.079133
C11	C	1.255556	0.191968	-0.000020
C12	C	1.116112	0.188276	-0.000018
C13	C	1.492264	-0.044739	-0.000017
C14	C	1.488573	-0.184183	-0.000018
C15	C	1.116062	0.188278	0.172589
C16	C	1.050527	0.186548	0.258889
C17	C	0.919508	0.183077	0.258885
C18	C	0.854022	0.181332	0.172571
C19	C	0.919557	0.183062	0.086271
C20	C	1.050578	0.186537	0.086284
C21	C	0.919609	0.183051	-0.086334
C22	C	1.050626	0.186531	-0.086332
C23	C	0.854122	0.181306	-0.172648
C24	C	0.919656	0.183045	-0.258950
C25	C	1.050683	0.186518	-0.258943
C26	C	1.116161	0.188261	-0.172632
C27	C	1.717138	-0.212154	-0.000008
C28	C	1.829681	-0.291648	-0.000001
C29	C	1.826206	-0.422666	-0.000004
C30	C	1.710174	-0.474191	-0.000017
C31	C	1.597631	-0.394697	-0.000024
C32	C	1.601119	-0.263677	-0.000018
C33	C	1.369069	-0.366726	-0.000041
C34	C	1.372542	-0.235708	-0.000031
C35	C	1.253038	-0.418251	-0.000053
C36	C	1.140492	-0.338757	-0.000053
C37	C	1.143973	-0.207731	-0.000049
C38	C	1.259999	-0.156214	-0.000038
C39	C	1.714630	0.177629	-0.000026
C40	C	1.854074	0.181321	-0.000034
C41	C	1.477922	0.414336	-0.000029
C42	C	1.481613	0.553779	-0.000034
N43	N	1.485066	0.184780	0.246636
N44	N	1.485130	0.184807	-0.246680
C45	C	1.569732	0.100177	0.296456
C46	C	1.569740	0.100176	0.396114
C47	C	1.485088	0.184785	0.445950
C48	C	1.400413	0.269392	0.396123
C49	C	1.400400	0.269385	0.296467
C50	C	1.400449	0.269401	0.603837
C51	C	1.400464	0.269410	0.703500
C52	C	1.569790	0.100192	0.703484
C53	C	1.569776	0.100186	0.603828
C54	C	1.485103	0.184794	0.554008
H55	H	1.222742	0.191121	0.172601
H56	H	1.638680	0.031286	0.436677
H57	H	1.924152	-0.249682	0.000017
H58	H	1.250216	-0.524934	-0.000062
H59	H	1.331530	0.338306	0.744072
O60	O	1.651991	0.017827	0.751766
C61	C	1.723676	-0.199868	0.782304
C62	C	1.630527	-0.106742	0.727546
H63	H	1.706338	-0.300602	0.762757
H64	H	1.824423	-0.182658	0.762668
H65	H	1.709167	-0.185277	0.862087
H66	H	1.644921	-0.121278	0.647751
H67	H	1.529813	-0.123975	0.747261
O68	O	1.935492	-0.499946	-0.000166
C69	C	2.064187	-0.664154	-0.082152
C70	C	1.940390	-0.576688	-0.082098
H71	H	2.068176	-0.726241	-0.148376
H72	H	2.147764	-0.604893	-0.082207
H73	H	2.068232	-0.726144	-0.015865
H74	H	1.936222	-0.514682	-0.148374
H75	H	1.856871	-0.636024	-0.081994
H76	H	1.104034	0.187923	-0.329219
O77	O	1.318004	0.351451	0.444491
C78	C	1.100275	0.423054	0.474975
C79	C	1.193462	0.330029	0.420159
H80	H	0.999563	0.405785	0.455308
H81	H	1.114721	0.408526	0.554771
H82	H	1.117565	0.523790	0.455378
H83	H	1.176229	0.229256	0.439676
H84	H	1.178994	0.344667	0.340376
H85	H	1.331495	0.338295	0.563277
O86	O	1.720741	-0.084912	-0.000038
C87	C	1.851148	0.087760	0.000054
C88	C	1.847246	-0.056363	0.000064
H89	H	1.953418	0.110887	0.000156
H90	H	1.801544	0.129607	-0.066221
H91	H	1.801355	0.129486	0.066293
H92	H	1.897053	-0.098197	-0.066132
H93	H	1.896810	-0.098119	0.066382
H94	H	1.707355	-0.580874	-0.000031
O95	O	1.652011	0.017866	0.248197
C96	C	1.820004	-0.149928	0.258711
C97	C	1.726872	-0.056793	0.313479
H98	H	1.880572	-0.210296	0.311467
H99	H	1.765300	-0.213264	0.212099
H100	H	1.883150	-0.095101	0.212011
H101	H	1.663704	-0.111517	0.360231
H102	H	1.781655	0.006543	0.360031
O103	O	1.318285	0.351746	0.248112
C104	C	1.246523	0.569441	0.217646
C105	C	1.339616	0.476311	0.272449
H106	H	1.263718	0.670171	0.237318
H107	H	1.261050	0.555011	0.137848
H108	H	1.145808	0.552073	0.237251
H109	H	1.440367	0.493621	0.252924
H110	H	1.324978	0.490762	0.352234
H111	H	1.052326	-0.143013	-0.000059
O112	O	1.114301	0.188082	0.342669
C113	C	1.275430	0.083361	0.442891
C114	C	1.203329	0.081488	0.347969
H115	H	1.347407	-0.002824	0.447215
H116	H	1.326128	0.172667	0.447212
H117	H	1.206055	0.081588	0.504555
H118	H	1.272620	0.083214	0.286251
H119	H	1.152611	-0.007812	0.343731
H120	H	1.222842	0.191096	-0.172618
H121	H	0.866149	0.181678	0.329158
H122	H	0.747342	0.178490	0.172575
H123	H	1.262844	-0.049534	-0.000029
O124	O	0.855960	0.181572	-0.342761
C125	C	0.694707	0.286209	-0.442918
C126	C	0.766773	0.288045	-0.347978
H127	H	0.622565	0.372269	-0.447158
H128	H	0.763978	0.288131	-0.504639
H129	H	0.644168	0.196802	-0.447212
H130	H	0.817316	0.377437	-0.343590
H131	H	0.697443	0.286056	-0.286301
H132	H	0.747441	0.178471	-0.172645
H133	H	1.046029	-0.380720	-0.000070
H134	H	1.638712	0.031297	0.563252
