data_functionalizedCrystal
_audit_creation_method	'MofGen! by Chris Wilmer'
_symmetry_space_group_name_H-M	'P1'
_symmetry_Int_Tables_number	1
_symmetry_cell_setting	triclinic
loop_
_symmetry_equiv_pos_as_xyz
  x,y,z
_cell_length_a	10.723024
_cell_length_b	11.026607
_cell_length_c	9.198806
_cell_angle_alpha	89.998911
_cell_angle_beta	89.996352
_cell_angle_gamma	96.526943
loop_
_atom_site_label
_atom_site_type_symbol
_atom_site_fract_x
_atom_site_fract_y
_atom_site_fract_z
O1	O	1.693992	0.170518	-0.120878
O2	O	1.334363	0.186840	-0.120883
O3	O	1.484372	0.001778	-0.120876
O4	O	1.543983	0.355580	-0.120886
O5	O	1.484357	0.001777	0.120909
O6	O	1.334348	0.186840	0.120902
O7	O	1.693977	0.170518	0.120907
Cu8	Cu	1.514161	0.178679	0.142981
Cu9	Cu	1.514179	0.178679	-0.142958
O10	O	1.543968	0.355580	0.120899
C11	C	1.287599	0.185652	0.000009
C12	C	1.148278	0.182098	0.000007
C13	C	1.095646	0.285649	0.000003
C14	C	0.951650	0.281979	0.000001
C15	C	1.473367	-0.043525	0.000015
C16	C	1.440584	-0.178512	0.000009
C17	C	1.531104	-0.251564	0.000008
C18	C	1.497223	-0.391080	0.000003
C19	C	1.740741	0.171706	0.000011
C20	C	1.880062	0.175259	0.000004
C21	C	1.554973	0.400883	0.000006
C22	C	1.587756	0.535869	0.000002
N23	N	1.514157	0.178677	0.344095
N24	N	1.514191	0.178671	-0.344072
C25	C	1.577068	0.100633	0.416295
C26	C	1.577086	0.100628	0.583707
H27	H	0.906351	0.370627	-0.000008
H28	H	1.460333	0.245496	0.593849
H29	H	1.630952	0.033815	0.645796
H30	H	1.460305	0.245487	0.406221
C31	C	1.649789	0.010346	0.332371
N32	N	1.704557	-0.057667	0.269162
C33	C	0.941246	0.055490	0.000012
N34	N	0.987339	-0.034720	0.000022
H35	H	1.690344	-0.423393	-0.000106
C36	C	1.669689	-0.196525	0.000021
N37	N	1.774074	-0.155072	0.000036
H38	H	1.338003	-0.219257	-0.000002
H39	H	1.086734	0.090727	-0.000028
C40	C	1.178783	0.409093	0.000006
N41	N	1.241401	0.502074	0.000007
H42	H	1.394636	-0.431820	-0.000008
