data_functionalizedCrystal
_audit_creation_method	'MofGen! by Chris Wilmer'
_symmetry_space_group_name_H-M	'P1'
_symmetry_Int_Tables_number	1
_symmetry_cell_setting	triclinic
loop_
_symmetry_equiv_pos_as_xyz
  x,y,z
_cell_length_a	17.699083
_cell_length_b	17.699083
_cell_length_c	16.776229
_cell_angle_alpha	89.994790
_cell_angle_beta	89.997548
_cell_angle_gamma	83.283015
loop_
_atom_site_label
_atom_site_type_symbol
_atom_site_fract_x
_atom_site_fract_y
_atom_site_fract_z
O1	O	1.004076	0.095699	0.066178
O2	O	1.504076	0.595699	0.566178
O3	O	0.783698	0.108152	0.066204
O4	O	1.283698	0.608152	0.566204
O5	O	0.900113	-0.008264	0.066183
O6	O	1.400113	0.491736	0.566183
O7	O	0.887661	0.212115	0.066199
O8	O	1.387661	0.712115	0.566199
O9	O	0.900102	-0.008243	-0.066393
O10	O	1.400102	0.491757	0.433607
O11	O	0.783687	0.108172	-0.066372
O12	O	1.283687	0.608172	0.433628
O13	O	1.004065	0.095720	-0.066398
O14	O	1.504065	0.595720	0.433602
Zn15	Zn	0.893874	0.101949	-0.087435
Zn16	Zn	1.393874	0.601949	0.412565
Zn17	Zn	0.893889	0.101922	0.087241
Zn18	Zn	1.393889	0.601922	0.587241
O19	O	0.887650	0.212135	-0.066378
O20	O	1.387650	0.712135	0.433622
C21	C	0.755495	0.107716	-0.000081
C22	C	1.255495	0.607716	0.499919
C23	C	0.671477	0.106377	-0.000071
C24	C	1.171477	0.606377	0.499929
C25	C	0.622856	0.174711	-0.000066
C26	C	1.122856	0.674711	0.499934
C27	C	0.543913	0.173448	-0.000077
C28	C	1.043913	0.673448	0.499923
C29	C	0.513592	0.103852	-0.000086
C30	C	1.013592	0.603852	0.499914
C31	C	0.562219	0.035513	-0.000093
C32	C	1.062219	0.535513	0.499907
C33	C	0.641161	0.036776	-0.000088
C34	C	1.141161	0.536776	0.499912
C35	C	0.243856	0.030418	-0.000113
C36	C	0.743856	0.530418	0.499887
C37	C	0.164908	0.029160	-0.000115
C38	C	0.664908	0.529160	0.499885
C39	C	0.146608	0.167090	-0.000101
C40	C	0.646608	0.667090	0.499899
C41	C	0.225550	0.168353	-0.000097
C42	C	0.725550	0.668353	0.499903
C43	C	0.274170	0.100015	-0.000108
C44	C	0.774170	0.600015	0.499892
C45	C	0.359769	0.101384	-0.000098
C46	C	0.859769	0.601384	0.499902
C47	C	0.427995	0.102481	-0.000090
C48	C	0.927995	0.602481	0.499910
C49	C	0.899662	-0.036451	-0.000105
C50	C	1.399662	0.463549	0.499895
C51	C	0.898323	-0.120469	-0.000105
C52	C	1.398323	0.379531	0.499895
C53	C	0.966656	-0.169090	-0.000114
C54	C	1.466656	0.330910	0.499886
C55	C	0.965394	-0.248033	-0.000107
C56	C	1.465394	0.251967	0.499893
C57	C	0.895798	-0.278354	-0.000096
C58	C	1.395798	0.221646	0.499904
C59	C	0.827459	-0.229727	-0.000085
C60	C	1.327459	0.270273	0.499915
C61	C	0.828722	-0.150785	-0.000086
C62	C	1.328722	0.349215	0.499914
C63	C	0.822364	-0.548090	-0.000078
C64	C	1.322364	-0.048090	0.499922
C65	C	0.821106	-0.627038	-0.000078
C66	C	1.321106	-0.127038	0.499922
C67	C	0.959036	-0.645338	-0.000099
C68	C	1.459036	-0.145338	0.499901
C69	C	0.960299	-0.566396	-0.000100
C70	C	1.460299	-0.066396	0.499900
C71	C	0.891961	-0.517776	-0.000084
C72	C	1.391961	-0.017776	0.499916
C73	C	0.893330	-0.432177	-0.000090
C74	C	1.393330	0.067823	0.499910
C75	C	0.894427	-0.363951	-0.000096
C76	C	1.394427	0.136049	0.499904
C77	C	1.032268	0.096156	-0.000112
C78	C	1.532268	0.596156	0.499888
C79	C	1.116286	0.097494	-0.000116
C80	C	1.616286	0.597494	0.499884
C81	C	0.888102	0.240322	-0.000087
C82	C	1.388102	0.740322	0.499913
C83	C	0.889440	0.324340	-0.000082
C84	C	1.389440	0.824340	0.499918
N85	N	0.893870	0.101967	-0.206646
N86	N	1.393870	0.601967	0.293354
C87	C	0.848081	0.056058	-0.751815
C88	C	1.348081	0.556058	-0.251815
C89	C	0.848079	0.056064	-0.668363
C90	C	1.348079	0.556064	-0.168363
C91	C	0.893892	0.101916	-0.626645
C92	C	1.393892	0.601916	-0.126645
C93	C	0.939715	0.147758	-0.668384
C94	C	1.439715	0.647758	-0.168384
C95	C	0.939720	0.147747	-0.751835
C96	C	1.439720	0.647747	-0.251835
C97	C	0.939695	0.147803	-0.331837
C98	C	1.439695	0.647803	0.168163
C99	C	0.939685	0.147812	-0.248380
C100	C	1.439685	0.647812	0.251620
C101	C	0.848054	0.056120	-0.248365
C102	C	1.348054	0.556120	0.251635
C103	C	0.848060	0.056109	-0.331816
C104	C	1.348060	0.556109	0.168184
C105	C	0.893885	0.101948	-0.373547
C106	C	1.393885	0.601948	0.126453
C107	C	0.893888	0.101939	-0.464036
C108	C	1.393888	0.601939	0.035964
C109	C	0.893886	0.101929	-0.536158
C110	C	1.393886	0.601929	-0.036158
N111	N	0.893899	0.101898	0.206452
N112	N	1.393899	0.601898	0.706452
H113	H	0.283434	-0.025228	-0.000123
H114	H	0.783434	0.474772	0.499877
H115	H	0.770792	-0.254420	-0.000071
H116	H	1.270792	0.245580	0.499929
H117	H	1.023330	-0.144409	-0.000128
H118	H	1.523330	0.355591	0.499872
H119	H	0.810771	0.018724	-0.785776
H120	H	1.310771	0.518724	-0.285776
H121	H	0.680748	-0.018868	-0.000091
H122	H	1.180748	0.481132	0.499909
O123	O	1.027858	-0.536854	-0.000002
O124	O	1.527858	-0.036854	0.499998
C125	C	1.032726	-0.491761	0.068670
C126	C	1.532726	0.008239	0.568670
H127	H	0.973036	-0.471991	0.091566
H128	H	1.473036	0.028009	0.591566
H129	H	1.062801	-0.440120	0.053226
H130	H	1.562801	0.059880	0.553226
H131	H	1.066275	-0.526706	0.116748
H132	H	1.566275	-0.026706	0.616748
O133	O	0.762273	-0.103660	-0.000113
O134	O	1.262273	0.396340	0.499887
C135	C	0.700574	-0.147347	-0.000082
C136	C	1.200574	0.352653	0.499918
H137	H	0.719887	-0.206300	-0.025188
H138	H	1.219887	0.293700	0.474812
H139	H	0.652698	-0.118131	-0.038562
H140	H	1.152698	0.381869	0.461438
H141	H	0.679243	-0.152937	0.063525
H142	H	1.179243	0.347063	0.563525
O143	O	0.755931	-0.500946	0.000035
O144	O	1.255931	-0.000946	0.500035
C145	C	0.713680	-0.514667	0.068710
C146	C	1.213680	-0.014667	0.568710
H147	H	0.732382	-0.574586	0.091601
H148	H	1.232382	-0.074586	0.591601
H149	H	0.650544	-0.509003	0.053271
H150	H	1.150544	-0.009003	0.553271
H151	H	0.723946	-0.471508	0.116789
H152	H	1.223946	0.028492	0.616789
O153	O	1.031843	-0.295155	-0.000157
O154	O	1.531843	0.204845	0.499843
C155	C	1.093541	-0.251465	-0.000154
C156	C	1.593541	0.248535	0.499846
H157	H	1.074217	-0.192508	-0.025251
H158	H	1.574217	0.307492	0.474749
H159	H	1.141404	-0.280671	-0.038655
H160	H	1.641404	0.219329	0.461345
H161	H	1.114893	-0.245889	0.063444
H162	H	1.614893	0.254111	0.563444
H163	H	1.014680	-0.684934	-0.000107
H164	H	1.514680	-0.184934	0.499893
O165	O	0.753543	-0.656582	0.000045
O166	O	1.253543	-0.156582	0.500045
C167	C	0.748695	-0.701691	0.068719
C168	C	1.248695	-0.201691	0.568719
H169	H	0.808391	-0.721462	0.091594
H170	H	1.308391	-0.221462	0.591594
H171	H	0.718620	-0.753330	0.053283
H172	H	1.218620	-0.253330	0.553283
H173	H	0.715155	-0.666759	0.116808
H174	H	1.215155	-0.166759	0.616808
H175	H	0.810772	0.018734	-0.634388
H176	H	1.310772	0.518734	-0.134388
H177	H	0.810751	0.018774	-0.365779
H178	H	1.310751	0.518774	0.134221
H179	H	0.976993	0.185152	-0.214416
H180	H	1.476993	0.685152	0.285584
H181	H	0.140225	-0.027517	-0.000124
H182	H	0.640225	0.472483	0.499876
H183	H	0.250232	0.225025	-0.000085
H184	H	0.750232	0.725025	0.499915
H185	H	0.810743	0.018793	-0.214378
H186	H	1.310743	0.518793	0.285622
H187	H	0.107012	0.222734	-0.000097
H188	H	0.607012	0.722734	0.499903
H189	H	0.977009	0.185129	-0.365804
H190	H	1.477009	0.685129	0.134196
O191	O	0.532642	-0.032027	-0.000068
O192	O	1.032642	0.467973	0.499932
C193	C	0.452540	-0.018491	-0.000089
C194	C	0.952540	0.481509	0.499911
H195	H	0.433890	0.040603	0.025016
H196	H	0.933890	0.540603	0.525016
H197	H	0.428382	-0.063024	0.038396
H198	H	0.928382	0.436976	0.538396
H199	H	0.430575	-0.022108	-0.063694
H200	H	0.930575	0.477892	0.436306
H201	H	0.977020	0.185088	-0.634411
H202	H	1.477020	0.685088	-0.134411
O203	O	0.984247	0.192348	-0.792253
O204	O	1.484247	0.692348	-0.292253
C205	C	1.024696	0.232807	-0.737539
C206	C	1.524696	0.732807	-0.237539
H207	H	0.993353	0.237275	-0.678055
H208	H	1.493353	0.737275	-0.178055
H209	H	1.029284	0.292313	-0.761667
H210	H	1.529284	0.792313	-0.261667
H211	H	1.084159	0.201550	-0.728654
H212	H	1.584159	0.701550	-0.228654
H213	H	0.504328	0.229092	-0.000072
H214	H	1.004328	0.729092	0.499928
O215	O	0.652181	0.242384	-0.000091
O216	O	1.152181	0.742384	0.499909
C217	C	0.592334	0.302425	-0.000071
C218	C	1.092334	0.802425	0.499929
H219	H	0.538748	0.281309	-0.025176
H220	H	1.038748	0.781309	0.474824
H221	H	0.608743	0.351031	-0.038556
H222	H	1.108743	0.851031	0.461444
H223	H	0.581118	0.323487	0.063534
H224	H	1.081118	0.823487	0.563534
