data_functionalizedCrystal
_audit_creation_method	'MofGen! by Chris Wilmer'
_symmetry_space_group_name_H-M	'P1'
_symmetry_Int_Tables_number	1
_symmetry_cell_setting	triclinic
loop_
_symmetry_equiv_pos_as_xyz
  x,y,z
_cell_length_a	13.032721
_cell_length_b	10.686154
_cell_length_c	10.686551
_cell_angle_alpha	89.693980
_cell_angle_beta	93.335252
_cell_angle_gamma	79.028863
loop_
_atom_site_label
_atom_site_type_symbol
_atom_site_fract_x
_atom_site_fract_y
_atom_site_fract_z
Zn1	Zn	-0.254473	-1.936442	-0.604196
Zn2	Zn	-0.443341	-1.893605	-0.425421
Zn3	Zn	-0.281158	-1.706801	-0.414884
Zn4	Zn	-0.441219	-1.700334	-0.650844
O5	O	-0.355048	-1.809295	-0.523836
O6	O	-0.269247	-2.107750	-0.565369
O7	O	-0.433883	-1.853604	-0.250455
O8	O	-0.131591	-1.757897	-0.416065
O9	O	-0.408008	-2.076278	-0.434023
O10	O	-0.111985	-1.926614	-0.555152
O11	O	-0.314728	-1.716360	-0.242713
O12	O	-0.312670	-1.528952	-0.461297
O13	O	-0.404391	-1.746875	-0.818224
O14	O	-0.430266	-1.524201	-0.634656
O15	O	-0.267190	-1.920343	-0.783952
O16	O	-0.589087	-1.847333	-0.479255
O17	O	-0.587528	-1.705337	-0.644873
C18	C	-0.374134	-1.480685	-0.551896
C19	C	-0.382323	-1.340103	-0.563933
C20	C	-0.626167	-1.771022	-0.568293
C21	C	-0.742144	-1.754768	-0.587344
C22	C	-0.794578	-1.817851	-0.513944
C23	C	-0.914446	-1.801053	-0.533631
C24	C	-0.082866	-1.847755	-0.479229
C25	C	0.033122	-1.864144	-0.460221
C26	C	-0.332577	-1.837666	-0.847351
C27	C	-0.323001	-1.849756	-0.985214
C28	C	-0.335878	-1.139190	-0.495658
C29	C	-0.327685	-1.279773	-0.483625
C30	C	-0.377352	-1.781119	-0.201561
C31	C	-0.386619	-1.769315	-0.063630
H32	H	-0.274643	-1.335671	-0.405660
H33	H	-0.750730	-1.884300	-0.436531
H34	H	-0.435375	-1.284197	-0.641897
H35	H	-0.448414	-1.691201	-1.025297
F36	F	-0.799452	-1.667926	-0.688541
H37	H	-0.958291	-1.734610	-0.611057
F38	F	-0.242235	-1.951876	-1.035319
H39	H	-0.923033	-1.930598	-0.382803
