data_functionalizedCrystal
_audit_creation_method	'MofGen! by Chris Wilmer'
_symmetry_space_group_name_H-M	'P1'
_symmetry_Int_Tables_number	1
_symmetry_cell_setting	triclinic
loop_
_symmetry_equiv_pos_as_xyz
  x,y,z
_cell_length_a	12.837943
_cell_length_b	14.853559
_cell_length_c	11.295483
_cell_angle_alpha	94.102887
_cell_angle_beta	85.461227
_cell_angle_gamma	89.230197
loop_
_atom_site_label
_atom_site_type_symbol
_atom_site_fract_x
_atom_site_fract_y
_atom_site_fract_z
O1	O	1.382756	0.228927	-0.098992
O2	O	1.882756	0.728927	0.401008
O3	O	1.080934	0.217348	-0.099000
O4	O	1.580934	0.717348	0.401000
O5	O	1.239912	0.092591	-0.098995
O6	O	1.739912	0.592591	0.401005
O7	O	1.223778	0.353683	-0.098998
O8	O	1.723778	0.853683	0.401002
O9	O	1.225948	0.103530	0.099056
O10	O	1.725948	0.603530	0.599056
O11	O	1.066971	0.228287	0.099050
O12	O	1.566971	0.728287	0.599050
O13	O	1.368792	0.239866	0.099058
O14	O	1.868792	0.739866	0.599058
Cu15	Cu	1.216607	0.235075	0.117138
Cu16	Cu	1.716607	0.735075	0.617138
Cu17	Cu	1.233120	0.222139	-0.117080
Cu18	Cu	1.733120	0.722139	0.382920
O19	O	1.209815	0.364622	0.099053
O20	O	1.709815	0.864622	0.599053
C21	C	1.035327	0.218906	0.000024
C22	C	1.535327	0.718906	0.500024
C23	C	0.920233	0.207239	0.000021
C24	C	1.420233	0.707239	0.500021
C25	C	0.679471	0.347487	0.000037
C26	C	1.179471	0.847487	0.500037
C27	C	0.571330	0.336530	0.000035
C28	C	1.071330	0.836530	0.500035
C29	C	0.595807	0.174369	0.000024
C30	C	1.095807	0.674369	0.500024
C31	C	0.703948	0.185326	0.000026
C32	C	1.203948	0.685326	0.500026
C33	C	0.745776	0.271888	0.000030
C34	C	1.245776	0.771888	0.500030
C35	C	0.853920	0.282844	0.000024
C36	C	1.353920	0.782844	0.500024
C37	C	0.878395	0.120685	0.000021
C38	C	1.378395	0.620685	0.500021
C39	C	0.770254	0.109727	0.000019
C40	C	1.270254	0.609727	0.500019
C41	C	1.232201	0.064410	0.000028
C42	C	1.732201	0.564410	0.500028
C43	C	1.230015	-0.035860	0.000021
C44	C	1.730015	0.464140	0.500021
C45	C	1.228353	-0.465784	-0.107936
C46	C	1.728353	0.034216	0.392064
C47	C	1.213130	-0.453853	0.107986
C48	C	1.713130	0.046147	0.607986
C49	C	1.215192	-0.359645	0.107987
C50	C	1.715192	0.140355	0.607987
C51	C	1.223834	-0.318502	0.000025
C52	C	1.723834	0.181498	0.500025
C53	C	1.230413	-0.371567	-0.107938
C54	C	1.730413	0.128433	0.392062
C55	C	1.208603	-0.306572	0.215948
C56	C	1.708603	0.193428	0.715948
C57	C	1.210664	-0.212358	0.215954
C58	C	1.710664	0.287642	0.715954
C59	C	1.219313	-0.171213	0.107990
C60	C	1.719313	0.328787	0.607990
C61	C	1.225893	-0.224285	0.000023
C62	C	1.725893	0.275715	0.500023
C63	C	1.234535	-0.183142	-0.107940
C64	C	1.734535	0.316858	0.392060
C65	C	1.241123	-0.236212	-0.215909
C66	C	1.741123	0.263788	0.284091
C67	C	1.239062	-0.330423	-0.215902
C68	C	1.739062	0.169577	0.284098
C69	C	1.221374	-0.077003	0.107984
C70	C	1.721374	0.422997	0.607984
C71	C	1.236594	-0.088925	-0.107942
C72	C	1.736594	0.411075	0.392058
C73	C	1.414400	0.238308	0.000031
C74	C	1.914400	0.738308	0.500031
C75	C	1.529494	0.249974	0.000026
C76	C	2.029494	0.749974	0.500026
C77	C	1.217526	0.392804	0.000027
C78	C	1.717526	0.892804	0.500027
C79	C	1.219712	0.493073	0.000026
C80	C	1.719712	0.993073	0.500026
N81	N	1.205000	0.244174	0.281874
N82	N	1.705000	0.744174	0.781874
N83	N	1.244735	0.213033	-0.281816
N84	N	1.744735	0.713033	0.218184
C85	C	1.328289	0.147484	0.531167
C86	C	1.828289	0.647484	1.031167
C87	C	1.319524	0.154367	0.655830
C88	C	1.819524	0.654367	1.155830
C89	C	1.178703	0.264818	0.655866
C90	C	1.678703	0.764818	1.155866
C91	C	1.187467	0.257935	0.531203
C92	C	1.687467	0.757935	1.031203
C93	C	1.262263	0.199267	0.468858
C94	C	1.762263	0.699267	0.968858
C95	C	1.271032	0.192389	0.344192
C96	C	1.771032	0.692389	0.844192
C97	C	1.130206	0.302835	0.344230
C98	C	1.630206	0.802835	0.844230
C99	C	1.121442	0.309718	0.468893
C100	C	1.621442	0.809718	0.968893
H101	H	0.887973	0.353327	0.000030
H102	H	1.387973	0.853327	0.500030
H103	H	1.244425	-0.373641	-0.303804
H104	H	1.744425	0.126359	0.196196
O105	O	0.725129	0.016371	0.000018
O106	O	1.225129	0.516371	0.500018
H107	H	0.789407	-0.034357	0.000022
H108	H	1.289407	0.465643	0.500022
H109	H	1.076447	0.345003	0.293483
H110	H	1.576447	0.845003	0.793483
H111	H	1.389197	0.099720	0.480405
H112	H	1.889197	0.599720	0.980405
O113	O	1.390741	0.098514	0.723032
O114	O	1.890741	0.598514	1.223032
H115	H	1.372079	0.113149	0.820193
H116	H	1.872079	0.613149	1.320193
H117	H	1.233721	-0.508998	-0.195842
H118	H	1.733721	-0.008998	0.304158
O119	O	1.203828	-0.498233	0.224420
O120	O	1.703828	0.001767	0.724420
H121	H	1.131926	-0.538907	0.229587
H122	H	1.631926	-0.038907	0.729587
O123	O	1.214270	-0.019767	0.224424
O124	O	1.714270	0.480233	0.724424
H125	H	1.217150	0.052656	0.206287
H126	H	1.717150	0.552656	0.706287
H127	H	1.117799	0.312578	0.706644
H128	H	1.617799	0.812578	1.206644
H129	H	1.060541	0.357483	0.519669
H130	H	1.560541	0.857483	1.019669
H131	H	1.205303	-0.169156	0.303868
H132	H	1.705303	0.330844	0.803868
O133	O	1.351684	0.129104	0.276931
O134	O	1.851684	0.629104	0.776931
H135	H	1.430844	0.148874	0.300833
H136	H	1.930844	0.648874	0.800833
O137	O	0.724597	0.440843	0.000044
O138	O	1.224597	0.940843	0.500044
H139	H	0.660321	0.491573	0.000053
H140	H	1.160321	0.991573	0.500053
H141	H	0.517347	0.398091	0.000043
H142	H	1.017347	0.898091	0.500043
H143	H	1.201562	-0.340077	0.303845
H144	H	1.701562	0.159923	0.803845
H145	H	0.932393	0.059126	0.000008
H146	H	1.432393	0.559126	0.500008
O147	O	0.550685	0.081013	0.000037
O148	O	1.050685	0.581013	0.500037
H149	H	0.464348	0.086099	0.000039
H150	H	0.964348	0.586099	0.500039
H151	H	1.248151	-0.202701	-0.303811
H152	H	1.748151	0.297299	0.196189
O153	O	1.245906	-0.044549	-0.224388
O154	O	1.745906	0.455451	0.275612
H155	H	1.250130	-0.097281	-0.299457
H156	H	1.750130	0.402719	0.200543
