data_functionalizedCrystal
_audit_creation_method	'MofGen! by Chris Wilmer'
_symmetry_space_group_name_H-M	'P1'
_symmetry_Int_Tables_number	1
_symmetry_cell_setting	triclinic
loop_
_symmetry_equiv_pos_as_xyz
  x,y,z
_cell_length_a	18.050590
_cell_length_b	18.050591
_cell_length_c	17.077396
_cell_angle_alpha	89.974392
_cell_angle_beta	90.019447
_cell_angle_gamma	89.995953
loop_
_atom_site_label
_atom_site_type_symbol
_atom_site_fract_x
_atom_site_fract_y
_atom_site_fract_z
Zn1	Zn	0.295738	1.135431	-0.444020
Zn2	Zn	0.795738	1.635431	0.055980
Zn3	Zn	0.419936	1.135375	-0.312775
Zn4	Zn	0.919936	1.635375	0.187225
Zn5	Zn	0.295755	1.011240	-0.312754
Zn6	Zn	0.795755	1.511240	0.187246
Zn7	Zn	0.419882	1.011242	-0.443984
Zn8	Zn	0.919882	1.511242	0.056016
O9	O	0.357828	1.073322	-0.378383
O10	O	0.857828	1.573322	0.121617
O11	O	0.312229	1.239348	-0.426634
O12	O	0.812229	1.739348	0.073366
O13	O	0.403492	1.118884	-0.202925
O14	O	0.903492	1.618884	0.297075
O15	O	0.191829	1.027737	-0.330173
O16	O	0.691829	1.527737	0.169827
O17	O	0.403476	1.239307	-0.330208
O18	O	0.903476	1.739307	0.169792
O19	O	0.191816	1.118979	-0.426613
O20	O	0.691816	1.618979	0.073387
O21	O	0.312258	1.027683	-0.202910
O22	O	0.812258	1.527683	0.297090
O23	O	0.312206	0.907316	-0.330138
O24	O	0.812206	1.407316	0.169862
O25	O	0.403385	1.027740	-0.553836
O26	O	0.903385	1.527740	-0.053836
O27	O	0.403402	0.907317	-0.426553
O28	O	0.903402	1.407317	0.073447
O29	O	0.312177	1.118981	-0.553862
O30	O	0.812177	1.618981	-0.053862
O31	O	0.523853	1.118886	-0.330174
O32	O	1.023853	1.618886	0.169826
O33	O	0.523814	1.027686	-0.426573
O34	O	1.023814	1.527686	0.073427
C35	C	0.357800	0.880370	-0.378340
C36	C	0.857800	1.380370	0.121660
C37	C	0.357806	0.797824	-0.378340
C38	C	0.857806	1.297824	0.121660
C39	C	0.164122	1.073364	-0.378395
C40	C	0.664122	1.573364	0.121605
C41	C	0.081577	1.073382	-0.378400
C42	C	0.581577	1.573382	0.121600
C43	C	-0.117881	1.122997	-0.430861
C44	C	0.382119	1.622997	0.069139
C45	C	-0.167252	1.141146	-0.359251
C46	C	0.332748	1.641146	0.140749
C47	C	-0.069554	1.073375	-0.378404
C48	C	0.430446	1.573375	0.121596
C49	C	-0.167264	1.055253	-0.450016
C50	C	0.332736	1.555253	0.049984
C51	C	-0.215539	1.073369	-0.378414
C52	C	0.284461	1.573369	0.121586
C53	C	-0.117838	1.091558	-0.306757
C54	C	0.382162	1.591558	0.193243
C55	C	-0.117845	1.005634	-0.397569
C56	C	0.382155	1.505634	0.102431
C57	C	-0.167194	1.023757	-0.325911
C58	C	0.332806	1.523757	0.174089
C59	C	0.014545	1.073380	-0.378399
C60	C	0.514545	1.573380	0.121601
C61	C	-0.299635	1.073363	-0.378411
C62	C	0.200365	1.573363	0.121589
C63	C	0.308157	0.598351	-0.326030
C64	C	0.808157	1.098351	0.173970
C65	C	0.375895	0.548954	-0.306725
C66	C	0.875895	1.048954	0.193275
C67	C	0.357829	0.646694	-0.378375
C68	C	0.857829	1.146694	0.121625
C69	C	0.290115	0.549010	-0.397679
C70	C	0.790115	1.049010	0.102321
C71	C	0.357845	0.500709	-0.378408
C72	C	0.857845	1.000709	0.121592
C73	C	0.425602	0.598384	-0.359032
C74	C	0.925602	1.098384	0.140968
C75	C	0.339777	0.598444	-0.450020
C76	C	0.839777	1.098444	0.049980
C77	C	0.407561	0.549069	-0.430741
C78	C	0.907561	1.049069	0.069259
C79	C	0.357819	0.730792	-0.378354
C80	C	0.857819	1.230792	0.121646
C81	C	0.357862	0.416612	-0.378429
C82	C	0.857862	0.916612	0.121571
C83	C	0.550780	1.073300	-0.378389
C84	C	1.050780	1.573300	0.121611
C85	C	0.633326	1.073359	-0.378417
C86	C	1.133326	1.573359	0.121583
C87	C	0.357773	1.073367	-0.583128
C88	C	0.857773	1.573367	-0.083128
C89	C	0.357750	1.073386	-0.670377
C90	C	0.857750	1.573386	-0.170377
C91	C	0.357856	1.267028	-0.378427
C92	C	0.857856	1.767028	0.121573
C93	C	0.357868	1.349573	-0.378446
C94	C	0.857868	1.849573	0.121554
C95	C	0.310254	1.120897	-0.711382
C96	C	0.810254	1.620897	-0.211382
C97	C	0.310229	1.120906	-0.793363
C98	C	0.810229	1.620906	-0.293363
C99	C	0.357705	1.073407	-0.834337
C100	C	0.857705	1.573407	-0.334337
C101	C	0.405203	1.025891	-0.793326
C102	C	0.905203	1.525891	-0.293326
C103	C	0.405223	1.025879	-0.711347
C104	C	0.905223	1.525879	-0.211347
C105	C	0.405158	1.025921	-0.964196
C106	C	0.905158	1.525921	-0.464196
C107	C	0.405139	1.025934	-1.046181
C108	C	0.905139	1.525934	-0.546181
C109	C	0.310164	1.120948	-1.046212
C110	C	0.810164	1.620948	-0.546212
C111	C	0.310185	1.120936	-0.964233
C112	C	0.810185	1.620936	-0.464233
C113	C	0.357684	1.073421	-0.923228
C114	C	0.857684	1.573421	-0.423228
C115	C	0.357829	1.073320	-0.174435
C116	C	0.857829	1.573320	0.325565
C117	C	0.357643	1.073445	-0.087186
C118	C	0.857643	1.573445	0.412814
H119	H	-0.096228	1.164995	-0.475162
H120	H	0.403772	1.664995	0.024838
H121	H	0.271596	1.159579	-0.678027
H122	H	0.771596	1.659579	-0.178027
H123	H	-0.188954	1.198430	-0.343040
H124	H	0.311046	1.698430	0.156960
N125	N	0.460325	0.522072	-0.486280
N126	N	0.960325	1.022072	0.013720
N127	N	0.468550	0.453894	-0.495671
N128	N	0.968550	0.953894	0.004329
H129	H	0.505817	0.434825	-0.534891
H130	H	1.005817	0.934825	-0.034891
N131	N	0.395055	0.521666	-0.230741
N132	N	0.895055	1.021666	0.269259
N133	N	0.398660	0.453443	-0.218753
N134	N	0.898660	0.953443	0.281247
H135	H	0.412186	0.434172	-0.165087
H136	H	0.912186	0.934172	0.334913
N137	N	-0.090711	1.110862	-0.230769
N138	N	0.409289	1.610862	0.269231
N139	N	-0.022510	1.114003	-0.218508
N140	N	0.477490	1.614003	0.281492
H141	H	-0.003350	1.127637	-0.164843
H142	H	0.496650	1.627637	0.335157
H143	H	0.271555	1.159596	-0.826746
H144	H	0.771555	1.659596	-0.326746
N145	N	0.497468	0.625483	-0.338482
N146	N	0.997468	1.125483	0.161518
N147	N	0.509052	0.693679	-0.335125
N148	N	1.009052	1.193679	0.164875
H149	H	0.559805	0.712820	-0.320609
H150	H	1.059805	1.212820	0.179391
N151	N	0.320577	0.625728	-0.525988
N152	N	0.820577	1.125728	-0.025988
N153	N	0.259123	0.609947	-0.555326
N154	N	0.759123	1.109947	-0.055326
H155	H	0.245555	0.629218	-0.608980
H156	H	0.745555	1.129218	-0.108980
H157	H	0.271487	1.159636	-1.079602
H158	H	0.771487	1.659636	-0.579602
H159	H	-0.188711	0.981791	-0.281503
H160	H	0.311289	1.481791	0.218497
H161	H	0.443826	0.987217	-0.930812
H162	H	0.943826	1.487217	-0.430812
H163	H	0.443856	0.987214	-0.826694
H164	H	0.943856	1.487214	-0.326694
N165	N	-0.090605	0.933792	-0.417938
N166	N	0.409395	1.433792	0.082062
N167	N	-0.106416	0.906152	-0.482928
N168	N	0.393584	1.406152	0.017072
H169	H	-0.087177	0.855412	-0.497322
H170	H	0.412823	1.355412	0.002678
H171	H	0.232850	0.527283	-0.413965
H172	H	0.732850	1.027283	0.086035
H173	H	-0.188976	1.039929	-0.510572
H174	H	0.311024	1.539929	-0.010572
N175	N	0.453603	0.977399	-1.088053
N176	N	0.953603	1.477399	-0.588053
N177	N	0.427421	0.930107	-1.133786
N178	N	0.927421	1.430107	-0.633786
H179	H	0.461642	0.895826	-1.163366
H180	H	0.961642	1.395826	-0.663366
H181	H	0.271530	1.159618	-0.930874
H182	H	0.771530	1.659618	-0.430874
H183	H	0.266196	0.619991	-0.281716
H184	H	0.766196	1.119991	0.218284
H185	H	0.443892	0.987183	-0.677962
H186	H	0.943892	1.487183	-0.177962
