data_functionalizedCrystal
_audit_creation_method	'MofGen! by Chris Wilmer'
_symmetry_space_group_name_H-M	'P1'
_symmetry_Int_Tables_number	1
_symmetry_cell_setting	triclinic
loop_
_symmetry_equiv_pos_as_xyz
  x,y,z
_cell_length_a	12.594517
_cell_length_b	12.594516
_cell_length_c	16.120297
_cell_angle_alpha	92.877768
_cell_angle_beta	92.887996
_cell_angle_gamma	90.011939
loop_
_atom_site_label
_atom_site_type_symbol
_atom_site_fract_x
_atom_site_fract_y
_atom_site_fract_z
Zn1	Zn	1.596752	-0.454388	-0.471210
Zn2	Zn	1.605671	-0.623358	-0.331810
Zn3	Zn	1.427782	-0.445382	-0.331835
Zn4	Zn	1.418739	-0.632312	-0.471201
O5	O	1.512236	-0.538860	-0.401514
O6	O	1.746882	-0.476824	-0.452711
O7	O	1.589590	-0.592232	-0.215149
O8	O	1.450248	-0.297632	-0.350337
O9	O	1.753434	-0.600965	-0.350295
O10	O	1.574390	-0.304249	-0.452735
O11	O	1.458896	-0.461475	-0.215167
O12	O	1.277636	-0.470157	-0.350328
O13	O	1.434836	-0.616227	-0.587866
O14	O	1.270992	-0.607494	-0.452720
O15	O	1.565622	-0.485507	-0.587873
O16	O	1.580821	-0.773490	-0.350286
O17	O	1.443484	-0.780069	-0.452696
C18	C	1.235694	-0.538821	-0.401526
C19	C	1.117387	-0.538831	-0.401552
C20	C	1.044558	-0.613660	-0.457135
C21	C	0.972422	-0.517944	-0.477636
C22	C	0.978726	-0.634626	-0.381031
C23	C	1.046807	-0.443065	-0.422093
C24	C	1.053118	-0.559810	-0.325453
C25	C	0.981016	-0.464025	-0.345926
C26	C	1.512167	-0.815401	-0.401506
C27	C	1.512233	-0.933708	-0.401530
C28	C	1.437530	-1.006575	-0.457191
C29	C	1.416523	-1.072505	-0.381122
C30	C	1.533336	-1.078578	-0.477613
C31	C	1.491177	-0.998077	-0.325420
C32	C	1.608032	-1.004146	-0.421962
C33	C	1.587065	-1.070041	-0.345840
C34	C	1.789858	-0.538900	-0.401501
C35	C	1.908163	-0.538918	-0.401496
C36	C	1.498226	-0.552870	-0.618965
C37	C	1.492255	-0.558840	-0.711630
C38	C	1.512333	-0.261241	-0.401540
C39	C	1.512375	-0.142936	-0.401551
C40	C	1.481316	-0.569717	-0.881289
C41	C	1.543366	-0.507684	-0.922590
C42	C	1.537279	-0.513736	-1.016994
C43	C	1.487401	-0.563667	-0.786877
C44	C	1.526253	-0.524828	-0.184908
C45	C	1.532430	-0.518558	-0.092244
H46	H	0.937139	-0.500229	-0.541968
H47	H	1.335574	-1.102598	-0.363857
H48	H	1.473290	-0.963006	-0.261068
C49	C	1.621316	-0.429801	-0.874584
C50	C	1.579023	-0.342464	-0.814687
C51	C	1.656973	-0.264587	-0.766678
C52	C	1.777216	-0.274047	-0.778566
C53	C	1.819516	-0.361388	-0.838465
C54	C	1.741566	-0.439265	-0.886474
H55	H	1.490006	-0.335457	-0.805885
H56	H	1.625659	-0.199931	-0.722337
H57	H	1.834920	-0.216398	-0.743027
H58	H	1.908533	-0.368395	-0.847267
H59	H	1.772880	-0.503921	-0.930815
H60	H	1.423627	-0.627366	-0.916829
C61	C	1.672484	-1.107606	-0.282193
C62	C	1.666537	-1.073474	-0.189469
C63	C	1.751946	-1.111049	-0.125819
C64	C	1.843303	-1.182754	-0.154893
C65	C	1.849255	-1.216890	-0.247621
C66	C	1.763845	-1.179315	-0.311271
H67	H	1.598906	-1.020390	-0.167943
H68	H	1.747540	-1.085779	-0.057176
H69	H	1.906529	-1.210569	-0.107775
H70	H	1.916886	-1.269974	-0.269147
H71	H	1.768251	-1.204585	-0.379914
H72	H	1.374254	-0.978585	-0.504194
C73	C	1.082416	-0.698999	-0.520710
C74	C	1.053486	-0.816611	-0.512141
C75	C	1.091344	-0.901943	-0.575717
C76	C	1.158133	-0.869663	-0.647864
C77	C	1.187066	-0.752046	-0.656437
C78	C	1.149208	-0.666713	-0.592860
H79	H	1.004042	-0.840512	-0.458731
H80	H	1.069926	-0.989012	-0.569371
H81	H	1.186158	-0.932831	-0.694927
H82	H	1.236511	-0.728145	-0.709847
H83	H	1.170627	-0.579645	-0.599207
C84	C	1.087070	-0.333643	-0.445614
C85	C	1.061741	-0.233309	-0.391715
C86	C	1.102005	-0.123890	-0.415238
C87	C	1.167597	-0.114805	-0.492660
C88	C	1.192930	-0.215143	-0.546564
C89	C	1.152666	-0.324562	-0.523041
H90	H	1.013183	-0.240031	-0.334399
H91	H	1.083252	-0.049613	-0.375335
H92	H	1.197403	-0.033807	-0.510073
H93	H	1.241488	-0.208421	-0.603880
H94	H	1.171419	-0.398839	-0.562944
C95	C	1.100826	-0.583780	-0.238572
C96	C	1.075468	-0.689812	-0.200166
C97	C	1.123179	-0.713796	-0.113285
C98	C	1.196247	-0.631749	-0.064810
C99	C	1.221609	-0.525710	-0.103215
C100	C	1.173898	-0.501726	-0.190096
H101	H	1.021376	-0.750555	-0.236051
H102	H	1.104404	-0.792294	-0.084856
H103	H	1.231565	-0.649504	-0.000495
H104	H	1.275701	-0.464968	-0.067330
H105	H	1.192673	-0.423229	-0.218525
H106	H	0.953195	-0.400712	-0.298897
H107	H	1.688960	-0.974058	-0.439263
H108	H	1.551129	-1.113775	-0.541947
C109	C	0.938262	-0.744015	-0.357607
C110	C	1.017911	-0.833615	-0.339248
C111	C	0.977451	-0.943006	-0.315831
C112	C	0.857342	-0.962797	-0.310773
C113	C	0.777686	-0.873194	-0.329132
C114	C	0.818146	-0.763804	-0.352549
H115	H	1.106829	-0.818967	-0.342991
H116	H	1.036418	-1.009335	-0.302240
H117	H	0.827391	-1.043774	-0.293438
H118	H	0.688767	-0.887842	-0.325389
H119	H	0.759179	-0.697474	-0.366140
