data_functionalizedCrystal
_audit_creation_method	'MofGen! by Chris Wilmer'
_symmetry_space_group_name_H-M	'P1'
_symmetry_Int_Tables_number	1
_symmetry_cell_setting	triclinic
loop_
_symmetry_equiv_pos_as_xyz
  x,y,z
_cell_length_a	10.268362
_cell_length_b	19.288864
_cell_length_c	19.288865
_cell_angle_alpha	83.136245
_cell_angle_beta	90.010511
_cell_angle_gamma	90.018431
loop_
_atom_site_label
_atom_site_type_symbol
_atom_site_fract_x
_atom_site_fract_y
_atom_site_fract_z
O1	O	-0.108733	-0.921348	-0.086648
O2	O	0.224601	-0.588015	0.246685
O3	O	0.557934	-0.254682	0.580018
O4	O	-0.108646	-0.719088	-0.098337
O5	O	0.224688	-0.385754	0.234996
O6	O	0.558021	-0.052421	0.568330
O7	O	-0.108666	-0.826062	0.008638
O8	O	0.224667	-0.492729	0.341971
O9	O	0.558001	-0.159396	0.675304
O10	O	-0.108712	-0.814374	-0.193623
O11	O	0.224621	-0.481040	0.139710
O12	O	0.557954	-0.147707	0.473044
O13	O	0.107935	-0.826053	0.008642
O14	O	0.441268	-0.492720	0.341975
O15	O	0.774601	-0.159386	0.675309
O16	O	0.107955	-0.719078	-0.098333
O17	O	0.441288	-0.385745	0.235001
O18	O	0.774622	-0.052412	0.568334
O19	O	0.107868	-0.921339	-0.086644
O20	O	0.441201	-0.588006	0.246689
O21	O	0.774535	-0.254672	0.580023
Cu22	Cu	0.127689	-0.820208	-0.092488
Cu23	Cu	0.461022	-0.486875	0.240845
Cu24	Cu	0.794356	-0.153541	0.574179
Cu25	Cu	-0.128467	-0.820219	-0.092493
Cu26	Cu	0.204867	-0.486886	0.240840
Cu27	Cu	0.538200	-0.153552	0.574174
O28	O	0.107888	-0.814364	-0.193619
O29	O	0.441222	-0.481031	0.139715
O30	O	0.774555	-0.147698	0.473048
C31	C	-0.000334	-0.693207	-0.097959
C32	C	0.333000	-0.359873	0.235375
C33	C	0.666333	-0.026540	0.568708
C34	C	-0.000299	-0.616103	-0.096830
C35	C	0.333034	-0.282770	0.236504
C36	C	0.666367	0.050564	0.569837
N37	N	0.307855	-0.820205	-0.092484
N38	N	0.641188	-0.486872	0.240850
N39	N	0.974521	-0.153539	0.574183
N40	N	-0.308632	-0.820227	-0.092492
N41	N	0.024701	-0.486894	0.240842
N42	N	0.358034	-0.153560	0.574175
C43	C	0.573525	-0.820215	-0.092492
C44	C	0.906859	-0.486882	0.240842
C45	C	1.240192	-0.153549	0.574175
C46	C	0.425687	-0.820207	-0.092489
C47	C	0.759021	-0.486874	0.240844
C48	C	1.092354	-0.153541	0.574177
C49	C	-0.000362	-0.825682	0.034516
C50	C	0.332972	-0.492348	0.367850
C51	C	0.666305	-0.159015	0.701183
C52	C	-0.000350	-0.824553	0.111620
C53	C	0.332984	-0.491219	0.444953
C54	C	0.666317	-0.157886	0.778287
C55	C	-0.000447	-0.947220	-0.087022
C56	C	0.332887	-0.613887	0.246311
C57	C	0.666220	-0.280553	0.579645
C58	C	-0.000490	-1.024324	-0.088151
C59	C	0.332844	-0.690990	0.245182
C60	C	0.666177	-0.357657	0.578516
C61	C	-0.000334	-0.571407	-0.159598
C62	C	0.332999	-0.238073	0.173736
C63	C	0.666332	0.095260	0.507069
C64	C	-0.000349	-0.498960	-0.158537
C65	C	0.332985	-0.165626	0.174796
C66	C	0.666318	0.167707	0.508130
C67	C	-0.000354	-0.471212	-0.094705
C68	C	0.332979	-0.137879	0.238629
C69	C	0.666313	0.195455	0.571962
C70	C	-0.000312	-0.515918	-0.031929
C71	C	0.333022	-0.182585	0.301405
C72	C	0.666355	0.150748	0.634738
C73	C	-0.000284	-0.588364	-0.032991
C74	C	0.333049	-0.255030	0.300342
C75	C	0.666382	0.078303	0.633676
C76	C	-0.076271	-0.362953	-0.044527
C77	C	0.257062	-0.029620	0.288806
C78	C	0.590396	0.303713	0.622140
C79	C	-0.076306	-0.290509	-0.043467
C80	C	0.257027	0.042824	0.289866
C81	C	0.590361	0.376158	0.623199
C82	C	-0.000432	-0.247767	-0.091425
C83	C	0.332901	0.085567	0.241908
C84	C	0.666235	0.418900	0.575242
C85	C	0.075461	-0.277476	-0.140455
C86	C	0.408794	0.055857	0.192879
C87	C	0.742127	0.389191	0.526212
C88	C	0.075488	-0.349921	-0.141517
C89	C	0.408821	-0.016588	0.191816
C90	C	0.742155	0.316745	0.525150
C91	C	-0.000383	-0.392658	-0.093546
C92	C	0.332951	-0.059325	0.239788
C93	C	0.666284	0.274009	0.573121
C94	C	-0.000480	-0.124514	-0.153047
C95	C	0.332853	0.208819	0.180286
C96	C	0.666186	0.542152	0.513619
C97	C	-0.000486	-0.052066	-0.151984
C98	C	0.332847	0.281267	0.181349
C99	C	0.666180	0.614600	0.514683
C100	C	-0.000463	-0.069026	-0.025374
C101	C	0.332871	0.264307	0.307960
C102	C	0.666204	0.597640	0.641293
C103	C	-0.000443	-0.141473	-0.026439
C104	C	0.332890	0.191860	0.306894
C105	C	0.666223	0.525194	0.640228
C106	C	-0.000459	-0.169212	-0.090278
C107	C	0.332875	0.164121	0.243056
C108	C	0.666208	0.497454	0.576389
C109	C	-0.000419	-0.814745	-0.219497
C110	C	0.332914	-0.481412	0.113836
C111	C	0.666248	-0.148078	0.447169
C112	C	-0.000440	-0.815874	-0.296601
C113	C	0.332894	-0.482541	0.036733
C114	C	0.666227	-0.149207	0.370066
C115	C	-0.000370	-0.887321	0.156316
C116	C	0.332963	-0.553987	0.489650
C117	C	0.666296	-0.220654	0.822983
C118	C	-0.000390	-0.886260	0.228763
C119	C	0.332943	-0.552927	0.562097
C120	C	0.666276	-0.219593	0.895430
C121	C	-0.000364	-0.822428	0.256511
C122	C	0.332970	-0.489094	0.589844
C123	C	0.666303	-0.155761	0.923178
C124	C	-0.000350	-0.759652	0.211805
C125	C	0.332983	-0.426318	0.545138
C126	C	0.666316	-0.092985	0.878471
C127	C	-0.000343	-0.760714	0.139359
C128	C	0.332990	-0.427381	0.472693
C129	C	0.666323	-0.094047	0.806026
C130	C	0.075528	-0.772245	0.364800
C131	C	0.408862	-0.438912	0.698133
C132	C	0.742195	-0.105578	1.031466
C133	C	0.075529	-0.771185	0.437244
C134	C	0.408863	-0.437852	0.770578
C135	C	0.742196	-0.104518	1.103911
C136	C	-0.000391	-0.819148	0.479956
C137	C	0.332942	-0.485815	0.813290
C138	C	0.666275	-0.152481	1.146623
C139	C	-0.076296	-0.868183	0.450217
C140	C	0.257037	-0.534849	0.783550
C141	C	0.590370	-0.201516	1.116883
C142	C	-0.076289	-0.869245	0.377771
C143	C	0.257044	-0.535912	0.711105
C144	C	0.590377	-0.202579	1.044438
C145	C	-0.000372	-0.821269	0.335065
C146	C	0.332961	-0.487935	0.668398
C147	C	0.666294	-0.154602	1.001732
C148	C	-0.000436	-0.880770	0.603209
C149	C	0.332898	-0.547437	0.936542
C150	C	0.666231	-0.214104	1.269875
C151	C	-0.000464	-0.879707	0.675657
C152	C	0.332869	-0.546374	1.008990
C153	C	0.666203	-0.213040	1.342323
C154	C	-0.000411	-0.753097	0.658697
C155	C	0.332922	-0.419763	0.992030
C156	C	0.666256	-0.086430	1.325363
C157	C	-0.000396	-0.754162	0.586250
C158	C	0.332937	-0.420829	0.919583
C159	C	0.666271	-0.087495	1.252917
C160	C	-0.000402	-0.818000	0.558511
C161	C	0.332931	-0.484667	0.891844
C162	C	0.666265	-0.151334	1.225177
H163	H	-0.000349	-0.593987	-0.211580
H164	H	0.332984	-0.260654	0.121753
H165	H	0.666318	0.072680	0.455087
Cl166	Cl	-0.171717	-0.930881	0.340386
Cl167	Cl	0.161617	-0.597548	0.673719
Cl168	Cl	0.494950	-0.264215	1.007052
H169	H	-0.000507	-0.015674	-0.203099
H170	H	0.332826	0.317659	0.130234
H171	H	0.666159	0.650992	0.463567
H172	H	-0.000334	-0.493322	0.020044
H173	H	0.332999	-0.159988	0.353377
H174	H	0.666333	0.173345	0.686711
Cl175	Cl	-0.000317	-0.681799	0.083166
Cl176	Cl	0.333017	-0.348466	0.416500
Cl177	Cl	0.666350	-0.015132	0.749833
Cl178	Cl	-0.000454	-0.034151	0.054873
Cl179	Cl	0.332879	0.299183	0.388207
Cl180	Cl	0.666213	0.632516	0.721540
H181	H	-0.000422	-0.177866	0.024674
H182	H	0.332911	0.155467	0.358007
H183	H	0.666245	0.488801	0.691340
H184	H	0.137328	-0.731255	0.461452
H185	H	0.470661	-0.397922	0.794785
H186	H	0.803995	-0.064589	1.128119
Cl187	Cl	-0.171749	-0.928483	0.503904
Cl188	Cl	0.161584	-0.595149	0.837237
Cl189	Cl	0.494918	-0.261816	1.170571
Cl190	Cl	0.170985	-0.711944	0.311112
Cl191	Cl	0.504318	-0.378611	0.644445
Cl192	Cl	0.837652	-0.045277	0.977778
Cl193	Cl	-0.000436	-0.961023	0.568333
Cl194	Cl	0.332897	-0.627689	0.901666
Cl195	Cl	0.666231	-0.294356	1.235000
Cl196	Cl	0.170852	-0.223751	-0.200749
Cl197	Cl	0.504185	0.109583	0.132584
Cl198	Cl	0.837518	0.442916	0.465917
Cl199	Cl	-0.000486	-0.159390	-0.233300
Cl200	Cl	0.332847	0.173943	0.100034
Cl201	Cl	0.666180	0.507277	0.433367
Cl202	Cl	-0.171726	-0.253166	0.018162
Cl203	Cl	0.161607	0.080167	0.351496
Cl204	Cl	0.494940	0.413500	0.684829
Cl205	Cl	-0.171665	-0.416680	0.015769
Cl206	Cl	0.161668	-0.083346	0.349102
Cl207	Cl	0.495002	0.249987	0.682436
H208	H	-0.000373	-0.462561	-0.209652
H209	H	0.332960	-0.129228	0.123682
H210	H	0.666293	0.204106	0.457015
Cl211	Cl	-0.000415	-0.967575	0.121448
Cl212	Cl	0.332918	-0.634241	0.454781
Cl213	Cl	0.666252	-0.300908	0.788114
Cl214	Cl	-0.000417	-0.965174	0.284963
Cl215	Cl	0.332916	-0.631841	0.618297
Cl216	Cl	0.666249	-0.298507	0.951630
H217	H	-0.000488	-0.930822	0.712049
H218	H	0.332845	-0.597489	1.045382
H219	H	0.666179	-0.264156	1.378715
H220	H	-0.000396	-0.701123	0.681288
H221	H	0.332938	-0.367790	1.014621
H222	H	0.666271	-0.034457	1.347954
H223	H	-0.000257	-0.624756	0.018124
H224	H	0.333077	-0.291423	0.351457
H225	H	0.666410	0.041910	0.684790
H226	H	0.137286	-0.374108	-0.181436
H227	H	0.470620	-0.040775	0.151897
H228	H	0.803953	0.292559	0.485230
H229	H	-0.000372	-0.703049	0.549857
H230	H	0.332962	-0.369716	0.883190
H231	H	0.666295	-0.036383	1.216524
H232	H	-0.000332	-0.707679	0.234401
H233	H	0.333002	-0.374346	0.567735
H234	H	0.666335	-0.041012	0.901068
