data_functionalizedCrystal
_audit_creation_method	'MofGen! by Chris Wilmer'
_symmetry_space_group_name_H-M	'P1'
_symmetry_Int_Tables_number	1
_symmetry_cell_setting	triclinic
loop_
_symmetry_equiv_pos_as_xyz
  x,y,z
_cell_length_a	10.908878
_cell_length_b	11.892095
_cell_length_c	11.026607
_cell_angle_alpha	85.251752
_cell_angle_beta	84.335404
_cell_angle_gamma	92.931932
loop_
_atom_site_label
_atom_site_type_symbol
_atom_site_fract_x
_atom_site_fract_y
_atom_site_fract_z
O1	O	1.668589	0.093985	-0.188069
O2	O	1.315655	0.093990	-0.097529
O3	O	1.462871	0.093984	-0.313549
O4	O	1.521373	0.093991	0.027951
O5	O	1.450591	-0.094023	-0.295560
O6	O	1.303375	-0.094017	-0.079541
O7	O	1.656309	-0.094022	-0.170081
Zn8	Zn	1.477892	-0.123870	-0.121955
Zn9	Zn	1.494071	0.123838	-0.145655
O10	O	1.509093	-0.094016	0.045939
C11	C	1.263629	-0.000013	-0.080074
C12	C	1.126901	-0.000011	-0.054875
N13	N	1.466859	-0.292923	-0.105782
C14	C	1.056639	-0.000012	-0.146820
C15	C	0.915323	-0.000010	-0.120778
C16	C	1.581870	-0.529576	-0.274441
C17	C	1.574169	-0.647918	-0.263130
C18	C	1.443749	-0.647950	-0.071854
C19	C	1.451450	-0.529609	-0.083165
C20	C	1.520515	-0.470426	-0.184461
C21	C	1.528222	-0.352082	-0.195767
C22	C	1.397796	-0.352117	-0.004497
C23	C	1.390094	-0.470458	0.006814
C24	C	1.708335	-0.000017	-0.187536
C25	C	1.845063	-0.000012	-0.212735
C26	C	1.445938	-0.000018	-0.347588
C27	C	1.413765	-0.000014	-0.475809
N28	N	1.505112	0.292891	-0.161839
C29	C	1.502600	-0.000013	-0.567543
C30	C	1.469351	-0.000009	-0.700067
C31	C	1.526025	-0.000011	0.079978
C32	C	1.558199	-0.000009	0.208199
H33	H	1.101104	-0.000009	-0.244816
C34	C	1.641659	-0.712985	-0.362103
H35	H	1.627175	-0.791942	-0.340867
H36	H	1.727720	-0.693575	-0.367855
H37	H	1.611695	-0.693592	-0.438656
H38	H	1.333859	-0.518659	0.089285
C39	C	1.638601	-0.000020	-0.541116
H40	H	1.690025	-0.000012	-0.615855
H41	H	1.650562	-0.065582	-0.489333
H42	H	1.659129	0.065550	-0.501878
C43	C	1.330301	-0.287055	0.094490
H44	H	1.288077	-0.339255	0.156439
H45	H	1.272590	-0.240893	0.058658
H46	H	1.388615	-0.240888	0.129459
H47	H	1.368674	0.000000	-0.719637
H48	H	1.658882	0.000075	-0.772243
H49	H	1.387508	-0.696152	0.010612
C50	C	0.855272	-0.000007	0.011615
H51	H	0.768170	-0.000014	0.011751
H52	H	0.884576	0.065554	0.046114
H53	H	0.876008	-0.065579	0.058654
H54	H	1.313095	-0.000005	-0.495386
H55	H	0.889521	-0.000006	-0.310740
C56	C	1.066851	-0.000002	0.077513
H57	H	1.129259	0.000007	0.131820
H58	H	1.012845	-0.065560	0.097478
H59	H	1.021420	0.065573	0.084921
C60	C	1.604183	-0.286982	-0.307189
H61	H	1.639610	-0.339164	-0.359163
H62	H	1.667908	-0.240805	-0.280183
H63	H	1.551880	-0.240829	-0.350980
H64	H	1.638115	-0.481389	-0.356914
