data_functionalizedCrystal
_audit_creation_method	'MofGen! by Chris Wilmer'
_symmetry_space_group_name_H-M	'P1'
_symmetry_Int_Tables_number	1
_symmetry_cell_setting	triclinic
loop_
_symmetry_equiv_pos_as_xyz
  x,y,z
_cell_length_a	6.817900
_cell_length_b	11.102210
_cell_length_c	10.992410
_cell_angle_alpha	91.891562
_cell_angle_beta	108.764651
_cell_angle_gamma	108.604261
loop_
_atom_site_label
_atom_site_type_symbol
_atom_site_fract_x
_atom_site_fract_y
_atom_site_fract_z
V1	V	-4.113410	-0.175838	-0.400590
O2	O	-4.072416	0.008450	-0.392968
O3	O	-4.090165	-0.348658	-0.397848
O4	O	-4.091015	-0.173134	-0.575303
O5	O	-4.071560	-0.168290	-0.214284
V6	V	-4.590409	-0.153795	-0.378307
O7	O	-4.388980	-0.224192	-0.449471
O8	O	-4.765036	-0.105442	-0.329426
O9	O	-4.390447	0.019024	-0.381049
O10	O	-4.748799	-0.338084	-0.385930
O11	O	-4.749655	-0.161344	-0.564613
O12	O	-4.389597	-0.156500	-0.203594
C13	C	-3.940444	-0.390788	-0.391527
C14	C	-4.002898	-0.532070	-0.390450
C15	C	-4.030230	-0.713064	-0.271291
C16	C	-3.971524	-0.580311	-0.272289
C17	C	-4.092966	-0.616588	-0.507620
C18	C	-4.151657	-0.749338	-0.506620
C19	C	-3.941527	-0.166887	-0.617887
C20	C	-4.004666	-0.165819	-0.760716
C21	C	-3.871835	-0.156089	-0.955839
C22	C	-3.806278	-0.157726	-0.807356
C23	C	-4.202085	-0.291130	-0.837818
C24	C	-4.266404	-0.290022	-0.986384
C25	C	-4.145326	-0.047376	-0.948356
C26	C	-4.074620	-0.046781	-0.799344
C27	C	-4.203511	0.061147	-0.387366
C28	C	-4.120296	0.202428	-0.388452
C29	C	-4.202427	-0.162751	-0.161003
C30	C	-4.118525	-0.163812	-0.018173
H31	H	-3.658252	-0.067623	-0.754017
H32	H	-3.898184	-0.511509	-0.176884
Cl33	Cl	-4.132386	-0.555941	-0.656165
H34	H	-4.224992	-0.818149	-0.602032
H35	H	-4.155902	-0.379510	-0.812211
H36	H	-4.324289	-0.051930	-0.989197
H37	H	-3.755064	-0.065366	-0.974670
Cl38	Cl	-3.832709	-0.285257	-1.029923
H39	H	-3.748693	-0.242549	-0.782540
H40	H	-4.042866	0.047782	-0.968717
H41	H	-4.250421	-0.378185	-1.032653
H42	H	-4.448354	-0.300918	-1.029016
Cl43	Cl	-4.294034	-0.044498	-0.749140
H44	H	-4.352411	-0.301577	-0.809014
Cl45	Cl	-3.990789	-0.773696	-0.122738
H46	H	-3.931808	0.045918	-0.746987
