data_functionalizedCrystal
_audit_creation_method	'MofGen! by Chris Wilmer'
_symmetry_space_group_name_H-M	'P1'
_symmetry_Int_Tables_number	1
_symmetry_cell_setting	triclinic
loop_
_symmetry_equiv_pos_as_xyz
  x,y,z
_cell_length_a	27.354012
_cell_length_b	27.353283
_cell_length_c	27.349551
_cell_angle_alpha	60.005606
_cell_angle_beta	60.011434
_cell_angle_gamma	59.993282
loop_
_atom_site_label
_atom_site_type_symbol
_atom_site_fract_x
_atom_site_fract_y
_atom_site_fract_z
O1	O	0.067635	-0.714267	0.597330
O2	O	0.567635	-0.214267	1.097330
O3	O	0.025429	-0.556105	0.481282
O4	O	0.525429	-0.056105	0.981282
O5	O	0.125575	-0.656186	0.481214
O6	O	0.625575	-0.156186	0.981214
O7	O	-0.032512	-0.614186	0.597397
O8	O	0.467488	-0.114186	1.097397
O9	O	0.158797	-0.622968	0.514367
O10	O	0.658797	-0.122968	1.014367
O11	O	0.058650	-0.522887	0.514434
O12	O	0.558650	-0.022887	1.014434
O13	O	0.100856	-0.681048	0.630482
O14	O	0.600856	-0.181048	1.130482
Zn15	Zn	0.085028	-0.596693	0.577722
Zn16	Zn	0.585028	-0.096693	1.077722
Zn17	Zn	0.041257	-0.640460	0.534042
Zn18	Zn	0.541257	-0.140460	1.034042
O19	O	0.000709	-0.580967	0.630549
O20	O	0.500709	-0.080967	1.130549
N21	N	0.114901	-0.566828	0.607534
N22	N	0.614901	-0.066828	1.107534
N23	N	0.011389	-0.670331	0.504229
N24	N	0.511389	-0.170331	1.004229
C25	C	0.179404	-0.338196	0.672015
C26	C	0.679404	0.161804	1.172015
C27	C	0.179501	-0.502386	0.836160
C28	C	0.679501	-0.002386	1.336160
C29	C	0.179415	-0.502363	0.671996
C30	C	0.679415	-0.002363	1.171996
C31	C	0.343611	-0.502373	0.671960
C32	C	0.843611	-0.002373	1.171960
C33	C	0.197478	-0.392371	0.690061
C34	C	0.697478	0.107629	1.190061
C35	C	0.197534	-0.484321	0.781984
C36	C	0.697534	0.015679	1.281984
C37	C	0.289434	-0.484312	0.690032
C38	C	0.789434	0.015688	1.190032
C39	C	0.197486	-0.484308	0.690051
C40	C	0.697486	0.015692	1.190051
C41	C	0.156398	-0.269238	0.649045
C42	C	0.656398	0.230762	1.149045
C43	C	0.156418	-0.525342	0.649015
C44	C	0.656418	-0.025342	1.149015
C45	C	0.220484	-0.461329	0.713032
C46	C	0.720484	0.038671	1.213032
C47	C	0.443889	-0.485097	0.619172
C48	C	0.943889	0.014903	1.119172
C49	C	0.506571	-0.505993	0.598266
C50	C	1.006571	-0.005993	1.098266
C51	C	0.506589	-0.607412	0.636940
C52	C	1.006589	-0.107412	1.136940
C53	C	0.443909	-0.586515	0.657848
C54	C	0.943909	-0.086515	1.157848
C55	C	0.171510	-0.237888	0.587422
C56	C	0.671510	0.262112	1.087422
C57	C	0.150593	-0.175201	0.566543
C58	C	0.650593	0.324799	1.066543
C59	C	0.099458	-0.175218	0.668913
C60	C	0.599458	0.324782	1.168913
C61	C	0.120375	-0.237905	0.689792
C62	C	0.620375	0.262095	1.189792
C63	C	0.094789	-0.510201	0.664176
C64	C	0.594789	-0.010201	1.164176
C65	C	0.073888	-0.531091	0.643278
C66	C	0.573888	-0.031091	1.143278
C67	C	0.176239	-0.582263	0.592072
C68	C	0.676239	-0.082263	1.092072
C69	C	0.197142	-0.561373	0.612963
C70	C	0.697142	-0.061373	1.112963
C71	C	0.094933	-0.510244	0.936476
C72	C	0.594933	-0.010244	1.436476
C73	C	0.074073	-0.531151	0.999161
C74	C	0.574073	-0.031151	1.499161
C75	C	0.176453	-0.582335	0.999126
C76	C	0.676453	-0.082335	1.499126
C77	C	0.197312	-0.561429	0.936439
C78	C	0.697312	-0.061429	1.436439
C79	C	0.156551	-0.525382	0.905116
C80	C	0.656551	-0.025382	1.405116
C81	C	0.412561	-0.525357	0.648961
C82	C	0.912561	-0.025357	1.148961
C83	C	-0.098513	-0.688235	0.485867
C84	C	0.401487	-0.188235	0.985867
C85	C	-0.006461	-0.688368	0.394066
C86	C	0.493539	-0.188368	0.894066
C87	C	-0.006645	-0.780264	0.486040
C88	C	0.493355	-0.280264	0.986040
C89	C	-0.006630	-0.688361	0.486097
C90	C	0.493370	-0.188361	0.986097
C91	C	-0.029562	-0.711308	0.463018
C92	C	0.470438	-0.211308	0.963018
N93	N	0.537030	-0.566846	0.607436
N94	N	1.037030	-0.066846	1.107436
O95	O	0.741877	-0.576849	0.459995
O96	O	1.241877	-0.076849	0.959995
O97	O	0.742050	-0.693241	0.618010
O98	O	1.242050	-0.193241	1.118010
O99	O	0.741986	-0.692977	0.517791
O100	O	1.241986	-0.192977	1.017791
O101	O	0.741941	-0.577114	0.560214
O102	O	1.241941	-0.077114	1.060214
O103	O	0.642405	-0.659839	0.551046
O104	O	1.142405	-0.159839	1.051046
O105	O	0.642469	-0.660104	0.651265
O106	O	1.142469	-0.160104	1.151265
O107	O	0.642296	-0.543712	0.493251
O108	O	1.142296	-0.043712	0.993251
Zn109	Zn	0.626572	-0.596646	0.577538
Zn110	Zn	1.126572	-0.096646	1.077538
Zn111	Zn	0.757774	-0.640307	0.533723
Zn112	Zn	1.257774	-0.140307	1.033723
O113	O	0.642360	-0.543976	0.593469
O114	O	1.142360	-0.043976	1.093469
N115	N	0.847316	-0.670107	0.503818
N116	N	1.347316	-0.170107	1.003818
N117	N	0.114877	-0.144758	0.607577
N118	N	0.614877	0.355242	1.107577
O119	O	-0.032498	0.060193	0.597441
O120	O	0.467502	0.560193	1.097441
O121	O	0.125523	0.060193	0.481067
O122	O	0.625523	0.560193	0.981067
O123	O	0.025289	0.060179	0.481345
O124	O	0.525289	0.560179	0.981345
O125	O	0.067736	0.060207	0.597163
O126	O	0.567736	0.560207	1.097163
O127	O	0.058511	-0.039410	0.514543
O128	O	0.558511	0.460590	1.014543
O129	O	0.158745	-0.039397	0.514265
O130	O	0.658745	0.460603	1.014265
O131	O	0.000724	-0.039396	0.630638
O132	O	0.500724	0.460604	1.130638
Zn133	Zn	0.085009	-0.055208	0.577722
Zn134	Zn	0.585009	0.444792	1.077722
Zn135	Zn	0.041238	0.076005	0.533983
Zn136	Zn	0.541238	0.576005	1.033983
O137	O	0.100958	-0.039382	0.630360
O138	O	0.600958	0.460618	1.130360
N139	N	0.011362	0.165555	0.504130
N140	N	0.511362	0.665555	1.004130
N141	N	0.115121	-0.566884	1.029592
N142	N	0.615121	-0.066884	1.529592
O143	O	0.104990	-0.714248	1.234528
O144	O	0.604990	-0.214248	1.734528
O145	O	-0.011371	-0.556177	1.234539
O146	O	0.488629	-0.056177	1.734539
O147	O	-0.011103	-0.656395	1.234497
O148	O	0.488897	-0.156395	1.734497
O149	O	0.104722	-0.614030	1.234569
O150	O	0.604722	-0.114030	1.734569
O151	O	0.022090	-0.623190	1.134913
O152	O	0.522090	-0.123190	1.634913
O153	O	0.021822	-0.522972	1.134954
O154	O	0.521822	-0.022972	1.634954
O155	O	0.138182	-0.681044	1.134943
O156	O	0.638182	-0.181044	1.634943
Zn157	Zn	0.085272	-0.596736	1.119137
Zn158	Zn	0.585272	-0.096736	1.619137
Zn159	Zn	0.041539	-0.640484	1.250344
Zn160	Zn	0.541539	-0.140484	1.750344
O161	O	0.137914	-0.580826	1.134984
O162	O	0.637914	-0.080826	1.634984
N163	N	0.011689	-0.670343	1.339890
N164	N	0.511689	-0.170343	1.839890
C165	C	0.038085	-0.519567	0.481870
C166	C	0.538085	-0.019567	0.981870
C167	C	0.162104	-0.643505	0.481786
C168	C	0.662104	-0.143505	0.981786
C169	C	0.088200	-0.717587	0.629893
C170	C	0.588200	-0.217587	1.129893
C171	C	-0.035819	-0.593649	0.629977
C172	C	0.464181	-0.093649	1.129977
C173	C	0.692280	-0.692701	0.654545
C174	C	1.192280	-0.192701	1.154545
C175	C	0.692203	-0.692374	0.530435
C176	C	1.192203	-0.192374	1.030435
C177	C	0.692063	-0.544251	0.456717
C178	C	1.192063	-0.044251	0.956717
C179	C	0.692144	-0.544580	0.580825
C180	C	1.192144	-0.044580	1.080825
C181	C	0.162000	0.010521	0.481600
C182	C	0.662000	0.510521	0.981600
C183	C	0.037914	0.010381	0.481984
C184	C	0.537914	0.510381	0.981984
C185	C	-0.035795	0.010399	0.630065
C186	C	0.464205	0.510399	1.130065
C187	C	0.088333	0.010415	0.629722
C188	C	0.588333	0.510415	1.129722
C189	C	-0.010799	-0.519660	1.184747
C190	C	0.489201	-0.019660	1.684747
C191	C	-0.010461	-0.643761	1.184677
C192	C	0.489539	-0.143761	1.684677
C193	C	0.137610	-0.717561	1.184734
C194	C	0.637610	-0.217561	1.684734
C195	C	0.137280	-0.593452	1.184783
C196	C	0.637280	-0.093452	1.684783
H197	H	0.061737	-0.480889	0.910978
H198	H	0.561737	0.019111	1.410978
H199	H	-0.047330	-0.474261	1.184750
H200	H	0.452670	0.025739	1.684750
C201	C	0.692174	-0.517018	0.651509
C202	C	1.192174	-0.017018	1.151509
C203	C	0.692123	-0.495441	0.593076
C204	C	1.192123	0.004559	1.093076
H205	H	0.692157	-0.486680	0.659072
H206	H	1.192157	0.013320	1.159072
H207	H	0.726922	-0.551053	0.655945
H208	H	1.226922	-0.051053	1.155945
H209	H	0.657469	-0.527945	0.679139
H210	H	1.157469	-0.027945	1.179139
H211	H	0.726830	-0.484519	0.565445
H212	H	1.226830	0.015481	1.065445
H213	H	0.657371	-0.461395	0.588635
H214	H	1.157371	0.038605	1.088635
H215	H	0.207290	0.010797	0.444973
H216	H	0.707290	0.510797	0.944973
H217	H	-0.081227	-0.584696	0.666460
H218	H	0.418773	-0.084696	1.166460
H219	H	0.028825	0.010378	0.445599
H220	H	0.528825	0.510378	0.945599
H221	H	0.173667	-0.584388	1.184797
H222	H	0.673667	-0.084388	1.684797
H223	H	0.207509	-0.652460	0.445301
H224	H	0.707509	-0.152460	0.945301
C225	C	0.158786	-0.815885	0.657616
C226	C	0.658786	-0.315885	1.157616
C227	C	0.100361	-0.778921	0.679097
C228	C	0.600361	-0.278921	1.179097
H229	H	0.166291	-0.853750	0.687992
H230	H	0.666291	-0.353750	1.187992
H231	H	0.186428	-0.797912	0.646712
H232	H	0.686428	-0.297912	1.146712
H233	H	0.163257	-0.821068	0.623580
H234	H	0.663257	-0.321068	1.123580
H235	H	0.095891	-0.773733	0.713131
H236	H	0.595891	-0.273733	1.213131
H237	H	0.072711	-0.796898	0.690009
H238	H	0.572711	-0.296898	1.190009
H239	H	-0.081177	0.010398	0.666600
H240	H	0.418823	0.510398	1.166600
H241	H	0.692323	-0.729239	0.699929
H242	H	1.192323	-0.229239	1.199929
H243	H	0.097420	0.010424	0.666105
H244	H	0.597420	0.510424	1.166105
H245	H	0.692221	-0.728771	0.521355
H246	H	1.192221	-0.228771	1.021355
C247	C	0.640769	-0.444785	0.403237
C248	C	1.140769	0.055215	0.903237
C249	C	0.691988	-0.494916	0.395458
C250	C	1.191988	0.005084	0.895458
H251	H	0.640722	-0.414329	0.365418
H252	H	1.140722	0.085671	0.865418
H253	H	0.640782	-0.430329	0.428394
H254	H	1.140782	0.069671	0.928394
H255	H	0.606066	-0.455697	0.421166
H256	H	1.106066	0.044303	0.921166
H257	H	0.726691	-0.484005	0.377533
H258	H	1.226691	0.015995	0.877533
H259	H	0.691980	-0.509374	0.370291
H260	H	1.191980	-0.009374	0.870291
H261	H	-0.046832	-0.652809	1.184615
H262	H	0.453168	-0.152809	1.684615
H263	H	0.029071	-0.474132	0.445424
H264	H	0.529071	0.025868	0.945424
C265	C	0.165614	-0.815915	1.184704
C266	C	0.665614	-0.315915	1.684704
C267	C	0.186931	-0.778845	1.184730
C268	C	0.686931	-0.278845	1.684730
H269	H	0.196062	-0.853750	1.184704
H270	H	0.696062	-0.353750	1.684704
H271	H	0.154740	-0.797993	1.149971
H272	H	0.654740	-0.297993	1.649971
H273	H	0.131588	-0.821151	1.219426
H274	H	0.631588	-0.321151	1.719426
H275	H	0.220954	-0.773606	1.150005
H276	H	0.720954	-0.273606	1.650005
H277	H	0.197813	-0.796771	1.219466
H278	H	0.697813	-0.296771	1.719466
H279	H	0.023897	-0.518815	1.024687
H280	H	0.523897	-0.018815	1.524687
H281	H	0.247489	-0.573760	0.910909
H282	H	0.747489	-0.073760	1.410909
C283	C	0.279749	-0.630831	0.992793
C284	C	0.779749	-0.130831	1.492793
C285	C	0.221259	-0.621957	1.033556
C286	C	0.721259	-0.121957	1.533556
H287	H	0.307409	-0.655300	1.014051
H288	H	0.807409	-0.155300	1.514051
H289	H	0.285756	-0.593261	0.968355
H290	H	0.785756	-0.093261	1.468355
H291	H	0.285752	-0.649960	0.968335
H292	H	0.785752	-0.149960	1.468335
H293	H	0.215255	-0.602824	1.058011
H294	H	0.715255	-0.102824	1.558011
H295	H	0.215250	-0.659533	1.058005
H296	H	0.715250	-0.159533	1.558005
H297	H	0.023705	-0.518748	0.655609
H298	H	0.523705	-0.018748	1.155609
C299	C	-0.008483	-0.461706	0.712681
C300	C	0.491517	0.038294	1.212681
C301	C	0.050023	-0.470589	0.703797
C302	C	0.550023	0.029411	1.203797
H303	H	-0.036119	-0.437248	0.737140
H304	H	0.463881	0.062752	1.237140
H305	H	-0.014494	-0.499274	0.731818
H306	H	0.485506	0.000726	1.231818
H307	H	-0.014517	-0.442562	0.675111
H308	H	0.485483	0.057438	1.175111
H309	H	0.056058	-0.489738	0.741367
H310	H	0.556058	0.010262	1.241367
H311	H	0.056037	-0.433015	0.684661
H312	H	0.556037	0.066985	1.184661
H313	H	0.209407	-0.611608	0.562721
H314	H	0.709407	-0.111608	1.062721
H315	H	0.418403	-0.619300	0.682106
H316	H	0.918403	-0.119300	1.182106
C317	C	0.290788	-0.556737	0.533950
C318	C	0.790788	-0.056737	1.033950
C319	C	0.264885	-0.578006	0.596296
C320	C	0.764885	-0.078006	1.096296
H321	H	0.332610	-0.567007	0.523661
H322	H	0.832610	-0.067007	1.023661
H323	H	0.273163	-0.514446	0.519556
H324	H	0.773163	-0.014446	1.019556
H325	H	0.284168	-0.574342	0.516354
H326	H	0.784168	-0.074342	1.016354
H327	H	0.271502	-0.560396	0.613892
H328	H	0.771502	-0.060396	1.113892
H329	H	0.282517	-0.620304	0.610697
H330	H	0.782517	-0.120304	1.110697
C331	C	0.500313	-0.705563	0.677269
C332	C	1.000313	-0.205563	1.177269
C333	C	0.541048	-0.674637	0.646705
C334	C	1.041048	-0.174637	1.146705
H335	H	0.521590	-0.747066	0.683299
H336	H	1.021590	-0.247066	1.183299
H337	H	0.475851	-0.690860	0.654309
H338	H	0.975851	-0.190860	1.154309
H339	H	0.475878	-0.699746	0.714932
H340	H	0.975878	-0.199746	1.214932
H341	H	0.565480	-0.680451	0.609039
H342	H	1.065480	-0.180451	1.109039
H343	H	0.565520	-0.689346	0.669665
H344	H	1.065520	-0.189346	1.169665
H345	H	0.418366	-0.435297	0.611936
H346	H	0.918366	0.064703	1.111936
C347	C	0.500263	-0.403644	0.562127
C348	C	1.000263	0.096356	1.062127
C349	C	0.541013	-0.461739	0.565515
C350	C	1.041013	0.038261	1.065515
H351	H	0.521528	-0.376324	0.541902
H352	H	1.021528	0.123676	1.041902
H353	H	0.475834	-0.402043	0.601394
H354	H	0.975834	0.097957	1.101394
H355	H	0.475796	-0.393162	0.540777
H356	H	0.975796	0.106838	1.040777
H357	H	0.565477	-0.472223	0.586869
H358	H	1.065477	0.027777	1.086869
H359	H	0.565452	-0.463342	0.526241
H360	H	1.065452	0.036658	1.026241
H361	H	0.200842	-0.263395	0.554238
H362	H	0.700842	0.236605	1.054238
H363	H	0.070133	-0.149706	0.702094
H364	H	0.570133	0.350294	1.202094
C365	C	0.145935	-0.155885	0.472867
C366	C	0.645935	0.344115	0.972867
C367	C	0.167200	-0.140735	0.498803
C368	C	0.667200	0.359265	0.998803
H369	H	0.156190	-0.134611	0.431047
H370	H	0.656190	0.365389	0.931047
H371	H	0.103650	-0.145616	0.490484
H372	H	0.603650	0.354384	0.990484
H373	H	0.163553	-0.197705	0.479474
H374	H	0.663553	0.302295	0.979474
H375	H	0.149579	-0.098917	0.492200
H376	H	0.649579	0.401083	0.992200
H377	H	0.209493	-0.151001	0.481180
H378	H	0.709493	0.348999	0.981180
C379	C	0.067729	-0.231620	0.788882
C380	C	0.567729	0.268380	1.288882
C381	C	0.103765	-0.272363	0.757530
C382	C	0.603765	0.227637	1.257530
H383	H	0.057477	-0.252895	0.830702
H384	H	0.557477	0.247105	1.330702
H385	H	0.032280	-0.207172	0.778614
H386	H	0.532280	0.292828	1.278614
H387	H	0.088995	-0.207168	0.778598
H388	H	0.588995	0.292832	1.278598
H389	H	0.082497	-0.296813	0.767810
H390	H	0.582497	0.203187	1.267810
H391	H	0.139219	-0.296822	0.767802
H392	H	0.639219	0.203178	1.267802
