data_functionalizedCrystal
_audit_creation_method	'MofGen! by Chris Wilmer'
_symmetry_space_group_name_H-M	'P1'
_symmetry_Int_Tables_number	1
_symmetry_cell_setting	triclinic
loop_
_symmetry_equiv_pos_as_xyz
  x,y,z
_cell_length_a	21.295419
_cell_length_b	21.295417
_cell_length_c	17.640968
_cell_angle_alpha	101.234808
_cell_angle_beta	101.221813
_cell_angle_gamma	90.045308
loop_
_atom_site_label
_atom_site_type_symbol
_atom_site_fract_x
_atom_site_fract_y
_atom_site_fract_z
Zn1	Zn	1.034311	-0.178377	0.446934
Zn2	Zn	1.534311	0.321623	0.946934
Zn3	Zn	1.012930	-0.304942	0.314736
Zn4	Zn	1.512930	0.195058	0.814736
Zn5	Zn	0.907755	-0.199714	0.314761
Zn6	Zn	1.407755	0.300286	0.814761
Zn7	Zn	0.928995	-0.283648	0.446880
Zn8	Zn	1.428995	0.216352	0.946880
O9	O	0.970998	-0.241670	0.380828
O10	O	1.470998	0.258330	0.880828
O11	O	1.119566	-0.195148	0.429410
O12	O	1.619566	0.304852	0.929410
O13	O	0.981141	-0.308824	0.204121
O14	O	1.481141	0.191176	0.704121
O15	O	0.924602	-0.108788	0.332327
O16	O	1.424602	0.391212	0.832327
O17	O	1.103857	-0.288135	0.332284
O18	O	1.603857	0.211865	0.832284
O19	O	1.017582	-0.093112	0.429434
O20	O	1.517582	0.406888	0.929434
O21	O	0.903869	-0.231513	0.204139
O22	O	1.403869	0.268487	0.704139
O23	O	0.822481	-0.210866	0.332274
O24	O	1.322481	0.289134	0.832274
O25	O	0.960803	-0.251842	0.557505
O26	O	1.460803	0.248158	1.057505
O27	O	0.838086	-0.272532	0.429342
O28	O	1.338086	0.227468	0.929342
O29	O	1.038178	-0.174500	0.557545
O30	O	1.538178	0.325500	1.057545
O31	O	1.001737	-0.390212	0.332232
O32	O	1.501737	0.109788	0.832232
O33	O	0.940070	-0.374567	0.429318
O34	O	1.440070	0.125433	0.929318
C35	C	0.807442	-0.241704	0.380806
C36	C	1.307442	0.258296	0.880806
C37	C	0.737476	-0.241730	0.380815
C38	C	1.237476	0.258270	0.880815
C39	C	0.970908	-0.405229	0.380784
C40	C	1.470908	0.094771	0.880784
C41	C	0.970932	-0.475195	0.380792
C42	C	1.470932	0.024805	0.880792
C43	C	0.712824	-0.193365	0.431466
C44	C	1.212824	0.306635	0.931466
C45	C	0.647082	-0.193348	0.431469
C46	C	1.147082	0.306652	0.931469
C47	C	0.605996	-0.241705	0.380829
C48	C	1.105996	0.258295	0.880829
C49	C	0.630654	-0.290075	0.330168
C50	C	1.130654	0.209925	0.830168
C51	C	0.696394	-0.290087	0.330161
C52	C	1.196394	0.209913	0.830161
N53	N	0.501726	-0.297779	0.374651
N54	N	1.001726	0.202221	0.874651
N55	N	0.439276	-0.297764	0.374663
N56	N	0.939276	0.202236	0.874663
C57	C	0.407924	-0.241670	0.380847
C58	C	0.907924	0.258330	0.880847
N59	N	0.441383	-0.185587	0.387034
N60	N	0.941383	0.314413	0.887034
N61	N	0.503839	-0.185601	0.387027
N62	N	1.003839	0.314399	0.887027
C63	C	0.534711	-0.241697	0.380831
C64	C	1.034711	0.258303	0.880831
C65	C	0.311987	-0.193282	0.431504
C66	C	0.811987	0.306718	0.931504
C67	C	0.246243	-0.193265	0.431502
C68	C	0.746243	0.306735	0.931502
C69	C	0.229817	-0.289997	0.330205
C70	C	0.729817	0.210003	0.830205
C71	C	0.295559	-0.290009	0.330203
C72	C	0.795559	0.209991	0.830203
C73	C	0.336641	-0.241652	0.380857
C74	C	0.836641	0.258348	0.880857
C75	C	1.003085	-0.516179	0.330291
C76	C	1.503085	-0.016179	0.830291
C77	C	1.003118	-0.581919	0.330309
C78	C	1.503118	-0.081919	0.830309
C79	C	0.970984	-0.606673	0.380819
C80	C	1.470984	-0.106673	0.880819
C81	C	0.938829	-0.565680	0.431330
C82	C	1.438829	-0.065680	0.931330
C83	C	0.938803	-0.499941	0.431316
C84	C	1.438803	0.000059	0.931316
N85	N	0.916886	-0.708984	0.386838
N86	N	1.416886	-0.208984	0.886838
N87	N	0.916912	-0.771434	0.386846
N88	N	1.416912	-0.271434	0.886846
C89	C	0.971062	-0.804741	0.380864
C90	C	1.471062	-0.304741	0.880864
N91	N	1.025183	-0.773241	0.374858
N92	N	1.525183	-0.273241	0.874858
N93	N	1.025156	-0.710786	0.374846
N94	N	1.525156	-0.210786	0.874846
C95	C	0.971009	-0.677955	0.380840
C96	C	1.471009	-0.177955	0.880840
C97	C	1.003253	-0.917007	0.330380
C98	C	1.503253	-0.417007	0.830380
C99	C	1.003288	-0.982747	0.330403
C100	C	1.503288	-0.482747	0.830403
C101	C	0.938992	-0.966508	0.431420
C102	C	1.438992	-0.466508	0.931420
C103	C	0.938964	-0.900769	0.431401
C104	C	1.438964	-0.400769	0.931401
C105	C	0.971093	-0.876023	0.380877
C106	C	1.471093	-0.376023	0.880877
C107	C	1.135192	-0.241636	0.380850
C108	C	1.635192	0.258364	0.880850
C109	C	1.205161	-0.241622	0.380860
C110	C	1.705161	0.258378	0.880860
C111	C	1.004245	-0.208415	0.587009
C112	C	1.504245	0.291585	1.087009
C113	C	1.018413	-0.194244	0.674871
C114	C	1.518413	0.305756	1.174871
C115	C	0.971107	-0.077470	0.380889
C116	C	1.471107	0.422530	0.880889
C117	C	0.971154	-0.007497	0.380915
C118	C	1.471154	0.492503	0.880915
C119	C	0.937916	-0.274749	0.175448
C120	C	1.437916	0.225251	0.675448
C121	C	0.923870	-0.288743	0.087587
C122	C	1.423870	0.211257	0.587587
C123	C	0.863607	-0.348983	0.963736
C124	C	1.363607	0.151017	1.463736
C125	C	0.876933	-0.335659	1.046296
C126	C	1.376933	0.164341	1.546296
C127	C	0.957497	-0.255130	1.046327
C128	C	1.457497	0.244870	1.546327
C129	C	0.944176	-0.268444	0.963765
C130	C	1.444176	0.231556	1.463765
C131	C	0.897231	-0.315372	0.922476
C132	C	1.397231	0.184628	1.422476
C133	C	0.977799	-0.234834	0.922505
C134	C	1.477799	0.265166	1.422505
C135	C	0.964481	-0.248150	0.839951
C136	C	1.464481	0.251850	1.339951
C137	C	0.917539	-0.295077	0.798656
C138	C	1.417539	0.204923	1.298656
C139	C	0.883912	-0.328689	0.839922
C140	C	1.383912	0.171311	1.339922
C141	C	1.024747	-0.187909	0.963796
C142	C	1.524747	0.312091	1.463796
C143	C	1.058371	-0.154299	0.922536
C144	C	1.558371	0.345701	1.422536
C145	C	1.045049	-0.167612	0.839980
C146	C	1.545049	0.332388	1.339980
C147	C	0.998108	-0.214539	0.798686
C148	C	1.498108	0.285461	1.298686
C149	C	1.078676	-0.134000	0.798715
C150	C	1.578676	0.366000	1.298715
C151	C	1.065358	-0.147317	0.716160
C152	C	1.565358	0.352683	1.216160
C153	C	0.984789	-0.227855	0.716131
C154	C	1.484789	0.272145	1.216131
H155	H	0.627006	-0.153960	0.472714
H156	H	1.127006	0.346040	0.972714
O157	O	0.590822	-0.337132	0.281017
O158	O	1.090822	0.162868	0.781017
C159	C	0.609583	-0.397131	0.298157
C160	C	1.109583	0.102869	0.798157
H161	H	0.662218	-0.393581	0.328534
H162	H	1.162218	0.106419	0.828534
H163	H	0.602585	-0.434499	0.241041
H164	H	1.102585	0.065501	0.741041
H165	H	0.579117	-0.411831	0.338754
H166	H	1.079117	0.088169	0.838754
H167	H	0.906699	-0.305921	0.731435
H168	H	1.406699	0.194079	1.231435
O169	O	0.319410	-0.337059	0.280980
O170	O	0.819410	0.162941	0.780980
C171	C	0.269049	-0.379729	0.236269
C172	C	0.769049	0.120271	0.736269
H173	H	0.227410	-0.376719	0.268646
H174	H	0.727410	0.123281	0.768646
H175	H	0.286616	-0.430698	0.227720
H176	H	0.786616	0.069302	0.727720
H177	H	0.252398	-0.366276	0.176287
H178	H	0.752398	0.133724	0.676287
H179	H	0.845670	-0.366887	0.806302
H180	H	1.345670	0.133113	1.306302
O181	O	0.907509	-0.460220	0.480398
O182	O	1.407509	0.039780	0.980398
C183	C	0.879169	-0.496159	0.525003
C184	C	1.379169	0.003841	1.025003
H185	H	0.871808	-0.548258	0.492636
H186	H	1.371808	-0.048258	0.992636
H187	H	0.830910	-0.475869	0.533375
H188	H	1.330910	0.024131	1.033375
H189	H	0.911872	-0.493412	0.585067
H190	H	1.411872	0.006588	1.085067
H191	H	0.995722	-0.216923	1.079956
H192	H	1.495722	0.283077	1.579956
O193	O	0.720431	-0.337088	0.281070
O194	O	1.220431	0.162912	0.781070
C195	C	0.765653	-0.370575	0.325981
C196	C	1.265653	0.129425	0.825981
H197	H	0.785198	-0.338779	0.385937
H198	H	1.285198	0.161221	0.885937
H199	H	0.806675	-0.384178	0.293762
H200	H	1.306675	0.115822	0.793762
H201	H	0.741654	-0.415847	0.334558
H202	H	1.241654	0.084153	0.834558
O203	O	1.034667	-1.022537	0.281493
O204	O	1.534667	-0.522537	0.781493
C205	C	1.082575	-1.053193	0.326607
C206	C	1.582575	-0.553193	0.826607
H207	H	1.096380	-1.023309	0.388871
H208	H	1.596380	-0.523309	0.888871
H209	H	1.126474	-1.058430	0.298140
H210	H	1.626474	-0.558430	0.798140
H211	H	1.063614	-1.102627	0.329288
H212	H	1.563614	-0.602627	0.829288
O213	O	0.351804	-0.146246	0.480729
O214	O	0.851804	0.353754	0.980729
C215	C	0.315946	-0.103558	0.525448
C216	C	0.815946	0.396442	1.025448
H217	H	0.263863	-0.106547	0.493076
H218	H	0.763863	0.393453	0.993076
H219	H	0.336372	-0.052598	0.533998
H220	H	0.836372	0.447402	1.033998
H221	H	0.318608	-0.117011	0.585428
H222	H	0.818608	0.382989	1.085428
H223	H	0.825365	-0.387181	0.930116
H224	H	1.325365	0.112819	1.430116
O225	O	0.844189	-0.368350	1.086254
O226	O	1.344189	0.131650	1.586254
C227	C	0.799912	-0.412636	1.032105
C228	C	1.299912	0.087364	1.532105
H229	H	0.788254	-0.396343	0.973267
H230	H	1.288254	0.103657	1.473267
H231	H	0.754159	-0.415517	1.055954
H232	H	1.254159	0.084483	1.555954
H233	H	0.821519	-0.461858	1.023308
H234	H	1.321519	0.038142	1.523308
O235	O	0.907826	-0.860914	0.480536
O236	O	1.407826	-0.360914	0.980536
C237	C	0.951852	-0.814576	0.531613
C238	C	1.451852	-0.314576	1.031613
H239	H	1.002233	-0.833529	0.536559
H240	H	1.502233	-0.333529	1.036559
H241	H	0.938849	-0.804026	0.592420
H242	H	1.438849	-0.304026	1.092420
H243	H	0.950075	-0.768701	0.507164
H244	H	1.450075	-0.268701	1.007164
H245	H	1.035591	-0.177070	1.031017
H246	H	1.535591	0.322930	1.531017
H247	H	1.029417	-0.896858	0.289242
H248	H	1.529417	-0.396858	0.789242
H249	H	0.912831	-0.986662	0.472550
H250	H	1.412831	-0.486662	0.972550
H251	H	1.092736	-0.119946	0.682566
H252	H	1.592736	0.380054	1.182566
H253	H	0.226173	-0.153876	0.472747
H254	H	0.726173	0.346124	0.972747
O255	O	0.189905	-0.337022	0.281125
O256	O	0.689905	0.162978	0.781125
C257	C	0.159075	-0.370474	0.326038
C258	C	0.659075	0.129526	0.826038
H259	H	0.188929	-0.364402	0.388286
H260	H	0.688929	0.135598	0.888286
H261	H	0.153652	-0.423513	0.297337
H262	H	0.653652	0.076487	0.797337
H263	H	0.109717	-0.350560	0.328808
H264	H	0.609717	0.149440	0.828808
H265	H	0.946547	-0.266053	0.682511
H266	H	1.446547	0.233947	1.182511
H267	H	1.029249	-0.496033	0.289153
H268	H	1.529249	0.003967	0.789153
H269	H	1.029304	-0.615294	0.289185
H270	H	1.529304	-0.115294	0.789185
H271	H	1.096595	-0.116092	0.956165
H272	H	1.596595	0.383908	1.456165
O273	O	1.124234	-0.088346	0.838741
O274	O	1.624234	0.411654	1.338741
C275	C	1.107257	-0.028853	0.818613
C276	C	1.607257	0.471147	1.318613
H277	H	1.073387	-0.037216	0.758674
H278	H	1.573387	0.462784	1.258674
H279	H	1.152251	-0.001072	0.815801
H280	H	1.652251	0.498928	1.315801
H281	H	1.082405	-0.000164	0.865087
H282	H	1.582405	0.499836	1.365087
O283	O	0.752634	-0.146324	0.480687
O284	O	1.252634	0.353676	0.980687
C285	C	0.716775	-0.103640	0.525407
C286	C	1.216775	0.396360	1.025407
H287	H	0.664689	-0.106637	0.493041
H288	H	1.164689	0.393363	0.993041
H289	H	0.737193	-0.052677	0.533949
H290	H	1.237193	0.447323	1.033949
H291	H	0.719446	-0.117088	0.585391
H292	H	1.219446	0.382912	1.085391
H293	H	0.912666	-0.585840	0.472457
H294	H	1.412666	-0.085840	0.972457
