data_functionalizedCrystal
_audit_creation_method	'MofGen! by Chris Wilmer'
_symmetry_space_group_name_H-M	'P1'
_symmetry_Int_Tables_number	1
_symmetry_cell_setting	triclinic
loop_
_symmetry_equiv_pos_as_xyz
  x,y,z
_cell_length_a	17.699083
_cell_length_b	22.010155
_cell_length_c	17.699092
_cell_angle_alpha	89.994071
_cell_angle_beta	96.715309
_cell_angle_gamma	89.998015
loop_
_atom_site_label
_atom_site_type_symbol
_atom_site_fract_x
_atom_site_fract_y
_atom_site_fract_z
O1	O	-1.004084	0.050432	0.095700
O2	O	-0.783706	0.050453	0.108153
O3	O	-0.900118	0.050440	-0.008262
O4	O	-0.887672	0.050444	0.212115
O5	O	-0.900097	-0.050610	-0.008245
O6	O	-0.783685	-0.050598	0.108170
O7	O	-1.004063	-0.050619	0.095718
Cu8	Cu	-0.893872	-0.059835	0.101946
Cu9	Cu	-0.893897	0.059669	0.101925
O10	O	-0.887651	-0.050606	0.212133
C11	C	-0.755499	-0.000070	0.107715
C12	C	-0.671480	-0.000062	0.106377
N13	N	-0.893860	-0.143887	0.101960
C14	C	-0.622862	-0.000061	0.174710
C15	C	-0.543918	-0.000068	0.173448
C16	C	-0.513595	-0.000072	0.103851
C17	C	-0.562220	-0.000075	0.035513
C18	C	-0.641162	-0.000072	0.036776
C19	C	-0.243857	-0.000089	0.030418
C20	C	-0.164909	-0.000090	0.029160
C21	C	-0.146613	-0.000084	0.167089
C22	C	-0.225555	-0.000081	0.168352
C23	C	-0.274173	-0.000087	0.100014
C24	C	-0.359772	-0.000081	0.101384
C25	C	-0.427998	-0.000075	0.102481
C26	C	-0.945447	-0.563672	0.050384
C27	C	-0.945451	-0.627280	0.050379
O28	O	-0.989282	-0.660176	0.006537
N29	N	-0.893897	-0.659095	0.101909
C30	C	-0.842330	-0.627298	0.153443
O31	O	-0.798479	-0.660200	0.197273
C32	C	-0.842324	-0.563692	0.153444
C33	C	-0.893887	-0.531880	0.101915
C34	C	-0.997005	-0.531861	-0.001142
C35	C	-0.997002	-0.468258	-0.001135
C36	C	-0.945442	-0.436466	0.050396
C37	C	-0.893884	-0.468277	0.101922
C38	C	-0.790755	-0.531897	0.204974
C39	C	-0.790752	-0.468286	0.204970
C40	C	-0.842315	-0.436475	0.153441
C41	C	-0.842320	-0.372882	0.153460
N42	N	-0.893875	-0.341068	0.101929
C43	C	-0.945435	-0.372859	0.050397
C44	C	-0.842347	-0.760876	0.153436
C45	C	-0.842357	-0.824481	0.153440
C46	C	-0.945476	-0.824459	0.050374
C47	C	-0.945470	-0.760852	0.050375
C48	C	-0.893901	-0.729061	0.101906
C49	C	-0.945426	-0.239288	0.050415
C50	C	-0.945421	-0.175679	0.050428
C51	C	-0.842299	-0.175708	0.153491
C52	C	-0.842306	-0.239311	0.153481
C53	C	-0.893873	-0.271100	0.101937
O54	O	-0.798510	-0.339946	0.197277
O55	O	-0.989272	-0.339950	0.006568
C56	C	-0.032271	-0.000093	0.096155
C57	C	-0.116289	-0.000093	0.097494
C58	C	-0.899661	-0.000084	-0.036450
C59	C	-0.898319	-0.000081	-0.120468
N60	N	-0.893915	0.143721	0.101905
C61	C	-0.897703	0.055002	-0.159945
C62	C	-0.896438	0.055003	-0.238888
C63	C	-0.895795	-0.000080	-0.278353
C64	C	-0.896410	-0.055168	-0.238871
C65	C	-0.897669	-0.055168	-0.159928
C66	C	-0.891329	-0.055168	-0.557236
C67	C	-0.890072	-0.055164	-0.636184
C68	C	-0.890098	0.055003	-0.636195
C69	C	-0.891357	0.055003	-0.557253
C70	C	-0.891968	-0.000085	-0.517777
C71	C	-0.893338	-0.000085	-0.432178
C72	C	-0.894430	-0.000080	-0.363952
C73	C	-0.888109	-0.000081	0.240321
C74	C	-0.889450	-0.000080	0.324339
H75	H	-0.647544	-0.000057	0.231383
Br76	Br	-0.895600	0.129762	-0.292461
H77	H	-0.748768	-0.557789	0.246933
Br78	Br	-0.898502	-0.129927	-0.106351
Br79	Br	-0.772336	-0.282482	0.223425
Br80	Br	-0.889201	-0.129924	-0.689744
H81	H	-0.987415	-0.265163	0.008442
H82	H	-1.038987	-0.442361	-0.043096
Br83	Br	-0.892236	0.129761	-0.503698
H84	H	-0.800321	-0.149813	0.195449
H85	H	-1.038992	-0.557740	-0.043108
H86	H	-0.898230	0.099857	-0.127819
Br87	Br	-0.892142	-0.129929	-0.503668
Br88	Br	-0.720759	-0.425146	0.274906
H89	H	-0.504335	-0.000066	0.229091
H90	H	-0.250239	-0.000075	0.225025
Br91	Br	-0.889269	0.129766	-0.689774
H92	H	-0.895882	-0.100017	-0.271009
H93	H	-0.537525	-0.000088	-0.021154
H94	H	-0.987412	-0.149780	0.008467
H95	H	-0.140224	-0.000094	-0.027517
Br96	Br	-0.309829	-0.000099	-0.062327
Br97	Br	-0.080627	-0.000076	0.259836
H98	H	-0.800378	-0.850378	0.195407
H99	H	-0.987456	-0.734955	0.008415
Br100	Br	-1.015452	-0.867618	-0.019562
Br101	Br	-0.707147	-0.000079	-0.055965
Br102	Br	-0.772360	-0.717737	0.223383
