data_functionalizedCrystal
_audit_creation_method	'MofGen! by Chris Wilmer'
_symmetry_space_group_name_H-M	'P1'
_symmetry_Int_Tables_number	1
_symmetry_cell_setting	triclinic
loop_
_symmetry_equiv_pos_as_xyz
  x,y,z
_cell_length_a	14.853567
_cell_length_b	14.421503
_cell_length_c	14.853567
_cell_angle_alpha	90.005344
_cell_angle_beta	96.365070
_cell_angle_gamma	89.989953
loop_
_atom_site_label
_atom_site_type_symbol
_atom_site_fract_x
_atom_site_fract_y
_atom_site_fract_z
O1	O	1.196350	0.077040	-0.117698
O2	O	1.529684	0.410373	0.215636
O3	O	1.863017	0.743706	0.548969
O4	O	0.933891	0.077055	-0.131719
O5	O	1.267224	0.410388	0.201614
O6	O	1.600558	0.743721	0.534948
O7	O	1.072131	0.077050	0.006522
O8	O	1.405465	0.410383	0.339855
O9	O	1.738798	0.743716	0.673188
O10	O	1.058110	0.077045	-0.255938
O11	O	1.391443	0.410378	0.077395
O12	O	1.724777	0.743711	0.410729
O13	O	1.072148	-0.077174	0.006513
O14	O	1.405481	0.256159	0.339846
O15	O	1.738815	0.589493	0.673179
O16	O	0.933908	-0.077169	-0.131728
O17	O	1.267241	0.256165	0.201605
O18	O	1.600574	0.589498	0.534939
O19	O	1.196367	-0.077184	-0.117707
O20	O	1.529701	0.256150	0.215627
O21	O	1.863034	0.589483	0.548960
Cu22	Cu	1.065139	-0.091258	-0.124718
Cu23	Cu	1.398472	0.242075	0.208615
Cu24	Cu	1.731806	0.575409	0.541949
Cu25	Cu	1.065119	0.091129	-0.124707
Cu26	Cu	1.398452	0.424462	0.208626
Cu27	Cu	1.731786	0.757796	0.541959
O28	O	1.058127	-0.077179	-0.255947
O29	O	1.391460	0.256155	0.077386
O30	O	1.724793	0.589488	0.410720
C31	C	0.900311	-0.000055	-0.131088
C32	C	1.233644	0.333278	0.202245
C33	C	1.566977	0.666612	0.535579
C34	C	0.800227	-0.000049	-0.129184
C35	C	1.133560	0.333284	0.204149
C36	C	1.466894	0.666618	0.537482
N37	N	1.065160	-0.219539	-0.124725
N38	N	1.398493	0.113794	0.208608
N39	N	1.731826	0.447127	0.541942
C40	C	0.387693	-0.000068	-0.039019
C41	C	0.721026	0.333265	0.294315
C42	C	1.054360	0.666599	0.627648
C43	C	0.366412	-0.000070	-0.203251
C44	C	0.699745	0.333263	0.130082
C45	C	1.033079	0.666597	0.463415
C46	C	0.460446	-0.000067	-0.205042
C47	C	0.793779	0.333266	0.128292
C48	C	1.127112	0.666599	0.461625
C49	C	0.518108	-0.000063	-0.123819
C50	C	0.851441	0.333270	0.209514
C51	C	1.184774	0.666603	0.542848
C52	C	0.481736	-0.000062	-0.040806
C53	C	0.815069	0.333271	0.292527
C54	C	1.148402	0.666604	0.625860
C55	C	0.496825	-0.000059	-0.288053
C56	C	0.830158	0.333275	0.045281
C57	C	1.163492	0.666608	0.378614
C58	C	0.590864	-0.000055	-0.289846
C59	C	0.924197	0.333278	0.043487
C60	C	1.257531	0.666612	0.376820
C61	C	0.648528	-0.000058	-0.208623
C62	C	0.981861	0.333276	0.124711
C63	C	1.315194	0.666609	0.458044
C64	C	0.612150	-0.000058	-0.125607
C65	C	0.945484	0.333276	0.207727
C66	C	1.278817	0.666609	0.541060
C67	C	0.669812	-0.000054	-0.044384
C68	C	1.003146	0.333280	0.288949
C69	C	1.336479	0.666613	0.622283
C70	C	0.633437	-0.000060	0.038633
C71	C	0.966770	0.333273	0.371966
C72	C	1.300104	0.666606	0.705300
C73	C	0.539399	-0.000065	0.040417
C74	C	0.872733	0.333268	0.373751
C75	C	1.206066	0.666602	0.707084
C76	C	0.742565	-0.000053	-0.210407
C77	C	1.075898	0.333280	0.122926
C78	C	1.409232	0.666614	0.456260
C79	C	0.763855	-0.000048	-0.046172
C80	C	1.097188	0.333285	0.287162
C81	C	1.430522	0.666619	0.620495
C82	C	1.129096	-0.469170	-0.060789
C83	C	1.462429	-0.135837	0.272545
C84	C	1.795762	0.197496	0.605878
C85	C	1.047611	-0.530962	-0.043178
C86	C	1.380945	-0.197629	0.290156
C87	C	1.714278	0.135704	0.623489
C88	C	1.065139	-0.408701	-0.124714
C89	C	1.398473	-0.075367	0.208619
C90	C	1.731806	0.257966	0.541953
C91	C	1.146604	-0.531003	-0.142272
C92	C	1.479938	-0.197670	0.191061
C93	C	1.813271	0.135664	0.524395
C94	C	1.065127	-0.591422	-0.124701
C95	C	1.398461	-0.258089	0.208632
C96	C	1.731794	0.075245	0.541965
C97	C	0.983614	-0.469132	-0.107063
C98	C	1.316947	-0.135798	0.226270
C99	C	1.650281	0.197535	0.559604
C100	C	1.082661	-0.469167	-0.206193
C101	C	1.415994	-0.135834	0.127141
C102	C	1.749327	0.197500	0.460474
C103	C	1.001118	-0.530931	-0.188616
C104	C	1.334451	-0.197597	0.144717
C105	C	1.667784	0.135736	0.478050
C106	C	1.065148	-0.303440	-0.124719
C107	C	1.398481	0.029894	0.208614
C108	C	1.731814	0.363227	0.541948
C109	C	1.065110	-0.696681	-0.124697
C110	C	1.398443	-0.363348	0.208636
C111	C	1.731776	-0.030014	0.541969
C112	C	1.229947	-0.000072	-0.118337
C113	C	1.563281	0.333261	0.214996
C114	C	1.896614	0.666595	0.548329
C115	C	1.330031	-0.000072	-0.120241
C116	C	1.663365	0.333261	0.213092
C117	C	1.996698	0.666595	0.546425
C118	C	1.071504	-0.000059	0.040106
C119	C	1.404838	0.333274	0.373439
C120	C	1.738171	0.666607	0.706772
C121	C	1.069601	-0.000051	0.140189
C122	C	1.402934	0.333282	0.473523
C123	C	1.736267	0.666615	0.806856
N124	N	1.065106	0.219410	-0.124693
N125	N	1.398439	0.552744	0.208640
N126	N	1.731772	0.886077	0.541973
C127	C	1.058754	-0.000068	-0.289531
C128	C	1.392087	0.333266	0.043802
C129	C	1.725420	0.666599	0.377135
C130	C	1.060657	-0.000070	-0.389615
C131	C	1.393991	0.333264	-0.056282
C132	C	1.727324	0.666597	0.277052
C133	C	0.979435	-0.000064	0.552723
C134	C	1.312768	0.333270	0.886057
C135	C	1.646102	0.666603	1.219390
C136	C	1.143668	-0.000073	0.574004
C137	C	1.477001	0.333260	0.907338
C138	C	1.810334	0.666594	1.240671
C139	C	1.145458	-0.000068	0.479971
C140	C	1.478791	0.333266	0.813304
C141	C	1.812124	0.666599	1.146637
C142	C	1.064235	-0.000062	0.422309
C143	C	1.397569	0.333272	0.755642
C144	C	1.730902	0.666605	1.088975
C145	C	0.981223	-0.000061	0.458680
C146	C	1.314556	0.333272	0.792014
C147	C	1.647889	0.666605	1.125347
C148	C	1.228469	-0.000078	0.443591
C149	C	1.561802	0.333256	0.776925
C150	C	1.895136	0.666589	1.110258
C151	C	1.230262	-0.000073	0.349552
C152	C	1.563596	0.333260	0.682886
C153	C	1.896929	0.666593	1.016219
C154	C	1.149039	-0.000061	0.291889
C155	C	1.482372	0.333273	0.625222
C156	C	1.815706	0.666606	0.958555
C157	C	1.066023	-0.000059	0.328266
C158	C	1.399356	0.333274	0.661599
C159	C	1.732690	0.666607	0.994933
C160	C	0.984800	-0.000053	0.270604
C161	C	1.318134	0.333280	0.603937
C162	C	1.651467	0.666613	0.937271
C163	C	0.901783	-0.000045	0.306979
C164	C	1.235117	0.333288	0.640313
C165	C	1.568450	0.666622	0.973646
C166	C	0.899999	-0.000049	0.401017
C167	C	1.233332	0.333285	0.734350
C168	C	1.566666	0.666618	1.067683
C169	C	1.150823	-0.000057	0.197851
C170	C	1.484157	0.333276	0.531185
C171	C	1.817490	0.666610	0.864518
C172	C	0.986588	-0.000051	0.176561
C173	C	1.319921	0.333283	0.509895
C174	C	1.653255	0.666616	0.843228
H175	H	0.810798	-0.000048	0.019971
H176	H	1.144131	0.333285	0.353304
H177	H	1.477465	0.666618	0.686638
H178	H	1.218414	-0.000070	0.168238
H179	H	1.551748	0.333263	0.501572
H180	H	1.885081	0.666597	0.834905
Cl181	Cl	0.917518	-0.572538	-0.272079
Cl182	Cl	1.250852	-0.239205	0.061255
Cl183	Cl	1.584185	0.094128	0.394588
H184	H	0.449870	-0.000052	-0.354180
H185	H	0.783204	0.333281	-0.020846
H186	H	1.116537	0.666614	0.312487
Cl187	Cl	1.334624	-0.000068	0.303832
Cl188	Cl	1.667958	0.333265	0.637165
Cl189	Cl	2.001291	0.666599	0.970498
H190	H	0.680397	-0.000051	0.104764
H191	H	1.013731	0.333282	0.438098
H192	H	1.347064	0.666616	0.771431
H193	H	1.097518	-0.442002	-0.275081
H194	H	1.430851	-0.108669	0.058252
H195	H	1.764184	0.224664	0.391586
Cl196	Cl	0.293923	-0.000062	-0.305354
Cl197	Cl	0.627256	0.333271	0.027979
Cl198	Cl	0.960590	0.666604	0.361313
H199	H	0.509774	-0.000093	0.108005
H200	H	0.843107	0.333241	0.441339
H201	H	1.176440	0.666574	0.774672
H202	H	0.914699	-0.442069	-0.092128
H203	H	1.248032	-0.108736	0.241205
H204	H	1.581366	0.224598	0.574538
H205	H	1.032780	-0.558107	0.025732
H206	H	1.366113	-0.224774	0.359065
H207	H	1.699446	0.108560	0.692399
H208	H	0.620472	-0.000049	-0.357443
H209	H	0.953806	0.333284	-0.024110
H210	H	1.287139	0.666617	0.309223
Cl211	Cl	0.341967	-0.000081	0.065340
Cl212	Cl	0.675300	0.333252	0.398673
Cl213	Cl	1.008633	0.666586	0.732007
Cl214	Cl	1.330570	-0.000105	0.516083
Cl215	Cl	1.663903	0.333228	0.849416
Cl216	Cl	1.997237	0.666562	1.182750
H217	H	0.772178	-0.000049	-0.277998
H218	H	1.105511	0.333284	0.055335
H219	H	1.438844	0.666618	0.388669
Cl220	Cl	1.212512	-0.427297	0.022718
Cl221	Cl	1.545846	-0.093964	0.356051
Cl222	Cl	1.879179	0.239369	0.689384
H223	H	0.920445	-0.000042	0.129618
H224	H	1.253779	0.333292	0.462951
H225	H	1.587112	0.666625	0.796285
H226	H	1.215503	-0.558180	-0.157129
H227	H	1.548837	-0.224847	0.176205
H228	H	1.882170	0.108487	0.509538
H229	H	0.835652	-0.000047	0.260019
H230	H	1.168985	0.333287	0.593352
H231	H	1.502319	0.666620	0.926686
Cl232	Cl	0.795645	-0.000036	0.446752
Cl233	Cl	1.128978	0.333298	0.780085
Cl234	Cl	1.462312	0.666631	1.113419
H235	H	0.911844	-0.000053	0.582344
H236	H	1.245178	0.333280	0.915678
H237	H	1.578511	0.666613	1.249011
H238	H	1.209795	-0.000085	0.620958
H239	H	1.543129	0.333248	0.954291
H240	H	1.876462	0.666581	1.287624
