data_functionalizedCrystal
_audit_creation_method	'MofGen! by Chris Wilmer'
_symmetry_space_group_name_H-M	'P1'
_symmetry_Int_Tables_number	1
_symmetry_cell_setting	triclinic
loop_
_symmetry_equiv_pos_as_xyz
  x,y,z
_cell_length_a	21.295417
_cell_length_b	13.897449
_cell_length_c	21.295411
_cell_angle_alpha	89.973954
_cell_angle_beta	89.978356
_cell_angle_gamma	90.031333
loop_
_atom_site_label
_atom_site_type_symbol
_atom_site_fract_x
_atom_site_fract_y
_atom_site_fract_z
Zn1	Zn	-0.250667	1.474642	-0.355936
Zn2	Zn	-0.355919	1.474492	-0.250662
Zn3	Zn	-0.250669	1.313324	-0.250679
Zn4	Zn	-0.355904	1.313277	-0.355891
O5	O	-0.303290	1.393934	-0.303292
O6	O	-0.264634	1.609604	-0.341983
O7	O	-0.341964	1.453070	-0.162575
O8	O	-0.162579	1.334805	-0.264667
O9	O	-0.341962	1.609494	-0.264639
O10	O	-0.162578	1.453325	-0.342000
O11	O	-0.264638	1.334660	-0.162587
O12	O	-0.264623	1.178336	-0.264623
O13	O	-0.341937	1.334725	-0.443986
O14	O	-0.341939	1.178301	-0.341922
O15	O	-0.264620	1.453279	-0.444020
O16	O	-0.444006	1.453025	-0.264594
O17	O	-0.443995	1.334580	-0.341906
C18	C	-0.303280	1.143319	-0.303270
C19	C	-0.303291	1.036105	-0.303275
C20	C	-0.303293	0.949036	-0.303286
C21	C	-0.303298	0.839803	-0.303305
C22	C	-0.466841	1.393807	-0.303257
C23	C	-0.536809	1.393841	-0.303263
C24	C	-0.569661	1.455570	-0.263048
C25	C	-0.635403	1.455615	-0.263063
C26	C	-0.668292	1.393915	-0.303285
C27	C	-0.635432	1.332181	-0.343507
C28	C	-0.569691	1.332145	-0.343497
N29	N	-0.771559	1.309534	-0.308076
N30	N	-0.834011	1.309571	-0.308083
C31	C	-0.866367	1.394023	-0.303321
N32	N	-0.833912	1.478437	-0.298540
N33	N	-0.771455	1.478398	-0.298530
C34	C	-0.739577	1.393948	-0.303301
C35	C	-0.970504	1.455806	-0.263119
C36	C	-1.036247	1.455853	-0.263138
C37	C	-1.036275	1.332410	-0.343580
C38	C	-0.970533	1.332372	-0.343564
C39	C	-0.937651	1.394068	-0.303331
C40	C	-0.139099	1.394087	-0.303341
C41	C	-0.069131	1.394152	-0.303361
C42	C	-0.303276	1.394014	-0.467482
C43	C	-0.303271	1.394048	-0.537450
C44	C	-0.303300	1.645527	-0.303314
C45	C	-0.303304	1.752741	-0.303324
C46	C	-0.263010	1.455776	-0.570335
C47	C	-0.262983	1.455775	-0.636078
C48	C	-0.303227	1.394055	-0.668933
C49	C	-0.343491	1.332315	-0.636040
C50	C	-0.343513	1.332311	-0.570299
N51	N	-0.358295	1.386613	-0.772148
N52	N	-0.358273	1.386622	-0.834600
C53	C	-0.303164	1.394061	-0.867008
N54	N	-0.248076	1.401510	-0.834605
N55	N	-0.248099	1.401505	-0.772148
C56	C	-0.303208	1.394052	-0.740218
C57	C	-0.262870	1.455792	-0.971178
C58	C	-0.262841	1.455784	-1.036922
C59	C	-0.343355	1.332328	-1.036883
C60	C	-0.343378	1.332332	-0.971140
C61	C	-0.303136	1.394068	-0.938292
C62	C	-0.303258	1.393909	-0.139740
C63	C	-0.303086	1.394062	-0.069773
H64	H	-0.542890	1.505809	-0.230290
H65	H	-0.662156	1.505886	-0.230315
C66	C	-0.934395	1.264484	-0.387817
N67	N	-0.907176	1.213358	-0.421158
C68	C	-0.671611	1.264307	-0.387750
N69	N	-0.698861	1.213182	-0.421075
H70	H	-1.063052	1.282176	-0.376332
H71	H	-0.230241	1.506046	-0.543594
C72	C	-0.218548	1.523692	-1.073096
N73	N	-0.185185	1.574843	-1.100342
C74	C	-0.533553	1.264247	-0.387746
N75	N	-0.506334	1.213109	-0.421078
C76	C	-0.218695	1.523690	-0.672259
N77	N	-0.185339	1.574846	-0.699509
C78	C	-0.387806	1.264404	-0.534124
N79	N	-0.421170	1.213257	-0.506876
C80	C	-0.387626	1.264436	-1.073019
N81	N	-0.420971	1.213298	-1.100241
C82	C	-0.934331	1.523687	-0.218872
N83	N	-0.907088	1.574819	-0.185546
C84	C	-1.072384	1.523762	-0.218896
N85	N	-1.099602	1.574911	-0.185570
H86	H	-0.376257	1.282059	-0.662795
C87	C	-0.387672	1.264428	-0.934965
N88	N	-0.421034	1.213278	-0.907718
H89	H	-0.230099	1.506056	-0.944432
