data_functionalizedCrystal
_audit_creation_method	'MofGen! by Chris Wilmer'
_symmetry_space_group_name_H-M	'P1'
_symmetry_Int_Tables_number	1
_symmetry_cell_setting	triclinic
loop_
_symmetry_equiv_pos_as_xyz
  x,y,z
_cell_length_a	23.096457
_cell_length_b	19.851628
_cell_length_c	19.851628
_cell_angle_alpha	90.001806
_cell_angle_beta	60.004920
_cell_angle_gamma	60.008383
loop_
_atom_site_label
_atom_site_type_symbol
_atom_site_fract_x
_atom_site_fract_y
_atom_site_fract_z
Zr1	Zr	0.633764	0.648978	-0.088406
O2	O	0.754524	0.541441	-0.195949
O3	O	0.512989	0.681934	-0.055441
O4	O	0.633757	0.681952	-0.195962
O5	O	0.633768	0.541419	0.055420
O6	O	0.633768	0.792801	-0.195968
O7	O	0.633757	0.541422	-0.055428
O8	O	0.417737	0.792768	0.055397
O9	O	0.849799	0.541452	-0.195945
O10	O	0.562680	0.778726	-0.041383
O11	O	0.562680	0.695998	0.041347
O12	O	0.704868	0.696020	-0.124098
O13	O	0.704868	0.613292	-0.041368
Zr14	Zr	0.633800	0.825763	0.088376
Zr15	Zr	0.633782	0.825769	-0.088415
Zr16	Zr	0.633782	0.648972	0.088385
Zr17	Zr	0.785716	0.648995	-0.088399
Zr18	Zr	0.481848	0.825745	0.088369
O19	O	0.754575	0.792807	0.055411
O20	O	0.754550	0.792815	-0.195963
O21	O	0.754550	0.541433	0.055425
O22	O	0.513040	0.933300	0.195919
O23	O	0.513014	0.933308	-0.055455
O24	O	0.513014	0.681926	0.195933
O25	O	0.633796	0.933322	-0.055450
O26	O	0.633807	0.792789	0.195932
O27	O	0.633796	0.681940	0.195938
O28	O	0.633807	0.933318	0.055399
O29	O	0.849813	0.681977	-0.195953
O30	O	0.417751	0.792764	0.195923
O31	O	0.417765	0.933289	0.195915
O32	O	0.417751	0.933293	0.055390
O33	O	0.849813	0.541448	-0.055420
O34	O	0.849827	0.681973	-0.055427
O35	O	0.562696	0.778721	0.124068
O36	O	0.562696	0.861449	0.041338
O37	O	0.704884	0.778743	-0.041377
O38	O	0.704884	0.696015	0.041353
C39	C	0.443713	0.737348	-0.000023
C40	C	0.379205	0.737341	-0.000025
C41	C	0.296432	0.798407	0.061033
C42	C	0.235811	0.798413	0.061041
C43	C	0.257967	0.737358	-0.000023
C44	C	0.340754	0.676281	-0.061087
C45	C	0.401373	0.676272	-0.061088
N46	N	0.201848	0.718887	-0.072438
N47	N	0.144258	0.718901	-0.072433
C48	C	0.075328	0.737380	-0.000021
N49	N	0.066153	0.755861	0.072391
N50	N	0.123746	0.755852	0.072386
C51	C	0.192242	0.737361	-0.000028
C52	C	-0.073182	0.798456	0.061051
C53	C	-0.133802	0.798456	0.061059
C54	C	-0.028856	0.676327	-0.061075
C55	C	0.031762	0.676324	-0.061077
C56	C	0.009594	0.737393	-0.000014
C57	C	0.633760	0.516232	-0.000003
C58	C	0.633752	0.441179	0.000002
C59	C	0.556243	0.304908	0.045091
C60	C	0.595002	0.237463	0.077787
C61	C	0.633773	0.303748	-0.000009
C62	C	0.595009	0.237458	-0.032677
C63	C	0.633788	0.170999	-0.000019
C64	C	0.672533	0.237291	0.032733
C65	C	0.672529	0.237297	-0.077775
C66	C	0.711344	0.169839	-0.045098
C67	C	0.633763	0.380223	-0.000001
C68	C	0.633805	0.094522	-0.000025
C69	C	0.823851	0.737393	-0.000007
C70	C	0.888359	0.737400	-0.000004
C71	C	0.633760	0.737377	-0.221154
C72	C	0.633752	0.737379	-0.296206
C73	C	0.633804	0.958509	-0.000027
C74	C	0.633812	1.033561	-0.000031
C75	C	0.556243	0.782472	-0.432472
C76	C	0.594991	0.704692	-0.499919
C77	C	0.633773	0.737371	-0.433637
C78	C	0.595020	0.815135	-0.499925
C79	C	0.633788	0.737370	-0.566387
C80	C	0.672522	0.659546	-0.500096
C81	C	0.672540	0.770045	-0.500091
C82	C	0.711344	0.692219	-0.567551
C83	C	0.633763	0.737373	-0.357163
C84	C	0.633805	0.737360	-0.642863
C85	C	0.633804	0.737364	0.221124
C86	C	0.633812	0.737361	0.296176
C87	C	0.443735	0.958487	-0.000035
C88	C	0.379235	1.033532	-0.000042
C89	C	0.443735	0.737341	0.221116
C90	C	0.379235	0.737332	0.296166
C91	C	0.443758	0.958480	0.221104
C92	C	0.379265	1.033523	0.296149
C93	C	0.823806	0.516261	-0.221133
C94	C	0.888299	0.441218	-0.296179
C95	C	0.823829	0.516254	0.000005
C96	C	0.888329	0.441209	0.000012
C97	C	0.823829	0.737399	-0.221146
C98	C	0.888329	0.737409	-0.296195
C99	C	0.348937	1.025593	-0.043232
C100	C	0.288340	1.096099	-0.043255
C101	C	0.258040	1.174543	-0.000082
C102	C	0.288344	1.182480	0.043109
C103	C	0.348944	1.111974	0.043126
C104	C	0.348954	0.780507	0.374596
C105	C	0.288358	0.780495	0.445120
C106	C	0.258040	0.737311	0.437212
C107	C	0.288327	0.694130	0.358773
C108	C	0.348926	0.694138	0.288250
C109	C	0.348979	1.111954	0.288207
C110	C	0.288390	1.182471	0.358714
C111	C	0.258084	1.174555	0.437161
C112	C	0.288376	1.096116	0.445102
C113	C	0.348968	1.025600	0.374596
C114	C	0.918593	0.362787	-0.288237
C115	C	0.979201	0.292270	-0.358744
C116	C	1.009510	0.300185	-0.437191
C117	C	0.979213	0.378625	-0.445132
C118	C	0.918611	0.449140	-0.374626
C119	C	0.918634	0.449148	0.043195
C120	C	0.979247	0.378642	0.043198
C121	C	1.009550	0.300198	0.000023
C122	C	0.979242	0.292261	-0.043165
C123	C	0.918634	0.362766	-0.043172
C124	C	0.918628	0.780601	-0.288260
C125	C	0.979224	0.780627	-0.358771
C126	C	1.009525	0.737454	-0.437216
C127	C	0.979220	0.694261	-0.445149
C128	C	0.918621	0.694241	-0.374639
H129	H	0.468774	0.626541	-0.110809
H130	H	0.263705	0.815661	0.508982
H131	H	0.562223	0.236795	-0.060303
H132	H	0.263732	1.246334	0.352234
Cl133	Cl	0.387053	0.834804	0.384561
Cl134	Cl	0.544417	0.916670	-0.500949
H135	H	-0.091233	0.848178	0.110775
H136	H	0.705260	0.593750	-0.499495
H137	H	1.003899	0.385060	-0.509012
H138	H	0.263674	1.089620	-0.078426
Cl139	Cl	0.880502	0.352814	-0.189626
H140	H	0.893946	0.513001	-0.381102
H141	H	0.373607	0.961727	-0.078398
H142	H	0.278375	0.848133	0.110756
Cl143	Cl	0.880547	0.834883	-0.189652
H144	H	0.208746	1.231980	0.494565
Cl145	Cl	0.386982	0.639860	0.189654
Cl146	Cl	0.131740	0.875190	0.137804
H147	H	0.208696	0.737311	0.494642
Cl148	Cl	1.017272	0.193670	-0.348743
Cl149	Cl	0.250202	0.639848	0.348844
Cl150	Cl	1.085742	0.211570	0.000043
Cl151	Cl	0.387070	1.121927	0.189596
H152	H	1.003892	0.815799	-0.352295
Cl153	Cl	0.880538	0.352772	-0.097459
Cl154	Cl	0.880556	0.547754	0.097474
H155	H	0.776953	0.654026	-0.625287
Cl156	Cl	0.250267	1.086179	0.543728
Cl157	Cl	0.455034	0.394188	0.104047
Cl158	Cl	-0.000996	0.599568	-0.137838
H159	H	1.058870	0.737477	-0.494622
Cl160	Cl	0.544423	0.236416	0.179319
H161	H	0.490690	0.820545	-0.374641
Cl162	Cl	1.017332	0.388639	0.097500
Cl163	Cl	0.723094	0.238217	0.075501
H164	H	1.003901	0.659111	-0.509028
Cl165	Cl	0.880546	0.639927	-0.384630
Cl166	Cl	0.544397	0.662014	-0.500964
H167	H	0.776953	0.112107	-0.083233
H168	H	1.003924	0.228383	-0.078316
Cl169	Cl	1.085695	0.211528	-0.525820
Cl170	Cl	0.368609	0.599523	-0.137849
Cl171	Cl	-0.237867	0.875227	0.137832
H172	H	0.099162	0.626601	-0.110802
H173	H	0.705263	0.238006	-0.143523
H174	H	0.705283	0.797704	-0.499384
H175	H	0.263665	1.246358	0.078258
Cl176	Cl	0.181855	1.263171	-0.000111
H177	H	0.373605	1.118450	0.078302
H178	H	0.373620	0.961741	0.381074
