data_functionalizedCrystal
_audit_creation_method	'MofGen! by Chris Wilmer'
_symmetry_space_group_name_H-M	'P1'
_symmetry_Int_Tables_number	1
_symmetry_cell_setting	triclinic
loop_
_symmetry_equiv_pos_as_xyz
  x,y,z
_cell_length_a	19.188930
_cell_length_b	8.559649
_cell_length_c	7.681481
_cell_angle_alpha	85.069100
_cell_angle_beta	84.309808
_cell_angle_gamma	103.538277
loop_
_atom_site_label
_atom_site_type_symbol
_atom_site_fract_x
_atom_site_fract_y
_atom_site_fract_z
O1	O	0.908267	-0.214796	0.146976
O2	O	0.703558	-0.241647	0.146853
O3	O	0.823948	0.004506	0.146923
O4	O	0.787877	-0.460948	0.146905
O5	O	0.838769	0.034871	-0.145926
O6	O	0.718379	-0.211281	-0.145996
O7	O	0.923089	-0.184430	-0.145873
Zn8	Zn	0.823087	-0.193034	-0.192431
Zn9	Zn	0.803559	-0.233043	0.193411
O10	O	0.802699	-0.430583	-0.145944
C11	C	0.685004	-0.225593	0.000413
C12	C	0.607638	-0.222976	0.000367
C13	C	0.834092	0.079237	0.000504
C14	C	0.842228	0.256672	0.000519
N15	N	0.836420	-0.165729	-0.455757
C16	C	0.555161	-0.367417	0.000389
C17	C	0.482464	-0.364966	0.000409
C18	C	0.462247	-0.218069	0.000441
C19	C	0.514736	-0.073608	0.000409
C20	C	0.587431	-0.076062	0.000372
N21	N	0.355090	-0.116125	0.100186
N22	N	0.286031	-0.113804	0.100225
C23	C	0.243221	-0.210667	0.000549
N24	N	0.272075	-0.309965	-0.099145
N25	N	0.341139	-0.312291	-0.099176
C26	C	0.383423	-0.215392	0.000480
C27	C	0.111917	-0.352459	0.000590
C28	C	0.039220	-0.350001	0.000598
C29	C	0.071492	-0.058641	0.000617
C30	C	0.144188	-0.061102	0.000591
C31	C	0.164395	-0.208016	0.000586
C32	C	0.941643	-0.200485	0.000571
C33	C	1.019008	-0.203102	0.000628
C34	C	0.792555	-0.505314	0.000480
C35	C	0.784418	-0.682751	0.000477
N36	N	0.790233	-0.260335	0.456737
H37	H	0.571608	-0.487047	0.000388
H38	H	0.897951	0.340566	0.000538
C39	C	0.726537	-0.390785	-0.441732
H40	H	0.698897	-0.447418	-0.522934
H41	H	0.696892	-0.340947	-0.369839
H42	H	0.744530	-0.464495	-0.369796
C43	C	0.424729	-0.523859	0.000460
H44	H	0.447175	-0.611707	0.000466
H45	H	0.400843	-0.518388	-0.101639
H46	H	0.390556	-0.539522	0.102620
C47	C	0.492499	0.087973	0.000456
H48	H	0.441687	0.068746	0.000501
H49	H	0.516191	0.158020	-0.101669
H50	H	0.505892	0.136829	0.102590
C51	C	0.900118	-0.035274	-0.557303
H52	H	0.898668	-0.038244	-0.680265
H53	H	0.944306	-0.055313	-0.527127
H54	H	0.896666	0.068230	-0.527183
H55	H	0.630160	0.041563	0.000355
C56	C	-0.018506	-0.508894	0.000623
H57	H	0.003943	-0.596737	0.000631
H58	H	-0.042385	-0.503416	-0.101487
H59	H	-0.052686	-0.524571	0.102772
H60	H	0.128371	-0.472083	0.000560
C61	C	0.049266	0.102949	0.000644
H62	H	0.090935	0.188625	0.000619
H63	H	0.016425	0.099379	0.102776
H64	H	0.026733	0.120548	-0.101482
C65	C	0.201916	0.097778	0.000592
H66	H	0.248107	0.075280	0.000554
H67	H	0.191481	0.147446	0.102724
H68	H	0.201785	0.168626	-0.101534
C69	C	0.709144	0.203938	0.000448
H70	H	0.713365	0.095543	0.000475
H71	H	0.688979	0.233751	-0.101687
H72	H	0.678650	0.212589	0.102572
