data_functionalizedCrystal
_audit_creation_method	'MofGen! by Chris Wilmer'
_symmetry_space_group_name_H-M	'P1'
_symmetry_Int_Tables_number	1
_symmetry_cell_setting	triclinic
loop_
_symmetry_equiv_pos_as_xyz
  x,y,z
_cell_length_a	23.532407
_cell_length_b	23.532407
_cell_length_c	12.503552
_cell_angle_alpha	93.487041
_cell_angle_beta	93.495659
_cell_angle_gamma	97.151283
loop_
_atom_site_label
_atom_site_type_symbol
_atom_site_fract_x
_atom_site_fract_y
_atom_site_fract_z
O1	O	0.758562	-0.065828	0.089209
O2	O	0.592700	-0.075830	0.089244
O3	O	0.680631	0.012101	0.089190
O4	O	0.670631	-0.153759	0.089263
O5	O	0.674011	0.005482	-0.089448
O6	O	0.586079	-0.082449	-0.089394
O7	O	0.751941	-0.072447	-0.089429
Cu8	Cu	0.668406	-0.078052	-0.105723
Cu9	Cu	0.676235	-0.070225	0.105538
O10	O	0.664010	-0.160378	-0.089375
C11	C	0.568174	-0.078885	-0.000071
C12	C	0.504957	-0.078118	-0.000060
C13	C	0.677066	0.030008	-0.000136
C14	C	0.676299	0.093224	-0.000156
N15	N	0.662903	-0.083557	-0.254312
C16	C	0.105853	-0.125353	-0.000087
C17	C	0.046453	-0.124642	-0.000094
O18	O	0.009707	-0.168428	-0.000114
N19	N	0.023826	-0.072366	-0.000116
C20	C	0.060602	-0.020799	-0.000141
O21	O	0.035902	0.023731	-0.000161
C22	C	0.120001	-0.021511	-0.000142
C23	C	0.142625	-0.073789	-0.000109
C24	C	0.128477	-0.177627	-0.000056
C25	C	0.187874	-0.178338	-0.000048
C26	C	0.224646	-0.126775	-0.000070
C27	C	0.202022	-0.074500	-0.000101
C28	C	0.156776	0.030056	-0.000175
C29	C	0.216179	0.029339	-0.000176
C30	C	0.238803	-0.022940	-0.000144
C31	C	0.298190	-0.023648	-0.000114
N32	N	0.320817	-0.075923	-0.000092
C33	C	0.284045	-0.127487	-0.000070
C34	C	-0.064140	-0.019307	-0.000141
C35	C	-0.123538	-0.018594	-0.000133
C36	C	-0.137684	-0.122438	-0.000088
C37	C	-0.078285	-0.123150	-0.000089
C38	C	-0.041513	-0.071583	-0.000120
C39	C	0.408783	-0.128976	-0.000051
C40	C	0.468185	-0.129682	-0.000037
C41	C	0.482325	-0.025839	-0.000088
C42	C	0.422928	-0.025132	-0.000095
C43	C	0.386158	-0.076705	-0.000081
O44	O	0.334970	0.020116	-0.000098
O45	O	0.308753	-0.172009	-0.000065
C46	C	0.776468	-0.069392	-0.000112
C47	C	0.839685	-0.070158	-0.000116
C48	C	0.621106	0.359394	-0.000095
C49	C	0.621817	0.299993	-0.000100
O50	O	0.578033	0.263250	-0.000054
N51	N	0.674093	0.277366	-0.000121
C52	C	0.725661	0.314144	-0.000128
O53	O	0.770191	0.289443	-0.000145
C54	C	0.724949	0.373543	-0.000115
C55	C	0.672670	0.396166	-0.000105
C56	C	0.568831	0.382017	-0.000083
C57	C	0.568120	0.441414	-0.000081
C58	C	0.619684	0.478186	-0.000090
C59	C	0.671959	0.455562	-0.000102
C60	C	0.776517	0.410319	-0.000114
C61	C	0.775801	0.469722	-0.000101
C62	C	0.723522	0.492346	-0.000090
C63	C	0.722812	0.551731	-0.000109
N64	N	0.670536	0.574358	-0.000087
C65	C	0.618972	0.537586	-0.000078
C66	C	0.727151	0.189400	-0.000151
C67	C	0.727863	0.130001	-0.000171
C68	C	0.624020	0.115855	-0.000141
C69	C	0.623308	0.175255	-0.000129
C70	C	0.674876	0.212027	-0.000130
C71	C	0.617483	0.662323	-0.000073
C72	C	0.616776	0.721725	-0.000075
C73	C	0.720620	0.735866	-0.000100
C74	C	0.721326	0.676469	-0.000103
C75	C	0.669753	0.639698	-0.000087
O76	O	0.766573	0.588509	-0.000150
O77	O	0.574450	0.562295	-0.000046
C78	C	0.667575	0.821715	-0.000063
C79	C	0.668340	0.758497	-0.000085
C80	C	0.689835	-0.056615	-0.526762
C81	C	0.654813	-0.091655	-0.473416
C82	C	0.659316	-0.087148	-0.351495
C83	C	0.685333	-0.061121	-0.648694
N84	N	0.681743	-0.064715	0.254127
H85	H	0.378850	-0.170971	-0.000042
O86	O	0.615060	-0.131470	-0.528326
C87	C	0.619350	-0.127161	-0.639598
H88	H	0.664183	-0.106168	-0.654829
H89	H	0.611243	-0.171883	-0.682413
H90	H	0.586095	-0.099948	-0.671530
O91	O	0.729717	-0.016822	-0.472148
C92	C	0.785049	-0.026775	-0.499518
H93	H	0.781887	-0.051701	-0.581196
H94	H	0.813186	0.016051	-0.503245
H95	H	0.804815	-0.052723	-0.436248
H96	H	0.206288	-0.220908	-0.000021
O97	O	0.490096	-0.180499	0.000136
C98	C	0.474705	-0.208474	0.092680
H99	H	0.434732	-0.192046	0.123511
H100	H	0.465426	-0.256719	0.071895
H101	H	0.511512	-0.199281	0.157468
O102	O	0.092845	-0.227771	0.000016
C103	C	0.125563	-0.274055	0.000015
H104	H	0.171229	-0.258077	0.033820
H105	H	0.105382	-0.308242	0.051903
H106	H	0.126533	-0.293274	-0.085678
O107	O	0.825853	0.505494	-0.000247
C108	C	0.825131	0.536852	-0.092777
H109	H	0.778803	0.538473	-0.123614
H110	H	0.847380	0.582383	-0.071969
H111	H	0.848627	0.515058	-0.157567
H112	H	-0.167635	-0.164423	-0.000075
O113	O	-0.056407	-0.173985	-0.000113
C114	C	-0.101606	-0.219338	-0.000061
H115	H	-0.143124	-0.204857	-0.033884
H116	H	-0.091317	-0.257780	-0.051908
H117	H	-0.106926	-0.232050	0.085649
O118	O	0.518759	0.346286	0.000114
C119	C	0.519486	0.314901	0.092609
H120	H	0.551134	0.339193	0.157276
H121	H	0.474722	0.309125	0.123668
H122	H	0.533189	0.271008	0.071677
O123	O	0.778668	0.108063	-0.000003
C124	C	0.813514	0.130312	0.092495
H125	H	0.785334	0.144885	0.157169
H126	H	0.838689	0.095608	0.123542
H127	H	0.844695	0.168434	0.071571
O128	O	0.518130	0.024193	-0.000160
C129	C	0.575408	0.012349	-0.000125
H130	H	0.576183	-0.033625	-0.033914
H131	H	0.600585	0.043309	-0.052012
H132	H	0.595772	0.017787	0.085575
O133	O	-0.145418	0.032238	-0.000199
C134	C	-0.100216	0.077593	-0.000186
H135	H	-0.061201	0.060607	-0.033994
H136	H	-0.114344	0.112193	-0.052067
H137	H	-0.088553	0.096656	0.085510
O138	O	-0.028359	0.030757	-0.000010
C139	C	0.009836	0.036889	0.092524
H140	H	0.013740	-0.007154	0.123383
H141	H	0.053828	0.057599	0.071712
H142	H	-0.007173	0.065179	0.157299
H143	H	0.574202	0.740140	-0.000071
O144	O	0.134902	0.080888	-0.000263
C145	C	0.180106	0.126239	-0.000266
H146	H	0.219120	0.109245	-0.034065
H147	H	0.165982	0.160834	-0.052162
H148	H	0.191770	0.145310	0.085425
H149	H	0.404508	0.017438	-0.000106
O150	O	0.251961	0.079401	-0.000059
C151	C	0.290155	0.085535	0.092476
H152	H	0.294055	0.041494	0.123346
H153	H	0.334149	0.106241	0.071663
H154	H	0.273147	0.113832	0.157245
O155	O	0.573897	0.080192	0.000021
C156	C	0.545575	0.093805	0.092566
H157	H	0.560961	0.140084	0.123408
H158	H	0.497280	0.088592	0.071778
H159	H	0.555581	0.063748	0.157346
O160	O	0.567354	0.626672	0.000081
C161	C	0.539029	0.640292	0.092619
H162	H	0.554425	0.686568	0.123467
H163	H	0.490736	0.635093	0.071817
H164	H	0.549020	0.610231	0.157399
O165	O	0.517328	0.463364	0.000132
C166	C	0.489346	0.447939	0.092647
H167	H	0.522324	0.438141	0.157296
H168	H	0.466471	0.484932	0.123721
H169	H	0.456616	0.408271	0.071736
O170	O	0.777205	0.225171	-0.000309
C171	C	0.776480	0.256531	-0.092836
H172	H	0.730151	0.258155	-0.123665
H173	H	0.798732	0.302060	-0.072029
H174	H	0.799970	0.234736	-0.157634
H175	H	0.819088	0.391911	-0.000122
O176	O	0.772129	0.654521	0.000073
C177	C	0.806973	0.676772	0.092572
H178	H	0.778792	0.691353	0.157237
H179	H	0.832141	0.642065	0.123634
H180	H	0.838161	0.714887	0.071645
O181	O	0.770656	0.771675	-0.000060
C182	C	0.758810	0.828950	-0.000077
H183	H	0.715342	0.832224	0.033748
H184	H	0.793616	0.857961	0.051787
H185	H	0.757895	0.842981	-0.085777
H186	H	0.580737	0.193670	-0.000125
