data_functionalizedCrystal
_audit_creation_method	'MofGen! by Chris Wilmer'
_symmetry_space_group_name_H-M	'P1'
_symmetry_Int_Tables_number	1
_symmetry_cell_setting	triclinic
loop_
_symmetry_equiv_pos_as_xyz
  x,y,z
_cell_length_a	21.295418
_cell_length_b	21.295420
_cell_length_c	21.295411
_cell_angle_alpha	90.025571
_cell_angle_beta	89.980044
_cell_angle_gamma	89.975185
loop_
_atom_site_label
_atom_site_type_symbol
_atom_site_fract_x
_atom_site_fract_y
_atom_site_fract_z
Zn1	Zn	-0.250724	-0.962369	-0.355936
Zn2	Zn	0.082609	-0.629036	-0.022602
Zn3	Zn	0.415942	-0.295702	0.310731
Zn4	Zn	-0.355976	-0.962277	-0.250664
Zn5	Zn	-0.022643	-0.628944	0.082669
Zn6	Zn	0.310691	-0.295610	0.416002
Zn7	Zn	-0.250720	-0.857092	-0.250679
Zn8	Zn	0.082613	-0.523759	0.082654
Zn9	Zn	0.415947	-0.190425	0.415988
Zn10	Zn	-0.355955	-0.857067	-0.355894
Zn11	Zn	-0.022622	-0.523734	-0.022561
Zn12	Zn	0.310712	-0.190401	0.310773
O13	O	-0.303344	-0.909701	-0.303293
O14	O	0.029989	-0.576368	0.030040
O15	O	0.363323	-0.243035	0.363373
O16	O	-0.264697	-1.050446	-0.341983
O17	O	0.068636	-0.717113	-0.008649
O18	O	0.401970	-0.383779	0.324684
O19	O	-0.342021	-0.948296	-0.162577
O20	O	-0.008688	-0.614963	0.170757
O21	O	0.324646	-0.281629	0.504090
O22	O	-0.162631	-0.871106	-0.264665
O23	O	0.170702	-0.537773	0.068668
O24	O	0.504035	-0.204440	0.402002
O25	O	-0.342025	-1.050379	-0.264640
O26	O	-0.008692	-0.717045	0.068693
O27	O	0.324642	-0.383712	0.402027
O28	O	-0.162634	-0.948453	-0.341997
O29	O	0.170699	-0.615119	-0.008663
O30	O	0.504032	-0.281786	0.324670
O31	O	-0.264690	-0.871017	-0.162588
O32	O	0.068644	-0.537684	0.170746
O33	O	0.401977	-0.204350	0.504079
O34	O	-0.264669	-0.768999	-0.264625
O35	O	0.068664	-0.435666	0.068709
O36	O	0.401998	-0.102333	0.402042
O37	O	-0.341989	-0.871064	-0.443989
O38	O	-0.008655	-0.537730	-0.110656
O39	O	0.324678	-0.204397	0.222678
O40	O	-0.341985	-0.768981	-0.341926
O41	O	-0.008651	-0.435648	-0.008592
O42	O	0.324682	-0.102315	0.324741
O43	O	-0.264676	-0.948428	-0.444020
O44	O	0.068657	-0.615095	-0.110686
O45	O	0.401990	-0.281762	0.222647
O46	O	-0.444063	-0.948272	-0.264600
O47	O	-0.110729	-0.614939	0.068734
O48	O	0.222604	-0.281605	0.402067
O49	O	-0.444047	-0.870975	-0.341912
O50	O	-0.110714	-0.537641	-0.008578
O51	O	0.222620	-0.204308	0.324755
C52	C	-0.303324	-0.746150	-0.303273
C53	C	0.030009	-0.412816	0.030061
C54	C	0.363342	-0.079483	0.363394
C55	C	-0.303331	-0.676182	-0.303279
C56	C	0.030002	-0.342848	0.030055
C57	C	0.363335	-0.009515	0.363388
C58	C	-0.343665	-0.176731	-0.343494
C59	C	-0.010332	0.156603	-0.010160
C60	C	0.323001	0.489936	0.323173
C61	C	-0.343667	-0.242473	-0.343488
C62	C	-0.010333	0.090860	-0.010155
C63	C	0.323000	0.424194	0.323179
C64	C	-0.303349	-0.275342	-0.303303
C65	C	0.029984	0.057991	0.030030
C66	C	0.363318	0.391324	0.363363
C67	C	-0.263038	-0.242463	-0.263110
C68	C	0.070295	0.090870	0.070224
C69	C	0.403628	0.424203	0.403557
C70	C	-0.263043	-0.176722	-0.263112
C71	C	0.070291	0.156611	0.070221
C72	C	0.403624	0.489945	0.403555
N73	N	-0.248233	-0.378580	-0.298571
N74	N	0.085100	-0.045247	0.034763
N75	N	0.418434	0.288087	0.368096
N76	N	-0.248231	-0.441031	-0.298572
N77	N	0.085103	-0.107698	0.034761
N78	N	0.418436	0.225635	0.368095
C79	C	-0.303334	-0.473417	-0.303293
C80	C	0.029999	-0.140084	0.030040
C81	C	0.363333	0.193250	0.363374
N82	N	-0.358441	-0.440992	-0.308025
N83	N	-0.025108	-0.107658	0.025309
N84	N	0.308225	0.225675	0.358642
N85	N	-0.358443	-0.378535	-0.308026
N86	N	-0.025110	-0.045201	0.025307
N87	N	0.308224	0.288132	0.358640
C88	C	-0.303340	-0.346628	-0.303296
C89	C	0.029993	-0.013294	0.030037
C90	C	0.363327	0.320039	0.363371
C91	C	-0.343646	-0.577573	-0.343475
C92	C	-0.010313	-0.244240	-0.010141
C93	C	0.323020	0.089093	0.323192
C94	C	-0.343649	-0.643317	-0.343465
C95	C	-0.010315	-0.309984	-0.010131
C96	C	0.323018	0.023350	0.323202
C97	C	-0.263015	-0.643306	-0.263090
C98	C	0.070319	-0.309973	0.070244
C99	C	0.403652	0.023361	0.403577
C100	C	-0.263018	-0.577564	-0.263096
C101	C	0.070315	-0.244230	0.070237
C102	C	0.403649	0.089103	0.403570
C103	C	-0.303333	-0.544701	-0.303292
C104	C	0.030000	-0.211368	0.030041
C105	C	0.363334	0.121965	0.363374
C106	C	-0.466895	-0.909628	-0.303263
C107	C	-0.133562	-0.576294	0.030070
C108	C	0.199771	-0.242961	0.363403
C109	C	-0.536864	-0.909654	-0.303271
C110	C	-0.203530	-0.576320	0.030062
C111	C	0.129803	-0.242987	0.363395
C112	C	-1.036309	-0.950101	-0.263138
C113	C	-0.702975	-0.616768	0.070195
C114	C	-0.369642	-0.283434	0.403528
C115	C	-0.970566	-0.950077	-0.263124
C116	C	-0.637233	-0.616744	0.070210
C117	C	-0.303900	-0.283410	0.403543
C118	C	-0.937703	-0.909790	-0.303337
C119	C	-0.604370	-0.576457	0.029996
C120	C	-0.271036	-0.243123	0.363329
C121	C	-0.970588	-0.869512	-0.343558
C122	C	-0.637254	-0.536179	-0.010224
C123	C	-0.303921	-0.202846	0.323109
C124	C	-1.036329	-0.869533	-0.343567
C125	C	-0.702996	-0.536200	-0.010234
C126	C	-0.369662	-0.202866	0.323100
N127	N	-0.834460	-0.904901	-0.358420
N128	N	-0.501126	-0.571568	-0.025087
N129	N	-0.167793	-0.238234	0.308246
N130	N	-0.772008	-0.904885	-0.358410
N131	N	-0.438675	-0.571552	-0.025076
N132	N	-0.105342	-0.238218	0.308257
C133	C	-0.739628	-0.909724	-0.303311
C134	C	-0.406295	-0.576391	0.030022
C135	C	-0.072962	-0.243058	0.363356
N136	N	-0.772059	-0.914593	-0.248222
N137	N	-0.438726	-0.581259	0.085111
N138	N	-0.105392	-0.247926	0.418445
N139	N	-0.834516	-0.914612	-0.248233
N140	N	-0.501183	-0.581278	0.085100
N141	N	-0.167849	-0.247945	0.418433
C142	C	-0.866418	-0.909763	-0.303332
C143	C	-0.533084	-0.576429	0.030002
C144	C	-0.199751	-0.243096	0.363335
C145	C	-0.635466	-0.949970	-0.263074
C146	C	-0.302133	-0.616637	0.070259
C147	C	0.031201	-0.283304	0.403593
C148	C	-0.569722	-0.949942	-0.263058
C149	C	-0.236389	-0.616609	0.070275
C150	C	0.096944	-0.283275	0.403609
C151	C	-0.569745	-0.869381	-0.343498
C152	C	-0.236412	-0.536047	-0.010164
C153	C	0.096922	-0.202714	0.323169
C154	C	-0.635487	-0.869406	-0.343508
C155	C	-0.302154	-0.536072	-0.010175
C156	C	0.031179	-0.202739	0.323159
C157	C	-0.668344	-0.909704	-0.303297
C158	C	-0.335011	-0.576371	0.030036
C159	C	-0.001677	-0.243037	0.363370
C160	C	-0.139154	-0.909792	-0.303337
C161	C	0.194180	-0.576459	0.029996
C162	C	0.527513	-0.243126	0.363329
C163	C	-0.069185	-0.909831	-0.303356
C164	C	0.264148	-0.576498	0.029977
C165	C	0.597481	-0.243165	0.363311
C166	C	-0.303331	-0.909754	-0.467484
C167	C	0.030003	-0.576420	-0.134150
C168	C	0.363336	-0.243087	0.199183
C169	C	-0.303325	-0.909776	-0.537452
C170	C	0.030008	-0.576443	-0.204118
C171	C	0.363342	-0.243109	0.129215
C172	C	-0.303360	-0.073892	-0.303310
C173	C	0.029973	0.259442	0.030023
C174	C	0.363307	0.592775	0.363356
C175	C	-0.303358	-0.143860	-0.303308
C176	C	0.029976	0.189474	0.030025
C177	C	0.363309	0.522807	0.363359
C178	C	-0.263067	-0.950058	-0.570335
C179	C	0.070267	-0.616725	-0.237002
C180	C	0.403600	-0.283391	0.096331
C181	C	-0.263039	-0.950057	-0.636078
C182	C	0.070294	-0.616724	-0.302745
C183	C	0.403627	-0.283390	0.030589
C184	C	-0.303282	-0.909781	-0.668934
C185	C	0.030052	-0.576447	-0.335601
C186	C	0.363385	-0.243114	-0.002268
C187	C	-0.343543	-0.869491	-0.636043
C188	C	-0.010209	-0.536158	-0.302709
C189	C	0.323124	-0.202824	0.030624
C190	C	-0.343564	-0.869488	-0.570301
C191	C	-0.010231	-0.536155	-0.236968
C192	C	0.323102	-0.202822	0.096365
N193	N	-0.358349	-0.904927	-0.772151
N194	N	-0.025016	-0.571594	-0.438818
N195	N	0.308318	-0.238260	-0.105485
N196	N	-0.358327	-0.904933	-0.834603
N197	N	-0.024993	-0.571600	-0.501269
N198	N	0.308340	-0.238266	-0.167936
C199	C	-0.303218	-0.909785	-0.867009
C200	C	0.030116	-0.576451	-0.533676
C201	C	0.363449	-0.243118	-0.200342
N202	N	-0.248131	-0.914642	-0.834605
N203	N	0.085203	-0.581309	-0.501271
N204	N	0.418536	-0.247976	-0.167938
N205	N	-0.248154	-0.914640	-0.772148
N206	N	0.085179	-0.581306	-0.438814
N207	N	0.418513	-0.247973	-0.105481
C208	C	-0.303262	-0.909779	-0.740220
C209	C	0.030071	-0.576445	-0.406886
C210	C	0.363404	-0.243112	-0.073553
C211	C	-0.262926	-0.950068	-0.971178
C212	C	0.070407	-0.616735	-0.637845
C213	C	0.403740	-0.283401	-0.304512
C214	C	-0.262898	-0.950063	-1.036922
C215	C	0.070435	-0.616729	-0.703589
C216	C	0.403769	-0.283396	-0.370255
C217	C	-0.343407	-0.869500	-1.036886
C218	C	-0.010074	-0.536166	-0.703552
C219	C	0.323260	-0.202833	-0.370219
C220	C	-0.343430	-0.869502	-0.971143
C221	C	-0.010097	-0.536168	-0.637810
C222	C	0.323237	-0.202835	-0.304477
C223	C	-0.303190	-0.909789	-0.938293
C224	C	0.030143	-0.576456	-0.604960
C225	C	0.363476	-0.243123	-0.271627
C226	C	-0.303312	-0.909686	-0.139742
C227	C	0.030022	-0.576352	0.193592
C228	C	0.363355	-0.243019	0.526925
C229	C	-0.303140	-0.909785	-0.069774
C230	C	0.030193	-0.576452	0.263559
C231	C	0.363527	-0.243119	0.596893
H232	H	-0.230212	-0.269229	-0.230390
H233	H	0.103121	0.064104	0.102943
H234	H	0.436454	0.397437	0.436277
C235	C	-0.388003	-0.679478	-0.387656
C236	C	-0.054669	-0.346145	-0.054323
C237	C	0.278664	-0.012812	0.279011
H238	H	-0.382236	-0.723339	-0.381889
H239	H	-0.048903	-0.390005	-0.048556
H240	H	0.284430	-0.056672	0.284777
H241	H	-0.378861	-0.668738	-0.429972
H242	H	-0.045527	-0.335404	-0.096639
H243	H	0.287806	-0.002071	0.236695
H244	H	-0.430283	-0.668675	-0.378356
H245	H	-0.096950	-0.335342	-0.045022
H246	H	0.236383	-0.002008	0.288311
H247	H	-0.230253	-0.982858	-0.662857
H248	H	0.103081	-0.649525	-0.329524
H249	H	0.436414	-0.316192	0.003810
C250	C	-0.387677	-0.825201	-1.073020
C251	C	-0.054344	-0.491867	-0.739686
C252	C	0.278989	-0.158534	-0.406353
H253	H	-0.381903	-0.830974	-1.116883
H254	H	-0.048569	-0.497641	-0.783550
H255	H	0.284764	-0.164308	-0.450217
H256	H	-0.378469	-0.782909	-1.062230
H257	H	-0.045135	-0.449576	-0.728897
H258	H	0.288198	-0.116242	-0.395563
H259	H	-0.429978	-0.834399	-1.062247
H260	H	-0.096645	-0.501065	-0.728914
H261	H	0.236689	-0.167732	-0.395581
C262	C	-0.218698	-0.140562	-0.218911
C263	C	0.114636	0.192771	0.114423
C264	C	0.447969	0.526104	0.447756
H265	H	-0.194683	-0.169551	-0.194978
H266	H	0.138651	0.163782	0.138355
H267	H	0.471984	0.497115	0.471688
H268	H	-0.242738	-0.114891	-0.191443
H269	H	0.090596	0.218442	0.141890
H270	H	0.423929	0.551776	0.475224
H271	H	-0.191303	-0.114943	-0.243047
H272	H	0.142030	0.218391	0.090286
H273	H	0.475364	0.551724	0.423620
H274	H	-0.376474	-0.550815	-0.376204
H275	H	-0.043141	-0.217482	-0.042871
H276	H	0.290193	0.115851	0.290463
C277	C	-0.218665	-0.679454	-0.218888
C278	C	0.114668	-0.346121	0.114445
C279	C	0.448002	-0.012787	0.447779
H280	H	-0.224432	-0.723316	-0.224644
H281	H	0.108901	-0.389982	0.108689
H282	H	0.442235	-0.056649	0.442023
H283	H	-0.227815	-0.668656	-0.176577
H284	H	0.105518	-0.335322	0.156757
H285	H	0.438851	-0.001989	0.490090
H286	H	-0.176382	-0.668700	-0.228182
H287	H	0.156952	-0.335367	0.105151
H288	H	0.490285	-0.002033	0.438485
C289	C	-0.533558	-0.994242	-0.218817
C290	C	-0.200224	-0.660909	0.114516
C291	C	0.133109	-0.327575	0.447850
H292	H	-0.562544	-1.018247	-0.194877
H293	H	-0.229211	-0.684914	0.138457
H294	H	0.104123	-0.351581	0.471790
H295	H	-0.507944	-0.970172	-0.191358
H296	H	-0.174611	-0.636839	0.141975
H297	H	0.158723	-0.303506	0.475308
H298	H	-0.507879	-1.021647	-0.242928
H299	H	-0.174546	-0.688314	0.090406
H300	H	0.158787	-0.354981	0.423739
C301	C	-0.934444	-0.825200	-0.387796
C302	C	-0.601111	-0.491866	-0.054462
C303	C	-0.267777	-0.158533	0.278871
H304	H	-0.963443	-0.801216	-0.411748
H305	H	-0.630109	-0.467882	-0.078415
H306	H	-0.296776	-0.134549	0.254919
H307	H	-0.908769	-0.849258	-0.415244
H308	H	-0.575435	-0.515925	-0.081910
H309	H	-0.242102	-0.182591	0.251423
H310	H	-0.908829	-0.797775	-0.363683
H311	H	-0.575496	-0.464441	-0.030350
H312	H	-0.242163	-0.131108	0.302984
H313	H	-0.376216	-0.836703	-0.944369
H314	H	-0.042883	-0.503370	-0.611036
H315	H	0.290450	-0.170037	-0.277702
C316	C	-0.387810	-0.825187	-0.672179
C317	C	-0.054476	-0.491854	-0.338846
C318	C	0.278857	-0.158521	-0.005512
H319	H	-0.411787	-0.801192	-0.643176
H320	H	-0.078454	-0.467859	-0.309843
H321	H	0.254879	-0.134526	0.023490
H322	H	-0.415233	-0.849252	-0.697834
H323	H	-0.081900	-0.515919	-0.364500
H324	H	0.251434	-0.182586	-0.031167
H325	H	-0.363713	-0.797773	-0.697814
H326	H	-0.030380	-0.464440	-0.364480
H327	H	0.302953	-0.131106	-0.031147
C328	C	-0.388039	-0.140585	-0.387678
C329	C	-0.054706	0.192748	-0.054344
C330	C	0.278627	0.526081	0.278989
H331	H	-0.412057	-0.169582	-0.411599
H332	H	-0.078723	0.163751	-0.078266
H333	H	0.254610	0.497085	0.255067
H334	H	-0.364025	-0.114947	-0.415157
H335	H	-0.030692	0.218386	-0.081823
H336	H	0.302642	0.551720	0.251510
H337	H	-0.415430	-0.114934	-0.363523
H338	H	-0.082097	0.218400	-0.030190
H339	H	0.251236	0.551733	0.303144
H340	H	-1.063097	-0.836741	-0.376319
H341	H	-0.729763	-0.503407	-0.042986
H342	H	-0.396430	-0.170074	0.290348
C343	C	-0.218800	-0.994364	-0.534201
C344	C	0.114534	-0.661031	-0.200868
C345	C	0.447867	-0.327698	0.132466
H346	H	-0.224579	-0.988598	-0.490337
H347	H	0.108754	-0.655264	-0.157004
H348	H	0.442087	-0.321931	0.176329
H349	H	-0.176501	-0.985176	-0.544975
H350	H	0.156833	-0.651843	-0.211641
H351	H	0.490166	-0.318509	0.121692
H352	H	-0.228018	-1.036657	-0.544991
H353	H	0.105315	-0.703324	-0.211658
H354	H	0.438649	-0.369991	0.121676
C355	C	-0.388003	-0.278639	-0.387698
C356	C	-0.054669	0.054694	-0.054365
C357	C	0.278664	0.388028	0.278969
H358	H	-0.412010	-0.249651	-0.411640
H359	H	-0.078677	0.083682	-0.078306
H360	H	0.254657	0.417015	0.255027
H361	H	-0.415395	-0.304266	-0.363573
H362	H	-0.082062	0.029067	-0.030240
H363	H	0.251271	0.362401	0.303093
H364	H	-0.363949	-0.304303	-0.415166
H365	H	-0.030616	0.029030	-0.081833
H366	H	0.302718	0.362363	0.251500
C367	C	-0.387859	-0.825185	-0.534128
C368	C	-0.054526	-0.491852	-0.200795
C369	C	0.278807	-0.158518	0.132539
H370	H	-0.411827	-0.801200	-0.563109
H371	H	-0.078494	-0.467867	-0.229776
H372	H	0.254840	-0.134534	0.103557
H373	H	-0.363791	-0.797770	-0.508465
H374	H	-0.030458	-0.464437	-0.175132
H375	H	0.302876	-0.131104	0.158201
H376	H	-0.415300	-0.849260	-0.508498
H377	H	-0.081967	-0.515927	-0.175165
H378	H	0.251367	-0.182593	0.158168
H379	H	-0.230193	-0.550800	-0.230375
H380	H	0.103140	-0.217466	0.102958
H381	H	0.436474	0.115867	0.436292
H382	H	-0.662256	-0.836615	-0.376259
H383	H	-0.328923	-0.503282	-0.042926
H384	H	0.004411	-0.169949	0.290407
H385	H	-1.063056	-0.982913	-0.230393
H386	H	-0.729723	-0.649580	0.102940
H387	H	-0.396390	-0.316246	0.436273
H388	H	-0.230157	-0.982869	-0.944431
H389	H	0.103176	-0.649536	-0.611097
H390	H	0.436509	-0.316202	-0.277764
H391	H	-0.943793	-0.982871	-0.230372
H392	H	-0.610460	-0.649537	0.102961
H393	H	-0.277126	-0.316204	0.436294
H394	H	-0.662219	-0.982783	-0.230331
H395	H	-0.328886	-0.649449	0.103002
H396	H	0.004447	-0.316116	0.436336
C397	C	-0.533603	-0.825066	-0.387733
C398	C	-0.200270	-0.491733	-0.054400
C399	C	0.133063	-0.158399	0.278934
H400	H	-0.489741	-0.830823	-0.381971
H401	H	-0.156408	-0.497490	-0.048637
H402	H	0.176926	-0.164157	0.284696
H403	H	-0.544414	-0.782779	-0.378483
H404	H	-0.211081	-0.449446	-0.045149
H405	H	0.122253	-0.116113	0.288184
H406	H	-0.544350	-0.834265	-0.430041
H407	H	-0.211016	-0.500932	-0.096707
H408	H	0.122317	-0.167599	0.236626
H409	H	-0.230111	-0.982864	-1.063695
H410	H	0.103222	-0.649531	-0.730361
H411	H	0.436556	-0.316198	-0.397028
