data_functionalizedCrystal
_audit_creation_method	'MofGen! by Chris Wilmer'
_symmetry_space_group_name_H-M	'P1'
_symmetry_Int_Tables_number	1
_symmetry_cell_setting	triclinic
loop_
_symmetry_equiv_pos_as_xyz
  x,y,z
_cell_length_a	12.594516
_cell_length_b	16.625548
_cell_length_c	16.625539
_cell_angle_alpha	89.977655
_cell_angle_beta	90.024195
_cell_angle_gamma	89.981969
loop_
_atom_site_label
_atom_site_type_symbol
_atom_site_fract_x
_atom_site_fract_y
_atom_site_fract_z
Zn1	Zn	-0.423744	-1.232705	0.455971
Zn2	Zn	-0.090411	-0.899371	0.789304
Zn3	Zn	0.242922	-0.566038	1.122637
Zn4	Zn	-0.601746	-1.232618	0.321147
Zn5	Zn	-0.268412	-0.899285	0.654481
Zn6	Zn	0.064921	-0.565951	0.987814
Zn7	Zn	-0.423781	-1.097866	0.321147
Zn8	Zn	-0.090448	-0.764533	0.654480
Zn9	Zn	0.242886	-0.431200	0.987814
Zn10	Zn	-0.601681	-1.097847	0.455933
Zn11	Zn	-0.268347	-0.764514	0.789267
Zn12	Zn	0.064986	-0.431180	1.122600
O13	O	-0.512738	-1.165259	0.388550
O14	O	-0.179405	-0.831926	0.721883
O15	O	0.153929	-0.498592	1.055216
O16	O	-0.447368	-1.345525	0.438102
O17	O	-0.114035	-1.012192	0.771435
O18	O	0.219298	-0.678859	1.104769
O19	O	-0.578181	-1.214715	0.208315
O20	O	-0.244847	-0.881381	0.541648
O21	O	0.088486	-0.548048	0.874982
O22	O	-0.274830	-1.115797	0.339047
O23	O	0.058503	-0.782464	0.672380
O24	O	0.391836	-0.449131	1.005714
O25	O	-0.578145	-1.345462	0.339048
O26	O	-0.244812	-1.012128	0.672381
O27	O	0.088522	-0.678795	1.005715
O28	O	-0.274803	-1.214862	0.438101
O29	O	0.058530	-0.881529	0.771435
O30	O	0.391863	-0.548196	1.104768
O31	O	-0.447431	-1.115713	0.208315
O32	O	-0.114098	-0.782380	0.541648
O33	O	0.219236	-0.449047	0.874981
O34	O	-0.447368	-0.985031	0.339011
O35	O	-0.114035	-0.651698	0.672344
O36	O	0.219299	-0.318365	1.005677
O37	O	-0.578034	-1.115764	0.568771
O38	O	-0.244701	-0.782431	0.902104
O39	O	0.088632	-0.449097	1.235437
O40	O	-0.578070	-0.985017	0.438038
O41	O	-0.244737	-0.651684	0.771371
O42	O	0.088597	-0.318350	1.104704
O43	O	-0.447305	-1.214844	0.568798
O44	O	-0.113972	-0.881510	0.902131
O45	O	0.219361	-0.548177	1.235465
O46	O	-0.750683	-1.214696	0.339012
O47	O	-0.417349	-0.881362	0.672345
O48	O	-0.084016	-0.548029	1.005678
O49	O	-0.750635	-1.115680	0.438038
O50	O	-0.417302	-0.782347	0.771371
O51	O	-0.083968	-0.449013	1.104705
C52	C	-0.512717	-0.955768	0.388521
C53	C	-0.179383	-0.622435	0.721854
C54	C	0.153950	-0.289101	1.055187
C55	C	-0.512733	-0.866147	0.388527
C56	C	-0.179400	-0.532814	0.721861
C57	C	0.153933	-0.199480	1.055194
C58	C	-0.512731	-0.537971	0.388552
C59	C	-0.179398	-0.204638	0.721885
C60	C	0.153935	0.128695	1.055218
C61	C	-0.512729	-0.629280	0.388542
C62	C	-0.179396	-0.295946	0.721876
C63	C	0.153938	0.037387	1.055209
C64	C	-0.512733	-0.702056	0.388539
C65	C	-0.179400	-0.368723	0.721872
C66	C	0.153934	-0.035390	1.055205
C67	C	-0.512729	-0.793371	0.388531
C68	C	-0.179396	-0.460037	0.721864
C69	C	0.153937	-0.126704	1.055197
C70	C	-0.789279	-1.165198	0.388538
C71	C	-0.455946	-0.831865	0.721872
C72	C	-0.122612	-0.498532	1.055205
C73	C	-0.907584	-1.165246	0.388561
C74	C	-0.574251	-0.831913	0.721894
C75	C	-0.240918	-0.498579	1.055227
C76	C	-1.047614	-1.111435	0.442394
C77	C	-0.714280	-0.778102	0.775727
C78	C	-0.380947	-0.444769	1.109061
C79	C	-0.976704	-1.184943	0.462178
C80	C	-0.643371	-0.851610	0.795512
C81	C	-0.310037	-0.518276	1.128845
C82	C	-0.976922	-1.091746	0.368812
C83	C	-0.643589	-0.758412	0.702145
C84	C	-0.310256	-0.425079	1.035479
C85	C	-1.047460	-1.238924	0.408413
C86	C	-0.714127	-0.905591	0.741747
C87	C	-0.380793	-0.572258	1.075080
C88	C	-1.047685	-1.145678	0.315013
C89	C	-0.714351	-0.812344	0.648346
C90	C	-0.381018	-0.479011	0.981679
C91	C	-0.976807	-1.219236	0.334769
C92	C	-0.643473	-0.885903	0.668103
C93	C	-0.310140	-0.552569	1.001436
C94	C	-0.235117	-1.165342	0.388578
C95	C	0.098216	-0.832008	0.721912
C96	C	0.431550	-0.498675	1.055245
C97	C	-0.116811	-1.165377	0.388591
C98	C	0.216522	-0.832044	0.721924
C99	C	0.549855	-0.498710	1.055257
C100	C	-0.512659	-1.165311	0.598859
C101	C	-0.179325	-0.831978	0.932192
C102	C	0.154008	-0.498645	1.265525
C103	C	-0.512625	-1.165334	0.688480
C104	C	-0.179291	-0.832000	1.021813
C105	C	0.154042	-0.498667	1.355146
C106	C	-0.512753	-0.375568	0.388571
C107	C	-0.179419	-0.042234	0.721905
C108	C	0.153914	0.291099	1.055238
C109	C	-0.512741	-0.465189	0.388561
C110	C	-0.179408	-0.131856	0.721894
C111	C	0.153925	0.201478	1.055227
C112	C	-0.512740	-1.165253	0.179059
C113	C	-0.179407	-0.831920	0.512392
C114	C	0.153927	-0.498586	0.845725
C115	C	-0.512474	-1.165387	0.089438
C116	C	-0.179141	-0.832054	0.422771
C117	C	0.154193	-0.498720	0.756105
C118	C	-0.512506	-1.165371	1.016656
C119	C	-0.179172	-0.832038	1.349989
C120	C	0.154161	-0.498704	1.683322
C121	C	-0.512542	-1.165358	0.925347
C122	C	-0.179209	-0.832025	1.258680
C123	C	0.154125	-0.498692	1.592014
C124	C	-0.512566	-1.165353	0.852571
C125	C	-0.179233	-0.832019	1.185904
C126	C	0.154101	-0.498686	1.519237
C127	C	-0.512601	-1.165339	0.761256
C128	C	-0.179268	-0.832006	1.094590
C129	C	0.154066	-0.498673	1.427923
H130	H	-1.078700	-1.065931	0.487941
H131	H	-0.745367	-0.732597	0.821274
H132	H	-0.412033	-0.399264	1.154608
H133	H	-1.078884	-1.129044	0.252820
H134	H	-0.745551	-0.795711	0.586154
H135	H	-0.412217	-0.462378	0.919487
Cl136	Cl	-1.095095	-1.335007	0.434333
Cl137	Cl	-0.761762	-1.001674	0.767667
Cl138	Cl	-0.428429	-0.668340	1.101000
Cl139	Cl	-0.929076	-0.995693	0.343002
Cl140	Cl	-0.595743	-0.662360	0.676335
Cl141	Cl	-0.262409	-0.329027	1.009669
H142	H	-0.945529	-1.201555	0.524389
H143	H	-0.612195	-0.868221	0.857722
H144	H	-0.278862	-0.534888	1.191056
H145	H	-0.945914	-1.264849	0.289257
H146	H	-0.612581	-0.931516	0.622590
H147	H	-0.279248	-0.598183	0.955923
