data_functionalizedCrystal
_audit_creation_method	'MofGen! by Chris Wilmer'
_symmetry_space_group_name_H-M	'P1'
_symmetry_Int_Tables_number	1
_symmetry_cell_setting	triclinic
loop_
_symmetry_equiv_pos_as_xyz
  x,y,z
_cell_length_a	17.077404
_cell_length_b	13.897448
_cell_length_c	13.897441
_cell_angle_alpha	89.969401
_cell_angle_beta	89.978207
_cell_angle_gamma	90.017917
loop_
_atom_site_label
_atom_site_type_symbol
_atom_site_fract_x
_atom_site_fract_y
_atom_site_fract_z
Zn1	Zn	1.200101	-0.383978	-0.545408
Zn2	Zn	1.200014	-0.545300	-0.384110
Zn3	Zn	1.068827	-0.384021	-0.384124
Zn4	Zn	1.068812	-0.545234	-0.545359
O5	O	1.134439	-0.464633	-0.464750
O6	O	1.309936	-0.405388	-0.524026
O7	O	1.182582	-0.523952	-0.249130
O8	O	1.086283	-0.249034	-0.405545
O9	O	1.309873	-0.523910	-0.405521
O10	O	1.182729	-0.249002	-0.524040
O11	O	1.086200	-0.405461	-0.249140
O12	O	0.958978	-0.405397	-0.405497
O13	O	1.086258	-0.523797	-0.680348
O14	O	0.958967	-0.523839	-0.523957
O15	O	1.182715	-0.405323	-0.680384
O16	O	1.182568	-0.680273	-0.405474
O17	O	1.086174	-0.680224	-0.523943
C18	C	0.930491	-0.464616	-0.464724
C19	C	0.843241	-0.464632	-0.464735
C20	C	1.134381	-0.715248	-0.464722
C21	C	1.134429	-0.822462	-0.464743
C22	C	0.802266	-0.526397	-0.526318
C23	C	0.720285	-0.526400	-0.526333
C24	C	0.679282	-0.464640	-0.464761
C25	C	0.720263	-0.402867	-0.403175
C26	C	0.802242	-0.402861	-0.403165
C27	C	0.549393	-0.402886	-0.403198
C28	C	0.467408	-0.402894	-0.403207
C29	C	0.467436	-0.526425	-0.526366
C30	C	0.549415	-0.526419	-0.526357
C31	C	0.590391	-0.464647	-0.464770
C32	C	1.134511	-1.018757	-0.464803
C33	C	1.134463	-0.909524	-0.464773
C34	C	1.339183	-0.464652	-0.464778
C35	C	1.426433	-0.464659	-0.464789
C36	C	1.134494	-0.464548	-0.716344
C37	C	1.134518	-0.464512	-0.823558
C38	C	1.134518	-0.213040	-0.464800
C39	C	1.134551	-0.105826	-0.464820
C40	C	1.134539	-0.464447	-1.019853
C41	C	1.134525	-0.464485	-0.910620
C42	C	1.134428	-0.464649	-0.214136
C43	C	1.134557	-0.464413	-0.106923
H44	H	0.835645	-0.576693	-0.576455
N45	N	0.678381	-0.339766	-0.340294
N46	N	0.632662	-0.278345	-0.374347
H47	H	0.603083	-0.233779	-0.329936
N48	N	0.591289	-0.589518	-0.589248
N49	N	0.554697	-0.644666	-0.644230
H50	H	0.584270	-0.689230	-0.688650
N51	N	0.678414	-0.589486	-0.589228
N52	N	0.632696	-0.555634	-0.650759
H53	H	0.603121	-0.600191	-0.695179
N54	N	0.425573	-0.589528	-0.589261
N55	N	0.352379	-0.589531	-0.589261
H56	H	0.322809	-0.634101	-0.633673
H57	H	0.434025	-0.352592	-0.353080
H58	H	0.835603	-0.352560	-0.353023
N59	N	0.591237	-0.339771	-0.340295
N60	N	0.554620	-0.284630	-0.285325
H61	H	0.584172	-0.240056	-0.240899
