data_functionalizedCrystal
_audit_creation_method	'MofGen! by Chris Wilmer'
_symmetry_space_group_name_H-M	'P1'
_symmetry_Int_Tables_number	1
_symmetry_cell_setting	triclinic
loop_
_symmetry_equiv_pos_as_xyz
  x,y,z
_cell_length_a	14.519709
_cell_length_b	14.971486
_cell_length_c	13.448316
_cell_angle_alpha	90.001801
_cell_angle_beta	89.992453
_cell_angle_gamma	96.352863
loop_
_atom_site_label
_atom_site_type_symbol
_atom_site_fract_x
_atom_site_fract_y
_atom_site_fract_z
O1	O	0.120184	-1.187015	-0.082580
O2	O	0.453517	-0.853682	0.250754
O3	O	0.786851	-0.520348	0.584087
O4	O	0.134576	-0.926623	-0.082607
O5	O	0.467909	-0.593290	0.250726
O6	O	0.801243	-0.259956	0.584060
O7	O	-0.006863	-1.063723	-0.082584
O8	O	0.326471	-0.730390	0.250750
O9	O	0.659804	-0.397056	0.584083
O10	O	0.261623	-1.049915	-0.082603
O11	O	0.594956	-0.716582	0.250730
O12	O	0.928289	-0.383248	0.584064
O13	O	-0.006871	-1.063706	0.082800
O14	O	0.326462	-0.730372	0.416133
O15	O	0.659795	-0.397039	0.749467
O16	O	0.134567	-0.926606	0.082777
O17	O	0.467901	-0.593272	0.416110
O18	O	0.801234	-0.259939	0.749443
O19	O	0.120175	-1.186998	0.082804
O20	O	0.453509	-0.853664	0.416137
O21	O	0.786842	-0.520331	0.749471
Cu22	Cu	0.127371	-1.056800	0.097891
Cu23	Cu	0.460704	-0.723467	0.431225
Cu24	Cu	0.794037	-0.390133	0.764558
Cu25	Cu	0.127381	-1.056820	-0.097694
Cu26	Cu	0.460714	-0.723487	0.235639
Cu27	Cu	0.794047	-0.390154	0.568972
O28	O	0.261614	-1.049898	0.082781
O29	O	0.594947	-0.716564	0.416114
O30	O	0.928281	-0.383231	0.749447
C31	C	0.133928	-0.893289	0.000082
C32	C	0.467261	-0.559956	0.333415
C33	C	0.800595	-0.226623	0.666748
C34	C	0.131999	-0.793991	0.000071
C35	C	0.465333	-0.460658	0.333405
C36	C	0.798666	-0.127324	0.666738
C37	C	-0.041226	-1.063071	0.000108
C38	C	0.292107	-0.729737	0.333442
C39	C	0.625440	-0.396404	0.666775
C40	C	-0.143606	-1.061142	0.000109
C41	C	0.189727	-0.727809	0.333442
C42	C	0.523060	-0.394476	0.666775
C43	C	0.120823	-1.220331	0.000113
C44	C	0.454157	-0.886998	0.333447
C45	C	0.787490	-0.553665	0.666780
C46	C	0.122752	-1.319630	0.000117
C47	C	0.456085	-0.986296	0.333450
C48	C	0.789419	-0.652963	0.666784
C49	C	-0.518498	-1.054043	0.000082
C50	C	-0.185165	-0.720710	0.333415
C51	C	0.148169	-0.387377	0.666749
C52	C	-0.414191	-1.056015	0.000090
C53	C	-0.080858	-0.722681	0.333423
C54	C	0.252475	-0.389348	0.666757
C55	C	-0.331055	-1.057593	0.000096
C56	C	0.002278	-0.724259	0.333430
C57	C	0.335611	-0.390926	0.666763
C58	C	-0.226742	-1.059564	0.000102
C59	C	0.106591	-0.726231	0.333436
C60	C	0.439925	-0.392898	0.666769
C61	C	0.295978	-1.050550	0.000087
C62	C	0.629311	-0.717217	0.333420
C63	C	0.962644	-0.383883	0.666753
C64	C	0.398358	-1.052478	0.000080
C65	C	0.731691	-0.719145	0.333413
C66	C	1.065024	-0.385812	0.666746
N67	N	0.127363	-1.056792	0.235456
N68	N	0.460696	-0.723459	0.568789
N69	N	0.794029	-0.390126	0.902122
C70	C	0.215091	-0.736812	0.000067
C71	C	0.548424	-0.403479	0.333400
C72	C	0.881757	-0.070146	0.666733
C73	C	0.213273	-0.643512	0.000082
C74	C	0.546606	-0.310179	0.333415
C75	C	0.879940	0.023155	0.666748
C76	C	0.128363	-0.607392	0.000094
C77	C	0.461696	-0.274059	0.333428
C78	C	0.795029	0.059275	0.666761
C79	C	0.045265	-0.664578	0.000102
C80	C	0.378598	-0.331244	0.333435
C81	C	0.711932	0.002089	0.666768
C82	C	0.047084	-0.757876	0.000094
C83	C	0.380417	-0.424543	0.333427
C84	C	0.713750	-0.091210	0.666761
C85	C	0.041480	-0.470113	0.000116
C86	C	0.374813	-0.136780	0.333449
C87	C	0.708147	0.196553	0.666782
C88	C	0.039661	-0.376808	0.000122
C89	C	0.372994	-0.043475	0.333455
C90	C	0.706327	0.289859	0.666788
C91	C	0.207669	-0.355749	0.000104
C92	C	0.541002	-0.022415	0.333437
C93	C	0.874336	0.310918	0.666770
C94	C	0.209488	-0.449047	0.000096
C95	C	0.542821	-0.115714	0.333429
C96	C	0.876155	0.217619	0.666762
C97	C	0.126390	-0.506227	0.000101
C98	C	0.459723	-0.172894	0.333435
C99	C	0.793056	0.160440	0.666768
N100	N	0.127381	-1.056835	-0.235258
N101	N	0.460715	-0.723502	0.098075
N102	N	0.794048	-0.390169	0.431408
C103	C	0.064759	-1.117519	0.287506
C104	C	0.398093	-0.784186	0.620840
C105	C	0.731426	-0.450852	0.954173
C106	C	0.064759	-1.117525	0.391610
C107	C	0.398092	-0.784191	0.724943
C108	C	0.731425	-0.450858	1.058276
C109	C	0.127366	-1.056807	0.443660
C110	C	0.460700	-0.723474	0.776994
C111	C	0.794033	-0.390140	1.110327
C112	C	0.189973	-0.996074	0.391602
C113	C	0.523306	-0.662740	0.724936
C114	C	0.856639	-0.329407	1.058269
C115	C	0.189968	-0.996065	0.287501
C116	C	0.523302	-0.662731	0.620834
C117	C	0.856635	-0.329398	0.954168
C118	C	0.189979	-0.996099	0.608582
C119	C	0.523312	-0.662765	0.941916
C120	C	0.856645	-0.329432	1.275249
C121	C	0.189985	-0.996109	0.712691
C122	C	0.523318	-0.662775	1.046024
C123	C	0.856651	-0.329442	1.379357
C124	C	0.064769	-1.117559	0.712691
C125	C	0.398103	-0.784225	1.046024
C126	C	0.731436	-0.450892	1.379358
C127	C	0.064765	-1.117549	0.608590
C128	C	0.398098	-0.784216	0.941923
C129	C	0.731432	-0.450883	1.275256
C130	C	0.127373	-1.056817	0.556539
C131	C	0.460706	-0.723484	0.889872
C132	C	0.794039	-0.390150	1.223206
H133	H	0.284234	-0.766213	0.000056
H134	H	0.617568	-0.432880	0.333389
H135	H	0.950901	-0.099547	0.666723
Br136	Br	0.326045	-0.565915	0.000072
Br137	Br	0.659378	-0.232581	0.333406
Br138	Br	0.992712	0.100752	0.666739
H139	H	0.240958	-0.946641	0.566206
H140	H	0.574291	-0.613307	0.899539
H141	H	0.907624	-0.279974	1.232873
Br142	Br	-0.071297	-0.547714	0.000128
Br143	Br	0.262036	-0.214380	0.333462
Br144	Br	0.595369	0.118953	0.666795
Br145	Br	0.324724	-0.498067	0.000064
Br146	Br	0.658058	-0.164734	0.333397
Br147	Br	0.991391	0.168599	0.666730
H148	H	-0.023871	-0.635162	0.000126
H149	H	0.309463	-0.301828	0.333459
H150	H	0.642796	0.031505	0.666793
Br151	Br	-0.020194	-1.199959	0.537946
Br152	Br	0.313139	-0.866626	0.871279
Br153	Br	0.646473	-0.533292	1.204613
Br154	Br	-0.065688	-0.835478	0.000109
Br155	Br	0.267646	-0.502145	0.333442
Br156	Br	0.600979	-0.168811	0.666775
Br157	Br	-0.020207	-1.199937	0.462253
Br158	Br	0.313126	-0.866604	0.795587
Br159	Br	0.646459	-0.533271	1.128920
Br160	Br	-0.020207	-1.199933	0.216877
Br161	Br	0.313127	-0.866600	0.550210
Br162	Br	0.646460	-0.533266	0.883544
Br163	Br	0.274936	-0.913662	0.462238
Br164	Br	0.608269	-0.580329	0.795572
Br165	Br	0.941603	-0.246996	1.128905
H166	H	0.013792	-1.167009	0.755077
H167	H	0.347125	-0.833675	1.088410
H168	H	0.680459	-0.500342	1.421743
H169	H	0.240965	-0.946665	0.755065
H170	H	0.574299	-0.613332	1.088399
H171	H	0.907632	-0.279999	1.421732
Br172	Br	0.320446	-0.278149	0.000094
Br173	Br	0.653779	0.055184	0.333428
Br174	Br	0.987112	0.388517	0.666761
H175	H	-0.029481	-0.347403	0.000133
H176	H	0.303853	-0.014069	0.333466
H177	H	0.637186	0.319264	0.666800
H178	H	0.240945	-0.946614	0.245122
H179	H	0.574278	-0.613280	0.578455
H180	H	0.907612	-0.279947	0.911789
