data_functionalizedCrystal
_audit_creation_method	'MofGen! by Chris Wilmer'
_symmetry_space_group_name_H-M	'P1'
_symmetry_Int_Tables_number	1
_symmetry_cell_setting	triclinic
loop_
_symmetry_equiv_pos_as_xyz
  x,y,z
_cell_length_a	12.759401
_cell_length_b	16.625546
_cell_length_c	16.625539
_cell_angle_alpha	90.030397
_cell_angle_beta	90.018781
_cell_angle_gamma	90.023993
loop_
_atom_site_label
_atom_site_type_symbol
_atom_site_fract_x
_atom_site_fract_y
_atom_site_fract_z
Zn1	Zn	1.606187	-0.320967	0.455859
Zn2	Zn	2.106187	0.179033	0.955859
Zn3	Zn	1.606061	-0.455811	0.321021
Zn4	Zn	2.106061	0.044189	0.821021
Zn5	Zn	1.430493	-0.320999	0.321044
Zn6	Zn	1.930493	0.179001	0.821044
Zn7	Zn	1.430454	-0.455765	0.455816
Zn8	Zn	1.930454	0.044235	0.955816
O9	O	1.518299	-0.388386	0.388435
O10	O	2.018299	0.111614	0.888435
O11	O	1.753192	-0.338860	0.437982
O12	O	2.253192	0.161140	0.937982
O13	O	1.582735	-0.437960	0.208192
O14	O	2.082735	0.062040	0.708192
O15	O	1.453868	-0.208163	0.338955
O16	O	1.953868	0.291837	0.838955
O17	O	1.753099	-0.437929	0.338917
O18	O	2.253099	0.062071	0.838917
O19	O	1.582950	-0.208139	0.438003
O20	O	2.082950	0.291861	0.938003
O21	O	1.453746	-0.338914	0.208208
O22	O	1.953746	0.161086	0.708208
O23	O	1.283466	-0.338871	0.338913
O24	O	1.783466	0.161129	0.838913
O25	O	1.453802	-0.437852	0.568654
O26	O	1.953802	0.062148	1.068654
O27	O	1.283438	-0.437883	0.437929
O28	O	1.783438	0.062117	0.937929
O29	O	1.582913	-0.338816	0.568686
O30	O	2.082913	0.161184	1.068686
O31	O	1.582698	-0.568637	0.338875
O32	O	2.082698	-0.068637	0.838875
O33	O	1.453680	-0.568604	0.437907
O34	O	1.953680	-0.068604	0.937907
C35	C	1.245331	-0.388376	0.388419
C36	C	1.745331	0.111624	0.888419
C37	C	1.128555	-0.388391	0.388431
C38	C	1.628555	0.111609	0.888431
C39	C	1.073706	-0.440025	0.439908
C40	C	1.573706	0.059975	0.939908
C41	C	0.963982	-0.440028	0.439924
C42	C	1.463982	0.059972	0.939924
C43	C	0.963966	-0.336761	0.336980
C44	C	1.463966	0.163239	0.836980
C45	C	1.073688	-0.336754	0.336968
C46	C	1.573688	0.163246	0.836968
C47	C	1.518199	-0.597876	0.388401
C48	C	2.018199	-0.097876	0.888401
C49	C	1.518253	-0.687498	0.388414
C50	C	2.018253	-0.187498	0.888414
C51	C	1.518436	-1.015673	0.388498
C52	C	2.018436	-0.515673	0.888498
C53	C	1.518382	-0.924365	0.388477
C54	C	2.018382	-0.424365	0.888477
C55	C	1.518344	-0.851588	0.388455
C56	C	2.018344	-0.351588	0.888455
C57	C	1.518291	-0.760274	0.388435
C58	C	2.018291	-0.260274	0.888435
C59	C	1.792332	-0.388396	0.388452
C60	C	2.292332	0.111604	0.888452
C61	C	1.909109	-0.388401	0.388459
C62	C	2.409109	0.111599	0.888459
C63	C	1.518367	-0.388326	0.598744
C64	C	2.018367	0.111674	1.098744
C65	C	1.518396	-0.388300	0.688365
C66	C	2.018396	0.111700	1.188365
C67	C	1.518427	-0.178077	0.388487
C68	C	2.018427	0.321923	0.888487
C69	C	1.518482	-0.088456	0.388509
C70	C	2.018482	0.411544	0.888509
C71	C	1.518291	-0.388387	0.178944
C72	C	2.018291	0.111613	0.678944
C73	C	1.518466	-0.388186	0.089324
C74	C	2.018466	0.111814	0.589324
C75	C	1.518445	-0.388210	1.016541
C76	C	2.018445	0.111790	1.516541
C77	C	1.518428	-0.388237	0.925233
C78	C	2.018428	0.111763	1.425233
C79	C	1.518421	-0.388255	0.852456
C80	C	2.018421	0.111745	1.352456
C81	C	1.518403	-0.388282	0.761142
C82	C	2.018403	0.111718	1.261142
H83	H	1.118347	-0.294703	0.295050
H84	H	1.618347	0.205297	0.795050
C85	C	1.133466	-0.496048	0.495699
C86	C	1.633466	0.003952	0.995699
C87	C	1.241297	-0.485009	0.484659
C88	C	1.741297	0.014991	0.984659
C89	C	1.296377	-0.536610	0.536036
C90	C	1.796377	-0.036610	1.036036
H91	H	1.115648	-0.484367	0.549930
H92	H	1.615648	0.015633	1.049930
H93	H	1.115513	-0.550227	0.483796
H94	H	1.615513	-0.050227	0.983796
H95	H	1.259243	-0.430842	0.496567
H96	H	1.759243	0.069158	0.996567
H97	H	1.259147	-0.496696	0.430439
H98	H	1.759147	0.003304	0.930439
H99	H	1.278424	-0.590789	0.524133
H100	H	1.778424	-0.090789	1.024133
H101	H	1.278551	-0.524924	0.590263
H102	H	1.778551	-0.024924	1.090263
H103	H	1.369546	-0.529132	0.528547
H104	H	1.869546	-0.029132	1.028547
C105	C	0.904620	-0.496179	0.495842
C106	C	1.404620	0.003821	0.995842
C107	C	0.976160	-0.541409	0.540892
C108	C	1.476160	-0.041409	1.040892
C109	C	0.921516	-0.593152	0.592407
C110	C	1.421516	-0.093152	1.092407
H111	H	0.861851	-0.465474	0.531109
H112	H	1.361851	0.034526	1.031109
H113	H	0.861804	-0.531315	0.464957
H114	H	1.361804	-0.031315	0.964957
H115	H	1.018958	-0.506277	0.571775
H116	H	1.518958	-0.006277	1.071775
H117	H	1.018931	-0.572130	0.505646
H118	H	1.518931	-0.072130	1.005646
H119	H	0.878699	-0.628288	0.561522
H120	H	1.378699	-0.128288	1.061522
H121	H	0.878749	-0.562440	0.627668
H122	H	1.378749	-0.062440	1.127668
H123	H	0.970046	-0.623852	0.622974
H124	H	1.470046	-0.123852	1.122974
H125	H	0.919279	-0.294721	0.295079
H126	H	1.419279	0.205279	0.795079
