data_functionalizedCrystal
_audit_creation_method	'MofGen! by Chris Wilmer'
_symmetry_space_group_name_H-M	'P1'
_symmetry_Int_Tables_number	1
_symmetry_cell_setting	triclinic
loop_
_symmetry_equiv_pos_as_xyz
  x,y,z
_cell_length_a	8.597226
_cell_length_b	16.176319
_cell_length_c	17.699083
_cell_angle_alpha	89.995661
_cell_angle_beta	84.315245
_cell_angle_gamma	82.290518
loop_
_atom_site_label
_atom_site_type_symbol
_atom_site_fract_x
_atom_site_fract_y
_atom_site_fract_z
O1	O	-2.082054	0.217078	-0.112983
O2	O	-1.625078	0.184524	-0.121644
O3	O	-1.866477	0.201714	-0.007232
O4	O	-1.840655	0.199889	-0.227396
O5	O	-1.866448	0.064219	-0.007231
O6	O	-1.625049	0.047029	-0.121644
O7	O	-2.082026	0.079583	-0.112983
Cu8	Cu	-1.853535	0.050752	-0.117313
Cu9	Cu	-1.853569	0.213356	-0.117314
O10	O	-1.840627	0.062394	-0.227395
C11	C	-1.566594	0.111611	-0.120713
C12	C	-1.392375	0.099200	-0.117929
N13	N	-1.853523	-0.063614	-0.117312
C14	C	-1.948525	-0.100104	-0.163949
C15	C	-1.948541	-0.186650	-0.163946
C16	C	-1.853547	-0.236705	-0.117310
C17	C	-1.758542	-0.200210	-0.070668
C18	C	-1.758534	-0.113665	-0.070667
C19	C	-1.758571	-0.549236	-0.070669
C20	C	-1.758582	-0.635787	-0.070675
C21	C	-1.948578	-0.622221	-0.163948
C22	C	-1.948571	-0.535676	-0.163948
C23	C	-1.853572	-0.499188	-0.117303
C24	C	-1.853557	-0.405345	-0.117305
C25	C	-1.853553	-0.330547	-0.117311
C26	C	-1.140510	0.152494	-0.113912
C27	C	-1.314731	0.164899	-0.116690
C28	C	-1.865537	0.132900	0.020973
C29	C	-1.862762	0.132702	0.105014
N30	N	-1.853593	0.327723	-0.117309
C31	C	-1.841566	0.131209	-0.255600
C32	C	-1.844342	0.131413	-0.339641
C33	C	-2.004458	0.142795	0.152460
C34	C	-2.001840	0.142616	0.231425
C35	C	-1.857525	0.132338	0.262943
C36	C	-1.715818	0.122246	0.215491
C37	C	-1.718437	0.122432	0.136528
C38	C	-1.705253	0.121500	0.533942
C39	C	-1.702644	0.121314	0.612912
C40	C	-1.988656	0.141685	0.628839
C41	C	-1.991275	0.141870	0.549876
C42	C	-1.849569	0.131783	0.502431
C43	C	-1.852408	0.131979	0.416808
C44	C	-1.854684	0.132136	0.348564
H45	H	-2.025871	-0.059355	-0.201930
Cl46	Cl	-1.639122	-0.263137	-0.012038
Cl47	Cl	-1.289227	-0.002298	-0.116289
H48	H	-2.025934	-0.651940	-0.201927
H49	H	-1.381548	0.230641	-0.117761
Cl50	Cl	-2.067976	-0.472755	-0.222588
Cl51	Cl	-2.067974	-0.232519	-0.222580
Cl52	Cl	-1.639153	-0.698713	-0.012041
H53	H	-1.681174	-0.083957	-0.032691
H54	H	-1.681218	-0.519538	-0.032688
H55	H	-2.117224	0.150833	0.270052
Cl56	Cl	-2.185893	0.155709	0.112845
H57	H	-2.108791	0.150235	0.524218
Cl58	Cl	-2.166804	0.154369	0.688489
H59	H	-1.585119	0.112942	0.638570
Cl60	Cl	-1.527107	0.108822	0.474308
H61	H	-1.598314	0.113883	0.241160
Cl62	Cl	-1.540297	0.109746	0.076882
