data_functionalizedCrystal
_audit_creation_method	'MofGen! by Chris Wilmer'
_symmetry_space_group_name_H-M	'P1'
_symmetry_Int_Tables_number	1
_symmetry_cell_setting	triclinic
loop_
_symmetry_equiv_pos_as_xyz
  x,y,z
_cell_length_a	10.540491
_cell_length_b	10.540535
_cell_length_c	13.930277
_cell_angle_alpha	89.994124
_cell_angle_beta	90.006779
_cell_angle_gamma	95.485345
loop_
_atom_site_label
_atom_site_type_symbol
_atom_site_fract_x
_atom_site_fract_y
_atom_site_fract_z
O1	O	-1.685925	0.178607	-0.079825
O2	O	-1.316504	0.195527	-0.079829
O3	O	-1.509646	0.002359	-0.079817
O4	O	-1.492784	0.371775	-0.079837
O5	O	-1.509619	0.002354	0.079845
O6	O	-1.316477	0.195523	0.079833
O7	O	-1.685898	0.178603	0.079837
Zn8	Zn	-1.501183	0.187062	0.105184
Zn9	Zn	-1.501219	0.187068	-0.105177
O10	O	-1.492756	0.371771	0.079825
C11	C	-1.269187	0.194269	0.000001
C12	C	-1.128236	0.190512	-0.000000
C13	C	-0.910776	0.324711	-0.000376
C14	C	-1.057373	0.328719	-0.000009
C15	C	-1.083461	0.119766	0.091176
C16	C	-0.936699	0.116736	0.091245
C17	C	-0.936924	0.113863	-0.090320
C18	C	-1.083266	0.120409	-0.091518
C19	C	-1.508369	-0.044946	0.000014
C20	C	-1.504589	-0.185894	0.000015
C21	C	-1.363572	-0.222540	0.000007
C22	C	-1.359595	-0.369140	-0.000373
C23	C	-1.568977	-0.395228	-0.091003
C24	C	-1.571977	-0.248463	-0.091062
C25	C	-1.573998	-0.248606	0.090509
C26	C	-1.567476	-0.394952	0.091688
C27	C	-0.733214	0.179877	0.000002
C28	C	-0.874158	0.183685	-0.000010
C29	C	-1.494033	0.419076	-0.000009
C30	C	-1.497813	0.560024	-0.000016
N31	N	-1.501168	0.187057	0.248751
N32	N	-1.501244	0.187062	-0.248743
C33	C	-1.415692	0.272569	0.701015
C34	C	-1.586781	0.101557	0.700995
C35	C	-1.586766	0.101553	0.600499
C36	C	-1.501214	0.187059	0.550256
C37	C	-1.415677	0.272570	0.600510
C38	C	-1.672309	0.016053	0.550238
C39	C	-1.672299	0.016046	0.449736
C40	C	-1.586740	0.101547	0.399492
C41	C	-1.501198	0.187060	0.449751
C42	C	-1.415647	0.272567	0.399509
C43	C	-1.330098	0.358075	0.449766
C44	C	-1.330118	0.358071	0.550265
C45	C	-1.586720	0.101551	0.298993
C46	C	-1.415631	0.272568	0.299004
H47	H	-0.913705	0.013371	0.095392
H48	H	-1.741955	-0.053580	0.408823
Cl49	Cl	-1.779864	-0.091429	0.613397
H50	H	-1.114303	0.168894	0.159024
Cl51	Cl	-1.734182	-0.214379	0.091877
H52	H	-1.260469	0.427690	0.591191
Cl53	Cl	-0.871268	0.181175	-0.197017
Cl54	Cl	-0.843586	0.407369	0.099993
H55	H	-1.523940	-0.208273	-0.159339
Cl56	Cl	-0.902730	-0.046336	-0.091262
H57	H	-1.529983	-0.206150	0.159503
Cl58	Cl	-1.156614	-0.037327	0.096420
Cl59	Cl	-1.487524	-0.439113	0.195619
Cl60	Cl	-1.279937	-0.157736	0.100733
Cl61	Cl	-1.308146	0.380055	0.764190
H62	H	-1.111895	0.171883	-0.158970
H63	H	-1.085765	0.384397	0.065454
Cl64	Cl	-1.281378	-0.155422	-0.100586
H65	H	-1.675355	-0.225449	-0.094936
H66	H	-1.656378	0.031937	0.258078
Cl67	Cl	-1.159015	-0.035384	-0.100008
H68	H	-1.303929	-0.398476	0.064832
Cl69	Cl	-1.274134	-0.413049	-0.101680
Cl70	Cl	-0.874582	0.191390	0.196460
Cl71	Cl	-1.222560	0.465573	0.386594
H72	H	-1.345960	0.342193	0.258102
H73	H	-1.656441	0.031946	0.741905
H74	H	-1.086729	0.384065	-0.065370
H75	H	-0.868833	0.378557	-0.065764
H76	H	-1.670745	-0.442601	-0.094131
H77	H	-1.520174	-0.426109	-0.158982
H78	H	-1.668357	-0.444005	0.097458
