data_functionalizedCrystal
_audit_creation_method	'MofGen! by Chris Wilmer'
_symmetry_space_group_name_H-M	'P1'
_symmetry_Int_Tables_number	1
_symmetry_cell_setting	triclinic
loop_
_symmetry_equiv_pos_as_xyz
  x,y,z
_cell_length_a	17.699077
_cell_length_b	17.699092
_cell_length_c	14.048226
_cell_angle_alpha	89.995250
_cell_angle_beta	89.994095
_cell_angle_gamma	83.283472
loop_
_atom_site_label
_atom_site_type_symbol
_atom_site_fract_x
_atom_site_fract_y
_atom_site_fract_z
O1	O	1.004083	0.095691	-0.079144
O2	O	1.504083	0.595691	0.420856
O3	O	0.783705	0.108148	-0.079149
O4	O	1.283705	0.608148	0.420851
O5	O	0.900117	-0.008269	-0.079144
O6	O	1.400117	0.491731	0.420856
O7	O	0.887671	0.212108	-0.079149
O8	O	1.387671	0.712108	0.420851
O9	O	0.900103	-0.008276	0.079177
O10	O	1.400103	0.491724	0.579177
O11	O	0.783691	0.108141	0.079173
O12	O	1.283691	0.608141	0.579173
O13	O	1.004069	0.095684	0.079177
O14	O	1.504069	0.595684	0.579177
Zn15	Zn	0.893878	0.101912	0.104312
Zn16	Zn	1.393878	0.601912	0.604312
Zn17	Zn	0.893896	0.101921	-0.104283
Zn18	Zn	1.393896	0.601921	0.395717
O19	O	0.887657	0.212102	0.079173
O20	O	1.387657	0.712102	0.579173
C21	C	0.755501	0.107699	0.000011
C22	C	1.255501	0.607699	0.500011
C23	C	0.671482	0.106362	0.000010
C24	C	1.171482	0.606362	0.500010
C25	C	0.632007	0.105729	0.086312
C26	C	1.132007	0.605729	0.586312
C27	C	0.553065	0.104461	0.086313
C28	C	1.053065	0.604461	0.586313
C29	C	0.513598	0.103831	0.000011
C30	C	1.013598	0.603831	0.500011
C31	C	0.553079	0.104463	-0.086298
C32	C	1.053079	0.604463	0.413702
C33	C	0.632021	0.105726	-0.086298
C34	C	1.132021	0.605726	0.413702
C35	C	0.234715	0.099369	-0.086300
C36	C	0.734715	0.599369	0.413700
C37	C	0.155768	0.098109	-0.086293
C38	C	0.655768	0.598109	0.413707
C39	C	0.155759	0.098104	0.086311
C40	C	0.655759	0.598104	0.586311
C41	C	0.234701	0.099367	0.086311
C42	C	0.734701	0.599367	0.586311
C43	C	0.274176	0.099994	0.000003
C44	C	0.774176	0.599994	0.500003
C45	C	0.359774	0.101368	0.000003
C46	C	0.859774	0.601368	0.500003
C47	C	0.428000	0.102463	0.000010
C48	C	0.928000	0.602463	0.500010
C49	C	0.899663	-0.036470	0.000015
C50	C	1.399663	0.463530	0.500015
C51	C	0.898322	-0.120487	0.000011
C52	C	1.398322	0.379513	0.500011
C53	C	0.897701	-0.159951	-0.086291
C54	C	1.397701	0.340049	0.413709
C55	C	0.896436	-0.238894	-0.086293
C56	C	1.396436	0.261106	0.413707
C57	C	0.895798	-0.278373	0.000009
C58	C	1.395798	0.221627	0.500009
C59	C	0.896416	-0.238903	0.086318
C60	C	1.396416	0.261097	0.586318
C61	C	0.897676	-0.159961	0.086318
C62	C	1.397676	0.340039	0.586318
C63	C	0.891336	-0.557268	0.086319
C64	C	1.391336	-0.057268	0.586319
C65	C	0.890078	-0.636216	0.086312
C66	C	1.390078	-0.136216	0.586312
C67	C	0.890097	-0.636201	-0.086292
C68	C	1.390097	-0.136201	0.413708
C69	C	0.891356	-0.557259	-0.086291
C70	C	1.391356	-0.057259	0.413709
C71	C	0.891970	-0.517796	0.000017
C72	C	1.391970	-0.017796	0.500017
C73	C	0.893341	-0.432197	0.000017
C74	C	1.393341	0.067803	0.500017
C75	C	0.894433	-0.363971	0.000010
C76	C	1.394433	0.136029	0.500010
C77	C	1.032274	0.096133	0.000015
C78	C	1.532274	0.596133	0.500015
C79	C	1.116292	0.097470	0.000010
C80	C	1.616292	0.597470	0.500010
C81	C	0.888111	0.240302	0.000011
C82	C	1.388111	0.740302	0.500011
C83	C	0.889452	0.324320	0.000009
C84	C	1.389452	0.824320	0.500009
N85	N	0.893871	0.101905	0.246672
N86	N	1.393871	0.601905	0.746672
N87	N	0.893909	0.101921	-0.246644
N88	N	1.393909	0.601921	0.253356
C89	C	0.945434	0.050377	0.296492
C90	C	1.445434	0.550377	0.796492
C91	C	0.945440	0.050376	0.396150
C92	C	1.445440	0.550376	0.896150
C93	C	0.893884	0.101908	0.445986
C94	C	1.393884	0.601908	0.945986
C95	C	0.842315	0.153439	0.396159
C96	C	1.342315	0.653439	0.896159
C97	C	0.842307	0.153435	0.296503
C98	C	1.342307	0.653435	0.796503
C99	C	0.842337	0.153445	0.603873
C100	C	1.342337	0.653445	1.103873
C101	C	0.842346	0.153450	0.703536
C102	C	1.342346	0.653450	1.203536
C103	C	0.945469	0.050385	0.703520
C104	C	1.445469	0.550385	1.203520
C105	C	0.945461	0.050382	0.603864
C106	C	1.445461	0.550382	1.103864
C107	C	0.893893	0.101914	0.554044
C108	C	1.393893	0.601914	1.054044
H109	H	0.123636	0.097596	-0.156575
H110	H	0.623636	0.597596	0.343425
H111	H	0.898226	-0.127814	-0.156569
H112	H	1.398226	0.372186	0.343431
H113	H	0.895891	-0.271052	0.156586
H114	H	1.395891	0.228948	0.656586
H115	H	0.987445	0.008424	0.563288
H116	H	1.487445	0.508424	1.063288
C117	C	1.002188	-0.006305	0.758318
C118	C	1.502188	0.493695	1.258318
H119	H	0.994803	0.001069	0.824806
H120	H	1.494803	0.501069	1.324806
H121	H	1.052682	0.001850	0.741975
H122	H	1.552682	0.501850	1.241975
H123	H	0.994056	-0.056810	0.741991
H124	H	1.494056	0.443190	1.241991
H125	H	0.800318	0.195394	0.255941
H126	H	1.300318	0.695394	0.755941
C127	C	0.785581	0.210103	0.450971
C128	C	1.285581	0.710103	0.950971
H129	H	0.754860	0.240779	0.407024
H130	H	1.254860	0.740779	0.907024
H131	H	0.812727	0.241586	0.489849
H132	H	1.312727	0.741586	0.989849
H133	H	0.754138	0.182890	0.489844
H134	H	1.254138	0.682890	0.989844
C135	C	0.675416	0.106407	0.181245
C136	C	1.175416	0.606407	0.681245
H137	H	0.640598	0.105837	0.232643
H138	H	1.140598	0.605837	0.732643
H139	H	0.700362	0.151014	0.184846
H140	H	1.200362	0.651014	0.684846
H141	H	0.712060	0.062770	0.184822
H142	H	1.212060	0.562770	0.684822
H143	H	0.800363	0.195412	0.744107
H144	H	1.300363	0.695412	1.244107
H145	H	0.520939	0.103945	-0.156566
H146	H	1.020939	0.603945	0.343434
H147	H	0.987420	0.008416	0.255923
H148	H	1.487420	0.508416	0.755923
C149	C	0.509645	0.103770	0.181245
C150	C	1.009645	0.603770	0.681245
H151	H	0.544454	0.104336	0.232642
H152	H	1.044454	0.604336	0.732642
H153	H	0.484704	0.059158	0.184842
H154	H	0.984704	0.559158	0.684842
H155	H	0.472994	0.147402	0.184826
H156	H	0.972994	0.647402	0.684826
C157	C	0.889367	-0.679644	0.181246
C158	C	1.389367	-0.179644	0.681246
H159	H	0.888537	-0.732311	0.168881
H160	H	1.388537	-0.232311	0.668881
H161	H	0.845448	-0.660858	0.216701
H162	H	1.345448	-0.160858	0.716701
H163	H	0.933692	-0.672563	0.216715
H164	H	1.433692	-0.172563	0.716715
C165	C	0.892025	-0.513870	0.181254
C166	C	1.392025	-0.013870	0.681254
H167	H	0.891474	-0.548692	0.232649
H168	H	1.391474	-0.048692	0.732649
H169	H	0.848398	-0.477220	0.184851
H170	H	1.348398	0.022780	0.684851
H171	H	0.936642	-0.488931	0.184839
H172	H	1.436642	0.011069	0.684839
H173	H	0.664160	0.106243	-0.156574
H174	H	1.164160	0.606243	0.343426
C175	C	0.278126	0.100068	-0.181234
C176	C	0.778126	0.600068	0.318766
H177	H	0.243312	0.099522	-0.232629
H178	H	0.743312	0.599522	0.267371
H179	H	0.314776	0.056442	-0.184827
H180	H	0.814776	0.556442	0.315173
H181	H	0.303065	0.144686	-0.184823
H182	H	0.803065	0.644686	0.315177
C183	C	0.898360	-0.116551	0.181250
C184	C	1.398360	0.383449	0.681250
H185	H	0.897806	-0.151369	0.232649
H186	H	1.397806	0.348631	0.732649
H187	H	0.854732	-0.079903	0.184836
H188	H	1.354732	0.420097	0.684836
H189	H	0.942976	-0.091610	0.184839
H190	H	1.442976	0.408390	0.684839
H191	H	0.891880	-0.525120	-0.156567
H192	H	1.391880	-0.025120	0.343433
H193	H	0.266831	0.099883	0.156587
H194	H	0.766831	0.599883	0.656587
H195	H	0.800342	0.195405	0.563313
H196	H	1.300342	0.695405	1.063313
H197	H	0.987426	0.008417	0.436713
H198	H	1.487426	0.508417	0.936713
H199	H	0.123610	0.097590	0.156587
H200	H	0.623610	0.597590	0.656587
H201	H	0.895934	-0.271022	-0.156568
H202	H	1.395934	0.228978	0.343432
C203	C	0.889410	-0.679611	-0.181230
C204	C	1.389410	-0.179611	0.318770
H205	H	0.888559	-0.732279	-0.168875
H206	H	1.388559	-0.232279	0.331125
H207	H	0.933739	-0.672526	-0.216689
H208	H	1.433739	-0.172526	0.283311
H209	H	0.845496	-0.660814	-0.216690
H210	H	1.345496	-0.160814	0.283310
