data_functionalizedCrystal
_audit_creation_method	'MofGen! by Chris Wilmer'
_symmetry_space_group_name_H-M	'P1'
_symmetry_Int_Tables_number	1
_symmetry_cell_setting	triclinic
loop_
_symmetry_equiv_pos_as_xyz
  x,y,z
_cell_length_a	6.817900
_cell_length_b	10.943632
_cell_length_c	19.453114
_cell_angle_alpha	94.440217
_cell_angle_beta	101.709288
_cell_angle_gamma	108.838880
loop_
_atom_site_label
_atom_site_type_symbol
_atom_site_fract_x
_atom_site_fract_y
_atom_site_fract_z
V1	V	-4.034382	-0.179974	-0.218982
O2	O	-3.993629	0.007265	-0.214831
O3	O	-4.012894	-0.355528	-0.217468
O4	O	-3.976966	-0.177813	-0.314495
O5	O	-4.029805	-0.171680	-0.117132
V6	V	-4.515692	-0.157506	-0.206802
O7	O	-4.300497	-0.229259	-0.245700
O8	O	-4.699774	-0.108222	-0.180084
O9	O	-4.313974	0.018048	-0.208316
O10	O	-4.673842	-0.344746	-0.210953
O11	O	-4.637666	-0.165800	-0.308652
O12	O	-4.349901	-0.159668	-0.111289
C13	C	-3.864733	-0.398305	-0.214009
C14	C	-3.928390	-0.541827	-0.213407
C15	C	-3.774718	-0.618955	-0.209407
C16	C	-3.874556	-0.691253	-0.152706
C17	C	-3.942002	-0.725260	-0.269044
C18	C	-4.027362	-0.612221	-0.156666
C19	C	-4.094807	-0.646234	-0.273056
C20	C	-4.194760	-0.718495	-0.216343
C21	C	-3.818903	-0.171610	-0.337776
C22	C	-3.853420	-0.171004	-0.415859
C23	C	-4.052412	-0.177200	-0.456115
C24	C	-4.084845	-0.176631	-0.529482
C25	C	-3.918288	-0.169892	-0.562592
C26	C	-3.719264	-0.163688	-0.522325
C27	C	-3.686831	-0.164244	-0.448959
N28	N	-3.868996	-0.238075	-0.681374
N29	N	-3.899821	-0.237550	-0.751070
C30	C	-4.015997	-0.168214	-0.783640
N31	N	-4.100222	-0.099441	-0.743884
N32	N	-4.069403	-0.099972	-0.674182
C33	C	-3.953436	-0.169288	-0.642145
C34	C	-4.250168	-0.173792	-0.903449
C35	C	-4.282591	-0.173215	-0.976817
C36	C	-3.917010	-0.160285	-0.969659
C37	C	-3.884587	-0.160849	-0.896292
C38	C	-4.051177	-0.167609	-0.863192
C39	C	-4.125478	0.060818	-0.211773
C40	C	-4.041059	0.204338	-0.212379
C41	C	-4.171308	-0.165875	-0.088004
C42	C	-4.116028	-0.166474	-0.009921
H43	H	-3.782100	-0.711699	-0.101816
O44	O	-4.074299	-0.547252	-0.093685
H45	H	-4.026219	-0.440451	-0.094598
H46	H	-3.781389	-0.154786	-0.996615
O47	O	-4.497222	-0.179873	-1.020236
H48	H	-4.621559	-0.271537	-1.015369
O49	O	-4.430775	-0.775797	-0.220206
H50	H	-4.466186	-0.729918	-0.173517
H51	H	-3.596516	-0.575452	-0.206408
H52	H	-3.583652	-0.158197	-0.549287
O53	O	-3.669967	-0.154189	-0.852867
H54	H	-3.559599	-0.149419	-0.888214
O55	O	-4.217158	-0.619083	-0.340461
H56	H	-4.180742	-0.664649	-0.387022
O57	O	-3.895008	-0.790422	-0.331949
H58	H	-3.721213	-0.750298	-0.328925
O59	O	-4.232077	-0.184456	-0.420417
H60	H	-4.368873	-0.275892	-0.443704
O61	O	-4.299484	-0.183316	-0.572916
H62	H	-4.423805	-0.274985	-0.568046
O63	O	-3.472201	-0.157576	-0.405533
H64	H	-3.361827	-0.152801	-0.440879
H65	H	-4.385813	-0.179292	-0.876498
