data_functionalizedCrystal
_audit_creation_method	'MofGen! by Chris Wilmer'
_symmetry_space_group_name_H-M	'P1'
_symmetry_Int_Tables_number	1
_symmetry_cell_setting	triclinic
loop_
_symmetry_equiv_pos_as_xyz
  x,y,z
_cell_length_a	11.169416
_cell_length_b	13.033293
_cell_length_c	11.169409
_cell_angle_alpha	82.788591
_cell_angle_beta	89.969126
_cell_angle_gamma	97.180672
loop_
_atom_site_label
_atom_site_type_symbol
_atom_site_fract_x
_atom_site_fract_y
_atom_site_fract_z
Zn1	Zn	-0.244860	1.597832	-0.912094
Zn2	Zn	0.088474	1.931165	-0.578760
Zn3	Zn	0.421807	2.264499	-0.245427
Zn4	Zn	-0.445614	1.597736	-0.711402
Zn5	Zn	-0.112281	1.931069	-0.378068
Zn6	Zn	0.221053	2.264402	-0.044735
Zn7	Zn	-0.270400	1.423056	-0.685883
Zn8	Zn	0.062934	1.756389	-0.352550
Zn9	Zn	0.396267	2.089723	-0.019216
Zn10	Zn	-0.470968	1.423063	-0.886516
Zn11	Zn	-0.137635	1.756396	-0.553183
Zn12	Zn	0.195698	2.089729	-0.219850
O13	O	-0.357960	1.510422	-0.798974
O14	O	-0.024627	1.843755	-0.465640
O15	O	0.308706	2.177088	-0.132307
O16	O	-0.250191	1.744065	-0.906855
O17	O	0.083143	2.077398	-0.573522
O18	O	0.416476	2.410732	-0.240189
O19	O	-0.422449	1.574521	-0.540060
O20	O	-0.089116	1.907854	-0.206727
O21	O	0.244217	2.241188	0.126606
O22	O	-0.099056	1.446278	-0.715915
O23	O	0.234277	1.779611	-0.382581
O24	O	0.567610	2.112945	-0.049248
O25	O	-0.397684	1.743994	-0.759408
O26	O	-0.064351	2.077328	-0.426075
O27	O	0.268983	2.410661	-0.092741
O28	O	-0.080292	1.574685	-0.882111
O29	O	0.253041	1.908019	-0.548778
O30	O	0.586374	2.241352	-0.215444
O31	O	-0.293720	1.446185	-0.521312
O32	O	0.039613	1.779518	-0.187979
O33	O	0.372947	2.112851	0.145355
O34	O	-0.318305	1.276811	-0.691113
O35	O	0.015029	1.610145	-0.357780
O36	O	0.348362	1.943478	-0.024447
O37	O	-0.440897	1.446289	-1.057865
O38	O	-0.107563	1.779622	-0.724532
O39	O	0.225770	2.112956	-0.391199
O40	O	-0.465662	1.276816	-0.838518
O41	O	-0.132328	1.610149	-0.505185
O42	O	0.201005	1.943483	-0.171851
O43	O	-0.274776	1.574692	-1.076657
O44	O	0.058558	1.908025	-0.743324
O45	O	0.391891	2.241358	-0.409990
O46	O	-0.616933	1.574527	-0.734607
O47	O	-0.283599	1.907861	-0.401273
O48	O	0.049734	2.241194	-0.067940
O49	O	-0.635560	1.446196	-0.863263
O50	O	-0.302227	1.779529	-0.529929
O51	O	0.031107	2.112862	-0.196596
C52	C	-0.397507	1.238894	-0.759272
C53	C	-0.064174	1.572227	-0.425938
C54	C	0.269160	1.905560	-0.092605
C55	C	-0.414454	1.122733	-0.742316
C56	C	-0.081121	1.456066	-0.408982
C57	C	0.252213	1.789400	-0.075649
C58	C	-0.349146	1.070980	-0.807823
C59	C	-0.015812	1.404313	-0.474490
C60	C	0.317521	1.737646	-0.141156
C61	C	-0.366660	0.950921	-0.790300
C62	C	-0.033326	1.284255	-0.456966
C63	C	0.300007	1.617588	-0.123633
C64	C	-0.669791	1.510380	-0.798958
C65	C	-0.336458	1.843714	-0.465625
C66	C	-0.003124	2.177047	-0.132292
C67	C	-0.803180	1.510458	-0.799006
C68	C	-0.469846	1.843791	-0.465673
C69	C	-0.136513	2.177125	-0.132339
C70	C	-0.044908	1.510492	-0.799019
C71	C	0.288426	1.843825	-0.465686
C72	C	0.621759	2.177158	-0.132353
C73	C	0.088497	1.510522	-0.799039
C74	C	0.421830	1.843855	-0.465705
C75	C	0.755163	2.177188	-0.132372
C76	C	-0.357815	1.510502	-1.112028
C77	C	-0.024482	1.843835	-0.778695
C78	C	0.308851	2.177169	-0.445361
C79	C	-0.357754	1.510536	-1.245433
C80	C	-0.024420	1.843869	-0.912100
C81	C	0.308913	2.177203	-0.578766
C82	C	-0.318260	1.783010	-0.838831
C83	C	0.015073	2.116343	-0.505498
C84	C	0.348406	2.449676	-0.172165
C85	C	-0.301342	1.899171	-0.855816
C86	C	0.031991	2.232504	-0.522483
C87	C	0.365324	2.565837	-0.189150
C88	C	-0.358009	1.510402	-0.487146
C89	C	-0.024676	1.843735	-0.153813
C90	C	0.308657	2.177068	0.179521
C91	C	-0.357704	1.510570	-0.353771
C92	C	-0.024370	1.843903	-0.020438
C93	C	0.308963	2.177237	0.312895
H94	H	-0.483330	1.078158	-0.673257
H95	H	-0.149997	1.411491	-0.339923
H96	H	0.183336	1.744825	-0.006590
O97	O	-0.210096	0.958193	-0.947303
O98	O	0.123237	1.291526	-0.613970
O99	O	0.456570	1.624860	-0.280636
H100	H	-0.210663	1.043229	-0.946720
H101	H	0.122671	1.376562	-0.613386
H102	H	0.456004	1.709896	-0.280053
O103	O	-0.257896	1.130013	-0.899292
O104	O	0.075438	1.463346	-0.565958
O105	O	0.408771	1.796679	-0.232625
H106	H	-0.281595	1.109162	-0.990432
H107	H	0.051738	1.442495	-0.657099
H108	H	0.385072	1.775828	-0.323766
H109	H	-0.435541	0.906351	-0.721236
H110	H	-0.102208	1.239684	-0.387903
H111	H	0.231126	1.573017	-0.054569
