data_functionalizedCrystal
_audit_creation_method	'MofGen! by Chris Wilmer'
_symmetry_space_group_name_H-M	'P1'
_symmetry_Int_Tables_number	1
_symmetry_cell_setting	triclinic
loop_
_symmetry_equiv_pos_as_xyz
  x,y,z
_cell_length_a	14.519709
_cell_length_b	18.266242
_cell_length_c	14.519709
_cell_angle_alpha	89.992715
_cell_angle_beta	96.319855
_cell_angle_gamma	90.003418
loop_
_atom_site_label
_atom_site_type_symbol
_atom_site_fract_x
_atom_site_fract_y
_atom_site_fract_z
O1	O	1.223873	0.060787	-0.120893
O2	O	0.955396	0.060810	-0.135129
O3	O	1.096753	0.060791	0.006228
O4	O	1.082517	0.060806	-0.262249
O5	O	1.096729	-0.060971	0.006235
O6	O	0.955372	-0.060952	-0.135122
O7	O	1.223849	-0.060975	-0.120885
Zn8	Zn	1.089607	-0.080296	-0.128002
Zn9	Zn	1.089639	0.080131	-0.128012
O10	O	1.082493	-0.060956	-0.262242
C11	C	0.921025	-0.000068	-0.134462
C12	C	0.818643	-0.000060	-0.132474
N13	N	1.089592	-0.189783	-0.127995
C14	C	0.443748	-0.000094	-0.125154
C15	C	0.548056	-0.000084	-0.127187
C16	C	0.631192	-0.000076	-0.128814
C17	C	0.735507	-0.000068	-0.130847
C18	C	1.152206	-0.228100	-0.065433
C19	C	1.152211	-0.304745	-0.065429
C20	C	1.089613	-0.343070	-0.128003
C21	C	1.026988	-0.304743	-0.190569
C22	C	1.026977	-0.228100	-0.190566
N23	N	1.078009	-0.463397	-0.209587
N24	N	1.078024	-0.536205	-0.209587
C25	C	1.089639	-0.573992	-0.128016
N26	N	1.101255	-0.536220	-0.046442
N27	N	1.101245	-0.463406	-0.046442
C28	C	1.089617	-0.426177	-0.128013
C29	C	1.152262	-0.695416	-0.065444
C30	C	1.152261	-0.772063	-0.065439
C31	C	1.027042	-0.772060	-0.190587
C32	C	1.027038	-0.695415	-0.190585
C33	C	1.089653	-0.657098	-0.128014
C34	C	1.258221	-0.000095	-0.121553
C35	C	1.360602	-0.000099	-0.123541
C36	C	1.096078	-0.000090	0.040591
C37	C	1.094090	-0.000090	0.142972
N38	N	1.089661	0.189618	-0.128012
C39	C	1.083168	-0.000074	-0.296605
C40	C	1.085156	-0.000069	-0.398987
C41	C	1.086770	-0.000070	0.517868
C42	C	1.088803	-0.000076	0.413560
C43	C	1.090430	-0.000081	0.330423
C44	C	1.092463	-0.000085	0.226109
H45	H	1.203200	-0.335948	-0.014482
H46	H	0.976017	-0.335951	-0.241516
O47	O	0.966283	-0.190795	-0.251386
C48	C	1.015760	-0.146466	-0.308408
H49	H	1.087862	-0.134982	-0.271836
H50	H	1.022138	-0.175998	-0.376581
C51	C	0.875239	-0.087771	-0.372923
C52	C	0.963792	-0.073660	-0.328002
H53	H	0.843181	-0.042862	-0.385014
H54	H	0.841904	-0.117638	-0.334510
H55	H	0.880566	-0.112382	-0.429729
H56	H	0.958464	-0.049058	-0.271192
H57	H	0.997125	-0.043787	-0.366407
O58	O	1.213110	-0.658303	-0.004571
C59	C	1.268386	-0.708563	0.050642
H60	H	1.230581	-0.763201	0.051768
H61	H	1.336942	-0.716704	0.020546
C62	C	1.333663	-0.611551	0.148708
C63	C	1.287226	-0.678657	0.150096
H64	H	1.345289	-0.593104	0.210054
H65	H	1.296425	-0.577690	0.111508
H66	H	1.390787	-0.618345	0.123623
H67	H	1.230098	-0.671861	0.175169
H68	H	1.324455	-0.712517	0.187303
H69	H	0.976056	-0.664215	-0.241532
H70	H	1.203246	-0.803261	-0.014488
O71	O	0.966319	-0.809393	-0.251335
C72	C	0.979734	-0.885258	-0.237906
H73	H	1.052998	-0.895722	-0.203604
H74	H	0.927467	-0.907018	-0.191531
C75	C	0.876039	-0.911745	-0.374347
C76	C	0.966026	-0.924599	-0.332224
H77	H	0.867579	-0.936014	-0.432525
H78	H	0.866998	-0.860634	-0.383393
H79	H	0.832494	-0.929879	-0.335692
H80	H	1.009568	-0.906457	-0.370873
H81	H	0.975073	-0.975708	-0.323186
H82	H	1.203188	-0.196904	-0.014483
