data_functionalizedCrystal
_audit_creation_method	'MofGen! by Chris Wilmer'
_symmetry_space_group_name_H-M	'P1'
_symmetry_Int_Tables_number	1
_symmetry_cell_setting	triclinic
loop_
_symmetry_equiv_pos_as_xyz
  x,y,z
_cell_length_a	23.532407
_cell_length_b	23.532355
_cell_length_c	9.798715
_cell_angle_alpha	90.002144
_cell_angle_beta	89.995600
_cell_angle_gamma	97.161913
loop_
_atom_site_label
_atom_site_type_symbol
_atom_site_fract_x
_atom_site_fract_y
_atom_site_fract_z
O1	O	-0.068993	0.755278	-0.113284
O2	O	-0.079027	0.589411	-0.113324
O3	O	0.008923	0.677346	-0.113320
O4	O	-0.156943	0.667343	-0.113288
O5	O	0.008923	0.677340	0.113662
O6	O	-0.079027	0.589404	0.113658
O7	O	-0.068993	0.755272	0.113698
Zn8	Zn	-0.074010	0.672337	0.149716
Zn9	Zn	-0.074010	0.672345	-0.149342
O10	O	-0.156942	0.667336	0.113694
C11	C	-0.078776	0.568191	0.000161
C12	C	-0.078022	0.504972	0.000145
C13	C	-0.073284	0.112955	0.123929
C14	C	-0.072566	0.053555	0.123934
O15	O	-0.072176	0.022834	0.229159
N16	N	-0.072211	0.023850	0.000207
C17	C	-0.072567	0.053549	-0.123534
O18	O	-0.072198	0.022828	-0.228774
C19	C	-0.073280	0.112948	-0.123538
C20	C	-0.073641	0.142649	0.000198
C21	C	-0.073645	0.142656	0.247655
C22	C	-0.074363	0.202051	0.247649
C23	C	-0.074721	0.231745	0.123918
C24	C	-0.074360	0.202044	0.000192
C25	C	-0.073632	0.142645	-0.247277
C26	C	-0.074345	0.202048	-0.247270
C27	C	-0.074706	0.231750	-0.123535
C28	C	-0.075436	0.291133	-0.123545
N29	N	-0.075792	0.320838	0.000183
C30	C	-0.075434	0.291144	0.123914
C31	C	-0.071068	-0.071193	-0.123517
C32	C	-0.070358	-0.130591	-0.123515
C33	C	-0.070357	-0.130580	0.123954
C34	C	-0.071070	-0.071181	0.123950
C35	C	-0.071423	-0.041488	0.000211
C36	C	-0.076943	0.415878	0.123893
C37	C	-0.077664	0.475278	0.123876
C38	C	-0.077663	0.475263	-0.123592
C39	C	-0.076945	0.415867	-0.123576
C40	C	-0.076583	0.386177	0.000177
O41	O	-0.075825	0.321893	-0.228716
O42	O	-0.075796	0.321873	0.229136
C43	C	-0.178158	0.667594	0.000207
C44	C	-0.241375	0.668360	0.000221
C45	C	-0.640487	0.621125	0.000139
C46	C	-0.699887	0.621837	0.000130
O47	O	-0.736640	0.578050	0.000069
N48	N	-0.722504	0.674114	0.000144
C49	C	-0.685717	0.725684	0.000154
O50	O	-0.710408	0.770216	0.000164
C51	C	-0.626318	0.724972	0.000154
C52	C	-0.603705	0.672691	0.000153
C53	C	-0.617874	0.568849	0.000137
C54	C	-0.558478	0.568137	0.000149
C55	C	-0.521695	0.619703	0.000163
C56	C	-0.544309	0.671980	0.000165
C57	C	-0.589532	0.776541	0.000154
C58	C	-0.530129	0.775824	0.000153
C59	C	-0.507516	0.723543	0.000152
C60	C	-0.448130	0.722834	0.000191
N61	N	-0.425514	0.670556	0.000177
C62	C	-0.462296	0.618991	0.000163
C63	C	-0.810459	0.727175	0.000153
C64	C	-0.869857	0.727888	0.000163
C65	C	-0.884023	0.624041	0.000136
C66	C	-0.824624	0.623329	0.000136
C67	C	-0.787842	0.674898	0.000138
C68	C	-0.337560	0.617501	0.000189
C69	C	-0.278158	0.616794	0.000207
C70	C	-0.263996	0.720642	0.000226
C71	C	-0.323393	0.721349	0.000216
C72	C	-0.360174	0.669774	0.000193
O73	O	-0.411343	0.766598	0.000247
O74	O	-0.437597	0.574467	0.000135
C75	C	0.030139	0.677088	0.000164
C76	C	0.093356	0.676322	0.000142
C77	C	-0.069244	0.776492	0.000210
C78	C	-0.069998	0.839710	0.000217
N79	N	-0.074009	0.672335	0.353816
N80	N	-0.074006	0.672352	-0.353442
C81	C	-0.036921	0.709259	0.421595
C82	C	-0.036919	0.709268	0.578757
H83	H	-0.077961	0.499458	0.224641
O84	O	-0.657539	0.513225	0.000145
H85	H	-0.649527	0.488187	-0.092361
O86	O	-0.116061	0.630468	0.569360
H87	H	-0.143512	0.654387	0.504243
O88	O	0.005151	0.751109	0.344336
H89	H	-0.018608	0.778703	0.279218
H90	H	-0.005168	0.740883	0.637044
O91	O	-0.490456	0.831446	0.000171
H92	H	-0.516164	0.867916	0.000184
O93	O	-0.071463	-0.039148	0.257405
H94	H	-0.071095	-0.069781	0.343436
H95	H	-0.074633	0.226222	-0.348037
O96	O	-0.116078	0.630471	0.431044
H97	H	-0.092316	0.602879	0.496159
H98	H	-0.607932	0.819114	0.000154
O99	O	-0.076558	0.383831	-0.257035
H100	H	-0.115053	0.351468	-0.262958
H101	H	-0.540072	0.525565	0.000137
H102	H	-0.259750	0.574219	0.000212
O103	O	-0.076561	0.383857	0.257365
H104	H	-0.076939	0.414496	0.343387
H105	H	-0.074654	0.226229	0.348407
H106	H	-0.070065	-0.154768	0.224703
O107	O	-0.073302	0.110576	0.381047
H108	H	-0.034635	0.127229	0.440490
O109	O	-0.069959	-0.162623	-0.256971
H110	H	-0.070319	-0.131989	-0.343002
O111	O	-0.347789	0.777735	0.000221
H112	H	-0.312230	0.813472	0.000227
H113	H	-0.077956	0.499450	-0.224331
H114	H	-0.071360	-0.047021	-0.224287
H115	H	-0.806217	0.580757	0.000141
H116	H	-0.073337	0.118473	-0.348036
O117	O	-0.894244	0.784277	0.000183
H118	H	-0.920964	0.787087	-0.092330
O119	O	-0.377227	0.561876	0.000185
H120	H	-0.351515	0.525410	0.000203
O121	O	-0.770787	0.782800	0.000190
H122	H	-0.796497	0.819267	0.000217
H123	H	-0.234037	0.762625	0.000244
O124	O	-0.923701	0.568420	0.000105
H125	H	-0.968802	0.577703	0.000088
