data_functionalizedCrystal
_audit_creation_method	'MofGen! by Chris Wilmer'
_symmetry_space_group_name_H-M	'P1'
_symmetry_Int_Tables_number	1
_symmetry_cell_setting	triclinic
loop_
_symmetry_equiv_pos_as_xyz
  x,y,z
_cell_length_a	14.853569
_cell_length_b	14.853567
_cell_length_c	7.681481
_cell_angle_alpha	84.253558
_cell_angle_beta	95.733588
_cell_angle_gamma	83.635248
loop_
_atom_site_label
_atom_site_type_symbol
_atom_site_fract_x
_atom_site_fract_y
_atom_site_fract_z
O1	O	1.187856	0.126230	-0.146333
O2	O	0.925395	0.140251	-0.146353
O3	O	1.063636	0.002011	-0.146348
O4	O	1.049615	0.264470	-0.146338
O5	O	1.080651	-0.015043	0.146511
O6	O	0.942411	0.123197	0.146506
O7	O	1.204871	0.109176	0.146525
Zn8	Zn	1.076342	0.113479	0.193013
Zn9	Zn	1.053924	0.135948	-0.192841
O10	O	1.066630	0.247416	0.146520
C11	C	0.900314	0.131089	0.000074
C12	C	0.800230	0.129185	0.000066
C13	C	1.071508	-0.040104	0.000076
C14	C	1.069603	-0.140187	0.000061
C15	C	0.763853	0.046175	0.000056
C16	C	0.742565	0.210406	0.000082
C17	C	0.648531	0.208619	0.000084
C18	C	0.612154	0.125609	0.000075
C19	C	0.669811	0.044385	0.000064
C20	C	0.590868	0.289840	0.000113
C21	C	0.496828	0.288057	0.000117
C22	C	0.460449	0.205046	0.000095
C23	C	0.518112	0.123819	0.000082
C24	C	0.481735	0.040809	0.000073
C25	C	0.539395	-0.040418	0.000047
C26	C	0.633431	-0.038626	0.000042
C27	C	0.366413	0.203254	0.000101
C28	C	0.387692	0.039019	0.000080
C29	C	0.979439	-0.552723	0.000088
C30	C	1.143673	-0.574004	0.000100
C31	C	1.145462	-0.479969	0.000089
C32	C	1.064239	-0.422307	0.000081
C33	C	0.981227	-0.458680	0.000083
C34	C	1.228474	-0.443591	0.000106
C35	C	1.230267	-0.349551	0.000097
C36	C	1.149042	-0.291887	0.000076
C37	C	1.066027	-0.328264	0.000076
C38	C	0.984803	-0.270602	0.000068
C39	C	0.901786	-0.306978	0.000055
C40	C	0.900002	-0.401015	0.000062
C41	C	1.150826	-0.197849	0.000069
C42	C	0.986591	-0.176559	0.000063
C43	C	1.229952	0.118339	0.000095
C44	C	1.330036	0.120243	0.000091
C45	C	1.058758	0.289532	0.000092
C46	C	1.060662	0.389615	0.000096
N47	N	1.091649	0.098144	0.456348
N48	N	1.038625	0.151276	-0.456175
H49	H	0.358082	-0.028578	0.000063
C50	C	0.965502	0.224537	0.442246
H51	H	0.967161	0.222860	0.319286
H52	H	0.977189	0.282961	0.472375
H53	H	0.907037	0.212976	0.472384
C54	C	0.630878	0.381145	0.000114
H55	H	0.583073	0.429262	0.000143
H56	H	0.661178	0.391204	-0.102021
H57	H	0.673062	0.379305	0.102244
C58	C	1.317813	-0.507013	0.000114
H59	H	1.367510	-0.471884	0.000136
H60	H	1.314594	-0.538192	-0.102014
H61	H	1.326460	-0.550086	0.102251
C62	C	1.321578	-0.309541	0.000105
H63	H	1.311013	-0.245278	0.000110
H64	H	1.349095	-0.323384	-0.102012
H65	H	1.360955	-0.335269	0.102253
C66	C	1.164776	0.024880	0.557934
H67	H	1.163111	0.026548	0.680895
H68	H	1.223237	0.036432	0.527789
H69	H	1.153079	-0.033547	0.527807
C70	C	0.433409	0.377402	0.000124
H71	H	0.468543	0.427096	0.000116
H72	H	0.402214	0.374173	0.102245
H73	H	0.390351	0.386066	-0.102020
C74	C	0.302991	0.292592	0.000119
H75	H	0.338124	0.342286	0.000116
H76	H	0.271796	0.289358	0.102240
H77	H	0.259932	0.301258	-0.102025
C78	C	0.696859	-0.127966	0.000038
H79	H	0.758074	-0.115010	0.000059
H80	H	0.679891	-0.156055	-0.102088
H81	H	0.691756	-0.167944	0.102177
C82	C	1.242131	-0.157834	0.000089
H83	H	1.231565	-0.093571	0.000093
H84	H	1.269652	-0.171677	-0.102025
H85	H	1.281506	-0.183562	0.102241
H86	H	0.810804	-0.019958	0.000028
C87	C	0.897245	-0.113134	0.000045
H88	H	0.910196	-0.051917	0.000034
H89	H	0.869140	-0.130118	0.102162
H90	H	0.857285	-0.118227	-0.102104
C91	C	0.499374	-0.131724	0.000034
H92	H	0.435111	-0.121150	0.000036
H93	H	0.525095	-0.171127	0.102146
H94	H	0.513210	-0.159215	-0.102120
H95	H	0.835655	-0.260018	0.000060
C96	C	0.888124	-0.592725	0.000064
H97	H	0.840009	-0.544912	0.000044
H98	H	0.889938	-0.634916	0.102183
H99	H	0.878082	-0.623014	-0.102082
H100	H	0.832413	-0.430641	0.000053
C101	C	0.782573	0.301712	0.000088
H102	H	0.734766	0.349828	0.000104
H103	H	0.812880	0.311769	-0.102037
H104	H	0.824750	0.299874	0.102228
C105	C	1.233010	-0.637428	0.000113
H106	H	1.220056	-0.698643	0.000109
H107	H	1.272980	-0.632332	0.102236
H108	H	1.261106	-0.620447	-0.102029
