data_functionalizedCrystal
_audit_creation_method	'MofGen! by Chris Wilmer'
_symmetry_space_group_name_H-M	'P1'
_symmetry_Int_Tables_number	1
_symmetry_cell_setting	triclinic
loop_
_symmetry_equiv_pos_as_xyz
  x,y,z
_cell_length_a	10.967926
_cell_length_b	10.065875
_cell_length_c	10.723024
_cell_angle_alpha	81.125686
_cell_angle_beta	84.591890
_cell_angle_gamma	86.879521
loop_
_atom_site_label
_atom_site_type_symbol
_atom_site_fract_x
_atom_site_fract_y
_atom_site_fract_z
O1	O	1.614685	-0.266275	0.217682
O2	O	2.114685	0.233725	0.717682
O3	O	1.264670	-0.183951	0.221246
O4	O	1.764670	0.316049	0.721246
O5	O	1.447750	-0.227017	0.038193
O6	O	1.947750	0.272983	0.538193
O7	O	1.431605	-0.223209	0.400735
O8	O	1.931605	0.276791	0.900735
O9	O	1.412841	-0.445794	0.073245
O10	O	1.912841	0.054206	0.573245
O11	O	1.229760	-0.402728	0.256299
O12	O	1.729760	0.097272	0.756299
O13	O	1.579775	-0.485052	0.252734
O14	O	2.079775	0.014948	0.752734
Zn15	Zn	1.399225	-0.478626	0.260082
Zn16	Zn	1.899225	0.021374	0.760082
Zn17	Zn	1.445220	-0.190378	0.213899
Zn18	Zn	1.945220	0.309622	0.713899
O19	O	1.396695	-0.441986	0.435788
O20	O	1.896695	0.058014	0.935788
C21	C	1.202398	-0.282799	0.235865
C22	C	1.702398	0.217201	0.735865
C23	C	1.068856	-0.251389	0.227185
C24	C	1.568856	0.248611	0.727185
N25	N	1.367843	-0.675349	0.291600
N26	N	1.867843	-0.175349	0.791600
C27	C	0.991234	-0.350719	0.241474
C28	C	1.491234	0.149281	0.741474
C29	C	0.853212	-0.318258	0.232503
C30	C	1.353212	0.181742	0.732503
C31	C	1.434294	-0.758759	0.224857
C32	C	1.934294	-0.258759	0.724857
C33	C	1.410151	-0.910247	0.249124
C34	C	1.910151	-0.410247	0.749124
C35	C	1.642048	-0.386202	0.238116
C36	C	2.142048	0.113798	0.738116
C37	C	1.775591	-0.417602	0.246794
C38	C	2.275591	0.082398	0.746794
C39	C	1.429121	-0.336127	0.009175
C40	C	1.929121	0.163873	0.509175
C41	C	1.425606	-0.335296	-0.129512
C42	C	1.925606	0.164704	0.370488
N43	N	1.476611	0.006344	0.182371
N44	N	1.976611	0.506344	0.682371
C45	C	1.528048	-0.359389	-0.200635
C46	C	2.028048	0.140611	0.299365
C47	C	1.524418	-0.358530	-0.343976
C48	C	2.024418	0.141470	0.156024
C49	C	1.415325	-0.332873	0.464805
C50	C	1.915325	0.167127	0.964805
C51	C	1.418841	-0.333696	0.603491
C52	C	1.918841	0.166304	1.103491
H53	H	1.026963	-0.459790	0.260340
H54	H	1.526963	0.040210	0.760340
Cl55	Cl	1.286040	-0.302456	-0.199332
Cl56	Cl	1.786040	0.197544	0.300668
H57	H	1.551376	-0.952922	0.107254
H58	H	2.051376	-0.452922	0.607254
Cl59	Cl	0.798070	-0.149848	0.203352
Cl60	Cl	1.298070	0.350152	0.703352
H61	H	1.618440	-0.380657	-0.155406
H62	H	2.118440	0.119343	0.344594
H63	H	1.293075	-0.716088	0.366703
H64	H	1.793075	-0.216088	0.866703
Cl65	Cl	1.549454	-0.695807	0.108601
Cl66	Cl	2.049454	-0.195807	0.608601
H67	H	1.612116	-0.379161	-0.405103
H68	H	2.112116	0.120839	0.094897
Cl69	Cl	1.283426	-0.301859	-0.302144
Cl70	Cl	1.783426	0.198141	0.197856
H71	H	1.335377	-0.950979	0.324232
H72	H	1.835377	-0.450979	0.824232
H73	H	0.811311	-0.526682	0.265665
H74	H	1.311311	-0.026682	0.765665
H75	H	1.033129	-0.142318	0.208308
H76	H	1.533129	0.357682	0.708308
