data_functionalizedCrystal
_audit_creation_method	'MofGen! by Chris Wilmer'
_symmetry_space_group_name_H-M	'P1'
_symmetry_Int_Tables_number	1
_symmetry_cell_setting	triclinic
loop_
_symmetry_equiv_pos_as_xyz
  x,y,z
_cell_length_a	28.938199
_cell_length_b	28.937346
_cell_length_c	28.934044
_cell_angle_alpha	60.005004
_cell_angle_beta	60.009897
_cell_angle_gamma	59.994060
loop_
_atom_site_label
_atom_site_type_symbol
_atom_site_fract_x
_atom_site_fract_y
_atom_site_fract_z
O1	O	0.064043	-0.675186	0.564597
O2	O	0.024124	-0.525682	0.454913
O3	O	0.118795	-0.620275	0.454833
O4	O	-0.030629	-0.580593	0.564678
O5	O	0.150204	-0.588870	0.486157
O6	O	0.055533	-0.494276	0.486238
O7	O	0.095452	-0.643780	0.595921
Cu8	Cu	0.078360	-0.566161	0.543940
Cu9	Cu	0.041215	-0.603301	0.506895
O10	O	0.000780	-0.549187	0.596002
N11	N	0.104487	-0.540042	0.569998
N12	N	0.015094	-0.629425	0.480837
C13	C	0.165467	-0.323909	0.630915
C14	C	0.165587	-0.479117	0.786068
C15	C	0.165481	-0.479095	0.630906
C16	C	0.320696	-0.479083	0.630835
C17	C	0.182557	-0.375118	0.647971
C18	C	0.182626	-0.462038	0.734858
C19	C	0.269485	-0.462018	0.647928
C20	C	0.182566	-0.462025	0.647966
C21	C	0.143714	-0.258726	0.609206
C22	C	0.143738	-0.500820	0.609192
C23	C	0.204309	-0.440300	0.669680
C24	C	0.415481	-0.462740	0.580919
C25	C	0.474732	-0.482485	0.561145
C26	C	0.474757	-0.578356	0.597704
C27	C	0.415508	-0.558609	0.617479
C28	C	0.157989	-0.229089	0.550957
C29	C	0.138212	-0.169834	0.531225
C30	C	0.089890	-0.169857	0.627992
C31	C	0.109667	-0.229112	0.647725
C32	C	0.085482	-0.486515	0.623535
C33	C	0.065722	-0.506265	0.603789
C34	C	0.162467	-0.554625	0.555370
C35	C	0.182230	-0.534875	0.575110
C36	C	0.085661	-0.486557	0.880902
C37	C	0.065952	-0.506323	0.940155
C38	C	0.162734	-0.554693	0.940102
C39	C	0.182441	-0.534928	0.880847
C40	C	0.143904	-0.500859	0.851249
C41	C	0.385871	-0.500801	0.609083
C42	C	-0.110907	-0.668480	0.441278
C43	C	-0.024049	-0.668588	0.441475
C44	C	-0.045729	-0.690282	0.419668
C45	C	-0.062146	-0.785032	0.469507
C46	C	-0.042446	-0.844287	0.489286
C47	C	0.053426	-0.844399	0.452899
C48	C	0.033725	-0.785144	0.433120
C49	C	-0.140617	-0.682751	0.499509
C50	C	-0.199867	-0.662928	0.519152
C51	C	-0.199694	-0.614571	0.422330
C52	C	-0.140443	-0.634393	0.402687
C53	C	-0.038320	-0.610337	0.427144
C54	C	-0.018610	-0.590621	0.446974
C55	C	0.029642	-0.687402	0.495454
C56	C	0.009933	-0.707121	0.475630
C57	C	-0.038148	-0.610347	0.324832
C58	C	-0.018301	-0.590634	0.265579
C59	C	0.030035	-0.687421	0.265643
C60	C	0.010190	-0.707133	0.324897
C61	C	-0.023903	-0.668595	0.354491
C62	C	-0.024062	-0.755463	0.441426
N63	N	0.503527	-0.540005	0.569810
O64	O	0.684453	-0.545211	0.434650
O65	O	0.684643	-0.655237	0.584005
O66	O	0.684567	-0.654986	0.489282
O67	O	0.684529	-0.545462	0.529373
O68	O	0.590438	-0.623674	0.520735
O69	O	0.590513	-0.623924	0.615457
O70	O	0.590323	-0.513899	0.466102
Cu71	Cu	0.581823	-0.566053	0.543652
Cu72	Cu	0.693143	-0.603083	0.506456
O73	O	0.590399	-0.514149	0.560825
N74	N	0.771439	-0.629131	0.480292
N75	N	0.104456	-0.141061	0.570015
O76	O	-0.030629	0.039964	0.564688
O77	O	0.118732	0.039984	0.454661
O78	O	0.023980	0.039958	0.454946
O79	O	0.064123	0.039990	0.564403
O80	O	0.055392	-0.054179	0.486321
O81	O	0.150144	-0.054153	0.486036
O82	O	0.000784	-0.054173	0.596063
Cu83	Cu	0.078332	-0.062759	0.543914
Cu84	Cu	0.041183	0.048570	0.506810
O85	O	0.095535	-0.054147	0.595778
N86	N	0.015053	0.126872	0.480710
N87	N	0.104760	-0.540096	0.968910
O88	O	0.099447	-0.675167	1.149923
O89	O	-0.010552	-0.525757	1.149951
O90	O	-0.010297	-0.620493	1.149918
O91	O	0.099192	-0.580431	1.149956
O92	O	0.021064	-0.589100	1.055785
O93	O	0.020809	-0.494365	1.055818
O94	O	0.130808	-0.643774	1.055790
Cu95	Cu	0.078672	-0.566203	1.047209
Cu96	Cu	0.041584	-0.603328	1.158532
O97	O	0.130553	-0.549038	1.055823
N98	N	0.015495	-0.629442	1.236831
C99	C	0.036087	-0.491140	0.455465
C100	C	0.153325	-0.608283	0.455364
C101	C	0.083488	-0.678322	0.595370
C102	C	-0.033750	-0.561180	0.595470
C103	C	0.637601	-0.654732	0.618548
C104	C	0.637509	-0.654422	0.501245
C105	C	0.637362	-0.514403	0.431560
C106	C	0.637458	-0.514713	0.548862
C107	C	0.153215	-0.006966	0.455158
C108	C	0.035916	-0.007114	0.455550
C109	C	-0.033739	-0.007106	0.595527
C110	C	0.083600	-0.007076	0.595174
C111	C	-0.010020	-0.491238	1.102888
C112	C	-0.009698	-0.608550	1.102828
C113	C	0.130276	-0.678293	1.102853
C114	C	0.129961	-0.560974	1.102892
H115	H	0.054276	-0.458811	0.856808
C116	C	0.211041	-0.006601	0.408373
C117	C	0.257640	-0.006408	0.419602
C118	C	0.315465	-0.006043	0.372816
C119	C	0.326692	-0.005872	0.314802
C120	C	0.280092	-0.006066	0.303570
C121	C	0.222266	-0.006430	0.350356
H122	H	0.249330	-0.006534	0.462550
H123	H	0.349962	-0.005900	0.381131
H124	H	0.369498	-0.005602	0.280168
H125	H	0.288402	-0.005939	0.260622
H126	H	0.187770	-0.006574	0.342041
H127	H	0.637649	-0.689271	0.661445
H128	H	-0.044080	-0.617108	1.102779
C129	C	0.637440	-0.468230	0.560447
C130	C	0.637367	-0.410158	0.513995
C131	C	0.637350	-0.363674	0.525579
C132	C	0.637405	-0.375263	0.583615
C133	C	0.637478	-0.433337	0.630071
C134	C	0.637496	-0.479821	0.618487
H135	H	0.637326	-0.401577	0.471029
H136	H	0.637296	-0.320684	0.491189
H137	H	0.637392	-0.340853	0.592191
H138	H	0.637520	-0.441918	0.673037
H139	H	0.637550	-0.522811	0.652877
H140	H	0.196241	-0.616742	0.420869
C141	C	-0.091728	-0.549760	0.642072
C142	C	-0.113212	-0.501600	0.664286
C143	C	-0.171189	-0.490181	0.710888
C144	C	-0.207682	-0.526921	0.735275
C145	C	-0.186199	-0.575084	0.713060
C146	C	-0.128221	-0.586504	0.666459
H147	H	-0.086197	-0.474400	0.646234
H148	H	-0.187093	-0.454527	0.727332
H149	H	-0.250601	-0.518468	0.769772
H150	H	-0.213213	-0.602285	0.731113
H151	H	-0.112318	-0.622158	0.650014
C152	C	0.637283	-0.467734	0.373616
C153	C	0.588360	-0.410818	0.369812
C154	C	0.588281	-0.364149	0.311868
C155	C	0.637124	-0.374395	0.257727
C156	C	0.686050	-0.431313	0.261529
C157	C	0.686130	-0.477982	0.319474
H158	H	0.552200	-0.403231	0.409892
H159	H	0.552062	-0.322015	0.309053
H160	H	0.637065	-0.339848	0.214833
H161	H	0.722211	-0.438900	0.221450
H162	H	0.722349	-0.520117	0.322288
H163	H	0.027560	-0.448192	0.421017
C164	C	0.024309	-0.007125	0.409092
C165	C	-0.033741	-0.007138	0.420696
C166	C	-0.045347	-0.007149	0.374238
C167	C	0.001097	-0.007147	0.316176
C168	C	0.059151	-0.007133	0.304570
C169	C	0.070757	-0.007122	0.351028
H170	H	-0.068125	-0.007140	0.463679
H171	H	-0.088323	-0.007159	0.382830
H172	H	-0.007495	-0.007155	0.281785
H173	H	0.093535	-0.007132	0.261587
H174	H	0.113733	-0.007113	0.342436
C175	C	-0.091685	-0.007112	0.642194
C176	C	-0.138344	-0.007126	0.630905
C177	C	-0.196291	-0.007132	0.677572
C178	C	-0.207578	-0.007123	0.735527
C179	C	-0.160918	-0.007109	0.746818
C180	C	-0.102971	-0.007103	0.700152
H181	H	-0.129990	-0.007132	0.588001
H182	H	-0.230832	-0.007142	0.669213
H183	H	-0.250473	-0.007127	0.770073
H184	H	-0.169272	-0.007102	0.789723
H185	H	-0.068430	-0.007093	0.708511
H186	H	0.054136	-0.458786	0.651283
H187	H	-0.065911	-0.578960	0.348925
H188	H	0.637525	-0.688829	0.492664
H189	H	0.164813	-0.721202	1.102837
H190	H	0.092017	-0.721269	0.629819
H191	H	0.092195	-0.007066	0.629560
H192	H	0.164358	-0.552401	1.102897
C193	C	0.001881	-0.490579	0.972769
C194	C	-0.040503	-0.453099	0.940207
C195	C	-0.104574	-0.437357	0.972821
C196	C	-0.126260	-0.459095	1.037996
C197	C	-0.083874	-0.496577	1.070562
C198	C	-0.019804	-0.512319	1.037948
H199	H	-0.024451	-0.437005	0.891958
H200	H	-0.135951	-0.409610	0.948714
H201	H	-0.173689	-0.447442	1.062139
H202	H	-0.099927	-0.512671	1.118811
H203	H	0.011573	-0.540066	1.062055
C204	C	0.205125	-0.592159	0.972660
C205	C	0.269192	-0.607886	0.940043
C206	C	0.311583	-0.645354	0.972602
C207	C	0.289907	-0.667095	1.037777
C208	C	0.225837	-0.651367	1.070398
C209	C	0.183446	-0.613899	1.037839
H210	H	0.285241	-0.591793	0.891794
H211	H	0.359012	-0.656997	0.948454
H212	H	0.321287	-0.694831	1.061879
H213	H	0.209788	-0.667461	1.118647
H214	H	0.136017	-0.602257	1.061987
C215	C	-0.056677	-0.433271	1.102899
C216	C	-0.046404	-0.379155	1.054031
C217	C	-0.093061	-0.321188	1.054042
C218	C	-0.149991	-0.317336	1.102921
C219	C	-0.160267	-0.371453	1.151793
C220	C	-0.113609	-0.429420	1.151782
H221	H	-0.004259	-0.382005	1.017844
H222	H	-0.085454	-0.281127	1.017863
H223	H	-0.184530	-0.274425	1.102929
H224	H	-0.202412	-0.368603	1.187979
H225	H	-0.121216	-0.469481	1.187960
C226	C	0.246513	-0.550660	0.848230
C227	C	0.273365	-0.503810	0.807491
C228	C	0.337435	-0.519540	0.774875
C229	C	0.374654	-0.582121	0.782998
C230	C	0.347802	-0.628975	0.823739
C231	C	0.283732	-0.613245	0.856355
H232	H	0.245813	-0.457480	0.801476
H233	H	0.357312	-0.484855	0.744716
H234	H	0.422082	-0.593765	0.758854
H235	H	0.375354	-0.675305	0.829754
H236	H	0.263855	-0.647930	0.886513
C237	C	0.204813	-0.592090	0.517883
C238	C	0.204560	-0.652237	0.537556
C239	C	0.246903	-0.689700	0.500068
C240	C	0.289499	-0.667016	0.442907
C241	C	0.289753	-0.606866	0.423231
C242	C	0.247410	-0.569403	0.460719
H243	H	0.173027	-0.669032	0.579872
H244	H	0.246715	-0.734227	0.514633
H245	H	0.320844	-0.694748	0.415156
H246	H	0.321286	-0.590071	0.380915
H247	H	0.247599	-0.524876	0.446154
C248	C	0.246313	-0.550610	0.559337
C249	C	0.288653	-0.588070	0.521849
C250	C	0.352735	-0.603806	0.506077
C251	C	0.374476	-0.582083	0.527792
C252	C	0.332134	-0.544621	0.565282
C253	C	0.268053	-0.528884	0.581054
H254	H	0.272560	-0.604153	0.505772
H255	H	0.384079	-0.631539	0.478324
H256	H	0.421913	-0.593732	0.516116
H257	H	0.348227	-0.528538	0.581359
H258	H	0.236709	-0.501152	0.608807
C259	C	-0.107762	-0.618702	0.338627
C260	C	-0.067018	-0.665578	0.311790
C261	C	-0.034339	-0.649888	0.247731
C262	C	-0.042405	-0.587321	0.210509
C263	C	-0.083151	-0.540440	0.237346
C264	C	-0.115829	-0.556131	0.301405
H265	H	-0.061045	-0.711898	0.339345
H266	H	-0.004176	-0.684592	0.227865
H267	H	-0.018214	-0.575706	0.163089
H268	H	-0.089123	-0.494121	0.209791
H269	H	-0.145992	-0.521427	0.321271
C270	C	0.382939	-0.600479	0.648452
C271	C	0.415544	-0.664064	0.657673
C272	C	0.382975	-0.705935	0.688641
C273	C	0.317802	-0.684221	0.710389
C274	C	0.285194	-0.620633	0.701169
C275	C	0.317762	-0.578762	0.670200
H276	H	0.463792	-0.680140	0.641573
H277	H	0.407114	-0.753007	0.695467
H278	H	0.293693	-0.715217	0.733314
H279	H	0.236946	-0.604557	0.717268
H280	H	0.293623	-0.531690	0.663375
H281	H	0.018285	-0.494604	0.615454
H282	H	0.498841	-0.451490	0.538213
C283	C	0.507358	-0.641944	0.606936
C284	C	0.499253	-0.685033	0.667396
C285	C	0.531856	-0.748623	0.676627
C286	C	0.572565	-0.769123	0.625397
C287	C	0.580671	-0.726033	0.564933
C288	C	0.548068	-0.662444	0.555702
H289	H	0.469116	-0.669859	0.705323
H290	H	0.525855	-0.780521	0.721387
H291	H	0.596700	-0.816196	0.632230
H292	H	0.610808	-0.741208	0.527006
H293	H	0.554069	-0.630546	0.510942
H294	H	0.185713	-0.253197	0.519589
C295	C	0.382880	-0.399149	0.571686
C296	C	0.415454	-0.357284	0.540707
C297	C	0.382855	-0.293693	0.531472
C298	C	0.317682	-0.271967	0.553216
C299	C	0.285104	-0.313833	0.584197
C300	C	0.317703	-0.377423	0.593432
H301	H	0.463702	-0.373366	0.524609
H302	H	0.406972	-0.262702	0.508537
H303	H	0.293551	-0.224894	0.546380
H304	H	0.236856	-0.297750	0.600295
H305	H	0.293586	-0.408415	0.616367
H306	H	0.062174	-0.145744	0.659359
C307	C	0.153915	-0.137228	0.467148
C308	C	0.191371	-0.169803	0.424779
C309	C	0.207075	-0.137200	0.360702
C310	C	0.185323	-0.072022	0.338994
C311	C	0.147865	-0.039443	0.381364
C312	C	0.132161	-0.072046	0.445441
H313	H	0.207476	-0.218055	0.440848
H314	H	0.234804	-0.161317	0.329337
H315	H	0.196948	-0.047887	0.291560
H316	H	0.131760	0.008809	0.365295
H317	H	0.104432	-0.047929	0.476806
C318	C	0.093963	-0.261710	0.711801
C319	C	0.111225	-0.253566	0.748987
C320	C	0.095519	-0.286165	0.813065
C321	C	0.062550	-0.326908	0.839957
C322	C	0.045286	-0.335054	0.802769
C323	C	0.060992	-0.302455	0.738691
H324	H	0.135633	-0.223404	0.729081
H325	H	0.108299	-0.280134	0.840593
H326	H	0.050923	-0.351039	0.887391
H327	H	0.020879	-0.365216	0.822676
H328	H	0.048212	-0.308486	0.711163
C329	C	0.067528	-0.729817	0.233096
C330	C	0.127709	-0.729632	0.192460
C331	C	0.165203	-0.772029	0.159913
C332	C	0.142515	-0.814612	0.168002
C333	C	0.082331	-0.814798	0.208639
C334	C	0.044837	-0.772401	0.241186
H335	H	0.144507	-0.698108	0.186471
H336	H	0.209755	-0.771891	0.129831
H337	H	0.170270	-0.845997	0.143909
H338	H	0.065533	-0.846322	0.214629
H339	H	0.000285	-0.772539	0.271268
C340	C	0.025862	-0.771210	0.357521
C341	C	0.088418	-0.808472	0.349489
C342	C	0.104090	-0.872547	0.382111
C343	C	0.057205	-0.899361	0.422765
C344	C	-0.005355	-0.862099	0.430799
C345	C	-0.021027	-0.798024	0.398177
H346	H	0.123128	-0.788623	0.319392
H347	H	0.150401	-0.900131	0.376163
H348	H	0.068806	-0.946794	0.446914
H349	H	-0.040065	-0.881948	0.460896
H350	H	-0.067338	-0.770440	0.404125
H351	H	-0.029909	-0.543201	0.241439
C352	C	-0.034306	-0.526544	0.431218
C353	C	0.012569	-0.499734	0.398333
C354	C	-0.003127	-0.435660	0.382579
C355	C	-0.065698	-0.398394	0.399712
C356	C	-0.112576	-0.425204	0.432600
C357	C	-0.096880	-0.489279	0.448353
H358	H	0.058891	-0.527321	0.385648
H359	H	0.031575	-0.415814	0.358234
H360	H	-0.077317	-0.350962	0.388050
H361	H	-0.158898	-0.397618	0.445284
H362	H	-0.131583	-0.509125	0.472699
C363	C	0.067028	-0.729798	0.533015
C364	C	0.124174	-0.772479	0.510415
C365	C	0.161562	-0.814880	0.547976
C366	C	0.141804	-0.814600	0.608135
C367	C	0.084655	-0.771917	0.630737
C368	C	0.047267	-0.729516	0.593177
H369	H	0.138803	-0.772688	0.465879
H370	H	0.203868	-0.846477	0.531243
H371	H	0.169480	-0.845988	0.635939
H372	H	0.070026	-0.771708	0.675274
H373	H	0.004961	-0.697919	0.609909
H374	H	-0.065985	-0.578958	0.399332
H375	H	0.021552	-0.754553	0.487300
H376	H	0.064741	-0.761071	0.410254
H377	H	0.100481	-0.868567	0.446139
H378	H	-0.109200	-0.760870	0.476275
C379	C	-0.084347	-0.876807	0.520182
C380	C	-0.132915	-0.868595	0.575165
C381	C	-0.174821	-0.901112	0.606066
C382	C	-0.168159	-0.941841	0.581983
C383	C	-0.119589	-0.950055	0.526997
C384	C	-0.077683	-0.917538	0.496097
H385	H	-0.137848	-0.838443	0.592996
H386	H	-0.210776	-0.895031	0.646770
H387	H	-0.199180	-0.965912	0.604857
H388	H	-0.114656	-0.980207	0.509167
H389	H	-0.041729	-0.923618	0.455392
H390	H	-0.116569	-0.710512	0.530934
H391	H	-0.223743	-0.586821	0.390905
C392	C	-0.232555	-0.678618	0.583210
C393	C	-0.224474	-0.661390	0.620469
C394	C	-0.257163	-0.677078	0.684526
C395	C	-0.297931	-0.709995	0.711324
C396	C	-0.306014	-0.727225	0.674065
C397	C	-0.273325	-0.711537	0.610008
H398	H	-0.194293	-0.637021	0.600632
H399	H	-0.251179	-0.664323	0.712108
H400	H	-0.322129	-0.721608	0.758743
H401	H	-0.336195	-0.751594	0.693902
H402	H	-0.279309	-0.724292	0.582426
