data_functionalizedCrystal
_audit_creation_method	'MofGen! by Chris Wilmer'
_symmetry_space_group_name_H-M	'P1'
_symmetry_Int_Tables_number	1
_symmetry_cell_setting	triclinic
loop_
_symmetry_equiv_pos_as_xyz
  x,y,z
_cell_length_a	13.897449
_cell_length_b	19.077068
_cell_length_c	19.076919
_cell_angle_alpha	85.529249
_cell_angle_beta	92.282068
_cell_angle_gamma	87.671720
loop_
_atom_site_label
_atom_site_type_symbol
_atom_site_fract_x
_atom_site_fract_y
_atom_site_fract_z
Zn1	Zn	1.435688	0.296659	-0.409828
Zn2	Zn	1.435569	0.409812	-0.296673
Zn3	Zn	1.281141	0.291945	-0.291961
Zn4	Zn	1.267584	0.414512	-0.414519
O5	O	1.354995	0.353232	-0.353245
O6	O	1.570653	0.311674	-0.394827
O7	O	1.420707	0.390237	-0.197401
O8	O	1.307366	0.193921	-0.303661
O9	O	1.570565	0.394808	-0.311692
O10	O	1.420911	0.197384	-0.390258
O11	O	1.307250	0.303641	-0.193939
O12	O	1.144362	0.308198	-0.308209
O13	O	1.284259	0.402817	-0.512544
O14	O	1.134401	0.398247	-0.398252
O15	O	1.407765	0.316231	-0.509098
O16	O	1.407561	0.509085	-0.316241
O17	O	1.284144	0.512537	-0.402822
C18	C	1.344394	0.536390	-0.360567
C19	C	1.339945	0.614747	-0.363723
C20	C	1.104382	0.353222	-0.353229
C21	C	0.997167	0.353235	-0.353239
C22	C	1.344513	0.360574	-0.537114
C23	C	1.340046	0.363703	-0.615468
C24	C	0.800871	0.353238	-0.353258
C25	C	0.910104	0.353234	-0.353245
C26	C	1.606587	0.353243	-0.353262
C27	C	1.713800	0.353247	-0.353269
C28	C	1.365664	0.169359	-0.345910
C29	C	1.370210	0.091003	-0.342785
C30	C	1.402158	0.649740	-0.320165
C31	C	1.397979	0.723365	-0.323137
C32	C	1.331583	0.761996	-0.369665
C33	C	1.269367	0.726998	-0.413227
C34	C	1.273551	0.653375	-0.410258
C35	C	1.312178	0.982382	-0.383378
C36	C	1.307997	1.056010	-0.386343
C37	C	1.436611	1.052372	-0.296253
C38	C	1.440785	0.978747	-0.293285
C39	C	1.378573	0.943756	-0.336850
N40	N	1.327308	0.837252	-0.372702
N41	N	1.382853	0.868501	-0.333816
C42	C	1.402247	0.320094	-0.650486
C43	C	1.398038	0.323032	-0.724108
C44	C	1.331633	0.369582	-0.762710
C45	C	1.269425	0.413192	-0.727688
C46	C	1.273630	0.410251	-0.654067
C47	C	1.312158	0.383209	-0.983085
C48	C	1.307960	0.386148	-1.056710
C49	C	1.436572	0.295987	-1.053125
C50	C	1.440775	0.293053	-0.979504
C51	C	1.378564	0.336660	-0.944487
N52	N	1.327331	0.372587	-0.837964
N53	N	1.382861	0.333651	-0.869235
C54	C	1.365495	0.345867	-0.170090
C55	C	1.370160	0.342540	-0.091728
H56	H	1.456221	0.618291	-0.282274
H57	H	1.253881	0.424057	-1.088139
C58	C	1.475298	0.268885	-0.608029
N59	N	1.530319	0.230309	-0.576053
H60	H	1.448691	0.287523	-0.752616
C61	C	1.466413	0.761853	-0.275215
N62	N	1.517959	0.790842	-0.239117
H63	H	1.222970	0.445755	-0.625556
H64	H	1.494851	0.947296	-0.255399
H65	H	1.222892	0.624884	-0.445729
C66	C	1.513817	0.241837	-0.937046
N67	N	1.568832	0.203260	-0.905066
H68	H	1.487219	0.260483	-1.081644
C69	C	1.505043	1.090869	-0.248337
N70	N	1.556590	1.119864	-0.212245
C71	C	1.196369	0.464391	-0.770153
N72	N	1.141341	0.502955	-0.802137
H73	H	1.215309	0.758457	-0.451114
H74	H	1.261515	0.418728	-0.954584
H75	H	1.253940	1.087462	-0.424243
C76	C	1.243790	0.943903	-0.431338
N77	N	1.192293	0.914918	-0.467477
