data_functionalizedCrystal
_audit_creation_method	'MofGen! by Chris Wilmer'
_symmetry_space_group_name_H-M	'P1'
_symmetry_Int_Tables_number	1
_symmetry_cell_setting	triclinic
loop_
_symmetry_equiv_pos_as_xyz
  x,y,z
_cell_length_a	29.839135
_cell_length_b	29.839131
_cell_length_c	29.839125
_cell_angle_alpha	89.980740
_cell_angle_beta	89.982859
_cell_angle_gamma	90.037758
loop_
_atom_site_label
_atom_site_type_symbol
_atom_site_fract_x
_atom_site_fract_y
_atom_site_fract_z
Zn1	Zn	0.686746	-0.178913	-0.254023
Zn2	Zn	1.020080	0.154420	0.079310
Zn3	Zn	1.353413	0.487754	0.412643
Zn4	Zn	0.686684	-0.254017	-0.178883
Zn5	Zn	1.020018	0.079316	0.154450
Zn6	Zn	1.353351	0.412650	0.487783
Zn7	Zn	0.611627	-0.178905	-0.178901
Zn8	Zn	0.944960	0.154428	0.154432
Zn9	Zn	1.278294	0.487761	0.487765
Zn10	Zn	0.611585	-0.254020	-0.253980
Zn11	Zn	0.944918	0.079313	0.079353
Zn12	Zn	1.278252	0.412647	0.412686
O13	O	0.649161	-0.216464	-0.216447
O14	O	0.982494	0.116869	0.116886
O15	O	1.315827	0.450203	0.450220
O16	O	0.749605	-0.188878	-0.244066
O17	O	1.082938	0.144456	0.089267
O18	O	1.416272	0.477789	0.422600
O19	O	0.676720	-0.244049	-0.116019
O20	O	1.010053	0.089285	0.217315
O21	O	1.343386	0.422618	0.550648
O22	O	0.621635	-0.116039	-0.188892
O23	O	0.954968	0.217294	0.144441
O24	O	1.288302	0.550628	0.477774
O25	O	0.749560	-0.244056	-0.188861
O26	O	1.082893	0.089277	0.144472
O27	O	1.416226	0.422610	0.477805
O28	O	0.676825	-0.116045	-0.244084
O29	O	1.010158	0.217288	0.089249
O30	O	1.343492	0.550622	0.422583
O31	O	0.621575	-0.188864	-0.116032
O32	O	0.954908	0.144469	0.217301
O33	O	1.288242	0.477802	0.550635
O34	O	0.548754	-0.188867	-0.188850
O35	O	0.882088	0.144466	0.144483
O36	O	1.215421	0.477799	0.477816
O37	O	0.621564	-0.244061	-0.316853
O38	O	0.954897	0.089272	0.016480
O39	O	1.288230	0.422605	0.349814
O40	O	0.548723	-0.244054	-0.244010
O41	O	0.882057	0.089279	0.089323
O42	O	1.215390	0.422613	0.422656
O43	O	0.676784	-0.188881	-0.316885
O44	O	1.010118	0.144453	0.016449
O45	O	1.343451	0.477786	0.349782
O46	O	0.676679	-0.316885	-0.188819
O47	O	1.010012	0.016449	0.144514
O48	O	1.343345	0.349782	0.477847
O49	O	0.621504	-0.316887	-0.243993
O50	O	0.954837	0.016447	0.089341
O51	O	1.288170	0.349780	0.422674
C52	C	0.532438	-0.216460	-0.216428
C53	C	0.865771	0.116873	0.116905
C54	C	1.199105	0.450206	0.450239
C55	C	0.482504	-0.216470	-0.216430
C56	C	0.815837	0.116864	0.116903
C57	C	1.149170	0.450197	0.450236
C58	C	0.172881	-0.187776	-0.245235
C59	C	0.506214	0.145557	0.088099
C60	C	0.839548	0.478891	0.421432
C61	C	-0.014792	-0.187779	-0.245247
C62	C	0.318541	0.145554	0.088086
C63	C	0.651875	0.478888	0.421419
O64	O	-0.039039	-0.163372	-0.269717
O65	O	0.294294	0.169961	0.063617
O66	O	0.627627	0.503294	0.396950
N67	N	-0.038281	-0.216464	-0.216464
N68	N	0.295052	0.116869	0.116870
N69	N	0.628385	0.450202	0.450203
C70	C	-0.014850	-0.245149	-0.187672
C71	C	0.318484	0.088184	0.145661
C72	C	0.651817	0.421518	0.478994
O73	O	-0.039135	-0.269544	-0.163187
O74	O	0.294198	0.063789	0.170147
O75	O	0.627532	0.397122	0.503480
C76	C	0.172823	-0.245143	-0.187658
C77	C	0.506156	0.088190	0.145676
C78	C	0.839489	0.421524	0.479009
C79	C	0.196309	-0.216459	-0.216447
C80	C	0.529643	0.116874	0.116887
C81	C	0.862976	0.450208	0.450220
C82	C	0.196368	-0.159094	-0.274021
C83	C	0.529701	0.174239	0.059312
C84	C	0.863035	0.507573	0.392646
C85	C	0.243283	-0.159095	-0.274019
C86	C	0.576617	0.174238	0.059314
C87	C	0.909950	0.507572	0.392647
C88	C	0.266712	-0.187778	-0.245231
C89	C	0.600045	0.145555	0.088102
C90	C	0.933379	0.478888	0.421436
C91	C	0.243225	-0.216460	-0.216445
C92	C	0.576558	0.116873	0.116889
C93	C	0.909892	0.450206	0.450222
C94	C	0.196253	-0.273825	-0.158864
C95	C	0.529587	0.059508	0.174469
C96	C	0.862920	0.392842	0.507802
C97	C	0.243174	-0.273820	-0.158862
C98	C	0.576508	0.059513	0.174471
C99	C	0.909841	0.392846	0.507804
C100	C	0.266661	-0.245136	-0.187651
C101	C	0.599995	0.088197	0.145682
C102	C	0.933328	0.421530	0.479015
C103	C	0.313569	-0.245145	-0.187655
C104	C	0.646902	0.088188	0.145678
C105	C	0.980236	0.421522	0.479012
N106	N	0.337058	-0.216460	-0.216439
N107	N	0.670392	0.116874	0.116894
N108	N	1.003725	0.450207	0.450228
C109	C	0.313630	-0.187776	-0.245227
C110	C	0.646963	0.145557	0.088106
C111	C	0.980296	0.478890	0.421440
C112	C	-0.113380	-0.245150	-0.187683
C113	C	0.219953	0.088183	0.145651
C114	C	0.553286	0.421516	0.478984
C115	C	-0.160298	-0.245153	-0.187687
C116	C	0.173035	0.088181	0.145647
C117	C	0.506369	0.421514	0.478980
C118	C	-0.160237	-0.187782	-0.245262
C119	C	0.173096	0.145551	0.088072
C120	C	0.506429	0.478885	0.421405
C121	C	-0.113319	-0.187782	-0.245259
C122	C	0.220015	0.145551	0.088074
C123	C	0.553348	0.478884	0.421407
C124	C	-0.089891	-0.216465	-0.216467
C125	C	0.243442	0.116868	0.116867
C126	C	0.576776	0.450202	0.450200
C127	C	0.412156	-0.187781	-0.245221
C128	C	0.745489	0.145552	0.088112
C129	C	1.078822	0.478885	0.421445
C130	C	0.459075	-0.187786	-0.245218
C131	C	0.792408	0.145547	0.088115
C132	C	1.125742	0.478880	0.421448
C133	C	0.459010	-0.245155	-0.187642
C134	C	0.792344	0.088178	0.145691
C135	C	1.125677	0.421511	0.479024
C136	C	0.412095	-0.245152	-0.187647
C137	C	0.745428	0.088181	0.145687
C138	C	1.078761	0.421515	0.479020
C139	C	0.388669	-0.216461	-0.216438
C140	C	0.722002	0.116872	0.116896
C141	C	1.055335	0.450205	0.450229
O142	O	0.337845	-0.269535	-0.163195
O143	O	0.671178	0.063798	0.170138
O144	O	1.004512	0.397131	0.503472
O145	O	0.337923	-0.163377	-0.269702
O146	O	0.671256	0.169956	0.063632
O147	O	1.004590	0.503289	0.396965
C148	C	0.125965	-0.187775	-0.245236
C149	C	0.459299	0.145559	0.088097
C150	C	0.792632	0.478892	0.421430
C151	C	0.102479	-0.216457	-0.216450
C152	C	0.435812	0.116877	0.116883
C153	C	0.769145	0.450210	0.450217
C154	C	0.125907	-0.245140	-0.187662
C155	C	0.459240	0.088193	0.145671
C156	C	0.792574	0.421527	0.479005
C157	C	0.055561	-0.216459	-0.216454
C158	C	0.388894	0.116875	0.116879
C159	C	0.722227	0.450208	0.450212
C160	C	0.032132	-0.187775	-0.245242
C161	C	0.365466	0.145558	0.088091
C162	C	0.698799	0.478891	0.421424
C163	C	0.055622	-0.159090	-0.274026
C164	C	0.388955	0.174243	0.059307
C165	C	0.722288	0.507577	0.392640
C166	C	0.102537	-0.159091	-0.274025
C167	C	0.435870	0.174242	0.059309
C168	C	0.769204	0.507575	0.392642
C169	C	0.102418	-0.273825	-0.158878
C170	C	0.435751	0.059508	0.174455
C171	C	0.769084	0.392841	0.507789
C172	C	0.055502	-0.273822	-0.158883
C173	C	0.388836	0.059511	0.174451
C174	C	0.722169	0.392845	0.507784
C175	C	0.032074	-0.245139	-0.187671
C176	C	0.365407	0.088195	0.145663
C177	C	0.698740	0.421528	0.478996
C178	C	0.649092	-0.333186	-0.216409
C179	C	0.982425	0.000147	0.116924
C180	C	1.315759	0.333480	0.450257
C181	C	0.649104	-0.383121	-0.216408
C182	C	0.982437	-0.049788	0.116925
C183	C	1.315771	0.283546	0.450259
C184	C	0.677892	-0.692732	-0.245226
C185	C	1.011225	-0.359399	0.088107
C186	C	1.344558	-0.026066	0.421440
C187	C	0.677940	-0.880405	-0.245253
C188	C	1.011274	-0.547072	0.088080
C189	C	1.344607	-0.213739	0.421413
O190	O	0.702350	-0.904643	-0.269728
O191	O	1.035683	-0.571310	0.063606
O192	O	1.369016	-0.237976	0.396939
N193	N	0.649237	-0.903906	-0.216497
N194	N	0.982570	-0.570573	0.116836
N195	N	1.315904	-0.237239	0.450170
C196	C	0.620517	-0.880485	-0.187734
C197	C	0.953850	-0.547152	0.145600
C198	C	1.287184	-0.213819	0.478933
O199	O	0.596101	-0.904780	-0.163279
O200	O	0.929434	-0.571447	0.170055
O201	O	1.262767	-0.238113	0.503388
C202	C	0.620466	-0.692813	-0.187709
C203	C	0.953800	-0.359480	0.145624
C204	C	1.287133	-0.026146	0.478957
C205	C	0.649175	-0.669315	-0.216464
C206	C	0.982508	-0.335982	0.116869
C207	C	1.315842	-0.002648	0.450202
C208	C	0.706598	-0.669234	-0.273979
C209	C	1.039931	-0.335901	0.059354
C210	C	1.373264	-0.002568	0.392687
C211	C	0.706587	-0.622319	-0.273971
C212	C	1.039920	-0.288985	0.059363
C213	C	1.373254	0.044348	0.392696
C214	C	0.677870	-0.598901	-0.245209
C215	C	1.011204	-0.265568	0.088125
C216	C	1.344537	0.067765	0.421458
C217	C	0.649164	-0.622400	-0.216456
C218	C	0.982498	-0.289066	0.116878
C219	C	1.315831	0.044267	0.450211
C220	C	0.591744	-0.669393	-0.158949
C221	C	0.925078	-0.336060	0.174385
C222	C	1.258411	-0.002727	0.507718
C223	C	0.591734	-0.622472	-0.158946
C224	C	0.925067	-0.289139	0.174387
C225	C	1.258400	0.044194	0.507721
C226	C	0.620442	-0.598974	-0.187701
C227	C	0.953776	-0.265641	0.145632
C228	C	1.287109	0.067692	0.478965
C229	C	0.620437	-0.552067	-0.187685
C230	C	0.953770	-0.218733	0.145648
C231	C	1.287103	0.114600	0.478982
N232	N	0.649140	-0.528566	-0.216441
N233	N	0.982474	-0.195233	0.116892
N234	N	1.315807	0.138100	0.450225
C235	C	0.677857	-0.551984	-0.245203
C236	C	1.011190	-0.218650	0.088130
C237	C	1.344524	0.114683	0.421463
C238	C	0.620546	-0.979016	-0.187748
C239	C	0.953880	-0.645683	0.145585
C240	C	1.287213	-0.312349	0.478919
C241	C	0.620559	-1.025934	-0.187753
C242	C	0.953893	-0.692600	0.145580
C243	C	1.287226	-0.359267	0.478913
C244	C	0.677982	-1.025851	-0.245274
C245	C	1.011316	-0.692517	0.088060
C246	C	1.344649	-0.359184	0.421393
C247	C	0.677971	-0.978932	-0.245266
C248	C	1.011305	-0.645599	0.088068
C249	C	1.344638	-0.312265	0.421401
C250	C	0.649250	-0.955515	-0.216504
C251	C	0.982583	-0.622182	0.116829
C252	C	1.315917	-0.288849	0.450162
C253	C	0.677833	-0.453458	-0.245183
C254	C	1.011166	-0.120124	0.088151
C255	C	1.344499	0.213209	0.421484
C256	C	0.677821	-0.406538	-0.245170
C257	C	1.011154	-0.073205	0.088163
C258	C	1.344487	0.260128	0.421497
C259	C	0.620396	-0.406625	-0.187651
C260	C	0.953729	-0.073292	0.145682
C261	C	1.287063	0.260041	0.479015
C262	C	0.620410	-0.453541	-0.187662
C263	C	0.953743	-0.120208	0.145671
C264	C	1.287076	0.213126	0.479004
C265	C	0.649129	-0.476956	-0.216431
C266	C	0.982463	-0.143623	0.116902
C267	C	1.315796	0.189711	0.450235
O268	O	0.596037	-0.527800	-0.163227
O269	O	0.929370	-0.194467	0.170106
O270	O	1.262703	0.138867	0.503440
O271	O	0.702263	-0.527681	-0.269662
O272	O	1.035596	-0.194347	0.063671
O273	O	1.368929	0.138986	0.397005
C274	C	0.677902	-0.739648	-0.245235
C275	C	1.011236	-0.406314	0.088098
C276	C	1.344569	-0.072981	0.421432
C277	C	0.649196	-0.763146	-0.216482
C278	C	0.982530	-0.429813	0.116851
C279	C	1.315863	-0.096479	0.450185
C280	C	0.620480	-0.739729	-0.187720
C281	C	0.953813	-0.406395	0.145613
C282	C	1.287146	-0.073062	0.478947
C283	C	0.649210	-0.810064	-0.216487
C284	C	0.982543	-0.476730	0.116846
C285	C	1.315876	-0.143397	0.450179
C286	C	0.677926	-0.833481	-0.245249
C287	C	1.011260	-0.500148	0.088084
C288	C	1.344593	-0.166814	0.421417
C289	C	0.706630	-0.809981	-0.274006
C290	C	1.039963	-0.476647	0.059328
C291	C	1.373297	-0.143314	0.392661
C292	C	0.706619	-0.763065	-0.273997
C293	C	1.039953	-0.429732	0.059336
C294	C	1.373286	-0.096398	0.392670
C295	C	0.591776	-0.763229	-0.158964
C296	C	0.925110	-0.429896	0.174370
C297	C	1.258443	-0.096562	0.507703
C298	C	0.591790	-0.810145	-0.158974
C299	C	0.925123	-0.476811	0.174359
C300	C	1.258456	-0.143478	0.507692
C301	C	0.620506	-0.833562	-0.187736
C302	C	0.953840	-0.500229	0.145597
C303	C	1.287173	-0.166895	0.478930
C304	C	0.766339	-0.216468	-0.216467
C305	C	1.099672	0.116866	0.116867
C306	C	1.433006	0.450199	0.450200
C307	C	0.816273	-0.216469	-0.216475
C308	C	1.149607	0.116864	0.116858
C309	C	1.482940	0.450197	0.450192
C310	C	0.649176	-0.216472	-0.333625
C311	C	0.982509	0.116861	-0.000292
C312	C	1.315843	0.450194	0.333041
C313	C	0.649183	-0.216476	-0.383560
C314	C	0.982516	0.116857	-0.050227
C315	C	1.315849	0.450191	0.283107
C316	C	0.649242	-0.099285	-0.216495
C317	C	0.982575	0.234048	0.116838
C318	C	1.315908	0.567381	0.450172
C319	C	0.649276	-0.049351	-0.216515
C320	C	0.982609	0.283982	0.116818
C321	C	1.315943	0.617316	0.450151
C322	C	0.620460	-0.245105	-0.740131
C323	C	0.953794	0.088228	-0.406797
C324	C	1.287127	0.421561	-0.073464
C325	C	0.620444	-0.245157	-0.552458
C326	C	0.953778	0.088176	-0.219124
C327	C	1.287111	0.421509	0.114209
O328	O	0.595979	-0.269584	-0.528179
O329	O	0.929313	0.063750	-0.194846
O330	O	1.262646	0.397083	0.138488
N331	N	0.649193	-0.216434	-0.529005
N332	N	0.982526	0.116899	-0.195672
N333	N	1.315859	0.450232	0.137662
C334	C	0.677945	-0.187694	-0.552474
C335	C	1.011278	0.145639	-0.219140
C336	C	1.344612	0.478972	0.114193
O337	O	0.702394	-0.163262	-0.528220
O338	O	1.035727	0.170072	-0.194886
O339	O	1.369060	0.503405	0.138447
C340	C	0.677959	-0.187641	-0.740146
C341	C	1.011292	0.145693	-0.406813
C342	C	1.344625	0.479026	-0.073479
C343	C	0.649212	-0.216369	-0.763596
C344	C	0.982545	0.116965	-0.430263
C345	C	1.315878	0.450298	-0.096929
C346	C	0.591715	-0.273831	-0.763581
C347	C	0.925049	0.059502	-0.430247
C348	C	1.258382	0.392836	-0.096914
C349	C	0.591721	-0.273819	-0.810496
C350	C	0.925055	0.059514	-0.477163
C351	C	1.258388	0.392847	-0.143830
C352	C	0.620473	-0.245082	-0.833962
C353	C	0.953806	0.088251	-0.500628
C354	C	1.287139	0.421584	-0.167295
C355	C	0.649218	-0.216357	-0.810512
C356	C	0.982551	0.116976	-0.477178
C357	C	1.315884	0.450310	-0.143845
C358	C	0.706708	-0.158899	-0.763614
C359	C	1.040042	0.174435	-0.430281
C360	C	1.373375	0.507768	-0.096947
C361	C	0.706708	-0.158887	-0.810535
C362	C	1.040042	0.174446	-0.477202
C363	C	1.373375	0.507780	-0.143868
C364	C	0.677961	-0.187615	-0.833985
C365	C	1.011295	0.145718	-0.500652
C366	C	1.344628	0.479052	-0.167318
C367	C	0.677975	-0.187609	-0.880892
C368	C	1.011308	0.145725	-0.547559
C369	C	1.344641	0.479058	-0.214226
N370	N	0.649226	-0.216332	-0.904345
N371	N	0.982560	0.117002	-0.571012
N372	N	1.315893	0.450335	-0.237678
C373	C	0.620475	-0.245069	-0.880880
C374	C	0.953809	0.088265	-0.547546
C375	C	1.287142	0.421598	-0.214213
C376	C	0.677937	-0.187725	-0.453943
C377	C	1.011270	0.145608	-0.120610
C378	C	1.344603	0.478942	0.212724
C379	C	0.677934	-0.187739	-0.407025
C380	C	1.011267	0.145594	-0.073692
C381	C	1.344601	0.478928	0.259641
C382	C	0.620432	-0.245202	-0.407012
C383	C	0.953766	0.088132	-0.073679
C384	C	1.287099	0.421465	0.259654
C385	C	0.620438	-0.245190	-0.453931
C386	C	0.953771	0.088144	-0.120598
C387	C	1.287104	0.421477	0.212736
C388	C	0.649188	-0.216448	-0.477396
C389	C	0.982522	0.116885	-0.144062
C390	C	1.315855	0.450219	0.189271
C391	C	0.620490	-0.245042	-0.979405
C392	C	0.953824	0.088291	-0.646072
C393	C	1.287157	0.421624	-0.312739
C394	C	0.620500	-0.245030	-1.026325
C395	C	0.953834	0.088304	-0.692992
C396	C	1.287167	0.421637	-0.359658
C397	C	0.678000	-0.187566	-1.026334
C398	C	1.011333	0.145768	-0.693001
C399	C	1.344667	0.479101	-0.359667
C400	C	0.677992	-0.187580	-0.979418
C401	C	1.011325	0.145753	-0.646085
C402	C	1.344659	0.479087	-0.312752
C403	C	0.649234	-0.216320	-0.955955
C404	C	0.982567	0.117014	-0.622622
C405	C	1.315900	0.450347	-0.289289
O406	O	0.702423	-0.163191	-0.905200
O407	O	1.035757	0.170142	-0.571867
O408	O	1.369090	0.503475	-0.238533
O409	O	0.596023	-0.269491	-0.905142
O410	O	0.929357	0.063843	-0.571808
O411	O	1.262690	0.397176	-0.238475
C412	C	0.620454	-0.245117	-0.693215
C413	C	0.953788	0.088216	-0.359882
C414	C	1.287121	0.421550	-0.026549
C415	C	0.649199	-0.216392	-0.669765
C416	C	0.982533	0.116942	-0.336432
C417	C	1.315866	0.450275	-0.003098
C418	C	0.677951	-0.187655	-0.693231
C419	C	1.011284	0.145679	-0.359897
C420	C	1.344617	0.479012	-0.026564
C421	C	0.649197	-0.216406	-0.622847
C422	C	0.982530	0.116928	-0.289514
C423	C	1.315863	0.450261	0.043819
C424	C	0.620446	-0.245142	-0.599382
C425	C	0.953779	0.088191	-0.266049
C426	C	1.287112	0.421524	0.067285
C427	C	0.591697	-0.273865	-0.622834
C428	C	0.925031	0.059468	-0.289501
C429	C	1.258364	0.392801	0.043832
C430	C	0.591703	-0.273854	-0.669750
C431	C	0.925037	0.059479	-0.336417
C432	C	1.258370	0.392813	-0.003083
C433	C	0.706699	-0.158932	-0.669778
C434	C	1.040032	0.174402	-0.336445
C435	C	1.373366	0.507735	-0.003111
C436	C	0.706691	-0.158946	-0.622863
C437	C	1.040024	0.174387	-0.289529
C438	C	1.373358	0.507721	0.043804
C439	C	0.677940	-0.187683	-0.599397
C440	C	1.011273	0.145650	-0.266064
C441	C	1.344606	0.478984	0.067270
C442	C	0.649171	-0.216423	-0.099725
C443	C	0.982504	0.116910	0.233609
C444	C	1.315838	0.450244	0.566942
C445	C	0.649251	-0.216293	-0.049790
C446	C	0.982585	0.117040	0.283543
C447	C	1.315918	0.450374	0.616876
H448	H	-0.094310	-0.268509	-0.164235
H449	H	0.239024	0.064825	0.169098
H450	H	0.572357	0.398158	0.502432
H451	H	0.701351	-0.164320	-0.473044
H452	H	1.034684	0.169014	-0.139710
H453	H	1.368017	0.502347	0.193623
H454	H	0.478094	-0.268509	-0.164205
H455	H	0.811428	0.064824	0.169129
H456	H	1.144761	0.398157	0.502462
H457	H	0.568294	-0.297247	-0.688839
H458	H	0.901628	0.036086	-0.355505
H459	H	1.234961	0.369420	-0.022172
Cl460	Cl	0.584337	-0.281174	-0.949916
Cl461	Cl	0.917671	0.052159	-0.616583
Cl462	Cl	1.251004	0.385493	-0.283250
Cl463	Cl	0.026160	-0.123033	-0.310218
Cl464	Cl	0.359493	0.210300	0.023115
Cl465	Cl	0.692826	0.543634	0.356449
H466	H	0.701347	-0.164350	-0.387936
H467	H	1.034681	0.168983	-0.054603
H468	H	1.368014	0.502316	0.278731
H469	H	0.121488	-0.297182	-0.135434
H470	H	0.454822	0.036151	0.197899
H471	H	0.788155	0.369484	0.531232
Cl472	Cl	0.025982	-0.309885	-0.122686
Cl473	Cl	0.359315	0.023448	0.210647
Cl474	Cl	0.692648	0.356782	0.543981
Cl475	Cl	0.714143	-0.151442	-1.055842
Cl476	Cl	1.047476	0.181892	-0.722509
Cl477	Cl	1.380809	0.515225	-0.389175
Cl478	Cl	0.742849	-0.122779	-0.734145
Cl479	Cl	1.076182	0.210554	-0.400812
Cl480	Cl	1.409515	0.543887	-0.067479
H481	H	0.701403	-0.164190	-0.960324
H482	H	1.034737	0.169143	-0.626991
H483	H	1.368070	0.502476	-0.293658
Cl484	Cl	0.555580	-0.309936	-0.839969
Cl485	Cl	0.888913	0.023397	-0.506636
Cl486	Cl	1.222246	0.356731	-0.173303
H487	H	0.729982	-0.688296	-0.297404
H488	H	1.063316	-0.354962	0.035930
H489	H	1.396649	-0.021629	0.369263
H490	H	0.568344	-0.603409	-0.135526
H491	H	0.901677	-0.270076	0.197808
H492	H	1.235010	0.063258	0.531141
H493	H	0.597029	-0.268582	-0.473021
H494	H	0.930362	0.064751	-0.139688
H495	H	1.263696	0.398085	0.193646
H496	H	0.730014	-0.829055	-0.297423
H497	H	1.063347	-0.495722	0.035910
H498	H	1.396680	-0.162388	0.369243
Cl499	Cl	0.166923	-0.123031	-0.310217
Cl500	Cl	0.500257	0.210303	0.023116
Cl501	Cl	0.833590	0.543636	0.356449
H502	H	-0.094199	-0.164424	-0.268701
H503	H	0.239135	0.168909	0.064632
H504	H	0.572468	0.502242	0.397966
Cl505	Cl	0.555669	-0.733797	-0.122804
Cl506	Cl	0.889003	-0.400464	0.210529
Cl507	Cl	1.222336	-0.067131	0.543863
H508	H	0.568412	-0.829273	-0.135554
H509	H	0.901746	-0.495939	0.197779
H510	H	1.235079	-0.162606	0.531112
H511	H	-0.179321	-0.164427	-0.268702
H512	H	0.154013	0.168906	0.064631
H513	H	0.487346	0.502240	0.397964
H514	H	0.701200	-0.387407	-0.268586
H515	H	1.034534	-0.054074	0.064748
H516	H	1.367867	0.279259	0.398081
Cl517	Cl	0.166739	-0.309878	-0.122661
Cl518	Cl	0.500072	0.023455	0.210672
Cl519	Cl	0.833405	0.356788	0.544006
Cl520	Cl	0.488599	-0.151725	-0.281414
Cl521	Cl	0.821932	0.181608	0.051919
Cl522	Cl	1.155265	0.514942	0.385253
Cl523	Cl	0.272803	-0.123031	-0.310211
Cl524	Cl	0.606136	0.210302	0.023122
Cl525	Cl	0.939469	0.543635	0.356455
H526	H	0.597023	-0.268601	-0.387899
H527	H	0.930356	0.064733	-0.054565
H528	H	1.263689	0.398066	0.278768
H529	H	-0.179417	-0.268515	-0.164249
H530	H	0.153916	0.064818	0.169084
H531	H	0.487249	0.398152	0.502418
Cl532	Cl	0.272623	-0.309882	-0.122665
Cl533	Cl	0.605957	0.023451	0.210669
Cl534	Cl	0.939290	0.356785	0.544002
Cl535	Cl	0.555649	-0.698922	-0.122799
Cl536	Cl	0.888983	-0.365589	0.210534
Cl537	Cl	1.222316	-0.032256	0.543868
Cl538	Cl	0.382568	-0.281225	-0.151467
Cl539	Cl	0.715901	0.052108	0.181866
Cl540	Cl	1.049234	0.385441	0.515199
Cl541	Cl	0.742857	-0.122812	-0.699270
Cl542	Cl	1.076190	0.210522	-0.365937
Cl543	Cl	1.409524	0.543855	-0.032604
H544	H	0.597091	-0.268425	-1.045416
H545	H	0.930424	0.064908	-0.712083
H546	H	1.263757	0.398241	-0.378749
H547	H	0.701216	-0.472517	-0.268612
H548	H	1.034549	-0.139183	0.064721
H549	H	1.367882	0.194150	0.398054
H550	H	0.729996	-0.743936	-0.297412
H551	H	1.063330	-0.410603	0.035921
H552	H	1.396663	-0.077270	0.369254
Cl553	Cl	0.714062	-0.949396	-0.281417
Cl554	Cl	1.047396	-0.616063	0.051916
Cl555	Cl	1.380729	-0.282730	0.385250
H556	H	0.597017	-0.387552	-0.164232
H557	H	0.930350	-0.054218	0.169101
H558	H	1.263683	0.279115	0.502434
H559	H	0.729963	-0.603189	-0.297387
H560	H	1.063296	-0.269856	0.035946
H561	H	1.396629	0.063477	0.369280
H562	H	0.701365	-1.044925	-0.268692
H563	H	1.034699	-0.711592	0.064641
H564	H	1.368032	-0.378258	0.397974
Cl565	Cl	0.584473	-1.055468	-0.151596
Cl566	Cl	0.917806	-0.722135	0.181737
Cl567	Cl	1.251140	-0.388802	0.515070
H568	H	0.597036	-0.472674	-0.164244
H569	H	0.930370	-0.139341	0.169089
H570	H	1.263703	0.193993	0.502423
H571	H	0.730119	-0.135480	-0.829637
H572	H	1.063452	0.197854	-0.496304
H573	H	1.396786	0.531187	-0.162971
H574	H	0.568300	-0.297232	-0.744480
H575	H	0.901633	0.036102	-0.411147
H576	H	1.234967	0.369435	-0.077814
H577	H	0.393087	-0.164417	-0.268665
H578	H	0.726421	0.168916	0.064669
H579	H	1.059754	0.502249	0.398002
Cl580	Cl	0.584434	-0.949585	-0.151588
Cl581	Cl	0.917768	-0.616251	0.181745
Cl582	Cl	1.251101	-0.282918	0.515078
H583	H	0.121656	-0.135734	-0.297467
H584	H	0.454989	0.197600	0.035866
H585	H	0.788323	0.530933	0.369199
H586	H	0.568289	-0.297266	-0.603721
H587	H	0.901622	0.036068	-0.270387
H588	H	1.234955	0.369401	0.062946
H589	H	0.730104	-0.135553	-0.603773
H590	H	1.063438	0.197781	-0.270440
H591	H	1.396771	0.531114	0.062893
