data_functionalizedCrystal
_audit_creation_method	'MofGen! by Chris Wilmer'
_symmetry_space_group_name_H-M	'P1'
_symmetry_Int_Tables_number	1
_symmetry_cell_setting	triclinic
loop_
_symmetry_equiv_pos_as_xyz
  x,y,z
_cell_length_a	12.759401
_cell_length_b	17.640280
_cell_length_c	12.759393
_cell_angle_alpha	78.768122
_cell_angle_beta	89.981504
_cell_angle_gamma	78.801088
loop_
_atom_site_label
_atom_site_type_symbol
_atom_site_fract_x
_atom_site_fract_y
_atom_site_fract_z
Zn1	Zn	1.690815	-0.314620	-0.509515
Zn2	Zn	2.190815	0.185380	-0.009515
Zn3	Zn	1.726240	-0.446817	-0.298344
Zn4	Zn	2.226240	0.053183	0.201656
Zn5	Zn	1.515128	-0.314662	-0.333843
Zn6	Zn	2.015128	0.185338	0.166157
Zn7	Zn	1.550620	-0.446756	-0.474002
Zn8	Zn	2.050620	0.053244	0.025998
O9	O	1.620701	-0.380714	-0.403926
O10	O	2.120701	0.119286	0.096074
O11	O	1.842537	-0.332165	-0.481509
O12	O	2.342537	0.167835	0.018491
O13	O	1.698207	-0.429329	-0.156021
O14	O	2.198207	0.070671	0.343979
O15	O	1.508755	-0.204049	-0.386865
O16	O	2.008755	0.295951	0.113135
O17	O	1.868564	-0.429289	-0.326362
O18	O	2.368564	0.070711	0.173638
O19	O	1.637831	-0.204019	-0.515931
O20	O	2.137831	0.295981	-0.015931
O21	O	1.543105	-0.332235	-0.182102
O22	O	2.043105	0.167765	0.317898
O23	O	1.372813	-0.332176	-0.352430
O24	O	1.872813	0.167824	0.147570
O25	O	1.569245	-0.429185	-0.625745
O26	O	2.069245	0.070815	-0.125745
O27	O	1.398888	-0.429226	-0.455404
O28	O	1.898888	0.070774	0.044596
O29	O	1.672246	-0.332106	-0.651837
O30	O	2.172246	0.167894	-0.151837
O31	O	1.732622	-0.557416	-0.291927
O32	O	2.232622	-0.057416	0.208073
O33	O	1.603595	-0.557371	-0.420982
O34	O	2.103595	-0.057371	0.079018
C35	C	1.347729	-0.380699	-0.403916
C36	C	1.847729	0.119301	0.096084
C37	C	1.230956	-0.380712	-0.403931
C38	C	1.730956	0.119288	0.096069
C39	C	1.675832	-0.586073	-0.348771
C40	C	2.175832	-0.086073	0.151229
C41	C	1.699514	-0.673926	-0.325211
C42	C	2.199514	-0.173926	0.174789
C43	C	1.189721	-0.431327	-0.457417
C44	C	1.689721	0.068673	0.042583
C45	C	1.079999	-0.431337	-0.457425
C46	C	1.579999	0.068663	0.042575
C47	C	1.052758	-0.330115	-0.350454
C48	C	1.552758	0.169885	0.149546
C49	C	1.162476	-0.330102	-0.350453
C50	C	1.662476	0.169898	0.149547
C51	C	1.205448	-0.489768	-0.519172
C52	C	1.705448	0.010232	-0.019172
C53	C	1.095727	-0.489778	-0.519181
C54	C	1.595727	0.010222	-0.019181
C55	C	1.441225	-0.962886	-0.583293
C56	C	1.941225	-0.462886	-0.083293
C57	C	1.463480	-1.045438	-0.561121
C58	C	1.963480	-0.545438	-0.061121
C59	C	1.597919	-1.045419	-0.426872
C60	C	2.097919	-0.545419	0.073128
C61	C	1.575680	-0.962866	-0.449037
C62	C	2.075680	-0.462866	0.050963
C63	C	1.497331	-0.921606	-0.527247
C64	C	1.997331	-0.421606	-0.027247
C65	C	1.631785	-0.921585	-0.392991
C66	C	2.131785	-0.421585	0.107009
C67	C	1.609543	-0.839039	-0.415150
C68	C	2.109543	-0.339039	0.084850
C69	C	1.531196	-0.797773	-0.493355
C70	C	2.031196	-0.297773	0.006645
C71	C	1.475089	-0.839060	-0.549406
C72	C	1.975089	-0.339060	-0.049406
C73	C	1.710129	-0.962847	-0.314775
C74	C	2.210129	-0.462847	0.185225
C75	C	1.766234	-0.921566	-0.258729
C76	C	2.266234	-0.421566	0.241271
C77	C	1.743998	-0.839018	-0.280893
C78	C	2.243998	-0.339018	0.219107
C79	C	1.665650	-0.797753	-0.359098
C80	C	2.165650	-0.297753	0.140902
C81	C	1.800105	-0.797732	-0.224841
C82	C	2.300105	-0.297732	0.275159
C83	C	1.777863	-0.715186	-0.247000
C84	C	2.277863	-0.215186	0.253000
C85	C	1.643408	-0.715207	-0.381257
C86	C	2.143408	-0.215207	0.118743
C87	C	1.894738	-0.380729	-0.403937
C88	C	2.394738	0.119271	0.096063
C89	C	2.011516	-0.380736	-0.403942
C90	C	2.511516	0.119264	0.096058
C91	C	1.620753	-0.380634	-0.677981
C92	C	2.120753	0.119366	-0.177981
C93	C	1.620775	-0.380600	-0.794767
C94	C	2.120775	0.119400	-0.294767
C95	C	1.565383	-0.174553	-0.459319
C96	C	2.065383	0.325447	0.040681
C97	C	1.541809	-0.086700	-0.482925
C98	C	2.041809	0.413300	0.017075
C99	C	1.674416	-0.330046	-0.863218
C100	C	2.174416	0.169954	-0.363218
C101	C	1.674433	-0.330017	-0.972949
C102	C	2.174433	0.169983	-0.472949
C103	C	1.567168	-0.431104	-0.945768
C104	C	2.067168	0.068896	-0.445768
C105	C	1.567145	-0.431128	-0.836040
C106	C	2.067145	0.068872	-0.336040
C107	C	1.736348	-0.271687	-0.878911
C108	C	2.236348	0.228313	-0.378911
C109	C	1.736365	-0.271658	-0.988643
C110	C	2.236365	0.228342	-0.488643
C111	C	1.620694	-0.380736	-0.130953
C112	C	2.120694	0.119264	0.369047
C113	C	1.620815	-0.380548	-0.014227
C114	C	2.120815	0.119452	0.485773
H115	H	1.196043	-0.288882	-0.306908
H116	H	1.696043	0.211118	0.193092
H117	H	1.513080	-0.730559	-0.511388
H118	H	2.013080	-0.230559	-0.011388
H119	H	1.082380	-0.550979	-0.480818
H120	H	1.582380	-0.050979	0.019182
F121	F	1.845056	-0.300365	-0.826718
F122	F	2.345056	0.199635	-0.326718
F123	F	0.979868	-0.276255	-0.293544
F124	F	1.479868	0.223745	0.206456
H125	H	1.728238	-1.030061	-0.296739
H126	H	2.228238	-0.530061	0.203261
F127	F	1.849617	-0.965486	-0.175495
F128	F	2.349617	-0.465486	0.324505
F129	F	1.357846	-0.918970	-0.666544
F130	F	1.857846	-0.418970	-0.166544
F131	F	1.681302	-1.089339	-0.343639
F132	F	2.181302	-0.589339	0.156361
F133	F	1.510094	-0.484876	-0.989704
F134	F	2.010094	0.015124	-0.489704
F135	F	1.677772	-0.195673	-1.053551
F136	F	2.177772	0.304327	-0.553551
H137	H	1.698128	-0.210475	-0.865588
H138	H	2.198128	0.289525	-0.365588
F139	F	1.848480	-0.293078	-1.021819
F140	F	2.348480	0.206922	-0.521819
H141	H	1.417799	-1.079045	-0.606779
H142	H	1.917799	-0.579045	-0.106779
H143	H	1.230869	-0.473444	-0.604961
H144	H	1.730869	0.026556	-0.104961
F145	F	1.270335	-0.565754	-0.460574
F146	F	1.770335	-0.065754	0.039426
H147	H	1.863889	-0.831338	-0.161155
H148	H	2.363889	-0.331338	0.338845
H149	H	1.823549	-0.681575	-0.201360
H150	H	2.323549	-0.181575	0.298640
H151	H	1.411297	-0.805464	-0.613101
H152	H	1.911297	-0.305464	-0.113101
F153	F	1.043608	-0.461219	-0.627950
F154	F	1.543608	0.038781	-0.127950
H155	H	1.523461	-0.472291	-0.780311
H156	H	2.023461	0.027709	-0.280311
H157	H	1.579616	-0.681611	-0.444952
H158	H	2.079616	-0.181611	0.055048
