data_functionalizedCrystal
_audit_creation_method	'MofGen! by Chris Wilmer'
_symmetry_space_group_name_H-M	'P1'
_symmetry_Int_Tables_number	1
_symmetry_cell_setting	triclinic
loop_
_symmetry_equiv_pos_as_xyz
  x,y,z
_cell_length_a	12.827893
_cell_length_b	12.827892
_cell_length_c	18.215399
_cell_angle_alpha	89.975972
_cell_angle_beta	89.982296
_cell_angle_gamma	90.015362
loop_
_atom_site_label
_atom_site_type_symbol
_atom_site_fract_x
_atom_site_fract_y
_atom_site_fract_z
Zn1	Zn	1.597653	-0.416045	-0.416094
Zn2	Zn	1.597552	-0.590804	-0.293036
Zn3	Zn	1.422900	-0.416077	-0.293046
Zn4	Zn	1.422880	-0.590744	-0.416066
O5	O	1.510246	-0.503417	-0.354561
O6	O	1.743876	-0.439238	-0.399778
O7	O	1.574350	-0.567665	-0.190053
O8	O	1.446132	-0.269837	-0.309385
O9	O	1.743802	-0.567633	-0.309368
O10	O	1.574522	-0.269813	-0.399788
O11	O	1.446034	-0.439294	-0.190060
O12	O	1.276661	-0.439236	-0.309357
O13	O	1.446098	-0.567531	-0.519054
O14	O	1.276647	-0.567563	-0.399739
O15	O	1.574504	-0.439180	-0.519075
O16	O	1.574331	-0.737032	-0.309340
O17	O	1.446000	-0.736988	-0.399730
C18	C	1.238736	-0.503397	-0.354547
C19	C	1.122583	-0.503414	-0.354558
C20	C	0.950734	-0.439848	-0.309926
C21	C	1.070784	-0.439829	-0.309913
C22	C	1.510181	-0.774927	-0.354547
C23	C	1.510249	-0.891081	-0.354566
C24	C	1.446877	-1.063005	-0.309829
C25	C	1.446806	-0.942954	-0.309808
C26	C	1.782816	-0.503438	-0.354575
C27	C	1.898970	-0.503447	-0.354581
C28	C	1.510310	-0.503345	-0.546514
C29	C	1.510337	-0.503315	-0.628312
C30	C	1.510340	-0.230847	-0.354590
C31	C	1.510381	-0.114694	-0.354603
C32	C	1.577222	-0.436420	-0.816519
C33	C	1.577234	-0.436389	-0.893377
C34	C	1.443526	-0.570048	-0.893344
C35	C	1.443509	-0.570072	-0.816487
C36	C	1.510363	-0.503260	-0.778076
C37	C	1.510392	-0.503205	-0.931792
C38	C	1.510406	-0.503173	-1.015126
C39	C	1.510349	-0.503291	-0.694737
C40	C	1.510243	-0.503414	-0.163354
C41	C	1.510418	-0.503150	-0.081556
H42	H	1.115300	-0.385383	-0.271680
C43	C	1.650751	-0.362920	-0.774266
C44	C	1.732775	-0.408217	-0.721433
C45	C	1.806304	-0.334713	-0.679184
C46	C	1.797809	-0.215911	-0.689767
C47	C	1.715781	-0.170608	-0.742602
C48	C	1.642252	-0.244112	-0.784851
H49	H	1.739066	-0.496167	-0.713597
H50	H	1.867026	-0.368250	-0.640072
H51	H	1.852239	-0.161499	-0.658491
H52	H	1.709490	-0.082658	-0.750438
H53	H	1.581530	-0.210575	-0.823963
C54	C	1.062462	-0.576980	-0.406211
C55	C	0.987370	-0.658910	-0.374184
C56	C	0.927239	-0.732476	-0.425837
C57	C	0.942200	-0.724113	-0.509516
C58	C	1.017296	-0.642180	-0.541548
C59	C	1.077426	-0.568614	-0.489895
H60	H	0.976291	-0.665103	-0.312235
H61	H	0.871648	-0.793128	-0.402124
H62	H	0.897688	-0.778571	-0.547753
H63	H	1.028374	-0.635986	-0.603497
H64	H	1.133017	-0.507962	-0.513607
H65	H	1.564692	-1.070072	-0.392924
H66	H	1.392441	-0.898503	-0.271472
H67	H	1.389099	-0.624447	-0.924628
H68	H	1.631676	-0.381960	-0.924674
C69	C	1.373498	-1.123279	-0.258060
C70	C	1.418943	-1.198357	-0.200373
C71	C	1.345562	-1.258630	-0.148603
C72	C	1.226735	-1.243825	-0.154521
C73	C	1.181284	-1.168744	-0.212211
C74	C	1.254665	-1.108471	-0.263980
H75	H	1.506911	-1.209319	-0.195991
H76	H	1.379209	-1.314209	-0.105898
H77	H	1.172414	-1.288442	-0.116198
H78	H	1.093316	-1.157782	-0.216593
H79	H	1.221018	-1.052891	-0.306686
C80	C	1.369957	-0.643602	-0.774198
C81	C	1.251164	-0.635063	-0.784757
C82	C	1.177610	-0.708585	-0.742469
C83	C	1.222849	-0.790647	-0.689621
C84	C	1.341647	-0.799189	-0.679059
C85	C	1.415201	-0.725667	-0.721347
H86	H	1.217671	-0.574314	-0.823880
H87	H	1.089667	-0.702261	-0.750288
H88	H	1.168399	-0.845072	-0.658317
H89	H	1.375141	-0.859939	-0.639936
H90	H	1.503144	-0.731991	-0.713528
C91	C	0.890544	-0.366303	-0.258291
C92	C	0.815512	-0.284402	-0.290339
C93	C	0.755322	-0.210854	-0.238704
C94	C	0.770165	-0.219209	-0.155020
C95	C	0.845200	-0.301114	-0.122967
C96	C	0.905389	-0.374661	-0.174603
H97	H	0.804521	-0.278214	-0.352291
H98	H	0.699776	-0.150223	-0.262431
H99	H	0.725609	-0.164765	-0.116796
H100	H	0.856190	-0.307302	-0.061015
H101	H	0.960936	-0.435293	-0.150875
C102	C	1.583704	-0.951116	-0.406357
C103	C	1.665751	-1.026137	-0.374484
C104	C	1.739207	-1.086181	-0.426275
C105	C	1.730615	-1.071204	-0.509939
C106	C	1.648565	-0.996180	-0.541816
C107	C	1.575109	-0.936136	-0.490025
H108	H	1.672114	-1.037226	-0.312548
H109	H	1.799946	-1.141719	-0.402677
H110	H	1.784991	-1.115653	-0.548277
H111	H	1.642202	-0.985090	-0.603752
H112	H	1.514370	-0.880598	-0.513622
H113	H	0.943529	-0.557879	-0.392806
