data_functionalizedCrystal
_audit_creation_method	'MofGen! by Chris Wilmer'
_symmetry_space_group_name_H-M	'P1'
_symmetry_Int_Tables_number	1
_symmetry_cell_setting	triclinic
loop_
_symmetry_equiv_pos_as_xyz
  x,y,z
_cell_length_a	18.050589
_cell_length_b	18.050591
_cell_length_c	19.805399
_cell_angle_alpha	90.024639
_cell_angle_beta	89.972193
_cell_angle_gamma	89.983460
loop_
_atom_site_label
_atom_site_type_symbol
_atom_site_fract_x
_atom_site_fract_y
_atom_site_fract_z
Zn1	Zn	-0.295756	-1.135359	-0.382810
Zn2	Zn	-0.419948	-1.135279	-0.269621
Zn3	Zn	-0.295768	-1.011171	-0.269625
Zn4	Zn	-0.419900	-1.011143	-0.382758
O5	O	-0.357843	-1.073238	-0.326204
O6	O	-0.312245	-1.239273	-0.367816
O7	O	-0.403500	-1.118793	-0.174905
O8	O	-0.191841	-1.027690	-0.284662
O9	O	-0.403489	-1.239214	-0.284656
O10	O	-0.191833	-1.118931	-0.367819
O11	O	-0.312265	-1.027611	-0.174908
O12	O	-0.312219	-0.907242	-0.284612
O13	O	-0.403407	-1.027643	-0.477482
O14	O	-0.403418	-0.907222	-0.367730
O15	O	-0.312199	-1.118904	-0.477520
O16	O	-0.523866	-1.118767	-0.284606
O17	O	-0.523831	-1.027565	-0.367727
C18	C	-0.357815	-0.880286	-0.326166
C19	C	-0.357821	-0.797740	-0.326166
C20	C	-0.550795	-1.073174	-0.326175
C21	C	-0.633341	-1.073215	-0.326186
C22	C	-0.357796	-1.073280	-0.502746
C23	C	-0.357776	-1.073297	-0.577978
C24	C	-0.882158	-1.122940	-0.281060
C25	C	-0.832822	-1.055181	-0.264429
C26	C	-0.930461	-1.073308	-0.326238
C27	C	-0.832715	-1.141017	-0.342811
C28	C	-0.784476	-1.073266	-0.326211
C29	C	-0.882212	-1.005514	-0.309575
C30	C	-0.882110	-1.091396	-0.387987
C31	C	-0.832796	-1.023590	-0.371379
C32	C	-1.014559	-1.073334	-0.326252
C33	C	-0.700379	-1.073233	-0.326197
C34	C	-0.164137	-1.073322	-0.326247
C35	C	-0.081591	-1.073358	-0.326265
C36	C	-0.357871	-1.266944	-0.326241
C37	C	-0.357883	-1.349489	-0.326258
C38	C	-0.308169	-0.598279	-0.281070
C39	C	-0.375907	-0.548867	-0.264412
C40	C	-0.357844	-0.646610	-0.326197
C41	C	-0.290130	-0.548940	-0.342853
C42	C	-0.357859	-0.500625	-0.326225
C43	C	-0.425616	-0.598285	-0.309506
C44	C	-0.339794	-0.598362	-0.387976
C45	C	-0.407578	-0.548973	-0.371341
C46	C	-0.357834	-0.730708	-0.326179
C47	C	-0.357877	-0.416528	-0.326243
C48	C	-0.310282	-1.120818	-0.613343
C49	C	-0.310260	-1.120826	-0.684032
C50	C	-0.357737	-1.073316	-0.719354
C51	C	-0.405234	-1.025790	-0.683984
C52	C	-0.405251	-1.025779	-0.613297
C53	C	-0.405165	-1.025832	-0.969057
C54	C	-0.405145	-1.025848	-1.039750
C55	C	-0.310174	-1.120878	-1.039793
C56	C	-0.310191	-1.120868	-0.969105
C57	C	-0.357684	-1.073339	-0.933742
C58	C	-0.357706	-1.073331	-0.857093
C59	C	-0.357720	-1.073328	-0.796001
C60	C	-0.357836	-1.073239	-0.150348
C61	C	-0.357646	-1.073365	-0.075116
H62	H	-0.903832	-1.164877	-0.242836
H63	H	-0.324495	-0.620120	-0.440194
Br64	Br	-0.194677	-0.512803	-0.366312
H65	H	-0.271622	-1.159509	-0.584589
Br66	Br	-0.521101	-0.634256	-0.285945
Br67	Br	-0.477681	-0.513113	-0.434970
H68	H	-0.443888	-0.987104	-0.712749
Br69	Br	-0.401374	-0.512632	-0.177355
H70	H	-0.811171	-1.039859	-0.212197
H71	H	-0.271587	-1.159524	-0.712823
H72	H	-0.271533	-1.159558	-0.940350
H73	H	-0.903861	-0.948220	-0.295487
Br74	Br	-0.918229	-1.116966	-0.475018
Br75	Br	-0.469706	-0.961280	-0.565300
H76	H	-0.271500	-1.159576	-1.068594
H77	H	-0.443808	-0.987156	-1.068507
H78	H	-0.443847	-0.987142	-0.940273
H79	H	-0.811259	-0.981552	-0.409574
H80	H	-0.810974	-1.198294	-0.356840
H81	H	-0.266207	-0.619928	-0.242867
