data_functionalizedCrystal
_audit_creation_method	'MofGen! by Chris Wilmer'
_symmetry_space_group_name_H-M	'P1'
_symmetry_Int_Tables_number	1
_symmetry_cell_setting	triclinic
loop_
_symmetry_equiv_pos_as_xyz
  x,y,z
_cell_length_a	10.686220
_cell_length_b	11.169416
_cell_length_c	10.686551
_cell_angle_alpha	94.403259
_cell_angle_beta	90.308082
_cell_angle_gamma	85.608230
loop_
_atom_site_label
_atom_site_type_symbol
_atom_site_fract_x
_atom_site_fract_y
_atom_site_fract_z
Zn1	Zn	1.972313	0.292597	-0.562399
Zn2	Zn	1.956103	0.509824	-0.352650
Zn3	Zn	1.746435	0.323298	-0.368718
Zn4	Zn	1.762533	0.507392	-0.578428
O5	O	1.859346	0.408278	-0.465549
O6	O	2.145704	0.309582	-0.521143
O7	O	1.914769	0.498948	-0.179237
O8	O	1.776445	0.151272	-0.394427
O9	O	2.133794	0.469178	-0.367041
O10	O	1.942397	0.128715	-0.536723
O11	O	1.760726	0.361908	-0.191042
O12	O	1.573029	0.359550	-0.409969
O13	O	1.803882	0.465033	-0.751846
O14	O	1.584857	0.494803	-0.564042
O15	O	1.958007	0.307224	-0.740070
O16	O	1.930379	0.677456	-0.382584
O17	O	1.788164	0.675669	-0.548461
C18	C	1.859296	0.720107	-0.465543
C19	C	1.859392	0.853497	-0.465574
C20	C	1.533427	0.430245	-0.490489
C21	C	1.394000	0.439669	-0.501188
C22	C	1.884549	0.382432	-0.792748
C23	C	1.895288	0.371418	-0.932180
C24	C	2.186538	0.386227	-0.440512
C25	C	2.325967	0.376830	-0.429843
C26	C	1.859433	0.095227	-0.465579
C27	C	1.859470	-0.038177	-0.465592
C28	C	1.834314	0.433932	-0.139617
C29	C	1.823817	0.444591	-0.000166
H30	H	1.345574	0.500689	-0.570453
H31	H	1.754415	0.515667	-0.951701
O32	O	1.383519	0.304026	-0.347102
C33	C	1.357713	0.164933	-0.189296
C34	C	1.292364	0.247357	-0.282929
H35	H	1.284046	0.119075	-0.137406
H36	H	1.413941	0.220982	-0.118876
H37	H	1.423552	0.093653	-0.242361
H38	H	1.226465	0.318651	-0.229970
H39	H	1.236216	0.191228	-0.353347
H40	H	1.964704	0.300345	-0.980651
