data_functionalizedCrystal
_audit_creation_method	'MofGen! by Chris Wilmer'
_symmetry_space_group_name_H-M	'P1'
_symmetry_Int_Tables_number	1
_symmetry_cell_setting	triclinic
loop_
_symmetry_equiv_pos_as_xyz
  x,y,z
_cell_length_a	6.817900
_cell_length_b	15.301126
_cell_length_c	13.212919
_cell_angle_alpha	89.233616
_cell_angle_beta	106.298290
_cell_angle_gamma	104.177575
loop_
_atom_site_label
_atom_site_type_symbol
_atom_site_fract_x
_atom_site_fract_y
_atom_site_fract_z
V1	V	-4.045455	-0.098197	-0.325776
O2	O	-4.029022	0.032025	-0.319248
O3	O	-4.000296	-0.220970	-0.323862
O4	O	-4.003631	-0.084705	-0.467715
O5	O	-4.025664	-0.105184	-0.174399
V6	V	-4.527810	-0.084037	-0.307632
O7	O	-4.309274	-0.129259	-0.365577
O8	O	-4.714189	-0.052975	-0.267832
O9	O	-4.349762	0.038736	-0.309546
O10	O	-4.661639	-0.214259	-0.314160
O11	O	-4.664998	-0.077050	-0.459009
O12	O	-4.346427	-0.097529	-0.165693
C13	C	-3.845873	-0.251274	-0.318804
C14	C	-3.890281	-0.351565	-0.318185
C15	C	-3.850126	-0.077454	-0.502301
C16	C	-3.897236	-0.067235	-0.618339
C17	C	-4.093624	-0.402850	-0.323112
C18	C	-4.135341	-0.497084	-0.322537
C19	C	-3.973710	-0.540032	-0.317027
C20	C	-3.770352	-0.488741	-0.312102
C21	C	-3.728641	-0.394509	-0.312685
C22	C	-3.857303	-0.685151	-0.310885
C23	C	-3.899015	-0.779390	-0.310300
C24	C	-4.264003	-0.787726	-0.320737
C25	C	-4.222292	-0.693494	-0.321320
C26	C	-4.018935	-0.642209	-0.316393
C27	C	-4.072222	-0.210739	-0.866631
C28	C	-4.116488	-0.201142	-0.975659
C29	C	-4.030050	-0.038445	-0.945428
C30	C	-3.985784	-0.048042	-0.836399
C31	C	-4.006870	-0.134192	-0.797005
C32	C	-3.962588	-0.143788	-0.687974
C33	C	-3.876166	0.018908	-0.657745
C34	C	-3.920432	0.028505	-0.766774
C35	C	-4.167527	0.069035	-0.314602
C36	C	-4.102357	0.169326	-0.315227
C37	C	-4.163274	-0.104784	-0.131101
C38	C	-4.095403	-0.114998	-0.015062
H39	H	-4.300920	-0.538836	-0.326551
H40	H	-3.767413	-0.814357	-0.305844
H41	H	-4.353906	-0.658528	-0.325801
H42	H	-4.225243	-0.367888	-0.327590
O43	O	-3.509318	-0.339195	-0.307377
H44	H	-3.507473	-0.266456	-0.308723
O45	O	-4.094924	-0.303651	-0.824130
H46	H	-4.213256	-0.314956	-0.779152
O47	O	-4.186973	-0.283701	-1.050762
H48	H	-4.072764	-0.280175	-1.097180
O49	O	-4.007375	0.054463	-0.987937
H50	H	-3.954524	0.106084	-0.921207
O51	O	-3.985329	-0.236701	-0.645475
H52	H	-4.038232	-0.288316	-0.712213
O53	O	-3.637969	-0.629831	-0.305565
H54	H	-3.532575	-0.675524	-0.301622
H55	H	-3.822926	0.081239	-0.601042
O56	O	-4.483348	-0.843033	-0.326061
H57	H	-4.485213	-0.915775	-0.324745
H58	H	-3.903279	0.098646	-0.798865
O59	O	-3.596021	-0.535061	-0.306172
H60	H	-3.572568	-0.573990	-0.234153
