data_functionalizedCrystal
_audit_creation_method	'MofGen! by Chris Wilmer'
_symmetry_space_group_name_H-M	'P1'
_symmetry_Int_Tables_number	1
_symmetry_cell_setting	triclinic
loop_
_symmetry_equiv_pos_as_xyz
  x,y,z
_cell_length_a	8.597187
_cell_length_b	8.559649
_cell_length_c	9.730223
_cell_angle_alpha	89.996892
_cell_angle_beta	82.294925
_cell_angle_gamma	77.625018
loop_
_atom_site_label
_atom_site_type_symbol
_atom_site_fract_x
_atom_site_fract_y
_atom_site_fract_z
O1	O	2.053775	0.238058	-0.357476
O2	O	1.594633	0.256315	-0.303111
O3	O	1.864655	0.015217	-0.335080
O4	O	1.783754	0.479156	-0.325507
O5	O	1.864640	0.015210	-0.106498
O6	O	1.594619	0.256308	-0.074529
O7	O	2.053761	0.238051	-0.128895
Zn8	Zn	1.824187	0.247179	-0.065420
Zn9	Zn	1.824207	0.247188	-0.366586
O10	O	1.783739	0.479150	-0.096925
C11	C	1.536390	0.254350	-0.181924
C12	C	1.362867	0.248486	-0.161378
C13	C	1.870779	-0.044221	-0.221517
C14	C	1.889028	-0.221315	-0.223684
C15	C	2.112004	0.240016	-0.250084
C16	C	2.285527	0.245880	-0.270639
C17	C	1.777615	0.538587	-0.210491
C18	C	1.759366	0.715682	-0.208333
N19	N	1.824186	0.247172	0.140117
N20	N	1.824222	0.247182	-0.572124
C21	C	1.943782	0.140459	0.197883
C22	C	1.943797	0.140460	0.341765
C23	C	1.704614	0.353900	0.370101
C24	C	1.704593	0.353890	0.226223
H25	H	1.352070	0.248137	-0.379900
H26	H	2.041159	0.053561	0.127778
H27	H	1.296327	0.246248	-0.052124
H28	H	2.013999	-0.302859	-0.238477
H29	H	1.634386	-0.202766	-0.193524
H30	H	2.041182	0.053563	0.388793
O31	O	1.575595	0.468983	0.163895
H32	H	1.580560	0.593646	0.190883
O33	O	1.575643	0.469019	0.462968
H34	H	1.595759	0.451114	0.572720
