data_functionalizedCrystal
_audit_creation_method	'MofGen! by Chris Wilmer'
_symmetry_space_group_name_H-M	'P1'
_symmetry_Int_Tables_number	1
_symmetry_cell_setting	triclinic
loop_
_symmetry_equiv_pos_as_xyz
  x,y,z
_cell_length_a	18.366186
_cell_length_b	19.288864
_cell_length_c	19.288868
_cell_angle_alpha	83.136987
_cell_angle_beta	90.006967
_cell_angle_gamma	90.012929
loop_
_atom_site_label
_atom_site_type_symbol
_atom_site_fract_x
_atom_site_fract_y
_atom_site_fract_z
O1	O	0.060782	0.921344	0.086651
O2	O	0.060732	0.719083	0.098340
O3	O	0.060755	0.826056	-0.008635
O4	O	0.060759	0.814370	0.193626
O5	O	-0.060344	0.826059	-0.008645
O6	O	-0.060367	0.719086	0.098329
O7	O	-0.060317	0.921346	0.086641
Zn8	Zn	-0.079569	0.820216	0.092483
Zn9	Zn	0.079984	0.820213	0.092497
O10	O	-0.060340	0.814373	0.193615
C11	C	0.000176	0.693208	0.097959
C12	C	0.000157	0.616104	0.096830
N13	N	-0.188460	0.820224	0.092474
N14	N	0.188875	0.820211	0.092501
C15	C	0.000170	0.571409	0.159597
C16	C	0.000178	0.498962	0.158537
C17	C	0.000188	0.471213	0.094705
C18	C	0.000171	0.515919	0.031929
C19	C	0.000155	0.588364	0.032991
C20	C	0.042638	0.362950	0.044529
C21	C	0.042657	0.290505	0.043469
C22	C	0.000232	0.247768	0.091425
C23	C	-0.042204	0.277482	0.140452
C24	C	-0.042220	0.349927	0.141515
C25	C	0.000204	0.392659	0.093545
C26	C	0.000252	0.124516	0.153047
C27	C	0.000256	0.052068	0.151984
C28	C	0.000256	0.069027	0.025374
C29	C	0.000245	0.141473	0.026439
C30	C	0.000247	0.169213	0.090277
C31	C	0.226986	0.867663	0.045225
C32	C	0.303214	0.867669	0.045224
C33	C	0.341328	0.820211	0.092492
C34	C	0.303209	0.772756	0.139777
C35	C	0.226982	0.772756	0.139782
C36	C	0.462080	0.756924	0.101637
C37	C	0.538305	0.756923	0.101627
C38	C	0.576436	0.820212	0.092481
C39	C	0.538332	0.883504	0.083330
C40	C	0.462106	0.883504	0.083335
C41	C	0.423983	0.820206	0.092492
C42	C	0.697201	0.867674	0.045201
C43	C	0.773430	0.867681	0.045204
C44	C	0.773424	0.772762	0.139754
C45	C	0.697196	0.772761	0.139754
C46	C	0.659089	0.820216	0.092474
C47	C	0.000206	0.825681	-0.034516
C48	C	0.000207	0.824551	-0.111620
C49	C	0.000240	0.947221	0.087022
C50	C	0.000264	1.024325	0.088151
C51	C	0.000211	0.814748	0.219497
C52	C	0.000214	0.815878	0.296600
C53	C	0.066217	0.824027	0.852170
C54	C	0.066220	0.822961	0.779723
C55	C	0.000209	0.822432	0.743489
C56	C	-0.065810	0.822952	0.779708
C57	C	-0.065811	0.824011	0.852154
C58	C	-0.050354	0.861436	0.623259
C59	C	-0.050351	0.860380	0.550814
C60	C	0.000209	0.819160	0.520042
C61	C	0.050777	0.779005	0.561722
C62	C	0.050776	0.780064	0.634168
C63	C	0.000202	0.821282	0.664933
C64	C	0.066226	0.817479	0.405277
C65	C	0.066226	0.816408	0.332830
C66	C	-0.065806	0.816406	0.332815
C67	C	-0.065804	0.817470	0.405262
C68	C	0.000214	0.818010	0.441488
H69	H	0.000173	0.593990	0.211580
H70	H	0.431085	0.935038	0.075886
O71	O	0.099988	0.741097	0.674573
C72	C	0.226752	0.717980	0.699933
C73	C	0.171100	0.762152	0.654114
H74	H	0.284258	0.734997	0.683419
H75	H	0.219162	0.660471	0.693346
H76	H	0.218028	0.725803	0.756995
H77	H	0.179789	0.754389	0.597035
H78	H	0.178704	0.819645	0.660761
H79	H	0.119981	0.815978	0.303349
H80	H	0.666164	0.734118	0.178248
H81	H	-0.076752	0.242686	0.179502
H82	H	0.195952	0.734114	0.178280
H83	H	-0.119553	0.815970	0.303314
H84	H	0.000186	0.462564	0.209651
O85	O	0.083894	0.261760	-0.004220
C86	C	0.168084	0.282323	-0.100284
C87	C	0.121405	0.314966	-0.046323
H88	H	0.198437	0.325323	-0.134329
H89	H	0.131408	0.252923	-0.134486
H90	H	0.209007	0.244542	-0.071948
H91	H	0.080478	0.352776	-0.074601
H92	H	0.158127	0.344323	-0.012123
H93	H	0.569323	0.705387	0.109070
O94	O	0.000214	0.151353	0.215117
C95	C	0.000256	0.126888	0.340582
C96	C	0.000283	0.096406	0.270338
H97	H	0.000327	0.082479	0.385247
H98	H	-0.050440	0.160339	0.344287
H99	H	0.050919	0.160422	0.344212
H100	H	-0.050346	0.062840	0.266660
H101	H	0.051013	0.062995	0.266663
O102	O	0.083898	0.404528	-0.001961
C103	C	0.181221	0.488689	-0.018361
C104	C	0.134539	0.441648	0.034362
H105	H	0.222186	0.518703	0.010985
H106	H	0.144546	0.527146	-0.051515
H107	H	0.211525	0.455001	-0.053593
H108	H	0.104229	0.475280	0.069639
H109	H	0.171252	0.403187	0.067466
O110	O	-0.083510	0.378682	0.189157
C111	C	-0.167655	0.358126	0.285261
C112	C	-0.120936	0.325471	0.231335
H113	H	-0.197914	0.315120	0.319385
H114	H	-0.208646	0.395862	0.256965
H115	H	-0.130944	0.387575	0.319386
H116	H	-0.157590	0.295987	0.197194
H117	H	-0.079939	0.287773	0.259674
O118	O	-0.130001	0.824552	0.887221
C119	C	-0.260956	0.824388	0.879568
C120	C	-0.188313	0.823791	0.839766
H121	H	-0.308120	0.823758	0.841220
H122	H	-0.264299	0.873495	0.906956
H123	H	-0.264223	0.776298	0.920011
H124	H	-0.184998	0.871847	0.799289
H125	H	-0.185001	0.774652	0.812426
O126	O	0.000367	0.008579	0.212915
C127	C	0.063152	-0.082999	0.285212
C128	C	0.063107	-0.033799	0.216174
H129	H	0.113880	-0.117264	0.287876
H130	H	0.012513	-0.117407	0.287893
H131	H	0.063118	-0.050708	0.331005
H132	H	0.063167	-0.066035	0.170342
H133	H	0.113742	0.000612	0.213554
H134	H	0.666174	0.906317	0.006704
H135	H	0.091947	0.745440	0.536670
H136	H	0.431040	0.705383	0.109088
H137	H	0.000309	0.046435	-0.026600
H138	H	0.334245	0.734116	0.178264
O139	O	0.000152	0.489083	-0.030139
C140	C	0.000194	0.513547	-0.155604
C141	C	0.000203	0.544030	-0.085360
H142	H	0.000251	0.557957	-0.200268
H143	H	-0.050488	0.480057	-0.159319
H144	H	0.050872	0.480053	-0.159223
H145	H	-0.050440	0.577556	-0.081693
H146	H	0.050919	0.577481	-0.081674
O147	O	0.130410	0.824512	0.887256
C148	C	0.261365	0.824445	0.879616
C149	C	0.188720	0.823882	0.839795
H150	H	0.308527	0.823951	0.841259
H151	H	0.264707	0.776330	0.920021
H152	H	0.264636	0.873528	0.907049
H153	H	0.185400	0.774831	0.812319
H154	H	0.185408	0.872030	0.799429
O155	O	0.000246	0.631855	-0.027939
C156	C	0.062996	0.723481	-0.100228
C157	C	0.062973	0.674277	-0.031192
H158	H	0.113713	0.757782	-0.102887
H159	H	0.012346	0.757854	-0.102910
H160	H	0.062966	0.691193	-0.146023
H161	H	0.063028	0.706510	0.014642
H162	H	0.113618	0.639902	-0.028571
H163	H	0.119975	0.822530	0.750236
H164	H	0.119982	0.817914	0.434774
O165	O	0.340132	0.913790	-0.000772
C166	C	0.332100	1.007951	-0.094535
C167	C	0.290203	0.955749	-0.042493
H168	H	0.291751	1.041899	-0.128269
H169	H	0.367751	0.978175	-0.129268
H170	H	0.367824	1.042459	-0.064555
H171	H	0.254439	0.921228	-0.072416
H172	H	0.254598	0.985569	-0.007760
O173	O	0.000273	0.184796	-0.034599
C174	C	0.000231	0.193968	-0.160288
C175	C	0.000219	0.144827	-0.091212
H176	H	0.000172	0.161673	-0.206078
H177	H	0.050915	0.228316	-0.162999
H178	H	-0.050444	0.228303	-0.162921
H179	H	0.050860	0.110447	-0.088532
H180	H	-0.050499	0.110526	-0.088529
H181	H	0.195962	0.906306	0.006728
O182	O	0.575379	0.944982	0.074600
C183	C	0.661446	1.019943	0.123570
C184	C	0.619529	0.950301	0.133538
H185	H	0.697163	1.024260	0.171206
H186	H	0.621134	1.065191	0.117087
H187	H	0.697111	1.021914	0.075005
H188	H	0.583863	0.948262	0.182104
H189	H	0.659880	0.905086	0.139980
O190	O	-0.129992	0.818020	0.440328
C191	C	-0.260947	0.817872	0.432670
C192	C	-0.188303	0.817265	0.392870
H193	H	-0.308110	0.817248	0.394320
H194	H	-0.264284	0.866980	0.460057
H195	H	-0.264221	0.769783	0.473114
H196	H	-0.184980	0.865321	0.352394
H197	H	-0.184996	0.768126	0.365531
H198	H	-0.091524	0.893080	0.516883
O199	O	-0.099476	0.901570	0.653028
C200	C	-0.199748	0.982209	0.634557
C201	C	-0.144165	0.936787	0.600756
H202	H	-0.235903	1.010683	0.592313
H203	H	-0.169685	1.021999	0.663179
H204	H	-0.234838	0.947529	0.673218
H205	H	-0.109059	0.971411	0.562065
H206	H	-0.174273	0.896993	0.572179
O207	O	-0.129887	0.822343	0.744451
C208	C	-0.206541	0.760960	0.670739
C209	C	-0.133937	0.761575	0.710620
H210	H	-0.209845	0.711826	0.643389
H211	H	-0.209846	0.809029	0.630273
H212	H	-0.253709	0.761549	0.709078
H213	H	-0.086727	0.760961	0.672335
H214	H	-0.130695	0.713510	0.751097
H215	H	0.804461	0.906326	0.006708
H216	H	0.804456	0.734123	0.178243
