data_functionalizedCrystal
_audit_creation_method	'MofGen! by Chris Wilmer'
_symmetry_space_group_name_H-M	'P1'
_symmetry_Int_Tables_number	1
_symmetry_cell_setting	triclinic
loop_
_symmetry_equiv_pos_as_xyz
  x,y,z
_cell_length_a	33.428889
_cell_length_b	33.428139
_cell_length_c	33.424847
_cell_angle_alpha	60.004234
_cell_angle_beta	60.008465
_cell_angle_gamma	59.994972
loop_
_atom_site_label
_atom_site_type_symbol
_atom_site_fract_x
_atom_site_fract_y
_atom_site_fract_z
O1	O	0.055565	-0.584504	0.488714
O2	O	0.020982	-0.455083	0.393778
O3	O	0.102943	-0.536959	0.393689
O4	O	-0.026396	-0.502628	0.488803
O5	O	0.130140	-0.509767	0.420792
O6	O	0.048179	-0.427891	0.420881
O7	O	0.082762	-0.557312	0.515817
Cu8	Cu	0.067954	-0.490119	0.470823
Cu9	Cu	0.035790	-0.522276	0.438771
O10	O	0.000801	-0.475436	0.515906
N11	N	0.090577	-0.467504	0.493370
N12	N	0.013171	-0.544895	0.416225
C13	C	0.143377	-0.280390	0.546067
C14	C	0.143515	-0.414755	0.680369
C15	C	0.143392	-0.414735	0.546069
C16	C	0.277766	-0.414702	0.545966
C17	C	0.158177	-0.324719	0.560828
C18	C	0.158255	-0.399967	0.636038
C19	C	0.233434	-0.399936	0.560773
C20	C	0.158186	-0.399955	0.560829
C21	C	0.124540	-0.223964	0.527278
C22	C	0.124565	-0.433545	0.527281
C23	C	0.177014	-0.381145	0.579617
C24	C	0.359814	-0.400540	0.502735
C25	C	0.411105	-0.417624	0.485606
C26	C	0.411136	-0.500620	0.517255
C27	C	0.359845	-0.483534	0.534385
C28	C	0.136887	-0.198305	0.476855
C29	C	0.119761	-0.147011	0.459777
C30	C	0.077945	-0.147038	0.543547
C31	C	0.095072	-0.198332	0.560625
C32	C	0.074134	-0.421169	0.539710
C33	C	0.057023	-0.438269	0.522625
C34	C	0.140770	-0.480120	0.480694
C35	C	0.157883	-0.463020	0.497773
C36	C	0.074339	-0.421208	0.762475
C37	C	0.057288	-0.438323	0.813768
C38	C	0.141075	-0.480183	0.813699
C39	C	0.158125	-0.463069	0.762404
C40	C	0.124756	-0.433580	0.736794
C41	C	0.334186	-0.433494	0.527123
C42	C	-0.173769	-0.597444	0.363037
C43	C	-0.039302	-0.597595	0.228856
C44	C	-0.039496	-0.597587	0.363300
C45	C	-0.039512	-0.731889	0.363237
C46	C	-0.129442	-0.612265	0.348329
C47	C	-0.054138	-0.612351	0.273187
C48	C	-0.054257	-0.687554	0.348440
C49	C	-0.054247	-0.612346	0.348477
C50	C	-0.230191	-0.578579	0.381758
C51	C	-0.020722	-0.578803	0.382168
C52	C	-0.073020	-0.631130	0.329609
C53	C	-0.053713	-0.813916	0.406386
C54	C	-0.036654	-0.865210	0.423504
C55	C	0.046338	-0.865293	0.391984
C56	C	0.029278	-0.813999	0.374865
C57	C	-0.255900	-0.590938	0.432169
C58	C	-0.307191	-0.573786	0.449185
C59	C	-0.307060	-0.531922	0.365377
C60	C	-0.255769	-0.549074	0.348360
C61	C	-0.033081	-0.528377	0.369764
C62	C	-0.016014	-0.511306	0.386922
C63	C	0.025770	-0.595083	0.428877
C64	C	0.008703	-0.612156	0.411725
C65	C	-0.032755	-0.528393	0.146761
C66	C	-0.015585	-0.511324	0.095468
C67	C	0.026262	-0.595106	0.095516
C68	C	0.009094	-0.612174	0.146811
C69	C	-0.020417	-0.578816	0.172432
C70	C	-0.020748	-0.788312	0.382068
N71	N	0.436037	-0.467415	0.493101
O72	O	0.592642	-0.471896	0.376066
O73	O	0.592838	-0.567146	0.505347
O74	O	0.592754	-0.566928	0.423360
O75	O	0.592727	-0.472113	0.458053
O76	O	0.511269	-0.539835	0.450606
O77	O	0.511353	-0.540052	0.532594
O78	O	0.511157	-0.444802	0.403312
Cu79	Cu	0.503815	-0.489954	0.470441
Cu80	Cu	0.600180	-0.521995	0.438219
O81	O	0.511242	-0.445020	0.485300
N82	N	0.667959	-0.544533	0.415554
N83	N	0.090544	-0.122107	0.493359
O84	O	-0.026406	0.034587	0.488773
O85	O	0.102877	0.034627	0.393499
O86	O	0.020848	0.034591	0.393771
O87	O	0.055623	0.034623	0.488500
O88	O	0.048051	-0.046899	0.420925
O89	O	0.130080	-0.046864	0.420653
O90	O	0.000796	-0.046903	0.515927
Cu91	Cu	0.067922	-0.054324	0.470769
Cu92	Cu	0.035752	0.042048	0.438656
O93	O	0.082825	-0.046867	0.515655
N94	N	0.013123	0.109830	0.416068
N95	N	0.090892	-0.467554	0.838649
O96	O	0.086330	-0.584488	0.995334
O97	O	-0.008902	-0.455160	0.995379
O98	O	-0.008679	-0.537172	0.995355
O99	O	0.086107	-0.502475	0.995358
O100	O	0.018452	-0.509990	0.913868
O101	O	0.018230	-0.427978	0.913891
O102	O	0.113461	-0.557306	0.913847
Cu103	Cu	0.068323	-0.490160	0.906429
Cu104	Cu	0.036237	-0.522306	1.002797
O105	O	0.113239	-0.475293	0.913870
N106	N	0.013667	-0.544916	1.070577
C107	C	0.031339	-0.425179	0.394250
C108	C	0.132837	-0.526572	0.394139
C109	C	0.072405	-0.587216	0.515344
C110	C	-0.029093	-0.485823	0.515455
C111	C	0.552119	-0.566716	0.535258
C112	C	0.552016	-0.566447	0.433726
C113	C	0.551873	-0.445232	0.373402
C114	C	0.551980	-0.445502	0.474933
C115	C	0.132731	-0.006013	0.393923
C116	C	0.031182	-0.006158	0.394293
C117	C	-0.029092	-0.006163	0.515469
C118	C	0.072491	-0.006119	0.515133
C119	C	-0.008451	-0.425276	0.954641
C120	C	-0.008170	-0.526833	0.954596
C121	C	0.113010	-0.587190	0.954585
C122	C	0.112735	-0.485627	0.954611
H123	H	0.016234	-0.428240	0.834672
C124	C	0.098917	-0.214102	0.637242
C125	C	0.081501	-0.226521	0.616055
H126	H	0.090540	-0.231504	0.671464
H127	H	0.084504	-0.179886	0.631826
H128	H	0.133522	-0.222504	0.622809
H129	H	0.046896	-0.218116	0.630485
H130	H	0.095913	-0.260745	0.621475
C131	C	-0.061491	-0.503494	0.912654
C132	C	-0.048356	-0.536833	0.954549
H133	H	-0.086303	-0.509666	0.912628
H134	H	-0.033622	-0.507147	0.884248
H135	H	-0.073464	-0.471057	0.912678
H136	H	-0.036380	-0.569270	0.954523
H137	H	-0.076231	-0.533184	0.982963
H138	H	0.142910	-0.624330	0.954565
C139	C	0.166107	-0.508931	0.996484
C140	C	0.152938	-0.475606	0.954604
H141	H	0.190924	-0.502742	0.996479
H142	H	0.178079	-0.541368	0.996471
H143	H	0.138248	-0.505278	1.024904
H144	H	0.180796	-0.479262	0.926184
H145	H	0.140968	-0.443161	0.954613
H146	H	0.023733	-0.006162	0.364531
H147	H	-0.066220	-0.006175	0.545378
C148	C	0.191754	-0.575819	0.342530
C149	C	0.182983	-0.536445	0.353817
H150	H	0.222714	-0.581915	0.317639
H151	H	0.166829	-0.568069	0.331292
H152	H	0.191676	-0.604179	0.371004
H153	H	0.183058	-0.508084	0.325344
H154	H	0.207915	-0.544193	0.365054
C155	C	0.219680	-0.047479	0.369805
C156	C	0.182750	-0.005692	0.353446
H157	H	0.250560	-0.047279	0.344818
H158	H	0.213866	-0.075960	0.377427
H159	H	0.219664	-0.047532	0.398260
H160	H	0.182765	-0.005641	0.324993
H161	H	0.188566	0.022797	0.345818
H162	H	0.079939	-0.006110	0.544893
C163	C	-0.031372	-0.344795	0.954668
C164	C	-0.048815	-0.375136	0.954660
H165	H	-0.056293	-0.313843	0.954683
H166	H	-0.003541	-0.340501	0.926250
H167	H	-0.022459	-0.359463	0.983083
H168	H	-0.057725	-0.360470	0.926243
H169	H	-0.076654	-0.379430	0.983081
H170	H	-0.066242	-0.478508	0.545321
C171	C	-0.010197	-0.381547	0.767701
C172	C	0.037656	-0.388792	0.734326
H173	H	-0.032842	-0.361539	0.750321
H174	H	-0.015104	-0.365891	0.787703
H175	H	-0.015099	-0.412300	0.787706
H176	H	0.042560	-0.358040	0.714322
H177	H	0.042566	-0.404447	0.714315
H178	H	0.199181	-0.473148	0.741498
C179	C	0.207241	-0.555336	0.829436
C180	C	0.177752	-0.512595	0.841855
H181	H	0.229880	-0.575350	0.846822
H182	H	0.224612	-0.546912	0.795218
H183	H	0.187230	-0.572737	0.837855
H184	H	0.197764	-0.495192	0.833433
H185	H	0.160380	-0.521019	0.876081
C186	C	0.007990	-0.346016	0.546505
C187	C	0.037510	-0.388764	0.572138
H188	H	-0.014619	-0.326009	0.566525
H189	H	-0.009416	-0.354432	0.538112
H190	H	0.027985	-0.328611	0.517496
H191	H	0.017515	-0.406171	0.601146
H192	H	0.054916	-0.380349	0.580537
C193	C	-0.019590	-0.442093	0.587303
C194	C	0.001589	-0.424676	0.536286
H195	H	-0.053812	-0.433704	0.595735
H196	H	-0.014173	-0.427688	0.601698
H197	H	-0.005155	-0.476701	0.599073
H198	H	-0.012843	-0.390067	0.524516
H199	H	-0.003832	-0.439078	0.521885
H200	H	0.167905	-0.504126	0.456671
H201	H	0.198948	-0.473094	0.487648
H202	H	0.079796	-0.624394	0.545162
C203	C	0.552213	-0.589636	0.615715
C204	C	0.552194	-0.607086	0.585381
H205	H	0.552262	-0.614561	0.646657
H206	H	0.523782	-0.561812	0.620032
H207	H	0.580613	-0.580707	0.601029
H208	H	0.523791	-0.616012	0.600065
H209	H	0.580628	-0.634919	0.581065
H210	H	0.552029	-0.596233	0.426301
C211	C	0.365036	-0.567289	0.563943
C212	C	0.331677	-0.519761	0.561192
H213	H	0.347645	-0.589653	0.580490
H214	H	0.385061	-0.575864	0.581401
H215	H	0.385019	-0.568583	0.531801
H216	H	0.311696	-0.518465	0.593334
H217	H	0.311644	-0.511183	0.543735
H218	H	0.551811	-0.415327	0.336274
C219	C	0.426841	-0.346786	0.416794
C220	C	0.439280	-0.381401	0.458792
H221	H	0.444239	-0.324426	0.400238
H222	H	0.392627	-0.329449	0.425959
H223	H	0.435231	-0.363007	0.395698
H224	H	0.430887	-0.365180	0.479890
H225	H	0.473503	-0.398739	0.449628
C226	C	0.302087	-0.327811	0.467076
C227	C	0.331608	-0.345533	0.494753
H228	H	0.284678	-0.293852	0.462145
H229	H	0.279483	-0.344988	0.484053
H230	H	0.322081	-0.332567	0.436255
H231	H	0.311613	-0.340780	0.525575
H232	H	0.354214	-0.328350	0.477776
H233	H	0.432025	-0.541365	0.523165
H234	H	0.129813	-0.126117	0.418717
C235	C	0.176490	-0.193122	0.392332
C236	C	0.169276	-0.226478	0.440198
H237	H	0.196483	-0.210518	0.369704
H238	H	0.192148	-0.173110	0.387392
H239	H	0.145729	-0.173123	0.387437
H240	H	0.200037	-0.246475	0.445095
H241	H	0.153619	-0.246499	0.445140
C242	C	-0.080166	-0.434629	0.079571
C243	C	-0.029160	-0.455895	0.067255
H244	H	-0.088544	-0.400410	0.062151
H245	H	-0.094609	-0.440022	0.113782
H246	H	-0.091935	-0.449026	0.071126
H247	H	-0.017391	-0.441500	0.075704
H248	H	-0.014712	-0.450498	0.033036
C249	C	-0.042162	-0.499011	0.204480
C250	C	-0.065196	-0.491723	0.174921
H251	H	-0.062190	-0.476374	0.221867
H252	H	-0.011409	-0.494116	0.184517
H253	H	-0.037274	-0.531485	0.227110
H254	H	-0.070081	-0.459250	0.152289
H255	H	-0.095958	-0.496614	0.194886
C256	C	0.065893	-0.679638	0.100717
C257	C	0.058691	-0.631774	0.067354
H258	H	0.085918	-0.702273	0.083330
H259	H	0.035136	-0.684525	0.120675
H260	H	0.081519	-0.684577	0.120769
H261	H	0.043062	-0.626834	0.047304
H262	H	0.089454	-0.626885	0.047387
C263	C	0.100176	-0.798295	0.306149
C264	C	0.065518	-0.785860	0.348135
H265	H	0.122552	-0.780925	0.289650
H266	H	0.083998	-0.789870	0.285003
H267	H	0.117488	-0.832522	0.315322
H268	H	0.048203	-0.751633	0.338962
H269	H	0.081697	-0.794281	0.369286
H270	H	0.019144	-0.653235	0.167709
C271	C	-0.108194	-0.462191	0.362899
C272	C	-0.065433	-0.491713	0.337284
H273	H	-0.128168	-0.439557	0.342848
H274	H	-0.099794	-0.444812	0.371339
H275	H	-0.125624	-0.482184	0.391880
H276	H	-0.048001	-0.471719	0.308305
H277	H	-0.073832	-0.509093	0.328837
C278	C	-0.012102	-0.434691	0.322271
C279	C	-0.029580	-0.455878	0.373283
H280	H	-0.020471	-0.400474	0.313851
H281	H	-0.026484	-0.440076	0.307827
H282	H	0.022503	-0.449150	0.310543
H283	H	-0.064186	-0.441422	0.385011
H284	H	-0.015200	-0.450490	0.387733
C285	C	0.100881	-0.661277	0.435754
C286	C	0.058120	-0.631749	0.461363
H287	H	0.120850	-0.683913	0.455811
H288	H	0.118314	-0.641291	0.406776
H289	H	0.092479	-0.678658	0.427314
H290	H	0.066522	-0.614365	0.469799
H291	H	0.040684	-0.651738	0.490349
C292	C	0.004829	-0.688789	0.476365
C293	C	0.022288	-0.667586	0.425354
H294	H	0.013220	-0.723009	0.484776
H295	H	-0.029774	-0.674352	0.488104
H296	H	0.019208	-0.683393	0.490808
H297	H	0.007907	-0.672979	0.410911
H298	H	0.056898	-0.682028	0.413609
C299	C	0.552026	-0.422947	0.532756
C300	C	0.551965	-0.405290	0.484950
H301	H	0.552013	-0.398120	0.538940
H302	H	0.580465	-0.450791	0.536373
H303	H	0.523634	-0.431898	0.555376
H304	H	0.580359	-0.396342	0.462329
H305	H	0.523522	-0.377437	0.481329
C306	C	-0.026444	-0.344759	0.371587
C307	C	0.021365	-0.374992	0.353993
H308	H	-0.032601	-0.313777	0.346733
H309	H	-0.030093	-0.340511	0.399426
H310	H	-0.049061	-0.359482	0.380529
H311	H	0.043983	-0.360271	0.345055
H312	H	0.025019	-0.379239	0.326146
H313	H	0.087072	-0.886205	0.386121
H314	H	-0.063498	-0.886058	0.443304
C315	C	-0.134029	-0.818988	0.439231
C316	C	-0.108701	-0.785679	0.414282
H317	H	-0.167975	-0.801556	0.444099
H318	H	-0.129332	-0.838984	0.470075
H319	H	-0.121961	-0.839009	0.420434
H320	H	-0.120767	-0.765661	0.433081
H321	H	-0.113401	-0.765675	0.383433
H322	H	0.053957	-0.126168	0.570702
H323	H	-0.235077	-0.614964	0.459366
H324	H	-0.328125	-0.583847	0.490235
H325	H	-0.234840	-0.539009	0.307312
C326	C	-0.301780	-0.492274	0.280824
C327	C	-0.335179	-0.499493	0.328667
H328	H	-0.319139	-0.472250	0.258162
H329	H	-0.281785	-0.523028	0.275923
H330	H	-0.281770	-0.476639	0.275940
H331	H	-0.355187	-0.515131	0.333552
H332	H	-0.355183	-0.468733	0.333570
