data_functionalizedCrystal
_audit_creation_method	'MofGen! by Chris Wilmer'
_symmetry_space_group_name_H-M	'P1'
_symmetry_Int_Tables_number	1
_symmetry_cell_setting	triclinic
loop_
_symmetry_equiv_pos_as_xyz
  x,y,z
_cell_length_a	11.026607
_cell_length_b	16.098538
_cell_length_c	11.026607
_cell_angle_alpha	93.325978
_cell_angle_beta	71.413983
_cell_angle_gamma	93.337420
loop_
_atom_site_label
_atom_site_type_symbol
_atom_site_fract_x
_atom_site_fract_y
_atom_site_fract_z
O1	O	1.731195	0.069254	-0.529175
O2	O	1.364615	0.069256	-0.468412
O3	O	1.517523	0.069252	-0.315504
O4	O	1.578287	0.069258	-0.682083
O5	O	1.508581	-0.069261	-0.324391
O6	O	1.355673	-0.069257	-0.477299
O7	O	1.722253	-0.069258	-0.538063
Zn8	Zn	1.537543	-0.091250	-0.509092
Zn9	Zn	1.549325	0.091247	-0.497382
O10	O	1.569345	-0.069255	-0.690970
C11	C	1.312485	-0.000001	-0.461645
C12	C	1.170471	-0.000000	-0.428228
C13	C	1.116821	0.000002	-0.520498
C14	C	0.970043	0.000003	-0.485962
N15	N	1.529512	-0.215799	-0.517084
C16	C	1.594449	-0.259385	-0.452220
C17	C	1.588845	-0.346574	-0.457826
C18	C	1.518311	-0.390175	-0.528304
C19	C	1.453366	-0.346582	-0.593170
C20	C	1.458963	-0.259395	-0.587556
C21	C	1.498016	-0.653424	-0.548634
C22	C	1.492427	-0.740618	-0.554246
C23	C	1.627905	-0.740604	-0.418899
C24	C	1.633502	-0.653415	-0.413298
C25	C	1.568552	-0.609830	-0.478158
C26	C	1.512585	-0.479296	-0.534039
C27	C	1.574271	-0.520710	-0.472415
C28	C	1.774384	-0.000000	-0.544829
C29	C	1.916398	0.000004	-0.578245
C30	C	1.501843	-0.000003	-0.272288
C31	C	1.468426	-0.000000	-0.130273
N32	N	1.557364	0.215796	-0.489382
C33	C	1.585026	0.000002	-0.734186
C34	C	1.618443	0.000005	-0.876200
C35	C	1.560695	0.000001	-0.076624
C36	C	1.526160	0.000004	0.070155
H37	H	0.907315	0.000022	-0.381391
H38	H	1.107739	0.000020	-0.323664
H39	H	1.179555	-0.000001	-0.625061
O40	O	1.658915	-0.393578	-0.387886
H41	H	1.622082	-0.376849	-0.283912
O42	O	0.999471	0.000009	-0.716765
H43	H	1.101721	0.000015	-0.722157
O44	O	1.709565	-0.606387	-0.337269
H45	H	1.753769	-0.651344	-0.293094
H46	H	1.680783	-0.776099	-0.366091
H47	H	1.395928	-0.382087	-0.650550
H48	H	1.434987	-0.776113	-0.611642
H49	H	1.455157	-0.514803	-0.591427
H50	H	1.723017	0.000067	0.061076
H51	H	1.445134	-0.617944	-0.601449
O52	O	1.670520	-0.212359	-0.376198
H53	H	1.714720	-0.257319	-0.332024
H54	H	1.406083	-0.223907	-0.640374
O55	O	1.650314	-0.473681	-0.396375
H56	H	1.726519	-0.433939	-0.461016
O57	O	1.699208	-0.000001	-0.159703
H58	H	1.704597	-0.000008	-0.261952
H59	H	1.363863	0.000006	-0.067540
O60	O	1.387640	-0.000001	0.153229
H61	H	1.382251	-0.000007	0.255478
