data_functionalizedCrystal
_audit_creation_method	'MofGen! by Chris Wilmer'
_symmetry_space_group_name_H-M	'P1'
_symmetry_Int_Tables_number	1
_symmetry_cell_setting	triclinic
loop_
_symmetry_equiv_pos_as_xyz
  x,y,z
_cell_length_a	25.639239
_cell_length_b	25.639242
_cell_length_c	25.639233
_cell_angle_alpha	89.978417
_cell_angle_beta	89.981253
_cell_angle_gamma	90.033587
loop_
_atom_site_label
_atom_site_type_symbol
_atom_site_fract_x
_atom_site_fract_y
_atom_site_fract_z
Zn1	Zn	-0.208286	0.799225	-0.295734
Zn2	Zn	0.125048	1.132558	0.037599
Zn3	Zn	0.458381	1.465892	0.370933
Zn4	Zn	-0.295704	0.799149	-0.208298
Zn5	Zn	0.037629	1.132482	0.125035
Zn6	Zn	0.370962	1.465815	0.458368
Zn7	Zn	-0.208277	0.711801	-0.208299
Zn8	Zn	0.125056	1.045135	0.125034
Zn9	Zn	0.458390	1.378468	0.458368
Zn10	Zn	-0.295684	0.711746	-0.295689
Zn11	Zn	0.037649	1.045080	0.037644
Zn12	Zn	0.370983	1.378413	0.370977
O13	O	-0.251988	0.755480	-0.252005
O14	O	0.081346	1.088814	0.081328
O15	O	0.414679	1.422147	0.414661
O16	O	-0.219894	0.872380	-0.284154
O17	O	0.113439	1.205713	0.049179
O18	O	0.446773	1.539047	0.382513
O19	O	-0.284112	0.787553	-0.135133
O20	O	0.049222	1.120886	0.198200
O21	O	0.382555	1.454219	0.531533
O22	O	-0.135113	0.723453	-0.219917
O23	O	0.198220	1.056787	0.113417
O24	O	0.531554	1.390120	0.446750
O25	O	-0.284120	0.872324	-0.219915
O26	O	0.049213	1.205657	0.113418
O27	O	0.382547	1.538991	0.446751
O28	O	-0.135119	0.787683	-0.284155
O29	O	0.198214	1.121016	0.049179
O30	O	0.531548	1.454350	0.382512
O31	O	-0.219879	0.723379	-0.135134
O32	O	0.113454	1.056712	0.198200
O33	O	0.446787	1.390046	0.531533
O34	O	-0.219860	0.638629	-0.219873
O35	O	0.113474	0.971962	0.113460
O36	O	0.446807	1.305296	0.446794
O37	O	-0.284085	0.723360	-0.368860
O38	O	0.049248	1.056693	-0.035527
O39	O	0.382581	1.390026	0.297806
O40	O	-0.284077	0.638589	-0.284078
O41	O	0.049256	0.971922	0.049255
O42	O	0.382590	1.305255	0.382588
O43	O	-0.219874	0.787630	-0.368893
O44	O	0.113459	1.120963	-0.035560
O45	O	0.446792	1.454297	0.297773
O46	O	-0.368867	0.787499	-0.219872
O47	O	-0.035533	1.120833	0.113461
O48	O	0.297800	1.454166	0.446795
O49	O	-0.368852	0.723286	-0.284078
O50	O	-0.035519	1.056619	0.049256
O51	O	0.297815	1.389952	0.382589
C52	C	-0.251966	0.619638	-0.251971
C53	C	0.081368	0.952971	0.081362
C54	C	0.414701	1.286304	0.414696
C55	C	-0.251969	0.561524	-0.251969
C56	C	0.081365	0.894857	0.081364
C57	C	0.414698	1.228190	0.414698
C58	C	-0.218494	0.310343	-0.218631
C59	C	0.114840	0.643676	0.114702
C60	C	0.448173	0.977009	0.448035
C61	C	-0.218489	0.364947	-0.218625
C62	C	0.114844	0.698280	0.114709
C63	C	0.448178	1.031614	0.448042
O64	O	-0.189997	0.393194	-0.190250
O65	O	0.143337	0.726527	0.143083
O66	O	0.476670	1.059861	0.476416
N67	N	-0.251975	0.392250	-0.251995
N68	N	0.081358	0.725583	0.081338
N69	N	0.414691	1.058917	0.414671
C70	C	-0.285465	0.364946	-0.285378
C71	C	0.047869	0.698279	0.047955
C72	C	0.381202	1.031612	0.381288
O73	O	-0.313947	0.393183	-0.313762
O74	O	0.019387	0.726516	0.019571
O75	O	0.352720	1.059850	0.352904
C76	C	-0.285467	0.310342	-0.285387
C77	C	0.047867	0.643676	0.047946
C78	C	0.381200	0.977009	0.381279
C79	C	-0.251982	0.283042	-0.252011
C80	C	0.081351	0.616376	0.081322
C81	C	0.414685	0.949709	0.414656
C82	C	-0.185011	0.283042	-0.185258
C83	C	0.148322	0.616376	0.148075
C84	C	0.481655	0.949709	0.481409
C85	C	-0.185017	0.228442	-0.185264
C86	C	0.148316	0.561775	0.148069
C87	C	0.481650	0.895108	0.481403
C88	C	-0.218505	0.201141	-0.218644
C89	C	0.114828	0.534475	0.114690
C90	C	0.448162	0.867808	0.448023
C91	C	-0.251987	0.228442	-0.252017
C92	C	0.081346	0.561775	0.081316
C93	C	0.414679	0.895108	0.414650
C94	C	-0.318953	0.283039	-0.318773
C95	C	0.014380	0.616373	0.014561
C96	C	0.347714	0.949706	0.347894
C97	C	-0.318952	0.228432	-0.318779
C98	C	0.014382	0.561766	0.014554
C99	C	0.347715	0.895099	0.347888
C100	C	-0.285467	0.201132	-0.285403
C101	C	0.047866	0.534465	0.047931
C102	C	0.381200	0.867799	0.381264
C103	C	-0.285481	0.146541	-0.285402
C104	C	0.047852	0.479874	0.047931
C105	C	0.381185	0.813208	0.381264
N106	N	-0.251995	0.119238	-0.252032
N107	N	0.081338	0.452571	0.081301
N108	N	0.414672	0.785904	0.414635
C109	C	-0.218507	0.146538	-0.218652
C110	C	0.114826	0.479871	0.114681
C111	C	0.448160	0.813205	0.448014
C112	C	-0.285458	0.479616	-0.285358
C113	C	0.047876	0.812950	0.047975
C114	C	0.381209	1.146283	0.381309
C115	C	-0.285459	0.534219	-0.285347
C116	C	0.047874	0.867552	0.047987
C117	C	0.381208	1.200885	0.381320
C118	C	-0.218482	0.534216	-0.218594
C119	C	0.114851	0.867549	0.114740
C120	C	0.448184	1.200883	0.448073
C121	C	-0.218484	0.479613	-0.218602
C122	C	0.114849	0.812946	0.114731
C123	C	0.448183	1.146279	0.448064
C124	C	-0.251971	0.452313	-0.251987
C125	C	0.081362	0.785647	0.081346
C126	C	0.414695	1.118980	0.414679
C127	C	-0.218522	0.031873	-0.218667
C128	C	0.114812	0.365206	0.114666
C129	C	0.448145	0.698540	0.447999
C130	C	-0.218532	-0.022732	-0.218675
C131	C	0.114802	0.310601	0.114658
C132	C	0.448135	0.643934	0.447992
C133	C	-0.285506	-0.022725	-0.285430
C134	C	0.047827	0.310608	0.047904
C135	C	0.381160	0.643942	0.381237
C136	C	-0.285498	0.031876	-0.285421
C137	C	0.047835	0.365209	0.047913
C138	C	0.381168	0.698542	0.381246
C139	C	-0.252002	0.059173	-0.252038
C140	C	0.081332	0.392507	0.081296
C141	C	0.414665	0.725840	0.414629
O142	O	-0.313958	0.118259	-0.313764
O143	O	0.019376	0.451592	0.019570
O144	O	0.352709	0.784926	0.352903
O145	O	-0.190025	0.118294	-0.190278
O146	O	0.143308	0.451627	0.143055
O147	O	0.476642	0.784961	0.476389
C148	C	-0.387830	0.755392	-0.251981
C149	C	-0.054497	1.088726	0.081352
C150	C	0.278836	1.422059	0.414685
C151	C	-0.445944	0.755403	-0.251988
C152	C	-0.112611	1.088736	0.081345
C153	C	0.220722	1.422069	0.414678
C154	C	-0.806303	0.789004	-0.218630
C155	C	-0.472969	1.122337	0.114703
C156	C	-0.139636	1.455670	0.448036
C157	C	-0.860907	0.789024	-0.218637
C158	C	-0.527573	1.122357	0.114696
C159	C	-0.194240	1.455691	0.448029
O160	O	-0.889139	0.817502	-0.190249
O161	O	-0.555806	1.150835	0.143085
O162	O	-0.222473	1.484168	0.476418
N163	N	-0.888227	0.755572	-0.252040
N164	N	-0.554893	1.088906	0.081293
N165	N	-0.221560	1.422239	0.414627
C166	C	-0.860939	0.722102	-0.285441
C167	C	-0.527606	1.055435	0.047892
C168	C	-0.194273	1.388768	0.381225
O169	O	-0.889191	0.693651	-0.313854
O170	O	-0.555858	1.026984	0.019480
O171	O	-0.222524	1.360317	0.352813
C172	C	-0.806336	0.722085	-0.285437
C173	C	-0.473003	1.055418	0.047897
C174	C	-0.139669	1.388751	0.381230
C175	C	-0.779019	0.755535	-0.252028
C176	C	-0.445686	1.088868	0.081305
C177	C	-0.112352	1.422201	0.414639
C178	C	-0.778985	0.822452	-0.185225
C179	C	-0.445652	1.155785	0.148108
C180	C	-0.112319	1.489118	0.481442
C181	C	-0.724385	0.822431	-0.185217
C182	C	-0.391052	1.155764	0.148116
C183	C	-0.057718	1.489097	0.481449
C184	C	-0.697101	0.788962	-0.218615
C185	C	-0.363768	1.122295	0.114718
C186	C	-0.030435	1.455628	0.448051
C187	C	-0.724419	0.755514	-0.252021
C188	C	-0.391085	1.088847	0.081313
C189	C	-0.057752	1.422180	0.414646
C190	C	-0.779050	0.688617	-0.318840
C191	C	-0.445717	1.021950	0.014493
C192	C	-0.112383	1.355284	0.347826
C193	C	-0.724443	0.688603	-0.318833
C194	C	-0.391110	1.021936	0.014500
C195	C	-0.057776	1.355270	0.347834
C196	C	-0.697126	0.722053	-0.285425
C197	C	-0.363792	1.055387	0.047909
C198	C	-0.030459	1.388720	0.381242
C199	C	-0.642535	0.722024	-0.285411
C200	C	-0.309201	1.055357	0.047923
C201	C	0.024132	1.388690	0.381256
N202	N	-0.615215	0.755475	-0.252008
N203	N	-0.281881	1.088809	0.081325
N204	N	0.051452	1.422142	0.414658
C205	C	-0.642498	0.788944	-0.218610
C206	C	-0.309165	1.122278	0.114723
C207	C	0.024169	1.455611	0.448056
C208	C	-0.975610	0.722141	-0.285449
C209	C	-0.642277	1.055474	0.047884
C210	C	-0.308943	1.388808	0.381217
C211	C	-1.030212	0.722155	-0.285452
C212	C	-0.696879	1.055489	0.047881
C213	C	-0.363546	1.388822	0.381215
C214	C	-1.030176	0.789078	-0.218648
C215	C	-0.696843	1.122412	0.114685
C216	C	-0.363509	1.455745	0.448018
C217	C	-0.975573	0.789061	-0.218644
C218	C	-0.642239	1.122395	0.114690
C219	C	-0.308906	1.455728	0.448023
C220	C	-0.948290	0.755593	-0.252047
C221	C	-0.614957	1.088926	0.081286
C222	C	-0.281624	1.422260	0.414620
C223	C	-0.527833	0.788897	-0.218597
C224	C	-0.194500	1.122231	0.114737
C225	C	0.138834	1.455564	0.448070
C226	C	-0.473228	0.788872	-0.218591
C227	C	-0.139894	1.122205	0.114743
C228	C	0.193439	1.455538	0.448076
C229	C	-0.473269	0.721951	-0.285396
C230	C	-0.139936	1.055284	0.047937
C231	C	0.193398	1.388617	0.381271
C232	C	-0.527869	0.721974	-0.285400
C233	C	-0.194536	1.055307	0.047933
C234	C	0.138797	1.388641	0.381266
C235	C	-0.555150	0.755452	-0.251999
C236	C	-0.221817	1.088785	0.081334
C237	C	0.111516	1.422118	0.414668
O238	O	-0.614267	0.693562	-0.313786
O239	O	-0.280934	1.026895	0.019547
O240	O	0.052399	1.360229	0.352880
O241	O	-0.614240	0.817396	-0.190208
O242	O	-0.280906	1.150729	0.143126
O243	O	0.052427	1.484062	0.476459
C244	C	-0.115615	0.755583	-0.252041
C245	C	0.217719	1.088916	0.081293
C246	C	0.551052	1.422250	0.414626
C247	C	-0.057501	0.755627	-0.252056
C248	C	0.275833	1.088960	0.081278
C249	C	0.609166	1.422293	0.414611
C250	C	-0.251979	0.755497	-0.388378
C251	C	0.081355	1.088831	-0.055045
C252	C	0.414688	1.422164	0.278288
C253	C	-0.251975	0.755504	-0.446492
C254	C	0.081359	1.088838	-0.113159
C255	C	0.414692	1.422171	0.220174
C256	C	-0.252010	0.891853	-0.252040
C257	C	0.081323	1.225187	0.081294
C258	C	0.414656	1.558520	0.414627
C259	C	-0.252020	0.949967	-0.252054
C260	C	0.081313	1.283301	0.081279
C261	C	0.414647	1.616634	0.414612
C262	C	-0.218440	0.789012	-0.806878
C263	C	0.114893	1.122346	-0.473545
C264	C	0.448226	1.455679	-0.140212
C265	C	-0.218426	0.789019	-0.861483
C266	C	0.114907	1.122352	-0.528149
C267	C	0.448241	1.455685	-0.194816
O268	O	-0.189976	0.817466	-0.889739
O269	O	0.143358	1.150799	-0.556405
O270	O	0.476691	1.484133	-0.223072
N271	N	-0.251852	0.755562	-0.888775
N272	N	0.081481	1.088895	-0.555442
N273	N	0.414815	1.422229	-0.222108
C274	C	-0.285291	0.722093	-0.861460
C275	C	0.048042	1.055426	-0.528127
C276	C	0.381376	1.388760	-0.194794
O277	O	-0.313721	0.693636	-0.889688
O278	O	0.019613	1.026969	-0.556355
O279	O	0.352946	1.360302	-0.223022
C280	C	-0.285302	0.722084	-0.806857
C281	C	0.048031	1.055418	-0.473523
C282	C	0.381364	1.388751	-0.140190
C283	C	-0.251878	0.755547	-0.779567
C284	C	0.081455	1.088880	-0.446234
C285	C	0.414789	1.422214	-0.112901
C286	C	-0.185018	0.822472	-0.779589
C287	C	0.148315	1.155805	-0.446255
C288	C	0.481648	1.489138	-0.112922
C289	C	-0.185034	0.822466	-0.724988
C290	C	0.148300	1.155799	-0.391655
C291	C	0.481633	1.489133	-0.058322
C292	C	-0.218471	0.789000	-0.697677
C293	C	0.114862	1.122334	-0.364344
C294	C	0.448196	1.455667	-0.031011
C295	C	-0.251893	0.755541	-0.724967
C296	C	0.081440	1.088874	-0.391633
C297	C	0.414773	1.422208	-0.058300
C298	C	-0.318738	0.688613	-0.779543
C299	C	0.014595	1.021946	-0.446210
C300	C	0.347928	1.355280	-0.112876
C301	C	-0.318747	0.688607	-0.724936
C302	C	0.014587	1.021940	-0.391603
C303	C	0.347920	1.355273	-0.058269
C304	C	-0.285322	0.722069	-0.697646
C305	C	0.048011	1.055403	-0.364313
C306	C	0.381345	1.388736	-0.030980
C307	C	-0.285346	0.722070	-0.643055
C308	C	0.047987	1.055403	-0.309722
C309	C	0.381321	1.388736	0.023611
N310	N	-0.251920	0.755526	-0.615763
N311	N	0.081413	1.088860	-0.282430
N312	N	0.414747	1.422193	0.050904
C313	C	-0.218482	0.788992	-0.643074
C314	C	0.114851	1.122325	-0.309741
C315	C	0.448184	1.455658	0.023593
C316	C	-0.285264	0.722113	-0.976131
C317	C	0.048070	1.055446	-0.642798
C318	C	0.381403	1.388780	-0.309464
C319	C	-0.285255	0.722124	-1.030733
C320	C	0.048078	1.055457	-0.697400
C321	C	0.381411	1.388791	-0.364067
C322	C	-0.218390	0.789049	-1.030752
C323	C	0.114944	1.122383	-0.697419
C324	C	0.448277	1.455716	-0.364085
C325	C	-0.218401	0.789041	-0.976149
C326	C	0.114932	1.122374	-0.642815
C327	C	0.448266	1.455707	-0.309482
C328	C	-0.251838	0.755570	-0.948839
C329	C	0.081496	1.088903	-0.615505
C330	C	0.414829	1.422237	-0.282172
C331	C	-0.218517	0.788977	-0.528409
C332	C	0.114816	1.122311	-0.195075
C333	C	0.448149	1.455644	0.138258
C334	C	-0.218537	0.788970	-0.473803
C335	C	0.114796	1.122303	-0.140470
C336	C	0.448130	1.455636	0.192863
C337	C	-0.285401	0.722043	-0.473789
C338	C	0.047933	1.055376	-0.140456
C339	C	0.381266	1.388710	0.192877
C340	C	-0.285383	0.722052	-0.528390
C341	C	0.047950	1.055385	-0.195057
C342	C	0.381284	1.388719	0.138277
C343	C	-0.251937	0.755521	-0.555698
C344	C	0.081396	1.088854	-0.222365
C345	C	0.414729	1.422187	0.110968
O346	O	-0.313780	0.693635	-0.614764
O347	O	0.019553	1.026969	-0.281431
O348	O	0.352886	1.360302	0.051902
O349	O	-0.190053	0.817439	-0.614839
O350	O	0.143281	1.150773	-0.281506
O351	O	0.476614	1.484106	0.051828
C352	C	-0.251959	0.755494	-0.116163
C353	C	0.081374	1.088827	0.217171
C354	C	0.414708	1.422160	0.550504
C355	C	-0.251816	0.755588	-0.058049
C356	C	0.081518	1.088921	0.275284
C357	C	0.414851	1.422254	0.608618
H358	H	-0.191264	-0.044958	-0.191494
H359	H	0.142070	0.288376	0.141839
H360	H	0.475403	0.621709	0.475172
O361	O	-0.185971	0.058304	-0.186187
O362	O	0.147363	0.391637	0.147147
O363	O	0.480696	0.724971	0.480480
C364	C	-0.156416	0.022490	-0.156743
C365	C	0.176918	0.355824	0.176590
C366	C	0.510251	0.689157	0.509923
H367	H	-0.177835	-0.016443	-0.154909
H368	H	0.155498	0.316890	0.178425
H369	H	0.488831	0.650224	0.511758
H370	H	-0.150780	0.038242	-0.115554
H371	H	0.182553	0.371575	0.217780
H372	H	0.515886	0.704908	0.551113
H373	H	-0.116734	0.016713	-0.175958
H374	H	0.216600	0.350046	0.157375
H375	H	0.549933	0.683379	0.490709
H376	H	-0.157750	0.206219	-0.158086
H377	H	0.175583	0.539552	0.175248
H378	H	0.508916	0.872885	0.508581
O379	O	-0.318021	0.453043	-0.317713
O380	O	0.015312	0.786376	0.015621
O381	O	0.348646	1.119709	0.348954
C382	C	-0.351758	0.421435	-0.287890
C383	C	-0.018425	0.754768	0.045443
C384	C	0.314908	1.088101	0.378777
H385	H	-0.333258	0.413237	-0.248304
H386	H	0.000075	0.746570	0.085030
H387	H	0.333408	1.079904	0.418363
H388	H	-0.358805	0.383048	-0.309183
H389	H	-0.025471	0.716382	0.024150
H390	H	0.307862	1.049715	0.357483
H391	H	-0.390492	0.442459	-0.282067
H392	H	-0.057159	0.775792	0.051266
H393	H	0.276175	1.109125	0.384599
O394	O	-0.446735	0.689518	-0.317894
O395	O	-0.113401	1.022851	0.015439
O396	O	0.219932	1.356185	0.348773
C397	C	-0.415099	0.719261	-0.351675
C398	C	-0.081766	1.052594	-0.018341
C399	C	0.251568	1.385928	0.314992
H400	H	-0.431521	0.760441	-0.354946
H401	H	-0.098188	1.093774	-0.021612
H402	H	0.235145	1.427108	0.311721
H403	H	-0.414471	0.700329	-0.391894
H404	H	-0.081138	1.033663	-0.058561
H405	H	0.252196	1.366996	0.274773
H406	H	-0.373724	0.721064	-0.335501
H407	H	-0.040390	1.054397	-0.002168
H408	H	0.292943	1.387731	0.331166
H409	H	-0.550039	0.816159	-0.191399
H410	H	-0.216705	1.149492	0.141934
H411	H	0.116628	1.482826	0.475267
H412	H	-0.157787	0.849723	-0.801820
H413	H	0.175547	1.183057	-0.468486
H414	H	0.508880	1.516390	-0.135153
H415	H	-0.953399	0.694883	-0.312649
H416	H	-0.620066	1.028216	0.020685
H417	H	-0.286733	1.361550	0.354018
O418	O	-0.805552	0.656181	-0.351372
O419	O	-0.472219	0.989514	-0.018039
O420	O	-0.138885	1.322847	0.315295
C421	C	-0.792156	0.667568	-0.403487
C422	C	-0.458823	1.000901	-0.070154
C423	C	-0.125489	1.334235	0.263179
H424	H	-0.777111	0.709333	-0.406160
H425	H	-0.443778	1.042666	-0.072827
H426	H	-0.110444	1.375999	0.260506
H427	H	-0.828052	0.663058	-0.429326
H428	H	-0.494718	0.996391	-0.095993
H429	H	-0.161385	1.329724	0.237341
H430	H	-0.760474	0.639523	-0.417118
H431	H	-0.427141	0.972856	-0.083785
H432	H	-0.093807	1.306190	0.249549
H433	H	-0.191281	0.816229	-0.550637
H434	H	0.142053	1.149562	-0.217303
H435	H	0.475386	1.482896	0.116030
H436	H	-0.191216	0.457388	-0.191426
H437	H	0.142117	0.790722	0.141907
H438	H	0.475451	1.124055	0.475240
O439	O	-0.318078	-0.049169	-0.317876
O440	O	0.015255	0.284164	0.015457
O441	O	0.348588	0.617498	0.348791
C442	C	-0.347621	-0.013369	-0.347348
C443	C	-0.014288	0.319965	-0.014015
C444	C	0.319046	0.653298	0.319319
H445	H	-0.349411	0.025542	-0.325925
H446	H	-0.016078	0.358876	0.007409
H447	H	0.317256	0.692209	0.340742
H448	H	-0.388820	-0.029172	-0.352865
H449	H	-0.055486	0.304161	-0.019532
H450	H	0.277847	0.637495	0.313801
H451	H	-0.328522	-0.007528	-0.387085
H452	H	0.004811	0.325806	-0.053752
H453	H	0.338145	0.659139	0.279582
O454	O	-0.697917	0.656165	-0.351337
O455	O	-0.364584	0.989499	-0.018003
O456	O	-0.031250	1.322832	0.315330
C457	C	-0.666279	0.685898	-0.385124
C458	C	-0.332945	1.019231	-0.051791
C459	C	0.000388	1.352565	0.281543
H460	H	-0.682692	0.727082	-0.388397
H461	H	-0.349359	1.060415	-0.055064
H462	H	-0.016025	1.393748	0.278270
H463	H	-0.665660	0.666962	-0.425342
H464	H	-0.332327	1.000296	-0.092008
H465	H	0.001007	1.333629	0.241325
H466	H	-0.624901	0.687693	-0.368956
H467	H	-0.291568	1.021026	-0.035622
H468	H	0.041766	1.354360	0.297711
H469	H	-0.191213	0.556454	-0.191415
H470	H	0.142120	0.889787	0.141918
H471	H	0.475453	1.223120	0.475251
H472	H	-0.191183	0.816288	-0.953933
H473	H	0.142150	1.149621	-0.620600
H474	H	0.475484	1.482955	-0.287266
O475	O	-0.152511	0.854984	-0.698564
O476	O	0.180822	1.188318	-0.365231
O477	O	0.514155	1.521651	-0.031897
C478	C	-0.123007	0.884527	-0.734388
C479	C	0.210326	1.217860	-0.401054
C480	C	0.543659	1.551193	-0.067721
H481	H	-0.121192	0.863114	-0.773304
H482	H	0.212141	1.196448	-0.439971
H483	H	0.545474	1.529781	-0.106637
H484	H	-0.081815	0.890131	-0.718623
H485	H	0.251519	1.223464	-0.385290
H486	H	0.584852	1.556797	-0.051956
H487	H	-0.142157	0.924223	-0.740203
H488	H	0.191177	1.257557	-0.406870
H489	H	0.524510	1.590890	-0.073536
O490	O	-0.318007	0.560654	-0.317814
O491	O	0.015326	0.893987	0.015520
O492	O	0.348660	1.227321	0.348853
C493	C	-0.347573	0.524842	-0.347264
C494	C	-0.014239	0.858176	-0.013930
C495	C	0.319094	1.191509	0.319403
H496	H	-0.326160	0.485932	-0.349114
H497	H	0.007173	0.819266	-0.015781
H498	H	0.340506	1.152599	0.317553
H499	H	-0.353212	0.540632	-0.388448
H500	H	-0.019878	0.873965	-0.055114
H501	H	0.313455	1.207299	0.278219
H502	H	-0.387253	0.519005	-0.328045
H503	H	-0.053920	0.852338	0.005288
H504	H	0.279414	1.185671	0.338622
H505	H	-0.157738	0.305264	-0.158076
H506	H	0.175595	0.638598	0.175257
H507	H	0.508928	0.971931	0.508590
H508	H	-0.346220	0.305258	-0.345951
H509	H	-0.012887	0.638591	-0.012618
H510	H	0.320446	0.971924	0.320715
H511	H	-0.346220	0.206208	-0.345967
H512	H	-0.012887	0.539541	-0.012634
H513	H	0.320447	0.872875	0.320699
H514	H	-0.191318	0.816221	-0.451587
H515	H	0.142015	1.149554	-0.118253
H516	H	0.475348	1.482888	0.215080
H517	H	-0.702147	0.849670	-0.158015
H518	H	-0.368813	1.183003	0.175318
H519	H	-0.035480	1.516337	0.508652
H520	H	-0.312768	0.054105	-0.312594
H521	H	0.020565	0.387438	0.020739
H522	H	0.353898	0.720771	0.354072
H523	H	-0.450988	0.816111	-0.191384
H524	H	-0.117654	1.149444	0.141950
H525	H	0.215679	1.482777	0.475283
H526	H	-0.801194	0.849709	-0.158028
H527	H	-0.467860	1.183042	0.175305
H528	H	-0.134527	1.516376	0.508638
O529	O	-0.949120	0.821605	-0.186176
O530	O	-0.615787	1.154939	0.147157
O531	O	-0.282453	1.488272	0.480490
C532	C	-0.984917	0.851136	-0.156691
C533	C	-0.651583	1.184469	0.176643
C534	C	-0.318250	1.517802	0.509976
H535	H	-1.023828	0.852940	-0.178114
H536	H	-0.690495	1.186274	0.155219
H537	H	-0.357162	1.519607	0.488553
H538	H	-0.969110	0.892330	-0.151153
H539	H	-0.635776	1.225664	0.182180
H540	H	-0.302443	1.558997	0.515514
H541	H	-0.990758	0.832016	-0.116963
H542	H	-0.657425	1.165350	0.216370
H543	H	-0.324092	1.498683	0.549704
H544	H	-0.191162	0.816298	-1.052998
H545	H	0.142172	1.149631	-0.719665
H546	H	0.475505	1.482964	-0.386332
O547	O	-1.056765	0.821613	-0.186292
O548	O	-0.723432	1.154946	0.147042
O549	O	-0.390099	1.488279	0.480375
C550	C	-1.110816	0.814462	-0.193475
C551	C	-0.777483	1.147796	0.139859
C552	C	-0.444149	1.481129	0.473192
H553	H	-1.118254	0.797263	-0.233789
H554	H	-0.784921	1.130596	0.099545
H555	H	-0.451587	1.463929	0.432878
H556	H	-1.131518	0.853649	-0.190038
H557	H	-0.798185	1.186982	0.143295
H558	H	-0.464852	1.520316	0.476628
H559	H	-1.126383	0.786695	-0.162407
H560	H	-0.793050	1.120028	0.170926
H561	H	-0.459716	1.453361	0.504260
H562	H	-1.052449	0.694912	-0.312652
H563	H	-0.719116	1.028245	0.020682
H564	H	-0.385783	1.361579	0.354015
O565	O	-0.554328	0.689463	-0.317900
O566	O	-0.220994	1.022796	0.015433
O567	O	0.112339	1.356130	0.348767
C568	C	-0.518535	0.659907	-0.347365
C569	C	-0.185201	0.993241	-0.014031
C570	C	0.148132	1.326574	0.319302
H571	H	-0.479588	0.681304	-0.349186
H572	H	-0.146255	1.014638	-0.015853
H573	H	0.187078	1.347971	0.317480
H574	H	-0.534293	0.654312	-0.388557
H575	H	-0.200960	0.987645	-0.055224
H576	H	0.132374	1.320978	0.278109
H577	H	-0.512779	0.620208	-0.328177
H578	H	-0.179446	0.953541	0.005156
H579	H	0.153887	1.286874	0.338490
O580	O	-0.317745	0.689573	-1.057158
O581	O	0.015588	1.022907	-0.723825
O582	O	0.348922	1.356240	-0.390491
C583	C	-0.347268	0.660048	-1.021337
C584	C	-0.013935	0.993381	-0.688004
C585	C	0.319398	1.326714	-0.354670
H586	H	-0.325860	0.658252	-0.982416
H587	H	0.007474	0.991586	-0.649083
H588	H	0.340807	1.324919	-0.315749
H589	H	-0.352837	0.618850	-1.037098
H590	H	-0.019503	0.952183	-0.703765
H591	H	0.313830	1.285516	-0.370431
H592	H	-0.386981	0.679165	-1.015531
H593	H	-0.053648	1.012498	-0.682197
H594	H	0.279685	1.345831	-0.348864
H595	H	-0.312495	0.694857	-0.953898
H596	H	0.020839	1.028190	-0.620565
H597	H	0.354172	1.361523	-0.287232
H598	H	-0.345956	0.661364	-0.801753
H599	H	-0.012623	0.994697	-0.468419
H600	H	0.320711	1.328031	-0.135086
H601	H	-0.345970	0.661345	-0.702703
H602	H	-0.012637	0.994678	-0.369370
H603	H	0.320697	1.328011	-0.036036
H604	H	-0.312605	0.694809	-0.550610
H605	H	0.020728	1.028142	-0.217277
H606	H	0.354062	1.361475	0.116056
O607	O	-0.317905	0.689612	-0.447192
O608	O	0.015428	1.022945	-0.113858
O609	O	0.348761	1.356278	0.219475
C610	C	-0.351691	0.719356	-0.415621
C611	C	-0.018357	1.052689	-0.082287
C612	C	0.314976	1.386022	0.251046
H613	H	-0.333259	0.758994	-0.407465
H614	H	0.000074	1.092327	-0.074131
H615	H	0.333408	1.425661	0.259202
H616	H	-0.358694	0.698057	-0.377211
H617	H	-0.025361	1.031391	-0.043878
H618	H	0.307972	1.364724	0.289455
H619	H	-0.390437	0.725067	-0.436656
H620	H	-0.057104	1.058401	-0.103323
H621	H	0.276229	1.391734	0.230011
