data_functionalizedCrystal
_audit_creation_method	'MofGen! by Chris Wilmer'
_symmetry_space_group_name_H-M	'P1'
_symmetry_Int_Tables_number	1
_symmetry_cell_setting	triclinic
loop_
_symmetry_equiv_pos_as_xyz
  x,y,z
_cell_length_a	15.538191
_cell_length_b	14.853567
_cell_length_c	13.330367
_cell_angle_alpha	89.995418
_cell_angle_beta	89.997411
_cell_angle_gamma	65.453512
loop_
_atom_site_label
_atom_site_type_symbol
_atom_site_fract_x
_atom_site_fract_y
_atom_site_fract_z
O1	O	0.122934	1.155993	-0.083347
O2	O	0.137579	0.888724	-0.083363
O3	O	-0.006805	1.074385	-0.083356
O4	O	0.267318	0.970332	-0.083353
O5	O	-0.006808	1.074366	0.083491
O6	O	0.137575	0.888705	0.083484
O7	O	0.122931	1.155974	0.083501
Cu8	Cu	0.130253	1.022338	0.098727
Cu9	Cu	0.130257	1.022360	-0.098589
O10	O	0.267314	0.970313	0.083494
C11	C	0.136913	0.855344	0.000058
C12	C	0.134925	0.755913	0.000052
C13	C	0.040753	0.374309	0.000073
C14	C	0.212284	0.296691	0.000074
C15	C	0.214153	0.390111	0.000071
C16	C	0.129321	0.475634	0.000068
C17	C	0.042620	0.467738	0.000067
C18	C	0.300853	0.398015	0.000061
C19	C	0.302726	0.491439	0.000057
C20	C	0.217893	0.576964	0.000061
C21	C	0.131188	0.569064	0.000061
C22	C	0.046356	0.654587	0.000058
C23	C	-0.040350	0.646689	0.000066
C24	C	-0.042213	0.553264	0.000071
C25	C	0.219757	0.670390	0.000056
C26	C	0.048223	0.748017	0.000052
C27	C	-0.041888	1.085262	0.000065
C28	C	-0.146419	1.117689	0.000057
C29	C	-0.434631	0.795529	0.000058
C30	C	-0.532857	0.826023	0.000063
C31	C	-0.555076	0.997541	0.000073
C32	C	-0.456850	0.967062	0.000064
C33	C	-0.396635	0.866055	0.000058
C34	C	-0.418853	1.037588	0.000063
C35	C	-0.320636	1.007111	0.000059
C36	C	-0.260415	0.906108	0.000056
C37	C	-0.298417	0.835578	0.000054
C38	C	-0.479070	1.138594	0.000076
C39	C	-0.441073	1.209120	0.000075
C40	C	-0.342854	1.178644	0.000064
C41	C	-0.282633	1.077641	0.000061
C42	C	-0.304852	1.249174	0.000066
C43	C	-0.206634	1.218697	0.000062
C44	C	-0.184416	1.047164	0.000057
C45	C	0.302397	0.959436	0.000071
C46	C	0.406929	0.927009	0.000072
C47	C	0.123596	1.189354	0.000077
C48	C	0.125584	1.288785	0.000077
N49	N	0.130250	1.022329	0.237508
N50	N	0.130252	1.022379	-0.237371
C51	C	0.194165	0.940155	0.710128
C52	C	0.066341	1.104592	0.710102
C53	C	0.066338	1.104583	0.605084
C54	C	0.130251	1.022359	0.552583
C55	C	0.194166	0.940145	0.605100
C56	C	0.002431	1.186800	0.552559
C57	C	0.002426	1.186794	0.447534
C58	C	0.066335	1.104567	0.395031
C59	C	0.130251	1.022349	0.447555
C60	C	0.194164	0.940125	0.395054
C61	C	0.258077	0.857903	0.447576
C62	C	0.258074	0.857917	0.552597
C63	C	0.066337	1.104552	0.290009
C64	C	0.194165	0.940114	0.290026
H65	H	0.290352	0.676817	0.000051
H66	H	-0.112805	0.546823	0.000101
Br67	Br	-0.076915	0.363592	0.000093
Br68	Br	-0.386582	1.386249	0.000099
H69	H	0.281350	0.227054	0.000069
H70	H	-0.135385	0.964914	0.000045
H71	H	-0.175697	1.276126	0.000063
H72	H	-0.180440	0.881296	0.000059
H73	H	0.369919	0.328377	0.000054
Br74	Br	-0.020387	1.216136	0.218736
Br75	Br	0.344808	0.746339	0.623878
Br76	Br	-0.216688	0.698495	0.000031
Br77	Br	0.420396	0.502151	0.000047
H78	H	-0.563788	0.768584	0.000078
Br79	Br	-0.066912	0.864080	0.000059
Br80	Br	-0.352902	0.658446	0.000036
H81	H	-0.049615	1.253743	0.404777
H82	H	0.246206	0.873155	0.247286
Br83	Br	-0.636803	1.134618	0.000092
Br84	Br	-0.522801	1.346197	0.000095
Br85	Br	0.344821	0.746323	0.376313
Br86	Br	-0.084296	1.298391	0.623806
H87	H	0.014310	1.171539	0.752852
H88	H	-0.559044	1.163405	0.000070
H89	H	-0.109420	0.716334	0.000056
Br90	Br	0.280895	0.828568	0.781401
