data_functionalizedCrystal
_audit_creation_method	'MofGen! by Chris Wilmer'
_symmetry_space_group_name_H-M	'P1'
_symmetry_Int_Tables_number	1
_symmetry_cell_setting	triclinic
loop_
_symmetry_equiv_pos_as_xyz
  x,y,z
_cell_length_a	18.101398
_cell_length_b	19.121063
_cell_length_c	18.101389
_cell_angle_alpha	92.419391
_cell_angle_beta	89.975673
_cell_angle_gamma	92.464489
loop_
_atom_site_label
_atom_site_type_symbol
_atom_site_fract_x
_atom_site_fract_y
_atom_site_fract_z
Zn1	Zn	1.119554	-0.279777	-0.431404
Zn2	Zn	1.452887	0.053556	-0.098071
Zn3	Zn	1.786221	0.386889	0.235263
Zn4	Zn	1.114175	-0.397213	-0.312837
Zn5	Zn	1.447508	-0.063880	0.020497
Zn6	Zn	1.780841	0.269454	0.353830
Zn7	Zn	0.995713	-0.279770	-0.307565
Zn8	Zn	1.329047	0.053563	0.025769
Zn9	Zn	1.662380	0.386897	0.359102
Zn10	Zn	0.990390	-0.397183	-0.436624
Zn11	Zn	1.323723	-0.063850	-0.103291
Zn12	Zn	1.657057	0.269484	0.230043
O13	O	1.054958	-0.338486	-0.372107
O14	O	1.388291	-0.005153	-0.038774
O15	O	1.721625	0.328181	0.294559
O16	O	1.222473	-0.295371	-0.415698
O17	O	1.555806	0.037962	-0.082364
O18	O	1.889139	0.371296	0.250969
O19	O	1.098437	-0.381644	-0.208505
O20	O	1.431771	-0.048310	0.124828
O21	O	1.765104	0.285023	0.458162
O22	O	1.016620	-0.181486	-0.319601
O23	O	1.349953	0.151847	0.013732
O24	O	1.683287	0.485181	0.347065
O25	O	1.218521	-0.381651	-0.328587
O26	O	1.551854	-0.048317	0.004747
O27	O	1.885187	0.285016	0.338080
O28	O	1.107605	-0.181491	-0.410586
O29	O	1.440938	0.151842	-0.077252
O30	O	1.774272	0.485175	0.256081
O31	O	1.011404	-0.295359	-0.204632
O32	O	1.344737	0.037975	0.128702
O33	O	1.678071	0.371308	0.462035
O34	O	0.891375	-0.295330	-0.324663
O35	O	1.224708	0.038004	0.008670
O36	O	1.558042	0.371337	0.342004
O37	O	1.007547	-0.381599	-0.539564
O38	O	1.340881	-0.048266	-0.206231
O39	O	1.674214	0.285067	0.127103
O40	O	0.887464	-0.381592	-0.419482
O41	O	1.220797	-0.048259	-0.086149
O42	O	1.554131	0.285074	0.247184
O43	O	1.102443	-0.295342	-0.535729
O44	O	1.435777	0.037991	-0.202396
O45	O	1.769110	0.371325	0.130938
O46	O	1.093276	-0.495494	-0.333648
O47	O	1.426609	-0.162161	-0.000315
O48	O	1.759942	0.171172	0.333019
O49	O	1.002331	-0.495472	-0.424594
O50	O	1.335665	-0.162139	-0.091261
O51	O	1.668998	0.171195	0.242073
C52	C	0.862549	-0.338457	-0.372067
C53	C	1.195882	-0.005124	-0.038734
C54	C	1.529215	0.328209	0.294599
C55	C	0.780234	-0.338462	-0.372069
C56	C	1.113568	-0.005129	-0.038735
C57	C	1.446901	0.328205	0.294598
C58	C	0.481141	-0.338506	-0.372133
C59	C	0.814475	-0.005173	-0.038800
C60	C	1.147808	0.328161	0.294534
C61	C	0.514915	-0.283961	-0.312742
C62	C	0.848248	0.049373	0.020591
C63	C	1.181581	0.382706	0.353924
C64	C	0.600526	-0.284107	-0.312506
C65	C	0.933860	0.049226	0.020828
C66	C	1.267193	0.382560	0.354161
C67	C	0.629525	-0.338484	-0.372101
C68	C	0.962858	-0.005150	-0.038768
C69	C	1.296192	0.328183	0.294566
C70	C	0.595084	-0.412466	-0.354099
C71	C	0.928417	-0.079133	-0.020766
C72	C	1.261750	0.254201	0.312568
C73	C	0.509452	-0.412163	-0.353690
C74	C	0.842786	-0.078830	-0.020356
C75	C	1.176119	0.254504	0.312977
C76	C	0.513600	-0.319712	-0.449688
C77	C	0.846934	0.013621	-0.116355
C78	C	1.180267	0.346954	0.216978
C79	C	0.599325	-0.318065	-0.449186
C80	C	0.932658	0.015269	-0.115853
C81	C	1.265992	0.348602	0.217480
C82	C	0.713385	-0.338476	-0.372084
C83	C	1.046718	-0.005142	-0.038751
C84	C	1.380052	0.328191	0.294582
C85	C	0.397281	-0.338519	-0.372148
C86	C	0.730615	-0.005186	-0.038814
C87	C	1.063948	0.328148	0.294519
C88	C	1.046662	-0.520967	-0.380276
C89	C	1.379996	-0.187634	-0.046942
C90	C	1.713329	0.145699	0.286391
C91	C	1.043181	-0.599034	-0.383795
C92	C	1.376514	-0.265700	-0.050462
C93	C	1.709848	0.067633	0.282872
C94	C	1.088932	-0.635698	-0.338137
C95	C	1.422265	-0.302364	-0.004804
C96	C	1.755599	0.030969	0.328530
C97	C	1.085662	-0.709049	-0.341451
C98	C	1.418996	-0.375716	-0.008118
C99	C	1.752329	-0.042382	0.325215
C100	C	1.036637	-0.745735	-0.390420
C101	C	1.369971	-0.412402	-0.057087
C102	C	1.703304	-0.079069	0.276246
C103	C	0.990884	-0.709066	-0.436083
C104	C	1.324218	-0.375733	-0.102750
C105	C	1.657551	-0.042400	0.230583
C106	C	0.994158	-0.635716	-0.432772
C107	C	1.327492	-0.302383	-0.099439
C108	C	1.660825	0.030951	0.233894
C109	C	1.024385	-0.967206	-0.402788
C110	C	1.357718	-0.633873	-0.069454
C111	C	1.691052	-0.300540	0.263879
C112	C	1.021113	-1.040562	-0.406094
C113	C	1.354446	-0.707228	-0.072760
C114	C	1.687779	-0.373895	0.260573
C115	C	1.115892	-1.040539	-0.311462
C116	C	1.449226	-0.707206	0.021871
C117	C	1.782559	-0.373873	0.355205
C118	C	1.119159	-0.967188	-0.308152
C119	C	1.452492	-0.633854	0.025181
C120	C	1.785825	-0.300521	0.358514
C121	C	1.073408	-0.930525	-0.353818
C122	C	1.406742	-0.597192	-0.020485
C123	C	1.740075	-0.263858	0.312849
C124	C	1.033292	-0.820713	-0.393807
C125	C	1.366626	-0.487379	-0.060474
C126	C	1.699959	-0.154046	0.272859
C127	C	1.076758	-0.855549	-0.350434
C128	C	1.410091	-0.522216	-0.017101
C129	C	1.743424	-0.188883	0.316233
C130	C	1.248119	-0.338515	-0.372148
C131	C	1.581452	-0.005182	-0.038815
C132	C	1.914785	0.328152	0.294519
C133	C	1.330432	-0.338528	-0.372165
C134	C	1.663765	-0.005194	-0.038832
C135	C	1.997099	0.328139	0.294502
C136	C	1.055002	-0.338468	-0.565269
C137	C	1.388335	-0.005135	-0.231935
C138	C	1.721668	0.328198	0.101398
C139	C	1.055020	-0.338461	-0.647582
C140	C	1.388353	-0.005127	-0.314249
C141	C	1.721687	0.328206	0.019084
C142	C	1.063306	-0.155292	-0.363923
C143	C	1.396640	0.178041	-0.030590
C144	C	1.729973	0.511375	0.302743
C145	C	1.066864	-0.077226	-0.360436
C146	C	1.400197	0.256108	-0.027102
C147	C	1.733531	0.589441	0.306231
C148	C	1.055069	-0.338329	-0.946668
C149	C	1.388403	-0.004996	-0.613334
C150	C	1.721736	0.328338	-0.280001
C151	C	0.995174	-0.392427	-0.917747
C152	C	1.328507	-0.059094	-0.584414
C153	C	1.661840	0.274239	-0.251081
C154	C	0.995318	-0.392678	-0.832140
C155	C	1.328651	-0.059345	-0.498807
C156	C	1.661984	0.273988	-0.165474
C157	C	1.055044	-0.338394	-0.798288
C158	C	1.388378	-0.005061	-0.464955
C159	C	1.721711	0.328272	-0.131621
C160	C	1.132167	-0.358491	-0.830296
C161	C	1.465500	-0.025158	-0.496963
C162	C	1.798834	0.308175	-0.163630
C163	C	1.131831	-0.358846	-0.915957
C164	C	1.465164	-0.025513	-0.582624
C165	C	1.798497	0.307820	-0.249290
C166	C	1.038526	-0.264013	-0.911754
C167	C	1.371859	0.069320	-0.578421
C168	C	1.705193	0.402653	-0.245088
C169	C	1.036771	-0.264443	-0.826122
C170	C	1.370104	0.068891	-0.492789
C171	C	1.703437	0.402224	-0.159456
C172	C	1.055035	-0.338430	-0.714430
C173	C	1.388368	-0.005097	-0.381097
C174	C	1.721702	0.328237	-0.047763
C175	C	1.055084	-0.338295	-1.030526
C176	C	1.388417	-0.004962	-0.697192
C177	C	1.721750	0.328372	-0.363859
C178	C	1.054959	-0.338453	-0.179695
C179	C	1.388293	-0.005120	0.153638
C180	C	1.721626	0.328214	0.486971
C181	C	1.055093	-0.338263	-0.097373
C182	C	1.388427	-0.004929	0.235960
C183	C	1.721760	0.328404	0.569294
H184	H	0.620422	-0.296530	-0.254971
H185	H	0.953755	0.036803	0.078363
H186	H	1.287089	0.370137	0.411696
H187	H	1.177847	-0.320327	-0.808236
H188	H	1.511180	0.013006	-0.474903
H189	H	1.844514	0.346340	-0.141570
Cl190	Cl	1.099628	-0.198907	-0.790176
Cl191	Cl	1.432962	0.134426	-0.456843
Cl192	Cl	1.766295	0.467759	-0.123510
Cl193	Cl	0.483976	-0.237869	-0.475945
Cl194	Cl	0.817309	0.095464	-0.142612
Cl195	Cl	1.150642	0.428797	0.190722
Cl196	Cl	0.623620	-0.476894	-0.419024
Cl197	Cl	0.956953	-0.143561	-0.085690
Cl198	Cl	1.290287	0.189773	0.247643
H199	H	1.159079	-0.937319	-0.268278
H200	H	1.492412	-0.603986	0.065055
H201	H	1.825745	-0.270653	0.398389
H202	H	1.116677	-0.825677	-0.310566
H203	H	1.450010	-0.492344	0.022767
H204	H	1.783343	-0.159011	0.356100
H205	H	0.491559	-0.359441	-0.493899
H206	H	0.824893	-0.026108	-0.160566
H207	H	1.158226	0.307225	0.172768
H208	H	0.956904	-0.605865	-0.469953
H209	H	1.290237	-0.272532	-0.136620
H210	H	1.623571	0.060802	0.196714
H211	H	1.153140	-1.070398	-0.274285
H212	H	1.486474	-0.737065	0.059049
H213	H	1.819807	-0.403731	0.392382
H214	H	0.981200	-1.070430	-0.445983
H215	H	1.314533	-0.737096	-0.112650
H216	H	1.647866	-0.403763	0.220684
H217	H	0.993375	-0.850591	-0.433677
H218	H	1.326708	-0.517257	-0.100343
H219	H	1.660041	-0.183924	0.232990
H220	H	0.938024	-0.380101	-0.810543
H221	H	1.271357	-0.046768	-0.477210
H222	H	1.604690	0.286565	-0.143876
H223	H	0.492814	-0.296243	-0.255539
H224	H	0.826147	0.037090	0.077795
H225	H	1.159480	0.370423	0.411128
H226	H	0.488724	-0.428103	-0.297092
H227	H	0.822058	-0.094769	0.036242
H228	H	1.155391	0.238564	0.369575
H229	H	0.615770	-0.428682	-0.298133
H230	H	0.949103	-0.095349	0.035201
H231	H	1.282437	0.237984	0.368534
H232	H	1.082192	-0.223708	-0.930220
H233	H	1.415525	0.109626	-0.596887
H234	H	1.748858	0.442959	-0.263553
H235	H	0.486843	-0.454179	-0.395241
H236	H	0.820176	-0.120846	-0.061908
H237	H	1.153510	0.212488	0.271425
Cl238	Cl	0.906433	-0.373207	-0.948660
Cl239	Cl	1.239767	-0.039873	-0.615326
Cl240	Cl	1.573100	0.293460	-0.281993
H241	H	1.005710	-0.447176	-0.941732
H242	H	1.339043	-0.113843	-0.608399
H243	H	1.672377	0.219491	-0.275065
H244	H	1.146245	-0.413172	-0.938380
H245	H	1.479578	-0.079839	-0.605047
H246	H	1.812912	0.253495	-0.271714
Cl247	Cl	0.486973	-0.198996	-0.329333
Cl248	Cl	0.820306	0.134337	0.004001
Cl249	Cl	1.153639	0.467670	0.337334
Cl250	Cl	0.636820	-0.199404	-0.329336
Cl251	Cl	0.970153	0.133929	0.003997
Cl252	Cl	1.303486	0.467262	0.337331
Cl253	Cl	0.634523	-0.234016	-0.470248
Cl254	Cl	0.967856	0.099318	-0.136915
Cl255	Cl	1.301189	0.432651	0.196419
Cl256	Cl	1.150562	-0.589585	-0.276568
Cl257	Cl	1.483895	-0.256251	0.056766
Cl258	Cl	1.817229	0.077082	0.390099
H259	H	1.005969	-0.447763	-0.814132
H260	H	1.339303	-0.114430	-0.480799
H261	H	1.672636	0.218904	-0.147465
H262	H	1.177791	-0.321154	-0.935005
H263	H	1.511125	0.012179	-0.601671
H264	H	1.844458	0.345512	-0.268338
Cl265	Cl	0.629812	-0.374937	-0.520755
Cl266	Cl	0.963145	-0.041603	-0.187421
Cl267	Cl	1.296478	0.291730	0.145912
H268	H	1.122917	-0.738898	-0.304271
H269	H	1.456251	-0.405564	0.029062
H270	H	1.789584	-0.072231	0.362396
H271	H	1.146898	-0.412240	-0.811268
H272	H	1.480232	-0.078906	-0.477935
H273	H	1.813565	0.254427	-0.144601
Cl274	Cl	0.929257	-0.755187	-0.497649
Cl275	Cl	1.262590	-0.421853	-0.164316
Cl276	Cl	1.595923	-0.088520	0.169017
Cl277	Cl	0.966868	-0.921126	-0.460195
Cl278	Cl	1.300202	-0.587792	-0.126862
Cl279	Cl	1.633535	-0.254459	0.206471
Cl280	Cl	0.953477	-0.235747	-0.943807
Cl281	Cl	1.286810	0.097586	-0.610474
Cl282	Cl	1.620144	0.430920	-0.277141
Cl283	Cl	0.949165	-0.241045	-0.793691
Cl284	Cl	1.282498	0.092288	-0.460358
Cl285	Cl	1.615832	0.425621	-0.127024
