data_functionalizedCrystal
_audit_creation_method	'MofGen! by Chris Wilmer'
_symmetry_space_group_name_H-M	'P1'
_symmetry_Int_Tables_number	1
_symmetry_cell_setting	triclinic
loop_
_symmetry_equiv_pos_as_xyz
  x,y,z
_cell_length_a	11.792254
_cell_length_b	19.188924
_cell_length_c	17.666332
_cell_angle_alpha	90.006629
_cell_angle_beta	90.005772
_cell_angle_gamma	83.670281
loop_
_atom_site_label
_atom_site_type_symbol
_atom_site_fract_x
_atom_site_fract_y
_atom_site_fract_z
O1	O	1.505466	0.095737	0.062951
O2	O	2.005466	0.595737	0.562951
O3	O	1.174979	0.105590	0.062953
O4	O	1.674979	0.605590	0.562953
O5	O	1.349763	-0.000938	0.062943
O6	O	1.849763	0.499062	0.562943
O7	O	1.330681	0.202265	0.062961
O8	O	1.830681	0.702265	0.562961
O9	O	1.349744	-0.000941	-0.062953
O10	O	1.849744	0.499059	0.437047
O11	O	1.174959	0.105587	-0.062943
O12	O	1.674959	0.605587	0.437057
O13	O	1.505446	0.095734	-0.062945
O14	O	2.005446	0.595734	0.437055
Cu15	Cu	1.340201	0.100660	-0.074440
Cu16	Cu	1.840201	0.600660	0.425560
Cu17	Cu	1.340224	0.100664	0.074448
Cu18	Cu	1.840224	0.600664	0.574448
O19	O	1.330661	0.202262	-0.062935
O20	O	1.830661	0.702262	0.437065
C21	C	1.132687	0.104968	0.000005
C22	C	1.632687	0.604968	0.500005
C23	C	1.006702	0.103110	0.000006
C24	C	1.506702	0.603110	0.500006
C25	C	0.904388	0.101601	0.000009
C26	C	1.404388	0.601601	0.500009
C27	C	0.776030	0.099713	0.000009
C28	C	1.276030	0.599713	0.500009
C29	C	1.349137	-0.026954	-0.000006
C30	C	1.849137	0.473046	0.499994
C31	C	1.347286	-0.104470	-0.000008
C32	C	1.847286	0.395530	0.499992
C33	C	1.346433	-0.140872	0.068619
C34	C	1.846433	0.359128	0.568619
C35	C	1.344677	-0.213705	0.068625
C36	C	1.844677	0.286295	0.568625
C37	C	1.343798	-0.250134	0.000000
C38	C	1.843798	0.249866	0.500000
C39	C	1.344645	-0.213722	-0.068636
C40	C	1.844645	0.286278	0.431364
C41	C	1.346389	-0.140890	-0.068639
C42	C	1.846389	0.359110	0.431361
N43	N	1.405637	-0.369446	-0.051076
N44	N	1.905637	0.130554	0.448924
N45	N	1.403983	-0.438634	-0.051068
N46	N	1.903983	0.061366	0.448932
C47	C	1.338541	-0.469573	0.000007
C48	C	1.838541	0.030427	0.500007
N49	N	1.274830	-0.428712	0.051085
N50	N	1.774830	0.071288	0.551085
N51	N	1.276489	-0.359518	0.051079
N52	N	1.776489	0.140482	0.551079
C53	C	1.341906	-0.329108	-0.000003
C54	C	1.841906	0.170892	0.499997
C55	C	1.335782	-0.584949	0.068645
C56	C	1.835782	-0.084949	0.568645
C57	C	1.334020	-0.657782	0.068648
C58	C	1.834020	-0.157782	0.568648
C59	C	1.333999	-0.657799	-0.068614
C60	C	1.833999	-0.157799	0.431386
C61	C	1.335750	-0.584966	-0.068615
C62	C	1.835750	-0.084966	0.431385
C63	C	1.336647	-0.548546	0.000016
C64	C	1.836647	-0.048546	0.500016
C65	C	1.547737	0.096356	0.000005
C66	C	2.047737	0.596356	0.500005
C67	C	1.673722	0.098214	0.000009
C68	C	2.173722	0.598214	0.500009
C69	C	1.331288	0.228278	0.000015
C70	C	1.831288	0.728278	0.500015
C71	C	1.333139	0.305794	0.000022
C72	C	1.833139	0.805794	0.500022
N73	N	1.340193	0.100658	-0.179159
N74	N	1.840193	0.600658	0.320841
C75	C	1.417637	0.053503	-0.781214
C76	C	1.917637	0.553503	-0.281214
C77	C	1.417639	0.053505	-0.701966
C78	C	1.917639	0.553505	-0.201966
C79	C	1.340225	0.100657	-0.662341
C80	C	1.840225	0.600657	-0.162341
C81	C	1.262823	0.147824	-0.701969
C82	C	1.762823	0.647824	-0.201969
C83	C	1.262830	0.147826	-0.781215
C84	C	1.762830	0.647826	-0.281215
N85	N	1.239748	0.109134	-0.537927
N86	N	1.739748	0.609134	-0.037927
N87	N	1.239744	0.109128	-0.462646
N88	N	1.739744	0.609128	0.037354
C89	C	1.340198	0.100656	-0.423577
C90	C	1.840198	0.600656	0.076423
N91	N	1.440660	0.092176	-0.462631
N92	N	1.940660	0.592176	0.037369
N93	N	1.440663	0.092179	-0.537918
N94	N	1.940663	0.592179	-0.037918
C95	C	1.340208	0.100661	-0.576411
C96	C	1.840208	0.600661	-0.076411
C97	C	1.417603	0.053497	-0.298028
C98	C	1.917603	0.553497	0.201972
C99	C	1.417607	0.053504	-0.218779
C100	C	1.917607	0.553504	0.281221
C101	C	1.262780	0.147820	-0.218784
C102	C	1.762780	0.647820	0.281216
C103	C	1.262786	0.147817	-0.298031
C104	C	1.762786	0.647817	0.201969
C105	C	1.340197	0.100652	-0.337649
C106	C	1.840197	0.600652	0.162351
N107	N	1.340241	0.100661	0.179167
N108	N	1.840241	0.600661	0.679167
H109	H	1.347160	-0.111223	0.124504
H110	H	1.847160	0.388777	0.624504
C111	C	1.333138	-0.697829	0.144146
C112	C	1.833138	-0.197829	0.644146
N113	N	1.332498	-0.727995	0.201014
N114	N	1.832498	-0.227995	0.701014
C115	C	1.336752	-0.544882	0.144140
C116	C	1.836752	-0.044882	0.644140
N117	N	1.337479	-0.514706	0.201004
N118	N	1.837479	-0.014706	0.701004
H119	H	1.480667	0.015102	-0.669702
H120	H	1.980667	0.515102	-0.169702
C121	C	1.502754	0.001624	-0.175198
C122	C	2.002754	0.501624	0.324802
N123	N	1.566886	-0.037455	-0.142372
N124	N	2.066886	0.462545	0.357628
H125	H	1.480639	0.015095	-0.330286
H126	H	1.980639	0.515095	0.169714
H127	H	1.333275	-0.687459	-0.124490
H128	H	1.833275	-0.187459	0.375510
C129	C	1.177624	0.199689	-0.175200
C130	C	1.677624	0.699689	0.324800
N131	N	1.113484	0.238760	-0.142370
N132	N	1.613484	0.738760	0.357630
C133	C	1.343675	-0.253796	-0.144123
C134	C	1.843675	0.246204	0.355877
N135	N	1.342940	-0.283979	-0.200982
N136	N	1.842940	0.216021	0.299018
C137	C	1.502776	0.001611	-0.824788
C138	C	2.002776	0.501611	-0.324788
N139	N	1.566897	-0.037479	-0.857610
N140	N	2.066897	0.462521	-0.357610
H141	H	1.347079	-0.111251	-0.124525
H142	H	1.847079	0.388749	0.375475
C143	C	1.336701	-0.544923	-0.144111
C144	C	1.836701	-0.044923	0.355889
N145	N	1.337415	-0.514763	-0.200978
N146	N	1.837415	-0.014763	0.299022
C147	C	1.343732	-0.253755	0.144122
C148	C	1.843732	0.246245	0.644122
N149	N	1.343018	-0.283918	0.200987
N150	N	1.843018	0.216082	0.700987
C151	C	1.177631	0.199687	-0.341614
C152	C	1.677631	0.699687	0.158386
N153	N	1.113488	0.238759	-0.374440
N154	N	1.613488	0.738759	0.125560
H155	H	1.199792	0.186217	-0.669702
H156	H	1.699792	0.686217	-0.169702
H157	H	1.199804	0.186228	-0.813474
H158	H	1.699804	0.686228	-0.313474
