data_functionalizedCrystal
_audit_creation_method	'MofGen! by Chris Wilmer'
_symmetry_space_group_name_H-M	'P1'
_symmetry_Int_Tables_number	1
_symmetry_cell_setting	triclinic
loop_
_symmetry_equiv_pos_as_xyz
  x,y,z
_cell_length_a	16.625548
_cell_length_b	29.839131
_cell_length_c	16.625539
_cell_angle_alpha	89.960252
_cell_angle_beta	89.979432
_cell_angle_gamma	90.036296
loop_
_atom_site_label
_atom_site_type_symbol
_atom_site_fract_x
_atom_site_fract_y
_atom_site_fract_z
Zn1	Zn	1.232609	-0.178840	-0.455845
Zn2	Zn	1.732609	0.321160	0.044155
Zn3	Zn	1.232482	-0.253971	-0.320985
Zn4	Zn	1.732482	0.246029	0.179015
Zn5	Zn	1.097771	-0.178857	-0.321026
Zn6	Zn	1.597771	0.321143	0.178974
Zn7	Zn	1.097711	-0.253945	-0.455775
Zn8	Zn	1.597711	0.246055	0.044225
O9	O	1.165143	-0.216403	-0.388408
O10	O	1.665143	0.283597	0.111592
O11	O	1.345425	-0.188810	-0.437968
O12	O	1.845425	0.311190	0.062032
O13	O	1.214584	-0.244025	-0.208158
O14	O	1.714584	0.255975	0.291842
O15	O	1.115735	-0.115987	-0.338956
O16	O	1.615735	0.384013	0.161044
O17	O	1.345331	-0.244008	-0.338887
O18	O	1.845331	0.255992	0.161113
O19	O	1.214800	-0.115975	-0.438007
O20	O	1.714800	0.384025	0.061993
O21	O	1.115612	-0.188839	-0.208188
O22	O	1.615612	0.311161	0.291812
O23	O	0.984930	-0.188814	-0.338888
O24	O	1.484930	0.311186	0.161112
O25	O	1.115634	-0.243964	-0.568617
O26	O	1.615634	0.256036	-0.068617
O27	O	0.984887	-0.243981	-0.437888
O28	O	1.484887	0.256019	0.062112
O29	O	1.214743	-0.188785	-0.568668
O30	O	1.714743	0.311215	-0.068668
O31	O	1.214526	-0.316834	-0.338820
O32	O	1.714526	0.183166	0.161180
O33	O	1.115511	-0.316815	-0.437849
O34	O	1.615511	0.183185	0.062151
C35	C	0.955652	-0.216397	-0.388385
C36	C	1.455652	0.283603	0.111615
C37	C	0.866031	-0.216405	-0.388395
C38	C	1.366031	0.283595	0.111605
C39	C	0.537856	-0.216408	-0.388429
C40	C	1.037856	0.283592	0.111571
C41	C	0.629164	-0.216406	-0.388417
C42	C	1.129164	0.283594	0.111583
C43	C	0.701941	-0.216406	-0.388411
C44	C	1.201941	0.283594	0.111589
C45	C	0.793255	-0.216404	-0.388401
C46	C	1.293255	0.283596	0.111599
C47	C	1.165020	-0.333126	-0.388340
C48	C	1.665020	0.166874	0.111660
C49	C	1.165041	-0.383060	-0.388338
C50	C	1.665041	0.116940	0.111662
C51	C	1.216715	-0.692662	-0.440057
C52	C	1.716715	-0.192662	0.059943
C53	C	1.216803	-0.880335	-0.440106
C54	C	1.716803	-0.380335	0.059894
O55	O	1.260617	-0.904565	-0.484029
O56	O	1.760617	-0.404565	0.015971
N57	N	1.165280	-0.903845	-0.388497
N58	N	1.665280	-0.403845	0.111503
C59	C	1.113728	-0.880434	-0.336877
C60	C	1.613728	-0.380434	0.163123
O61	O	1.069901	-0.904737	-0.292988
O62	O	1.569901	-0.404737	0.207012
C63	C	1.113637	-0.692762	-0.336833
C64	C	1.613637	-0.192762	0.163167
C65	C	1.165169	-0.669254	-0.388439
C66	C	1.665169	-0.169254	0.111561
C67	C	1.268242	-0.669154	-0.491660
C68	C	1.768242	-0.169154	0.008340
C69	C	1.268223	-0.622239	-0.491644
C70	C	1.768223	-0.122239	0.008356
C71	C	1.216677	-0.598831	-0.440026
C72	C	1.716677	-0.098831	0.059974
C73	C	1.165150	-0.622339	-0.388423
C74	C	1.665150	-0.122339	0.111577
C75	C	1.062082	-0.669352	-0.285217
C76	C	1.562082	-0.169352	0.214783
C77	C	1.062063	-0.622431	-0.285212
C78	C	1.562063	-0.122431	0.214788
C79	C	1.113594	-0.598923	-0.336818
C80	C	1.613594	-0.098923	0.163182
C81	C	1.113584	-0.552016	-0.336790
C82	C	1.613584	-0.052016	0.163210
N83	N	1.165107	-0.528505	-0.388398
N84	N	1.665107	-0.028505	0.111602
C85	C	1.216653	-0.551913	-0.440016
C86	C	1.716653	-0.051913	0.059984
C87	C	1.113781	-0.978965	-0.336902
C88	C	1.613781	-0.478965	0.163098
C89	C	1.113805	-1.025882	-0.336912
C90	C	1.613805	-0.525882	0.163088
C91	C	1.216878	-1.025780	-0.440142
C92	C	1.716878	-0.525780	0.059858
C93	C	1.216858	-0.978861	-0.440128
C94	C	1.716858	-0.478861	0.059872
C95	C	1.165303	-0.955455	-0.388511
C96	C	1.665303	-0.455455	0.111489
C97	C	1.216609	-0.453387	-0.439979
C98	C	1.716609	0.046613	0.060021
C99	C	1.216588	-0.406468	-0.439956
C100	C	1.716588	0.093532	0.060044
C101	C	1.113511	-0.406574	-0.336729
C102	C	1.613511	0.093426	0.163271
C103	C	1.113536	-0.453490	-0.336749
C104	C	1.613536	0.046510	0.163251
C105	C	1.165087	-0.476895	-0.388380
C106	C	1.665087	0.023105	0.111620
O107	O	1.069787	-0.527757	-0.292896
O108	O	1.569787	-0.027757	0.207104
O109	O	1.260461	-0.527602	-0.483911
O110	O	1.760461	-0.027602	0.016089
C111	C	1.216734	-0.739577	-0.440073
C112	C	1.716734	-0.239577	0.059927
C113	C	1.165208	-0.763085	-0.388471
C114	C	1.665208	-0.263085	0.111529
C115	C	1.113662	-0.739677	-0.336852
C116	C	1.613662	-0.239677	0.163148
C117	C	1.165231	-0.810003	-0.388480
C118	C	1.665231	-0.310003	0.111520
C119	C	1.216777	-0.833411	-0.440099
C120	C	1.716777	-0.333411	0.059901
C121	C	1.268300	-0.809901	-0.491707
C122	C	1.768300	-0.309901	0.008293
C123	C	1.268281	-0.762985	-0.491691
C124	C	1.768281	-0.262985	0.008309
C125	C	1.062139	-0.763187	-0.285244
C126	C	1.562139	-0.263187	0.214756
C127	C	1.062163	-0.810103	-0.285263
C128	C	1.562163	-0.310103	0.214737
C129	C	1.113709	-0.833511	-0.336882
C130	C	1.613709	-0.333511	0.163118
C131	C	1.375452	-0.216410	-0.388431
C132	C	1.875452	0.283590	0.111569
C133	C	1.465073	-0.216413	-0.388441
C134	C	1.965073	0.283587	0.111559
C135	C	1.165196	-0.216370	-0.598717
C136	C	1.665196	0.283630	-0.098717
C137	C	1.165218	-0.216355	-0.688338
C138	C	1.665218	0.283645	-0.188338
C139	C	1.165289	-0.099225	-0.388494
C140	C	1.665289	0.400775	0.111506
C141	C	1.165351	-0.049290	-0.388530
C142	C	1.665351	0.450710	0.111470
C143	C	1.165255	-0.216305	-1.016514
C144	C	1.665255	0.283695	-0.516514
C145	C	1.165243	-0.216320	-0.925205
C146	C	1.665243	0.283680	-0.425205
C147	C	1.165237	-0.216330	-0.852429
C148	C	1.665237	0.283670	-0.352429
C149	C	1.165224	-0.216345	-0.761115
C150	C	1.665224	0.283655	-0.261115
C151	C	1.165137	-0.216404	-0.178917
C152	C	1.665137	0.283596	0.321083
C153	C	1.165271	-0.216292	-0.089297
C154	C	1.665271	0.283708	0.410703
H155	H	1.258554	-0.387329	-0.481980
H156	H	1.758554	0.112671	0.018020
O157	O	1.063466	-0.383762	-0.286667
O158	O	1.563466	0.116238	0.213333
C159	C	1.074517	-0.337311	-0.297715
C160	C	1.574517	0.162689	0.202285
H161	H	1.100894	-0.330866	-0.359961
H162	H	1.600894	0.169134	0.140039
H163	H	1.014118	-0.319509	-0.292195
H164	H	1.514118	0.180491	0.207805
H165	H	1.117473	-0.323997	-0.249922
H166	H	1.617473	0.176003	0.250078
O167	O	1.063448	-0.476378	-0.286726
O168	O	1.563448	0.023622	0.213274
C169	C	1.011338	-0.503509	-0.332593
C170	C	1.511338	-0.003509	0.167407
H171	H	1.039742	-0.510493	-0.393728
H172	H	1.539742	-0.010493	0.106272
H173	H	1.000564	-0.536524	-0.299754
H174	H	1.500564	-0.036524	0.200246
H175	H	0.951574	-0.485451	-0.341387
H176	H	1.451574	0.014549	0.158613
O177	O	1.318327	-0.832596	-0.541965
O178	O	1.818327	-0.332596	-0.041965
C179	C	1.300634	-0.821112	-0.622308
C180	C	1.800634	-0.321112	-0.122308
H181	H	1.269636	-0.787058	-0.623943
H182	H	1.769636	-0.287058	-0.123943
H183	H	1.358800	-0.819471	-0.658526
H184	H	1.858800	-0.319471	-0.158526
H185	H	1.259162	-0.847522	-0.649424
H186	H	1.759162	-0.347522	-0.149424
H187	H	1.071798	-0.959910	-0.294868
H188	H	1.571798	-0.459910	0.205132
H189	H	1.258582	-0.472439	-0.482027
H190	H	1.758582	0.027561	0.017973
O191	O	1.318222	-0.740104	-0.541866
O192	O	1.818222	-0.240104	-0.041866
C193	C	1.272277	-0.712973	-0.593913
C194	C	1.772277	-0.212973	-0.093913
H195	H	1.211188	-0.705981	-0.565416
H196	H	1.711188	-0.205981	-0.065416
H197	H	1.305105	-0.679962	-0.604750
H198	H	1.805105	-0.179962	-0.104750
H199	H	1.263387	-0.731035	-0.653657
H200	H	1.763387	-0.231035	-0.153657
H201	H	1.258819	-0.959724	-0.482150
H202	H	1.758819	-0.459724	0.017850
H203	H	1.020201	-0.829239	-0.243232
H204	H	1.520201	-0.329239	0.256768
H205	H	1.020078	-0.603375	-0.243180
H206	H	1.520078	-0.103375	0.256820
H207	H	1.071851	-1.045018	-0.294881
H208	H	1.571851	-0.545018	0.205119
H209	H	1.310182	-0.603102	-0.533669
H210	H	1.810182	-0.103102	-0.033669
O211	O	1.318360	-0.691938	-0.541692
O212	O	1.818360	-0.191938	-0.041692
C213	C	1.370496	-0.719060	-0.495841
C214	C	1.870496	-0.219060	0.004159
H215	H	1.342093	-0.726138	-0.434715
H216	H	1.842093	-0.226138	0.065285
H217	H	1.381314	-0.752029	-0.528707
H218	H	1.881314	-0.252029	-0.028707
H219	H	1.430237	-0.700946	-0.487023
H220	H	1.930237	-0.200946	0.012977
O221	O	1.266832	-1.048543	-0.490375
O222	O	1.766832	-0.548543	0.009625
C223	C	1.220896	-1.075689	-0.542391
C224	C	1.720896	-0.575689	-0.042391
H225	H	1.157384	-1.061575	-0.547302
H226	H	1.657384	-0.561575	-0.047302
H227	H	1.250013	-1.076183	-0.604475
H228	H	1.750013	-0.576183	-0.104475
H229	H	1.218145	-1.111258	-0.517461
H230	H	1.718145	-0.611258	-0.017461
O231	O	1.011944	-0.692110	-0.235064
O232	O	1.511944	-0.192110	0.264936
C233	C	0.966460	-0.661380	-0.189500
C234	C	1.466460	-0.161380	0.310500
H235	H	0.963650	-0.627923	-0.222522
H236	H	1.463650	-0.127923	0.277478
H237	H	0.902938	-0.674964	-0.180850
H238	H	1.402938	-0.174964	0.319150
H239	H	0.996013	-0.656403	-0.128285
H240	H	1.496013	-0.156403	0.371715
H241	H	1.020163	-0.744132	-0.243211
H242	H	1.520163	-0.244132	0.256789
