data_functionalizedCrystal
_audit_creation_method	'MofGen! by Chris Wilmer'
_symmetry_space_group_name_H-M	'P1'
_symmetry_Int_Tables_number	1
_symmetry_cell_setting	triclinic
loop_
_symmetry_equiv_pos_as_xyz
  x,y,z
_cell_length_a	19.188930
_cell_length_b	19.188930
_cell_length_c	17.666332
_cell_angle_alpha	90.011603
_cell_angle_beta	89.976766
_cell_angle_gamma	96.855221
loop_
_atom_site_label
_atom_site_type_symbol
_atom_site_fract_x
_atom_site_fract_y
_atom_site_fract_z
O1	O	0.926150	-0.087169	-0.063200
O2	O	1.426150	0.412831	0.436800
O3	O	0.722838	-0.098903	-0.063149
O4	O	1.222838	0.401097	0.436851
O5	O	0.830361	0.008620	-0.063161
O6	O	1.330361	0.508620	0.436839
O7	O	0.818627	-0.194692	-0.063188
O8	O	1.318627	0.305308	0.436812
O9	O	0.830342	0.008625	0.062735
O10	O	1.330342	0.508625	0.562735
O11	O	0.722820	-0.098897	0.062747
O12	O	1.222820	0.401103	0.562747
O13	O	0.926131	-0.087163	0.062697
O14	O	1.426131	0.412837	0.562697
Cu15	Cu	0.824473	-0.093030	0.074217
Cu16	Cu	1.324473	0.406970	0.574217
Cu17	Cu	0.824496	-0.093036	-0.074670
Cu18	Cu	1.324496	0.406964	0.425330
O19	O	0.818608	-0.194686	0.062709
O20	O	1.318608	0.305314	0.562709
C21	C	0.696818	-0.098520	-0.000194
C22	C	1.196818	0.401480	0.499806
C23	C	0.619313	-0.097380	-0.000174
C24	C	1.119313	0.402620	0.499826
C25	C	0.574389	-0.160470	-0.000194
C26	C	1.074389	0.339530	0.499806
C27	C	0.501566	-0.159399	-0.000203
C28	C	1.001566	0.340601	0.499797
C29	C	0.473669	-0.095233	-0.000206
C30	C	0.973669	0.404767	0.499794
C31	C	0.518603	-0.032133	-0.000181
C32	C	1.018603	0.467867	0.499819
C33	C	0.591425	-0.033207	-0.000166
C34	C	1.091425	0.466793	0.499834
N35	N	0.365695	-0.046188	-0.043078
N36	N	0.865695	0.453812	0.456922
N37	N	0.296517	-0.045172	-0.043095
N38	N	0.796517	0.454828	0.456905
C39	C	0.254260	-0.091994	-0.000252
C40	C	0.754260	0.408006	0.499748
N41	N	0.283795	-0.139881	0.042599
N42	N	0.783795	0.360119	0.542599
N43	N	0.352979	-0.140899	0.042612
N44	N	0.852979	0.359101	0.542612
C45	C	0.394707	-0.094062	-0.000222
C46	C	0.894707	0.405938	0.499778
C47	C	0.130372	-0.153928	-0.000280
C48	C	0.630372	0.346072	0.499720
C49	C	0.057547	-0.152853	-0.000283
C50	C	0.557547	0.347147	0.499717
C51	C	0.074586	-0.025586	-0.000270
C52	C	0.574586	0.474414	0.499730
C53	C	0.147409	-0.026662	-0.000258
C54	C	0.647409	0.473338	0.499742
C55	C	0.175298	-0.090835	-0.000267
C56	C	0.675298	0.409165	0.499733
C57	C	0.829972	0.034634	-0.000211
C58	C	1.329972	0.534634	0.499789
C59	C	0.828831	0.112138	-0.000204
C60	C	1.328831	0.612138	0.499796
C61	C	0.952151	-0.087546	-0.000260
C62	C	1.452151	0.412454	0.499740
C63	C	1.029656	-0.088687	-0.000285
C64	C	1.529656	0.411313	0.499715
C65	C	0.818997	-0.220700	-0.000244
C66	C	1.318997	0.279300	0.499756
C67	C	0.820138	-0.298204	-0.000255
C68	C	1.320138	0.201796	0.499745
N69	N	0.824463	-0.093025	0.178937
N70	N	1.324463	0.406975	0.678937
C71	C	0.891922	0.157062	-0.000216
C72	C	1.391922	0.657062	0.499784
C73	C	0.890850	0.229886	-0.000228
C74	C	1.390850	0.729886	0.499772
C75	C	0.826684	0.257782	-0.000212
C76	C	1.326684	0.757782	0.499788
C77	C	0.763585	0.212849	-0.000205
C78	C	1.263585	0.712849	0.499795
C79	C	0.764658	0.140026	-0.000200
C80	C	1.264658	0.640026	0.499800
N81	N	0.777630	0.365789	0.042645
N82	N	1.277630	0.865789	0.542645
N83	N	0.776615	0.434968	0.042642
N84	N	1.276615	0.934968	0.542642
C85	C	0.823446	0.477191	-0.000227
C86	C	1.323446	0.977191	0.499773
N87	N	0.871341	0.447624	-0.043084
N88	N	1.371341	0.947624	0.456916
N89	N	0.872359	0.378439	-0.043079
N90	N	1.372359	0.878439	0.456921
C91	C	0.825513	0.336745	-0.000218
C92	C	1.325513	0.836745	0.499782
C93	C	0.885379	0.601079	-0.000253
C94	C	1.385379	1.101079	0.499747
C95	C	0.884305	0.673904	-0.000270
C96	C	1.384305	1.173904	0.499730
C97	C	0.757038	0.656865	-0.000239
C98	C	1.257038	1.156865	0.499761
C99	C	0.758114	0.584042	-0.000230
C100	C	1.258114	1.084042	0.499770
C101	C	0.822287	0.556154	-0.000233
C102	C	1.322287	1.056154	0.499767
N103	N	0.824512	-0.093036	-0.179390
N104	N	1.324512	0.406964	0.320610
C105	C	0.872089	-0.045437	0.218541
C106	C	1.372089	0.454563	0.718541
C107	C	0.872093	-0.045433	0.297789
C108	C	1.372093	0.454567	0.797789
C109	C	0.824478	-0.093030	0.337429
C110	C	1.324478	0.406970	0.837429
C111	C	0.776842	-0.140621	0.297815
C112	C	1.276842	0.359379	0.797815
C113	C	0.776835	-0.140619	0.218569
C114	C	1.276835	0.359381	0.718569
N115	N	0.815401	-0.154837	0.461841
N116	N	1.315401	0.345163	0.961841
N117	N	0.815413	-0.154837	0.537121
N118	N	1.315413	0.345163	1.037121
C119	C	0.824496	-0.093040	0.576193
C120	C	1.324496	0.406960	1.076193
N121	N	0.833582	-0.031239	0.537140
N122	N	1.333582	0.468761	1.037140
N123	N	0.833574	-0.031240	0.461853
N124	N	1.333574	0.468760	0.961853
C125	C	0.824480	-0.093038	0.423358
C126	C	1.324480	0.406962	0.923358
C127	C	0.872130	-0.045444	0.701727
C128	C	1.372130	0.454556	1.201727
C129	C	0.872129	-0.045440	0.780976
C130	C	1.372129	0.454560	1.280976
C131	C	0.776881	-0.140634	0.781000
C132	C	1.276881	0.359366	1.281000
C133	C	0.776878	-0.140632	0.701753
C134	C	1.276878	0.359368	1.201753
C135	C	0.824506	-0.093038	0.662121
C136	C	1.324506	0.406962	1.162121
H137	H	0.020970	-0.204232	-0.000295
H138	H	0.520970	0.295768	0.499705
H139	H	0.706738	0.547464	-0.000216
H140	H	1.206738	1.047464	0.499784
C141	C	0.966245	0.048658	0.289813
C142	C	1.466245	0.548658	0.789813
C143	C	0.924446	0.006881	0.341334
C144	C	1.424446	0.506881	0.841334
H145	H	0.998566	0.080952	0.316696
H146	H	1.498566	0.580952	0.816696
H147	H	0.937261	0.073702	0.258927
H148	H	1.437261	0.573702	0.758927
H149	H	0.991266	0.019651	0.258882
H150	H	1.491266	0.519651	0.758882
H151	H	0.899421	0.035888	0.372262
H152	H	1.399421	0.535888	0.872262
H153	H	0.953434	-0.018165	0.372233
H154	H	1.453434	0.481835	0.872233
H155	H	0.937632	0.578372	-0.000259
H156	H	1.437632	1.078372	0.499741
H157	H	0.738072	-0.179374	0.330094
H158	H	1.238072	0.320626	0.830094
H159	H	0.738099	-0.179386	0.669505
H160	H	1.238099	0.320614	1.169505
C161	C	0.655894	-0.181932	0.805449
C162	C	1.155894	0.318068	1.305449
C163	C	0.724538	-0.192952	0.824564
C164	C	1.224538	0.307048	1.324564
H165	H	0.623579	-0.214228	0.832350
H166	H	1.123579	0.285772	1.332350
H167	H	0.649080	-0.188745	0.752591
H168	H	1.149080	0.311255	1.252591
H169	H	0.648468	-0.135350	0.818456
H170	H	1.148468	0.364650	1.318456
H171	H	0.731966	-0.239533	0.811551
H172	H	1.231966	0.260467	1.311551
H173	H	0.731355	-0.186145	0.877434
H174	H	1.231355	0.313855	1.377434
H175	H	0.910909	-0.006688	0.669457
H176	H	1.410909	0.493312	1.169457
H177	H	0.935683	0.710481	-0.000284
H178	H	1.435683	1.210481	0.499716
C179	C	0.692046	0.048235	-0.064898
C180	C	1.192046	0.548235	0.435102
C181	C	0.695303	0.090642	-0.000184
C182	C	1.195303	0.590642	0.499816
H183	H	0.649226	0.017750	-0.064888
H184	H	1.149226	0.517750	0.435112
H185	H	0.730410	0.021204	-0.064897
H186	H	1.230410	0.521204	0.435103
H187	H	0.694280	0.076995	-0.108800
H188	H	1.194280	0.576995	0.391200
H189	H	0.693074	0.061883	0.043717
H190	H	1.193074	0.561883	0.543717
H191	H	0.656928	0.117676	-0.000179
H192	H	1.156928	0.617676	0.499821
H193	H	0.738051	-0.179371	0.186322
H194	H	1.238051	0.320629	0.686322
H195	H	0.704792	0.679578	-0.000230
H196	H	1.204792	1.179578	0.499770
C197	C	0.913524	0.075531	0.805373
C198	C	1.413524	0.575531	1.305373
C199	C	0.924487	0.006873	0.824509
C200	C	1.424487	0.506873	1.324509
H201	H	0.945853	0.107826	0.832247
H202	H	1.445853	0.607826	1.332247
H203	H	0.866962	0.083002	0.818392
H204	H	1.366962	0.583002	1.318392
H205	H	0.920336	0.082332	0.752503
H206	H	1.420336	0.582332	1.252503
H207	H	0.917669	0.000071	0.877379
H208	H	1.417669	0.500071	1.377379
H209	H	0.971060	-0.000600	0.811496
H210	H	1.471060	0.499400	1.311496
C211	C	0.550227	-0.286159	-0.000207
C212	C	1.050227	0.213841	0.499793
C213	C	0.605043	-0.231008	-0.000191
C214	C	1.105043	0.268992	0.499809
H215	H	0.569154	-0.329705	-0.000199
H216	H	1.069154	0.170295	0.499801
H217	H	0.522207	-0.283096	-0.044115
H218	H	1.022207	0.216904	0.455885
H219	H	0.522151	-0.283084	0.043692
H220	H	1.022151	0.216916	0.543692
H221	H	0.633116	-0.234080	-0.044093
H222	H	1.133116	0.265920	0.455907
H223	H	0.633076	-0.234072	0.043721
H224	H	1.133076	0.265928	0.543721
C225	C	0.382365	-0.214256	-0.000240
C226	C	0.882365	0.285744	0.499760
C227	C	0.452172	-0.228752	-0.000227
C228	C	0.952172	0.271248	0.499773
H229	H	0.351875	-0.257073	-0.000251
H230	H	0.851875	0.242927	0.499749
H231	H	0.373962	-0.187937	-0.044137
H232	H	0.873962	0.312063	0.455863
H233	H	0.373914	-0.187936	0.043669
H234	H	0.873914	0.312064	0.543669
H235	H	0.460625	-0.255068	-0.044140
H236	H	0.960625	0.244932	0.455860
H237	H	0.460579	-0.255082	0.043674
H238	H	0.960579	0.244918	0.543674
C239	C	0.414536	0.026019	-0.000213
C240	C	0.914536	0.526019	0.499787
C241	C	0.487942	0.038399	-0.000189
C242	C	0.987942	0.538399	0.499811
H243	H	0.395609	0.069566	-0.000221
H244	H	0.895609	0.569566	0.499779
H245	H	0.399080	0.000058	0.043681
H246	H	0.899080	0.500058	0.543681
H247	H	0.399135	0.000047	-0.044125
H248	H	0.899135	0.500047	0.455875
H249	H	0.503343	0.064368	0.043726
H250	H	1.003343	0.564368	0.543726
H251	H	0.503404	0.064372	-0.044088
H252	H	1.003404	0.564372	0.455912
H253	H	0.942228	0.266470	-0.000241
H254	H	1.442228	0.766470	0.499759
C255	C	0.628402	0.074931	-0.064870
C256	C	1.128402	0.574931	0.435130
C257	C	0.640812	0.036147	-0.000152
C258	C	1.140812	0.536147	0.499848
H259	H	0.658896	0.117745	-0.064864
H260	H	1.158896	0.617745	0.435136
H261	H	0.581047	0.084754	-0.064870
H262	H	1.081047	0.584754	0.435130
H263	H	0.636860	0.048599	-0.108769
H264	H	1.136860	0.548599	0.391231
H265	H	0.632349	0.062477	0.043747
H266	H	1.132349	0.562477	0.543747
H267	H	0.688179	0.026326	-0.000145
H268	H	1.188179	0.526326	0.499855
H269	H	0.183988	0.024713	-0.000246
H270	H	0.683988	0.524713	0.499754
H271	H	0.153080	-0.206181	-0.000276
H272	H	0.653080	0.293819	0.499724
H273	H	0.711340	0.235567	-0.000194
H274	H	1.211340	0.735567	0.499806
H275	H	0.051874	0.026659	-0.000319
H276	H	0.551874	0.526659	0.499681
H277	H	0.910869	-0.006681	0.186275
H278	H	1.410869	0.493319	0.686275
H279	H	0.944176	0.134360	-0.000222
H280	H	1.444176	0.634360	0.499778
