data_functionalizedCrystal
_audit_creation_method	'MofGen! by Chris Wilmer'
_symmetry_space_group_name_H-M	'P1'
_symmetry_Int_Tables_number	1
_symmetry_cell_setting	triclinic
loop_
_symmetry_equiv_pos_as_xyz
  x,y,z
_cell_length_a	16.120490
_cell_length_b	18.050590
_cell_length_c	16.120297
_cell_angle_alpha	92.871020
_cell_angle_beta	90.129683
_cell_angle_gamma	87.110849
loop_
_atom_site_label
_atom_site_type_symbol
_atom_site_fract_x
_atom_site_fract_y
_atom_site_fract_z
Zn1	Zn	1.247484	-0.376310	-0.534523
Zn2	Zn	1.497484	-0.126310	-0.284523
Zn3	Zn	1.747484	0.123690	-0.034523
Zn4	Zn	1.997484	0.373690	0.215477
Zn5	Zn	1.254446	-0.494536	-0.395461
Zn6	Zn	1.504446	-0.244536	-0.145461
Zn7	Zn	1.754446	0.005464	0.104539
Zn8	Zn	2.004446	0.255464	0.354539
Zn9	Zn	1.115472	-0.363754	-0.388444
Zn10	Zn	1.365472	-0.113754	-0.138444
Zn11	Zn	1.615472	0.136246	0.111556
Zn12	Zn	1.865472	0.386246	0.361556
Zn13	Zn	1.108402	-0.493845	-0.527434
Zn14	Zn	1.358402	-0.243845	-0.277434
Zn15	Zn	1.608402	0.006155	-0.027434
Zn16	Zn	1.858402	0.256155	0.222566
O17	O	1.181451	-0.432111	-0.461466
O18	O	1.431451	-0.182111	-0.211466
O19	O	1.681451	0.067889	0.038534
O20	O	1.931451	0.317889	0.288534
O21	O	1.364775	-0.397537	-0.521979
O22	O	1.614775	-0.147537	-0.271979
O23	O	1.864775	0.102463	-0.021979
O24	O	2.114775	0.352463	0.228021
O25	O	1.241884	-0.472222	-0.278165
O26	O	1.491884	-0.222222	-0.028165
O27	O	1.741884	0.027778	0.221835
O28	O	1.991884	0.277778	0.471835
O29	O	1.133029	-0.261498	-0.407852
O30	O	1.383029	-0.011498	-0.157852
O31	O	1.633029	0.238502	0.092148
O32	O	1.883029	0.488502	0.342148
O33	O	1.369890	-0.484397	-0.419811
O34	O	1.619890	-0.234397	-0.169811
O35	O	1.869890	0.015603	0.080189
O36	O	2.119890	0.265603	0.330189
O37	O	1.230018	-0.270723	-0.515175
O38	O	1.480018	-0.020723	-0.265175
O39	O	1.730018	0.229277	-0.015175
O40	O	1.980018	0.479277	0.234825
O41	O	1.139780	-0.376137	-0.273010
O42	O	1.389780	-0.126137	-0.023010
O43	O	1.639780	0.123863	0.226990
O44	O	1.889780	0.373863	0.476990
O45	O	0.998167	-0.375467	-0.400978
O46	O	1.248167	-0.125467	-0.150978
O47	O	1.498167	0.124533	0.099022
O48	O	1.748167	0.374533	0.349022
O49	O	1.120979	-0.483219	-0.644740
O50	O	1.370979	-0.233219	-0.394740
O51	O	1.620979	0.016781	-0.144740
O52	O	1.870979	0.266781	0.105260
O53	O	0.992972	-0.471044	-0.503094
O54	O	1.242972	-0.221044	-0.253094
O55	O	1.492972	0.028956	-0.003094
O56	O	1.742972	0.278956	0.246906
O57	O	1.223162	-0.396867	-0.649948
O58	O	1.473162	-0.146867	-0.399948
O59	O	1.723162	0.103133	-0.149948
O60	O	1.973162	0.353133	0.100052
O61	O	1.235028	-0.598365	-0.412938
O62	O	1.485028	-0.348365	-0.162938
O63	O	1.735028	-0.098365	0.087062
O64	O	1.985028	0.151635	0.337062
O65	O	1.127730	-0.597857	-0.509898
O66	O	1.377730	-0.347857	-0.259898
O67	O	1.627730	-0.097857	-0.009898
O68	O	1.877730	0.152143	0.240102
C69	C	0.965397	-0.421819	-0.450506
C70	C	1.215397	-0.171819	-0.200506
C71	C	1.465397	0.078181	0.049494
C72	C	1.715397	0.328181	0.299494
C73	C	0.872967	-0.417434	-0.445837
C74	C	1.122967	-0.167434	-0.195837
C75	C	1.372967	0.082566	0.054163
C76	C	1.622967	0.332566	0.304163
C77	C	0.660009	-0.454848	-0.485686
C78	C	0.910009	-0.204848	-0.235686
C79	C	1.160009	0.045152	0.014314
C80	C	1.410009	0.295152	0.264314
C81	C	0.703741	-0.409436	-0.437312
C82	C	0.953741	-0.159436	-0.187312
C83	C	1.203741	0.090564	0.062688
C84	C	1.453741	0.340564	0.312688
C85	C	0.797907	-0.413887	-0.442057
C86	C	1.047907	-0.163887	-0.192057
C87	C	1.297907	0.086113	0.057943
C88	C	1.547907	0.336113	0.307943
C89	C	0.565834	-0.450398	-0.480942
C90	C	0.815834	-0.200398	-0.230942
C91	C	1.065834	0.049602	0.019058
C92	C	1.315834	0.299602	0.269058
C93	C	1.181389	-0.625059	-0.461429
C94	C	1.431389	-0.375059	-0.211429
C95	C	1.681389	-0.125059	0.038571
C96	C	1.931389	0.124941	0.288571
C97	C	1.181437	-0.707607	-0.461445
C98	C	1.431437	-0.457607	-0.211445
C99	C	1.681437	-0.207607	0.038555
C100	C	1.931437	0.042393	0.288555
C101	C	1.239897	-0.907316	-0.408802
C102	C	1.489897	-0.657316	-0.158802
C103	C	1.739897	-0.407316	0.091198
C104	C	1.989897	-0.157316	0.341198
C105	C	1.256363	-0.960870	-0.485723
C106	C	1.506363	-0.710870	-0.235723
C107	C	1.756363	-0.460870	0.014277
C108	C	2.006363	-0.210870	0.264277
C109	C	1.181483	-0.858741	-0.461481
C110	C	1.431483	-0.608741	-0.211481
C111	C	1.681483	-0.358741	0.038519
C112	C	1.931483	-0.108741	0.288519
C113	C	1.165100	-0.952274	-0.384598
C114	C	1.415100	-0.702274	-0.134598
C115	C	1.665100	-0.452274	0.115402
C116	C	1.915100	-0.202274	0.365402
C117	C	1.181528	-1.004730	-0.461509
C118	C	1.431528	-0.754730	-0.211509
C119	C	1.681528	-0.504730	0.038491
C120	C	1.931528	-0.254730	0.288491
C121	C	1.197985	-0.911212	-0.538444
C122	C	1.447985	-0.661212	-0.288444
C123	C	1.697985	-0.411212	-0.038444
C124	C	1.947985	-0.161212	0.211556
C125	C	1.106690	-0.902608	-0.437266
C126	C	1.356690	-0.652608	-0.187266
C127	C	1.606690	-0.402608	0.062734
C128	C	1.856690	-0.152608	0.312734
C129	C	1.123123	-0.956141	-0.514238
C130	C	1.373123	-0.706141	-0.264238
C131	C	1.623123	-0.456141	-0.014238
C132	C	1.873123	-0.206141	0.235762
C133	C	1.181458	-0.774641	-0.461464
C134	C	1.431458	-0.524641	-0.211464
C135	C	1.681458	-0.274641	0.038536
C136	C	1.931458	-0.024641	0.288536
C137	C	1.181552	-1.088829	-0.461534
C138	C	1.431552	-0.838829	-0.211534
C139	C	1.681552	-0.588829	0.038466
C140	C	1.931552	-0.338829	0.288466
C141	C	1.398349	-0.442444	-0.472469
C142	C	1.648349	-0.192444	-0.222469
C143	C	1.898349	0.057556	0.027531
C144	C	2.148349	0.307556	0.277531
C145	C	1.490778	-0.446848	-0.477158
C146	C	1.740778	-0.196848	-0.227158
C147	C	1.990778	0.053152	0.022842
C148	C	2.240778	0.303152	0.272842
C149	C	1.170505	-0.441366	-0.678360
C150	C	1.420505	-0.191366	-0.428360
C151	C	1.670505	0.058634	-0.178360
C152	C	1.920505	0.308634	0.071640
C153	C	1.165840	-0.445310	-0.770787
C154	C	1.415840	-0.195310	-0.520787
C155	C	1.665840	0.054690	-0.270787
C156	C	1.915840	0.304690	-0.020787
C157	C	1.181535	-0.238412	-0.461522
C158	C	1.431535	0.011588	-0.211522
C159	C	1.681535	0.261588	0.038478
C160	C	1.931535	0.511588	0.288478
C161	C	1.181571	-0.155869	-0.461545
C162	C	1.431571	0.094131	-0.211545
C163	C	1.681571	0.344131	0.038455
C164	C	1.931571	0.594131	0.288455
C165	C	1.157293	-0.452493	-0.940012
C166	C	1.407293	-0.202493	-0.690012
C167	C	1.657293	0.047507	-0.440012
C168	C	1.907293	0.297507	-0.190012
C169	C	1.205773	-0.411514	-0.983780
C170	C	1.455773	-0.161514	-0.733780
C171	C	1.705773	0.088486	-0.483780
C172	C	1.955773	0.338486	-0.233780
C173	C	1.201017	-0.415511	-1.077942
C174	C	1.451017	-0.165511	-0.827942
C175	C	1.701017	0.084489	-0.577942
C176	C	1.951017	0.334489	-0.327942
C177	C	1.162048	-0.448497	-0.845841
C178	C	1.412048	-0.198497	-0.595841
C179	C	1.662048	0.051503	-0.345841
C180	C	1.912048	0.301503	-0.095841
C181	C	1.192403	-0.422840	-0.245418
C182	C	1.442403	-0.172840	0.004582
C183	C	1.692403	0.077160	0.254582
C184	C	1.942403	0.327160	0.504582
C185	C	1.197229	-0.418695	-0.152999
C186	C	1.447229	-0.168695	0.097001
C187	C	1.697229	0.081305	0.347001
C188	C	1.947229	0.331305	0.597001
H189	H	0.670461	-0.367214	-0.392334
H190	H	0.920461	-0.117214	-0.142334
H191	H	1.170461	0.132786	0.107666
H192	H	1.420461	0.382786	0.357666
O193	O	1.097585	-0.502938	-0.984043
O194	O	1.347585	-0.252938	-0.734043
O195	O	1.597585	-0.002938	-0.484043
O196	O	1.847585	0.247062	-0.234043
H197	H	1.132832	-0.544141	-1.025501
H198	H	1.382832	-0.294141	-0.775501
H199	H	1.632832	-0.044141	-0.525501
H200	H	1.882832	0.205859	-0.275501
H201	H	1.211794	-0.893126	-0.603527
H202	H	1.461794	-0.643126	-0.353527
H203	H	1.711794	-0.393126	-0.103527
H204	H	1.961794	-0.143126	0.146473
H205	H	0.693287	-0.497067	-0.530659
H206	H	0.943287	-0.247067	-0.280659
H207	H	1.193287	0.002933	-0.030659
H208	H	1.443287	0.252933	0.219341
H209	H	1.073741	-0.977452	-0.558853
H210	H	1.323741	-0.727452	-0.308853
H211	H	1.573741	-0.477452	-0.058853
H212	H	1.823741	-0.227452	0.191147
H213	H	1.250849	-0.373429	-0.950532
H214	H	1.500849	-0.123429	-0.700532
H215	H	1.750849	0.126571	-0.450532
H216	H	2.000849	0.376571	-0.200532
H217	H	1.319633	-0.986316	-0.506222
H218	H	1.569633	-0.736316	-0.256222
H219	H	1.819633	-0.486316	-0.006222
H220	H	2.069633	-0.236316	0.243778
O221	O	1.305342	-0.878901	-0.349856
O222	O	1.555342	-0.628901	-0.099856
O223	O	1.805342	-0.378901	0.150144
O224	O	2.055342	-0.128901	0.400144
H225	H	1.367388	-0.902369	-0.370170
H226	H	1.617388	-0.652369	-0.120170
H227	H	1.867388	-0.402369	0.129830
H228	H	2.117388	-0.152369	0.379830
H229	H	1.043439	-0.877146	-0.416746
H230	H	1.293439	-0.627146	-0.166746
H231	H	1.543439	-0.377146	0.083254
H232	H	1.793439	-0.127146	0.333254
O233	O	1.146706	-0.976348	-0.298460
O234	O	1.396706	-0.726348	-0.048460
O235	O	1.646706	-0.476348	0.201540
O236	O	1.896706	-0.226348	0.451540
H237	H	1.195261	-0.956802	-0.254845
H238	H	1.445261	-0.706802	-0.004845
H239	H	1.695261	-0.456802	0.245155
H240	H	1.945261	-0.206802	0.495155
