data_functionalizedCrystal
_audit_creation_method	'MofGen! by Chris Wilmer'
_symmetry_space_group_name_H-M	'P1'
_symmetry_Int_Tables_number	1
_symmetry_cell_setting	triclinic
loop_
_symmetry_equiv_pos_as_xyz
  x,y,z
_cell_length_a	17.077404
_cell_length_b	18.050589
_cell_length_c	17.077396
_cell_angle_alpha	89.974523
_cell_angle_beta	89.982756
_cell_angle_gamma	90.028446
loop_
_atom_site_label
_atom_site_type_symbol
_atom_site_fract_x
_atom_site_fract_y
_atom_site_fract_z
Zn1	Zn	1.200008	-0.295649	-0.443864
Zn2	Zn	1.700008	0.204351	0.056136
Zn3	Zn	1.199908	-0.419848	-0.312606
Zn4	Zn	1.699908	0.080152	0.187394
Zn5	Zn	1.068745	-0.295677	-0.312612
Zn6	Zn	1.568745	0.204323	0.187388
Zn7	Zn	1.068696	-0.419802	-0.443830
Zn8	Zn	1.568696	0.080198	0.056170
O9	O	1.134339	-0.357744	-0.378228
O10	O	1.634339	0.142256	0.121772
O11	O	1.309842	-0.312132	-0.426464
O12	O	1.809842	0.187868	0.073536
O13	O	1.182488	-0.403407	-0.202760
O14	O	1.682488	0.096593	0.297240
O15	O	1.086220	-0.191748	-0.330039
O16	O	1.586220	0.308252	0.169961
O17	O	1.309768	-0.403380	-0.330030
O18	O	1.809768	0.096620	0.169970
O19	O	1.182658	-0.191728	-0.426469
O20	O	1.682658	0.308272	0.073531
O21	O	1.086123	-0.312179	-0.202764
O22	O	1.586123	0.187821	0.297236
O23	O	0.958892	-0.312135	-0.330006
O24	O	1.458892	0.187865	0.169994
O25	O	1.086136	-0.403302	-0.553681
O26	O	1.586136	0.096698	-0.053681
O27	O	0.958855	-0.403329	-0.426412
O28	O	1.458855	0.096671	0.073588
O29	O	1.182610	-0.312087	-0.553706
O30	O	1.682610	0.187913	-0.053706
O31	O	1.182440	-0.523766	-0.329997
O32	O	1.682440	-0.023766	0.170003
O33	O	1.086039	-0.523733	-0.426407
O34	O	1.586039	-0.023733	0.073593
C35	C	0.930391	-0.357730	-0.378206
C36	C	1.430391	0.142270	0.121794
C37	C	0.843142	-0.357743	-0.378216
C38	C	1.343142	0.142257	0.121784
C39	C	0.802153	-0.405299	-0.428333
C40	C	1.302153	0.094701	0.071667
C41	C	0.720173	-0.405301	-0.428346
C42	C	1.220173	0.094699	0.071654
C43	C	0.679182	-0.357749	-0.378236
C44	C	1.179182	0.142251	0.121764
C45	C	0.720176	-0.310187	-0.328116
C46	C	1.220176	0.189813	0.171884
C47	C	0.802155	-0.310182	-0.328108
C48	C	1.302155	0.189818	0.171892
C49	C	0.549306	-0.310202	-0.328135
C50	C	1.049306	0.189798	0.171865
C51	C	0.467322	-0.310207	-0.328142
C52	C	0.967322	0.189793	0.171858
C53	C	0.467324	-0.405320	-0.428373
C54	C	0.967324	0.094680	0.071627
C55	C	0.549303	-0.405315	-0.428365
C56	C	1.049303	0.094685	0.071635
C57	C	0.590291	-0.357754	-0.378244
C58	C	1.090291	0.142246	0.121756
C59	C	1.134244	-0.550696	-0.378215
C60	C	1.634244	-0.050696	0.121785
C61	C	1.134276	-0.633242	-0.378236
C62	C	1.634276	-0.133242	0.121764
C63	C	1.081904	-0.832701	-0.430645
C64	C	1.581904	-0.332701	0.069355
C65	C	1.062772	-0.882144	-0.359016
C66	C	1.562772	-0.382144	0.140984
C67	C	1.134353	-0.784372	-0.378246
C68	C	1.634353	-0.284372	0.121754
C69	C	1.153524	-0.882011	-0.449883
C70	C	1.653524	-0.382011	0.050117
C71	C	1.134426	-0.930357	-0.378262
C72	C	1.634426	-0.430357	0.121738
C73	C	1.115183	-0.832728	-0.306579
C74	C	1.615183	-0.332728	0.193421
C75	C	1.205968	-0.832591	-0.397495
C76	C	1.705968	-0.332591	0.102505
C77	C	1.186863	-0.882011	-0.325816
C78	C	1.686863	-0.382011	0.174184
C79	C	1.134309	-0.700274	-0.378238
C80	C	1.634309	-0.200274	0.121762
C81	C	1.134470	-1.014454	-0.378262
C82	C	1.634470	-0.514454	0.121738
C83	C	1.339083	-0.357758	-0.378250
C84	C	1.839083	0.142242	0.121750
C85	C	1.426333	-0.357764	-0.378260
C86	C	1.926333	0.142236	0.121740
C87	C	1.134379	-0.357686	-0.582972
C88	C	1.634379	0.142314	-0.082972
C89	C	1.134395	-0.357662	-0.670222
C90	C	1.634395	0.142338	-0.170222
C91	C	1.134456	-0.164038	-0.378258
C92	C	1.634456	0.335962	0.121742
C93	C	1.134505	-0.081492	-0.378271
C94	C	1.634505	0.418508	0.121729
C95	C	1.084234	-0.310154	-0.711214
C96	C	1.584234	0.189846	-0.211214
C97	C	1.084246	-0.310137	-0.793194
C98	C	1.584246	0.189863	-0.293194
C99	C	1.134426	-0.357625	-0.834182
C100	C	1.634426	0.142375	-0.334182
C101	C	1.184590	-0.405138	-0.793184
C102	C	1.684590	0.094862	-0.293184
C103	C	1.184572	-0.405158	-0.711205
C104	C	1.684572	0.094842	-0.211205
C105	C	1.184624	-0.405092	-0.964054
C106	C	1.684624	0.094908	-0.464054
C107	C	1.184642	-0.405071	-1.046039
C108	C	1.684642	0.094929	-0.546039
C109	C	1.084298	-0.310070	-1.046043
C110	C	1.584298	0.189930	-0.546043
C111	C	1.084280	-0.310090	-0.964064
C112	C	1.584280	0.189910	-0.464064
C113	C	1.134446	-0.357603	-0.923073
C114	C	1.634446	0.142397	-0.423073
C115	C	1.134345	-0.357748	-0.174280
C116	C	1.634345	0.142252	0.325720
C117	C	1.134480	-0.357563	-0.087031
C118	C	1.634480	0.142437	0.412969
H119	H	0.835522	-0.444024	-0.469136
H120	H	1.335522	0.055976	0.030864
H121	H	1.266482	-0.810810	-0.413795
H122	H	1.766482	-0.310810	0.086205
H123	H	0.582677	-0.271466	-0.287328
H124	H	1.082677	0.228534	0.212672
Br125	Br	0.857784	-0.245635	-0.260093
Br126	Br	1.357784	0.254365	0.239907
Br127	Br	1.016220	-0.245585	-1.101673
Br128	Br	1.516220	0.254415	-0.601673
H129	H	1.169709	-0.903660	-0.510460
H130	H	1.669709	-0.403660	-0.010460
H131	H	1.231248	-0.903526	-0.281460
H132	H	1.731248	-0.403526	0.218540
H133	H	0.686803	-0.444027	-0.469156
H134	H	1.186803	0.055973	0.030844
Br135	Br	1.016135	-0.245696	-0.655596
Br136	Br	1.516135	0.254304	-0.155596
H137	H	0.686795	-0.271467	-0.287319
H138	H	1.186795	0.228533	0.212681
Br139	Br	0.604933	-0.469858	-0.496364
Br140	Br	1.104933	0.030142	0.003636
H141	H	1.037485	-0.811049	-0.474894
H142	H	1.537485	-0.311049	0.025106
Br143	Br	1.016124	-0.245699	-0.848823
Br144	Br	1.516124	0.254301	-0.348823
Br145	Br	1.016187	-0.245635	-0.908438
Br146	Br	1.516187	0.254365	-0.408438
H147	H	1.002244	-0.903926	-0.342749
H148	H	1.502244	-0.403926	0.157251
H149	H	1.225443	-0.443808	-0.826563
H150	H	1.725443	0.056192	-0.326563
H151	H	1.098927	-0.811169	-0.245986
H152	H	1.598927	-0.311169	0.254014
Br153	Br	1.252701	-0.469579	-0.908423
Br154	Br	1.752701	0.030421	-0.408423
H155	H	1.225503	-0.443740	-1.079409
H156	H	1.725503	0.056260	-0.579409
Br157	Br	1.252646	-0.469642	-0.655573
Br158	Br	1.752646	0.030358	-0.155573
Br159	Br	0.411698	-0.469858	-0.496405
Br160	Br	0.911698	0.030142	0.003595
H161	H	0.433950	-0.271478	-0.287347
H162	H	0.933950	0.228522	0.212653
