data_functionalizedCrystal
_audit_creation_method	'MofGen! by Chris Wilmer'
_symmetry_space_group_name_H-M	'P1'
_symmetry_Int_Tables_number	1
_symmetry_cell_setting	triclinic
loop_
_symmetry_equiv_pos_as_xyz
  x,y,z
_cell_length_a	19.077399
_cell_length_b	13.031981
_cell_length_c	19.077271
_cell_angle_alpha	80.222332
_cell_angle_beta	94.665898
_cell_angle_gamma	99.757739
loop_
_atom_site_label
_atom_site_type_symbol
_atom_site_fract_x
_atom_site_fract_y
_atom_site_fract_z
Zn1	Zn	1.034191	-0.334870	-0.327841
Zn2	Zn	1.023794	-0.518215	-0.194868
Zn3	Zn	0.919923	-0.348537	-0.213568
Zn4	Zn	0.901229	-0.518154	-0.317444
O5	O	0.969784	-0.429944	-0.263430
O6	O	1.131927	-0.353497	-0.306727
O7	O	1.013488	-0.501452	-0.098227
O8	O	0.947255	-0.199008	-0.240903
O9	O	1.124289	-0.488200	-0.209033
O10	O	1.031207	-0.188967	-0.324859
O11	O	0.937174	-0.376790	-0.111965
O12	O	0.818327	-0.376731	-0.230822
O13	O	0.915394	-0.488096	-0.417945
O14	O	0.804593	-0.501348	-0.307140
O15	O	1.013080	-0.353438	-0.425584
O16	O	0.995361	-0.665923	-0.198952
O17	O	0.905313	-0.665878	-0.289008
C18	C	0.785761	-0.440517	-0.269883
C19	C	0.707032	-0.445064	-0.272657
C20	C	0.677181	-0.382213	-0.234309
C21	C	0.603206	-0.386495	-0.236916
C22	C	0.559084	-0.453623	-0.277875
C23	C	0.588939	-0.516482	-0.316224
C24	C	0.662913	-0.512204	-0.313613
C25	C	0.337081	-0.473389	-0.289932
C26	C	0.263104	-0.477659	-0.292541
C27	C	0.277375	-0.347674	-0.213232
C28	C	0.351349	-0.343398	-0.210628
C29	C	0.381198	-0.406260	-0.248974
N30	N	0.483469	-0.457999	-0.280542
N31	N	0.456811	-0.401889	-0.246303
C32	C	0.947199	-0.704200	-0.240837
C33	C	0.937601	-0.821523	-0.231193
C34	C	0.974831	-0.868777	-0.268476
C35	C	0.964912	-0.990036	-0.258510
C36	C	1.154526	-0.419331	-0.256953
C37	C	1.233252	-0.414808	-0.254193
C38	C	0.963312	-0.419236	-0.448184
C39	C	0.960553	-0.414672	-0.526915
C40	C	0.992476	-0.154615	-0.286127
C41	C	1.002146	-0.037286	-0.295798
C42	C	0.940764	-0.382028	-0.970856
C43	C	0.943359	-0.386311	-0.896880
C44	C	0.984385	-0.453363	-0.852738
C45	C	1.022824	-0.516128	-0.882576
C46	C	1.020233	-0.511839	-0.956551
C47	C	0.996401	-0.473148	-0.630728
C48	C	0.998988	-0.477435	-0.556749
C49	C	0.919524	-0.347616	-0.571058
C50	C	0.916932	-0.343337	-0.645034
C51	C	0.955374	-0.406098	-0.674865
N52	N	0.987037	-0.457746	-0.777122
N53	N	0.952725	-0.401709	-0.750480
C54	C	0.976279	-0.440532	-0.079400
C55	C	0.979198	-0.444790	-0.000689
H56	H	0.713101	-0.327541	-0.200962
F57	F	1.061143	-0.578635	-0.988301
H58	H	0.253064	-0.296496	-0.182012
H59	H	0.888228	-0.296518	-0.546761
F60	F	0.902453	-0.319508	-0.865133
F61	F	0.886337	-0.885977	-0.179830
H62	H	0.227180	-0.532322	-0.325900
F63	F	1.042652	-0.548809	-0.509770
F64	F	0.398303	-0.271943	-0.167040
H65	H	0.907354	-0.327429	-1.006792
F66	F	0.913645	-1.054486	-0.207144
H67	H	1.027701	-0.524255	-0.655008
H68	H	0.883521	-0.288740	-0.680970
F69	F	1.066493	-0.587483	-0.835595
H70	H	0.578905	-0.335321	-0.205684
F71	F	1.053409	-0.972838	-0.347169
F72	F	0.541979	-0.587939	-0.359806
F73	F	0.368839	-0.540291	-0.330745
H74	H	0.687216	-0.563385	-0.344840
F75	F	1.026084	-0.804323	-0.319850
