data_functionalizedCrystal
_audit_creation_method	'MofGen! by Chris Wilmer'
_symmetry_space_group_name_H-M	'P1'
_symmetry_Int_Tables_number	1
_symmetry_cell_setting	triclinic
loop_
_symmetry_equiv_pos_as_xyz
  x,y,z
_cell_length_a	6.394989
_cell_length_b	17.699083
_cell_length_c	16.176319
_cell_angle_alpha	89.998611
_cell_angle_beta	90.003737
_cell_angle_gamma	95.109637
loop_
_atom_site_label
_atom_site_type_symbol
_atom_site_fract_x
_atom_site_fract_y
_atom_site_fract_z
O1	O	-0.264132	1.006774	-0.068625
O2	O	-0.298496	0.786747	-0.068651
O3	O	0.022766	0.899883	-0.068638
O4	O	-0.585394	0.893637	-0.068638
O5	O	0.022787	0.899867	0.068855
O6	O	-0.298475	0.786730	0.068842
O7	O	-0.264111	1.006758	0.068868
Cu8	Cu	-0.281291	0.896743	0.081409
Cu9	Cu	-0.281315	0.896762	-0.081193
O10	O	-0.585373	0.893621	0.068855
C11	C	-0.297254	0.758529	0.000092
C12	C	-0.293560	0.674473	0.000081
C13	C	-0.482134	0.627777	0.000082
C14	C	-0.478651	0.548798	0.000092
C15	C	-0.286591	0.516517	0.000097
C16	C	-0.098003	0.563220	0.000099
C17	C	-0.101488	0.642197	0.000094
C18	C	-0.083942	0.244713	0.000119
C19	C	-0.080470	0.165730	0.000122
C20	C	-0.461104	0.151314	0.000118
C21	C	-0.464590	0.230291	0.000113
C22	C	-0.276002	0.276987	0.000119
C23	C	-0.279782	0.362625	0.000109
C24	C	-0.282810	0.430881	0.000101
C25	C	0.100592	0.898640	0.000105
C26	C	0.336808	0.894866	0.000104
C27	C	-0.265353	1.034976	0.000123
C28	C	-0.269047	1.119031	0.000128
N29	N	-0.281273	0.896735	0.195774
N30	N	-0.281317	0.896776	-0.195558
C31	C	-0.139076	0.946848	0.239044
C32	C	-0.139074	0.946852	0.325591
C33	C	-0.281280	0.896746	0.368867
C34	C	-0.423484	0.846627	0.325591
C35	C	-0.423474	0.846620	0.239045
C36	C	-0.423523	0.846653	0.674619
C37	C	-0.423526	0.846666	0.761171
C38	C	-0.139123	0.946885	0.761165
C39	C	-0.139113	0.946878	0.674620
C40	C	-0.281308	0.896757	0.631351
C41	C	-0.281306	0.896753	0.537507
C42	C	-0.281294	0.896753	0.462710
H43	H	-0.632207	0.510780	0.000092
H44	H	-0.023323	0.987682	0.639387
H45	H	0.069618	0.282724	0.000125
H46	H	-0.620984	0.256569	0.000106
H47	H	-0.614661	0.113284	0.000117
C48	C	-0.579950	0.791541	0.808776
C49	C	-0.739602	0.822634	0.868261
C50	C	-0.896018	0.767514	0.915867
C51	C	-0.892782	0.681300	0.903989
C52	C	-0.733124	0.650202	0.844501
C53	C	-0.576708	0.705322	0.796895
H54	H	-0.742003	0.886459	0.877057
H55	H	-1.014207	0.790535	0.959904
H56	H	-1.008570	0.640496	0.939229
H57	H	-0.730723	0.586377	0.835706
H58	H	-0.458519	0.682301	0.752859
H59	H	-0.539264	0.805826	0.360831
C60	C	0.017357	1.001967	0.191446
C61	C	0.173779	1.057086	0.239047
C62	C	0.330222	1.112205	0.191451
C63	C	0.330244	1.112204	0.096254
C64	C	0.173816	1.057082	0.048648
C65	C	0.017373	1.001963	0.096244
H66	H	0.173768	1.057089	0.309522
H67	H	0.446020	1.153010	0.226693
H68	H	0.446053	1.153006	0.061021
H69	H	0.173827	1.057079	-0.021827
H70	H	-0.098425	0.961159	0.061002
H71	H	-0.539263	0.805812	0.203816
C72	C	-0.579945	0.791530	0.627027
C73	C	-0.736438	0.736438	0.674624
C74	C	-0.892869	0.681313	0.627025
C75	C	-0.892807	0.681280	0.531829
C76	C	-0.736308	0.736374	0.484226
C77	C	-0.579877	0.791499	0.531825
H78	H	-0.736489	0.736460	0.745099
H79	H	-1.008719	0.640529	0.662265
H80	H	-1.008606	0.640474	0.496593
H81	H	-0.736257	0.736352	0.413751
H82	H	-0.464027	0.832283	0.496585
H83	H	0.075937	0.139450	0.000126
H84	H	0.058376	0.536930	0.000114
H85	H	-0.638531	0.654053	0.000078
H86	H	-0.023333	0.987694	0.796404
H87	H	-0.023285	0.987657	0.360821
H88	H	0.052069	0.680217	0.000093
