data_functionalizedCrystal
_audit_creation_method	'MofGen! by Chris Wilmer'
_symmetry_space_group_name_H-M	'P1'
_symmetry_Int_Tables_number	1
_symmetry_cell_setting	triclinic
loop_
_symmetry_equiv_pos_as_xyz
  x,y,z
_cell_length_a	13.897449
_cell_length_b	16.625546
_cell_length_c	16.625539
_cell_angle_alpha	89.969603
_cell_angle_beta	89.980569
_cell_angle_gamma	90.023748
loop_
_atom_site_label
_atom_site_type_symbol
_atom_site_fract_x
_atom_site_fract_y
_atom_site_fract_z
Zn1	Zn	1.474658	-0.320973	-0.455873
Zn2	Zn	1.474542	-0.455816	-0.321035
Zn3	Zn	1.313351	-0.321004	-0.321056
Zn4	Zn	1.313316	-0.455770	-0.455828
O5	O	1.393967	-0.388391	-0.388448
O6	O	1.609624	-0.338866	-0.437997
O7	O	1.453126	-0.437965	-0.208206
O8	O	1.334812	-0.208167	-0.338968
O9	O	1.609539	-0.437935	-0.338932
O10	O	1.453324	-0.208144	-0.438017
O11	O	1.334700	-0.338919	-0.208221
O12	O	1.178365	-0.338875	-0.338924
O13	O	1.334752	-0.437857	-0.568666
O14	O	1.178339	-0.437887	-0.437940
O15	O	1.453289	-0.338822	-0.568700
O16	O	1.453092	-0.568642	-0.338888
O17	O	1.334639	-0.568608	-0.437920
C18	C	1.143352	-0.388380	-0.388430
C19	C	1.036139	-0.388395	-0.388441
C20	C	0.839843	-0.388397	-0.388462
C21	C	0.949076	-0.388393	-0.388448
C22	C	1.393876	-0.597881	-0.388415
C23	C	1.393925	-0.687503	-0.388427
C24	C	1.394093	-1.015678	-0.388511
C25	C	1.394043	-0.924370	-0.388490
C26	C	1.394008	-0.851593	-0.388469
C27	C	1.393960	-0.760279	-0.388448
C28	C	1.645560	-0.388402	-0.388467
C29	C	1.752774	-0.388407	-0.388475
C30	C	1.394030	-0.388331	-0.598757
C31	C	1.394056	-0.388305	-0.688378
C32	C	1.394085	-0.178082	-0.388500
C33	C	1.394135	-0.088461	-0.388522
C34	C	1.394101	-0.388215	-1.016554
C35	C	1.394086	-0.388242	-0.925246
C36	C	1.394079	-0.388260	-0.852469
C37	C	1.394063	-0.388287	-0.761155
C38	C	1.393960	-0.388392	-0.178957
C39	C	1.394120	-0.388191	-0.089337
