data_functionalizedCrystal
_audit_creation_method	'MofGen! by Chris Wilmer'
_symmetry_space_group_name_H-M	'P1'
_symmetry_Int_Tables_number	1
_symmetry_cell_setting	triclinic
loop_
_symmetry_equiv_pos_as_xyz
  x,y,z
_cell_length_a	6.817900
_cell_length_b	14.125465
_cell_length_c	11.102291
_cell_angle_alpha	94.635288
_cell_angle_beta	108.605753
_cell_angle_gamma	100.398878
loop_
_atom_site_label
_atom_site_type_symbol
_atom_site_fract_x
_atom_site_fract_y
_atom_site_fract_z
V1	V	-4.017268	-0.299977	-0.174748
O2	O	-3.978094	-0.294266	0.009521
O3	O	-3.994690	-0.297926	-0.347575
O4	O	-3.952938	-0.430807	-0.171567
O5	O	-4.020136	-0.160465	-0.167707
V6	V	-4.499614	-0.283290	-0.152765
O7	O	-4.281108	-0.336581	-0.222968
O8	O	-4.685972	-0.246686	-0.104545
O9	O	-4.298985	-0.285341	0.020063
O10	O	-4.656185	-0.289001	-0.337033
O11	O	-4.614143	-0.422802	-0.159806
O12	O	-4.340738	-0.152460	-0.155946
C13	C	-3.846488	-0.293194	-0.389723
C14	C	-3.909209	-0.292389	-0.531008
C15	C	-4.030066	-0.379366	-0.747966
C16	C	-3.971154	-0.380121	-0.615213
C17	C	-3.906198	-0.203898	-0.579563
C18	C	-3.965124	-0.203145	-0.712314
C19	C	-4.091990	-0.467103	-0.832164
C20	C	-4.095009	-0.555595	-0.783618
C21	C	-4.036097	-0.556350	-0.650866
C22	C	-3.974165	-0.468612	-0.566658
C23	C	-3.793228	-0.462696	-0.165204
C24	C	-3.822085	-0.569650	-0.163747
C25	C	-3.874979	-0.765473	-0.161075
C26	C	-4.061272	-0.817794	-0.166435
C27	C	-4.090705	-0.926757	-0.164948
C28	C	-3.845538	-0.656500	-0.162562
C29	C	-4.110530	-0.290071	0.062203
C30	C	-4.027047	-0.290882	0.203488
C31	C	-4.163791	-0.120567	-0.162313
C32	C	-4.114172	-0.013611	-0.163763
H33	H	-4.145451	-0.627028	-0.852189
H34	H	-4.198665	-0.780756	-0.172154
H35	H	-3.737604	-0.802511	-0.155371
H36	H	-4.139956	-0.466499	-0.940259
Cl37	Cl	-4.039914	-0.667594	-0.589841
H38	H	-3.926217	-0.469234	-0.458564
Cl39	Cl	-3.828357	-0.093608	-0.473703
H40	H	-3.962661	-0.131093	-0.751840
