data_functionalizedCrystal
_audit_creation_method	'MofGen! by Chris Wilmer'
_symmetry_space_group_name_H-M	'P1'
_symmetry_Int_Tables_number	1
_symmetry_cell_setting	triclinic
loop_
_symmetry_equiv_pos_as_xyz
  x,y,z
_cell_length_a	11.026607
_cell_length_b	12.811442
_cell_length_c	10.065918
_cell_angle_alpha	105.140065
_cell_angle_beta	97.708363
_cell_angle_gamma	96.261183
loop_
_atom_site_label
_atom_site_type_symbol
_atom_site_fract_x
_atom_site_fract_y
_atom_site_fract_z
O1	O	1.636532	0.465144	0.171059
O2	O	1.282080	0.414118	0.164746
O3	O	1.465507	0.285712	0.148848
O4	O	1.453105	0.593551	0.186957
O5	O	1.432878	0.251641	-0.082358
O6	O	1.249451	0.380047	-0.066460
O7	O	1.603902	0.431073	-0.060147
Zn8	Zn	1.421496	0.400150	-0.100012
Zn9	Zn	1.464486	0.445041	0.204611
O10	O	1.420476	0.559479	-0.044249
C11	C	1.220343	0.387669	0.047978
C12	C	1.084999	0.359607	0.044506
C13	C	1.447495	0.228654	0.028294
C14	C	1.442424	0.109398	0.013539
C15	C	1.012934	0.437091	0.054099
C16	C	0.873049	0.408090	0.050511
C17	C	1.417496	-0.077263	-0.133284
C18	C	1.422256	0.034788	-0.119424
C19	C	1.457830	0.071949	0.132651
C20	C	1.453070	-0.040102	0.118791
C21	C	1.432905	-0.114704	-0.014181
C22	C	1.428154	-0.226756	-0.028040
C23	C	1.463719	-0.189594	0.224034
C24	C	1.468479	-0.077543	0.237894
C25	C	1.665640	0.457523	0.056624
C26	C	1.800985	0.485586	0.060105
C27	C	1.438488	0.616538	0.076308
C28	C	1.443560	0.735795	0.091072
N29	N	1.392165	0.369515	-0.307910
C30	C	1.454273	0.434381	-0.367660
C31	C	1.431710	0.410795	-0.527747
N32	N	1.493827	0.475669	0.412508
H33	H	1.054796	0.524898	0.064961
O34	O	0.817614	0.291766	0.036097
H35	H	0.861176	0.265253	0.125323
H36	H	1.474244	0.132709	0.240910
O37	O	1.339170	0.314078	-0.616964
H38	H	1.297122	0.270139	-0.548846
H39	H	1.043141	0.271805	0.033672
O40	O	1.490230	0.002929	0.381305
H41	H	1.415040	-0.016053	0.438287
H42	H	1.401085	-0.138005	-0.241555
O43	O	1.299621	0.272802	-0.397112
H44	H	1.206684	0.281653	-0.368686
O45	O	0.856411	0.601910	0.074509
H46	H	0.957585	0.606440	0.075079
H47	H	1.411737	-0.287497	-0.136312
O48	O	1.405654	0.075179	-0.247882
H49	H	1.390844	0.004476	-0.342668
O50	O	1.586391	0.572374	-0.498290
H51	H	1.589582	0.575733	-0.386549
O52	O	1.480335	-0.229973	0.352510
H53	H	1.473631	-0.320423	0.320538
O54	O	1.546831	0.531076	-0.278437
H55	H	1.639769	0.522204	-0.306849
