data_functionalizedCrystal
_audit_creation_method	'MofGen! by Chris Wilmer'
_symmetry_space_group_name_H-M	'P1'
_symmetry_Int_Tables_number	1
_symmetry_cell_setting	triclinic
loop_
_symmetry_equiv_pos_as_xyz
  x,y,z
_cell_length_a	16.109304
_cell_length_b	16.109293
_cell_length_c	14.586319
_cell_angle_alpha	90.006918
_cell_angle_beta	90.000282
_cell_angle_gamma	83.460447
loop_
_atom_site_label
_atom_site_type_symbol
_atom_site_fract_x
_atom_site_fract_y
_atom_site_fract_z
O1	O	-0.106835	-1.103136	-0.076306
O2	O	-0.120141	-0.861073	-0.076291
O3	O	0.007543	-0.988753	-0.076301
O4	O	-0.234519	-0.975456	-0.076296
O5	O	0.007545	-0.988744	0.076180
O6	O	-0.120139	-0.861064	0.076190
O7	O	-0.106833	-1.103127	0.076175
Cu8	Cu	-0.113486	-0.982095	0.090105
Cu9	Cu	-0.113488	-0.982105	-0.090221
O10	O	-0.234517	-0.975447	0.076185
C11	C	-0.119602	-0.830094	-0.000048
C12	C	-0.117990	-0.737798	-0.000043
C13	C	-0.114260	-0.525451	0.083071
C14	C	-0.112736	-0.438731	0.083070
C15	C	-0.112742	-0.438751	-0.083173
C16	C	-0.114260	-0.525471	-0.083171
C17	C	-0.115023	-0.568818	-0.000046
C18	C	-0.111981	-0.395378	-0.000049
C19	C	-0.110329	-0.301352	-0.000050
C20	C	-0.116674	-0.662850	-0.000044
C21	C	0.038519	-0.988210	-0.000063
C22	C	0.130814	-0.986594	-0.000070
C23	C	0.343150	-0.982865	-0.083187
C24	C	0.429870	-0.981339	-0.083187
C25	C	0.429869	-0.981333	0.083056
C26	C	0.343150	-0.982853	0.083055
C27	C	0.299793	-0.983623	-0.000069
C28	C	0.473233	-0.980577	-0.000068
C29	C	0.567259	-0.978922	-0.000068
C30	C	0.205761	-0.985277	-0.000069
C31	C	0.734507	-0.975991	-0.000058
C32	C	0.642212	-0.977607	-0.000067
N33	N	-0.113484	-0.982094	0.216937
C34	C	-0.107379	-0.134106	-0.000062
C35	C	-0.109015	-0.226398	-0.000052
N36	N	-0.113484	-0.982113	-0.217052
C37	C	-0.056964	-1.038649	0.451939
C38	C	-0.056962	-1.038651	0.547920
C39	C	-0.170006	-0.925552	0.547939
C40	C	-0.170003	-0.925546	0.451959
C41	C	-0.113483	-0.982099	0.403962
C42	C	-0.113484	-0.982108	0.595923
C43	C	-0.113482	-0.982110	0.699990
C44	C	-0.113484	-0.982096	0.299888
H45	H	-0.112122	-0.403447	-0.150850
H46	H	-0.010941	-1.084697	0.412862
C47	C	0.307095	-0.911894	-0.224866
C48	C	0.295495	-0.983694	-0.174559
H49	H	0.277674	-0.912402	-0.281275
H50	H	0.364943	-0.910888	-0.236749
H51	H	0.286522	-0.863697	-0.190694
H52	H	0.316075	-1.031891	-0.208728
H53	H	0.237636	-0.984708	-0.162678
C54	C	-0.040840	-0.421397	0.224765
C55	C	-0.111899	-0.391066	0.174439
H56	H	-0.040327	-0.391974	0.281177
H57	H	0.007854	-0.413537	0.190613
H58	H	-0.041865	-0.479249	0.236649
H59	H	-0.110871	-0.333215	0.162549
H60	H	-0.160606	-0.398919	0.208598
C61	C	-0.220211	-0.875348	0.695078
C62	C	-0.232138	-0.863399	0.600701
H63	H	-0.258576	-0.836981	0.727647
H64	H	-0.164729	-0.866331	0.710809
H65	H	-0.229254	-0.930836	0.710783
H66	H	-0.223089	-0.807913	0.584995
H67	H	-0.287634	-0.872409	0.584963
H68	H	-0.216028	-0.879493	0.412894
H69	H	-0.114880	-0.560781	-0.150859
H70	H	0.465181	-0.980708	0.150733
C71	C	0.056188	-1.056735	0.655847
C72	C	0.005165	-1.100814	0.600656
H73	H	0.094548	-1.095114	0.688398
H74	H	0.022529	-1.023067	0.698168
H75	H	0.086100	-1.022139	0.618400
H76	H	-0.024752	-1.135405	0.638104
H77	H	0.038829	-1.134495	0.558330
H78	H	-0.114881	-0.560742	0.150757
C79	C	0.518015	-0.908201	-0.179627
C80	C	0.477528	-0.980506	-0.174553
H81	H	0.547432	-0.907685	-0.236038
H82	H	0.556247	-0.907532	-0.130132
H83	H	0.477819	-0.860347	-0.176166
H84	H	0.517725	-1.028360	-0.178006
H85	H	0.439292	-0.981182	-0.224062
C86	C	0.351854	-0.982702	0.247387
C87	C	0.295486	-0.983689	0.174426
H88	H	0.322426	-0.983221	0.303791
H89	H	0.379322	-0.933659	0.243937
H90	H	0.392034	-1.030568	0.243921
H91	H	0.255309	-0.935820	0.177888
H92	H	0.268004	-1.032738	0.177878
