data_functionalizedCrystal
_audit_creation_method	'MofGen! by Chris Wilmer'
_symmetry_space_group_name_H-M	'P1'
_symmetry_Int_Tables_number	1
_symmetry_cell_setting	triclinic
loop_
_symmetry_equiv_pos_as_xyz
  x,y,z
_cell_length_a	12.837943
_cell_length_b	14.519709
_cell_length_c	11.295483
_cell_angle_alpha	94.101713
_cell_angle_beta	85.461227
_cell_angle_gamma	89.254542
loop_
_atom_site_label
_atom_site_type_symbol
_atom_site_fract_x
_atom_site_fract_y
_atom_site_fract_z
O1	O	1.382869	0.234188	-0.099009
O2	O	1.081042	0.222343	-0.099016
O3	O	1.239958	0.094719	-0.099002
O4	O	1.223954	0.361812	-0.099023
O5	O	1.226000	0.105910	0.099048
O6	O	1.067084	0.233533	0.099034
O7	O	1.368911	0.245379	0.099040
Cu8	Cu	1.216723	0.240478	0.117121
Cu9	Cu	1.233230	0.227244	-0.117096
O10	O	1.209996	0.373002	0.099026
C11	C	1.035435	0.223937	0.000008
C12	C	0.920336	0.212002	0.000006
C13	C	0.679643	0.355473	0.000011
C14	C	0.571497	0.344264	0.000010
C15	C	0.595894	0.178377	0.000011
C16	C	0.704041	0.189586	0.000012
C17	C	0.745911	0.278137	0.000011
C18	C	0.854060	0.289344	0.000003
C19	C	0.878455	0.123458	0.000013
C20	C	0.770308	0.112249	0.000011
C21	C	1.232233	0.065890	0.000023
C22	C	1.229997	-0.036684	0.000024
C23	C	1.221771	-0.412293	-0.000007
C24	C	1.224055	-0.307787	0.000002
C25	C	1.225884	-0.224492	0.000010
C26	C	1.228169	-0.119979	0.000016
C27	C	1.414518	0.243785	0.000014
C28	C	1.529618	0.255719	0.000008
C29	C	1.217721	0.401831	-0.000001
C30	C	1.219957	0.504405	-0.000010
N31	N	1.205121	0.249786	0.281856
N32	N	1.244841	0.217929	-0.281831
C33	C	1.328362	0.150873	0.531156
C34	C	1.319601	0.157915	0.655819
C35	C	1.178834	0.270905	0.655847
C36	C	1.187595	0.263863	0.531184
C37	C	1.262362	0.203847	0.468843
C38	C	1.271127	0.196811	0.344178
C39	C	1.130356	0.309795	0.344208
C40	C	1.121596	0.316837	0.468871
H41	H	0.517545	0.407240	0.000014
H42	H	0.561777	0.106288	0.000111
O43	O	1.048882	0.375147	0.529249
C44	C	0.992526	0.420411	0.447512
H45	H	0.997534	0.377474	0.358648
H46	H	1.027248	0.491158	0.434248
C47	C	0.871147	0.485023	0.605330
C48	C	0.877290	0.432284	0.496188
H49	H	0.800065	0.492352	0.635357
H50	H	0.909117	0.454531	0.660399
H51	H	0.900088	0.543974	0.594262
H52	H	0.848362	0.373332	0.507260
H53	H	0.839313	0.462767	0.441122
H54	H	1.373343	0.114777	0.706551
H55	H	1.076618	0.352933	0.293458
H56	H	1.389247	0.102012	0.480398
O57	O	0.942799	0.048286	-0.000197
C58	C	0.930994	-0.010712	-0.102754
H59	H	0.899177	0.030692	-0.174443
H60	H	0.874189	-0.067624	-0.079561
C61	C	1.076889	-0.105061	-0.061219
C62	C	1.037820	-0.054206	-0.149273
H63	H	1.142783	-0.131895	-0.089913
H64	H	1.084841	-0.065316	0.007877
H65	H	1.029542	-0.152481	-0.041901
H66	H	1.085160	-0.006781	-0.168580
H67	H	1.029879	-0.093945	-0.218375
H68	H	0.888149	0.361447	0.000004
O69	O	1.106156	0.329071	0.716553
C70	C	1.037029	0.278078	0.788650
H71	H	1.076881	0.210601	0.807298
H72	H	0.963768	0.262333	0.740627
C73	C	0.957702	0.417672	0.884180
C74	C	1.006653	0.334799	0.907093
H75	H	0.938960	0.452661	0.957239
H76	H	1.004271	0.452028	0.835604
H77	H	0.896657	0.404539	0.844158
H78	H	1.067703	0.347933	0.947100
H79	H	0.960093	0.300447	0.955678
H80	H	0.736201	0.040154	0.000026
O81	O	0.720214	0.441523	-0.000155
C82	C	0.693620	0.483437	-0.102748
H83	H	0.620975	0.449785	-0.136943
H84	H	0.761239	0.474185	-0.174570
C85	C	0.760584	0.628509	-0.029603
C86	C	0.671355	0.587183	-0.071596
H87	H	0.746854	0.692505	-0.010390
H88	H	0.778504	0.600271	0.039514
H89	H	0.816924	0.620790	-0.089462
H90	H	0.615020	0.594892	-0.011732
H91	H	0.653424	0.615425	-0.140702
O92	O	1.343642	0.138362	0.283697
C93	C	1.324457	0.047304	0.314230
H94	H	1.239033	0.041484	0.348501
H95	H	1.376763	0.029385	0.386606
C96	C	1.453156	-0.012947	0.161430
C97	C	1.348235	-0.020098	0.203512
H98	H	1.467827	-0.054525	0.093137
H99	H	1.466085	0.048400	0.140861
H100	H	1.496732	-0.027878	0.221753
H101	H	1.304661	-0.005156	0.143195
H102	H	1.335300	-0.081445	0.224069
