data_functionalizedCrystal
_audit_creation_method	'MofGen! by Chris Wilmer'
_symmetry_space_group_name_H-M	'P1'
_symmetry_Int_Tables_number	1
_symmetry_cell_setting	triclinic
loop_
_symmetry_equiv_pos_as_xyz
  x,y,z
_cell_length_a	18.215407
_cell_length_b	12.645330
_cell_length_c	12.645323
_cell_angle_alpha	89.975130
_cell_angle_beta	89.977371
_cell_angle_gamma	90.018140
loop_
_atom_site_label
_atom_site_type_symbol
_atom_site_fract_x
_atom_site_fract_y
_atom_site_fract_z
Zn1	Zn	1.125129	-0.422018	-0.599445
Zn2	Zn	1.125047	-0.599306	-0.422185
Zn3	Zn	1.002056	-0.422059	-0.422189
Zn4	Zn	1.002043	-0.599242	-0.599401
O5	O	1.063569	-0.510656	-0.510805
O6	O	1.228102	-0.445546	-0.575948
O7	O	1.108703	-0.575838	-0.273838
O8	O	1.018421	-0.273706	-0.445723
O9	O	1.228042	-0.575799	-0.445716
O10	O	1.108843	-0.273676	-0.575952
O11	O	1.018342	-0.445615	-0.273842
O12	O	0.899070	-0.445552	-0.445680
O13	O	1.018400	-0.575689	-0.747754
O14	O	0.899060	-0.575728	-0.575876
O15	O	1.108830	-0.445483	-0.747786
O16	O	1.108690	-0.747645	-0.445673
O17	O	1.018320	-0.747597	-0.575872
C18	C	0.872362	-0.510638	-0.510775
C19	C	0.790563	-0.510656	-0.510787
C20	C	1.063515	-0.786086	-0.510790
C21	C	1.063559	-0.903916	-0.510819
C22	C	0.602384	-0.578545	-0.578495
C23	C	0.525525	-0.578548	-0.578508
C24	C	0.525505	-0.442787	-0.443138
C25	C	0.602363	-0.442779	-0.443131
C26	C	0.640800	-0.510664	-0.510808
C27	C	0.487084	-0.510675	-0.510828
C28	C	0.403750	-0.510678	-0.510842
C29	C	0.724139	-0.510660	-0.510796
C30	C	1.006942	-1.071494	-0.592980
C31	C	1.006652	-0.948935	-0.592716
C32	C	1.042563	-0.948510	-0.399097
C33	C	1.042217	-1.071109	-0.399596
C34	C	1.141520	-1.071004	-0.539474
C35	C	1.141042	-0.948398	-0.541917
C36	C	1.255522	-0.510675	-0.510836
C37	C	1.337320	-0.510683	-0.510849
C38	C	1.063623	-0.510574	-0.787310
C39	C	1.063646	-0.510539	-0.905141
C40	C	1.063643	-0.234151	-0.510843
C41	C	1.063674	-0.116321	-0.510859
C42	C	1.006580	-0.592065	-1.072684
C43	C	1.006730	-0.592469	-0.950124
C44	C	1.141189	-0.540857	-0.949660
C45	C	1.140876	-0.541368	-1.072259
C46	C	1.043902	-0.398240	-1.072338
C47	C	1.042172	-0.398913	-0.949732
C48	C	1.063557	-0.510661	-0.235375
C49	C	1.063676	-0.510398	-0.117546
H50	H	0.633677	-0.633818	-0.633604
H51	H	0.949229	-0.573497	-0.920022
Cl52	Cl	0.477179	-0.357453	-0.358061
Cl53	Cl	0.955618	-0.901259	-0.360994
Cl54	Cl	0.958119	-0.355574	-1.120046
H55	H	0.494250	-0.633822	-0.633627
H56	H	1.080720	-0.334849	-0.919111
H57	H	1.082574	-0.919351	-0.336239
H58	H	1.158238	-0.621987	-0.918972
H59	H	0.633642	-0.387496	-0.388012
Cl60	Cl	1.026931	-0.902374	-0.720618
Cl61	Cl	1.026494	-0.719623	-1.120342
Cl62	Cl	1.027032	-1.116907	-0.721305
Cl63	Cl	0.918398	-1.119225	-0.564109
H64	H	0.948941	-0.919701	-0.573759
H65	H	1.183787	-1.099992	-0.479662
H66	H	1.085488	-0.337394	-1.101352
Cl67	Cl	0.954359	-1.115412	-0.362172
H68	H	1.160673	-1.101848	-0.619557
H69	H	0.985107	-0.376049	-0.920633
H70	H	1.156876	-0.919247	-0.624139
Cl71	Cl	1.103236	-1.116902	-0.301900
H72	H	1.185537	-0.917747	-0.486460
Cl73	Cl	0.917535	-0.563054	-1.118178
Cl74	Cl	1.026927	-0.720829	-0.904858
H75	H	1.157638	-0.623358	-1.100869
H76	H	1.184859	-0.484467	-1.101937
Cl77	Cl	1.208633	-0.451927	-0.904682
