data_functionalizedCrystal
_audit_creation_method	'MofGen! by Chris Wilmer'
_symmetry_space_group_name_H-M	'P1'
_symmetry_Int_Tables_number	1
_symmetry_cell_setting	triclinic
loop_
_symmetry_equiv_pos_as_xyz
  x,y,z
_cell_length_a	6.817900
_cell_length_b	11.102244
_cell_length_c	14.125465
_cell_angle_alpha	94.634221
_cell_angle_beta	100.398878
_cell_angle_gamma	108.604870
loop_
_atom_site_label
_atom_site_type_symbol
_atom_site_fract_x
_atom_site_fract_y
_atom_site_fract_z
V1	V	-4.017262	-0.174747	-0.299974
O2	O	-3.978095	0.009521	-0.294266
O3	O	-3.994678	-0.347574	-0.297920
O4	O	-3.952932	-0.171566	-0.430804
O5	O	-4.020130	-0.167706	-0.160462
V6	V	-4.499609	-0.152764	-0.283287
O7	O	-4.281100	-0.222967	-0.336577
O8	O	-4.685968	-0.104545	-0.246684
O9	O	-4.298986	0.020063	-0.285342
O10	O	-4.656173	-0.337032	-0.288995
O11	O	-4.614137	-0.159805	-0.422799
O12	O	-4.340732	-0.155945	-0.152457
C13	C	-3.846475	-0.389721	-0.293187
C14	C	-3.909191	-0.531006	-0.292380
C15	C	-3.906168	-0.579563	-0.203898
C16	C	-3.965107	-0.712318	-0.203151
C17	C	-4.030082	-0.747949	-0.379374
C18	C	-3.971157	-0.615196	-0.380121
C19	C	-3.868647	-0.558992	-0.102157
C20	C	-3.927587	-0.691747	-0.101409
C21	C	-3.793222	-0.165203	-0.462693
C22	C	-3.822079	-0.163746	-0.569647
C23	C	-3.874973	-0.161074	-0.765470
C24	C	-4.061266	-0.166434	-0.817791
C25	C	-4.090699	-0.164948	-0.926754
C26	C	-3.845532	-0.162561	-0.656497
C27	C	-4.110533	0.062203	-0.290072
C28	C	-4.027055	0.203487	-0.290885
C29	C	-4.163786	-0.162312	-0.120564
C30	C	-4.114166	-0.163763	-0.013608
H31	H	-3.978361	-0.520025	-0.066976
C32	C	-4.098214	-0.840560	-0.475884
C33	C	-4.101524	-0.787144	-0.573213
C34	C	-4.169645	-0.879752	-0.669726
C35	C	-4.234455	-1.025775	-0.668910
C36	C	-4.231148	-1.079198	-0.571578
C37	C	-4.163027	-0.986590	-0.475065
H38	H	-4.053545	-0.679042	-0.573820
H39	H	-4.172093	-0.840204	-0.741778
H40	H	-4.284882	-1.094329	-0.740355
H41	H	-4.279127	-1.187300	-0.570971
H42	H	-4.160579	-1.026138	-0.403013
H43	H	-3.973639	-0.575669	-0.452171
H44	H	-3.694170	-0.506319	-0.067019
H45	H	-3.789061	-0.714922	-0.058465
C46	C	-4.131837	-0.745674	-0.063573
C47	C	-4.128007	-0.813411	0.027328
C48	C	-4.332256	-0.867345	0.065159
C49	C	-4.540334	-0.853541	0.012090
C50	C	-4.544172	-0.785801	-0.078816
C51	C	-4.339923	-0.731867	-0.116647
H52	H	-3.973968	-0.823632	0.066617
H53	H	-4.329414	-0.917490	0.132454
H54	H	-4.691532	-0.893466	0.040096
H55	H	-4.698211	-0.775580	-0.118105
H56	H	-4.342765	-0.681722	-0.183942
H57	H	-4.198659	-0.172153	-0.780753
H58	H	-3.737599	-0.155370	-0.802508
