data_functionalizedCrystal
_audit_creation_method	'MofGen! by Chris Wilmer'
_symmetry_space_group_name_H-M	'P1'
_symmetry_Int_Tables_number	1
_symmetry_cell_setting	triclinic
loop_
_symmetry_equiv_pos_as_xyz
  x,y,z
_cell_length_a	25.427154
_cell_length_b	25.426324
_cell_length_c	25.422586
_cell_angle_alpha	60.006367
_cell_angle_beta	60.012446
_cell_angle_gamma	59.992398
loop_
_atom_site_label
_atom_site_type_symbol
_atom_site_fract_x
_atom_site_fract_y
_atom_site_fract_z
O1	O	0.072968	-0.768436	0.642532
O2	O	0.027520	-0.598284	0.517710
O3	O	0.135268	-0.705940	0.517611
O4	O	-0.034780	-0.660780	0.642632
O5	O	0.171018	-0.670200	0.553260
O6	O	0.063270	-0.562544	0.553360
O7	O	0.108718	-0.732696	0.678182
Zn8	Zn	0.091670	-0.641945	0.621431
Zn9	Zn	0.044568	-0.689034	0.574461
O10	O	0.000970	-0.625039	0.678281
N11	N	0.123818	-0.609812	0.653490
N12	N	0.012426	-0.721173	0.542402
C13	C	0.168482	-0.466269	0.698103
C14	C	0.168494	-0.565177	0.698095
C15	C	0.193243	-0.540453	0.722807
C16	C	0.301113	-0.521853	0.665993
C17	C	0.368545	-0.544324	0.643486
C18	C	0.368579	-0.653434	0.685090
C19	C	0.301149	-0.630961	0.707599
C20	C	0.184722	-0.432539	0.631812
C21	C	0.162210	-0.365100	0.609357
C22	C	0.107225	-0.365129	0.719489
C23	C	0.129737	-0.432567	0.741943
C24	C	0.102194	-0.548896	0.714421
C25	C	0.079702	-0.571372	0.691949
C26	C	0.189805	-0.626409	0.636839
C27	C	0.212300	-0.603934	0.659303
C28	C	0.102289	-0.548918	0.830735
C29	C	0.079866	-0.571415	0.898171
C30	C	0.190015	-0.626466	0.898104
C31	C	0.212437	-0.603971	0.830666
C32	C	0.168573	-0.565195	0.796984
C33	C	0.267418	-0.565170	0.698047
C34	C	-0.130981	-0.765617	0.497386
C35	C	-0.032127	-0.765741	0.497606
C36	C	-0.056804	-0.790430	0.472789
C37	C	-0.075480	-0.898263	0.529507
C38	C	-0.053057	-0.965702	0.552014
C39	C	0.056052	-0.965829	0.510599
C40	C	0.033627	-0.898392	0.488091
C41	C	-0.164787	-0.781859	0.563659
C42	C	-0.232219	-0.759299	0.586018
C43	C	-0.232034	-0.704261	0.475827
C44	C	-0.164602	-0.726821	0.453469
C45	C	-0.048372	-0.699446	0.481299
C46	C	-0.025938	-0.677008	0.503867
C47	C	0.028987	-0.787155	0.559036
C48	C	0.006552	-0.809596	0.536475
C49	C	-0.048188	-0.699454	0.364860
C50	C	-0.025608	-0.677017	0.297425
C51	C	0.029406	-0.787170	0.297492
C52	C	0.006827	-0.809605	0.364929
C53	C	-0.031972	-0.765745	0.398611
C54	C	-0.032140	-0.864611	0.497548
N55	N	0.401319	-0.609788	0.653344
O56	O	0.621664	-0.620517	0.494685
O57	O	0.621901	-0.745740	0.664659
O58	O	0.621803	-0.745452	0.556857
O59	O	0.621762	-0.620805	0.602487
O60	O	0.514676	-0.709815	0.592658
O61	O	0.514774	-0.710104	0.700460
O62	O	0.514537	-0.584881	0.530485
Zn63	Zn	0.497647	-0.641834	0.621157
Zn64	Zn	0.638791	-0.688787	0.573988
O65	O	0.514635	-0.585169	0.638287
N66	N	0.735119	-0.720834	0.541794
N67	N	0.123794	-0.332357	0.653504
O68	O	-0.034774	-0.111885	0.642639
O69	O	0.135202	-0.111860	0.517412
O70	O	0.027364	-0.111888	0.517742
O71	O	0.073064	-0.111857	0.642310
O72	O	0.063120	-0.219026	0.553444
O73	O	0.170958	-0.218998	0.553115
O74	O	0.000983	-0.219022	0.678342
Zn75	Zn	0.091647	-0.236020	0.621397
Zn76	Zn	0.044537	-0.094862	0.574357
O77	O	0.108821	-0.218994	0.678013
N78	N	0.012383	0.001474	0.542251
N79	N	0.124036	-0.609854	0.930891
O80	O	0.113202	-0.768401	1.151342
O81	O	-0.011992	-0.598359	1.151385
O82	O	-0.011700	-0.706176	1.151343
O83	O	0.112910	-0.660584	1.151384
O84	O	0.023980	-0.670446	1.044212
O85	O	0.023689	-0.562630	1.044253
O86	O	0.148882	-0.732671	1.044211
Zn87	Zn	0.091951	-0.641977	1.027223
Zn88	Zn	0.044940	-0.689053	1.168373
O89	O	0.148590	-0.624854	1.044252
N90	N	0.012853	-0.721183	1.264704
C91	C	0.041135	-0.558973	0.518338
C92	C	0.174567	-0.692292	0.518215
C93	C	0.095103	-0.772007	0.677553
C94	C	-0.038330	-0.638687	0.677677
C95	C	0.568366	-0.745166	0.703974
C96	C	0.568246	-0.744810	0.570474
C97	C	0.568069	-0.585454	0.491172
C98	C	0.568192	-0.585812	0.624671
C99	C	0.174449	-0.165294	0.517975
C100	C	0.040949	-0.165460	0.518427
C101	C	-0.038309	-0.165456	0.677735
C102	C	0.095236	-0.165423	0.677328
C103	C	-0.011393	-0.559072	1.097824
C104	C	-0.011024	-0.692583	1.097752
C105	C	0.148283	-0.771958	1.097772
C106	C	0.147922	-0.638440	1.097820
H107	H	0.025889	-0.558152	0.925643
H108	H	-0.087123	-0.165464	0.717049
H109	H	0.567992	-0.546139	0.442358
O110	O	0.232785	-0.703673	0.471295
C111	C	0.232835	-0.648266	0.415801
H112	H	0.181179	-0.617588	0.416508
H113	H	0.255892	-0.619148	0.415007
C114	C	0.334963	-0.706197	0.354430
C115	C	0.271520	-0.668520	0.355295
H116	H	0.358828	-0.718690	0.317107
H117	H	0.334932	-0.743526	0.391817
H118	H	0.354169	-0.681927	0.353771
H119	H	0.252313	-0.692794	0.355962
H120	H	0.271549	-0.631197	0.317906
H121	H	-0.050697	-0.510236	1.097837
O122	O	0.194568	-0.626691	1.097796
C123	C	0.171098	-0.563374	1.097831
H124	H	0.129739	-0.532890	1.077555
H125	H	0.153146	-0.564326	1.149232
C126	C	0.276379	-0.571541	1.080727
C127	C	0.225585	-0.534099	1.055818
H128	H	0.309989	-0.553484	1.054814
H129	H	0.292191	-0.614200	1.080706
H130	H	0.261411	-0.572332	1.123561
H131	H	0.240551	-0.533315	1.012988
H132	H	0.209776	-0.491439	1.055831
H133	H	-0.087172	-0.629063	0.716934
H134	H	0.223163	-0.164989	0.478564
O135	O	-0.057629	-0.704291	1.097655
C136	C	-0.034164	-0.767613	1.097633
H137	H	0.020703	-0.784579	1.077385
H138	H	-0.050470	-0.800946	1.149014
C139	C	-0.128009	-0.748000	1.080425
C140	C	-0.060620	-0.768835	1.055550
H141	H	-0.144330	-0.748755	1.054469
H142	H	-0.143819	-0.705339	1.080442
H143	H	-0.141588	-0.775780	1.123242
H144	H	-0.047042	-0.741050	1.012738
H145	H	-0.044808	-0.811491	1.055525
O146	O	0.029624	-0.500637	0.471582
C147	C	0.073828	-0.472029	0.454212
H148	H	0.092686	-0.493362	0.495499
H149	H	0.115771	-0.481749	0.409400
C150	C	0.016820	-0.372632	0.389294
C151	C	0.039978	-0.398829	0.440005
H152	H	-0.004059	-0.327479	0.380527
H153	H	-0.012960	-0.391906	0.400993
H154	H	0.051777	-0.380738	0.351956
H155	H	0.005020	-0.390730	0.477344
H156	H	0.069751	-0.379552	0.428311
H157	H	0.105023	-0.165413	0.716462
O158	O	0.195097	-0.830262	1.097783
C159	C	0.171919	-0.870337	1.097743
H160	H	0.117052	-0.852889	1.118029
H161	H	0.188280	-0.868585	1.046340
C162	C	0.266003	-0.961481	1.114822
C163	C	0.198615	-0.940054	1.139742
H164	H	0.282472	-1.004487	1.140726
H165	H	0.281620	-0.934482	1.114846
H166	H	0.279629	-0.960015	1.071986
H167	H	0.184990	-0.941513	1.182574
H168	H	0.182996	-0.967056	1.139726
O169	O	0.106778	-0.830362	0.724245
C170	C	0.170087	-0.870311	0.700874
H171	H	0.187070	-0.852755	0.646007
H172	H	0.203416	-0.868537	0.717169
C173	C	0.150417	-0.961623	0.794840
C174	C	0.171275	-0.940064	0.727451
H175	H	0.151152	-1.004651	0.811236
H176	H	0.107765	-0.934709	0.810587
H177	H	0.178194	-0.960139	0.808410
H178	H	0.143493	-0.941541	0.713882
H179	H	0.213922	-0.966981	0.711703
H180	H	0.568427	-0.784476	0.752793
O181	O	0.568236	-0.791446	0.558732
C182	C	0.568179	-0.767982	0.495421
H183	H	0.547847	-0.713113	0.478497
H184	H	0.619558	-0.784241	0.462061
C185	C	0.551151	-0.861900	0.514978
C186	C	0.526173	-0.794509	0.494192
H187	H	0.525242	-0.878265	0.514218
H188	H	0.551191	-0.877710	0.557631
H189	H	0.593966	-0.875441	0.487174
H190	H	0.483362	-0.780969	0.522000
H191	H	0.526125	-0.778697	0.451544
H192	H	0.568183	-0.546658	0.634434
H193	H	0.031160	-0.165463	0.479291
O194	O	-0.131859	-0.711012	0.389066
C195	C	-0.175994	-0.671918	0.355098
H196	H	-0.224093	-0.680457	0.387179
H197	H	-0.183125	-0.619109	0.340556
C198	C	-0.090519	-0.678532	0.254899
C199	C	-0.149594	-0.689022	0.294300
H200	H	-0.074234	-0.689079	0.217394
H201	H	-0.060784	-0.704868	0.277783
H202	H	-0.096470	-0.634524	0.242788
H203	H	-0.143642	-0.733031	0.306417
H204	H	-0.179328	-0.662694	0.271417
H205	H	0.225736	-0.658027	0.925521
O206	O	0.059589	-0.511281	0.798116
C207	C	-0.003724	-0.501722	0.842366
H208	H	-0.003562	-0.542386	0.890425
H209	H	-0.023044	-0.453685	0.849550
C210	C	-0.047203	-0.451298	0.757052
C211	C	-0.047005	-0.501245	0.816078
H212	H	-0.073903	-0.451000	0.740835
H213	H	-0.004549	-0.457735	0.727239
H214	H	-0.063302	-0.411272	0.763046
H215	H	-0.030899	-0.541270	0.810081
H216	H	-0.089658	-0.494814	0.845889
H217	H	0.066522	-0.517340	0.746005
O218	O	0.276850	-0.619822	0.797982
C219	C	0.310753	-0.658880	0.842174
H220	H	0.278622	-0.650283	0.890254
H221	H	0.325305	-0.711701	0.849333
C222	C	0.411000	-0.652361	0.756775
C223	C	0.371537	-0.641799	0.815826
H224	H	0.448496	-0.641828	0.740522
H225	H	0.388159	-0.626049	0.727001
H226	H	0.423119	-0.696379	0.762749
H227	H	0.359412	-0.597780	0.809850
H228	H	0.394377	-0.668103	0.845598
H229	H	0.225479	-0.657972	0.605261
O230	O	0.015304	-0.555484	0.707696
C231	C	-0.001044	-0.521537	0.651058
H232	H	0.036945	-0.498706	0.610535
H233	H	-0.003293	-0.556208	0.636865
C234	C	-0.113839	-0.496503	0.712873
C235	C	-0.067184	-0.468457	0.663104
H236	H	-0.154638	-0.463762	0.720304
H237	H	-0.102826	-0.519376	0.751032
H238	H	-0.115705	-0.525395	0.701039
H239	H	-0.065313	-0.439572	0.674942
H240	H	-0.078198	-0.445578	0.624947
H241	H	-0.038823	-0.623033	0.269953
H242	H	0.266286	-0.617183	0.646003
H243	H	0.396045	-0.707006	0.692856
O244	O	0.268445	-0.673052	0.738631
C245	C	0.284908	-0.704637	0.697364
H246	H	0.303407	-0.673927	0.645160
H247	H	0.324070	-0.753304	0.708215
C248	C	0.202280	-0.752600	0.772264
C249	C	0.224996	-0.714879	0.708146
H250	H	0.165325	-0.758921	0.778917
H251	H	0.191190	-0.731323	0.800068
H252	H	0.234921	-0.793152	0.781299
H253	H	0.192359	-0.674326	0.699114
H254	H	0.236079	-0.736149	0.680341
O255	O	0.401247	-0.502205	0.612251
C256	C	0.384709	-0.456416	0.556679
H257	H	0.366158	-0.477196	0.541194
H258	H	0.345564	-0.410960	0.567719
C259	C	0.467367	-0.414206	0.520999
C260	C	0.444587	-0.439731	0.501977
H261	H	0.504302	-0.403912	0.487256
H262	H	0.478508	-0.445054	0.558440
H263	H	0.434741	-0.376330	0.530199
H264	H	0.477210	-0.477611	0.492784
H265	H	0.433453	-0.408889	0.464533
O266	O	0.222325	-0.465179	0.589141
C267	C	0.231836	-0.420944	0.525813
H268	H	0.191168	-0.372878	0.525960
H269	H	0.279868	-0.413762	0.506466
C270	C	0.282225	-0.506289	0.482394
C271	C	0.232273	-0.447255	0.482574
H272	H	0.282498	-0.522520	0.455721
H273	H	0.275820	-0.536092	0.525059
H274	H	0.322247	-0.500296	0.466273
H275	H	0.192252	-0.453251	0.498702
H276	H	0.238672	-0.417454	0.439910
H277	H	0.175430	-0.337636	0.555374
O278	O	0.069577	-0.332485	0.762160
C279	C	0.060097	-0.376719	0.825489
H280	H	0.067637	-0.424791	0.825368
H281	H	0.096016	-0.383885	0.844776
C282	C	-0.018228	-0.291375	0.868924
C283	C	-0.008972	-0.350417	0.868776
H284	H	-0.060832	-0.275151	0.895626
H285	H	-0.011839	-0.261574	0.826258
H286	H	0.011709	-0.297355	0.884995
H287	H	-0.038904	-0.344435	0.852697
H288	H	-0.015368	-0.380217	0.911440
H289	H	0.116505	-0.460032	0.795926
O290	O	-0.085838	-0.656758	0.397479
C291	C	-0.095320	-0.593435	0.353229
H292	H	-0.054617	-0.593611	0.305203
H293	H	-0.143326	-0.574055	0.345964
C294	C	-0.145803	-0.549989	0.438571
C295	C	-0.095809	-0.550204	0.379585
H296	H	-0.146108	-0.523321	0.454829
H297	H	-0.139417	-0.592650	0.468384
H298	H	-0.185804	-0.533841	0.432508
H299	H	-0.055809	-0.566360	0.385650
H300	H	-0.102188	-0.507544	0.349774
H301	H	0.273654	-0.468282	0.658214
H302	H	0.060986	-0.822887	0.270075
H303	H	0.020039	-0.863588	0.392405
H304	H	-0.039168	-0.623025	0.490592
O305	O	0.066627	-0.829820	0.596713
C306	C	0.123210	-0.868853	0.562728
H307	H	0.114231	-0.869501	0.523416
H308	H	0.163787	-0.848630	0.539924
C309	C	0.153363	-0.937137	0.657797
C310	C	0.142333	-0.937938	0.609517
H311	H	0.165162	-0.979751	0.686659
H312	H	0.115244	-0.910839	0.680693
H313	H	0.187176	-0.920281	0.638786
H314	H	0.108516	-0.954786	0.628527
H315	H	0.180448	-0.964241	0.586625
H316	H	0.019779	-0.863579	0.549754
O317	O	0.075803	-0.865772	0.456980
C318	C	0.121630	-0.882288	0.401414
H319	H	0.124791	-0.931238	0.407488
H320	H	0.106466	-0.844332	0.357682
C321	C	0.184022	-0.825359	0.384126
C322	C	0.187908	-0.885482	0.391589
H323	H	0.224905	-0.827327	0.378063
H324	H	0.153147	-0.814229	0.421561
H325	H	0.171383	-0.793735	0.347683
H326	H	0.200539	-0.917103	0.428036
H327	H	0.218788	-0.896618	0.354160
H328	H	-0.079862	-0.663733	0.449648
H329	H	-0.088349	-0.993100	0.578027
O330	O	-0.139380	-0.865551	0.538702
C331	C	-0.172823	-0.909720	0.571742
H332	H	-0.138214	-0.957819	0.564017
H333	H	-0.193877	-0.916850	0.625391
C334	C	-0.270170	-0.824284	0.555283
C335	C	-0.227664	-0.883359	0.545791
H336	H	-0.304000	-0.808023	0.539278
H337	H	-0.247640	-0.794526	0.533026
H338	H	-0.287708	-0.830234	0.599992
H339	H	-0.210121	-0.877407	0.501082
H340	H	-0.250193	-0.913115	0.568041
O341	O	-0.132226	-0.819514	0.606405
C342	C	-0.176526	-0.829019	0.669696
H343	H	-0.224562	-0.788317	0.669491
H344	H	-0.183736	-0.877030	0.688994
C345	C	-0.091289	-0.879520	0.713290
C346	C	-0.150286	-0.829525	0.713039
H347	H	-0.075102	-0.879835	0.740028
H348	H	-0.061442	-0.873119	0.670651
H349	H	-0.097305	-0.919524	0.729371
H350	H	-0.144267	-0.789522	0.696952
H351	H	-0.180131	-0.835920	0.755678
O352	O	-0.265088	-0.774967	0.650393
C353	C	-0.304106	-0.718282	0.666653
H354	H	-0.283729	-0.677809	0.628671
H355	H	-0.355188	-0.704034	0.668792
C356	C	-0.330274	-0.779993	0.779484
C357	C	-0.305244	-0.730284	0.732836
H358	H	-0.330979	-0.787396	0.820310
H359	H	-0.303989	-0.818183	0.768530
H360	H	-0.372840	-0.768113	0.781258
H361	H	-0.262677	-0.742168	0.731057
H362	H	-0.331522	-0.692096	0.743791
O363	O	-0.264730	-0.666668	0.433196
C364	C	-0.303760	-0.697249	0.442829
H365	H	-0.283499	-0.751315	0.467339
H366	H	-0.354884	-0.677304	0.474587
C367	C	-0.329586	-0.618156	0.347240
C368	C	-0.304698	-0.684561	0.377339
H369	H	-0.330168	-0.610328	0.306844
H370	H	-0.303293	-0.597551	0.340751
H371	H	-0.372187	-0.601543	0.373712
H372	H	-0.262096	-0.701171	0.350871
H373	H	-0.330984	-0.705168	0.383822
O374	O	0.119919	-0.998676	0.501533
C375	C	0.128987	-1.037692	0.561773
H376	H	0.086262	-1.017327	0.600613
H377	H	0.132946	-1.088787	0.573438
C378	C	0.243734	-1.063816	0.511650
C379	C	0.191261	-1.038799	0.559353
H380	H	0.282149	-1.064501	0.510157
H381	H	0.237626	-1.037532	0.471064
H382	H	0.247025	-1.106392	0.521376
H383	H	0.187966	-0.996221	0.549622
H384	H	0.197370	-1.065076	0.599938
