data_functionalizedCrystal
_audit_creation_method	'MofGen! by Chris Wilmer'
_symmetry_space_group_name_H-M	'P1'
_symmetry_Int_Tables_number	1
_symmetry_cell_setting	triclinic
loop_
_symmetry_equiv_pos_as_xyz
  x,y,z
_cell_length_a	29.839131
_cell_length_b	29.839134
_cell_length_c	19.805399
_cell_angle_alpha	90.028355
_cell_angle_beta	90.029565
_cell_angle_gamma	90.036281
loop_
_atom_site_label
_atom_site_type_symbol
_atom_site_fract_x
_atom_site_fract_y
_atom_site_fract_z
Zn1	Zn	-0.178925	0.686748	0.382869
Zn2	Zn	0.071075	0.936748	0.632869
Zn3	Zn	0.321075	1.186748	0.882869
Zn4	Zn	0.571075	1.436748	1.132869
Zn5	Zn	-0.254053	0.686672	0.269677
Zn6	Zn	-0.004053	0.936672	0.519677
Zn7	Zn	0.245947	1.186672	0.769677
Zn8	Zn	0.495947	1.436672	1.019677
Zn9	Zn	-0.178931	0.611622	0.269676
Zn10	Zn	0.071069	0.861622	0.519676
Zn11	Zn	0.321069	1.111622	0.769676
Zn12	Zn	0.571069	1.361622	1.019676
Zn13	Zn	-0.254022	0.611578	0.382806
Zn14	Zn	-0.004022	0.861578	0.632806
Zn15	Zn	0.245978	1.111578	0.882806
Zn16	Zn	0.495978	1.361578	1.132806
O17	O	-0.216483	0.649155	0.326257
O18	O	0.033517	0.899155	0.576257
O19	O	0.283517	1.149155	0.826257
O20	O	0.533517	1.399155	1.076257
O21	O	-0.188902	0.749605	0.367880
O22	O	0.061098	0.999605	0.617880
O23	O	0.311098	1.249605	0.867880
O24	O	0.561098	1.499605	1.117880
O25	O	-0.244103	0.676703	0.174960
O26	O	0.005897	0.926703	0.424960
O27	O	0.255897	1.176703	0.674960
O28	O	0.505897	1.426703	0.924960
O29	O	-0.116063	0.621638	0.284717
O30	O	0.133937	0.871638	0.534717
O31	O	0.383937	1.121638	0.784717
O32	O	0.633937	1.371638	1.034717
O33	O	-0.244097	0.749549	0.284718
O34	O	0.005903	0.999549	0.534718
O35	O	0.255903	1.249549	0.784718
O36	O	0.505903	1.499549	1.034718
O37	O	-0.116059	0.676833	0.367880
O38	O	0.133941	0.926833	0.617880
O39	O	0.383941	1.176833	0.867880
O40	O	0.633941	1.426833	1.117880
O41	O	-0.188911	0.621564	0.174960
O42	O	0.061089	0.871564	0.424960
O43	O	0.311089	1.121564	0.674960
O44	O	0.561089	1.371564	0.924960
O45	O	-0.188882	0.548749	0.284657
O46	O	0.061118	0.798749	0.534657
O47	O	0.311118	1.048749	0.784657
O48	O	0.561118	1.298749	1.034657
O49	O	-0.244045	0.621563	0.477531
O50	O	0.005955	0.871563	0.727531
O51	O	0.255955	1.121563	0.977531
O52	O	0.505955	1.371563	1.227531
O53	O	-0.244051	0.548717	0.367773
O54	O	0.005949	0.798717	0.617773
O55	O	0.255949	1.048717	0.867773
O56	O	0.505949	1.298717	1.117773
O57	O	-0.188872	0.676790	0.477577
O58	O	0.061128	0.926790	0.727577
O59	O	0.311128	1.176790	0.977577
O60	O	0.561128	1.426790	1.227577
O61	O	-0.316916	0.676660	0.284657
O62	O	-0.066916	0.926660	0.534657
O63	O	0.183084	1.176660	0.784657
O64	O	0.433084	1.426660	1.034657
O65	O	-0.316893	0.621489	0.367773
O66	O	-0.066893	0.871489	0.617773
O67	O	0.183107	1.121489	0.867773
O68	O	0.433107	1.371489	1.117773
C69	C	-0.216464	0.532433	0.326208
C70	C	0.033536	0.782433	0.576208
C71	C	0.283536	1.032433	0.826208
C72	C	0.533536	1.282433	1.076208
C73	C	-0.216466	0.482498	0.326203
C74	C	0.033534	0.732498	0.576203
C75	C	0.283534	0.982498	0.826203
C76	C	0.533534	1.232498	1.076203
C77	C	-0.245252	0.172847	0.369482
C78	C	0.004748	0.422847	0.619482
C79	C	0.254748	0.672847	0.869482
C80	C	0.504748	0.922847	1.119482
C81	C	-0.245265	-0.014826	0.369512
C82	C	0.004735	0.235174	0.619512
C83	C	0.254735	0.485174	0.869512
C84	C	0.504735	0.735174	1.119512
O85	O	-0.269718	-0.039097	0.406281
O86	O	-0.019718	0.210903	0.656281
O87	O	0.230282	0.460903	0.906281
O88	O	0.480282	0.710903	1.156281
N89	N	-0.216499	-0.038287	0.326308
N90	N	0.033501	0.211713	0.576308
N91	N	0.283501	0.461713	0.826308
N92	N	0.533501	0.711713	1.076308
C93	C	-0.187727	-0.014827	0.283096
C94	C	0.062273	0.235173	0.533096
C95	C	0.312273	0.485173	0.783096
C96	C	0.562273	0.735173	1.033096
O97	O	-0.163257	-0.039089	0.246353
O98	O	0.086743	0.210911	0.496353
O99	O	0.336743	0.460911	0.746353
O100	O	0.586743	0.710911	0.996353
C101	C	-0.187712	0.172845	0.283070
C102	C	0.062288	0.422845	0.533070
C103	C	0.312288	0.672845	0.783070
C104	C	0.562288	0.922845	1.033070
C105	C	-0.216483	0.196304	0.326272
C106	C	0.033517	0.446304	0.576272
C107	C	0.283517	0.696304	0.826272
C108	C	0.533517	0.946304	1.076272
C109	C	-0.274020	0.196306	0.412682
C110	C	-0.024020	0.446306	0.662682
C111	C	0.225980	0.696306	0.912682
C112	C	0.475980	0.946306	1.162682
C113	C	-0.274018	0.243222	0.412671
C114	C	-0.024018	0.493222	0.662671
C115	C	0.225982	0.743222	0.912671
C116	C	0.475982	0.993222	1.162671
C117	C	-0.245249	0.266678	0.369461
C118	C	0.004751	0.516678	0.619461
C119	C	0.254751	0.766678	0.869461
C120	C	0.504751	1.016678	1.119461
C121	C	-0.216481	0.243219	0.326262
C122	C	0.033519	0.493219	0.576262
C123	C	0.283519	0.743219	0.826262
C124	C	0.533519	0.993219	1.076262
C125	C	-0.158938	0.196304	0.239861
C126	C	0.091062	0.446304	0.489861
C127	C	0.341062	0.696304	0.739861
C128	C	0.591062	0.946304	0.989861
C129	C	-0.158936	0.243225	0.239860
C130	C	0.091064	0.493225	0.489860
C131	C	0.341064	0.743225	0.739860
C132	C	0.591064	0.993225	0.989860
C133	C	-0.187706	0.266684	0.283063
C134	C	0.062294	0.516684	0.533063
C135	C	0.312294	0.766684	0.783063
C136	C	0.562294	1.016684	1.033063
C137	C	-0.187710	0.313591	0.283041
C138	C	0.062290	0.563591	0.533041
C139	C	0.312290	0.813591	0.783041
C140	C	0.562290	1.063591	1.033041
N141	N	-0.216475	0.337053	0.326246
N142	N	0.033525	0.587053	0.576246
N143	N	0.283525	0.837053	0.826246
N144	N	0.533525	1.087053	1.076246
C145	C	-0.245244	0.313596	0.369456
C146	C	0.004756	0.563596	0.619456
C147	C	0.254756	0.813596	0.869456
C148	C	0.504756	1.063596	1.119456
C149	C	-0.187737	-0.113358	0.283112
C150	C	0.062263	0.136642	0.533112
C151	C	0.312263	0.386642	0.783112
C152	C	0.562263	0.636642	1.033112
C153	C	-0.187741	-0.160276	0.283117
C154	C	0.062259	0.089724	0.533117
C155	C	0.312259	0.339724	0.783117
C156	C	0.562259	0.589724	1.033117
C157	C	-0.245279	-0.160271	0.369535
C158	C	0.004721	0.089729	0.619535
C159	C	0.254721	0.339729	0.869535
C160	C	0.504721	0.589729	1.119535
C161	C	-0.245276	-0.113352	0.369526
C162	C	0.004724	0.136648	0.619526
C163	C	0.254724	0.386648	0.869526
C164	C	0.504724	0.636648	1.119526
C165	C	-0.216502	-0.089896	0.326316
C166	C	0.033498	0.160104	0.576316
C167	C	0.283498	0.410104	0.826316
C168	C	0.533498	0.660104	1.076316
C169	C	-0.245239	0.412122	0.369430
C170	C	0.004761	0.662122	0.619430
C171	C	0.254761	0.912122	0.869430
C172	C	0.504761	1.162122	1.119430
C173	C	-0.245236	0.459042	0.369413
C174	C	0.004764	0.709042	0.619413
C175	C	0.254764	0.959042	0.869413
C176	C	0.504764	1.209042	1.119413
C177	C	-0.187697	0.459033	0.282998
C178	C	0.062303	0.709033	0.532998
C179	C	0.312303	0.959033	0.782998
C180	C	0.562303	1.209033	1.032998
C181	C	-0.187701	0.412117	0.283012
C182	C	0.062299	0.662117	0.533012
C183	C	0.312299	0.912117	0.783012
C184	C	0.562299	1.162117	1.033012
C185	C	-0.216474	0.388663	0.326233
C186	C	0.033526	0.638663	0.576233
C187	C	0.283526	0.888663	0.826233
C188	C	0.533526	1.138663	1.076233
O189	O	-0.163266	0.337891	0.246297
O190	O	0.086734	0.587891	0.496297
O191	O	0.336734	0.837891	0.746297
O192	O	0.586734	1.087891	0.996297
O193	O	-0.269703	0.337866	0.406203
O194	O	-0.019703	0.587866	0.656203
O195	O	0.230297	0.837866	0.906203
O196	O	0.480297	1.087866	1.156203
C197	C	-0.245254	0.125932	0.369493
C198	C	0.004746	0.375932	0.619493
C199	C	0.254746	0.625932	0.869493
C200	C	0.504746	0.875932	1.119493
C201	C	-0.216486	0.102473	0.326293
C202	C	0.033514	0.352473	0.576293
C203	C	0.283514	0.602473	0.826293
C204	C	0.533514	0.852473	1.076293
C205	C	-0.187717	0.125930	0.283083
C206	C	0.062283	0.375930	0.533083
C207	C	0.312283	0.625930	0.783083
C208	C	0.562283	0.875930	1.033083
C209	C	-0.216490	0.055555	0.326299
C210	C	0.033510	0.305555	0.576299
C211	C	0.283510	0.555555	0.826299
C212	C	0.533510	0.805555	1.076299
C213	C	-0.245260	0.032099	0.369509
C214	C	0.004740	0.282099	0.619509
C215	C	0.254740	0.532099	0.869509
C216	C	0.504740	0.782099	1.119509
C217	C	-0.274025	0.055560	0.412714
C218	C	-0.024025	0.305560	0.662714
C219	C	0.225975	0.555560	0.912714
C220	C	0.475975	0.805560	1.162714
C221	C	-0.274023	0.102475	0.412703
C222	C	-0.024023	0.352475	0.662703
C223	C	0.225977	0.602475	0.912703
C224	C	0.475977	0.852475	1.162703
C225	C	-0.158951	0.102468	0.239879
C226	C	0.091049	0.352468	0.489879
C227	C	0.341049	0.602468	0.739879
C228	C	0.591049	0.852468	0.989879
C229	C	-0.158956	0.055553	0.239892
C230	C	0.091044	0.305553	0.489892
C231	C	0.341044	0.555553	0.739892
C232	C	0.591044	0.805553	0.989892
C233	C	-0.187725	0.032096	0.283102
C234	C	0.062275	0.282096	0.533102
C235	C	0.312275	0.532096	0.783102
C236	C	0.562275	0.782096	1.033102
C237	C	-0.333205	0.649074	0.326223
C238	C	-0.083205	0.899074	0.576223
C239	C	0.166795	1.149074	0.826223
C240	C	0.416795	1.399074	1.076223
C241	C	-0.383140	0.649080	0.326232
C242	C	-0.133140	0.899080	0.576232
C243	C	0.116860	1.149080	0.826232
C244	C	0.366860	1.399080	1.076232
C245	C	-0.692782	0.677935	0.283042
C246	C	-0.442782	0.927935	0.533042
C247	C	-0.192782	1.177935	0.783042
C248	C	0.057218	1.427935	1.033042
C249	C	-0.880455	0.677990	0.283068
C250	C	-0.630455	0.927990	0.533068
C251	C	-0.380455	1.177990	0.783068
C252	C	-0.130455	1.427990	1.033068
O253	O	-0.904719	0.702459	0.246321
O254	O	-0.654719	0.952459	0.496321
O255	O	-0.404719	1.202459	0.746321
O256	O	-0.154719	1.452459	0.996321
N257	N	-0.903925	0.649248	0.326308
N258	N	-0.653925	0.899248	0.576308
N259	N	-0.403925	1.149248	0.826308
N260	N	-0.153925	1.399248	1.076308
C261	C	-0.880473	0.620492	0.369547
C262	C	-0.630473	0.870492	0.619547
C263	C	-0.380473	1.120492	0.869547
C264	C	-0.130473	1.370492	1.119547
O265	O	-0.904742	0.596050	0.406331
O266	O	-0.654742	0.846050	0.656331
O267	O	-0.404742	1.096050	0.906331
O268	O	-0.154742	1.346050	1.156331
C269	C	-0.692801	0.620440	0.369524
C270	C	-0.442801	0.870440	0.619524
C271	C	-0.192801	1.120440	0.869524
C272	C	0.057199	1.370440	1.119524
C273	C	-0.669334	0.649180	0.326277
C274	C	-0.419334	0.899180	0.576277
C275	C	-0.169334	1.149180	0.826277
C276	C	0.080666	1.399180	1.076277
C277	C	-0.669315	0.706673	0.239798
C278	C	-0.419315	0.956673	0.489798
C279	C	-0.169315	1.206673	0.739798
C280	C	0.080685	1.456673	0.989798
C281	C	-0.622400	0.706657	0.239790
C282	C	-0.372400	0.956657	0.489790
C283	C	-0.122400	1.206657	0.739790
C284	C	0.127600	1.456657	0.989790
C285	C	-0.598951	0.677903	0.283024
C286	C	-0.348951	0.927903	0.533024
C287	C	-0.098951	1.177903	0.783024
C288	C	0.151049	1.427903	1.033024
C289	C	-0.622419	0.649164	0.326268
C290	C	-0.372419	0.899164	0.576268
C291	C	-0.122419	1.149164	0.826268
C292	C	0.127581	1.399164	1.076268
C293	C	-0.669350	0.591687	0.412767
C294	C	-0.419350	0.841687	0.662767
C295	C	-0.169350	1.091687	0.912767
C296	C	0.080650	1.341687	1.162767
C297	C	-0.622429	0.591677	0.412758
C298	C	-0.372429	0.841677	0.662758
C299	C	-0.122429	1.091677	0.912758
C300	C	0.127571	1.341677	1.162758
C301	C	-0.598962	0.620417	0.369511
C302	C	-0.348962	0.870417	0.619511
C303	C	-0.098962	1.120417	0.869511
C304	C	0.151038	1.370417	1.119511
C305	C	-0.552055	0.620394	0.369494
C306	C	-0.302055	0.870394	0.619494
C307	C	-0.052055	1.120394	0.869494
C308	C	0.197945	1.370394	1.119494
N309	N	-0.528585	0.649136	0.326254
N310	N	-0.278585	0.899136	0.576254
N311	N	-0.028585	1.149136	0.826254
N312	N	0.221415	1.399136	1.076254
C313	C	-0.552034	0.677890	0.283019
C314	C	-0.302034	0.927890	0.533019
C315	C	-0.052034	1.177890	0.783019
C316	C	0.197966	1.427890	1.033019
C317	C	-0.979004	0.620522	0.369556
C318	C	-0.729004	0.870522	0.619556
C319	C	-0.479004	1.120522	0.869556
C320	C	-0.229004	1.370522	1.119556
C321	C	-1.025922	0.620534	0.369561
C322	C	-0.775922	0.870534	0.619561
C323	C	-0.525922	1.120534	0.869561
C324	C	-0.275922	1.370534	1.119561
C325	C	-1.025901	0.678033	0.283082
C326	C	-0.775901	0.928033	0.533082
C327	C	-0.525901	1.178033	0.783082
C328	C	-0.275901	1.428033	1.033082
C329	C	-0.978982	0.678017	0.283074
C330	C	-0.728982	0.928017	0.533074
C331	C	-0.478982	1.178017	0.783074
C332	C	-0.228982	1.428017	1.033074
C333	C	-0.955534	0.649264	0.326316
C334	C	-0.705534	0.899264	0.576316
C335	C	-0.455534	1.149264	0.826316
C336	C	-0.205534	1.399264	1.076316
C337	C	-0.453508	0.677855	0.283004
C338	C	-0.203508	0.927855	0.533004
C339	C	0.046492	1.177855	0.783004
C340	C	0.296492	1.427855	1.033004
C341	C	-0.406588	0.677835	0.282997
C342	C	-0.156588	0.927835	0.532997
C343	C	0.093412	1.177835	0.782997
C344	C	0.343412	1.427835	1.032997
C345	C	-0.406613	0.620338	0.369478
C346	C	-0.156613	0.870338	0.619478
C347	C	0.093387	1.120338	0.869478
C348	C	0.343387	1.370338	1.119478
C349	C	-0.453529	0.620356	0.369482
C350	C	-0.203529	0.870356	0.619482
C351	C	0.046471	1.120356	0.869482
C352	C	0.296471	1.370356	1.119482
C353	C	-0.476975	0.649118	0.326243
C354	C	-0.226975	0.899118	0.576243
C355	C	0.023025	1.149118	0.826243
C356	C	0.273025	1.399118	1.076243
O357	O	-0.527762	0.595942	0.406227
O358	O	-0.277762	0.845942	0.656227
O359	O	-0.027762	1.095942	0.906227
O360	O	0.222238	1.345942	1.156227
O361	O	-0.527757	0.702336	0.246252
O362	O	-0.277757	0.952336	0.496252
O363	O	-0.027757	1.202336	0.746252
O364	O	0.222243	1.452336	0.996252
C365	C	-0.739698	0.677951	0.283051
C366	C	-0.489698	0.927951	0.533051
C367	C	-0.239698	1.177951	0.783051
C368	C	0.010302	1.427951	1.033051
C369	C	-0.763165	0.649212	0.326294
C370	C	-0.513165	0.899212	0.576294
C371	C	-0.263165	1.149212	0.826294
C372	C	-0.013165	1.399212	1.076294
C373	C	-0.739717	0.620458	0.369529
C374	C	-0.489717	0.870458	0.619529
C375	C	-0.239717	1.120458	0.869529
C376	C	0.010283	1.370458	1.119529
C377	C	-0.810083	0.649225	0.326299
C378	C	-0.560083	0.899225	0.576299
C379	C	-0.310083	1.149225	0.826299
C380	C	-0.060083	1.399225	1.076299
C381	C	-0.833531	0.677979	0.283064
C382	C	-0.583531	0.927979	0.533064
C383	C	-0.333531	1.177979	0.783064
C384	C	-0.083531	1.427979	1.033064
C385	C	-0.810061	0.706721	0.239825
C386	C	-0.560061	0.956721	0.489825
C387	C	-0.310061	1.206721	0.739825
C388	C	-0.060061	1.456721	0.989825
C389	C	-0.763146	0.706705	0.239816
C390	C	-0.513146	0.956705	0.489816
C391	C	-0.263146	1.206705	0.739816
C392	C	-0.013146	1.456705	0.989816
C393	C	-0.763186	0.591716	0.412769
C394	C	-0.513186	0.841716	0.662769
C395	C	-0.263186	1.091716	0.912769
C396	C	-0.013186	1.341716	1.162769
C397	C	-0.810102	0.591733	0.412773
C398	C	-0.560102	0.841733	0.662773
C399	C	-0.310102	1.091733	0.912773
C400	C	-0.060102	1.341733	1.162773
C401	C	-0.833550	0.620488	0.369539
C402	C	-0.583550	0.870488	0.619539
C403	C	-0.333550	1.120488	0.869539
C404	C	-0.083550	1.370488	1.119539
C405	C	-0.099304	0.649249	0.326305
C406	C	0.150696	0.899249	0.576305
C407	C	0.400696	1.149249	0.826305
C408	C	0.650696	1.399249	1.076305
C409	C	-0.049370	0.649289	0.326326
C410	C	0.200630	0.899289	0.576326
C411	C	0.450630	1.149289	0.826326
C412	C	0.700630	1.399289	1.076326
C413	C	-0.216455	0.649180	0.502800
C414	C	0.033545	0.899180	0.752800
C415	C	0.283545	1.149180	1.002800
C416	C	0.533545	1.399180	1.252800
C417	C	-0.216443	0.649191	0.578032
C418	C	0.033557	0.899191	0.828032
C419	C	0.283557	1.149191	1.078032
C420	C	0.533557	1.399191	1.328032
C421	C	-0.216502	0.766333	0.326306
C422	C	0.033498	1.016333	0.576306
C423	C	0.283498	1.266333	0.826306
C424	C	0.533498	1.516333	1.076306
C425	C	-0.216511	0.816268	0.326327
C426	C	0.033489	1.066268	0.576327
C427	C	0.283489	1.316268	0.826327
C428	C	0.533489	1.566268	1.076327
C429	C	-0.216479	0.649156	0.150401
C430	C	0.033521	0.899156	0.400401
C431	C	0.283521	1.149156	0.650401
C432	C	0.533521	1.399156	0.900401
C433	C	-0.216364	0.649232	0.075169
C434	C	0.033636	0.899232	0.325169
C435	C	0.283636	1.149232	0.575169
C436	C	0.533636	1.399232	0.825169
C437	C	-0.187712	0.677948	0.613401
C438	C	0.062288	0.927948	0.863401
C439	C	0.312288	1.177948	1.113401
C440	C	0.562288	1.427948	1.363401
C441	C	-0.187699	0.677953	0.684089
C442	C	0.062301	0.927953	0.934089
C443	C	0.312301	1.177953	1.184089
C444	C	0.562301	1.427953	1.434089
C445	C	-0.216419	0.649202	0.719407
C446	C	0.033581	0.899202	0.969407
C447	C	0.283581	1.149202	1.219407
C448	C	0.533581	1.399202	1.469407
C449	C	-0.245151	0.620442	0.684033
C450	C	0.004849	0.870442	0.934033
C451	C	0.254849	1.120442	1.184033
C452	C	0.504849	1.370442	1.434033
C453	C	-0.245161	0.620435	0.613346
C454	C	0.004839	0.870435	0.863346
C455	C	0.254839	1.120435	1.113346
C456	C	0.504839	1.370435	1.363346
C457	C	-0.245109	0.620467	0.969107
C458	C	0.004891	0.870467	1.219107
C459	C	0.254891	1.120467	1.469107
C460	C	0.504891	1.370467	1.719107
C461	C	-0.245097	0.620477	1.039799
C462	C	0.004903	0.870477	1.289799
C463	C	0.254903	1.120477	1.539799
C464	C	0.504903	1.370477	1.789799
C465	C	-0.187647	0.677985	1.039850
C466	C	0.062353	0.927985	1.289850
C467	C	0.312353	1.177985	1.539850
C468	C	0.562353	1.427985	1.789850
C469	C	-0.187657	0.677978	0.969163
C470	C	0.062343	0.927978	1.219163
C471	C	0.312343	1.177978	1.469163
C472	C	0.562343	1.427978	1.719163
C473	C	-0.216387	0.649216	0.933795
C474	C	0.033613	0.899216	1.183795
C475	C	0.283613	1.149216	1.433795
C476	C	0.533613	1.399216	1.683795
C477	C	-0.216400	0.649211	0.857146
C478	C	0.033600	0.899211	1.107146
C479	C	0.283600	1.149211	1.357146
C480	C	0.533600	1.399211	1.607146
C481	C	-0.216408	0.649209	0.796055
C482	C	0.033592	0.899209	1.046055
C483	C	0.283592	1.149209	1.296055
C484	C	0.533592	1.399209	1.546055
H485	H	-0.164275	0.478140	0.247816
H486	H	0.085725	0.728140	0.497816
H487	H	0.335725	0.978140	0.747816
H488	H	0.585725	1.228140	0.997816
F489	F	-0.304642	0.171349	0.458677
F490	F	-0.054642	0.421349	0.708677
F491	F	0.195358	0.671349	0.958677
F492	F	0.445358	0.921349	1.208677
H493	H	-0.297445	0.262318	0.447853
H494	H	-0.047445	0.512318	0.697853
H495	H	0.202555	0.762318	0.947853
H496	H	0.452555	1.012318	1.197853
H497	H	-0.268667	0.393031	0.404626
H498	H	-0.018667	0.643031	0.654626
H499	H	0.231333	0.893031	0.904626
H500	H	0.481333	1.143031	1.154626
F501	F	-0.275666	0.589875	1.077385
F502	F	-0.025666	0.839875	1.327385
F503	F	0.224334	1.089875	1.577385
F504	F	0.474334	1.339875	1.827385
F505	F	-0.835072	0.561140	0.458805
F506	F	-0.585072	0.811140	0.708805
F507	F	-0.335072	1.061140	0.958805
F508	F	-0.085072	1.311140	1.208805
H509	H	-0.268703	-0.094255	0.404706
H510	H	-0.018703	0.155745	0.654706
H511	H	0.231297	0.405745	0.904706
H512	H	0.481297	0.655745	1.154706
F513	F	-0.275895	-0.185243	0.415526
F514	F	-0.025895	0.064757	0.665526
F515	F	0.224105	0.314757	0.915526
F516	F	0.474105	0.564757	1.165526
H517	H	-0.164318	-0.179372	0.247930
H518	H	0.085682	0.070628	0.497930
H519	H	0.335682	0.320628	0.747930
H520	H	0.585682	0.570628	0.997930
H521	H	-0.164305	-0.094264	0.247922
H522	H	0.085695	0.155736	0.497922
H523	H	0.335695	0.405736	0.747922
H524	H	0.585695	0.655736	0.997922
H525	H	-0.135523	0.121562	0.204691
H526	H	0.114477	0.371562	0.454691
H527	H	0.364477	0.621562	0.704691
H528	H	0.614477	0.871562	0.954691
H529	H	-0.297451	0.121571	0.447884
H530	H	-0.047451	0.371571	0.697884
H531	H	0.202549	0.621571	0.947884
H532	H	0.452549	0.871571	1.197884
F533	F	-0.304645	0.030588	0.458698
F534	F	-0.054645	0.280588	0.708698
F535	F	0.195355	0.530588	0.958698
F536	F	0.445355	0.780588	1.208698
F537	F	-0.128313	0.171347	0.193882
F538	F	0.121687	0.421347	0.443882
F539	F	0.371687	0.671347	0.693882
F540	F	0.621687	0.921347	0.943882
F541	F	-0.128334	0.030591	0.193904
F542	F	0.121666	0.280591	0.443904
F543	F	0.371666	0.530591	0.693904
F544	F	0.621666	0.780591	0.943904
H545	H	-0.268552	0.597014	0.584549
H546	H	-0.018552	0.847014	0.834549
H547	H	0.231448	1.097014	1.084549
H548	H	0.481448	1.347014	1.334549
F549	F	-0.128309	0.268186	0.193870
F550	F	0.121691	0.518186	0.443870
F551	F	0.371691	0.768186	0.693870
F552	F	0.621691	1.018186	0.943870
H553	H	-0.164275	0.393016	0.247832
H554	H	0.085725	0.643016	0.497832
H555	H	0.335725	0.893016	0.747832
H556	H	0.585725	1.143016	0.997832
F557	F	-0.275715	0.589841	0.721623
F558	F	-0.025715	0.839841	0.971623
F559	F	0.224285	1.089841	1.221623
F560	F	0.474285	1.339841	1.471623
F561	F	-0.954011	0.708607	0.237045
F562	F	-0.704011	0.958607	0.487045
F563	F	-0.454011	1.208607	0.737045
F564	F	-0.204011	1.458607	0.987045
H565	H	-0.829161	0.730133	0.204619
H566	H	-0.579161	0.980133	0.454619
H567	H	-0.329161	1.230133	0.704619
H568	H	-0.079161	1.480133	0.954619
F569	F	-0.275860	0.484006	0.415396
F570	F	-0.025860	0.734006	0.665396
F571	F	0.224140	0.984006	0.915396
F572	F	0.474140	1.234006	1.165396
F573	F	-0.157146	0.708551	0.575819
F574	F	0.092854	0.958551	0.825819
F575	F	0.342854	1.208551	1.075819
F576	F	0.592854	1.458551	1.325819
H577	H	-0.387483	0.701239	0.247777
H578	H	-0.137483	0.951239	0.497777
H579	H	0.112517	1.201239	0.747777
H580	H	0.362517	1.451239	0.997777
F581	F	-0.478454	0.708466	0.236984
F582	F	-0.228454	0.958466	0.486984
F583	F	0.021546	1.208466	0.736984
F584	F	0.271546	1.458466	0.986984
H585	H	-0.688449	0.568281	0.447980
H586	H	-0.438449	0.818281	0.697980
H587	H	-0.188449	1.068281	0.947980
H588	H	0.061551	1.318281	1.197980
H589	H	-0.603295	0.730062	0.204576
H590	H	-0.353295	0.980062	0.454576
H591	H	-0.103295	1.230062	0.704576
H592	H	0.146705	1.480062	0.954576
H593	H	-0.387515	0.596925	0.404677
H594	H	-0.137515	0.846925	0.654677
H595	H	0.112485	1.096925	0.904677
H596	H	0.362485	1.346925	1.154677
H597	H	-1.045000	0.701446	0.247879
H598	H	-0.795000	0.951446	0.497879
H599	H	-0.545000	1.201446	0.747879
H600	H	-0.295000	1.451446	0.997879
F601	F	-0.157068	0.708595	1.077497
F602	F	0.092932	0.958595	1.327497
F603	F	0.342932	1.208595	1.577497
F604	F	0.592932	1.458595	1.827497
H605	H	-0.688402	0.730091	0.204591
H606	H	-0.438402	0.980091	0.454591
H607	H	-0.188402	1.230091	0.704591
H608	H	0.061598	1.480091	0.954591
H609	H	-0.959916	0.597106	0.404769
H610	H	-0.709916	0.847106	0.654769
H611	H	-0.459916	1.097106	0.904769
H612	H	-0.209916	1.347106	1.154769
F613	F	-1.050892	0.589940	0.415583
F614	F	-0.800892	0.839940	0.665583
F615	F	-0.550892	1.089940	0.915583
F616	F	-0.300892	1.339940	1.165583
H617	H	-0.603341	0.568262	0.447973
H618	H	-0.353341	0.818262	0.697973
H619	H	-0.103341	1.068262	0.947973
H620	H	0.146659	1.318262	1.197973
F621	F	-0.478505	0.589759	0.415498
F622	F	-0.228505	0.839759	0.665498
F623	F	0.021495	1.089759	0.915498
F624	F	0.271495	1.339759	1.165498
H625	H	-0.744042	0.730108	0.204600
H626	H	-0.494042	0.980108	0.454600
H627	H	-0.244042	1.230108	0.704600
H628	H	0.005958	1.480108	0.954600
F629	F	-0.738237	0.561110	0.458788
F630	F	-0.488237	0.811110	0.708788
F631	F	-0.238237	1.061110	0.958788
F632	F	0.011763	1.311110	1.208788
H633	H	-0.164305	0.701371	0.712884
H634	H	0.085695	0.951371	0.962884
H635	H	0.335695	1.201371	1.212884
H636	H	0.585695	1.451371	1.462884
H637	H	-0.164272	0.701391	0.940411
H638	H	0.085728	0.951391	1.190411
H639	H	0.335728	1.201391	1.440411
H640	H	0.585728	1.451391	1.690411
H641	H	-0.268509	0.597054	0.940318
H642	H	-0.018509	0.847054	1.190318
H643	H	0.231491	1.097054	1.440318
H644	H	0.481491	1.347054	1.690318
