data_functionalizedCrystal
_audit_creation_method	'MofGen! by Chris Wilmer'
_symmetry_space_group_name_H-M	'P1'
_symmetry_Int_Tables_number	1
_symmetry_cell_setting	triclinic
loop_
_symmetry_equiv_pos_as_xyz
  x,y,z
_cell_length_a	19.805407
_cell_length_b	29.839131
_cell_length_c	19.805399
_cell_angle_alpha	89.969027
_cell_angle_beta	89.983114
_cell_angle_gamma	90.041420
loop_
_atom_site_label
_atom_site_type_symbol
_atom_site_fract_x
_atom_site_fract_y
_atom_site_fract_z
Zn1	Zn	1.034647	-0.178858	-0.382710
Zn2	Zn	1.367980	0.154476	-0.049377
Zn3	Zn	1.701314	0.487809	0.283956
Zn4	Zn	1.034538	-0.253987	-0.269518
Zn5	Zn	1.367871	0.079346	0.063815
Zn6	Zn	1.701204	0.412680	0.397149
Zn7	Zn	0.921467	-0.178872	-0.269535
Zn8	Zn	1.254800	0.154462	0.063798
Zn9	Zn	1.588134	0.487795	0.397132
Zn10	Zn	0.921396	-0.253961	-0.382665
Zn11	Zn	1.254729	0.079372	-0.049332
Zn12	Zn	1.588062	0.412705	0.284002
O13	O	0.978012	-0.216419	-0.326107
O14	O	1.311345	0.116914	0.007226
O15	O	1.644679	0.450247	0.340560
O16	O	1.129349	-0.188828	-0.367707
O17	O	1.462682	0.144505	-0.034374
O18	O	1.796016	0.477838	0.298960
O19	O	1.019523	-0.244039	-0.174804
O20	O	1.352856	0.089294	0.158530
O21	O	1.686189	0.422627	0.491863
O22	O	0.936556	-0.116003	-0.284574
O23	O	1.269890	0.217331	0.048759
O24	O	1.603223	0.550664	0.382093
O25	O	1.129269	-0.244026	-0.284545
O26	O	1.462602	0.089308	0.048788
O27	O	1.795935	0.422641	0.382121
O28	O	1.019709	-0.115992	-0.367723
O29	O	1.353043	0.217341	-0.034390
O30	O	1.686376	0.550674	0.298943
O31	O	0.936450	-0.188853	-0.174816
O32	O	1.269784	0.144481	0.158517
O33	O	1.603117	0.477814	0.491851
O34	O	0.826741	-0.188828	-0.284530
O35	O	1.160074	0.144506	0.048804
O36	O	1.493408	0.477839	0.382137
O37	O	0.936435	-0.243982	-0.477388
O38	O	1.269768	0.089352	-0.144054
O39	O	1.603101	0.422685	0.189279
O40	O	0.826689	-0.243996	-0.367646
O41	O	1.160022	0.089338	-0.034313
O42	O	1.493355	0.422671	0.299021
O43	O	1.019640	-0.188803	-0.477421
O44	O	1.352973	0.144530	-0.144088
O45	O	1.686307	0.477863	0.189246
O46	O	1.019453	-0.316851	-0.284501
O47	O	1.352787	0.016483	0.048832
O48	O	1.686120	0.349816	0.382165
O49	O	0.936328	-0.316832	-0.367630
O50	O	1.269662	0.016502	-0.034296
O51	O	1.602995	0.349835	0.299037
C52	C	0.802156	-0.216411	-0.326085
C53	C	1.135489	0.116923	0.007248
C54	C	1.468823	0.450256	0.340582
C55	C	0.726924	-0.216418	-0.326092
C56	C	1.060257	0.116915	0.007241
C57	C	1.393591	0.450249	0.340575
C58	C	0.691570	-0.245187	-0.369300
C59	C	1.024903	0.088146	-0.035967
C60	C	1.358237	0.421480	0.297366
C61	C	0.620882	-0.245188	-0.369310
C62	C	0.954215	0.088145	-0.035977
C63	C	1.287548	0.421479	0.297357
C64	C	0.585548	-0.216421	-0.326107
C65	C	0.918882	0.116912	0.007226
C66	C	1.252215	0.450245	0.340560
C67	C	0.620907	-0.187649	-0.282897
C68	C	0.954240	0.145684	0.050437
C69	C	1.287574	0.479018	0.383770
C70	C	0.691594	-0.187646	-0.282891
C71	C	1.024928	0.145687	0.050442
C72	C	1.358261	0.479020	0.383776
C73	C	0.335834	-0.187659	-0.282919
C74	C	0.669167	0.145674	0.050414
C75	C	1.002500	0.479008	0.383748
C76	C	0.265142	-0.187665	-0.282927
C77	C	0.598475	0.145668	0.050407
C78	C	0.931808	0.479002	0.383740
C79	C	0.265121	-0.245201	-0.369338
C80	C	0.598455	0.088133	-0.036005
C81	C	0.931788	0.421466	0.297329
C82	C	0.335808	-0.245198	-0.369332
C83	C	0.669142	0.088136	-0.035999
C84	C	1.002475	0.421469	0.297334
C85	C	0.371161	-0.216424	-0.326125
C86	C	0.704494	0.116909	0.007209
C87	C	1.037828	0.450243	0.340542
C88	C	0.447809	-0.216423	-0.326116
C89	C	0.781143	0.116910	0.007218
C90	C	1.114476	0.450244	0.340551
C91	C	0.508901	-0.216424	-0.326112
C92	C	0.842234	0.116909	0.007221
C93	C	1.175568	0.450242	0.340555
C94	C	0.977890	-0.333142	-0.326073
C95	C	1.311223	0.000191	0.007260
C96	C	1.644556	0.333525	0.340593
C97	C	0.977899	-0.383076	-0.326082
C98	C	1.311233	-0.049743	0.007252
C99	C	1.644566	0.283590	0.340585
C100	C	1.021374	-0.692717	-0.282885
C101	C	1.354707	-0.359384	0.050448
C102	C	1.688040	-0.026050	0.383781
C103	C	1.021457	-0.880390	-0.282912
C104	C	1.354791	-0.547057	0.050422
C105	C	1.688124	-0.213723	0.383755
O106	O	1.058324	-0.904652	-0.246159
O107	O	1.391657	-0.571319	0.087175
O108	O	1.724990	-0.237986	0.420508
N109	N	0.978152	-0.903861	-0.326158
N110	N	1.311486	-0.570528	0.007175
N111	N	1.644819	-0.237195	0.340509
C112	C	0.934826	-0.880412	-0.369404
C113	C	1.268160	-0.547078	-0.036071
C114	C	1.601493	-0.213745	0.297262
O115	O	0.898000	-0.904682	-0.406194
O116	O	1.231333	-0.571348	-0.072860
O117	O	1.564666	-0.238015	0.260473
C118	C	0.934747	-0.692740	-0.369381
C119	C	1.268080	-0.359406	-0.036048
C120	C	1.601413	-0.026073	0.297286
C121	C	0.978050	-0.669271	-0.326127
C122	C	1.311383	-0.335937	0.007207
C123	C	1.644716	-0.002604	0.340540
C124	C	1.064674	-0.669248	-0.239635
C125	C	1.398007	-0.335915	0.093698
C126	C	1.731340	-0.002581	0.427031
C127	C	1.064650	-0.622332	-0.239626
C128	C	1.397983	-0.288999	0.093707
C129	C	1.731316	0.044334	0.427040
C130	C	1.021326	-0.598886	-0.282868
C131	C	1.354659	-0.265553	0.050465
C132	C	1.687993	0.067781	0.383799
C133	C	0.978026	-0.622355	-0.326118
C134	C	1.311359	-0.289022	0.007215
C135	C	1.644692	0.044312	0.340549
C136	C	0.891425	-0.669291	-0.412630
C137	C	1.224758	-0.335957	-0.079297
C138	C	1.558091	-0.002624	0.254037
C139	C	0.891410	-0.622370	-0.412621
C140	C	1.224743	-0.289036	-0.079288
C141	C	1.558077	0.044297	0.254045
C142	C	0.934713	-0.598901	-0.369367
C143	C	1.268046	-0.265567	-0.036034
C144	C	1.601380	0.067766	0.297299
C145	C	0.934678	-0.551993	-0.369351
C146	C	1.268011	-0.218660	-0.036017
C147	C	1.601345	0.114673	0.297316
N148	N	0.977983	-0.528522	-0.326104
N149	N	1.311316	-0.195188	0.007229
N150	N	1.644650	0.138145	0.340563
C151	C	1.021307	-0.551968	-0.282863
C152	C	1.354640	-0.218635	0.050471
C153	C	1.687974	0.114698	0.383804
C154	C	0.934870	-0.978942	-0.369412
C155	C	1.268204	-0.645609	-0.036079
C156	C	1.601537	-0.312276	0.297254
C157	C	0.934889	-1.025860	-0.369418
C158	C	1.268223	-0.692527	-0.036084
C159	C	1.601556	-0.359193	0.297249
C160	C	1.021521	-1.025835	-0.282926
C161	C	1.354855	-0.692502	0.050408
C162	C	1.688188	-0.359168	0.383741
C163	C	1.021498	-0.978916	-0.282918
C164	C	1.354832	-0.645583	0.050416
C165	C	1.688165	-0.312250	0.383749
C166	C	0.978175	-0.955471	-0.326166
C167	C	1.311509	-0.622138	0.007167
C168	C	1.644842	-0.288804	0.340501
C169	C	1.021253	-0.453442	-0.282847
C170	C	1.354586	-0.120109	0.050486
C171	C	1.687920	0.213224	0.383819
C172	C	1.021223	-0.406523	-0.282840
C173	C	1.354557	-0.073189	0.050493
C174	C	1.687890	0.260144	0.383826
C175	C	0.934594	-0.406552	-0.369334
C176	C	1.267927	-0.073219	-0.036001
C177	C	1.601261	0.260115	0.297332
C178	C	0.934621	-0.453467	-0.369339
C179	C	1.267954	-0.120134	-0.036006
C180	C	1.601288	0.213199	0.297328
C181	C	0.977956	-0.476911	-0.326093
C182	C	1.311289	-0.143578	0.007240
C183	C	1.644623	0.189755	0.340573
O184	O	0.897836	-0.527702	-0.406090
O185	O	1.231169	-0.194369	-0.072756
O186	O	1.564503	0.138965	0.260577
O187	O	1.058139	-0.527690	-0.246090
O188	O	1.391472	-0.194357	0.087244
O189	O	1.724805	0.138977	0.420577
C190	C	1.021398	-0.739632	-0.282894
C191	C	1.354731	-0.406299	0.050439
C192	C	1.688064	-0.072966	0.383773
C193	C	0.978098	-0.763101	-0.326144
C194	C	1.311431	-0.429768	0.007189
C195	C	1.644764	-0.096435	0.340522
C196	C	0.934774	-0.739655	-0.369386
C197	C	1.268107	-0.406322	-0.036052
C198	C	1.601440	-0.072988	0.297281
C199	C	0.978117	-0.810019	-0.326149
C200	C	1.311450	-0.476686	0.007184
C201	C	1.644783	-0.143353	0.340517
C202	C	1.021440	-0.833466	-0.282908
C203	C	1.354774	-0.500132	0.050425
C204	C	1.688107	-0.166799	0.383759
C205	C	1.064746	-0.809994	-0.239661
C206	C	1.398079	-0.476661	0.093672
C207	C	1.731412	-0.143328	0.427005
C208	C	1.064722	-0.763079	-0.239653
C209	C	1.398055	-0.429745	0.093681
C210	C	1.731388	-0.096412	0.427014
C211	C	0.891469	-0.763126	-0.412632
C212	C	1.224802	-0.429793	-0.079299
C213	C	1.558135	-0.096460	0.254035
C214	C	0.891496	-0.810042	-0.412637
C215	C	1.224829	-0.476709	-0.079303
C216	C	1.558162	-0.143375	0.254030
C217	C	0.934819	-0.833488	-0.369395
C218	C	1.268153	-0.500155	-0.036062
C219	C	1.601486	-0.166822	0.297271
C220	C	1.154555	-0.216428	-0.326129
C221	C	1.487888	0.116905	0.007204
C222	C	1.821221	0.450238	0.340537
C223	C	1.229787	-0.216432	-0.326139
C224	C	1.563120	0.116901	0.007194
C225	C	1.896453	0.450235	0.340528
C226	C	0.978042	-0.216388	-0.502650
C227	C	1.311375	0.116945	-0.169317
C228	C	1.644708	0.450278	0.164017
C229	C	0.978054	-0.216375	-0.577882
C230	C	1.311388	0.116958	-0.244549
C231	C	1.644721	0.450292	0.088785
C232	C	0.978153	-0.099241	-0.326156
C233	C	1.311486	0.234092	0.007178
C234	C	1.644820	0.567426	0.340511
C235	C	0.978213	-0.049307	-0.326176
C236	C	1.311546	0.284027	0.007157
C237	C	1.644880	0.617360	0.340490
C238	C	0.934811	-0.187636	-0.613232
C239	C	1.268144	0.145697	-0.279899
C240	C	1.601477	0.479030	0.053435
C241	C	0.934820	-0.187628	-0.683920
C242	C	1.268153	0.145706	-0.350587
C243	C	1.601487	0.479039	-0.017254
C244	C	0.978077	-0.216355	-0.719258
C245	C	1.311410	0.116978	-0.385924
C246	C	1.644743	0.450311	-0.052591
C247	C	1.021322	-0.245097	-0.683903
C248	C	1.354656	0.088236	-0.350569
C249	C	1.687989	0.421570	-0.017236
C250	C	1.021309	-0.245108	-0.613215
C251	C	1.354642	0.088226	-0.279882
C252	C	1.687976	0.421559	0.053451
C253	C	1.021376	-0.245055	-0.968976
C254	C	1.354709	0.088278	-0.635643
C255	C	1.688043	0.421612	-0.302309
C256	C	1.021387	-0.245041	-1.039668
C257	C	1.354721	0.088292	-0.706335
C258	C	1.688054	0.421625	-0.373001
C259	C	0.934887	-0.187575	-1.039681
C260	C	1.268220	0.145758	-0.706348
C261	C	1.601554	0.479092	-0.373014
C262	C	0.934874	-0.187586	-0.968994
C263	C	1.268207	0.145748	-0.635661
C264	C	1.601540	0.479081	-0.302327
C265	C	0.978116	-0.216329	-0.933645
C266	C	1.311450	0.117005	-0.600312
C267	C	1.644783	0.450338	-0.266978
C268	C	0.978105	-0.216339	-0.856997
C269	C	1.311438	0.116995	-0.523663
C270	C	1.644771	0.450328	-0.190330
C271	C	0.978092	-0.216344	-0.795905
C272	C	1.311426	0.116990	-0.462571
C273	C	1.644759	0.450323	-0.129238
C274	C	0.978021	-0.216418	-0.150251
C275	C	1.311355	0.116915	0.183082
C276	C	1.644688	0.450249	0.516416
C277	C	0.978140	-0.216305	-0.075019
C278	C	1.311473	0.117029	0.258314
C279	C	1.644806	0.450362	0.591647
H280	H	0.364573	-0.268624	-0.404510
H281	H	0.697907	0.064709	-0.071177
H282	H	1.031240	0.398043	0.262156
N283	N	1.111398	-0.694534	-0.192987
N284	N	1.444731	-0.361200	0.140346
N285	N	1.778065	-0.027867	0.473680
H286	H	1.142761	-0.713970	-0.220515
H287	H	1.476094	-0.380636	0.112818
H288	H	1.809428	-0.047303	0.446152
H289	H	1.138776	-0.672513	-0.165599
H290	H	1.472109	-0.339180	0.167734
H291	H	1.805442	-0.005847	0.501067
N292	N	0.227031	-0.156637	-0.236326
N293	N	0.560364	0.176696	0.097008
N294	N	0.893698	0.510030	0.430341
H295	H	0.239361	-0.124546	-0.246927
H296	H	0.572694	0.208787	0.086406
H297	H	0.906028	0.542121	0.419739
H298	H	0.176899	-0.161048	-0.242907
H299	H	0.510233	0.172286	0.090426
H300	H	0.843566	0.505619	0.423759
N301	N	0.887871	-0.381261	-0.415978
N302	N	1.221204	-0.047928	-0.082645
N303	N	1.554538	0.285405	0.250688
H304	H	0.839518	-0.389461	-0.405428
H305	H	1.172852	-0.056128	-0.072095
H306	H	1.506185	0.277206	0.261239
H307	H	0.894489	-0.347986	-0.409390
H308	H	1.227822	-0.014653	-0.076056
H309	H	1.561155	0.318680	0.257277
H310	H	0.899652	-0.164191	-0.940226
H311	H	1.232985	0.169142	-0.606893
H312	H	1.566319	0.502476	-0.273559
N313	N	1.111479	-0.835285	-0.193023
N314	N	1.444813	-0.501951	0.140310
N315	N	1.778146	-0.168618	0.473643
H316	H	1.100998	-0.827151	-0.144650
H317	H	1.434331	-0.493817	0.188684
H318	H	1.767664	-0.160484	0.522017
H319	H	1.104900	-0.868560	-0.199652
H320	H	1.438233	-0.535226	0.133681
H321	H	1.771566	-0.201893	0.467014
N322	N	0.887910	-0.478784	-0.415983
N323	N	1.221243	-0.145450	-0.082649
N324	N	1.554577	0.187883	0.250684
H325	H	0.860459	-0.456809	-0.443372
H326	H	1.193793	-0.123476	-0.110039
H327	H	1.527126	0.209857	0.223294
H328	H	0.915453	-0.498215	-0.447338
H329	H	1.248786	-0.164881	-0.114004
H330	H	1.582119	0.168452	0.219329
H331	H	0.856132	-0.603282	-0.447842
H332	H	1.189465	-0.269949	-0.114508
H333	H	1.522798	0.063384	0.218825
N334	N	1.067938	-0.381212	-0.236192
N335	N	1.401271	-0.047878	0.097142
N336	N	1.734605	0.285455	0.430475
H337	H	1.061352	-0.347931	-0.242744
H338	H	1.394685	-0.014598	0.090589
H339	H	1.728019	0.318736	0.423923
H340	H	1.057441	-0.389442	-0.187843
H341	H	1.390774	-0.056109	0.145490
H342	H	1.724107	0.277225	0.478823
N343	N	0.844780	-0.835348	-0.459290
N344	N	1.178113	-0.502015	-0.125957
N345	N	1.511446	-0.168682	0.207376
H346	H	0.855261	-0.827151	-0.507657
H347	H	1.188595	-0.493817	-0.174324
H348	H	1.521928	-0.160484	0.159010
H349	H	0.851383	-0.868622	-0.452685
H350	H	1.184716	-0.535288	-0.119351
H351	H	1.518050	-0.201955	0.213982
H352	H	1.056760	-0.959811	-0.247697
H353	H	1.390093	-0.626477	0.085636
H354	H	1.723426	-0.293144	0.418970
N355	N	1.068018	-0.276048	-0.930848
N356	N	1.401352	0.057285	-0.597514
N357	N	1.734685	0.390619	-0.264181
H358	H	1.040481	-0.296871	-0.901508
H359	H	1.373814	0.036463	-0.568175
H360	H	1.707147	0.369796	-0.234841
H361	H	1.095419	-0.294215	-0.963998
H362	H	1.428752	0.039119	-0.630665
H363	H	1.762085	0.372452	-0.297332
H364	H	0.899675	-0.164172	-1.068471
H365	H	1.233008	0.169161	-0.735137
H366	H	1.566341	0.502494	-0.401804
H367	H	1.099983	-0.743974	-0.204431
H368	H	1.433316	-0.410640	0.128902
H369	H	1.766650	-0.077307	0.462235
N370	N	1.068039	-0.276029	-1.077789
N371	N	1.401372	0.057304	-0.744455
N372	N	1.734706	0.390638	-0.411122
H373	H	1.116408	-0.269061	-1.065497
H374	H	1.449741	0.064272	-0.732164
H375	H	1.783075	0.397605	-0.398830
H376	H	1.057423	-0.308117	-1.065461
H377	H	1.390756	0.025216	-0.732128
H378	H	1.724089	0.358550	-0.398795
H379	H	1.056539	-0.268490	-0.712680
H380	H	1.389872	0.064843	-0.379346
H381	H	1.723206	0.398177	-0.046013
N382	N	0.226991	-0.276236	-0.415943
N383	N	0.560325	0.057097	-0.082610
N384	N	0.893658	0.390431	0.250723
H385	H	0.176850	-0.271874	-0.409395
H386	H	0.510183	0.061460	-0.076062
H387	H	0.843516	0.394793	0.257271
H388	H	0.239374	-0.269287	-0.464302
H389	H	0.572708	0.064046	-0.130968
H390	H	0.906041	0.397380	0.202365
H391	H	0.364609	-0.164233	-0.247732
H392	H	0.697943	0.169100	0.085602
H393	H	1.031276	0.502434	0.418935
N394	N	0.582753	-0.276224	-0.415906
N395	N	0.916086	0.057110	-0.082573
N396	N	1.249419	0.390443	0.250760
H397	H	0.553455	-0.258000	-0.447333
H398	H	0.886789	0.075334	-0.113999
H399	H	1.220122	0.408667	0.219334
H400	H	0.615908	-0.294442	-0.443222
H401	H	0.949242	0.038892	-0.109889
H402	H	1.282575	0.372225	0.223445
H403	H	1.056527	-0.268506	-0.584434
H404	H	1.389861	0.064827	-0.251101
H405	H	1.723194	0.398160	0.082232
N406	N	0.888176	-1.051166	-0.416068
N407	N	1.221510	-0.717833	-0.082734
N408	N	1.554843	-0.384499	0.250599
H409	H	0.915668	-1.070601	-0.447465
H410	H	1.249001	-0.737267	-0.114131
H411	H	1.582335	-0.403934	0.219202
H412	H	0.856840	-1.070638	-0.388491
H413	H	1.190173	-0.737305	-0.055157
H414	H	1.523507	-0.403971	0.278176
H415	H	0.592133	-0.164225	-0.247723
H416	H	0.925466	0.169108	0.085610
H417	H	1.258800	0.502442	0.418944
N418	N	0.729729	-0.156614	-0.236293
N419	N	1.063063	0.176719	0.097041
N420	N	1.396396	0.510053	0.430374
H421	H	0.696621	-0.138390	-0.208924
H422	H	1.029954	0.194943	0.124409
H423	H	1.363288	0.528276	0.457742
H424	H	0.759031	-0.174870	-0.204916
H425	H	1.092364	0.158463	0.128418
H426	H	1.425698	0.491797	0.461751
H427	H	0.899590	-0.164240	-0.584465
H428	H	1.232923	0.169093	-0.251132
H429	H	1.566256	0.502426	0.082201
N430	N	1.067992	-0.478725	-0.236205
N431	N	1.401325	-0.145391	0.097128
N432	N	1.734658	0.187942	0.430461
H433	H	1.095414	-0.456732	-0.208808
H434	H	1.428748	-0.123399	0.124525
H435	H	1.762081	0.209935	0.457859
H436	H	1.040471	-0.498223	-0.204858
H437	H	1.373805	-0.164890	0.128476
H438	H	1.707138	0.168444	0.461809
N439	N	1.111365	-0.597023	-0.192984
N440	N	1.444699	-0.263689	0.140350
N441	N	1.778032	0.069644	0.473683
H442	H	1.138815	-0.619001	-0.165600
H443	H	1.472148	-0.285668	0.167734
H444	H	1.805481	0.047666	0.501067
H445	H	1.142662	-0.577528	-0.220569
H446	H	1.475995	-0.244194	0.112764
H447	H	1.809328	0.089139	0.446097
H448	H	0.720333	-0.268614	-0.404479
H449	H	1.053667	0.064720	-0.071146
H450	H	1.387000	0.398053	0.262188
H451	H	0.899590	-0.959856	-0.404631
H452	H	1.232923	-0.626523	-0.071298
H453	H	1.566256	-0.293189	0.262035
N454	N	1.068248	-1.051128	-0.236284
N455	N	1.401582	-0.717795	0.097050
N456	N	1.734915	-0.384461	0.430383
H457	H	1.061685	-1.084411	-0.242854
H458	H	1.395019	-0.751077	0.090479
H459	H	1.728352	-0.417744	0.423812
H460	H	1.116578	-1.042893	-0.246867
H461	H	1.449912	-0.709560	0.086467
H462	H	1.783245	-0.376226	0.419800
H463	H	0.856159	-0.688391	-0.447849
H464	H	1.189493	-0.355058	-0.114516
H465	H	1.522826	-0.021724	0.218818
H466	H	0.856190	-0.744040	-0.447845
H467	H	1.189523	-0.410707	-0.114512
H468	H	1.522856	-0.077373	0.218821
H469	H	0.899604	-0.164228	-0.712699
H470	H	1.232938	0.169106	-0.379366
H471	H	1.566271	0.502439	-0.046033
