data_functionalizedCrystal
_audit_creation_method	'MofGen! by Chris Wilmer'
_symmetry_space_group_name_H-M	'P1'
_symmetry_Int_Tables_number	1
_symmetry_cell_setting	triclinic
loop_
_symmetry_equiv_pos_as_xyz
  x,y,z
_cell_length_a	12.759401
_cell_length_b	12.759399
_cell_length_c	12.759393
_cell_angle_alpha	89.973012
_cell_angle_beta	89.979434
_cell_angle_gamma	90.012552
loop_
_atom_site_label
_atom_site_type_symbol
_atom_site_fract_x
_atom_site_fract_y
_atom_site_fract_z
Zn1	Zn	-1.606269	0.418266	0.594035
Zn2	Zn	-1.606161	0.593981	0.418366
Zn3	Zn	-1.430568	0.418311	0.418372
Zn4	Zn	-1.430561	0.593898	0.594004
O5	O	-1.518390	0.506114	0.506194
O6	O	-1.753276	0.441591	0.570743
O7	O	-1.582826	0.570732	0.271346
O8	O	-1.453923	0.271284	0.441689
O9	O	-1.753196	0.570688	0.441680
O10	O	-1.583010	0.271251	0.570748
O11	O	-1.453818	0.441668	0.271350
O12	O	-1.283546	0.441587	0.441659
O13	O	-1.453911	0.570546	0.741030
O14	O	-1.283541	0.570590	0.570696
O15	O	-1.583003	0.441510	0.741052
O16	O	-1.582819	0.740991	0.441650
O17	O	-1.453806	0.740930	0.570691
C18	C	-1.245422	0.506085	0.506175
C19	C	-1.128646	0.506098	0.506192
C20	C	-1.073826	0.438997	0.573498
C21	C	-0.964101	0.439003	0.573503
C22	C	-0.964027	0.573222	0.438894
C23	C	-1.073749	0.573210	0.438884
C24	C	-1.518329	0.779081	0.506189
C25	C	-1.518399	0.895858	0.506222
C26	C	-0.792423	0.506134	0.506210
C27	C	-0.909199	0.506117	0.506207
C28	C	-1.585715	1.060448	0.439148
C29	C	-1.585652	0.950724	0.439109
C30	C	-1.451198	0.950722	0.573372
C31	C	-1.451257	1.060444	0.573405
C32	C	-1.518468	0.506013	0.780228
C33	C	-1.518502	0.505970	0.897005
C34	C	-1.518480	1.232081	0.506238
C35	C	-1.518521	1.115304	0.506295
C36	C	-1.518372	0.506139	0.233227
C37	C	-1.518542	0.505886	0.116451
C38	C	-1.585725	0.438770	0.951880
C39	C	-1.585743	0.438725	1.061604
C40	C	-1.451311	0.573088	1.061568
C41	C	-1.451289	0.573128	0.951846
H42	H	-0.919472	0.384361	0.628309
H43	H	-1.640481	0.384003	1.106279
O44	O	-1.386128	0.638293	1.115005
C45	C	-1.400543	0.623833	1.223616
H46	H	-1.481639	0.589431	1.238619
H47	H	-1.338252	0.567865	1.254751
C48	C	-1.291286	0.772368	1.261508
C49	C	-1.390892	0.730123	1.279935
H50	H	-1.285328	0.837930	1.296250
H51	H	-1.281570	0.782108	1.188335
H52	H	-1.239388	0.725718	1.287454
H53	H	-1.442787	0.776767	1.253978
H54	H	-1.400616	0.720393	1.353106
H55	H	-1.640451	0.384083	0.907232
O56	O	-1.651176	1.113777	0.374113
C57	C	-1.719022	1.177153	0.434018
H58	H	-1.725427	1.144020	0.516762
H59	H	-1.686599	1.260339	0.437624
C60	C	-1.820412	1.219464	0.281179
C61	C	-1.828286	1.178764	0.382805
H62	H	-1.887810	1.220462	0.249587
H63	H	-1.774701	1.176770	0.240819
H64	H	-1.793389	1.288782	0.284198
H65	H	-1.855295	1.109443	0.379783
H66	H	-1.874004	1.221446	0.423164
H67	H	-1.118385	0.627853	0.384069
H68	H	-0.919317	0.627863	0.384095
O69	O	-1.385952	0.638511	0.898695
C70	C	-1.326622	0.697766	0.970625
H71	H	-1.369667	0.701386	1.048846
H72	H	-1.246845	0.659278	0.982285
C73	C	-1.258564	0.805148	0.831708
C74	C	-1.311437	0.809602	0.927778
H75	H	-1.249193	0.874133	0.805278
H76	H	-1.298533	0.765225	0.783246
H77	H	-1.192089	0.773070	0.841438
H78	H	-1.377915	0.841667	0.918045
H79	H	-1.271479	0.849533	0.976237
O80	O	-1.385871	1.113786	0.638488
C81	C	-1.318099	1.177371	0.578631
H82	H	-1.311632	1.144370	0.495870
H83	H	-1.350634	1.260504	0.575061
C84	C	-1.216799	1.219641	0.731513
C85	C	-1.208848	1.179103	0.629867
H86	H	-1.149409	1.220714	0.763119
H87	H	-1.262460	1.176805	0.771841
H88	H	-1.243915	1.288914	0.728524
H89	H	-1.181745	1.109827	0.632859
H90	H	-1.163180	1.221927	0.589541
H91	H	-1.640366	0.906063	0.384430
H92	H	-1.396434	0.906043	0.628013
H93	H	-1.118519	0.384347	0.628302
