data_functionalizedCrystal
_audit_creation_method	'MofGen! by Chris Wilmer'
_symmetry_space_group_name_H-M	'P1'
_symmetry_Int_Tables_number	1
_symmetry_cell_setting	triclinic
loop_
_symmetry_equiv_pos_as_xyz
  x,y,z
_cell_length_a	19.805407
_cell_length_b	13.897447
_cell_length_c	19.805399
_cell_angle_alpha	89.974846
_cell_angle_beta	89.983114
_cell_angle_gamma	90.019530
loop_
_atom_site_label
_atom_site_type_symbol
_atom_site_fract_x
_atom_site_fract_y
_atom_site_fract_z
Zn1	Zn	1.034750	-0.384024	-0.382738
Zn2	Zn	1.534750	0.115976	0.117262
Zn3	Zn	1.034684	-0.545334	-0.269557
Zn4	Zn	1.534684	-0.045334	0.230443
Zn5	Zn	0.921570	-0.384054	-0.269562
Zn6	Zn	1.421570	0.115946	0.230438
Zn7	Zn	0.921542	-0.545279	-0.382704
Zn8	Zn	1.421542	-0.045279	0.117296
O9	O	0.978136	-0.464673	-0.326140
O10	O	1.478136	0.035327	0.173860
O11	O	1.129458	-0.405432	-0.367736
O12	O	1.629458	0.094568	0.132264
O13	O	1.019663	-0.523976	-0.174841
O14	O	1.519663	-0.023976	0.325159
O15	O	0.936623	-0.249069	-0.284592
O16	O	1.436623	0.250931	0.215408
O17	O	1.129409	-0.523946	-0.284583
O18	O	1.629409	-0.023946	0.215417
O19	O	1.019776	-0.249046	-0.367741
O20	O	1.519776	0.250954	0.132259
O21	O	0.936559	-0.405484	-0.174845
O22	O	1.436559	0.094516	0.325155
O23	O	0.826850	-0.405431	-0.284559
O24	O	1.326850	0.094569	0.215441
O25	O	0.936575	-0.523852	-0.477425
O26	O	1.436575	-0.023852	0.022575
O27	O	0.826829	-0.523882	-0.367683
O28	O	1.326829	-0.023882	0.132317
O29	O	1.019749	-0.405379	-0.477450
O30	O	1.519749	0.094621	0.022550
O31	O	1.019636	-0.680308	-0.284550
O32	O	1.519636	-0.180308	0.215450
O33	O	0.936511	-0.680268	-0.367678
O34	O	1.436511	-0.180268	0.132322
C35	C	0.802280	-0.464654	-0.326118
C36	C	1.302280	0.035346	0.173882
C37	C	0.727048	-0.464670	-0.326125
C38	C	1.227048	0.035330	0.173875
C39	C	0.978081	-0.715287	-0.326125
C40	C	1.478081	-0.215287	0.173875
C41	C	0.978120	-0.822501	-0.326140
C42	C	1.478120	-0.322501	0.173860
C43	C	0.691711	-0.526440	-0.369338
C44	C	1.191711	-0.026440	0.130662
C45	C	0.621023	-0.526441	-0.369347
C46	C	1.121023	-0.026441	0.130653
C47	C	0.585673	-0.464677	-0.326140
C48	C	1.085673	0.035323	0.173860
C49	C	0.621015	-0.402900	-0.282925
C50	C	1.121015	0.097100	0.217075
C51	C	0.691702	-0.402894	-0.282920
C52	C	1.191702	0.097106	0.217080
C53	C	0.335942	-0.402921	-0.282948
C54	C	0.835942	0.097079	0.217052
C55	C	0.265250	-0.402934	-0.282955
C56	C	0.765250	0.097066	0.217045
C57	C	0.265262	-0.526469	-0.369375
C58	C	0.765262	-0.026469	0.130625
C59	C	0.335949	-0.526463	-0.369370
C60	C	0.835949	-0.026463	0.130630
C61	C	0.371285	-0.464683	-0.326158
C62	C	0.871285	0.035317	0.173842
C63	C	0.447934	-0.464680	-0.326149
C64	C	0.947934	0.035320	0.173851
C65	C	0.509026	-0.464684	-0.326145
C66	C	1.009026	0.035316	0.173855
C67	C	0.978153	-0.909571	-0.326156
C68	C	1.478153	-0.409571	0.173844
C69	C	0.978200	-1.018803	-0.326173
C70	C	1.478200	-0.518803	0.173827
C71	C	1.154679	-0.464692	-0.326163
C72	C	1.654679	0.035308	0.173837
C73	C	1.229911	-0.464700	-0.326172
C74	C	1.729911	0.035300	0.173828
C75	C	0.978166	-0.464606	-0.502683
C76	C	1.478166	0.035394	-0.002683
C77	C	0.978179	-0.464577	-0.577915
C78	C	1.478179	0.035423	-0.077915
C79	C	0.978210	-0.213080	-0.326171
C80	C	1.478210	0.286920	0.173829
C81	C	0.978242	-0.105866	-0.326184
C82	C	1.478242	0.394134	0.173816
C83	C	0.934919	-0.402873	-0.613261
C84	C	1.434919	0.097127	-0.113261
C85	C	0.934928	-0.402854	-0.683949
C86	C	1.434928	0.097146	-0.183949
C87	C	0.978201	-0.464536	-0.719291
C88	C	1.478201	0.035464	-0.219291
C89	C	1.021463	-0.526247	-0.683940
C90	C	1.521463	-0.026247	-0.183940
C91	C	1.021450	-0.526269	-0.613253
C92	C	1.521450	-0.026269	-0.113253
C93	C	1.021517	-0.526156	-0.969014
C94	C	1.521517	-0.026156	-0.469014
C95	C	1.021528	-0.526127	-1.039706
C96	C	1.521528	-0.026127	-0.539706
C97	C	0.934995	-0.402741	-1.039710
C98	C	1.434995	0.097259	-0.539710
C99	C	0.934982	-0.402764	-0.969023
C100	C	1.434982	0.097236	-0.469023
C101	C	0.978241	-0.464478	-0.933678
C102	C	1.478241	0.035522	-0.433678
C103	C	0.978229	-0.464499	-0.857030
C104	C	1.478229	0.035501	-0.357030
C105	C	0.978217	-0.464510	-0.795938
C106	C	1.478217	0.035490	-0.295938
C107	C	0.978146	-0.464670	-0.150284
C108	C	1.478146	0.035330	0.349716
C109	C	0.978264	-0.464427	-0.075053
C110	C	1.478264	0.035573	0.424947
H111	H	0.720488	-0.576739	-0.404520
H112	H	1.220488	-0.076739	0.095480
H113	H	0.364704	-0.352624	-0.247757
H114	H	0.864704	0.147376	0.252243
C115	C	0.156884	-0.348115	-0.244576
C116	C	0.656884	0.151885	0.255424
C117	C	0.226390	-0.335048	-0.235451
C118	C	0.726390	0.164952	0.264549
H119	H	0.132895	-0.306216	-0.215244
H120	H	0.632895	0.193784	0.284756
H121	H	0.145319	-0.334075	-0.290064
H122	H	0.645319	0.165925	0.209936
H123	H	0.145300	-0.412916	-0.234597
H124	H	0.645300	0.087084	0.265403
H125	H	0.237976	-0.270249	-0.245435
H126	H	0.737976	0.229751	0.254565
H127	H	0.237960	-0.349082	-0.189953
H128	H	0.737960	0.150918	0.310047
C129	C	0.843955	-0.389298	-1.119186
C130	C	1.343955	0.110702	-0.619186
C131	C	0.887433	-0.334912	-1.078560
C132	C	1.387433	0.165088	-0.578560
H133	H	0.814592	-0.347421	-1.143165
H134	H	1.314592	0.152579	-0.643165
H135	H	0.869726	-0.426019	-1.150349
H136	H	1.369726	0.073981	-0.650349
H137	H	0.818052	-0.431327	-1.091591
H138	H	1.318052	0.068673	-0.591591
H139	H	0.913340	-0.292887	-1.106155
H140	H	1.413340	0.207113	-0.606155
H141	H	0.861659	-0.298174	-1.047394
H142	H	1.361659	0.201826	-0.547394
C143	C	0.628108	-0.280782	-0.197503
C144	C	1.128108	0.219218	0.302497
C145	C	0.582161	-0.335005	-0.235431
C146	C	1.082161	0.164995	0.264569
H147	H	0.604121	-0.238863	-0.168183
H148	H	1.104121	0.261137	0.331817
H149	H	0.655660	-0.322758	-0.171561
H150	H	1.155660	0.177242	0.328439
H151	H	0.655697	-0.243939	-0.227043
H152	H	1.155697	0.256061	0.272957
H153	H	0.554575	-0.371853	-0.205890
H154	H	1.054575	0.128147	0.294110
H155	H	0.554597	-0.293024	-0.261375
H156	H	1.054597	0.206976	0.238625
H157	H	1.056734	-0.576418	-0.940245
H158	H	1.556734	-0.076418	-0.440245
H159	H	0.899684	-0.352639	-0.584491
H160	H	1.399684	0.147361	-0.084491
C161	C	0.800057	-0.348028	-0.244541
C162	C	1.300057	0.151972	0.255459
C163	C	0.730549	-0.334995	-0.235419
C164	C	1.230549	0.165005	0.264581
H165	H	0.824037	-0.306101	-0.215219
H166	H	1.324037	0.193899	0.284781
H167	H	0.811623	-0.412810	-0.234552
H168	H	1.311623	0.087190	0.265448
H169	H	0.811653	-0.333994	-0.290037
H170	H	1.311653	0.166006	0.209963
H171	H	0.718952	-0.349036	-0.189924
H172	H	1.218952	0.150964	0.310076
H173	H	0.718979	-0.270198	-0.245403
H174	H	1.218979	0.229802	0.254597
C175	C	0.628135	-0.648580	-0.454751
C176	C	1.128135	-0.148580	0.045249
C177	C	0.582180	-0.594357	-0.416838
C178	C	1.082180	-0.094357	0.083162
H179	H	0.604154	-0.690516	-0.484066
H180	H	1.104154	-0.190516	0.015934
H181	H	0.655719	-0.606606	-0.480698
H182	H	1.155719	-0.106606	0.019302
H183	H	0.655692	-0.685404	-0.425201
H184	H	1.155692	-0.185404	0.074799
H185	H	0.554627	-0.557527	-0.446388
H186	H	1.054627	-0.057527	0.053612
H187	H	0.554585	-0.636336	-0.390889
H188	H	1.054585	-0.136336	0.109111
C189	C	0.849401	-0.280878	-0.676853
C190	C	1.349401	0.219122	-0.176853
C191	C	0.887380	-0.335020	-0.722801
C192	C	1.387380	0.164980	-0.222801
H193	H	0.820049	-0.238995	-0.700840
H194	H	1.320049	0.261005	-0.200840
H195	H	0.823492	-0.322906	-0.649275
H196	H	1.323492	0.177094	-0.149275
H197	H	0.878908	-0.244001	-0.649290
H198	H	1.378908	0.255999	-0.149290
H199	H	0.857873	-0.371903	-0.750361
H200	H	1.357873	0.128097	-0.250361
H201	H	0.913291	-0.292987	-0.750391
H202	H	1.413291	0.207013	-0.250391
H203	H	0.899747	-0.352533	-0.940251
H204	H	1.399747	0.147467	-0.440251
H205	H	1.056682	-0.576508	-0.584475
H206	H	1.556682	-0.076508	-0.084475
H207	H	0.236483	-0.576769	-0.404563
H208	H	0.736483	-0.076769	0.095437
H209	H	1.056694	-0.576473	-0.712721
H210	H	1.556694	-0.076473	-0.212721
C211	C	0.328860	-0.648568	-0.454802
C212	C	0.828860	-0.148568	0.045198
C213	C	0.374805	-0.594352	-0.416867
C214	C	0.874805	-0.094352	0.083133
H215	H	0.352849	-0.690474	-0.484129
H216	H	0.852849	-0.190474	0.015871
H217	H	0.301274	-0.685415	-0.425272
H218	H	0.801274	-0.185415	0.074728
H219	H	0.301305	-0.606580	-0.480743
H220	H	0.801305	-0.106580	0.019257
H221	H	0.402357	-0.636340	-0.390923
H222	H	0.902357	-0.136340	0.109077
H223	H	0.402403	-0.557502	-0.446401
H224	H	0.902403	-0.057502	0.053599
C225	C	1.107057	-0.648118	-1.032605
C226	C	1.607057	-0.148118	-0.532605
C227	C	1.069093	-0.593940	-1.078555
C228	C	1.569093	-0.093940	-0.578555
H229	H	1.136416	-0.689983	-1.056591
H230	H	1.636416	-0.189983	-0.556591
H231	H	1.132958	-0.606112	-1.005044
H232	H	1.632958	-0.106112	-0.505044
H233	H	1.077542	-0.685016	-1.005025
H234	H	1.577542	-0.185016	-0.505025
H235	H	1.098608	-0.557036	-1.106131
H236	H	1.598608	-0.057036	-0.606131
H237	H	1.043189	-0.635951	-1.106127
H238	H	1.543189	-0.135951	-0.606127
