data_functionalizedCrystal
_audit_creation_method	'MofGen! by Chris Wilmer'
_symmetry_space_group_name_H-M	'P1'
_symmetry_Int_Tables_number	1
_symmetry_cell_setting	triclinic
loop_
_symmetry_equiv_pos_as_xyz
  x,y,z
_cell_length_a	10.654554
_cell_length_b	23.532407
_cell_length_c	9.130313
_cell_angle_alpha	89.992831
_cell_angle_beta	89.999635
_cell_angle_gamma	83.667760
loop_
_atom_site_label
_atom_site_type_symbol
_atom_site_fract_x
_atom_site_fract_y
_atom_site_fract_z
O1	O	1.665295	0.079996	-0.121842
O2	O	1.299576	0.087614	-0.121841
O3	O	1.493463	0.000945	-0.121815
O4	O	1.471407	0.166665	-0.121868
O5	O	1.493464	0.000945	0.121784
O6	O	1.299576	0.087614	0.121758
O7	O	1.665295	0.079996	0.121757
Cu8	Cu	1.482436	0.083805	0.144000
Cu9	Cu	1.482435	0.083805	-0.144084
O10	O	1.471407	0.166665	0.121731
C11	C	1.252796	0.087054	-0.000041
C12	C	1.113406	0.085379	-0.000039
C13	C	0.932560	0.031200	-0.000041
C14	C	1.063532	0.032773	-0.000026
C15	C	1.032300	0.136414	-0.000052
C16	C	0.901331	0.134840	-0.000056
C17	C	0.950593	-0.028636	-0.000033
C18	C	1.081565	-0.027063	-0.000018
C19	C	1.492902	-0.020274	-0.000012
C20	C	1.491213	-0.083502	-0.000000
C21	C	1.595360	-0.481926	-0.000081
C22	C	1.593792	-0.541337	-0.000092
O23	O	1.690337	-0.577451	-0.000146
N24	N	1.478525	-0.564715	-0.000091
C25	C	1.364820	-0.528679	-0.000093
O26	O	1.266633	-0.554019	-0.000094
C27	C	1.366390	-0.469269	-0.000092
C28	C	1.481664	-0.445895	-0.000079
C29	C	1.710625	-0.458551	-0.000069
C30	C	1.712193	-0.399145	-0.000055
C31	C	1.598497	-0.363113	-0.000053
C32	C	1.483232	-0.386489	-0.000065
C33	C	1.252687	-0.433235	-0.000105
C34	C	1.254267	-0.373822	-0.000106
C35	C	1.369541	-0.350447	-0.000092
C36	C	1.371104	-0.291051	-0.000049
N37	N	1.486371	-0.267673	-0.000051
C38	C	1.600067	-0.303704	-0.000053
C39	C	1.361532	-0.653443	-0.000097
C40	C	1.359961	-0.712851	-0.000087
C41	C	1.588932	-0.725505	-0.000089
C42	C	1.590502	-0.666095	-0.000088
C43	C	1.476798	-0.630065	-0.000098
C44	C	1.603351	-0.178946	-0.000022
C45	C	1.604909	-0.119534	-0.000002
C46	C	1.375938	-0.106885	-0.000008
C47	C	1.374380	-0.166292	-0.000020
C48	C	1.488096	-0.202322	-0.000032
O49	O	1.274610	-0.254901	-0.000001
O50	O	1.698238	-0.278356	-0.000071
C51	C	1.712075	0.080556	-0.000046
C52	C	1.851465	0.082231	-0.000058
C53	C	1.471969	0.187885	-0.000076
C54	C	1.473657	0.251113	-0.000097
N55	N	1.482445	0.083805	0.346622
N56	N	1.482436	0.083801	-0.346707
C57	C	1.558163	0.118661	0.576626
C58	C	1.558164	0.118665	0.423289
C59	C	1.406710	0.048943	0.423300
C60	C	1.406702	0.048943	0.576635
C61	C	1.645608	0.158913	0.576618
C62	C	1.645610	0.158917	0.423281
H63	H	1.127777	-0.045144	0.105172
H64	H	1.124036	-0.049605	-0.101959
H65	H	1.745109	0.144920	0.381675
O66	O	1.140785	-0.455997	-0.000329
C67	C	1.006078	-0.515669	-0.126627
C68	C	1.132873	-0.489943	-0.126531
H69	H	0.999628	-0.543110	-0.228666
H70	H	0.999565	-0.543211	-0.024761
H71	H	0.925125	-0.479691	-0.126567
H72	H	1.213898	-0.525883	-0.126643
H73	H	1.139275	-0.462386	-0.228389
O74	O	1.699464	-0.760453	-0.000300
C75	C	1.894636	-0.789472	-0.126567
C76	C	1.769530	-0.749851	-0.126493
H77	H	1.951307	-0.780923	-0.228598
H78	H	1.951498	-0.780917	-0.024693
H79	H	1.873674	-0.835942	-0.126505
H80	H	1.790377	-0.703366	-0.126606
H81	H	1.712705	-0.758455	-0.228358
H82	H	1.266093	-0.731877	-0.000073
H83	H	1.684368	-0.647068	-0.000078
H84	H	0.835306	0.176395	-0.000052
H85	H	1.698783	-0.100506	0.000012
H86	H	1.161673	-0.344488	-0.000116
O87	O	1.250956	-0.618526	-0.000021
C88	C	1.023684	-0.612258	-0.000098
C89	C	1.148815	-0.651862	-0.000146
H90	H	0.941071	-0.639194	-0.000230
H91	H	1.018603	-0.584145	0.101875
H92	H	1.018751	-0.584109	-0.102017
H93	H	1.153832	-0.680046	0.101704
H94	H	1.153844	-0.679936	-0.102186
H95	H	1.345026	0.020561	0.639051
H96	H	1.806060	-0.380119	-0.000050
O97	O	1.080684	0.187529	0.000199
C98	C	1.093995	0.276606	0.126330
C99	C	1.039144	0.218732	0.126249
H100	H	1.060411	0.301855	0.228214
H101	H	1.201538	0.269000	0.126433
H102	H	1.060573	0.301827	0.024327
H103	H	1.072471	0.193481	0.228234
H104	H	0.931607	0.226379	0.126068
O105	O	1.262295	-0.188908	-0.000093
C106	C	1.035354	-0.170079	-0.000026
C107	C	1.162200	-0.144398	0.000045
H108	H	0.954393	-0.134106	0.000117
H109	H	1.028814	-0.197543	-0.102012
H110	H	1.028954	-0.197609	0.101879
H111	H	1.168685	-0.116842	-0.101791
H112	H	1.168686	-0.116967	0.102099
O113	O	1.713896	-0.213881	-0.000222
C114	C	1.909097	-0.242878	-0.126452
C115	C	1.783969	-0.203272	-0.126404
H116	H	1.965775	-0.234323	-0.228475
H117	H	1.965938	-0.234313	-0.024569
H118	H	1.888166	-0.289353	-0.126391
H119	H	1.804786	-0.156783	-0.126517
H120	H	1.727165	-0.211886	-0.228278
O121	O	1.332960	0.015146	0.348898
C122	C	1.121909	-0.008007	0.302057
C123	C	1.205280	0.030317	0.386376
H124	H	1.018666	0.004237	0.332350
H125	H	1.134805	-0.002014	0.179277
H126	H	1.150557	-0.054648	0.332200
H127	H	1.176686	0.076973	0.356356
H128	H	1.192374	0.024275	0.509136
O129	O	1.606930	0.212512	0.626009
C130	C	1.536626	0.310189	0.561946
C131	C	1.580382	0.249516	0.505813
H132	H	1.515175	0.340126	0.464797
H133	H	1.447869	0.309265	0.631252
H134	H	1.614537	0.326102	0.631365
H135	H	1.502558	0.233566	0.436334
H136	H	1.669172	0.250475	0.436587
O137	O	0.916261	-0.056476	0.121628
C138	C	0.792895	-0.051022	0.343389
C139	C	0.831650	-0.019432	0.205659
H140	H	0.724503	-0.021082	0.411382
H141	H	0.745103	-0.090004	0.309493
H142	H	0.880476	-0.065359	0.411310
H143	H	0.744134	-0.005056	0.137676
H144	H	0.879488	0.019524	0.239656
H145	H	0.915568	-0.047690	-0.105209
O146	O	1.759213	0.137575	0.633142
C147	C	1.972646	0.097400	0.582279
C148	C	1.844066	0.121565	0.518071
H149	H	2.041276	0.084439	0.489276
H150	H	2.011771	0.131428	0.652492
H151	H	1.960047	0.058405	0.652622
H152	H	1.856558	0.160553	0.447662
H153	H	1.804984	0.087503	0.447941
H154	H	1.803215	-0.487882	-0.000076
H155	H	1.283370	-0.077538	-0.000001
O156	O	1.597032	0.210071	0.366350
C157	C	1.634075	0.290501	0.215212
C158	C	1.689236	0.232573	0.279560
H159	H	1.708604	0.308717	0.145054
H160	H	1.548283	0.284257	0.144835
H161	H	1.604521	0.321436	0.308211
H162	H	1.718865	0.201609	0.186656
H163	H	1.774978	0.238862	0.349976
