data_functionalizedCrystal
_audit_creation_method	'MofGen! by Chris Wilmer'
_symmetry_space_group_name_H-M	'P1'
_symmetry_Int_Tables_number	1
_symmetry_cell_setting	triclinic
loop_
_symmetry_equiv_pos_as_xyz
  x,y,z
_cell_length_a	17.699083
_cell_length_b	10.654550
_cell_length_c	16.776229
_cell_angle_alpha	89.994543
_cell_angle_beta	89.998886
_cell_angle_gamma	83.883959
loop_
_atom_site_label
_atom_site_type_symbol
_atom_site_fract_x
_atom_site_fract_y
_atom_site_fract_z
O1	O	1.005088	0.158809	-0.066174
O2	O	0.784841	0.179470	-0.066200
O3	O	0.900029	-0.013689	-0.066184
O4	O	0.889901	0.351967	-0.066191
O5	O	0.900013	-0.013700	0.066393
O6	O	0.784826	0.179458	0.066376
O7	O	1.005073	0.158797	0.066402
Zn8	Zn	0.894947	0.169126	0.087439
Zn9	Zn	0.894967	0.169141	-0.087237
O10	O	0.889885	0.351955	0.066386
C11	C	0.756632	0.178724	0.000085
C12	C	0.672599	0.176503	0.000075
C13	C	0.899277	-0.060479	0.000103
C14	C	0.897052	-0.199884	0.000100
C15	C	0.624699	0.289883	0.000073
C16	C	0.545743	0.287788	0.000083
C17	C	0.514688	0.172313	0.000090
C18	C	0.562594	0.058924	0.000094
C19	C	0.641549	0.061020	0.000090
C20	C	0.244177	0.050470	0.000114
C21	C	0.165216	0.048383	0.000116
C22	C	0.148371	0.277239	0.000108
C23	C	0.227326	0.279334	0.000103
C24	C	0.275225	0.165946	0.000112
C25	C	0.360839	0.168219	0.000102
C26	C	0.429076	0.170039	0.000094
C27	C	0.964873	-0.280557	0.000111
C28	C	0.962778	-0.411541	0.000105
C29	C	0.825036	-0.381166	0.000082
C30	C	0.827132	-0.250185	0.000082
C31	C	1.034794	-0.230256	0.000129
C32	C	1.102620	-0.310930	0.000141
C33	C	1.100525	-0.441914	0.000135
C34	C	1.030603	-0.492224	0.000118
C35	C	1.033282	0.159543	0.000115
C36	C	1.117314	0.161764	0.000120
C37	C	0.890637	0.398746	0.000097
C38	C	0.892861	0.538151	0.000095
N39	N	0.894938	0.169114	0.206650
N40	N	0.894981	0.169143	-0.206448
C41	C	0.945959	0.083619	0.248374
C42	C	0.945963	0.083618	0.331826
C43	C	0.894950	0.169119	0.373553
C44	C	0.843923	0.254619	0.331822
C45	C	0.843916	0.254613	0.248372
C46	C	0.843951	0.254643	0.668370
C47	C	0.843964	0.254645	0.751826
C48	C	0.945998	0.083648	0.751824
C49	C	0.945991	0.083642	0.668374
C50	C	0.894962	0.169137	0.626651
C51	C	0.894957	0.169135	0.536162
C52	C	0.894958	0.169128	0.464040
H53	H	0.649978	0.383916	0.000067
C54	C	0.296262	-0.072541	-0.000012
C55	C	0.342093	-0.078008	-0.068212
C56	C	0.390092	-0.191306	-0.068352
H57	H	0.266548	-0.141711	-0.000053
H58	H	0.327459	-0.076507	0.046195
H59	H	0.310900	-0.074055	-0.114407
H60	H	0.371823	-0.008865	-0.068186
H61	H	0.421289	-0.195272	-0.022145
H62	H	0.360372	-0.260467	-0.068391
H63	H	0.421199	-0.195025	-0.114621
H64	H	1.159547	-0.269958	0.000135
C65	C	0.753441	-0.162732	-0.000053
C66	C	0.711383	-0.185442	-0.068258
C67	C	0.643490	-0.104915	-0.068409
H68	H	0.764599	-0.077480	-0.000095
H69	H	0.724749	-0.177974	0.046151
H70	H	0.740069	-0.170191	-0.114449
H71	H	0.700205	-0.270679	-0.068231
H72	H	0.614798	-0.120157	-0.022205
H73	H	0.654656	-0.019668	-0.068448
H74	H	0.614943	-0.120321	-0.114680
H75	H	0.680549	-0.031306	0.000091
H76	H	1.036507	-0.123604	0.000137
H77	H	0.802403	0.324258	0.634405
H78	H	0.537303	-0.035099	0.000111
C79	C	0.788620	0.347396	0.377267
C80	C	0.799561	0.329129	0.459280
C81	C	0.748637	0.414588	0.501166
H82	H	0.738005	0.333944	0.363696
H83	H	0.797283	0.431217	0.363625
H84	H	0.790893	0.245328	0.472916
H85	H	0.850166	0.342591	0.472875
H86	H	0.757299	0.498410	0.487525
H87	H	0.698025	0.401130	0.487589
H88	H	0.756058	0.402214	0.556816
H89	H	1.155752	-0.507596	0.000136
C90	C	0.788490	0.347582	0.203212
C91	C	0.743830	0.422487	0.257613
C92	C	0.692767	0.508153	0.216042
H93	H	0.756677	0.302616	0.170663
H94	H	0.815966	0.399870	0.170666
H95	H	0.716357	0.370206	0.290145
H96	H	0.775623	0.467481	0.290163
H97	H	0.720242	0.560441	0.183496
H98	H	0.660959	0.463176	0.183495
H99	H	0.662463	0.558994	0.252947
C100	C	1.001399	-0.009044	0.203012
C101	C	1.048090	0.057703	0.155081
C102	C	1.099161	-0.027634	0.113283
H103	H	0.973951	-0.061265	0.170415
H104	H	1.031830	-0.059977	0.239774
H105	H	1.017663	0.108615	0.118323
H106	H	1.075556	0.109920	0.187657
H107	H	1.129592	-0.078567	0.150045
H108	H	1.071706	-0.079850	0.080691
H109	H	1.130851	0.017642	0.080763
H110	H	1.028903	-0.598881	0.000104
H111	H	0.987533	0.014023	0.634403
H112	H	0.768109	-0.422140	0.000069
C113	C	1.001453	-0.009247	0.376983
C114	C	1.046147	-0.084092	0.322580
C115	C	1.097284	-0.169640	0.364148
H116	H	0.974057	-0.061597	0.409552
H117	H	1.033231	0.035850	0.409509
H118	H	1.014373	-0.129186	0.290068
H119	H	1.073559	-0.031777	0.290010
H120	H	1.129063	-0.124543	0.396674
H121	H	1.069882	-0.221981	0.396715
H122	H	1.127620	-0.220425	0.327242
H123	H	0.987546	0.014030	0.785804
C124	C	0.788484	0.347528	0.796987
C125	C	0.743777	0.422376	0.742588
C126	C	0.692658	0.507935	0.784161
H127	H	0.815893	0.399876	0.829536
H128	H	0.756712	0.302440	0.829533
H129	H	0.775545	0.467460	0.710055
H130	H	0.716352	0.370063	0.710038
H131	H	0.660886	0.462847	0.816707
H132	H	0.720073	0.560274	0.816708
H133	H	0.662314	0.558722	0.747257
H134	H	0.506745	0.380114	0.000081
H135	H	0.252606	0.373366	0.000094
H136	H	0.109361	0.369564	0.000105
H137	H	0.139935	-0.045657	0.000123
