data_functionalizedCrystal
_audit_creation_method	'MofGen! by Chris Wilmer'
_symmetry_space_group_name_H-M	'P1'
_symmetry_Int_Tables_number	1
_symmetry_cell_setting	triclinic
loop_
_symmetry_equiv_pos_as_xyz
  x,y,z
_cell_length_a	29.839131
_cell_length_b	19.121215
_cell_length_c	19.120904
_cell_angle_alpha	90.126793
_cell_angle_beta	87.590850
_cell_angle_gamma	92.474873
loop_
_atom_site_label
_atom_site_type_symbol
_atom_site_fract_x
_atom_site_fract_y
_atom_site_fract_z
Zn1	Zn	-0.162216	1.054798	0.442219
Zn2	Zn	-0.234011	1.059686	0.324975
Zn3	Zn	-0.161948	0.942564	0.319985
Zn4	Zn	-0.240375	0.937492	0.437156
O5	O	-0.199637	0.998635	0.381084
O6	O	-0.169188	1.153555	0.430874
O7	O	-0.221677	1.048318	0.226209
O8	O	-0.099115	0.957530	0.336230
O9	O	-0.221936	1.157146	0.344735
O10	O	-0.099312	1.039987	0.426035
O11	O	-0.168732	0.962269	0.222543
O12	O	-0.174903	0.843783	0.331320
O13	O	-0.232782	0.948884	0.535932
O14	O	-0.232522	0.840056	0.417406
O15	O	-0.175359	1.035068	0.539652
O16	O	-0.297724	1.043399	0.339826
O17	O	-0.302399	0.953624	0.422245
C18	C	-0.204374	0.816481	0.373272
C19	C	-0.206412	0.738554	0.369947
C20	C	-0.219313	0.297906	0.348911
C21	C	-0.217396	0.371127	0.352030
C22	C	-0.189023	0.405867	0.398510
C23	C	-0.162563	0.367382	0.441869
C24	C	-0.164478	0.294163	0.438747
C25	C	-0.181867	0.626849	0.410184
C26	C	-0.179955	0.700074	0.413305
C27	C	-0.234787	0.703814	0.323464
C28	C	-0.236702	0.630593	0.320348
C29	C	-0.210240	0.592114	0.363704
C30	C	-0.187064	0.480710	0.401701
C31	C	-0.212197	0.517272	0.360510
C32	C	-0.316362	0.998510	0.381044
C33	C	-0.366297	0.998519	0.381053
C34	C	-0.673490	1.045460	0.338237
C35	C	-0.861162	1.045545	0.338268
O36	O	-0.883346	1.085356	0.301834
N37	N	-0.887077	0.998778	0.381143
C38	C	-0.866072	0.951989	0.424016
O39	O	-0.892420	0.912218	0.460490
C40	C	-0.678401	0.951908	0.423989
C41	C	-0.652488	0.998673	0.381106
C42	C	-0.647578	1.092222	0.295359
C43	C	-0.600663	1.092197	0.295349
C44	C	-0.579660	1.045411	0.338217
C45	C	-0.605573	0.998649	0.381096
C46	C	-0.657396	0.905123	0.466865
C47	C	-0.610475	0.905108	0.466856
C48	C	-0.584563	0.951873	0.423973
C49	C	-0.537656	0.951838	0.423954
N50	N	-0.511740	0.998605	0.381080
C51	C	-0.532743	1.045391	0.338211
C52	C	-0.964601	0.952034	0.424027
C53	C	-1.011519	0.952054	0.424033
C54	C	-1.006606	1.045611	0.338286
C55	C	-0.959688	1.045587	0.338276
C56	C	-0.938686	0.998801	0.381152
C57	C	-0.434218	1.045336	0.338193
C58	C	-0.387299	1.045306	0.338184
C59	C	-0.392216	0.951752	0.423934
C60	C	-0.439131	0.951779	0.423940
C61	C	-0.460131	0.998577	0.381067
O62	O	-0.515442	0.912053	0.460375
O63	O	-0.506386	1.085167	0.301754
C64	C	-0.720405	1.045484	0.338247
C65	C	-0.746318	0.998722	0.381126
C66	C	-0.725316	0.951936	0.423995
C67	C	-0.793236	0.998741	0.381132
C68	C	-0.814238	1.045528	0.338264
C69	C	-0.788323	1.092295	0.295389
C70	C	-0.741408	1.092270	0.295379
C71	C	-0.751231	0.905168	0.466870
C72	C	-0.798146	0.905196	0.466876
C73	C	-0.819148	0.951983	0.424007
C74	C	-0.082457	0.998779	0.381140
C75	C	-0.032521	0.998840	0.381165
C76	C	-0.204810	0.990865	0.563940
C77	C	-0.207014	0.987554	0.641863
C78	C	-0.194882	1.181500	0.388926
C79	C	-0.192856	1.259427	0.392268
C80	C	-0.194451	1.006415	0.198941
C81	C	-0.192117	1.009862	0.121024
C82	C	-0.178154	1.030868	0.680409
C83	C	-0.180224	1.027748	0.753625
C84	C	-0.211156	0.981318	0.788294
C85	C	-0.240017	0.937999	0.749743
C86	C	-0.237945	0.941116	0.676528
C87	C	-0.218906	0.969660	1.009258
C88	C	-0.220977	0.966548	1.082479
C89	C	-0.161183	1.056296	1.086356
C90	C	-0.159115	1.059412	1.013139
C91	C	-0.187975	1.016091	0.974594
C92	C	-0.213273	0.978130	0.863132
C93	C	-0.185855	1.019276	0.899757
H94	H	-0.259805	0.602313	0.282498
H95	H	-0.261442	0.905838	0.645144
O96	O	-0.125754	1.109495	0.975750
H97	H	-0.091203	1.096918	0.989296
O98	O	-0.246634	0.928052	0.900531
H99	H	-0.281186	0.940626	0.886981
O100	O	-0.263320	0.745317	0.276693
H101	H	-0.286221	0.777340	0.309420
O102	O	-0.254335	0.916456	1.119874
H103	H	-0.277325	0.946382	1.154564
H104	H	-0.938592	1.083668	0.303358
O105	O	-0.359352	1.095757	0.291937
H106	H	-0.323198	1.087883	0.299126
H107	H	-1.032613	0.913966	0.458946
H108	H	-0.137686	1.091565	1.117747
H109	H	-0.947506	0.913934	0.458943
O110	O	-0.156463	0.518183	0.451833
H111	H	-0.166146	0.501801	0.506234
O112	O	-0.685339	0.854687	0.513123
H113	H	-0.662845	0.822163	0.542933
O114	O	-0.149349	0.737548	0.463435
H115	H	-0.131266	0.698491	0.493054
O116	O	-0.249914	0.260444	0.298772
H117	H	-0.274566	0.225745	0.328655
H118	H	-0.160322	0.595528	0.445491
O119	O	-0.826090	0.854746	0.513128
H120	H	-0.862245	0.862613	0.505935
H121	H	-0.734135	0.867070	0.501779
O122	O	-0.131959	0.404846	0.492003
H123	H	-0.135075	0.462225	0.486897
O124	O	-0.144790	1.080950	0.643023
H125	H	-0.163027	1.118019	0.611195
H126	H	-0.160668	1.057076	0.871526
H127	H	-0.238940	0.402455	0.316722
H128	H	-0.593379	0.867010	0.501773
O129	O	-0.456865	1.095804	0.291947
H130	H	-0.430958	1.128307	0.262127
H131	H	-0.805431	1.130388	0.260482
H132	H	-0.156724	1.063020	0.785006
O133	O	-0.135944	0.252654	0.485512
H134	H	-0.115896	0.289109	0.518362
H135	H	-0.235297	0.488984	0.322664
H136	H	-1.023714	1.083706	0.303381
H137	H	-0.579567	1.130279	0.260432
O138	O	-0.250010	0.922902	0.967687
H139	H	-0.271861	0.890085	1.004097
H140	H	-0.375109	0.913657	0.458835
O141	O	-0.670227	1.142684	0.249113
H142	H	-0.644319	1.175188	0.219297
O143	O	-0.467084	0.901340	0.470188
H144	H	-0.444596	0.868805	0.499998
H145	H	-0.265202	0.900192	0.777976
H146	H	-0.720313	1.130351	0.260460
