data_functionalizedCrystal
_audit_creation_method	'MofGen! by Chris Wilmer'
_symmetry_space_group_name_H-M	'P1'
_symmetry_Int_Tables_number	1
_symmetry_cell_setting	triclinic
loop_
_symmetry_equiv_pos_as_xyz
  x,y,z
_cell_length_a	18.050589
_cell_length_b	18.050591
_cell_length_c	17.077396
_cell_angle_alpha	89.971318
_cell_angle_beta	90.024642
_cell_angle_gamma	89.978696
loop_
_atom_site_label
_atom_site_type_symbol
_atom_site_fract_x
_atom_site_fract_y
_atom_site_fract_z
Zn1	Zn	-0.295796	-1.135327	0.444056
Zn2	Zn	0.204204	-0.635327	0.944056
Zn3	Zn	-0.419994	-1.135227	0.312799
Zn4	Zn	0.080006	-0.635227	0.812799
Zn5	Zn	-0.295807	-1.011136	0.312783
Zn6	Zn	0.204193	-0.511136	0.812783
Zn7	Zn	-0.419934	-1.011094	0.444001
Zn8	Zn	0.080066	-0.511094	0.944001
O9	O	-0.357883	-1.073196	0.378410
O10	O	0.142117	-0.573196	0.878410
O11	O	-0.312292	-1.239238	0.426674
O12	O	0.187708	-0.739238	0.926674
O13	O	-0.403549	-1.118742	0.202950
O14	O	0.096451	-0.618742	0.702950
O15	O	-0.191881	-1.027669	0.330213
O16	O	0.308119	-0.527669	0.830213
O17	O	-0.403539	-1.239165	0.330240
O18	O	0.096461	-0.739165	0.830240
O19	O	-0.191873	-1.118912	0.426658
O20	O	0.308127	-0.618912	0.926658
O21	O	-0.312310	-1.027573	0.202938
O22	O	0.187690	-0.527573	0.702938
O23	O	-0.312252	-0.907206	0.330160
O24	O	0.187748	-0.407206	0.830160
O25	O	-0.403438	-1.027598	0.553855
O26	O	0.096562	-0.527598	1.053855
O27	O	-0.403448	-0.907175	0.426565
O28	O	0.096552	-0.407175	0.926565
O29	O	-0.312234	-1.118871	0.553896
O30	O	0.187766	-0.618871	1.053896
O31	O	-0.523910	-1.118702	0.330187
O32	O	-0.023910	-0.618702	0.830187
O33	O	-0.523867	-1.027502	0.426581
O34	O	-0.023867	-0.527502	0.926581
C35	C	-0.357845	-0.880244	0.378355
C36	C	0.142155	-0.380244	0.878355
C37	C	-0.357847	-0.797698	0.378351
C38	C	0.142153	-0.297698	0.878351
C39	C	-0.308187	-0.598243	0.326035
C40	C	0.191813	-0.098243	0.826035
C41	C	-0.375923	-0.548822	0.306720
C42	C	0.124077	-0.048822	0.806720
C43	C	-0.357862	-0.646568	0.378378
C44	C	0.142138	-0.146568	0.878378
C45	C	-0.290143	-0.548907	0.397682
C46	C	0.209857	-0.048907	0.897682
C47	C	-0.357870	-0.500583	0.378402
C48	C	0.142130	-0.000583	0.878402
C49	C	-0.425633	-0.598234	0.359025
C50	C	0.074367	-0.098234	0.859025
C51	C	-0.339807	-0.598324	0.450021
C52	C	0.160193	-0.098324	0.950021
C53	C	-0.407589	-0.548925	0.430733
C54	C	0.092411	-0.048925	0.930733
C55	C	-0.357856	-0.730666	0.378361
C56	C	0.142144	-0.230666	0.878361
C57	C	-0.357884	-0.416486	0.378418
C58	C	0.142116	0.083514	0.878418
C59	C	-0.550835	-1.073106	0.378397
C60	C	-0.050835	-0.573106	0.878397
C61	C	-0.633381	-1.073136	0.378417
C62	C	-0.133381	-0.573136	0.878417
C63	C	-0.832835	-1.023590	0.430818
C64	C	-0.332835	-0.523590	0.930818
C65	C	-0.882274	-1.005487	0.359186
C66	C	-0.382274	-0.505487	0.859186
C67	C	-0.784511	-1.073209	0.378428
C68	C	-0.284511	-0.573209	0.878428
C69	C	-0.882153	-1.091349	0.450068
C70	C	-0.382153	-0.591349	0.950068
C71	C	-0.930496	-1.073278	0.378444
C72	C	-0.430496	-0.573278	0.878444
C73	C	-0.832863	-1.055070	0.306757
C74	C	-0.332863	-0.555070	0.806757
C75	C	-0.832738	-1.140964	0.397688
C76	C	-0.332738	-0.640964	0.897688
C77	C	-0.882155	-1.122886	0.326006
C78	C	-0.382155	-0.622886	0.826006
C79	C	-0.700413	-1.073167	0.378419
C80	C	-0.200413	-0.573167	0.878419
C81	C	-1.014593	-1.073320	0.378444
C82	C	-0.514593	-0.573320	0.878444
C83	C	-0.164177	-1.073306	0.378440
C84	C	0.335823	-0.573306	0.878440
C85	C	-0.081631	-1.073353	0.378453
C86	C	0.418369	-0.573353	0.878453
C87	C	-0.357828	-1.073241	0.583154
C88	C	0.142172	-0.573241	1.083154
C89	C	-0.357805	-1.073260	0.670404
C90	C	0.142195	-0.573260	1.170404
C91	C	-0.357908	-0.266902	0.378450
C92	C	0.142092	0.233098	0.878450
C93	C	-0.357886	-0.349447	0.378431
C94	C	0.142114	0.150553	0.878431
C95	C	-0.357884	-1.073194	0.174462
C96	C	0.142116	-0.573194	0.674462
C97	C	-0.357698	-1.073319	0.087212
C98	C	0.142302	-0.573319	0.587212
C99	C	-0.310311	-1.120788	0.711416
C100	C	0.189689	-0.620788	1.211416
C101	C	-0.310286	-1.120797	0.793397
C102	C	0.189714	-0.620797	1.293397
C103	C	-0.357760	-1.073281	0.834363
C104	C	0.142240	-0.573281	1.334363
C105	C	-0.405255	-1.025748	0.793345
C106	C	0.094745	-0.525748	1.293345
C107	C	-0.405276	-1.025736	0.711366
C108	C	0.094724	-0.525736	1.211366
C109	C	-0.405211	-1.025778	0.964215
C110	C	0.094789	-0.525778	1.464215
C111	C	-0.405191	-1.025791	1.046200
C112	C	0.094809	-0.525791	1.546200
C113	C	-0.310221	-1.120839	1.046246
C114	C	0.189779	-0.620839	1.546246
C115	C	-0.310242	-1.120827	0.964267
C116	C	0.189758	-0.620827	1.464267
C117	C	-0.357739	-1.073295	0.923254
C118	C	0.142261	-0.573295	1.423254
H119	H	-0.266227	-0.619897	0.281726
H120	H	0.233773	-0.119897	0.781726
H121	H	-0.811178	-0.981567	0.475060
H122	H	-0.311178	-0.481567	0.975060
Br123	Br	-0.245885	-1.185283	0.655826
Br124	Br	0.254115	-0.685283	1.155826
H125	H	-0.904049	-0.948221	0.342910
H126	H	-0.404049	-0.448221	0.842910
Br127	Br	-0.796932	-1.029437	0.205758
Br128	Br	-0.296932	-0.529437	0.705758
Br129	Br	-0.469613	-0.961298	1.101798
Br130	Br	0.030387	-0.461298	1.601798
H131	H	-0.271614	-1.159500	0.826785
H132	H	0.228386	-0.659500	1.326785
Br133	Br	-0.469669	-0.961267	0.908556
Br134	Br	0.030331	-0.461267	1.408556
Br135	Br	-0.918023	-1.192877	0.252093
Br136	Br	-0.418023	-0.692877	0.752093
Br137	Br	-0.401392	-0.512581	0.205756
Br138	Br	0.098608	-0.012581	0.705756
Br139	Br	-0.796446	-1.236390	0.424871
Br140	Br	-0.296446	-0.736390	0.924871
H141	H	-0.903805	-1.106664	0.510647
H142	H	-0.403805	-0.606664	1.010647
Br143	Br	-0.469680	-0.961257	0.848942
Br144	Br	0.030320	-0.461257	1.348942
Br145	Br	-0.245820	-1.185319	0.908669
Br146	Br	0.254180	-0.685319	1.408669
H147	H	-0.482923	-0.619811	0.342641
H148	H	0.017077	-0.119811	0.842641
Br149	Br	-0.245764	-1.185350	1.101904
Br150	Br	0.254236	-0.685350	1.601904
Br151	Br	-0.469729	-0.961227	0.655705
Br152	Br	0.030271	-0.461227	1.155705
H153	H	-0.324507	-0.620084	0.510580
H154	H	0.175493	-0.120084	1.010580
Br155	Br	-0.194687	-0.512784	0.424877
Br156	Br	0.305313	-0.012784	0.924877
Br157	Br	-0.477688	-0.513057	0.504531
Br158	Br	0.022312	-0.013057	1.004531
