data_functionalizedCrystal
_audit_creation_method	'MofGen! by Chris Wilmer'
_symmetry_space_group_name_H-M	'P1'
_symmetry_Int_Tables_number	1
_symmetry_cell_setting	triclinic
loop_
_symmetry_equiv_pos_as_xyz
  x,y,z
_cell_length_a	12.645330
_cell_length_b	16.120530
_cell_length_c	12.645323
_cell_angle_alpha	87.080466
_cell_angle_beta	89.975130
_cell_angle_gamma	87.113442
loop_
_atom_site_label
_atom_site_type_symbol
_atom_site_fract_x
_atom_site_fract_y
_atom_site_fract_z
Zn1	Zn	-0.504324	1.274613	-0.681531
Zn2	Zn	-0.170990	1.607946	-0.348198
Zn3	Zn	0.162343	1.941279	-0.014864
Zn4	Zn	-0.681606	1.274520	-0.504265
Zn5	Zn	-0.348272	1.607853	-0.170932
Zn6	Zn	-0.014939	1.941186	0.162402
Zn7	Zn	-0.495361	1.135188	-0.495296
Zn8	Zn	-0.162028	1.468521	-0.161963
Zn9	Zn	0.171306	1.801854	0.171370
Zn10	Zn	-0.672543	1.135173	-0.672507
Zn11	Zn	-0.339210	1.468507	-0.339173
Zn12	Zn	-0.005876	1.801840	-0.005840
O13	O	-0.588458	1.204873	-0.588400
O14	O	-0.255125	1.538207	-0.255067
O15	O	0.078208	1.871540	0.078267
O16	O	-0.535384	1.391267	-0.665546
O17	O	-0.202051	1.724600	-0.332213
O18	O	0.131282	2.057934	0.001120
O19	O	-0.656942	1.256004	-0.354726
O20	O	-0.323608	1.589337	-0.021393
O21	O	0.009725	1.922671	0.311941
O22	O	-0.348206	1.153728	-0.520024
O23	O	-0.014872	1.487061	-0.186691
O24	O	0.318461	1.820394	0.146642
O25	O	-0.665632	1.391199	-0.535310
O26	O	-0.332299	1.724532	-0.201977
O27	O	0.001034	2.057865	0.131357
O28	O	-0.354790	1.256163	-0.656850
O29	O	-0.021457	1.589496	-0.323517
O30	O	0.311876	1.922829	0.009817
O31	O	-0.520109	1.153638	-0.348137
O32	O	-0.186775	1.486971	-0.014803
O33	O	0.146558	1.820304	0.318530
O34	O	-0.511321	1.018519	-0.511274
O35	O	-0.177988	1.351853	-0.177940
O36	O	0.155346	1.685186	0.155393
O37	O	-0.650186	1.153703	-0.822053
O38	O	-0.316853	1.487037	-0.488720
O39	O	0.016480	1.820370	-0.155387
O40	O	-0.641496	1.018509	-0.641469
O41	O	-0.308162	1.351842	-0.308136
O42	O	0.025171	1.685175	0.025197
O43	O	-0.526596	1.256149	-0.828683
O44	O	-0.193263	1.589482	-0.495350
O45	O	0.140070	1.922815	-0.162017
O46	O	-0.828748	1.255990	-0.526559
O47	O	-0.495414	1.589323	-0.193226
O48	O	-0.162081	1.922657	0.140107
O49	O	-0.822089	1.153613	-0.650166
O50	O	-0.488756	1.486946	-0.316832
O51	O	-0.155423	1.820280	0.016501
C52	C	-0.574453	0.988264	-0.574420
C53	C	-0.241120	1.321597	-0.241086
C54	C	0.092214	1.654930	0.092247
C55	C	-0.568487	0.895597	-0.568464
C56	C	-0.235154	1.228930	-0.235131
C57	C	0.098180	1.562264	0.098203
C58	C	-0.557570	0.725934	-0.557600
C59	C	-0.224237	1.059267	-0.224266
C60	C	0.109097	1.392601	0.109067
C61	C	-0.619425	0.684653	-0.619278
C62	C	-0.286091	1.017986	-0.285944
C63	C	0.047242	1.351320	0.047389
C64	C	-0.613350	0.590247	-0.613233
C65	C	-0.280017	0.923580	-0.279899
C66	C	0.053316	1.256914	0.053434
C67	C	-0.563643	0.820349	-0.563643
C68	C	-0.230310	1.153682	-0.230310
C69	C	0.103024	1.487016	0.103024
C70	C	-0.863884	1.204813	-0.588381
C71	C	-0.530551	1.538146	-0.255048
C72	C	-0.197217	1.871479	0.078286
C73	C	-0.981717	1.204863	-0.588413
C74	C	-0.648384	1.538196	-0.255080
C75	C	-0.315051	1.871529	0.078253
C76	C	-1.145154	1.140723	-0.666444
C77	C	-0.811821	1.474056	-0.333111
C78	C	-0.478487	1.807390	0.000223
C79	C	-1.022573	1.140395	-0.666159
C80	C	-0.689240	1.473728	-0.332825
C81	C	-0.355907	1.807062	0.000508
C82	C	-1.024776	1.181077	-0.475160
C83	C	-0.691442	1.514410	-0.141826
C84	C	-0.358109	1.847743	0.191507
C85	C	-1.147349	1.180685	-0.475633
C86	C	-0.814016	1.514018	-0.142300
C87	C	-0.480682	1.847352	0.191034
C88	C	-1.154509	1.293181	-0.622756
C89	C	-0.821175	1.626514	-0.289423
C90	C	-0.487842	1.959848	0.043911
C91	C	-1.031867	1.292640	-0.625164
C92	C	-0.698534	1.625973	-0.291831
C93	C	-0.365200	1.959307	0.041503
C94	C	-0.311958	1.204957	-0.588443
C95	C	0.021375	1.538290	-0.255110
C96	C	0.354708	1.871624	0.078223
C97	C	-0.194131	1.204993	-0.588462
C98	C	0.139203	1.538326	-0.255129
C99	C	0.472536	1.871660	0.078205
C100	C	-0.588380	1.204935	-0.864909
C101	C	-0.255047	1.538268	-0.531576
C102	C	0.078286	1.871601	-0.198243
C103	C	-0.588347	1.204961	-0.982741
C104	C	-0.255014	1.538294	-0.649408
C105	C	0.078320	1.871628	-0.316074
C106	C	-0.602519	1.422329	-0.602435
C107	C	-0.269186	1.755662	-0.269102
C108	C	0.064148	2.088996	0.064231
C109	C	-0.608511	1.514996	-0.608416
C110	C	-0.275178	1.848329	-0.275083
C111	C	0.058156	2.181662	0.058250
C112	C	-0.665699	1.140314	-1.146121
C113	C	-0.332365	1.473647	-0.812788
C114	C	0.000968	1.806980	-0.479455
C115	C	-0.666113	1.140483	-1.023572
C116	C	-0.332780	1.473816	-0.690239
C117	C	0.000553	1.807150	-0.356906
C118	C	-0.624337	1.292806	-1.032918
C119	C	-0.291004	1.626140	-0.699585
C120	C	0.042330	1.959473	-0.366251
C121	C	-0.624825	1.292452	-1.155494
C122	C	-0.291492	1.625785	-0.822160
C123	C	0.041841	1.959118	-0.488827
C124	C	-0.474603	1.182593	-1.148498
C125	C	-0.141270	1.515927	-0.815165
C126	C	0.192063	1.849260	-0.481832
C127	C	-0.475149	1.180634	-1.025766
C128	C	-0.141816	1.513967	-0.692432
C129	C	0.191517	1.847300	-0.359099
C130	C	-0.588463	1.204860	-0.312969
C131	C	-0.255129	1.538194	0.020364
C132	C	0.078204	1.871527	0.353697
C133	C	-0.588208	1.204996	-0.195148
C134	C	-0.254874	1.538329	0.138185
C135	C	0.078459	1.871662	0.471518
H136	H	-0.500058	0.690377	-0.500259
H137	H	-0.166725	1.023710	-0.166926
H138	H	0.166609	1.357043	0.166407
Cl139	Cl	-0.753304	1.321766	-1.201559
Cl140	Cl	-0.419970	1.655099	-0.868226
Cl141	Cl	-0.086637	1.988433	-0.534892
Cl142	Cl	-0.984279	1.251055	-0.382612
Cl143	Cl	-0.650946	1.584388	-0.049279
Cl144	Cl	-0.317612	1.917722	0.284054
Cl145	Cl	-0.977496	1.163368	-0.795539
Cl146	Cl	-0.644163	1.496701	-0.462206
Cl147	Cl	-0.310829	1.830034	-0.128873
H148	H	-0.750216	1.155272	-0.995211
H149	H	-0.416882	1.488605	-0.661877
H150	H	-0.083549	1.821938	-0.328544
Cl151	Cl	-0.708221	0.739551	-0.707821
Cl152	Cl	-0.374888	1.072884	-0.374487
Cl153	Cl	-0.041554	1.406218	-0.041154
Cl154	Cl	-0.380592	1.248065	-0.982849
Cl155	Cl	-0.047258	1.581398	-0.649516
Cl156	Cl	0.286075	1.914731	-0.316183
Cl157	Cl	-1.192037	1.163482	-0.796234
Cl158	Cl	-0.858703	1.496816	-0.462901
Cl159	Cl	-0.525370	1.830149	-0.129567
Cl160	Cl	-1.186408	1.040416	-0.631113
Cl161	Cl	-0.853075	1.373749	-0.297779
Cl162	Cl	-0.519741	1.707083	0.035554
Cl163	Cl	-0.970912	1.039454	-0.630393
Cl164	Cl	-0.637579	1.372787	-0.297060
Cl165	Cl	-0.304245	1.706121	0.036273
H166	H	-0.416800	1.229704	-1.180546
H167	H	-0.083466	1.563038	-0.847213
H168	H	0.249867	1.896371	-0.513879
Cl169	Cl	-0.988651	1.320339	-0.753892
Cl170	Cl	-0.655317	1.653672	-0.420559
Cl171	Cl	-0.321984	1.987006	-0.087225
H172	H	-0.442903	1.119652	-1.175349
H173	H	-0.109570	1.452985	-0.842016
H174	H	0.223764	1.786319	-0.508682
H175	H	-1.171878	1.116219	-0.447241
H176	H	-0.838545	1.449552	-0.113908
H177	H	-0.505211	1.782885	0.219426
Cl178	Cl	-0.989564	1.370468	-0.544562
Cl179	Cl	-0.656231	1.703801	-0.211229
Cl180	Cl	-0.322897	2.037135	0.122105
Cl181	Cl	-0.971165	1.082580	-0.430713
Cl182	Cl	-0.637831	1.415914	-0.097380
Cl183	Cl	-0.304498	1.749247	0.235954
H184	H	-1.179897	1.225465	-0.415244
H185	H	-0.846564	1.558798	-0.081911
H186	H	-0.513231	1.892132	0.251423
Cl187	Cl	-1.204059	1.367113	-0.535190
Cl188	Cl	-0.870725	1.700446	-0.201857
Cl189	Cl	-0.537392	2.033779	0.131476
H190	H	-0.749272	1.154958	-1.177883
H191	H	-0.415939	1.488292	-0.844550
H192	H	-0.082606	1.821625	-0.511217
Cl193	Cl	-1.204289	1.326681	-0.748557
Cl194	Cl	-0.870956	1.660015	-0.415223
Cl195	Cl	-0.537622	1.993348	-0.081890
H196	H	-0.642935	1.075343	-0.989275
H197	H	-0.309602	1.408676	-0.655942
H198	H	0.023732	1.742009	-0.322609
H199	H	-0.642691	1.074980	-1.171387
H200	H	-0.309357	1.408314	-0.838054
H201	H	0.023976	1.741647	-0.504721
H202	H	-0.571142	1.342279	-1.188381
H203	H	-0.237809	1.675612	-0.855048
H204	H	0.095524	2.008945	-0.521714
H205	H	-0.569931	1.342291	-1.006970
H206	H	-0.236598	1.675625	-0.673636
H207	H	0.096736	2.008958	-0.340303
Cl208	Cl	-0.751522	1.322629	-0.987462
Cl209	Cl	-0.418189	1.655962	-0.654129
Cl210	Cl	-0.084856	1.989295	-0.320796
Cl211	Cl	-0.433406	1.080819	-0.974425
Cl212	Cl	-0.100073	1.414152	-0.641092
Cl213	Cl	0.233261	1.747486	-0.307758
