data_functionalizedCrystal
_audit_creation_method	'MofGen! by Chris Wilmer'
_symmetry_space_group_name_H-M	'P1'
_symmetry_Int_Tables_number	1
_symmetry_cell_setting	triclinic
loop_
_symmetry_equiv_pos_as_xyz
  x,y,z
_cell_length_a	10.654550
_cell_length_b	6.394989
_cell_length_c	9.130313
_cell_angle_alpha	90.001550
_cell_angle_beta	89.999724
_cell_angle_gamma	94.508679
loop_
_atom_site_label
_atom_site_type_symbol
_atom_site_fract_x
_atom_site_fract_y
_atom_site_fract_z
O1	O	1.670947	-0.293442	-0.121679
O2	O	1.305765	-0.321399	-0.121705
O3	O	1.493540	-0.003431	-0.121693
O4	O	1.483173	-0.611409	-0.121692
O5	O	1.493526	-0.003422	0.121906
O6	O	1.305752	-0.321389	0.121893
O7	O	1.670934	-0.293432	0.121919
Cu8	Cu	1.488342	-0.307410	0.144149
Cu9	Cu	1.488357	-0.307421	-0.143935
O10	O	1.483159	-0.611400	0.121907
C11	C	1.258939	-0.319341	0.000091
C12	C	1.119430	-0.313200	0.000080
C13	C	1.041927	-0.500414	0.000085
C14	C	0.910845	-0.494631	0.000110
C15	C	0.934782	-0.114403	0.000121
C16	C	1.065861	-0.120188	0.000106
C17	C	1.717760	-0.295490	0.000120
C18	C	1.857269	-0.301631	0.000121
C19	C	1.491483	0.074425	0.000101
C20	C	1.485219	0.310750	0.000099
N21	N	1.488340	-0.307401	0.346772
N22	N	1.488369	-0.307414	-0.346558
C23	C	1.571516	-0.166665	0.423429
C24	C	1.571528	-0.166665	0.576766
C25	C	1.405184	-0.448157	0.576774
C26	C	1.405167	-0.448145	0.423440
H27	H	1.085539	-0.657577	0.000075
O28	O	0.835614	-0.676549	-0.000151
C29	C	0.860375	-0.793630	-0.126306
H30	H	0.903399	-0.683974	-0.214486
H31	H	0.929006	-0.915524	-0.097801
C32	C	0.683754	-1.039669	-0.075195
C33	C	0.736587	-0.904985	-0.183504
H34	H	0.607398	-1.108367	-0.110476
H35	H	0.667074	-0.960795	0.009801
H36	H	0.740959	-1.141229	-0.051451
H37	H	0.679390	-0.803413	-0.207233
H38	H	0.753255	-0.983845	-0.268506
O39	O	1.324223	-0.584663	0.651192
C40	C	1.199345	-0.548797	0.613722
H41	H	1.196089	-0.381511	0.571579
H42	H	1.164265	-0.664023	0.524720
C43	C	1.118719	-0.785405	0.801709
C44	C	1.114718	-0.579936	0.749960
H45	H	1.066514	-0.804622	0.885744
H46	H	1.202851	-0.809576	0.826950
H47	H	1.089488	-0.881404	0.727528
H48	H	1.143963	-0.483943	0.824134
H49	H	1.030588	-0.555750	0.724734
O50	O	1.141339	0.061487	0.000160
C51	C	1.268518	0.014987	0.000109
H52	H	1.276133	-0.149189	0.046224
H53	H	1.306274	0.022350	-0.116762
C54	C	1.336801	0.377661	0.038994
C55	C	1.346155	0.176025	0.095645
H56	H	1.384694	0.477001	0.097919
H57	H	1.251118	0.408993	0.039023
H58	H	1.368263	0.383768	-0.058397
H59	H	1.314679	0.169914	0.193027
H60	H	1.431835	0.144696	0.095635
O61	O	1.652343	-0.029739	0.349178
C62	C	1.725778	0.094444	0.449727
H63	H	1.674253	0.097588	0.559037
H64	H	1.820160	0.025162	0.466016
C65	C	1.811383	0.315574	0.255642
C66	C	1.748095	0.319450	0.389895
H67	H	1.825156	0.454366	0.218734
H68	H	1.761913	0.231906	0.187899
H69	H	1.890028	0.257829	0.269235
H70	H	1.669446	0.377169	0.376297
H71	H	1.797553	0.403134	0.457634
H72	H	0.891149	0.042741	0.000150
H73	H	1.639256	-0.052063	0.639176
H74	H	1.337429	-0.562750	0.361022
