data_functionalizedCrystal
_audit_creation_method	'MofGen! by Chris Wilmer'
_symmetry_space_group_name_H-M	'P1'
_symmetry_Int_Tables_number	1
_symmetry_cell_setting	triclinic
loop_
_symmetry_equiv_pos_as_xyz
  x,y,z
_cell_length_a	10.654541
_cell_length_b	23.532407
_cell_length_c	9.130307
_cell_angle_alpha	89.992076
_cell_angle_beta	89.999822
_cell_angle_gamma	83.666303
loop_
_atom_site_label
_atom_site_type_symbol
_atom_site_fract_x
_atom_site_fract_y
_atom_site_fract_z
O1	O	1.665305	0.079977	-0.121771
O2	O	1.299584	0.087599	-0.121786
O3	O	1.493473	0.000928	-0.121751
O4	O	1.471416	0.166648	-0.121806
O5	O	1.493467	0.000928	0.121848
O6	O	1.299578	0.087598	0.121813
O7	O	1.665299	0.079977	0.121828
Cu8	Cu	1.482438	0.083787	0.144063
Cu9	Cu	1.482445	0.083788	-0.144021
O10	O	1.471410	0.166647	0.121793
C11	C	1.252801	0.087039	0.000012
C12	C	1.113410	0.085366	0.000008
C13	C	1.082156	0.189004	-0.000044
C14	C	1.001045	0.240035	-0.000076
C15	C	0.870077	0.238459	-0.000077
C16	C	0.820218	0.185847	-0.000042
C17	C	0.901329	0.134816	-0.000010
C18	C	1.032299	0.136398	-0.000013
C19	C	0.932583	0.031179	0.000053
C20	C	1.063552	0.032754	0.000043
C21	C	0.882725	-0.021433	0.000088
C22	C	0.963837	-0.072465	0.000110
C23	C	1.094812	-0.070887	0.000109
C24	C	1.144663	-0.018277	0.000075
C25	C	1.492908	-0.020292	0.000052
C26	C	1.491219	-0.083520	0.000063
C27	C	1.595367	-0.481945	-0.000013
C28	C	1.593798	-0.541355	-0.000024
O29	O	1.690344	-0.577471	-0.000074
N30	N	1.478531	-0.564732	-0.000028
C31	C	1.364826	-0.528695	-0.000035
O32	O	1.266639	-0.554034	-0.000040
C33	C	1.366396	-0.469285	-0.000034
C34	C	1.481670	-0.445912	-0.000016
C35	C	1.710632	-0.458571	0.000004
C36	C	1.712200	-0.399164	0.000018
C37	C	1.598503	-0.363132	0.000015
C38	C	1.483238	-0.386506	-0.000002
C39	C	1.252692	-0.433249	-0.000052
C40	C	1.254272	-0.373836	-0.000052
C41	C	1.369546	-0.350463	-0.000034
C42	C	1.371110	-0.291067	0.000009
N43	N	1.486377	-0.267690	0.000013
C44	C	1.600073	-0.303723	0.000016
C45	C	1.361537	-0.653459	-0.000039
C46	C	1.359966	-0.712867	-0.000029
C47	C	1.588939	-0.725523	-0.000021
C48	C	1.590509	-0.666114	-0.000020
C49	C	1.476804	-0.630082	-0.000035
C50	C	1.603358	-0.178964	0.000046
C51	C	1.604916	-0.119552	0.000066
C52	C	1.375944	-0.106901	0.000050
C53	C	1.374385	-0.166308	0.000038
C54	C	1.488102	-0.202339	0.000031
O55	O	1.274615	-0.254916	0.000054
O56	O	1.698244	-0.278375	0.000002
C57	C	1.712082	0.080536	0.000026
C58	C	1.851472	0.082210	0.000021
C59	C	1.471975	0.187867	-0.000013
C60	C	1.473663	0.251096	-0.000034
N61	N	1.482442	0.083786	0.346686
N62	N	1.482451	0.083785	-0.346644
C63	C	1.654199	0.007062	0.346706
C64	C	1.740086	-0.031299	0.423383
C65	C	1.740098	-0.031299	0.576717
C66	C	1.654212	0.007064	0.653377
C67	C	1.568325	0.045425	0.576700
C68	C	1.568325	0.045422	0.423363
C69	C	1.396564	0.122146	0.576679
C70	C	1.396555	0.122150	0.423346
C71	C	1.310678	0.160509	0.653339
C72	C	1.224795	0.198873	0.576662
C73	C	1.224787	0.198872	0.423320
C74	C	1.310669	0.160510	0.346669
H75	H	1.251302	-0.016987	0.000058
H76	H	1.158824	-0.452269	-0.000076
H77	H	0.713576	0.184568	-0.000025
Br78	Br	0.896165	-0.143860	0.000176
Br79	Br	1.221649	-0.057989	0.000047
Br80	Br	1.856634	-0.083365	0.319345
Br81	Br	1.204882	-0.140147	0.000170
Br82	Br	1.856650	-0.083365	0.680783
H83	H	1.806068	-0.380140	0.000027
Br84	Br	1.864956	-0.507462	0.000006
Br85	Br	1.654211	0.007068	0.138609
H86	H	1.681517	-0.754872	-0.000025
H87	H	1.310687	0.160504	0.778191
Br88	Br	1.654208	0.007055	0.861474
Br89	Br	1.259898	0.191147	-0.000078
Br90	Br	1.108236	0.250927	0.680703
Br91	Br	1.761370	-0.087836	0.000092
H92	H	1.280520	-0.185339	0.000064
Br93	Br	1.108208	0.250931	0.319272
Br94	Br	1.310673	0.160509	0.138572
H95	H	1.695957	-0.208294	0.000035
H96	H	1.266098	-0.731892	-0.000019
Br97	Br	1.068714	0.311434	-0.000120
Br98	Br	0.759992	0.307715	-0.000100
H99	H	0.776083	-0.022713	0.000096
H100	H	1.684375	-0.647088	-0.000007
Br101	Br	1.207209	-0.604563	-0.000047
Br102	Br	1.099949	-0.324939	-0.000079
