data_functionalizedCrystal
_audit_creation_method	'MofGen! by Chris Wilmer'
_symmetry_space_group_name_H-M	'P1'
_symmetry_Int_Tables_number	1
_symmetry_cell_setting	triclinic
loop_
_symmetry_equiv_pos_as_xyz
  x,y,z
_cell_length_a	14.519709
_cell_length_b	13.596369
_cell_length_c	13.339070
_cell_angle_alpha	90.002959
_cell_angle_beta	99.654720
_cell_angle_gamma	89.999709
loop_
_atom_site_label
_atom_site_type_symbol
_atom_site_fract_x
_atom_site_fract_y
_atom_site_fract_z
O1	O	1.257617	0.081656	0.132672
O2	O	1.757617	0.581656	0.632672
O3	O	0.993115	0.081686	0.148296
O4	O	1.493115	0.581686	0.648296
O5	O	1.095010	0.081671	-0.006834
O6	O	1.595010	0.581671	0.493166
O7	O	1.155723	0.081671	0.287803
O8	O	1.655723	0.581671	0.787803
O9	O	1.094994	-0.081911	-0.006842
O10	O	1.594994	0.418089	0.493158
O11	O	0.993099	-0.081897	0.148288
O12	O	1.493099	0.418103	0.648288
O13	O	1.257601	-0.081927	0.132664
O14	O	1.757601	0.418073	0.632664
Zn15	Zn	1.125347	-0.107884	0.140475
Zn16	Zn	1.625347	0.392116	0.640475
Zn17	Zn	1.125369	0.107643	0.140486
Zn18	Zn	1.625369	0.607643	0.640486
O19	O	1.155706	-0.081912	0.287794
O20	O	1.655706	0.418088	0.787794
C21	C	0.958562	-0.000102	0.147564
C22	C	1.458562	0.499898	0.647564
C23	C	0.855625	-0.000091	0.145382
C24	C	1.355625	0.499909	0.645382
C25	C	0.478686	-0.000135	0.137349
C26	C	0.978686	0.499865	0.637349
C27	C	0.583562	-0.000123	0.139580
C28	C	1.083562	0.499877	0.639580
C29	C	0.667153	-0.000112	0.141365
C30	C	1.167153	0.499888	0.641365
C31	C	0.772035	-0.000101	0.143596
C32	C	1.272035	0.499899	0.643596
N33	N	1.125339	-0.254976	0.140467
N34	N	1.625339	0.245024	0.640467
C35	C	1.125368	-0.656267	0.140487
C36	C	1.625368	-0.156267	0.640487
C37	C	1.125358	-0.544616	0.140484
C38	C	1.625358	-0.044616	0.640484
C39	C	1.125354	-0.455625	0.140477
C40	C	1.625354	0.044375	0.640477
C41	C	1.125343	-0.343967	0.140474
C42	C	1.625343	0.156033	0.640474
C43	C	1.292154	-0.000137	0.133396
C44	C	1.792154	0.499863	0.633396
C45	C	1.395091	-0.000142	0.135578
C46	C	1.895091	0.499858	0.635578
C47	C	1.084746	-0.000118	-0.044546
C48	C	1.584746	0.499882	0.455454
C49	C	1.054177	-0.000110	-0.156903
C50	C	1.554177	0.499890	0.343097
N51	N	1.125382	0.254735	0.140486
N52	N	1.625382	0.754735	0.640486
C53	C	1.291868	-0.000137	-0.521266
C54	C	1.791868	0.499863	-0.021266
C55	C	1.320592	-0.000149	-0.415701
C56	C	1.820592	0.499851	0.084299
C57	C	1.253991	-0.000139	-0.350997
C58	C	1.753991	0.499861	0.149003
C59	C	1.158660	-0.000117	-0.391867
C60	C	1.658660	0.499883	0.108133
C61	C	1.129933	-0.000113	-0.497442
C62	C	1.629933	0.499887	0.002558
C63	C	1.092056	-0.000115	-0.327173
C64	C	1.592056	0.499885	0.172827
C65	C	0.996725	-0.000093	-0.368043
C66	C	1.496725	0.499907	0.131957
C67	C	0.968003	-0.000088	-0.473608
C68	C	1.468003	0.499912	0.026392
C69	C	1.034604	-0.000098	-0.538312
C70	C	1.534604	0.499902	-0.038312
C71	C	1.120783	-0.000120	-0.221598
C72	C	1.620783	0.499880	0.278402
C73	C	0.958848	-0.000095	-0.197774
C74	C	1.458848	0.499905	0.302226
C75	C	0.930124	-0.000083	-0.303338
C76	C	1.430124	0.499917	0.196662
C77	C	1.165970	-0.000121	0.325506
C78	C	1.665970	0.499879	0.825506
C79	C	1.196539	-0.000122	0.437863
C80	C	1.696539	0.499878	0.937863
H81	H	1.277384	-0.000150	-0.265042
H82	H	1.777384	0.499850	0.234958
C83	C	1.267652	0.083957	-0.209402
C84	C	1.767652	0.583957	0.290598
C85	C	1.225565	-0.000132	-0.176677
C86	C	1.725565	0.499868	0.323323
H87	H	1.332343	0.083953	-0.181664
H88	H	1.832343	0.583953	0.318336
H89	H	1.260074	0.083949	-0.281526
H90	H	1.760074	0.583949	0.218474
H91	H	1.239090	0.140998	-0.187194
H92	H	1.739090	0.640998	0.312806
H93	H	1.254122	-0.057173	-0.198892
H94	H	1.754122	0.442827	0.301108
H95	H	1.233149	-0.000133	-0.104538
H96	H	1.733149	0.499867	0.395462
H97	H	1.398210	-0.000169	-0.382433
H98	H	1.898210	0.499831	0.117567
H99	H	1.011221	-0.000084	-0.624273
H100	H	1.511221	0.499916	-0.124273
H101	H	0.890378	-0.000077	-0.506880
H102	H	1.390378	0.499923	-0.006880
C103	C	1.319719	-0.000145	-0.693679
C104	C	1.819719	0.499855	-0.193679
C105	C	1.365068	-0.000151	-0.592389
C106	C	1.865068	0.499849	-0.092389
H107	H	1.364916	-0.000150	-0.737586
H108	H	1.864916	0.499850	-0.237586
H109	H	1.281743	-0.057180	-0.706078
H110	H	1.781743	0.442820	-0.206078
H111	H	1.281755	0.056910	-0.706069
H112	H	1.781755	0.556910	-0.206069
H113	H	1.403027	-0.057211	-0.579996
H114	H	1.903027	0.442789	-0.079996
H115	H	1.403061	0.056890	-0.579985
H116	H	1.903061	0.556890	-0.079985
C117	C	0.803896	0.084028	-0.408242
C118	C	1.303896	0.584028	0.091758
C119	C	0.825338	-0.000066	-0.348274
C120	C	1.325338	0.499934	0.151726
H121	H	0.739207	0.084033	-0.435988
H122	H	1.239207	0.584033	0.064012
H123	H	0.818467	0.141059	-0.367545
H124	H	1.318467	0.641059	0.132455
H125	H	0.839462	0.084013	-0.461874
H126	H	1.339462	0.584013	0.038126
H127	H	0.789776	-0.000048	-0.294638
H128	H	1.289776	0.499952	0.205362
H129	H	0.810757	-0.057112	-0.388973
H130	H	1.310757	0.442888	0.111027
H131	H	0.904615	-0.000092	-0.145091
H132	H	1.404615	0.499908	0.354909
