data_functionalizedCrystal
_audit_creation_method	'MofGen! by Chris Wilmer'
_symmetry_space_group_name_H-M	'P1'
_symmetry_Int_Tables_number	1
_symmetry_cell_setting	triclinic
loop_
_symmetry_equiv_pos_as_xyz
  x,y,z
_cell_length_a	15.538191
_cell_length_b	11.026607
_cell_length_c	9.482900
_cell_angle_alpha	78.599815
_cell_angle_beta	84.437322
_cell_angle_gamma	102.070945
loop_
_atom_site_label
_atom_site_type_symbol
_atom_site_fract_x
_atom_site_fract_y
_atom_site_fract_z
O1	O	1.198382	0.390430	-0.120855
O2	O	0.946233	0.260051	-0.120865
O3	O	1.051409	0.492688	-0.120856
O4	O	1.093206	0.157793	-0.120865
O5	O	1.030070	0.445293	0.120935
O6	O	0.924894	0.212656	0.120925
O7	O	1.177042	0.343035	0.120935
Cu8	Cu	1.049020	0.273518	0.143007
Cu9	Cu	1.074256	0.329568	-0.142938
O10	O	1.071866	0.110398	0.120926
C11	C	0.902781	0.222713	0.000028
C12	C	0.805098	0.182080	0.000025
C13	C	1.220495	0.380374	0.000038
C14	C	1.318179	0.421008	0.000032
C15	C	1.033029	0.510805	0.000037
C16	C	1.010044	0.635396	0.000031
C17	C	1.674424	0.017335	0.000018
C18	C	1.766210	0.055543	0.000023
C19	C	1.752208	0.270459	0.000029
C20	C	1.660418	0.232268	0.000031
C21	C	1.621534	0.105704	0.000023
C22	C	1.607528	0.320637	0.000037
C23	C	1.515747	0.282450	0.000031
C24	C	1.476856	0.155893	0.000019
C25	C	1.529753	0.067517	0.000018
C26	C	1.646415	0.447202	0.000033
C27	C	1.593524	0.535572	0.000039
C28	C	1.501741	0.497383	0.000044
C29	C	1.462850	0.370826	0.000032
C30	C	1.448844	0.585759	0.000045
C31	C	1.357063	0.547571	0.000040
C32	C	1.371069	0.332638	0.000026
C33	C	1.090247	0.092281	0.000029
C34	C	1.113233	-0.032308	0.000026
N35	N	1.031276	0.234099	0.344126
C36	C	1.073511	0.737157	0.000032
C37	C	1.049757	0.865929	0.000025
N38	N	1.092006	0.368999	-0.344056
C39	C	1.069016	0.317944	0.416329
C40	C	1.054260	0.285141	0.583745
H41	H	1.339406	0.229574	0.000040
H42	H	0.938122	0.643610	0.000019
Cl43	Cl	1.801099	0.429561	0.000040
Cl44	Cl	0.987500	0.136812	0.679647
Cl45	Cl	1.832699	-0.055566	0.000014
H46	H	1.721151	0.478295	0.000011
Cl47	Cl	1.158989	0.517175	0.560046
H48	H	1.185170	0.959512	-0.000081
H49	H	0.988038	0.138032	0.406252
Cl50	Cl	1.361473	0.107883	0.000007
Cl51	Cl	1.480860	-0.091601	0.000038
Cl52	Cl	1.497740	0.744864	0.000038
H53	H	1.145433	0.728943	0.000043
H54	H	1.642761	-0.085730	0.000031
H55	H	1.625197	0.638621	0.000040
H56	H	1.112246	0.414016	0.354204
H57	H	0.977830	0.874135	0.000013
Cl58	Cl	1.290567	0.658662	0.000062
