data_functionalizedCrystal
_audit_creation_method	'MofGen! by Chris Wilmer'
_symmetry_space_group_name_H-M	'P1'
_symmetry_Int_Tables_number	1
_symmetry_cell_setting	triclinic
loop_
_symmetry_equiv_pos_as_xyz
  x,y,z
_cell_length_a	16.120490
_cell_length_b	16.120256
_cell_length_c	13.897448
_cell_angle_alpha	87.124785
_cell_angle_beta	92.889889
_cell_angle_gamma	90.129807
loop_
_atom_site_label
_atom_site_type_symbol
_atom_site_fract_x
_atom_site_fract_y
_atom_site_fract_z
Zn1	Zn	1.247489	-0.534543	0.488787
Zn2	Zn	1.254453	-0.395487	0.642339
Zn3	Zn	1.115477	-0.388463	0.472474
Zn4	Zn	1.108409	-0.527460	0.641447
O5	O	1.181457	-0.461488	0.561262
O6	O	1.364780	-0.522000	0.516357
O7	O	1.241891	-0.278189	0.613353
O8	O	1.133033	-0.407866	0.339660
O9	O	1.369897	-0.419836	0.629171
O10	O	1.230021	-0.515190	0.351646
O11	O	1.139786	-0.273029	0.488554
O12	O	0.998172	-0.400998	0.487688
O13	O	1.120985	-0.644766	0.627650
O14	O	0.992979	-0.503118	0.611831
O15	O	1.223167	-0.649970	0.515491
O16	O	1.235037	-0.412968	0.777199
O17	O	1.127738	-0.509928	0.776543
C18	C	0.965403	-0.450528	0.547893
C19	C	0.872973	-0.445859	0.542198
C20	C	0.660015	-0.485709	0.590795
C21	C	0.703747	-0.437333	0.531810
C22	C	0.797913	-0.442078	0.537592
C23	C	0.565841	-0.480965	0.585014
C24	C	1.170511	-0.678384	0.573291
C25	C	1.165846	-0.770812	0.578417
C26	C	1.205781	-0.983794	0.534506
C27	C	1.157302	-0.940032	0.587734
C28	C	1.162057	-0.845869	0.582548
C29	C	1.201027	-1.077966	0.539690
C30	C	1.398355	-0.472492	0.574683
C31	C	1.490784	-0.477181	0.580403
C32	C	1.181398	-0.461461	0.811871
C33	C	1.181447	-0.461481	0.919089
C34	C	1.192409	-0.245439	0.549213
C35	C	1.197234	-0.153020	0.543826
C36	C	1.181539	-0.461535	0.309676
C37	C	1.181573	-0.461555	0.202466
C38	C	1.181532	-0.461538	1.115392
C39	C	1.181482	-0.461509	1.006155
H40	H	0.670467	-0.392353	0.476969
H41	H	1.112221	-0.973285	0.637192
O42	O	1.259540	-0.944002	0.475588
C43	C	1.252370	-0.857482	0.483460
H44	H	1.225682	-0.844343	0.555575
H45	H	1.209333	-0.830573	0.422171
C46	C	1.371501	-0.833206	0.388863
C47	C	1.338729	-0.817069	0.477440
H48	H	1.424770	-0.808276	0.385146
H49	H	1.376331	-0.891496	0.383556
H50	H	1.335629	-0.810782	0.337799
H51	H	1.374596	-0.839502	0.528502
H52	H	1.333908	-0.758781	0.482756
O53	O	0.699801	-0.539408	0.656096
C54	C	0.747336	-0.595696	0.607288
H55	H	0.761713	-0.567122	0.533287
H56	H	0.710833	-0.655691	0.598221
C57	C	0.811493	-0.649831	0.757073
C58	C	0.829156	-0.614733	0.666187
H59	H	0.861962	-0.661578	0.793406
H60	H	0.779466	-0.611912	0.789957
H61	H	0.781071	-0.699824	0.749504
H62	H	0.859568	-0.564737	0.673757
H63	H	0.861191	-0.652645	0.633306
