data_functionalizedCrystal
_audit_creation_method	'MofGen! by Chris Wilmer'
_symmetry_space_group_name_H-M	'P1'
_symmetry_Int_Tables_number	1
_symmetry_cell_setting	triclinic
loop_
_symmetry_equiv_pos_as_xyz
  x,y,z
_cell_length_a	18.050591
_cell_length_b	18.050589
_cell_length_c	19.077174
_cell_angle_alpha	92.276796
_cell_angle_beta	87.688915
_cell_angle_gamma	90.027061
loop_
_atom_site_label
_atom_site_type_symbol
_atom_site_fract_x
_atom_site_fract_y
_atom_site_fract_z
Zn1	Zn	1.152165	-0.312561	-0.397893
Zn2	Zn	1.147085	-0.431766	-0.280206
Zn3	Zn	1.022994	-0.307593	-0.280220
Zn4	Zn	1.027931	-0.436710	-0.397872
O5	O	1.087544	-0.372158	-0.339048
O6	O	1.255416	-0.328384	-0.382285
O7	O	1.126432	-0.411146	-0.181718
O8	O	1.040189	-0.204328	-0.295844
O9	O	1.251684	-0.415964	-0.295821
O10	O	1.135090	-0.207978	-0.382298
O11	O	1.035263	-0.319916	-0.181728
O12	O	0.919724	-0.324710	-0.295823
O13	O	1.048603	-0.424390	-0.496364
O14	O	0.923352	-0.419573	-0.382261
O15	O	1.139877	-0.333179	-0.496380
O16	O	1.131219	-0.536346	-0.295800
O17	O	1.043677	-0.539979	-0.382248
C18	C	0.894591	-0.372139	-0.339042
C19	C	0.812046	-0.372150	-0.339056
C20	C	1.087454	-0.565109	-0.339036
C21	C	1.087484	-0.647656	-0.339054
C22	C	0.565212	-0.423836	-0.385997
C23	C	0.611858	-0.439189	-0.321757
C24	C	0.514926	-0.372173	-0.339055
C25	C	0.615361	-0.356843	-0.403291
C26	C	0.660911	-0.372164	-0.339059
C27	C	0.560483	-0.387560	-0.274781
C28	C	0.563984	-0.305184	-0.356358
C29	C	0.610606	-0.320510	-0.292074
C30	C	0.430827	-0.372181	-0.339053
C31	C	0.745007	-0.372156	-0.339053
C32	C	1.039927	-0.849108	-0.386048
C33	C	1.019106	-0.895825	-0.321826
C34	C	1.087557	-0.798787	-0.339064
C35	C	1.108415	-0.899152	-0.403293
C36	C	1.087627	-0.944772	-0.339078
C37	C	1.066699	-0.844415	-0.274807
C38	C	1.156042	-0.847739	-0.356318
C39	C	1.135245	-0.894432	-0.292051
C40	C	1.087515	-0.714688	-0.339056
C41	C	1.087669	-1.028869	-0.339078
C42	C	1.281250	-0.372177	-0.339054
C43	C	1.363796	-0.372185	-0.339056
C44	C	1.095357	-0.379890	-0.522624
C45	C	1.098687	-0.383185	-0.600853
C46	C	1.087655	-0.178453	-0.339075
C47	C	1.087703	-0.095908	-0.339086
C48	C	1.052787	-0.337236	-0.637610
C49	C	1.055912	-0.340338	-0.711114
C50	C	1.104943	-0.389387	-0.747861
C51	C	1.150845	-0.435341	-0.711099
C52	C	1.147715	-0.432242	-0.637595
C53	C	1.119390	-0.403752	-0.967692
C54	C	1.122518	-0.406847	-1.041200
C55	C	1.027584	-0.311844	-1.041210
C56	C	1.024462	-0.308746	-0.967706
C57	C	1.070361	-0.354703	-0.930950
N58	N	1.108141	-0.392558	-0.822994
N59	N	1.067159	-0.351536	-0.855818
C60	C	1.079803	-0.364401	-0.156186
C61	C	1.076618	-0.360897	-0.077957
H62	H	0.632910	-0.495836	-0.307118
C63	C	0.918689	-0.895589	-0.235351
C64	C	0.940964	-0.924375	-0.302125
H65	H	0.870446	-0.913210	-0.223196
H66	H	0.952498	-0.911053	-0.201945
H67	H	0.918006	-0.842980	-0.235633
H68	H	0.941653	-0.976984	-0.301842
H69	H	0.907147	-0.908915	-0.335541
C70	C	0.612149	-0.191579	-0.255981
C71	C	0.637420	-0.261523	-0.238427
H72	H	0.628701	-0.155168	-0.222857
H73	H	0.631103	-0.180582	-0.301559
H74	H	0.559501	-0.191551	-0.255420
H75	H	0.690068	-0.261553	-0.238994
H76	H	0.618469	-0.272524	-0.192837
C77	C	1.189694	-0.998814	-0.239207
C78	C	1.189657	-0.921210	-0.238363
H79	H	1.223286	-1.015345	-0.206064
H80	H	1.141235	-1.016019	-0.227343
H81	H	1.204598	-1.017705	-0.284787
H82	H	1.174748	-0.902319	-0.192785
H83	H	1.238127	-0.903998	-0.250223
C84	C	0.992444	-0.187041	-1.063863
C85	C	0.977129	-0.261336	-1.081615
H86	H	0.961294	-0.155861	-1.088811
H87	H	0.983561	-0.178182	-1.014835
H88	H	1.042863	-0.176693	-1.075917
H89	H	0.926711	-0.271685	-1.069556
H90	H	0.986006	-0.270199	-1.130654
H91	H	1.126029	-0.923105	-0.457606
H92	H	1.185098	-0.469654	-0.607669
C93	C	1.216038	-0.500455	-1.033811
C94	C	1.176413	-0.460768	-1.081594
H95	H	1.249306	-0.533743	-1.058750
H96	H	1.243245	-0.466898	-1.005147
H97	H	1.182434	-0.527649	-1.005137
H98	H	1.210017	-0.433569	-1.110264
H99	H	1.149205	-0.494330	-1.110269
H100	H	1.156757	-0.441182	-0.937774
C101	C	0.450652	-0.405040	-0.202099
C102	C	0.528193	-0.405160	-0.201427
H103	H	0.430718	-0.415913	-0.156817
H104	H	0.433876	-0.357614	-0.214456
H105	H	0.434775	-0.441522	-0.235474
H106	H	0.544069	-0.368674	-0.168056
H107	H	0.544975	-0.452593	-0.189062
C108	C	0.959255	-0.243652	-0.645011
C109	C	0.998886	-0.283323	-0.597221
H110	H	0.925974	-0.210373	-0.620077
H111	H	0.992848	-0.216455	-0.673682
H112	H	0.932055	-0.277225	-0.673676
H113	H	1.026091	-0.249750	-0.568559
H114	H	0.965289	-0.310521	-0.568538
H115	H	1.190763	-0.475282	-0.741024
H116	H	0.639377	-0.343880	-0.457614
H117	H	1.213913	-0.826580	-0.370929
C118	C	0.959523	-0.333505	-0.793751
C119	C	1.005444	-0.289834	-0.751509
H120	H	0.928357	-0.302325	-0.818682
H121	H	0.989168	-0.363147	-0.826158
H122	H	0.929890	-0.364651	-0.765056
H123	H	1.035080	-0.258691	-0.780204
H124	H	0.975796	-0.260179	-0.719098
H125	H	1.049019	-0.820550	-0.220480
C126	C	0.599400	-0.519694	-0.472081
C127	C	0.538207	-0.482858	-0.439517
H128	H	0.582726	-0.556135	-0.505115
H129	H	0.630088	-0.484982	-0.495566
H130	H	0.626880	-0.542960	-0.437644
H131	H	0.510730	-0.459587	-0.473953
H132	H	0.507506	-0.517576	-0.416031
C133	C	0.563293	-0.212801	-0.443467
C134	C	0.535531	-0.228739	-0.376145
H135	H	0.545721	-0.165610	-0.455688
H136	H	0.615932	-0.212368	-0.444032
H137	H	0.547041	-0.249614	-0.476339
H138	H	0.551787	-0.191930	-0.343272
H139	H	0.482881	-0.229167	-0.375575
C140	C	0.897763	-0.271602	-0.945079
C141	C	0.970563	-0.254831	-0.927318
H142	H	0.864491	-0.238316	-0.920142
H143	H	0.893063	-0.266870	-0.994109
H144	H	0.886359	-0.320991	-0.933017
H145	H	0.981969	-0.205443	-0.939385
H146	H	0.975266	-0.259555	-0.878277
H147	H	0.999583	-0.829139	-0.425726
