data_functionalizedCrystal
_audit_creation_method	'MofGen! by Chris Wilmer'
_symmetry_space_group_name_H-M	'P1'
_symmetry_Int_Tables_number	1
_symmetry_cell_setting	triclinic
loop_
_symmetry_equiv_pos_as_xyz
  x,y,z
_cell_length_a	13.033385
_cell_length_b	13.032721
_cell_length_c	13.033109
_cell_angle_alpha	74.856674
_cell_angle_beta	89.118506
_cell_angle_gamma	89.136775
loop_
_atom_site_label
_atom_site_type_symbol
_atom_site_fract_x
_atom_site_fract_y
_atom_site_fract_z
Zn1	Zn	-1.572133	0.676043	-0.476678
Zn2	Zn	-1.533729	0.826801	-0.325958
Zn3	Zn	-1.383116	0.632259	-0.320438
Zn4	Zn	-1.383081	0.832323	-0.520518
O5	O	-1.468015	0.741857	-0.410898
O6	O	-1.709189	0.712054	-0.440647
O7	O	-1.497693	0.780360	-0.178415
O8	O	-1.424276	0.491247	-0.320507
O9	O	-1.680975	0.822815	-0.329914
O10	O	-1.563145	0.523414	-0.435295
O11	O	-1.387038	0.637431	-0.174360
O12	O	-1.240960	0.642786	-0.363017
O13	O	-1.424216	0.832227	-0.661513
O14	O	-1.240934	0.789772	-0.510014
O15	O	-1.563112	0.717408	-0.629304
O16	O	-1.497659	0.974354	-0.372424
O17	O	-1.386978	0.978411	-0.515367
C18	C	-1.204089	0.712128	-0.440674
C19	C	-1.091180	0.699439	-0.453441
C20	C	-1.438178	1.014458	-0.449271
C21	C	-1.425510	1.131093	-0.465712
C22	C	-1.497944	0.780317	-0.684539
C23	C	-1.510698	0.796707	-0.801149
C24	C	-0.910181	0.735357	-0.417428
C25	C	-1.026878	0.748475	-0.404228
C26	C	-0.732971	0.771694	-0.380995
C27	C	-0.845878	0.784387	-0.368222
C28	C	-1.497998	0.468197	-0.372395
C29	C	-1.510775	0.351580	-0.355987
C30	C	-1.474685	1.181064	-0.402359
C31	C	-1.461594	1.301612	-0.419349
C32	C	-1.461634	0.733296	-0.851131
C33	C	-1.474814	0.750234	-0.971653
C34	C	-1.438269	0.703476	-0.138304
C35	C	-1.425744	0.686813	-0.021631
H36	H	-0.878841	0.683674	-0.469332
H37	H	-1.409866	0.666471	-0.804697
N38	N	-1.068373	0.816954	-0.335480
H39	H	-1.145854	0.816619	-0.335796
H40	H	-1.043466	0.787912	-0.260344
N41	N	-0.887372	0.852858	-0.299471
H42	H	-0.930742	0.912443	-0.343933
H43	H	-0.930702	0.808153	-0.239978
H44	H	-1.059846	0.647750	-0.505348
H45	H	-1.373722	1.177558	-0.532534
N46	N	-1.543302	1.119533	-0.313854
H47	H	-1.542930	1.042139	-0.314264
H48	H	-1.517292	1.126368	-0.243368
N49	N	-1.392988	1.363143	-0.507871
H50	H	-1.393361	1.440537	-0.507462
H51	H	-1.320710	1.333644	-0.497001
N52	N	-1.357181	0.598268	-0.960149
H53	H	-1.284880	0.609033	-0.989644
H54	H	-1.357565	0.598750	-0.882780
H55	H	-1.562460	0.863537	-0.847584
H56	H	-1.562576	1.305122	-0.289167
H57	H	-1.526580	0.817068	-1.018084
