data_functionalizedCrystal
_audit_creation_method	'MofGen! by Chris Wilmer'
_symmetry_space_group_name_H-M	'P1'
_symmetry_Int_Tables_number	1
_symmetry_cell_setting	triclinic
loop_
_symmetry_equiv_pos_as_xyz
  x,y,z
_cell_length_a	16.956984
_cell_length_b	10.489716
_cell_length_c	16.053802
_cell_angle_alpha	92.595649
_cell_angle_beta	87.610701
_cell_angle_gamma	80.291277
loop_
_atom_site_label
_atom_site_type_symbol
_atom_site_fract_x
_atom_site_fract_y
_atom_site_fract_z
O1	O	1.061671	0.047094	-0.069431
O2	O	0.829768	0.091849	-0.069430
O3	O	0.951007	-0.116764	-0.069433
O4	O	0.940433	0.255707	-0.069427
O5	O	0.944333	-0.105325	0.069426
O6	O	0.823095	0.103287	0.069429
O7	O	1.054998	0.058532	0.069428
Zn8	Zn	0.937987	0.082726	0.091476
Zn9	Zn	0.946779	0.067656	-0.091477
O10	O	0.933759	0.267145	0.069432
C11	C	0.796736	0.099860	-0.000000
C12	C	0.708254	0.106674	-0.000000
C13	C	0.675522	-0.007248	-0.000000
C14	C	0.592384	-0.000839	-0.000006
C15	C	0.541979	0.119494	-0.000006
C16	C	0.574716	0.233424	-0.000008
C17	C	0.657853	0.227013	-0.000008
C18	C	0.292387	0.151226	-0.000011
C19	C	0.209244	0.157629	-0.000008
C20	C	0.226918	-0.076635	-0.000008
C21	C	0.310056	-0.083034	-0.000003
C22	C	0.342786	0.030895	-0.000010
N23	N	0.456997	0.126048	-0.000009
N24	N	0.427766	0.024339	-0.000012
C25	C	0.946876	-0.158481	-0.000006
C26	C	0.944499	-0.299827	-0.000014
C27	C	1.018846	-0.406433	-0.000007
C28	C	0.982850	-0.484713	-0.068469
C29	C	0.976253	-0.473398	0.068435
C30	C	0.908536	-0.376250	-0.068533
C31	C	0.901948	-0.364926	0.068433
C32	C	0.865897	-0.443152	-0.000046
C33	C	1.088030	0.050521	-0.000003
C34	C	1.176512	0.043707	-0.000009
C35	C	0.937890	0.308863	0.000003
C36	C	0.940267	0.450208	0.000005
N37	N	0.931992	0.093010	0.216336
N38	N	0.952781	0.057361	-0.216338
C39	C	0.983598	0.004272	0.260029
C40	C	0.979412	0.011477	0.347435
C41	C	0.923623	0.107426	0.391148
C42	C	0.872011	0.196168	0.347450
C43	C	0.876194	0.188956	0.260045
C44	C	0.905351	0.138891	0.652559
C45	C	0.901174	0.146099	0.739970
C46	C	1.008575	-0.038595	0.739950
C47	C	1.012756	-0.045793	0.652543
C48	C	0.961141	0.042945	0.608852
N49	N	0.919344	0.114796	0.480492
N50	N	0.965416	0.035569	0.519509
H51	H	0.716557	-0.105236	0.000003
N52	N	0.558952	-0.117210	0.000021
N53	N	0.511723	-0.134937	0.058560
H54	H	0.488114	-0.217130	0.058582
H55	H	0.351091	-0.181022	-0.000000
H56	H	1.058184	-0.123922	0.616953
N57	N	0.823470	0.279605	0.215424
N58	N	0.773660	0.365268	0.254461
H59	H	0.736419	0.429289	0.222949
N60	N	0.852632	0.229559	0.607954
N61	N	0.853925	0.348076	0.617717
H62	H	0.816690	0.412119	0.586214
H63	H	1.017016	-0.536747	-0.126351
H64	H	0.879953	-0.333951	-0.126477
H65	H	0.200260	-0.169390	-0.000012
N66	N	0.784719	-0.464085	-0.000095
N67	N	0.769669	-0.576674	0.000457
H68	H	0.712338	-0.591463	0.000419
H69	H	0.867808	-0.312872	0.126316
H70	H	1.029031	-0.073855	0.224443
N71	N	0.157765	0.280564	-0.000001
N72	N	0.186998	0.382276	-0.000004
H73	H	0.150642	0.469096	0.000005
H74	H	1.021433	-0.060780	0.383009
N75	N	1.012161	-0.526680	0.141040
N76	N	1.083875	-0.521245	0.153218
H77	H	1.109242	-0.558875	0.204492
H78	H	0.533670	0.331400	-0.000013
N79	N	1.061289	-0.129222	0.784592
N80	N	1.057550	-0.122775	0.862632
H81	H	1.094780	-0.186786	0.894162
H82	H	0.855741	0.224237	0.775557
H83	H	1.083519	-0.389532	-0.000077
N84	N	0.325800	0.267610	-0.000023
N85	N	0.280784	0.375038	-0.000024
H86	H	0.304384	0.457241	-0.000034
N87	N	0.815011	0.294159	0.392101
N88	N	0.762985	0.262899	0.440888
H89	H	0.722728	0.332107	0.472422
H90	H	0.684502	0.319780	-0.000004
