data_functionalizedCrystal
_audit_creation_method	'MofGen! by Chris Wilmer'
_symmetry_space_group_name_H-M	'P1'
_symmetry_Int_Tables_number	1
_symmetry_cell_setting	triclinic
loop_
_symmetry_equiv_pos_as_xyz
  x,y,z
_cell_length_a	10.540539
_cell_length_b	8.559649
_cell_length_c	7.088929
_cell_angle_alpha	84.674985
_cell_angle_beta	83.715612
_cell_angle_gamma	102.847922
loop_
_atom_site_label
_atom_site_type_symbol
_atom_site_fract_x
_atom_site_fract_y
_atom_site_fract_z
O1	O	-0.028386	-2.103404	-0.158958
O2	O	0.037097	-1.638947	-0.158965
O3	O	-0.181461	-1.881772	-0.158959
O4	O	0.190172	-1.860579	-0.158964
O5	O	-0.210727	-1.914223	0.159017
O6	O	0.007830	-1.671397	0.159011
O7	O	-0.057653	-2.135855	0.159018
Cu8	Cu	-0.027584	-1.906589	0.188048
Cu9	Cu	0.007028	-1.868213	-0.187995
O10	O	0.160905	-1.893030	0.159012
C11	C	0.027426	-1.595699	0.000022
C12	C	0.042198	-1.418487	0.000019
C13	C	-0.243230	-1.896408	0.000025
C14	C	-0.383680	-1.891652	0.000015
N15	N	-0.051929	-1.933593	0.452537
C16	C	-0.547965	-1.709377	-0.000701
C17	C	-0.401917	-1.714270	0.000014
C18	C	-0.470987	-1.995547	0.181596
C19	C	-0.616912	-1.989509	0.181749
C20	C	-0.584526	-1.956214	-0.179849
C21	C	-0.437494	-1.957603	-0.182250
C22	C	0.222675	-1.878394	0.000023
C23	C	0.363125	-1.883148	0.000021
C24	C	-0.047981	-2.179103	0.000027
C25	C	-0.062752	-2.356313	0.000017
N26	N	0.031362	-1.841222	-0.452484
H27	H	-0.340301	-1.633817	-0.130150
H28	H	-0.557244	-1.626018	-0.130916
O29	O	-0.589622	-1.642148	0.153920
C30	C	-0.698834	-1.751444	0.262710
H31	H	-0.697865	-1.879554	0.231829
H32	H	-0.793102	-1.720694	0.222983
C33	C	-0.693294	-1.581968	0.514854
C34	C	-0.692097	-1.739317	0.476937
H35	H	-0.689143	-1.574484	0.646999
H36	H	-0.619719	-1.508330	0.441558
H37	H	-0.771852	-1.556361	0.481734
H38	H	-0.613533	-1.764914	0.510034
H39	H	-0.765659	-1.812960	0.550244
O40	O	0.162840	-1.320067	-0.000243
C41	C	0.192967	-1.205922	-0.164957
H42	H	0.098162	-1.190909	-0.219861
H43	H	0.256220	-1.249494	-0.280270
C44	C	0.384939	-1.061100	-0.047511
C45	C	0.268497	-1.042650	-0.114935
H46	H	0.431534	-0.960387	-0.016661
H47	H	0.364645	-1.138004	0.063457
H48	H	0.437634	-1.097415	-0.143617
H49	H	0.215797	-1.006355	-0.018822
H50	H	0.288784	-0.965735	-0.225886
H51	H	-0.597401	-1.884759	-0.317476
O52	O	-0.154947	-2.047935	0.549643
C53	C	-0.228471	-2.129412	0.418568
H54	H	-0.163638	-2.117425	0.275829
H55	H	-0.315604	-2.074187	0.397360
C56	C	-0.358287	-2.323928	0.672171
C57	C	-0.278655	-2.309217	0.496861
H58	H	-0.389249	-2.434839	0.720467
H59	H	-0.308756	-2.269033	0.760481
H60	H	-0.430888	-2.277897	0.654474
H61	H	-0.206048	-2.355229	0.514564
H62	H	-0.328175	-2.364124	0.408555
O63	O	-0.357857	-1.649696	0.155629
C64	C	-0.315639	-1.766343	0.270851
H65	H	-0.289626	-1.860782	0.180038
H66	H	-0.397690	-1.827257	0.390865
C67	C	-0.225769	-1.567917	0.468805
C68	C	-0.193810	-1.683900	0.357264
H69	H	-0.150623	-1.517064	0.522117
H70	H	-0.254216	-1.489330	0.391183
H71	H	-0.294148	-1.618696	0.568802
H72	H	-0.125444	-1.633118	0.257256
H73	H	-0.165348	-1.762478	0.434871
O74	O	-0.691143	-2.142641	0.191868
C75	C	-0.783902	-2.176409	0.358162
H76	H	-0.801719	-2.058497	0.405443
H77	H	-0.744935	-2.243639	0.476938
C78	C	-0.891913	-2.426579	0.257427
C79	C	-0.913804	-2.281758	0.315489
H80	H	-0.972042	-2.491569	0.231110
H81	H	-0.829417	-2.403833	0.145394
H82	H	-0.859438	-2.482584	0.356417
H83	H	-0.946263	-2.225747	0.216491
H84	H	-0.976309	-2.304497	0.427505
H85	H	-0.651000	-1.940273	0.317483
O86	O	-0.461140	-2.151694	0.189427
C87	C	-0.374988	-2.169384	0.030347
H88	H	-0.306128	-2.047442	-0.026465
H89	H	-0.434220	-2.216373	-0.086397
C90	C	-0.378464	-2.439731	0.160801
C91	C	-0.293881	-2.289961	0.091033
H92	H	-0.328437	-2.514114	0.198230
H93	H	-0.436510	-2.427817	0.267974
H94	H	-0.427818	-2.478867	0.063502
H95	H	-0.244541	-2.250819	0.188339
H96	H	-0.235825	-2.301872	-0.016122
H97	H	0.117677	-1.745490	0.465867
H98	H	-0.434617	-1.950038	0.316721
O99	O	-0.656566	-2.108957	-0.181568
C100	C	-0.608796	-2.173279	-0.343467
H101	H	-0.502371	-2.107088	-0.394058
H102	H	-0.670896	-2.157625	-0.462680
C103	C	-0.747202	-2.435397	-0.228800
C104	C	-0.616485	-2.354109	-0.290928
H105	H	-0.751950	-2.546943	-0.196397
H106	H	-0.779390	-2.392062	-0.119729
H107	H	-0.798938	-2.422335	-0.328156
H108	H	-0.564755	-2.367155	-0.191566
H109	H	-0.584289	-2.397451	-0.399982
H110	H	-0.377733	-1.881434	-0.316578
H111	H	-0.425804	-2.085809	-0.193212
H112	H	-0.163903	-1.438655	0.000009
