data_functionalizedCrystal
_audit_creation_method	'MofGen! by Chris Wilmer'
_symmetry_space_group_name_H-M	'P1'
_symmetry_Int_Tables_number	1
_symmetry_cell_setting	triclinic
loop_
_symmetry_equiv_pos_as_xyz
  x,y,z
_cell_length_a	13.262522
_cell_length_b	17.699104
_cell_length_c	16.176319
_cell_angle_alpha	90.007741
_cell_angle_beta	105.923156
_cell_angle_gamma	83.883526
loop_
_atom_site_label
_atom_site_type_symbol
_atom_site_fract_x
_atom_site_fract_y
_atom_site_fract_z
O1	O	1.392452	0.101944	0.381811
O2	O	1.892452	0.601944	0.881811
O3	O	1.086836	0.113029	0.313102
O4	O	1.586836	0.613029	0.813102
O5	O	1.248267	-0.002663	0.349388
O6	O	1.748267	0.497337	0.849388
O7	O	1.231021	0.217636	0.345525
O8	O	1.731021	0.717636	0.845525
O9	O	1.248245	-0.002670	0.211890
O10	O	1.748245	0.497330	0.711890
O11	O	1.086814	0.113021	0.175604
O12	O	1.586814	0.613021	0.675604
O13	O	1.392430	0.101937	0.244313
O14	O	1.892430	0.601937	0.744313
Cu15	Cu	1.239620	0.107478	0.197404
Cu16	Cu	1.739620	0.607478	0.697404
Cu17	Cu	1.239646	0.107487	0.360011
Cu18	Cu	1.739646	0.607487	0.860011
O19	O	1.230999	0.217629	0.208027
O20	O	1.730999	0.717629	0.708027
C21	C	1.047722	0.112404	0.235562
C22	C	1.547722	0.612404	0.735562
C23	C	0.931206	0.110544	0.209366
C24	C	1.431206	0.610544	0.709366
C25	C	0.876463	0.109667	0.122105
C26	C	1.376463	0.609667	0.622105
C27	C	0.766992	0.107912	0.097486
C28	C	1.266992	0.607912	0.597486
C29	C	0.712254	0.107040	0.160127
C30	C	1.212254	0.607040	0.660127
C31	C	0.766996	0.107922	0.247390
C32	C	1.266996	0.607922	0.747390
C33	C	0.876479	0.109671	0.272011
C34	C	1.376479	0.609671	0.772011
C35	C	0.712270	0.107044	0.310033
C36	C	1.212270	0.607044	0.810033
C37	C	0.767013	0.107926	0.397296
C38	C	1.267013	0.607926	0.897296
C39	C	0.876484	0.109675	0.421913
C40	C	1.376484	0.609675	0.921913
C41	C	0.931223	0.110548	0.359272
C42	C	1.431223	0.610548	0.859272
C43	C	0.602787	0.105295	0.285412
C44	C	1.102787	0.605295	0.785412
C45	C	0.602804	0.105299	0.435318
C46	C	1.102804	0.605299	0.935318
C47	C	0.712274	0.107054	0.459936
C48	C	1.212274	0.607054	0.959936
C49	C	1.247634	-0.030866	0.280499
C50	C	1.747634	0.469134	0.780499
C51	C	1.245769	-0.114892	0.280079
C52	C	1.745769	0.385108	0.780079
C53	C	1.330008	-0.639386	0.299042
C54	C	1.830008	-0.139386	0.799042
C55	C	1.331754	-0.560434	0.299427
C56	C	1.831754	-0.060434	0.799427
C57	C	1.236988	-0.512241	0.278119
C58	C	1.736988	-0.012241	0.778119
C59	C	1.140469	-0.543002	0.256417
C60	C	1.640469	-0.043002	0.756417
C61	C	1.138724	-0.621953	0.256026
C62	C	1.638724	-0.121953	0.756026
C63	C	1.147505	-0.224605	0.257992
C64	C	1.647505	0.275395	0.757992
C65	C	1.149257	-0.145650	0.258387
C66	C	1.649257	0.354350	0.758387
C67	C	1.340535	-0.163086	0.301392
C68	C	1.840535	0.336914	0.801392
C69	C	1.338790	-0.242037	0.301002
C70	C	1.838790	0.257963	0.801002
C71	C	1.242272	-0.272791	0.279295
C72	C	1.742272	0.227209	0.779295
C73	C	1.240379	-0.358400	0.278876
C74	C	1.740379	0.141600	0.778876
C75	C	1.238879	-0.426634	0.278544
C76	C	1.738879	0.073366	0.778544
C77	C	1.431545	0.102562	0.321856
C78	C	1.931545	0.602562	0.821856
C79	C	1.548060	0.104422	0.348056
C80	C	2.048060	0.604422	0.848056
C81	C	1.231632	0.245832	0.276918
C82	C	1.731632	0.745832	0.776918
C83	C	1.233497	0.329858	0.277343
C84	C	1.733497	0.829858	0.777343
N85	N	1.239609	0.107472	0.083036
N86	N	1.739609	0.607472	0.583036
C87	C	1.311112	0.056265	0.055844
C88	C	1.811112	0.556265	0.555844
C89	C	1.311118	0.056264	-0.030702
C90	C	1.811118	0.556264	0.469298
C91	C	1.239624	0.107474	-0.090053
C92	C	1.739624	0.607474	0.409947
C93	C	1.168113	0.158684	-0.062857
C94	C	1.668113	0.658684	0.437143
C95	C	1.168104	0.158681	0.023687
C96	C	1.668104	0.658681	0.523687
C97	C	1.168149	0.158698	-0.411877
C98	C	1.668149	0.658698	0.088123
C99	C	1.168166	0.158699	-0.498425
C100	C	1.668166	0.658699	0.001575
C101	C	1.311163	0.056282	-0.466265
C102	C	1.811163	0.556282	0.033735
C103	C	1.311154	0.056278	-0.379722
C104	C	1.811154	0.556278	0.120278
C105	C	1.239640	0.107485	-0.352534
C106	C	1.739640	0.607485	0.147466
C107	C	1.239633	0.107484	-0.258691
C108	C	1.739633	0.607484	0.241309
C109	C	1.239635	0.107479	-0.183893
C110	C	1.739635	0.607479	0.316107
N111	N	1.239665	0.107488	0.474381
N112	N	1.739665	0.607488	0.974381
H113	H	0.921055	0.110383	0.492968
H114	H	1.421055	0.610383	0.992968
O115	O	1.034630	-0.655131	0.232616
O116	O	1.534630	-0.155131	0.732616
H117	H	1.029266	-0.690685	0.287444
H118	H	1.529266	-0.190685	0.787444
H119	H	1.369374	0.014580	-0.331398
H120	H	1.869374	0.514580	0.168602
O121	O	1.432226	-0.691360	0.322017
O122	O	1.932226	-0.191360	0.822017
H123	H	1.436028	-0.727737	0.378915
H124	H	1.936028	-0.227737	0.878915
O125	O	1.388220	0.001027	0.119858
O126	O	1.888220	0.501027	0.619858
H127	H	1.437933	-0.034586	0.086404
H128	H	1.937933	0.465414	0.586404
H129	H	1.109896	0.200378	-0.111187
H130	H	1.609896	0.700378	0.388813
H131	H	1.109877	0.200378	0.045824
H132	H	1.609877	0.700378	0.545824
H133	H	1.410343	-0.535396	0.317095
H134	H	1.910343	-0.035396	0.817095
H135	H	0.558225	0.104583	0.214361
H136	H	1.058225	0.604583	0.714361
O137	O	0.594179	0.105157	0.133580
O138	O	1.094179	0.605157	0.633580
H139	H	0.565307	0.104699	0.062378
H140	H	1.065307	0.604699	0.562378
O141	O	1.444641	-0.129915	0.324805
O142	O	1.944641	0.370085	0.824805
H143	H	1.490169	-0.149263	0.279009
H144	H	1.990169	0.350737	0.779009
H145	H	0.756861	0.107772	0.530987
H146	H	1.256861	0.607772	1.030987
O147	O	1.388257	0.001047	-0.060029
O148	O	1.888257	0.501047	0.439971
H149	H	1.437984	-0.034551	-0.004216
H150	H	1.937984	0.465449	0.495784
H151	H	0.722430	0.107184	0.026437
H152	H	1.222430	0.607184	0.526437
H153	H	0.921042	0.110371	0.071113
H154	H	1.421042	0.610371	0.571113
O155	O	1.091068	0.213947	-0.562442
O156	O	1.591068	0.713947	-0.062442
H157	H	1.041338	0.249555	-0.528998
H158	H	1.541338	0.749555	-0.028998
H159	H	0.558236	0.104590	0.486325
H160	H	1.058236	0.604590	0.986325
O161	O	1.091030	0.213932	-0.382553
O162	O	1.591030	0.713932	0.117447
H163	H	1.041330	0.249548	-0.438364
H164	H	1.541330	0.749548	0.061636
H165	H	1.369391	0.014584	-0.488411
H166	H	1.869391	0.514584	0.011589
H167	H	1.415958	-0.281273	0.318357
H168	H	1.915958	0.218727	0.818357
H169	H	1.072082	-0.106412	0.241033
H170	H	1.572082	0.393588	0.741033
H171	H	1.063309	-0.503757	0.239063
H172	H	1.563309	-0.003757	0.739063
O173	O	1.049299	0.112443	0.385830
O174	O	1.549299	0.612443	0.885830
H175	H	1.087650	0.061381	0.362097
H176	H	1.587650	0.561381	0.862097
O177	O	1.043409	-0.257773	0.234583
O178	O	1.543409	0.242227	0.734583
H179	H	0.977809	-0.210996	0.219841
H180	H	1.477809	0.289004	0.719841
