data_functionalizedCrystal
_audit_creation_method	'MofGen! by Chris Wilmer'
_symmetry_space_group_name_H-M	'P1'
_symmetry_Int_Tables_number	1
_symmetry_cell_setting	triclinic
loop_
_symmetry_equiv_pos_as_xyz
  x,y,z
_cell_length_a	11.792241
_cell_length_b	10.654556
_cell_length_c	9.730223
_cell_angle_alpha	89.998711
_cell_angle_beta	89.996207
_cell_angle_gamma	84.340476
loop_
_atom_site_label
_atom_site_type_symbol
_atom_site_fract_x
_atom_site_fract_y
_atom_site_fract_z
O1	O	0.159453	1.667383	-0.114239
O2	O	0.174634	1.301862	-0.114253
O3	O	0.001894	1.493493	-0.114236
O4	O	0.332193	1.475752	-0.114256
O5	O	0.001891	1.493481	0.114344
O6	O	0.174631	1.301851	0.114327
O7	O	0.159451	1.667371	0.114341
Zn8	Zn	0.167041	1.484609	0.150626
Zn9	Zn	0.167044	1.484624	-0.150538
O10	O	0.332191	1.475741	0.114324
C11	C	0.173516	1.255062	0.000035
C12	C	0.170177	1.115629	0.000030
C13	C	0.165476	0.919103	-0.124558
C14	C	0.168607	1.050116	-0.124566
C15	C	0.168604	1.050122	0.124644
C16	C	0.165466	0.919113	0.124651
C17	C	-0.040401	1.492373	0.000054
C18	C	-0.166423	1.489037	0.000052
C19	C	-0.397149	1.482904	0.000029
C20	C	-0.268756	1.486312	0.000042
C21	C	0.374486	1.476861	0.000032
C22	C	0.500507	1.480197	0.000024
C23	C	0.160568	1.714172	0.000050
C24	C	0.163907	1.853605	0.000046
N25	N	0.167038	1.484608	0.356163
C26	C	0.090578	1.569496	0.571988
C27	C	0.090579	1.569489	0.428105
C28	C	0.243509	1.399738	0.428110
C29	C	0.243512	1.399752	0.571991
N30	N	0.167041	1.484630	0.643926
H31	H	0.164206	0.865771	-0.226019
H32	H	0.164187	0.865783	0.226125
H33	H	0.169875	1.103474	0.226093
F34	F	0.324903	1.309426	0.648558
H35	H	0.028312	1.638610	0.630555
H36	H	0.169883	1.103439	-0.226032
F37	F	0.324889	1.309406	0.351542
F38	F	0.009200	1.659818	0.351549
