data_functionalizedCrystal
_audit_creation_method	'MofGen! by Chris Wilmer'
_symmetry_space_group_name_H-M	'P1'
_symmetry_Int_Tables_number	1
_symmetry_cell_setting	triclinic
loop_
_symmetry_equiv_pos_as_xyz
  x,y,z
_cell_length_a	16.956993
_cell_length_b	11.026607
_cell_length_c	16.053802
_cell_angle_alpha	93.134017
_cell_angle_beta	92.393434
_cell_angle_gamma	87.679641
loop_
_atom_site_label
_atom_site_type_symbol
_atom_site_fract_x
_atom_site_fract_y
_atom_site_fract_z
O1	O	-1.067750	0.044208	-0.069513
O2	O	-0.841621	0.086206	-0.069497
O3	O	-0.935944	-0.109566	-0.069501
O4	O	-0.973427	0.239980	-0.069509
O5	O	-0.930746	-0.098832	0.069359
O6	O	-0.836423	0.096940	0.069363
O7	O	-1.062553	0.054942	0.069346
Zn8	Zn	-0.948663	0.077645	0.091401
Zn9	Zn	-0.955511	0.063502	-0.091552
O10	O	-0.968229	0.250714	0.069350
C11	C	-0.809623	0.093723	-0.000065
C12	C	-0.722020	0.100116	-0.000058
C13	C	-0.926431	-0.148717	-0.000071
C14	C	-0.905817	-0.281363	-0.000073
C15	C	-0.229585	0.147939	-0.000078
C16	C	-0.311897	0.141923	-0.000079
C17	C	-0.346775	0.028997	-0.000071
C18	C	-0.299337	-0.077921	-0.000070
C19	C	-0.217027	-0.071904	-0.000075
C20	C	-0.592272	-0.000785	-0.000062
C21	C	-0.674588	-0.006793	-0.000055
C22	C	-0.687142	0.213051	-0.000065
C23	C	-0.604830	0.219058	-0.000065
C24	C	-0.557399	0.112141	-0.000069
N25	N	-0.430910	0.022845	-0.000070
N26	N	-0.473266	0.118293	-0.000076
C27	C	-0.962735	-0.360878	-0.000078
C28	C	-0.941431	-0.497976	-0.000080
C29	C	-0.094551	0.047424	-0.000082
C30	C	-0.182153	0.041030	-0.000075
C31	C	-0.977743	0.289864	-0.000081
C32	C	-0.998357	0.422510	-0.000085
N33	N	-0.943995	0.087296	0.216262
N34	N	-0.960184	0.053842	-0.216412
C35	C	-0.984152	0.004021	0.259954
C36	C	-0.980895	0.010782	0.347361
C37	C	-0.937486	0.100825	0.391074
C38	C	-0.897323	0.184104	0.347375
C39	C	-0.900576	0.177337	0.259970
C40	C	-0.923274	0.130353	0.652484
C41	C	-0.920027	0.137117	0.739895
C42	C	-1.003598	-0.036208	0.739875
C43	C	-1.006850	-0.042963	0.652468
C44	C	-0.966685	0.040312	0.608777
N45	N	-0.934158	0.107741	0.480418
N46	N	-0.970008	0.033390	0.519435
H47	H	-0.201194	0.239897	-0.000078
C48	C	-0.849563	0.283142	0.395463
N49	N	-0.813589	0.357740	0.431682
C50	C	-0.854287	-0.543114	-0.000072
N51	N	-0.788651	-0.577114	-0.000064
C52	C	-1.085502	-0.532354	-0.000091
N53	N	-1.151138	-0.498357	-0.000094
H54	H	-0.841316	-0.314785	-0.000074
C55	C	-1.049875	-0.315733	-0.000079
N56	N	-1.115510	-0.281732	-0.000076
C57	C	-1.031906	-0.095035	0.211877
N58	N	-1.067873	-0.169651	0.175669
H59	H	-0.725769	0.300098	-0.000064
H60	H	-1.013594	-0.057028	0.382934
C61	C	-0.540108	-0.118397	-0.000045
N62	N	-0.500815	-0.206988	-0.000026
C63	C	-0.856407	0.268955	0.211909
N64	N	-0.823138	0.337966	0.175711
C65	C	-1.054599	-0.142023	0.604390
N66	N	-1.090565	-0.216636	0.568177
C67	C	-1.047769	-0.127813	0.787941
N68	N	-1.081038	-0.196818	0.824146
C69	C	-0.872268	0.236172	0.787978
N70	N	-0.836298	0.310777	0.824194
H71	H	-0.576439	0.311015	-0.000074
H72	H	-0.890571	0.198161	0.616918
H73	H	-0.702982	-0.098757	-0.000053
C74	C	-0.364068	0.259534	-0.000071
N75	N	-0.403363	0.348124	-0.000062
H76	H	-0.327741	-0.169868	-0.000069
H77	H	-0.178408	-0.158961	-0.000074
