data_functionalizedCrystal
_audit_creation_method	'MofGen! by Chris Wilmer'
_symmetry_space_group_name_H-M	'P1'
_symmetry_Int_Tables_number	1
_symmetry_cell_setting	triclinic
loop_
_symmetry_equiv_pos_as_xyz
  x,y,z
_cell_length_a	19.805407
_cell_length_b	19.805405
_cell_length_c	19.805382
_cell_angle_alpha	89.900407
_cell_angle_beta	89.928521
_cell_angle_gamma	90.024042
loop_
_atom_site_label
_atom_site_type_symbol
_atom_site_fract_x
_atom_site_fract_y
_atom_site_fract_z
Zn1	Zn	1.035093	-0.269040	-0.382693
Zn2	Zn	1.034901	-0.382372	-0.269507
Zn3	Zn	0.921801	-0.269197	-0.269521
Zn4	Zn	0.921870	-0.382187	-0.382657
O5	O	0.978416	-0.325699	-0.326095
O6	O	1.129784	-0.284085	-0.367688
O7	O	1.019789	-0.367503	-0.174792
O8	O	0.936881	-0.174460	-0.284555
O9	O	1.129643	-0.367350	-0.284530
O10	O	1.020116	-0.174344	-0.367702
O11	O	0.936695	-0.284354	-0.174802
O12	O	0.827094	-0.284174	-0.284520
O13	O	0.936999	-0.367034	-0.477379
O14	O	0.827145	-0.367187	-0.367640
O15	O	1.020183	-0.283905	-0.477405
O16	O	1.019856	-0.477064	-0.284495
O17	O	0.936813	-0.476928	-0.367626
C18	C	0.802560	-0.325678	-0.326078
C19	C	0.727328	-0.325685	-0.326087
C20	C	0.692058	-0.282406	-0.369453
C21	C	0.621370	-0.282409	-0.369456
C22	C	0.585953	-0.325696	-0.326095
C23	C	0.621228	-0.368978	-0.282724
C24	C	0.691915	-0.368970	-0.282719
C25	C	0.336155	-0.369008	-0.282745
C26	C	0.265462	-0.369014	-0.282756
C27	C	0.265610	-0.282447	-0.369482
C28	C	0.336297	-0.282440	-0.369477
C29	C	0.371565	-0.325718	-0.326104
C30	C	0.448214	-0.325713	-0.326100
C31	C	0.509306	-0.325705	-0.326101
C32	C	0.978339	-0.501555	-0.326070
C33	C	0.978368	-0.576787	-0.326082
C34	C	1.021683	-0.612013	-0.369411
C35	C	1.021707	-0.682701	-0.369423
C36	C	0.978420	-0.718163	-0.326104
C37	C	0.935100	-0.682932	-0.282773
C38	C	0.935073	-0.612245	-0.282764
C39	C	0.935209	-0.968005	-0.282808
C40	C	0.935241	-1.038697	-0.282818
C41	C	1.021843	-1.038461	-0.369467
C42	C	1.021816	-0.967774	-0.369458
C43	C	0.978494	-0.932550	-0.326130
C44	C	0.978468	-0.855902	-0.326118
C45	C	0.978450	-0.794810	-0.326112
C46	C	1.154959	-0.325721	-0.326111
C47	C	1.230191	-0.325730	-0.326119
C48	C	0.978620	-0.325432	-0.502638
C49	C	0.978707	-0.325317	-0.577870
C50	C	0.978512	-0.149156	-0.326134
C51	C	0.978553	-0.073924	-0.326151
C52	C	0.978253	-0.325917	-0.150238
C53	C	0.978297	-0.325840	-0.075006
C54	C	1.021673	-0.281763	0.386578
C55	C	1.021613	-0.281834	0.315890
C56	C	0.978589	-0.325464	0.280755
C57	C	0.935618	-0.369021	0.316311
C58	C	0.935676	-0.368946	0.386998
C59	C	0.935386	-0.369326	0.031239
C60	C	0.935334	-0.369399	-0.039453
C61	C	1.021323	-0.282214	-0.039870
C62	C	1.021381	-0.282138	0.030817
C63	C	0.978407	-0.325692	0.066368
C64	C	0.978472	-0.325613	0.143016
C65	C	0.978528	-0.325547	0.204108
H66	H	0.236628	-0.404265	-0.247444
Br67	Br	0.573163	-0.427720	-0.223872
Br68	Br	1.079645	-0.223102	-0.088120
Br69	Br	0.739783	-0.427708	-0.223861
Br70	Br	1.079775	-0.222927	0.078498
Br71	Br	0.877064	-0.428433	0.079477
Br72	Br	0.876407	-0.920210	-0.224014
Br73	Br	1.080439	-0.563893	-0.428200
H74	H	1.056984	-0.711379	-0.404701
Br75	Br	0.876942	-0.428617	-0.087137
Br76	Br	0.877224	-0.428231	0.268628
H77	H	0.364862	-0.404249	-0.247429
Br78	Br	0.877358	-0.428054	0.435248
Br79	Br	1.080070	-0.222552	0.434255
H80	H	0.720890	-0.247158	-0.404764
H81	H	1.057116	-1.067150	-0.404749
Br82	Br	0.573506	-0.223670	-0.428313
H83	H	0.365130	-0.247193	-0.404788
H84	H	1.057067	-0.938904	-0.404731
Br85	Br	0.876491	-1.086824	-0.224022
Br86	Br	0.876343	-0.731058	-0.223989
H87	H	0.236885	-0.247205	-0.404796
H88	H	0.899801	-0.583565	-0.247483
H89	H	1.056602	-0.246369	0.286947
