data_functionalizedCrystal
_audit_creation_method	'MofGen! by Chris Wilmer'
_symmetry_space_group_name_H-M	'P1'
_symmetry_Int_Tables_number	1
_symmetry_cell_setting	triclinic
loop_
_symmetry_equiv_pos_as_xyz
  x,y,z
_cell_length_a	18.215407
_cell_length_b	16.120444
_cell_length_c	18.215399
_cell_angle_alpha	92.870532
_cell_angle_beta	89.982632
_cell_angle_gamma	92.923925
loop_
_atom_site_label
_atom_site_type_symbol
_atom_site_fract_x
_atom_site_fract_y
_atom_site_fract_z
Zn1	Zn	1.110204	-0.331974	-0.430919
Zn2	Zn	1.610204	0.168026	0.069081
Zn3	Zn	1.103869	-0.471396	-0.314090
Zn4	Zn	1.603869	0.028604	0.185910
Zn5	Zn	0.987136	-0.331994	-0.307872
Zn6	Zn	1.487136	0.168006	0.192128
Zn7	Zn	0.980861	-0.471342	-0.437118
Zn8	Zn	1.480861	0.028658	0.062882
O9	O	1.045517	-0.401676	-0.372500
O10	O	1.545517	0.098324	0.127500
O11	O	1.212347	-0.350483	-0.415429
O12	O	1.712347	0.149517	0.084571
O13	O	1.088358	-0.452934	-0.210282
O14	O	1.588358	0.047066	0.289718
O15	O	1.008739	-0.215325	-0.318999
O16	O	1.508739	0.284675	0.181001
O17	O	1.207693	-0.452915	-0.329595
O18	O	1.707693	0.047085	0.170405
O19	O	1.099157	-0.215310	-0.409400
O20	O	1.599157	0.284690	0.090600
O21	O	1.002595	-0.350517	-0.205714
O22	O	1.502595	0.149483	0.294286
O23	O	0.883320	-0.350464	-0.325009
O24	O	1.383320	0.149536	0.174991
O25	O	0.998044	-0.452824	-0.539278
O26	O	1.498044	0.047176	-0.039278
O27	O	0.878710	-0.452843	-0.419965
O28	O	1.378710	0.047157	0.080035
O29	O	1.093072	-0.350430	-0.534724
O30	O	1.593072	0.149570	-0.034724
O31	O	1.082274	-0.588055	-0.335606
O32	O	1.582274	-0.088055	0.164394
O33	O	0.991901	-0.588015	-0.425994
O34	O	1.491901	-0.088015	0.074006
C35	C	0.854312	-0.401651	-0.372486
C36	C	1.354312	0.098349	0.127514
C37	C	0.772513	-0.401660	-0.372498
C38	C	1.272513	0.098340	0.127502
C39	C	0.586737	-0.348433	-0.417271
C40	C	1.086737	0.151567	0.082729
C41	C	0.509878	-0.348440	-0.417274
C42	C	1.009878	0.151560	0.082726
C43	C	0.505049	-0.454943	-0.327742
C44	C	1.005049	0.045057	0.172258
C45	C	0.581907	-0.454931	-0.327736
C46	C	1.081907	0.045069	0.172264
C47	C	0.622749	-0.401677	-0.372505
C48	C	1.122749	0.098323	0.127495
C49	C	0.469032	-0.401696	-0.372514
C50	C	0.969032	0.098304	0.127486
C51	C	0.385698	-0.401704	-0.372516
C52	C	0.885698	0.098296	0.127484
C53	C	0.706088	-0.401668	-0.372501
C54	C	1.206088	0.098332	0.127499
C55	C	1.035739	-0.618285	-0.382163
C56	C	1.535739	-0.118285	0.117837
C57	C	1.031623	-0.710951	-0.386322
C58	C	1.531623	-0.210951	0.113678
C59	C	1.067050	-0.921893	-0.351084
C60	C	1.567050	-0.421893	0.148916
C61	C	1.024121	-0.880608	-0.393923
C62	C	1.524121	-0.380608	0.106077
C63	C	1.028296	-0.786202	-0.389692
C64	C	1.528296	-0.286202	0.110308
C65	C	1.062876	-1.016308	-0.355314
C66	C	1.562876	-0.516308	0.144686
C67	C	1.237469	-0.401703	-0.372514
C68	C	1.737469	0.098297	0.127486
C69	C	1.319267	-0.401714	-0.372520
C70	C	1.819267	0.098286	0.127480
C71	C	1.045565	-0.401619	-0.564450
C72	C	1.545565	0.098381	-0.064450
C73	C	1.045585	-0.401594	-0.646248
C74	C	1.545585	0.098406	-0.146248
C75	C	1.055354	-0.184222	-0.362814
C76	C	1.555354	0.315778	0.137186
C77	C	1.059546	-0.091555	-0.358687
C78	C	1.559546	0.408445	0.141313
C79	C	1.095085	-0.348228	-0.832070
C80	C	1.595085	0.151772	-0.332070
C81	C	1.095095	-0.348204	-0.908927
C82	C	1.595095	0.151796	-0.408927
C83	C	0.996143	-0.454831	-0.913659
C84	C	1.496143	0.045169	-0.413659
C85	C	0.996130	-0.454851	-0.836802
C86	C	1.496130	0.045149	-0.336802
C87	C	1.045605	-0.401551	-0.796010
C88	C	1.545605	0.098449	-0.296010
C89	C	1.045628	-0.401507	-0.949724
C90	C	1.545628	0.098493	-0.449724
C91	C	1.045638	-0.401481	-1.033056
C92	C	1.545638	0.098519	-0.533056
C93	C	1.045594	-0.401575	-0.712672
C94	C	1.545594	0.098425	-0.212672
C95	C	1.045515	-0.401673	-0.181293
C96	C	1.545515	0.098327	0.318707
C97	C	1.045648	-0.401463	-0.099485
C98	C	1.545648	0.098537	0.400515
H99	H	0.619988	-0.305068	-0.453722
H100	H	1.119988	0.194932	0.046278
H101	H	0.955863	-0.498228	-0.946881
H102	H	1.455863	0.001772	-0.446881
C103	C	0.941699	-0.513510	-0.797130
C104	C	1.441699	-0.013510	-0.297130
C105	C	0.887284	-0.572146	-0.841997
C106	C	1.387284	-0.072146	-0.341997
C107	C	0.832854	-0.630799	-0.802325
C108	C	1.332854	-0.130799	-0.302325
C109	C	0.832838	-0.630817	-0.717785
C110	C	1.332838	-0.130817	-0.217785
C111	C	0.887255	-0.572179	-0.672914
C112	C	1.387255	-0.072179	-0.172914
C113	C	0.941685	-0.513525	-0.712586
C114	C	1.441685	-0.013525	-0.212586
H115	H	0.887293	-0.572135	-0.904583
H116	H	1.387293	-0.072135	-0.404583
H117	H	0.792571	-0.674207	-0.835542
H118	H	1.292571	-0.174207	-0.335542
H119	H	0.792546	-0.674235	-0.688417
H120	H	1.292546	-0.174235	-0.188417
H121	H	0.887246	-0.572189	-0.610328
H122	H	1.387246	-0.072189	-0.110328
H123	H	0.981968	-0.470118	-0.679369
H124	H	1.481968	0.029882	-0.179369
H125	H	0.480561	-0.305082	-0.453726
H126	H	0.980561	0.194918	0.046274
C127	C	1.120927	-0.873867	-0.297243
C128	C	1.620927	-0.373867	0.202757
C129	C	1.170657	-0.921601	-0.247608
C130	C	1.670657	-0.421601	0.252392
C131	C	1.224531	-0.873564	-0.193765
C132	C	1.724531	-0.373564	0.306235
C133	C	1.228675	-0.777792	-0.189556
C134	C	1.728675	-0.277792	0.310444
C135	C	1.178943	-0.730053	-0.239192
C136	C	1.678943	-0.230053	0.260808
C137	C	1.125070	-0.778091	-0.293036
C138	C	1.625070	-0.278091	0.206964
H139	H	1.167591	-0.992502	-0.250722
H140	H	1.667591	-0.492502	0.249278
H141	H	1.261346	-0.908904	-0.157021
H142	H	1.761346	-0.408904	0.342979
H143	H	1.268556	-0.742232	-0.149698
H144	H	1.768556	-0.242232	0.350302
H145	H	1.182009	-0.659153	-0.236078
H146	H	1.682009	-0.159153	0.263922
H147	H	1.088255	-0.742750	-0.329780
H148	H	1.588255	-0.242750	0.170220
C149	C	0.460121	-0.513528	-0.278506
C150	C	0.960121	-0.013528	0.221494
C151	C	0.375580	-0.513549	-0.278514
C152	C	0.875580	-0.013549	0.221486
C153	C	0.330653	-0.572138	-0.229280
C154	C	0.830653	-0.072138	0.270720
C155	C	0.370267	-0.630706	-0.180036
C156	C	0.870267	-0.130706	0.319964
C157	C	0.454813	-0.630687	-0.180026
C158	C	0.954813	-0.130687	0.319974
C159	C	0.499740	-0.572098	-0.229261
C160	C	0.999740	-0.072098	0.270739
H161	H	0.346250	-0.470192	-0.314969
H162	H	0.846250	0.029808	0.185031
H163	H	0.268066	-0.572152	-0.229287
H164	H	0.768066	-0.072152	0.270713
H165	H	0.337010	-0.674077	-0.143590
H166	H	0.837010	-0.174077	0.356410
H167	H	0.484142	-0.674044	-0.143572
H168	H	0.984142	-0.174044	0.356428
H169	H	0.562326	-0.572084	-0.229254
H170	H	1.062326	-0.072084	0.270746
C171	C	0.621525	-0.513505	-0.278491
C172	C	1.121525	-0.013505	0.221509
C173	C	0.611238	-0.506587	-0.194531
C174	C	1.111238	-0.006587	0.305469
C175	C	0.650856	-0.565156	-0.145286
C176	C	1.150856	-0.065156	0.354714
C177	C	0.700761	-0.630643	-0.180001
C178	C	1.200761	-0.130643	0.319999
C179	C	0.711051	-0.637564	-0.263966
C180	C	1.211051	-0.137564	0.236034
C181	C	0.671432	-0.578995	-0.313211
C182	C	1.171432	-0.078995	0.186789
H183	H	0.574293	-0.458107	-0.168829
H184	H	1.074293	0.041893	0.331171
H185	H	0.643239	-0.560032	-0.083130
H186	H	1.143239	-0.060032	0.416870
H187	H	0.730089	-0.673999	-0.143547
H188	H	1.230089	-0.173999	0.356453
H189	H	0.747996	-0.686044	-0.289668
H190	H	1.247996	-0.186044	0.210332
H191	H	0.679049	-0.584119	-0.375367
H192	H	1.179049	-0.084119	0.124633
C193	C	0.970226	-0.928634	-0.447754
C194	C	1.470226	-0.428634	0.052246
C195	C	0.966066	-1.024406	-0.451957
C196	C	1.466066	-0.524406	0.048043
C197	C	0.912168	-1.072436	-0.505782
C198	C	1.412168	-0.572436	-0.005782
C199	C	0.862431	-1.024694	-0.555402
C200	C	1.362431	-0.524694	-0.055402
C201	C	0.866589	-0.928918	-0.551201
C202	C	1.366589	-0.428918	-0.051201
C203	C	0.920486	-0.880888	-0.497376
C204	C	1.420486	-0.380888	0.002624
H205	H	1.002886	-1.059751	-0.415223
H206	H	1.502886	-0.559751	0.084777
H207	H	0.909090	-1.143336	-0.508892
H208	H	1.409090	-0.643336	-0.008892
H209	H	0.822533	-1.060249	-0.595246
H210	H	1.322533	-0.560249	-0.095246
H211	H	0.829769	-0.893572	-0.587934
H212	H	1.329769	-0.393572	-0.087934
H213	H	0.923564	-0.809987	-0.494266
H214	H	1.423564	-0.309987	0.005734
H215	H	1.135369	-0.304826	-0.798858
H216	H	1.635369	0.195174	-0.298858
H217	H	1.135386	-0.304782	-0.938284
H218	H	1.635386	0.195218	-0.438284
