data_functionalizedCrystal
_audit_creation_method	'MofGen! by Chris Wilmer'
_symmetry_space_group_name_H-M	'P1'
_symmetry_Int_Tables_number	1
_symmetry_cell_setting	triclinic
loop_
_symmetry_equiv_pos_as_xyz
  x,y,z
_cell_length_a	12.827893
_cell_length_b	12.827892
_cell_length_c	12.759393
_cell_angle_alpha	89.969144
_cell_angle_beta	89.980487
_cell_angle_gamma	90.015363
loop_
_atom_site_label
_atom_site_type_symbol
_atom_site_fract_x
_atom_site_fract_y
_atom_site_fract_z
Zn1	Zn	1.597674	-0.415972	-0.594015
Zn2	Zn	1.597567	-0.590753	-0.418337
Zn3	Zn	1.422914	-0.416026	-0.418351
Zn4	Zn	1.422901	-0.590672	-0.593976
O5	O	1.510264	-0.503356	-0.506170
O6	O	1.743896	-0.439168	-0.570722
O7	O	1.574360	-0.567632	-0.271318
O8	O	1.446147	-0.269783	-0.441676
O9	O	1.743817	-0.567579	-0.441652
O10	O	1.574542	-0.269743	-0.570735
O11	O	1.446043	-0.439261	-0.271328
O12	O	1.276676	-0.439182	-0.441638
O13	O	1.446124	-0.567441	-0.741002
O14	O	1.276666	-0.567493	-0.570668
O15	O	1.574529	-0.439090	-0.741031
O16	O	1.574347	-0.736978	-0.441614
O17	O	1.446020	-0.736919	-0.570655
C18	C	1.238754	-0.503336	-0.506151
C19	C	1.122601	-0.503352	-0.506167
C20	C	0.950811	-0.439942	-0.570151
C21	C	1.070861	-0.439923	-0.570135
C22	C	1.510199	-0.774866	-0.506151
C23	C	1.510266	-0.891019	-0.506178
C24	C	1.573842	-0.942798	-0.442396
C25	C	1.573913	-1.062849	-0.442423
C26	C	1.782834	-0.503377	-0.506190
C27	C	1.898987	-0.503386	-0.506198
C28	C	1.510337	-0.503250	-0.780203
C29	C	1.510368	-0.503205	-0.896980
C30	C	1.510358	-0.230786	-0.506211
C31	C	1.510398	-0.114632	-0.506229
C32	C	1.577238	-0.436367	-0.951859
C33	C	1.577263	-0.436329	-1.061583
C34	C	1.443545	-0.569978	-1.061540
C35	C	1.443516	-0.570009	-0.951818
C36	C	1.654442	-0.359209	-0.951885
C37	C	1.654467	-0.359171	-1.061609
C38	C	1.510251	-0.503385	-0.233202
C39	C	1.510422	-0.503136	-0.116426
H40	H	0.906302	-0.385643	-0.624918
H41	H	1.455962	-1.070111	-0.560835
F42	F	1.616501	-0.258709	-1.106116
H43	H	1.455894	-0.935565	-0.560809
H44	H	1.389060	-0.624432	-0.907140
H45	H	0.943496	-0.557694	-0.451440
F46	F	1.645054	-1.121048	-0.371040
H47	H	1.389114	-0.624365	-1.106202
F48	F	1.760256	-0.387491	-1.100539
F49	F	1.626142	-0.253430	-0.912984
F50	F	1.754902	-0.397126	-0.907394
F51	F	1.064359	-0.574348	-0.434592
F52	F	1.129109	-0.368919	-0.641697
H53	H	1.628223	-0.898255	-0.387773
