data_functionalizedCrystal
_audit_creation_method	'MofGen! by Chris Wilmer'
_symmetry_space_group_name_H-M	'P1'
_symmetry_Int_Tables_number	1
_symmetry_cell_setting	triclinic
loop_
_symmetry_equiv_pos_as_xyz
  x,y,z
_cell_length_a	14.044191
_cell_length_b	16.109301
_cell_length_c	15.186229
_cell_angle_alpha	89.999006
_cell_angle_beta	90.000101
_cell_angle_gamma	91.673320
loop_
_atom_site_label
_atom_site_type_symbol
_atom_site_fract_x
_atom_site_fract_y
_atom_site_fract_z
O1	O	-0.121836	1.112198	-0.073173
O2	O	-0.136998	0.871264	-0.073185
O3	O	0.008567	0.988112	-0.073181
O4	O	-0.267400	0.995351	-0.073177
O5	O	0.008569	0.988103	0.073277
O6	O	-0.136996	0.871256	0.073273
O7	O	-0.121834	1.112189	0.073284
Zn8	Zn	-0.129414	0.991721	0.096532
Zn9	Zn	-0.129417	0.991732	-0.096432
O10	O	-0.267398	0.995342	0.073280
C11	C	-0.136383	0.840239	0.000042
C12	C	-0.134541	0.747807	0.000038
C13	C	-0.214897	0.444789	0.000054
C14	C	-0.216636	0.531639	0.000049
C15	C	-0.043928	0.538659	0.000035
C16	C	-0.042190	0.451810	0.000034
C17	C	-0.127677	0.404878	0.000048
C18	C	-0.131154	0.578576	0.000044
C19	C	-0.133039	0.672742	0.000038
C20	C	-0.125793	0.310706	0.000052
C21	C	-0.302713	0.998513	0.000052
C22	C	-0.407936	1.007959	0.000054
C23	C	-0.658238	0.958234	0.000044
C24	C	-0.600588	1.025215	0.000048
C25	C	-0.493387	1.015612	0.000051
C26	C	-0.765449	0.967837	0.000041
C27	C	0.043881	0.984940	0.000045
C28	C	0.149104	0.975494	0.000038
C29	C	-0.122449	1.143214	0.000055
C30	C	-0.124290	1.235646	0.000054
N31	N	-0.129412	0.991719	0.228224
N32	N	-0.129412	0.991740	-0.228125
C33	C	-0.064978	1.043480	0.453949
C34	C	-0.064975	1.043483	0.546139
C35	C	-0.193849	0.939974	0.546144
C36	C	-0.193846	0.939967	0.453956
C37	C	-0.129412	0.991725	0.407861
C38	C	-0.129412	0.991734	0.592239
C39	C	-0.129410	0.991736	0.692195
C40	C	-0.129412	0.991722	0.307898
H41	H	0.025672	0.576882	0.000026
C42	C	0.005900	1.100411	0.596836
H43	H	-0.003320	1.092997	0.658342
H44	H	-0.004410	1.156660	0.581725
H45	H	0.069166	1.086683	0.581726
C46	C	-0.616160	0.871028	0.000044
H47	H	-0.666426	0.830261	0.000036
H48	H	-0.578049	0.864507	0.051117
H49	H	-0.578049	0.864511	-0.051035
H50	H	-0.012510	1.085623	0.416420
H51	H	-0.246312	0.897835	0.583684
H52	H	0.028839	0.419314	0.000026
C53	C	-0.264730	0.883037	0.403256
H54	H	-0.303114	0.852221	0.443910
H55	H	-0.230619	0.845899	0.367297
H56	H	-0.304197	0.915875	0.367290
C57	C	-0.308928	0.393166	0.000055
H58	H	-0.361121	0.429378	0.000048
H59	H	-0.311843	0.359136	0.051125
H60	H	-0.311838	0.359145	-0.051027
C61	C	-0.312574	0.575542	0.000055
H62	H	-0.301370	0.633987	0.000044
H63	H	-0.347768	0.559868	0.051130
H64	H	-0.347771	0.559863	-0.051022
C65	C	-0.642670	1.112426	0.000066
H66	H	-0.710246	1.107526	0.000074
H67	H	-0.621871	1.141789	-0.050999
H68	H	-0.621867	1.141760	0.051153
