data_functionalizedCrystal
_audit_creation_method	'MofGen! by Chris Wilmer'
_symmetry_space_group_name_H-M	'P1'
_symmetry_Int_Tables_number	1
_symmetry_cell_setting	triclinic
loop_
_symmetry_equiv_pos_as_xyz
  x,y,z
_cell_length_a	10.908878
_cell_length_b	12.811415
_cell_length_c	9.482900
_cell_angle_alpha	94.039455
_cell_angle_beta	83.038437
_cell_angle_gamma	72.120565
loop_
_atom_site_label
_atom_site_type_symbol
_atom_site_fract_x
_atom_site_fract_y
_atom_site_fract_z
O1	O	1.719027	-0.178002	-0.097402
O2	O	1.347342	-0.097856	-0.107976
O3	O	1.539296	-0.289079	-0.082755
O4	O	1.527073	0.013220	-0.122623
O5	O	1.500310	-0.250109	0.153898
O6	O	1.308356	-0.058886	0.128677
O7	O	1.680041	-0.139032	0.139251
Cu8	Cu	1.490638	-0.095401	0.155572
Cu9	Cu	1.536745	-0.141487	-0.124297
O10	O	1.488087	0.052191	0.114030
C11	C	1.280211	-0.070881	0.009362
C12	C	1.138265	-0.048575	0.006419
C13	C	1.087044	-0.129965	0.017152
C14	C	0.940336	-0.106913	0.014110
C15	C	1.517923	-0.307687	0.040592
C16	C	1.512306	-0.421192	0.055552
C17	C	1.544237	-0.676953	-0.174366
C18	C	1.538960	-0.783602	-0.160317
C19	C	1.496468	-0.741137	0.097698
C20	C	1.501745	-0.634488	0.083649
C21	C	1.525631	-0.602402	-0.052388
C22	C	1.530917	-0.495753	-0.066435
C23	C	1.488416	-0.453288	0.191578
C24	C	1.483139	-0.559937	0.205627
C25	C	1.747172	-0.166008	0.021910
C26	C	1.889120	-0.188315	0.024844
C27	C	1.509460	0.070799	-0.009320
C28	C	1.515079	0.184301	-0.024289
N29	N	1.458219	-0.062988	0.352417
N30	N	1.569174	-0.173910	-0.321141
C31	C	1.527173	-0.131931	0.433710
C32	C	1.500209	-0.104957	0.597569
H33	H	1.550371	-0.469632	-0.177203
O34	O	1.405789	-0.010792	0.659188
C35	C	1.284669	-0.011463	0.622187
H36	H	1.288252	-0.100175	0.591944
H37	H	1.262997	0.037739	0.527471
C38	C	1.172399	0.150134	0.787712
C39	C	1.176796	0.041175	0.750579
H40	H	1.105855	0.182608	0.866907
H41	H	1.253999	0.150589	0.812638
H42	H	1.154343	0.191122	0.708771
H43	H	1.194867	0.000187	0.829513
H44	H	1.095195	0.040714	0.725670
H45	H	0.875580	-0.020161	0.002662
H46	H	1.606166	-0.210929	0.382001
O47	O	1.663125	-0.268337	0.617202
C48	C	1.606575	-0.333770	0.538044
H49	H	1.511557	-0.279099	0.508056
H50	H	1.585866	-0.398425	0.605407
C51	C	1.817831	-0.458904	0.437919
C52	C	1.701134	-0.391755	0.401076
H53	H	1.876160	-0.494677	0.353434
H54	H	1.855931	-0.414823	0.491253
H55	H	1.800555	-0.512774	0.494057
H56	H	1.718408	-0.337878	0.344955
H57	H	1.663039	-0.435828	0.347729
H58	H	1.379217	0.016004	0.404129
H59	H	1.151806	-0.216714	0.028586
H60	H	1.563698	-0.650831	-0.285132
O61	O	0.966522	-0.291801	0.038297
C62	C	1.064596	-0.329790	-0.081939
H63	H	1.080158	-0.256171	-0.133397
H64	H	1.033675	-0.383339	-0.162564
C65	C	1.173362	-0.488819	0.028348
C66	C	1.192483	-0.398399	-0.034847
H67	H	1.252248	-0.531144	0.057393
H68	H	1.107286	-0.463228	0.109351
H69	H	1.147591	-0.533430	-0.038851
H70	H	1.218238	-0.353782	0.032356
H71	H	1.258567	-0.423984	-0.115839
O72	O	1.061118	0.054993	-0.007049
C73	C	1.065669	0.128571	0.108492
H74	H	1.159409	0.092854	0.154957
H75	H	0.978256	0.141092	0.194525
C76	C	0.946958	0.284146	-0.001350
C77	C	1.062097	0.240282	0.055712
H78	H	0.944749	0.353056	-0.033904
H79	H	0.943887	0.234575	-0.079191
H80	H	0.874126	0.294570	0.070354
H81	H	1.134926	0.229845	-0.015997
H82	H	1.065180	0.289853	0.133539
H83	H	1.554106	-0.844298	-0.259645
H84	H	1.477010	-0.767279	0.208452
H85	H	1.463686	-0.586076	0.316384
H86	H	1.473270	-0.392577	0.290902
