data_functionalizedCrystal
_audit_creation_method	'MofGen! by Chris Wilmer'
_symmetry_space_group_name_H-M	'P1'
_symmetry_Int_Tables_number	1
_symmetry_cell_setting	triclinic
loop_
_symmetry_equiv_pos_as_xyz
  x,y,z
_cell_length_a	12.759395
_cell_length_b	29.839131
_cell_length_c	29.839125
_cell_angle_alpha	89.982291
_cell_angle_beta	89.990135
_cell_angle_gamma	90.042957
loop_
_atom_site_label
_atom_site_type_symbol
_atom_site_fract_x
_atom_site_fract_y
_atom_site_fract_z
Zn1	Zn	1.605963	-0.178898	-0.253980
Zn2	Zn	1.605805	-0.254010	-0.178850
Zn3	Zn	1.430294	-0.178897	-0.178865
Zn4	Zn	1.430172	-0.254004	-0.253954
O5	O	1.518058	-0.216452	-0.216412
O6	O	1.752963	-0.188865	-0.244018
O7	O	1.582507	-0.244048	-0.115985
O8	O	1.453714	-0.116030	-0.188847
O9	O	1.752847	-0.244049	-0.188820
O10	O	1.582778	-0.116031	-0.244033
O11	O	1.453561	-0.188863	-0.115996
O12	O	1.283257	-0.188857	-0.188822
O13	O	1.453506	-0.244039	-0.316825
O14	O	1.283167	-0.244037	-0.243989
O15	O	1.582659	-0.188859	-0.316844
O16	O	1.582389	-0.316876	-0.188795
O17	O	1.453352	-0.316872	-0.243974
C18	C	1.245091	-0.216447	-0.216405
C19	C	1.128314	-0.216455	-0.216412
C20	C	1.128259	-0.274008	-0.273765
C21	C	1.073371	-0.302787	-0.302442
C22	C	0.963649	-0.302793	-0.302448
C23	C	0.908813	-0.274014	-0.273774
C24	C	0.963702	-0.245235	-0.245096
C25	C	1.073426	-0.245233	-0.245093
C26	C	0.963757	-0.187681	-0.187746
C27	C	1.073478	-0.187677	-0.187738
C28	C	0.908921	-0.158902	-0.159072
C29	C	0.963809	-0.130124	-0.130391
C30	C	1.073537	-0.130120	-0.130386
C31	C	1.128367	-0.158897	-0.159060
C32	C	1.517869	-0.333175	-0.216390
C33	C	1.517884	-0.383109	-0.216395
C34	C	1.585370	-0.692742	-0.187723
C35	C	1.585500	-0.880415	-0.187740
O36	O	1.642728	-0.904671	-0.163344
N37	N	1.518276	-0.903894	-0.216446
C38	C	1.451021	-0.880452	-0.245152
O39	O	1.393854	-0.904728	-0.269572
C40	C	1.450897	-0.692780	-0.245136
C41	C	1.518117	-0.669303	-0.216425
C42	C	1.652585	-0.669266	-0.159014
C43	C	1.652548	-0.622350	-0.159008
C44	C	1.585296	-0.598911	-0.187711
C45	C	1.518080	-0.622388	-0.216420
C46	C	1.383647	-0.669338	-0.273844
C47	C	1.383624	-0.622417	-0.273839
C48	C	1.450844	-0.598941	-0.245127
C49	C	1.450790	-0.552033	-0.245116
N50	N	1.518014	-0.528555	-0.216410
C51	C	1.585266	-0.551993	-0.187708
C52	C	1.451089	-0.978982	-0.245157
C53	C	1.451118	-1.025900	-0.245161
C54	C	1.585599	-1.025860	-0.187749
C55	C	1.585563	-0.978942	-0.187744
C56	C	1.518312	-0.955504	-0.216451
C57	C	1.585183	-0.453468	-0.187697
C58	C	1.585136	-0.406548	-0.187693
C59	C	1.450660	-0.406592	-0.245106
C60	C	1.450702	-0.453507	-0.245109
C61	C	1.517972	-0.476944	-0.216403
O62	O	1.393600	-0.527748	-0.269503
O63	O	1.642441	-0.527709	-0.163298
C64	C	1.585407	-0.739658	-0.187728
C65	C	1.518191	-0.763134	-0.216437
C66	C	1.450939	-0.739695	-0.245140
C67	C	1.518221	-0.810052	-0.216440
C68	C	1.585474	-0.833491	-0.187738
C69	C	1.652697	-0.810012	-0.159032
C70	C	1.652660	-0.763097	-0.159026
C71	C	1.383715	-0.763174	-0.273846
C72	C	1.383757	-0.810089	-0.273849
C73	C	1.451010	-0.833528	-0.245146
C74	C	1.792092	-0.216458	-0.216420
C75	C	1.908868	-0.216460	-0.216424
C76	C	1.518087	-0.216448	-0.333591
C77	C	1.518099	-0.216446	-0.383525
C78	C	1.518277	-0.099274	-0.216444
C79	C	1.518371	-0.049339	-0.216458
C80	C	1.585420	-0.187639	-0.693181
C81	C	1.585472	-0.187601	-0.880855
O82	O	1.642632	-0.163150	-0.905130
N83	N	1.518238	-0.216326	-0.904310
C84	C	1.450982	-0.245061	-0.880845
O85	O	1.393789	-0.269489	-0.905102
C86	C	1.450925	-0.245097	-0.693173
C87	C	1.518171	-0.216373	-0.669719
C88	C	1.652659	-0.158917	-0.669728
C89	C	1.652649	-0.158928	-0.622813
C90	C	1.585400	-0.187662	-0.599351
C91	C	1.518161	-0.216384	-0.622804
C92	C	1.383665	-0.273829	-0.669708
C93	C	1.383655	-0.273835	-0.622787
C94	C	1.450900	-0.245110	-0.599334
C95	C	1.450903	-0.245129	-0.552426
N96	N	1.518136	-0.216404	-0.528971
C97	C	1.585385	-0.187670	-0.552433
C98	C	1.451018	-0.245041	-0.979376
C99	C	1.451033	-0.245032	-1.026294
C100	C	1.585522	-0.187571	-1.026300
C101	C	1.585511	-0.187582	-0.979381
C102	C	1.518252	-0.216315	-0.955920
C103	C	1.585360	-0.187697	-0.453907
C104	C	1.585348	-0.187713	-0.406987
C105	C	1.450856	-0.245172	-0.406985
C106	C	1.450872	-0.245158	-0.453900
C107	C	1.518127	-0.216417	-0.477360
O108	O	1.393764	-0.269564	-0.528122
O109	O	1.642553	-0.163238	-0.528168
C110	C	1.585429	-0.187627	-0.740097
C111	C	1.518190	-0.216349	-0.763550
C112	C	1.450941	-0.245083	-0.740088
C113	C	1.518205	-0.216341	-0.810468
C114	C	1.585454	-0.187607	-0.833930
C115	C	1.652688	-0.158882	-0.810474
C116	C	1.652678	-0.158894	-0.763559
C117	C	1.383708	-0.273808	-0.763544
C118	C	1.383724	-0.273795	-0.810460
C119	C	1.450973	-0.245061	-0.833922
C120	C	1.518091	-0.216424	-0.099690
C121	C	1.518282	-0.216299	-0.049756
H122	H	1.639962	-0.472544	-0.164323
H123	H	1.217708	-0.158898	-0.159057
C124	C	1.726610	-0.127327	-0.597020
H125	H	1.766649	-0.110212	-0.617718
H126	H	1.772356	-0.144512	-0.578715
H127	H	1.686445	-0.107753	-0.578721
C128	C	1.726675	-0.835799	-0.127459
H129	H	1.766704	-0.815101	-0.110356
H130	H	1.772430	-0.854074	-0.144666
H131	H	1.686521	-0.854128	-0.107871
C132	C	1.659314	-0.156112	-0.381191
H133	H	1.699356	-0.138995	-0.401887
H134	H	1.705059	-0.173300	-0.362888
H135	H	1.619149	-0.136539	-0.362890
H136	H	1.328946	-0.297208	-0.744446
C137	C	1.726645	-0.127310	-0.695529
H138	H	1.766687	-0.110210	-0.674835
H139	H	1.686515	-0.107727	-0.713836
H140	H	1.772404	-0.144496	-0.713827
H141	H	1.217600	-0.274009	-0.273760
C142	C	1.133691	-0.334441	-0.333982
H143	H	1.206899	-0.330321	-0.329870
H144	H	1.115738	-0.327917	-0.364180
H145	H	1.115658	-0.364618	-0.327346
H146	H	0.918959	-0.326226	-0.325802
C147	C	1.133911	-0.098461	-0.098842
H148	H	1.207112	-0.102577	-0.102946
H149	H	1.115897	-0.104985	-0.068645
H150	H	1.115980	-0.068287	-0.105481
H151	H	1.707356	-0.688345	-0.135641
C152	C	0.788123	-0.274019	-0.273782
H153	H	0.763288	-0.295281	-0.294967
H154	H	0.763352	-0.245041	-0.281606
H155	H	0.763271	-0.281746	-0.244776
H156	H	0.819580	-0.158907	-0.159080
C157	C	0.903490	-0.098472	-0.098854
H158	H	0.830284	-0.102597	-0.102965
H159	H	0.921526	-0.068297	-0.105483
H160	H	0.921435	-0.105002	-0.068653
H161	H	1.639875	-0.387435	-0.164311
C162	C	1.726504	-0.596532	-0.127431
H163	H	1.766565	-0.617217	-0.110344
H164	H	1.686349	-0.578253	-0.107837
H165	H	1.772246	-0.578205	-0.144636
C166	C	1.377080	-0.276634	-1.052089
H167	H	1.386721	-0.272520	-1.083393
H168	H	1.306500	-0.270062	-1.044399
H169	H	1.392411	-0.306821	-1.044394
H170	H	1.707436	-0.135503	-0.744467
H171	H	1.328861	-0.603336	-0.297217
H172	H	1.707397	-0.743986	-0.135647
H173	H	1.328966	-0.297190	-0.829551
H174	H	1.396107	-0.268567	-0.387874
H175	H	1.396125	-0.268552	-0.472997
H176	H	1.640267	-0.164192	-0.960289
H177	H	1.395969	-0.472623	-0.268489
C178	C	1.726661	-0.127276	-0.836289
H179	H	1.717024	-0.131385	-0.867590
H180	H	1.797240	-0.133852	-0.828604
H181	H	1.711333	-0.097090	-0.828605
H182	H	1.395900	-0.387501	-0.268474
H183	H	1.328904	-0.688445	-0.297222
C184	C	1.659513	-0.953122	-0.156166
H185	H	1.699571	-0.973805	-0.139075
H186	H	1.619352	-0.934842	-0.136574
H187	H	1.705258	-0.934795	-0.173370
H188	H	1.396371	-1.045011	-0.268536
H189	H	1.329009	-0.829200	-0.297228
C190	C	1.659581	-1.051647	-0.156178
H191	H	1.699615	-1.030948	-0.139078
H192	H	1.705331	-1.069923	-0.173386
H193	H	1.619431	-1.069975	-0.136588
C194	C	1.309693	-0.305453	-0.596982
H195	H	1.269664	-0.322562	-0.617673
H196	H	1.263937	-0.288281	-0.578674
H197	H	1.349867	-0.325033	-0.578686
C198	C	1.309684	-0.305422	-0.695497
H199	H	1.269626	-0.322528	-0.674798
H200	H	1.349822	-0.324998	-0.713801
H201	H	1.263939	-0.288226	-0.713797
C202	C	1.377096	-0.953206	-0.276733
H203	H	1.337062	-0.973913	-0.293823
H204	H	1.417227	-0.934877	-0.296325
H205	H	1.331330	-0.934933	-0.259525
C206	C	1.309725	-0.737397	-0.305417
H207	H	1.269693	-0.758104	-0.322509
H208	H	1.349852	-0.719065	-0.325007
H209	H	1.263956	-0.719126	-0.288207
H210	H	1.640279	-0.164176	-1.045411
C211	C	1.377030	-0.276650	-0.953574
H212	H	1.337002	-0.293757	-0.974267
H213	H	1.331273	-0.259470	-0.935273
H214	H	1.417177	-0.296233	-0.935270
C215	C	1.659348	-0.156086	-0.479706
H216	H	1.699394	-0.138988	-0.459013
H217	H	1.619213	-0.136503	-0.498010
H218	H	1.705103	-0.173272	-0.498006
