data_functionalizedCrystal
_audit_creation_method	'MofGen! by Chris Wilmer'
_symmetry_space_group_name_H-M	'P1'
_symmetry_Int_Tables_number	1
_symmetry_cell_setting	triclinic
loop_
_symmetry_equiv_pos_as_xyz
  x,y,z
_cell_length_a	14.044220
_cell_length_b	17.038275
_cell_length_c	13.101039
_cell_angle_alpha	93.601678
_cell_angle_beta	93.667477
_cell_angle_gamma	87.850425
loop_
_atom_site_label
_atom_site_type_symbol
_atom_site_fract_x
_atom_site_fract_y
_atom_site_fract_z
O1	O	0.202072	-1.055807	-0.085240
O2	O	0.198788	-0.827946	-0.085237
O3	O	0.062170	-0.938456	-0.085228
O4	O	0.338690	-0.945297	-0.085249
O5	O	0.071990	-0.930528	0.085201
O6	O	0.208608	-0.820019	0.085192
O7	O	0.211891	-1.047879	0.085189
Zn8	Zn	0.211808	-0.932690	0.112250
Zn9	Zn	0.198871	-0.943135	-0.112298
O10	O	0.348509	-0.937370	0.085180
C11	C	0.200709	-0.794645	-0.000022
C12	C	0.191791	-0.707228	-0.000021
C13	C	0.031524	-0.931498	-0.000013
C14	C	-0.074422	-0.922567	-0.000012
C15	C	-0.268400	-0.906239	-0.000027
C16	C	-0.320927	-0.969584	-0.000030
C17	C	-0.428863	-0.960499	-0.000039
C18	C	-0.160454	-0.915323	-0.000019
C19	C	0.137004	-0.212983	-0.000015
C20	C	0.145391	-0.295120	-0.000011
C21	C	0.235665	-0.332870	-0.000022
C22	C	0.317559	-0.288478	-0.000028
C23	C	0.309172	-0.206342	-0.000026
C24	C	0.265297	-0.580700	-0.000024
C25	C	0.273678	-0.662842	-0.000030
C26	C	0.101509	-0.669479	-0.000011
C27	C	0.093129	-0.587342	-0.000014
C28	C	0.175023	-0.542957	-0.000015
C29	C	0.244240	-0.416827	-0.000021
C30	C	0.166448	-0.459001	-0.000009
C31	C	0.379155	-0.944328	-0.000037
C32	C	0.485101	-0.953260	-0.000045
N33	N	0.220638	-0.925568	0.265498
C34	C	0.209971	-0.081181	-0.000025
C35	C	0.218891	-0.168597	-0.000024
N36	N	0.190034	-0.950264	-0.265546
C37	C	0.232660	-0.915877	0.474540
C38	C	0.178016	-0.959952	0.525419
C39	C	0.184705	-0.954560	0.641737
C40	C	0.225972	-0.921268	0.358211
H41	H	-0.284837	-1.030642	-0.000100
H42	H	0.126211	-1.001735	0.481620
C43	C	0.302621	-0.859417	0.533695
H44	H	0.336019	-0.832461	0.486479
H45	H	0.346912	-0.888601	0.575557
H46	H	0.268079	-0.822341	0.575543
C47	C	-0.317153	-0.823764	-0.000017
H48	H	-0.384353	-0.828401	-0.000012
H49	H	-0.302019	-0.798763	-0.059443
H50	H	-0.295180	-0.793250	0.059430
H51	H	0.375854	-0.170203	-0.000029
H52	H	0.092946	-0.428262	-0.000011
H53	H	0.317742	-0.447572	-0.000033
C54	C	0.355377	-0.531887	-0.000034
H55	H	0.410339	-0.566136	-0.000053
H56	H	0.359116	-0.496944	0.059400
H57	H	0.352257	-0.502473	-0.059473
C58	C	0.037701	-0.171466	-0.000002
H59	H	-0.009866	-0.209667	0.000014
H60	H	0.027419	-0.142326	-0.059432
H61	H	0.034280	-0.136800	0.059441
C62	C	0.055314	-0.343942	-0.000002
H63	H	0.000348	-0.309697	-0.000007
H64	H	0.058431	-0.373355	0.059431
H65	H	0.051582	-0.378887	-0.059441
H66	H	0.034836	-0.705626	-0.000009
C67	C	-0.006173	-0.545822	0.000011
H68	H	-0.053741	-0.584021	0.000027
H69	H	-0.016455	-0.516681	-0.059417
H70	H	-0.009588	-0.511158	0.059455
C71	C	0.416861	-0.329996	-0.000044
H72	H	0.464430	-0.291795	-0.000041
H73	H	0.420283	-0.364662	-0.059480
H74	H	0.427141	-0.359136	0.059393
H75	H	0.347195	-0.693574	-0.000025
