data_functionalizedCrystal
_audit_creation_method	'MofGen! by Chris Wilmer'
_symmetry_space_group_name_H-M	'P1'
_symmetry_Int_Tables_number	1
_symmetry_cell_setting	triclinic
loop_
_symmetry_equiv_pos_as_xyz
  x,y,z
_cell_length_a	18.050591
_cell_length_b	18.050589
_cell_length_c	8.497374
_cell_angle_alpha	90.007082
_cell_angle_beta	89.999191
_cell_angle_gamma	90.027061
loop_
_atom_site_label
_atom_site_type_symbol
_atom_site_fract_x
_atom_site_fract_y
_atom_site_fract_z
Zn1	Zn	1.135209	-0.295811	0.891865
Zn2	Zn	1.135145	-0.419970	0.628073
Zn3	Zn	1.011053	-0.295796	0.628103
Zn4	Zn	1.010976	-0.419961	0.891817
O5	O	1.073096	-0.357885	0.759965
O6	O	1.239125	-0.312291	0.856880
O7	O	1.118689	-0.403496	0.407315
O8	O	1.027582	-0.191874	0.663125
O9	O	1.239078	-0.403510	0.663073
O10	O	1.118799	-0.191885	0.856909
O11	O	1.027519	-0.312266	0.407337
O12	O	0.907118	-0.312257	0.663078
O13	O	1.027451	-0.403495	1.112585
O14	O	0.907062	-0.403481	0.856827
O15	O	1.118724	-0.312282	1.112620
O16	O	1.118614	-0.523894	0.663027
O17	O	1.027388	-0.523887	0.856798
C18	C	0.880144	-0.357867	0.759952
C19	C	0.797598	-0.357877	0.759983
C20	C	1.073006	-0.550837	0.759938
C21	C	1.073036	-0.633383	0.759980
C22	C	0.548763	-0.407587	0.865201
C23	C	0.598147	-0.425645	0.721209
C24	C	0.500478	-0.357900	0.759981
C25	C	0.598176	-0.339866	0.903965
C26	C	0.646463	-0.357890	0.759990
C27	C	0.548774	-0.375993	0.615913
C28	C	0.548798	-0.290183	0.798766
C29	C	0.598160	-0.308215	0.654675
C30	C	0.416379	-0.357908	0.759978
C31	C	0.730559	-0.357883	0.759976
C32	C	1.023476	-0.832857	0.865316
C33	C	1.005391	-0.882277	0.721364
C34	C	1.073109	-0.784513	0.760000
C35	C	1.091230	-0.882174	0.903969
C36	C	1.073178	-0.930498	0.760033
C37	C	1.054989	-0.832846	0.615972
C38	C	1.140858	-0.832739	0.798675
C39	C	1.122800	-0.882137	0.654623
C40	C	1.073067	-0.700415	0.759984
C41	C	1.073220	-1.014595	0.760033
C42	C	1.266801	-0.357904	0.759978
C43	C	1.349347	-0.357911	0.759984
C44	C	1.073090	-0.357886	1.171445
C45	C	1.073092	-0.357894	1.350089
C46	C	1.073206	-0.164179	0.760025
C47	C	1.073253	-0.081633	0.760051
H48	H	0.619823	-0.482908	0.688395
H49	H	0.619876	-0.324616	1.025727
H50	H	0.527164	-0.391312	0.494117
C51	C	0.519692	-0.463591	0.983673
C52	C	0.442135	-0.462398	0.983155
C53	C	0.415328	-0.513973	1.092278
H54	H	0.536509	-0.511717	0.955998
H55	H	0.537291	-0.451250	1.085737
H56	H	0.424543	-0.474744	0.881114
H57	H	0.425298	-0.414285	1.010848
H58	H	0.432927	-0.501631	1.194342
H59	H	0.432151	-0.562095	1.064592
H60	H	0.362704	-0.513165	1.091951
H61	H	0.619711	-0.266192	0.565595
C62	C	0.519904	-0.213878	0.842892
C63	C	0.544876	-0.195287	0.993820
C64	C	0.518263	-0.125005	1.034548
H65	H	0.537535	-0.178379	0.769349
H66	H	0.467276	-0.214318	0.841708
H67	H	0.597493	-0.194841	0.994991
H68	H	0.527247	-0.230766	1.067396
H69	H	0.465635	-0.125445	1.033364
H70	H	0.535896	-0.089513	0.960996
H71	H	0.535196	-0.112385	1.136961
C72	C	0.967487	-0.804100	0.984132
C73	C	0.985886	-0.830181	1.134292
C74	C	0.934319	-0.803713	1.243772
H75	H	0.968120	-0.751479	0.984172
H76	H	0.919389	-0.821087	0.956507
H77	H	1.033971	-0.813190	1.161910
H78	H	0.985247	-0.882799	1.134303
H79	H	0.886222	-0.820701	1.216147
H80	H	0.934956	-0.751094	1.243798
H81	H	0.946792	-0.821411	1.345665
C82	C	1.217259	-0.803804	0.842126
C83	C	1.269292	-0.829876	0.733217
C84	C	1.339681	-0.803244	0.773225
H85	H	1.216892	-0.751186	0.840818
H86	H	1.230083	-0.820686	0.944451
H87	H	1.256471	-0.812990	0.630918
H88	H	1.269682	-0.882491	0.734508
H89	H	1.352505	-0.820126	0.875550
H90	H	1.339306	-0.750626	0.771917
H91	H	1.374995	-0.820935	0.699346
C92	C	0.928984	-0.911253	0.678051
C93	C	0.877207	-0.886306	0.788684
C94	C	0.806814	-0.912988	0.748859
H95	H	0.915694	-0.893655	0.576564
H96	H	0.929646	-0.963881	0.677504
H97	H	0.876543	-0.833689	0.789216
H98	H	0.890473	-0.903902	0.890180
H99	H	0.807475	-0.965616	0.748311
H100	H	0.793531	-0.895388	0.647370
H101	H	0.771676	-0.896071	0.823924
H102	H	1.039623	-0.811268	0.494199
H103	H	1.164802	-0.903640	0.565473
C104	C	1.111786	-0.911023	1.066239
C105	C	1.182208	-0.884862	1.107369
C106	C	1.201167	-0.911427	1.256833
H107	H	1.076524	-0.894167	1.141082
H108	H	1.112153	-0.963650	1.064873
H109	H	1.181836	-0.832246	1.108747
H110	H	1.217486	-0.901716	1.032567
H111	H	1.201533	-0.964055	1.255466
H112	H	1.165900	-0.894570	1.331662
H113	H	1.248952	-0.893687	1.284752
