data_functionalizedCrystal
_audit_creation_method	'MofGen! by Chris Wilmer'
_symmetry_space_group_name_H-M	'P1'
_symmetry_Int_Tables_number	1
_symmetry_cell_setting	triclinic
loop_
_symmetry_equiv_pos_as_xyz
  x,y,z
_cell_length_a	10.723023
_cell_length_b	8.140239
_cell_length_c	9.065218
_cell_angle_alpha	89.998314
_cell_angle_beta	95.258283
_cell_angle_gamma	90.002262
loop_
_atom_site_label
_atom_site_type_symbol
_atom_site_fract_x
_atom_site_fract_y
_atom_site_fract_z
O1	O	1.658027	0.136589	-0.206934
O2	O	1.294955	0.136596	-0.226743
O3	O	1.483995	0.136589	-0.002154
O4	O	1.468986	0.136596	-0.431524
O5	O	1.483985	-0.136638	-0.002151
O6	O	1.294944	-0.136631	-0.226741
O7	O	1.658016	-0.136638	-0.206932
Zn8	Zn	1.476478	-0.180015	-0.216836
Zn9	Zn	1.476492	0.179973	-0.216839
O10	O	1.468975	-0.136631	-0.431521
C11	C	1.248444	-0.000017	-0.225301
C12	C	1.109872	-0.000014	-0.220989
N13	N	1.476478	-0.425698	-0.216833
C14	C	1.048087	-0.141553	-0.219065
C15	C	0.904865	-0.141553	-0.214607
C16	C	1.704527	-0.000021	-0.208374
C17	C	1.843099	-0.000013	-0.212687
C18	C	1.482547	-0.000022	0.052826
C19	C	1.478234	-0.000014	0.216644
N20	N	1.476502	0.425656	-0.216831
C21	C	1.470423	-0.000016	-0.486501
C22	C	1.474736	-0.000014	-0.650319
H23	H	1.101222	-0.262729	-0.220709
O24	O	0.841460	-0.286083	-0.212366
C25	C	0.778803	-0.294850	-0.082479
H26	H	0.826991	-0.210392	0.005452
H27	H	0.781456	-0.426576	-0.039605
H28	H	0.677296	-0.254672	-0.108251
O29	O	0.906586	0.144459	-0.214863
C30	C	0.969190	0.153265	-0.344788
H31	H	0.984334	0.023916	-0.387919
H32	H	1.063665	0.216145	-0.318954
H33	H	0.910198	0.226852	-0.432551
H34	H	1.056738	0.121161	-0.219332
