data_functionalizedCrystal
_audit_creation_method	'MofGen! by Chris Wilmer'
_symmetry_space_group_name_H-M	'P1'
_symmetry_Int_Tables_number	1
_symmetry_cell_setting	triclinic
loop_
_symmetry_equiv_pos_as_xyz
  x,y,z
_cell_length_a	15.944551
_cell_length_b	15.944551
_cell_length_c	16.776229
_cell_angle_alpha	89.997350
_cell_angle_beta	90.001761
_cell_angle_gamma	96.501262
loop_
_atom_site_label
_atom_site_type_symbol
_atom_site_fract_x
_atom_site_fract_y
_atom_site_fract_z
O1	O	-0.108334	1.114527	-0.066196
O2	O	-0.121690	0.869977	-0.066215
O3	O	0.007263	0.998930	-0.066210
O4	O	-0.237287	0.985574	-0.066202
O5	O	0.007271	0.998913	0.066367
O6	O	-0.121682	0.869960	0.066361
O7	O	-0.108326	1.114510	0.066380
Zn8	Zn	-0.115003	0.992232	0.087420
Zn9	Zn	-0.115013	0.992255	-0.087255
O10	O	-0.237279	0.985557	0.066375
C11	C	-0.121132	0.838675	0.000071
C12	C	-0.119470	0.745429	0.000063
C13	C	-0.035565	0.530572	0.000076
C14	C	-0.074531	0.469561	-0.065290
C15	C	-0.116462	0.574703	0.000072
C16	C	-0.074543	0.469566	0.065420
C17	C	-0.113551	0.409790	0.000085
C18	C	-0.155451	0.514920	-0.065347
C19	C	-0.155451	0.514931	0.065421
C20	C	-0.194476	0.453937	0.000039
C21	C	-0.118137	0.669705	0.000065
C22	C	-0.111883	0.314789	0.000087
C23	C	-0.268577	0.986120	0.000088
C24	C	-0.361823	0.987782	0.000091
C25	C	-0.576680	1.071687	0.000086
C26	C	-0.637692	1.032716	0.065451
C27	C	-0.532549	0.990790	0.000085
C28	C	-0.637685	1.032714	-0.065259
C29	C	-0.697462	0.993700	0.000074
C30	C	-0.592333	0.951797	0.065503
C31	C	-0.592320	0.951806	-0.065265
C32	C	-0.653315	0.912776	0.000115
C33	C	-0.437547	0.989115	0.000091
C34	C	-0.792463	0.995369	0.000074
C35	C	0.038561	0.998367	0.000076
C36	C	0.131807	0.996705	0.000067
C37	C	-0.108885	1.145813	0.000093
C38	C	-0.110547	1.239059	0.000095
N39	N	-0.114995	0.992223	0.206631
N40	N	-0.115014	0.992271	-0.206466
C41	C	-0.057918	1.049341	0.248351
C42	C	-0.057918	1.049346	0.331803
C43	C	-0.114999	0.992236	0.373534
C44	C	-0.172078	0.935112	0.331809
C45	C	-0.172074	0.935104	0.248358
C46	C	-0.172095	0.935142	0.668356
C47	C	-0.172096	0.935157	0.751813
C48	C	-0.057938	1.049384	0.751801
C49	C	-0.057934	1.049376	0.668350
C50	C	-0.115010	0.992250	0.626632
C51	C	-0.115009	0.992244	0.536144
C52	C	-0.115004	0.992245	0.464021
H53	H	0.031573	0.563905	-0.000007
O54	O	-0.233660	0.873539	0.623364
H55	H	-0.273358	0.833838	0.666405
O56	O	-0.200728	0.541611	0.138624
H57	H	-0.167012	0.523663	0.192808
O58	O	-0.565626	0.906563	-0.138483
H59	H	-0.622013	0.885774	-0.175290
H60	H	-0.189645	0.534914	-0.120669
O61	O	-0.029208	0.442954	0.138626
H62	H	0.036728	0.473958	0.138481
H63	H	-0.543374	1.138836	0.000155
O64	O	-0.664338	1.078024	0.138654
H65	H	-0.633354	1.143968	0.138525
O66	O	-0.283501	0.410019	0.000010
H67	H	-0.316875	0.428184	-0.054298
O68	O	-0.029218	0.442915	-0.138490
H69	H	0.036726	0.473898	-0.138358
H70	H	-0.572338	0.917600	0.120824
H71	H	-0.218551	0.888592	0.214391
H72	H	-0.686473	0.845569	0.000147
H73	H	-0.011461	1.095897	0.785777
H74	H	-0.218552	0.888608	0.365791
H75	H	-0.218580	0.888648	0.785789
O76	O	-0.664296	1.078053	-0.138464
H77	H	-0.633291	1.143989	-0.138316
H78	H	-0.011440	1.095850	0.214379
H79	H	-0.011441	1.095855	0.365771
O80	O	0.003643	1.110966	0.623344
H81	H	-0.005945	1.101366	0.558307
