data_functionalizedCrystal
_audit_creation_method	'MofGen! by Chris Wilmer'
_symmetry_space_group_name_H-M	'P1'
_symmetry_Int_Tables_number	1
_symmetry_cell_setting	triclinic
loop_
_symmetry_equiv_pos_as_xyz
  x,y,z
_cell_length_a	19.288864
_cell_length_b	14.519709
_cell_length_c	18.366186
_cell_angle_alpha	89.992822
_cell_angle_beta	89.977106
_cell_angle_gamma	83.408195
loop_
_atom_site_label
_atom_site_type_symbol
_atom_site_fract_x
_atom_site_fract_y
_atom_site_fract_z
O1	O	0.921767	0.115045	-0.060785
O2	O	1.421767	0.615045	0.439215
O3	O	0.719562	0.130564	-0.060735
O4	O	1.219562	0.630564	0.439265
O5	O	0.826026	-0.011468	-0.060755
O6	O	1.326026	0.488532	0.439245
O7	O	0.815303	0.257077	-0.060765
O8	O	1.315303	0.757077	0.439235
O9	O	0.826007	-0.011475	0.060345
O10	O	1.326007	0.488525	0.560345
O11	O	0.719544	0.130557	0.060364
O12	O	1.219544	0.630557	0.560364
O13	O	0.921749	0.115038	0.060315
O14	O	1.421749	0.615038	0.560315
Zn15	Zn	0.820643	0.122797	0.079567
Zn16	Zn	1.320643	0.622797	0.579567
Zn17	Zn	0.820667	0.122806	-0.079987
Zn18	Zn	1.320667	0.622806	0.420013
O19	O	0.815285	0.257070	0.060334
O20	O	1.315285	0.757070	0.560334
C21	C	0.693675	0.130061	-0.000179
C22	C	1.193675	0.630061	0.499821
C23	C	0.616566	0.128562	-0.000160
C24	C	1.116566	0.628562	0.499840
C25	C	0.572169	0.211900	-0.000175
C26	C	1.072169	0.711900	0.499825
C27	C	0.499717	0.210492	-0.000183
C28	C	0.999717	0.710492	0.499817
C29	C	0.471665	0.125741	-0.000191
C30	C	0.971665	0.625741	0.499809
C31	C	0.516071	0.042392	-0.000172
C32	C	1.016071	0.542392	0.499828
C33	C	0.588521	0.043803	-0.000156
C34	C	1.088521	0.543803	0.499844
C35	C	0.363169	0.059120	-0.042639
C36	C	0.863169	0.559120	0.457361
C37	C	0.290720	0.057713	-0.042659
C38	C	0.790720	0.557713	0.457341
C39	C	0.248203	0.121387	-0.000234
C40	C	0.748203	0.621387	0.499766
C41	C	0.278144	0.186484	0.042200
C42	C	0.778144	0.686484	0.542200
C43	C	0.350595	0.187894	0.042215
C44	C	0.850595	0.687894	0.542215
C45	C	0.393105	0.124202	-0.000207
C46	C	0.893105	0.624202	0.499793
C47	C	0.125246	0.203203	-0.000257
C48	C	0.625246	0.703203	0.499743
C49	C	0.052792	0.201792	-0.000260
C50	C	0.552792	0.701792	0.499740
C51	C	0.069148	0.033689	-0.000257
C52	C	0.569148	0.533689	0.499743
C53	C	0.141599	0.035103	-0.000246
C54	C	0.641599	0.535103	0.499754
C55	C	0.169644	0.119863	-0.000249
C56	C	0.669644	0.619863	0.499751
C57	C	0.825517	-0.045828	-0.000205
C58	C	1.325517	0.454172	0.499795
C59	C	0.824019	-0.148200	-0.000204
C60	C	1.324019	0.351800	0.499796
C61	C	0.818507	-0.523061	-0.000222
C62	C	1.318507	-0.023061	0.499778
C63	C	0.820037	-0.418762	-0.000216
C64	C	1.320037	0.081238	0.499784
C65	C	0.821263	-0.335633	-0.000212
C66	C	1.321263	0.164367	0.499788
C67	C	0.822794	-0.231329	-0.000208
C68	C	1.322794	0.268671	0.499792
C69	C	0.947636	0.115541	-0.000243
C70	C	1.447636	0.615541	0.499757
C71	C	1.024745	0.117040	-0.000267
C72	C	1.524745	0.617040	0.499733
C73	C	0.815794	0.291430	-0.000217
C74	C	1.315794	0.791430	0.499783
C75	C	0.817291	0.393802	-0.000223
C76	C	1.317291	0.893802	0.499777
N77	N	0.820632	0.122790	0.188458
N78	N	1.320632	0.622790	0.688458
N79	N	0.820684	0.122805	-0.188878
N80	N	1.320684	0.622805	0.311122
C81	C	0.867790	0.059929	0.226549
C82	C	1.367790	0.559929	0.726549
C83	C	0.867794	0.059925	0.302777
C84	C	1.367794	0.559925	0.802777
C85	C	0.820648	0.122797	0.340910
C86	C	1.320648	0.622797	0.840910
C87	C	0.773481	0.185663	0.302809
C88	C	1.273481	0.685663	0.802809
C89	C	0.773473	0.185659	0.226583
C90	C	1.273473	0.685659	0.726583
C91	C	0.811652	0.206826	0.461669
C92	C	1.311652	0.706826	0.961669
C93	C	0.811664	0.206831	0.537894
C94	C	1.311664	0.706831	1.037894
C95	C	0.820667	0.122809	0.576018
C96	C	1.320667	0.622809	1.076018
C97	C	0.829673	0.038778	0.537908
C98	C	1.329673	0.538778	1.037908
C99	C	0.829665	0.038775	0.461681
C100	C	1.329665	0.538775	0.961681
C101	C	0.820650	0.122808	0.423565
C102	C	1.320650	0.622808	0.923565
C103	C	0.867832	0.059938	0.696765
C104	C	1.367832	0.559938	1.196765
C105	C	0.867832	0.059933	0.772994
C106	C	1.367832	0.559933	1.272994
C107	C	0.773522	0.185679	0.773025
C108	C	1.273522	0.685679	1.273025
C109	C	0.773519	0.185677	0.696797
C110	C	1.273519	0.685677	1.196797
C111	C	0.820678	0.122807	0.658671
C112	C	1.320678	0.622807	1.158671
H113	H	0.148080	0.272220	-0.000249
H114	H	0.648080	0.772220	0.499751
N115	N	0.918664	-0.007867	0.343878
N116	N	1.418664	0.492133	0.843878
H117	H	0.892081	-0.048612	0.375527
H118	H	1.392081	0.451388	0.875527
H119	H	0.948526	-0.047633	0.308116
H120	H	1.448526	0.452367	0.808116
H121	H	0.594998	0.280918	-0.000179
H122	H	1.094998	0.780918	0.499821
N123	N	0.722605	0.253464	0.185499
N124	N	1.222605	0.753464	0.685499
H125	H	0.730681	0.318893	0.198753
H126	H	1.230681	0.818893	0.698753
H127	H	0.729779	0.243845	0.131437
H128	H	1.229779	0.743845	0.631437
N129	N	0.722633	0.253479	0.343936
N130	N	1.222633	0.753479	0.843936
H131	H	0.692756	0.293302	0.308235
H132	H	1.192756	0.793302	0.808235
H133	H	0.691891	0.218275	0.375585
H134	H	1.191891	0.718275	0.875585
N135	N	0.636412	-0.046087	-0.000137
N136	N	1.136412	0.453913	0.499863
H137	H	0.607650	-0.099992	-0.000140
H138	H	1.107650	0.400008	0.499860
H139	H	0.666853	-0.049163	-0.045024
H140	H	1.166853	0.450837	0.454976
N141	N	0.451820	0.300381	-0.000200
N142	N	0.951820	0.800381	0.499800
H143	H	0.480580	0.354288	-0.000200
H144	H	0.980580	0.854288	0.499800
H145	H	0.421433	0.303448	-0.045102
H146	H	0.921433	0.803448	0.454898
N147	N	0.801948	0.297457	0.578995
N148	N	1.301948	0.797457	1.078995
H149	H	0.796232	0.350684	0.543279
H150	H	1.296232	0.850684	1.043279
H151	H	0.758966	0.299520	0.610643
H152	H	1.258966	0.799520	1.110643
H153	H	0.906231	0.008739	0.804009
H154	H	1.406231	0.508739	1.304009
N155	N	0.189490	-0.054783	-0.000230
N156	N	0.689490	0.445217	0.499770
H157	H	0.160727	-0.108688	-0.000235
H158	H	0.660727	0.391312	0.499765
H159	H	0.219933	-0.057860	-0.045115
H160	H	0.719933	0.442140	0.454885
N161	N	0.258427	-0.012494	-0.088423
N162	N	0.758427	0.487506	0.411577
H163	H	0.270233	-0.003666	-0.141361
H164	H	0.770233	0.496334	0.358639
H165	H	0.277350	-0.077101	-0.072511
H166	H	0.777350	0.422899	0.427489
N167	N	0.918648	-0.007886	0.185431
N168	N	1.418648	0.492114	0.685431
H169	H	0.911490	0.001649	0.131361
H170	H	1.411490	0.501649	0.631361
H171	H	0.967931	0.002610	0.198729
H172	H	1.467931	0.502610	0.698729
N173	N	0.382893	0.258085	0.087990
N174	N	0.882893	0.758085	0.587990
H175	H	0.409120	0.298281	0.055500
H176	H	0.909120	0.798281	0.555500
H177	H	0.344935	0.298148	0.114861
H178	H	0.844935	0.798148	0.614861
H179	H	0.016645	0.269658	-0.000268
H180	H	0.516645	0.769658	0.499732
H181	H	0.493226	-0.026613	-0.000188
H182	H	0.993226	0.473387	0.499812
N183	N	0.722664	0.253486	0.814144
N184	N	1.222664	0.753486	1.314144
H185	H	0.749251	0.294236	0.845753
H186	H	1.249251	0.794236	1.345753
H187	H	0.692802	0.293245	0.778395
H188	H	1.192802	0.793245	1.278395
N189	N	0.232305	0.255171	0.087965
N190	N	0.732305	0.755171	0.587965
H191	H	0.198407	0.294197	0.055464
H192	H	0.698407	0.794197	0.555464
H193	H	0.205569	0.220653	0.124241
H194	H	0.705569	0.720653	0.624241
N195	N	0.038902	-0.057723	-0.000257
N196	N	0.538902	0.442277	0.499743
H197	H	-0.013732	-0.045973	-0.000266
H198	H	0.486268	0.454027	0.499734
H199	H	0.055160	-0.094179	-0.045146
H200	H	0.555160	0.405821	0.454854
N201	N	0.409021	-0.009566	-0.088398
N202	N	0.909021	0.490434	0.411602
H203	H	0.395608	-0.001215	-0.141341
H204	H	0.895608	0.498785	0.358659
H205	H	0.459445	0.001239	-0.081889
H206	H	0.959445	0.501239	0.418111
H207	H	0.804308	0.275251	0.430634
H208	H	1.304308	0.775251	0.930634
N209	N	0.839376	-0.051849	0.420576
N210	N	1.339376	0.448151	0.920576
H211	H	0.800722	-0.090170	0.433862
H212	H	1.300722	0.409830	0.933862
H213	H	0.838023	-0.039016	0.366517
H214	H	1.338023	0.460984	0.866517
H215	H	0.906230	0.008743	0.665722
H216	H	1.406230	0.508743	1.165722
H217	H	0.837003	-0.029640	0.568947
H218	H	1.337003	0.470360	1.068947
H219	H	0.735122	0.236868	0.665780
H220	H	1.235122	0.736868	1.165780
