data_functionalizedCrystal
_audit_creation_method	'MofGen! by Chris Wilmer'
_symmetry_space_group_name_H-M	'P1'
_symmetry_Int_Tables_number	1
_symmetry_cell_setting	triclinic
loop_
_symmetry_equiv_pos_as_xyz
  x,y,z
_cell_length_a	10.723023
_cell_length_b	10.489741
_cell_length_c	9.798715
_cell_angle_alpha	90.003114
_cell_angle_beta	90.003242
_cell_angle_gamma	84.503361
loop_
_atom_site_label
_atom_site_type_symbol
_atom_site_fract_x
_atom_site_fract_y
_atom_site_fract_z
O1	O	1.657297	0.178902	0.113476
O2	O	1.294155	0.196028	0.113482
O3	O	1.483989	0.001862	0.113471
O4	O	1.467463	0.373068	0.113487
O5	O	1.483975	0.001860	-0.113511
O6	O	1.294141	0.196026	-0.113500
O7	O	1.657283	0.178900	-0.113506
Zn8	Zn	1.475710	0.187463	-0.149541
Zn9	Zn	1.475729	0.187465	0.149517
O10	O	1.467449	0.373066	-0.113495
C11	C	1.247648	0.194781	-0.000008
C12	C	1.109091	0.191053	-0.000006
C13	C	1.047311	0.189390	-0.117589
C14	C	0.904105	0.185537	-0.117590
C15	C	1.482734	-0.045670	-0.000019
C16	C	1.479000	-0.187297	-0.000017
C17	C	1.358214	-0.255360	-0.000005
C18	C	1.415265	-0.347519	-0.111920
C19	C	1.415308	-0.347493	0.111867
C20	C	1.536101	-0.277592	-0.112024
C21	C	1.536126	-0.277555	0.111863
C22	C	1.593265	-0.369688	-0.000079
C23	C	1.703791	0.180147	-0.000012
C24	C	1.842347	0.183875	-0.000006
C25	C	1.468704	0.420598	-0.000002
C26	C	1.472439	0.562225	0.000005
N27	N	1.475706	0.187461	-0.353641
C28	C	1.548516	0.261427	-0.421417
C29	C	1.548536	0.261425	-0.578579
N30	N	1.475742	0.187457	0.353617
H31	H	1.055965	0.189620	0.100660
N32	N	1.603698	-0.236802	-0.237516
H33	H	1.631822	-0.314638	-0.294310
H34	H	1.679138	-0.192509	-0.209053
H35	H	1.587196	-0.246543	0.206482
N36	N	1.347599	-0.388498	0.237190
H37	H	1.258815	-0.346500	0.237084
H38	H	1.392427	-0.361819	0.321651
N39	N	1.631105	0.345321	-0.655769
H40	H	1.619413	0.333430	-0.757099
H41	H	1.721610	0.320734	-0.630849
N42	N	1.393171	0.103565	-0.569192
H43	H	1.416697	0.010922	-0.593990
H44	H	1.302658	0.128215	-0.594034
N45	N	1.393160	0.103565	-0.430889
H46	H	1.332765	0.158732	-0.490187
H47	H	1.344653	0.054216	-0.363980
H48	H	1.258904	-0.205645	-0.000116
N49	N	1.631084	0.345304	-0.344174
H50	H	1.619370	0.333412	-0.242851
H51	H	1.607531	0.437912	-0.369073
N52	N	1.117670	0.191294	-0.250939
H53	H	1.056766	0.189657	-0.329408
H54	H	1.181097	0.113810	-0.256260
H55	H	0.850975	0.184114	-0.218256
N56	N	0.912708	0.185754	0.133351
H57	H	0.851812	0.184113	0.211819
H58	H	0.957325	0.266144	0.138675
H59	H	1.692664	-0.419175	-0.000143
H60	H	1.364152	-0.378499	-0.206534
