data_functionalizedCrystal
_audit_creation_method	'MofGen! by Chris Wilmer'
_symmetry_space_group_name_H-M	'P1'
_symmetry_Int_Tables_number	1
_symmetry_cell_setting	triclinic
loop_
_symmetry_equiv_pos_as_xyz
  x,y,z
_cell_length_a	18.215407
_cell_length_b	21.295417
_cell_length_c	18.215407
_cell_angle_alpha	90.016419
_cell_angle_beta	90.010236
_cell_angle_gamma	90.030955
loop_
_atom_site_label
_atom_site_type_symbol
_atom_site_fract_x
_atom_site_fract_y
_atom_site_fract_z
Zn1	Zn	1.124973	-0.250706	0.416094
Zn2	Zn	1.458307	0.082627	0.749427
Zn3	Zn	1.791640	0.415961	1.082761
Zn4	Zn	1.124890	-0.355948	0.293019
Zn5	Zn	1.458224	-0.022615	0.626352
Zn6	Zn	1.791557	0.310719	0.959686
Zn7	Zn	1.001927	-0.250698	0.293042
Zn8	Zn	1.335260	0.082636	0.626375
Zn9	Zn	1.668593	0.415969	0.959708
Zn10	Zn	1.001860	-0.355942	0.416044
Zn11	Zn	1.335193	-0.022609	0.749377
Zn12	Zn	1.668526	0.310725	1.082710
O13	O	1.063413	-0.303323	0.354550
O14	O	1.396746	0.030010	0.687883
O15	O	1.730079	0.363343	1.021216
O16	O	1.227947	-0.264673	0.399780
O17	O	1.561280	0.068661	0.733113
O18	O	1.894613	0.401994	1.066446
O19	O	1.108572	-0.341986	0.190038
O20	O	1.441906	-0.008652	0.523371
O21	O	1.775239	0.324681	0.856704
O22	O	1.018312	-0.162609	0.309395
O23	O	1.351645	0.170724	0.642729
O24	O	1.684978	0.504057	0.976062
O25	O	1.227886	-0.341994	0.309357
O26	O	1.561219	-0.008660	0.642690
O27	O	1.894552	0.324673	0.976023
O28	O	1.108714	-0.162615	0.399802
O29	O	1.442047	0.170718	0.733135
O30	O	1.775380	0.504051	1.066468
O31	O	1.018231	-0.264658	0.190054
O32	O	1.351565	0.068675	0.523388
O33	O	1.684898	0.402008	0.856721
O34	O	0.898934	-0.264652	0.309346
O35	O	1.232267	0.068681	0.642680
O36	O	1.565600	0.402014	0.976013
O37	O	1.018198	-0.341983	0.519035
O38	O	1.351531	-0.008650	0.852368
O39	O	1.684865	0.324684	1.185701
O40	O	0.898884	-0.341975	0.399716
O41	O	1.232218	-0.008642	0.733049
O42	O	1.565551	0.324692	1.066382
O43	O	1.108649	-0.264667	0.519072
O44	O	1.441982	0.068667	0.852405
O45	O	1.775316	0.402000	1.185738
O46	O	1.108507	-0.444037	0.309308
O47	O	1.441841	-0.110703	0.642641
O48	O	1.775174	0.222630	0.975974
O49	O	1.018117	-0.444032	0.399694
O50	O	1.351451	-0.110699	0.733027
O51	O	1.684784	0.222634	1.066360
C52	C	0.872206	-0.303313	0.354528
C53	C	1.205540	0.030021	0.687862
C54	C	1.538873	0.363354	1.021195
C55	C	0.790407	-0.303323	0.354537
C56	C	1.123741	0.030010	0.687870
C57	C	1.457074	0.363343	1.021204
C58	C	0.602207	-0.343648	0.401533
C59	C	0.935541	-0.010315	0.734866
C60	C	1.268874	0.323018	1.068200
C61	C	0.525348	-0.343650	0.401542
C62	C	0.858682	-0.010317	0.734876
C63	C	1.192015	0.323016	1.068209
C64	C	0.525370	-0.263010	0.307582
C65	C	0.858703	0.070323	0.640916
C66	C	1.192037	0.403657	0.974249
C67	C	0.602227	-0.263005	0.307577
C68	C	0.935561	0.070328	0.640911
C69	C	1.268894	0.403661	0.974244
C70	C	0.640644	-0.303328	0.354552
C71	C	0.973977	0.030005	0.687885
C72	C	1.307311	0.363339	1.021218
C73	C	0.486928	-0.303335	0.354566
C74	C	0.820261	0.029999	0.687899
C75	C	1.153595	0.363332	1.021232
C76	C	0.403594	-0.303336	0.354575
C77	C	0.736928	0.029997	0.687909
C78	C	1.070261	0.363330	1.021242
C79	C	0.723983	-0.303326	0.354543
C80	C	1.057316	0.030008	0.687876
C81	C	1.390650	0.363341	1.021210
C82	C	1.063316	-0.466875	0.354509
C83	C	1.396649	-0.133542	0.687842
C84	C	1.729983	0.199792	1.021175
C85	C	1.063342	-0.536843	0.354516
C86	C	1.396675	-0.203510	0.687849
C87	C	1.730009	0.129824	1.021183
C88	C	1.110450	-0.569691	0.307500
C89	C	1.443783	-0.236358	0.640834
C90	C	1.777117	0.096975	0.974167
C91	C	1.110485	-0.635434	0.307517
C92	C	1.443818	-0.302100	0.640850
C93	C	1.777151	0.031233	0.974184
C94	C	1.063398	-0.668326	0.354541
C95	C	1.396731	-0.334992	0.687875
C96	C	1.730065	-0.001659	1.021208
C97	C	1.016287	-0.635470	0.401566
C98	C	1.349620	-0.302136	0.734900
C99	C	1.682953	0.031197	1.068233
C100	C	1.016259	-0.569728	0.401553
C101	C	1.349592	-0.236395	0.734887
C102	C	1.682926	0.096938	1.068220
N103	N	0.999018	-0.771593	0.360145
N104	N	1.332352	-0.438260	0.693478
N105	N	1.665685	-0.104926	1.026811
N106	N	0.999047	-0.834045	0.360152
N107	N	1.332380	-0.500711	0.693486
N108	N	1.665714	-0.167378	1.026819
C109	C	1.063480	-0.866400	0.354584
C110	C	1.396814	-0.533067	0.687917
C111	C	1.730147	-0.199734	1.021250
N112	N	1.127886	-0.833945	0.348992
N113	N	1.461219	-0.500612	0.682326
N114	N	1.794552	-0.167279	1.015659
N115	N	1.127856	-0.771488	0.348981
N116	N	1.461189	-0.438155	0.682314
N117	N	1.794523	-0.104822	1.015647
C118	C	1.063423	-0.739611	0.354561
C119	C	1.396757	-0.406278	0.687894
C120	C	1.730090	-0.072944	1.021227
C121	C	1.110630	-0.970534	0.307583
C122	C	1.443963	-0.637201	0.640917
C123	C	1.777296	-0.303867	0.974250
C124	C	1.110665	-1.036278	0.307605
C125	C	1.443999	-0.702944	0.640938
C126	C	1.777332	-0.369611	0.974272
C127	C	1.016461	-1.036312	0.401650
C128	C	1.349794	-0.702979	0.734984
C129	C	1.683128	-0.369646	1.068317
C130	C	1.016432	-0.970570	0.401633
C131	C	1.349765	-0.637236	0.734966
C132	C	1.683099	-0.303903	1.068299
C133	C	1.063515	-0.937685	0.354595
C134	C	1.396849	-0.604351	0.687928
C135	C	1.730182	-0.271018	1.021262
C136	C	1.255365	-0.303335	0.354571
C137	C	1.588699	0.029999	0.687905
C138	C	1.922032	0.363332	1.021238
C139	C	1.337164	-0.303339	0.354580
C140	C	1.670498	0.029994	0.687914
C141	C	2.003831	0.363327	1.021247
C142	C	1.063425	-0.303325	0.546502
C143	C	1.396759	0.030008	0.879836
C144	C	1.730092	0.363342	1.213169
C145	C	1.063431	-0.303326	0.628301
C146	C	1.396764	0.030008	0.961635
C147	C	1.730097	0.363341	1.294968
C148	C	1.063529	-0.139133	0.354607
C149	C	1.396863	0.194200	0.687940
C150	C	1.730196	0.527534	1.021273
C151	C	1.063579	-0.069165	0.354631
C152	C	1.396913	0.264168	0.687964
C153	C	1.730246	0.597502	1.021298
C154	C	1.110514	-0.263074	0.816516
C155	C	1.443847	0.070260	1.149849
C156	C	1.777181	0.403593	1.483182
C157	C	1.110510	-0.263073	0.893374
C158	C	1.443843	0.070260	1.226708
C159	C	1.777176	0.403593	1.560041
C160	C	1.016323	-0.343587	0.893325
C161	C	1.349657	-0.010254	1.226658
C162	C	1.682990	0.323080	1.559991
C163	C	1.016324	-0.343584	0.816467
C164	C	1.349658	-0.010250	1.149801
C165	C	1.682991	0.323083	1.483134
C166	C	1.063424	-0.303328	0.778065
C167	C	1.396757	0.030005	1.111398
C168	C	1.730090	0.363339	1.444731
C169	C	1.063419	-0.303331	0.931781
C170	C	1.396752	0.030002	1.265114
C171	C	1.730085	0.363336	1.598448
C172	C	1.063414	-0.303331	1.015115
C173	C	1.396747	0.030002	1.348448
C174	C	1.730081	0.363336	1.681781
C175	C	1.063428	-0.303327	0.694726
C176	C	1.396761	0.030006	1.028059
C177	C	1.730094	0.363340	1.361393
C178	C	1.063400	-0.303335	1.163343
C179	C	1.396734	0.029998	1.496677
C180	C	1.730067	0.363331	1.830010
C181	C	1.063412	-0.303333	1.081544
C182	C	1.396745	0.030000	1.414878
C183	C	1.730079	0.363333	1.748211
H184	H	0.494057	-0.376482	0.439800
H185	H	0.827390	-0.043149	0.773134
H186	H	1.160723	0.290184	1.106467
H187	H	0.633523	-0.230168	0.269319
H188	H	0.966857	0.103166	0.602653
H189	H	1.300190	0.436499	0.935986
H190	H	0.977973	-0.376363	0.785160
H191	H	1.311306	-0.043030	1.118493
H192	H	1.644639	0.290304	1.451826
H193	H	1.148790	-0.542918	0.269201
H194	H	1.482123	-0.209585	0.602535
H195	H	1.815456	0.123749	0.935868
H196	H	1.148848	-0.662184	0.269231
H197	H	1.482181	-0.328851	0.602565
H198	H	1.815515	0.004483	0.935898
N199	N	0.965667	-1.071775	0.452369
N200	N	1.299001	-0.738442	0.785702
N201	N	1.632334	-0.405108	1.119035
H202	H	0.977052	-1.060304	0.504959
H203	H	1.310385	-0.726970	0.838292
H204	H	1.643718	-0.393637	1.171626
H205	H	0.972853	-1.118396	0.445184
H206	H	1.306186	-0.785063	0.778517
H207	H	1.639519	-0.451729	1.111851
N208	N	0.643644	-0.387136	0.452196
N209	N	0.976977	-0.053803	0.785529
N210	N	1.310311	0.279530	1.118863
H211	H	0.607629	-0.412679	0.481960
H212	H	0.940962	-0.079345	0.815294
H213	H	1.274296	0.253988	1.148627
H214	H	0.675556	-0.361556	0.486305
H215	H	1.008889	-0.028222	0.819638
H216	H	1.342223	0.305111	1.152972
N217	N	0.965502	-0.670941	0.452288
N218	N	1.298835	-0.337608	0.785622
N219	N	1.632169	-0.004274	1.118955
H220	H	0.972666	-0.717573	0.445161
H221	H	1.305999	-0.384240	0.778494
H222	H	1.639332	-0.050906	1.111827
H223	H	0.912946	-0.659493	0.440784
H224	H	1.246280	-0.326160	0.774118
H225	H	1.579613	0.007173	1.107451
N226	N	0.483929	-0.219538	0.256903
N227	N	0.817263	0.113795	0.590236
N228	N	1.150596	0.447129	0.923570
H229	H	0.452054	-0.190407	0.286863
H230	H	0.785387	0.142926	0.620196
H231	H	1.118721	0.476260	0.953529
H232	H	0.452071	-0.245138	0.222764
H233	H	0.785404	0.088195	0.556097
H234	H	1.118737	0.421529	0.889431
N235	N	0.965446	-0.534295	0.452264
N236	N	1.298780	-0.200961	0.785597
N237	N	1.632113	0.132372	1.118931
H238	H	0.935622	-0.565104	0.482059
H239	H	1.268956	-0.231771	0.815392
H240	H	1.602289	0.101562	1.148726
H241	H	0.931399	-0.507059	0.422268
H242	H	1.264733	-0.173725	0.755601
H243	H	1.598066	0.159608	1.088934
H244	H	1.149031	-1.063021	0.269321
H245	H	1.482364	-0.729688	0.602654
H246	H	1.815698	-0.396355	0.935987
H247	H	1.148970	-0.943758	0.269285
H248	H	1.482304	-0.610424	0.602618
H249	H	1.815637	-0.277091	0.935951
N250	N	0.965535	-0.387003	0.934758
N251	N	1.298869	-0.053670	1.268091
N252	N	1.632202	0.279664	1.601425
H253	H	0.976931	-0.431981	0.921371
H254	H	1.310265	-0.098648	1.254704
H255	H	1.643598	0.234686	1.588037
H256	H	0.912978	-0.377170	0.921366
H257	H	1.246312	-0.043837	1.254699
H258	H	1.579645	0.289496	1.588032
N259	N	0.965617	-0.935136	0.452337
N260	N	1.298950	-0.601802	0.785671
N261	N	1.632284	-0.268469	1.119004
H262	H	0.935791	-0.965946	0.482130
H263	H	1.269124	-0.632613	0.815463
H264	H	1.602458	-0.299280	1.148796
H265	H	0.931572	-0.907898	0.422341
H266	H	1.264905	-0.574565	0.755674
H267	H	1.598238	-0.241232	1.089008
H268	H	1.148863	-0.230293	0.785251
H269	H	1.482197	0.103040	1.118584
H270	H	1.815530	0.436374	1.451917
H271	H	1.148854	-0.230293	0.924678
H272	H	1.482187	0.103040	1.258011
H273	H	1.815521	0.436373	1.591344
