data_functionalizedCrystal
_audit_creation_method	'MofGen! by Chris Wilmer'
_symmetry_space_group_name_H-M	'P1'
_symmetry_Int_Tables_number	1
_symmetry_cell_setting	triclinic
loop_
_symmetry_equiv_pos_as_xyz
  x,y,z
_cell_length_a	10.540539
_cell_length_b	14.044220
_cell_length_c	13.101039
_cell_angle_alpha	86.332523
_cell_angle_beta	86.610474
_cell_angle_gamma	91.142815
loop_
_atom_site_label
_atom_site_type_symbol
_atom_site_fract_x
_atom_site_fract_y
_atom_site_fract_z
O1	O	1.705794	-0.128498	-0.085169
O2	O	1.337656	-0.141093	-0.085182
O3	O	1.516199	0.003226	-0.085165
O4	O	1.527252	-0.272817	-0.085185
O5	O	1.503390	-0.007146	0.085263
O6	O	1.324847	-0.151465	0.085247
O7	O	1.692986	-0.138870	0.085260
Zn8	Zn	1.506883	-0.146814	0.112313
Zn9	Zn	1.523759	-0.133149	-0.112234
O10	O	1.514443	-0.283189	0.085243
C11	C	1.283853	-0.145334	0.000031
C12	C	1.142620	-0.142508	0.000026
C13	C	0.948215	-0.034243	0.000432
C14	C	1.095152	-0.037084	0.000037
C15	C	1.093391	-0.187320	-0.097297
C16	C	0.946488	-0.183717	-0.097367
C17	C	0.931651	-0.197657	0.096442
C18	C	1.078635	-0.198706	0.097718
C19	C	1.504957	0.033387	0.000049
C20	C	1.490527	0.138711	0.000050
C21	C	1.746789	-0.134628	0.000045
C22	C	1.888023	-0.137454	0.000043
C23	C	1.525685	-0.313350	0.000027
C24	C	1.540116	-0.418673	0.000019
C25	C	1.464147	0.331552	0.000034
C26	C	1.566490	0.388492	0.000035
C27	C	1.551812	0.495795	0.000026
C28	C	1.478823	0.224238	0.000043
N29	N	1.495375	-0.156140	0.265560
N30	N	1.535276	-0.123815	-0.265482
C31	C	1.479719	-0.168837	0.474601
C32	C	1.550928	-0.111121	0.525483
C33	C	1.542217	-0.118186	0.641801
C34	C	1.488429	-0.161773	0.358273
H35	H	0.919031	0.011453	-0.068969
C36	C	1.121248	-0.303028	0.105644
C37	C	1.262975	-0.325270	0.113242
C38	C	1.305585	-0.429597	0.121156
C39	C	1.206468	-0.511683	0.121471
C40	C	1.064732	-0.489444	0.113872
C41	C	1.022121	-0.385117	0.105959
H42	H	1.336356	-0.264503	0.113009
H43	H	1.410509	-0.446059	0.126781
H44	H	1.238011	-0.588913	0.127329
H45	H	0.991351	-0.550212	0.114105
H46	H	0.917198	-0.368655	0.100334
C47	C	1.122188	-0.154646	0.194851
C48	C	1.193278	-0.215738	0.273807
C49	C	1.237134	-0.171721	0.370872
C50	C	1.209899	-0.066614	0.388981
C51	C	1.138806	-0.005516	0.310023
C52	C	1.094950	-0.049532	0.212958
H53	H	1.213442	-0.293550	0.260404
H54	H	1.289762	-0.216951	0.429322
H55	H	1.242364	-0.034030	0.460835
H56	H	1.118642	0.072297	0.323426
H57	H	1.042321	-0.004302	0.154508
C58	C	0.876916	-0.157620	0.196105
C59	C	0.907219	-0.205446	0.300641
C60	C	0.852492	-0.165393	0.400297
C61	C	0.767463	-0.077515	0.395417
C62	C	0.737155	-0.029684	0.290876
C63	C	0.791882	-0.069737	0.191220
H64	H	0.970167	-0.270504	0.304257
H65	H	0.874928	-0.200801	0.477684
H66	H	0.726951	-0.047865	0.469188
H67	H	0.674208	0.035374	0.287260
H68	H	0.769446	-0.034329	0.113833
H69	H	1.365513	0.363389	0.000028
H70	H	0.892073	-0.273844	0.097094
H71	H	1.665137	0.356657	-0.000031
C72	C	1.388536	-0.242761	0.533756
C73	C	1.378939	-0.249188	0.651752
C74	C	1.287761	-0.323115	0.710920
C75	C	1.206180	-0.390613	0.652091
C76	C	1.215775	-0.384188	0.534089
C77	C	1.306953	-0.310262	0.474921
H78	H	1.439332	-0.199220	0.695306
H79	H	1.280659	-0.327871	0.798273
H80	H	1.138685	-0.445338	0.695891
H81	H	1.155381	-0.434157	0.490535
H82	H	1.314054	-0.305506	0.387567
H83	H	1.128487	-0.001409	0.069803
H84	H	1.138085	0.007371	-0.069843
C85	C	0.896803	0.016288	0.094715
C86	C	0.917333	-0.026993	0.203309
C87	C	0.865904	0.023538	0.297594
C88	C	0.793944	0.117350	0.283285
C89	C	0.773410	0.160636	0.174687
C90	C	0.824839	0.110105	0.080402
H91	H	0.970605	-0.096443	0.213906
H92	H	0.881105	-0.008506	0.377986
H93	H	0.755873	0.154756	0.353081
H94	H	0.720138	0.230086	0.164090
H95	H	0.809638	0.142149	0.000010
C96	C	0.910630	-0.127075	-0.195635
C97	C	1.015605	-0.085430	-0.273498
C98	C	0.979756	-0.028785	-0.371766
C99	C	0.838931	-0.013786	-0.392172
C100	C	0.733946	-0.055432	-0.314306
C101	C	0.769796	-0.112077	-0.216038
H102	H	1.119861	-0.096533	-0.258395
H103	H	1.057473	0.002044	-0.429408
H104	H	0.812393	0.028146	-0.464916
H105	H	0.629691	-0.044330	-0.329409
H106	H	0.692079	-0.142906	-0.158396
H107	H	0.906516	-0.259268	-0.101790
H108	H	1.618434	-0.056405	0.481687
H109	H	1.137859	-0.147668	-0.169721
C110	C	1.134530	-0.291611	-0.102206
C111	C	1.276738	-0.315154	-0.107510
C112	C	1.317879	-0.419445	-0.112416
C113	C	1.216812	-0.500195	-0.112018
C114	C	1.074594	-0.476655	-0.106713
C115	C	1.033454	-0.372363	-0.101807
H116	H	1.351562	-0.255376	-0.107805
H117	H	1.423158	-0.436871	-0.116342
H118	H	1.247266	-0.577398	-0.115649
H119	H	0.999770	-0.536432	-0.106418
H120	H	0.928175	-0.354937	-0.097881
