data_functionalizedCrystal
_audit_creation_method	'MofGen! by Chris Wilmer'
_symmetry_space_group_name_H-M	'P1'
_symmetry_Int_Tables_number	1
_symmetry_cell_setting	triclinic
loop_
_symmetry_equiv_pos_as_xyz
  x,y,z
_cell_length_a	19.288864
_cell_length_b	16.109301
_cell_length_c	17.766277
_cell_angle_alpha	89.992214
_cell_angle_beta	89.976791
_cell_angle_gamma	83.298863
loop_
_atom_site_label
_atom_site_type_symbol
_atom_site_fract_x
_atom_site_fract_y
_atom_site_fract_z
O1	O	0.921601	0.103716	-0.062838
O2	O	1.254934	0.437049	0.270495
O3	O	1.588267	0.770383	0.603829
O4	O	0.719373	0.117707	-0.062787
O5	O	1.052707	0.451040	0.270546
O6	O	1.386040	0.784374	0.603880
O7	O	0.826042	-0.010338	-0.062806
O8	O	1.159376	0.322995	0.270527
O9	O	1.492709	0.656328	0.603861
O10	O	0.814932	0.231761	-0.062819
O11	O	1.148265	0.565095	0.270515
O12	O	1.481598	0.898428	0.603848
O13	O	0.826024	-0.010345	0.062382
O14	O	1.159357	0.322988	0.395716
O15	O	1.492690	0.656322	0.729049
O16	O	0.719355	0.117701	0.062402
O17	O	1.052688	0.451034	0.395735
O18	O	1.386021	0.784367	0.729068
O19	O	0.921582	0.103710	0.062351
O20	O	1.254915	0.437043	0.395684
O21	O	1.588249	0.770376	0.729017
Cu22	Cu	0.820467	0.110704	0.073807
Cu23	Cu	1.153800	0.444038	0.407140
Cu24	Cu	1.487133	0.777371	0.740473
Cu25	Cu	0.820489	0.110712	-0.074243
Cu26	Cu	1.153822	0.444045	0.259090
Cu27	Cu	1.487155	0.777379	0.592424
O28	O	0.814913	0.231755	0.062370
O29	O	1.148246	0.565088	0.395703
O30	O	1.481580	0.898422	0.729037
C31	C	0.693487	0.117254	-0.000186
C32	C	1.026820	0.450587	0.333147
C33	C	1.360153	0.783920	0.666481
C34	C	0.616380	0.115902	-0.000166
C35	C	0.949713	0.449236	0.333167
C36	C	1.283046	0.782569	0.666500
C37	C	0.571863	0.191034	-0.000182
C38	C	0.905196	0.524367	0.333151
C39	C	1.238530	0.857700	0.666485
C40	C	0.499413	0.189764	-0.000190
C41	C	0.832746	0.523097	0.333143
C42	C	1.166079	0.856431	0.666477
C43	C	0.471483	0.113359	-0.000198
C44	C	0.804816	0.446692	0.333136
C45	C	1.138149	0.780025	0.666469
C46	C	0.516009	0.038218	-0.000178
C47	C	0.849343	0.371551	0.333156
C48	C	1.182676	0.704884	0.666489
C49	C	0.588458	0.039489	-0.000162
C50	C	0.921791	0.372823	0.333171
C51	C	1.255125	0.706156	0.666505
C52	C	0.363084	0.053298	-0.044079
C53	C	0.696417	0.386631	0.289254
C54	C	1.029751	0.719965	0.622588
C55	C	0.290636	0.052029	-0.044100
C56	C	0.623970	0.385363	0.289234
C57	C	0.957303	0.718696	0.622567
C58	C	0.248028	0.109433	-0.000243
C59	C	0.581361	0.442766	0.333090
C60	C	0.914694	0.776100	0.666424
C61	C	0.277874	0.168120	0.043624
C62	C	0.611207	0.501453	0.376957
C63	C	0.944541	0.834786	0.710291
C64	C	0.350323	0.169391	0.043640
C65	C	0.683656	0.502725	0.376973
C66	C	1.016989	0.836058	0.710306
C67	C	0.392925	0.111971	-0.000214
C68	C	0.726259	0.445305	0.333119
C69	C	1.059592	0.778638	0.666452
C70	C	0.124952	0.183193	-0.000267
C71	C	0.458285	0.516526	0.333067
C72	C	0.791618	0.849860	0.666400
C73	C	0.052501	0.181920	-0.000270
C74	C	0.385834	0.515254	0.333063
C75	C	0.719167	0.848587	0.666396
C76	C	0.069099	0.030372	-0.000266
C77	C	0.402432	0.363705	0.333068
C78	C	0.735766	0.697038	0.666401
C79	C	0.141548	0.031647	-0.000254
C80	C	0.474882	0.364980	0.333079
C81	C	0.808215	0.698313	0.666412
C82	C	0.169470	0.108060	-0.000259
C83	C	0.502804	0.441393	0.333075
C84	C	0.836137	0.774726	0.666408
C85	C	0.825583	-0.041315	-0.000211
C86	C	1.158916	0.292018	0.333122
C87	C	1.492250	0.625352	0.666455
C88	C	0.824234	-0.133606	-0.000210
C89	C	1.157567	0.199728	0.333123
C90	C	1.490900	0.533061	0.666457
C91	C	0.884391	-0.356084	-0.000237
C92	C	1.217725	-0.022751	0.333096
C93	C	1.551058	0.310583	0.666430
C94	C	0.883118	-0.442800	-0.000243
C95	C	1.216452	-0.109467	0.333090
C96	C	1.549785	0.223867	0.666424
C97	C	0.756559	-0.422493	-0.000208
C98	C	1.089892	-0.089159	0.333125
C99	C	1.423226	0.244174	0.666459
C100	C	0.757833	-0.335778	-0.000208
C101	C	1.091166	-0.002445	0.333126
C102	C	1.424500	0.330888	0.666459
C103	C	0.821751	-0.302577	-0.000218
C104	C	1.155085	0.030757	0.333115
C105	C	1.488418	0.364090	0.666448
C106	C	0.819204	-0.476007	-0.000225
C107	C	1.152537	-0.142674	0.333109
C108	C	1.485871	0.190660	0.666442
C109	C	0.817823	-0.570028	-0.000231
C110	C	1.151156	-0.236695	0.333102
C111	C	1.484490	0.096638	0.666436
C112	C	0.823133	-0.208549	-0.000213
C113	C	1.156466	0.124784	0.333120
C114	C	1.489799	0.458117	0.666453
C115	C	0.947469	0.104163	-0.000252
C116	C	1.280802	0.437496	0.333081
C117	C	1.614136	0.770830	0.666415
C118	C	1.024576	0.105514	-0.000277
C119	C	1.357909	0.438848	0.333057
C120	C	1.691242	0.772181	0.666390
C121	C	0.815372	0.262732	-0.000227
C122	C	1.148706	0.596065	0.333107
C123	C	1.482039	0.929398	0.666440
C124	C	0.816722	0.355022	-0.000233
C125	C	1.150055	0.688356	0.333100
C126	C	1.483388	1.021689	0.666434
N127	N	0.820456	0.110699	0.177937
N128	N	1.153789	0.444032	0.511270
N129	N	1.487123	0.777365	0.844604
N130	N	0.820505	0.110711	-0.178373
N131	N	1.153838	0.444045	0.154960
N132	N	1.487171	0.777378	0.488293
C133	C	0.867704	0.054028	0.217315
C134	C	1.201038	0.387361	0.550649
C135	C	1.534371	0.720694	0.883982
C136	C	0.867708	0.054024	0.296117
C137	C	1.201042	0.387357	0.629451
C138	C	1.534375	0.720690	0.962784
C139	C	0.820471	0.110705	0.335538
C140	C	1.153804	0.444038	0.668871
C141	C	1.487137	0.777372	1.002204
C142	C	0.773214	0.167380	0.296150
C143	C	1.106547	0.500714	0.629483
C144	C	1.439880	0.834047	0.962817
C145	C	0.773206	0.167377	0.217350
C146	C	1.106540	0.500710	0.550683
C147	C	1.439873	0.834044	0.884016
C148	C	0.811353	0.186459	0.460373
C149	C	1.144686	0.519792	0.793707
C150	C	1.478019	0.853125	1.127040
C151	C	0.811365	0.186463	0.539172
C152	C	1.144698	0.519796	0.872505
C153	C	1.478032	0.853130	1.205839
C154	C	0.820489	0.110715	0.578584
C155	C	1.153823	0.444048	0.911917
C156	C	1.487156	0.777382	1.245251
C157	C	0.829616	0.034960	0.539188
C158	C	1.162950	0.368293	0.872521
C159	C	1.496283	0.701626	1.205854
C160	C	0.829609	0.034956	0.460387
C161	C	1.162942	0.368290	0.793721
C162	C	1.496276	0.701623	1.127054
C163	C	0.820473	0.110715	0.420983
C164	C	1.153806	0.444048	0.754317
C165	C	1.487140	0.777381	1.087650
C166	C	0.867745	0.054035	0.703408
C167	C	1.201078	0.387369	1.036742
C168	C	1.534411	0.720702	1.370075
C169	C	0.867744	0.054030	0.782212
C170	C	1.201077	0.387364	1.115545
C171	C	1.534410	0.720697	1.448878
C172	C	0.773252	0.167394	0.782243
C173	C	1.106586	0.500727	1.115576
C174	C	1.439919	0.834061	1.448909
C175	C	0.773250	0.167392	0.703441
C176	C	1.106583	0.500725	1.036774
C177	C	1.439916	0.834059	1.370108
C178	C	0.820500	0.110713	0.664028
C179	C	1.153833	0.444047	0.997362
C180	C	1.487166	0.777380	1.330695
H181	H	0.046359	-0.031839	-0.000318
H182	H	0.379693	0.301494	0.333015
H183	H	0.713026	0.634828	0.666348
F184	F	0.188929	-0.048320	-0.000242
F185	F	0.522262	0.285014	0.333092
F186	F	0.855595	0.618347	0.666425
H187	H	0.374621	0.217173	0.079360
H188	H	0.707954	0.550507	0.412694
H189	H	1.041287	0.883840	0.746027
F190	F	0.005121	0.261890	-0.000283
F191	F	0.338455	0.595223	0.333050
F192	F	0.671788	0.928556	0.666384
H193	H	0.704519	-0.449537	-0.000198
H194	H	1.037852	-0.116203	0.333136
H195	H	1.371186	0.217130	0.666469
F196	F	0.452026	0.269732	-0.000205
F197	F	0.785359	0.603065	0.333128
F198	F	1.118692	0.936399	0.666462
H199	H	0.493264	-0.023992	-0.000194
H200	H	0.826598	0.309341	0.333139
H201	H	1.159931	0.642675	0.666472
H202	H	0.706821	-0.292210	-0.000194
H203	H	1.040154	0.041123	0.333139
H204	H	1.373487	0.374457	0.666472
H205	H	0.243183	0.214863	0.079337
H206	H	0.576517	0.548196	0.412670
H207	H	0.909850	0.881529	0.746003
H208	H	0.734751	0.213530	0.328250
H209	H	1.068084	0.546863	0.661583
H210	H	1.401417	0.880197	0.994917
H211	H	0.734778	0.213542	0.671377
H212	H	1.068112	0.546875	1.004710
H213	H	1.401445	0.880209	1.338044
F214	F	0.917989	-0.006297	0.175372
F215	F	1.251322	0.327037	0.508705
F216	F	1.584655	0.660370	0.842038
H217	H	0.624704	-0.021694	-0.000150
H218	H	0.958038	0.311640	0.333184
H219	H	1.291371	0.644973	0.666517
F220	F	0.154671	0.264517	-0.000266
F221	F	0.488004	0.597850	0.333068
F222	F	0.821337	0.931184	0.666401
F223	F	0.258878	-0.010422	-0.090793
F224	F	0.592211	0.322911	0.242540
F225	F	0.925544	0.656244	0.575874
H226	H	0.734730	0.213526	0.185287
H227	H	1.068063	0.546859	0.518620
H228	H	1.401397	0.880193	0.851954
H229	H	0.906217	0.007878	0.814274
H230	H	1.239550	0.341211	1.147607
H231	H	1.572884	0.674544	1.480941
F232	F	0.408425	-0.007804	-0.090760
F233	F	0.741758	0.325530	0.242574
F234	F	1.075092	0.658863	0.575907
F235	F	0.952419	-0.320751	-0.000249
F236	F	1.285752	0.012582	0.333084
F237	F	1.619085	0.345916	0.666417
F238	F	0.917999	-0.006296	0.338034
F239	F	1.251333	0.327037	0.671367
F240	F	1.584666	0.660370	1.004700
F241	F	0.839316	-0.045666	0.418461
F242	F	1.172650	0.287668	0.751795
F243	F	1.505983	0.621001	1.085128
F244	F	0.949789	-0.499743	-0.000265
F245	F	1.283122	-0.166410	0.333069
F246	F	1.616455	0.166923	0.666402
F247	F	0.601575	0.272359	-0.000184
F248	F	0.934908	0.605693	0.333149
F249	F	1.268242	0.939026	0.666483
H250	H	0.837046	-0.026722	0.571275
H251	H	1.170379	0.306612	0.904608
H252	H	1.503712	0.639945	1.237942
H253	H	0.906216	0.007882	0.671317
H254	H	1.239550	0.341215	1.004651
H255	H	1.572883	0.674548	1.337984
F256	F	0.722974	0.227713	0.824193
F257	F	1.056307	0.561047	1.157526
F258	F	1.389641	0.894380	1.490860
F259	F	0.801656	0.267088	0.581093
F260	F	1.134989	0.600421	0.914427
F261	F	1.468323	0.933754	1.247760
H262	H	0.803911	0.248146	0.428290
H263	H	1.137244	0.581479	0.761624
H264	H	1.470577	0.914812	1.094957
