data_functionalizedCrystal
_audit_creation_method	'MofGen! by Chris Wilmer'
_symmetry_space_group_name_H-M	'P1'
_symmetry_Int_Tables_number	1
_symmetry_cell_setting	triclinic
loop_
_symmetry_equiv_pos_as_xyz
  x,y,z
_cell_length_a	12.759401
_cell_length_b	12.827892
_cell_length_c	12.759401
_cell_angle_alpha	90.004740
_cell_angle_beta	90.004861
_cell_angle_gamma	90.016917
loop_
_atom_site_label
_atom_site_type_symbol
_atom_site_fract_x
_atom_site_fract_y
_atom_site_fract_z
Zn1	Zn	1.606095	-0.416198	0.594025
Zn2	Zn	1.606033	-0.590899	0.418347
Zn3	Zn	1.430443	-0.416177	0.418360
Zn4	Zn	1.430383	-0.590903	0.593984
O5	O	1.518238	-0.503544	0.506179
O6	O	1.753107	-0.439380	0.570732
O7	O	1.582740	-0.567712	0.271328
O8	O	1.453794	-0.269944	0.441685
O9	O	1.753062	-0.567732	0.441663
O10	O	1.582845	-0.269959	0.570745
O11	O	1.453734	-0.439345	0.271337
O12	O	1.283414	-0.439348	0.441646
O13	O	1.453692	-0.567738	0.741011
O14	O	1.283370	-0.567718	0.570676
O15	O	1.582787	-0.439383	0.741040
O16	O	1.582682	-0.737136	0.441624
O17	O	1.453633	-0.737138	0.570663
C18	C	1.245271	-0.503532	0.506158
C19	C	1.128494	-0.503551	0.506174
C20	C	1.518173	-0.775054	0.506161
C21	C	1.518241	-0.891207	0.506188
C22	C	1.073637	-0.570495	0.573255
C23	C	0.963913	-0.570499	0.573276
C24	C	0.963913	-0.436613	0.439127
C25	C	1.073635	-0.436604	0.439112
C26	C	0.813982	-0.608050	0.697136
C27	C	0.759121	-0.675010	0.764207
C28	C	0.794713	-0.777001	0.780157
C29	C	0.885164	-0.812052	0.729019
C30	C	0.940019	-0.745097	0.661940
C31	C	0.904429	-0.643092	0.646011
C32	C	1.223568	-0.399064	0.315250
C33	C	1.278426	-0.332114	0.248165
C34	C	1.242836	-0.230122	0.232205
C35	C	1.152381	-0.195074	0.283324
C36	C	1.097524	-0.262024	0.350409
C37	C	1.133121	-0.364015	0.366370
C38	C	1.582174	-0.942956	0.442406
C39	C	1.582246	-1.063007	0.442432
C40	C	1.792272	-0.503558	0.506201
C41	C	1.909048	-0.503564	0.506210
C42	C	1.518240	-0.503563	0.780212
C43	C	1.518241	-0.503571	0.896989
C44	C	1.518333	-0.230974	0.506221
C45	C	1.518373	-0.114821	0.506239
C46	C	1.585403	-0.570405	0.951850
C47	C	1.585405	-0.570399	1.061574
C48	C	1.451074	-0.436722	1.061567
C49	C	1.451078	-0.436724	0.951845
C50	C	1.709291	-0.607743	1.211537
C51	C	1.776444	-0.674593	1.266401
C52	C	1.792539	-0.776562	1.230785
C53	C	1.741465	-0.811701	1.140307
C54	C	1.674304	-0.744856	1.085448
C55	C	1.658230	-0.642873	1.121062
C56	C	1.327190	-0.399391	0.801880
C57	C	1.260023	-0.332550	0.747019
C58	C	1.243918	-0.230580	0.782633
C59	C	1.294973	-0.195445	0.873115
C60	C	1.362140	-0.262285	0.927976
C61	C	1.378247	-0.364254	0.892355
C62	C	1.518231	-0.503555	1.233212
C63	C	1.518239	-0.503564	1.116435
H64	H	1.118300	-0.625005	0.627864
H65	H	1.123391	-0.112030	0.270312
C66	C	1.303176	-0.156475	0.158405
C67	C	1.402665	-0.195019	0.102160
C68	C	1.463001	-0.121371	0.028366
C69	C	1.423848	-0.009180	0.010817
C70	C	1.324353	0.029369	0.067064
C71	C	1.264018	-0.044279	0.140858
H72	H	1.431654	-0.278074	0.115150
H73	H	1.536654	-0.149908	-0.013271
H74	H	1.468512	0.045338	-0.043810
H75	H	1.295365	0.112424	0.054074
H76	H	1.190365	-0.015742	0.182495
C77	C	1.039512	-0.783638	0.605694
C78	C	1.078666	-0.895831	0.623228
C79	C	1.178165	-0.934373	0.566988
C80	C	1.238511	-0.860723	0.493214
C81	C	1.199358	-0.748523	0.475677
C82	C	1.099859	-0.709980	0.531916
H83	H	1.033994	-0.950358	0.677843
H84	H	1.207148	-1.017432	0.579971
H85	H	1.312166	-0.889254	0.451582
H86	H	1.244030	-0.693996	0.421062
H87	H	1.070875	-0.626922	0.518933
H88	H	1.640101	-0.624827	0.907190
C89	C	1.618128	-0.783494	0.985924
C90	C	1.635822	-0.895663	0.946744
C91	C	1.579653	-0.934301	0.847213
C92	C	1.505790	-0.860771	0.786864
C93	C	1.488092	-0.748595	0.826043
C94	C	1.544261	-0.709957	0.925573
H95	H	1.690504	-0.950101	0.991419
H96	H	1.592755	-1.017342	0.818211
H97	H	1.464210	-0.889374	0.713185
H98	H	1.433410	-0.694158	0.781368
H99	H	1.531159	-0.626916	0.954576
C100	C	1.277264	-0.083274	0.912296
C101	C	1.370529	-0.007603	0.921481
C102	C	1.352813	0.104568	0.960661
C103	C	1.241831	0.141069	0.990655
C104	C	1.148558	0.065397	0.981471
C105	C	1.166274	-0.046775	0.942292
H106	H	1.452691	-0.034622	0.899277
H107	H	1.421860	0.160586	0.967459
H108	H	1.228716	0.224105	1.019659
H109	H	1.066396	0.092415	1.003676
H110	H	1.097227	-0.102792	0.935493
C111	C	1.170030	-0.157053	0.722289
C112	C	1.193081	-0.129687	0.607063
C113	C	1.119198	-0.056158	0.546724
C114	C	1.022264	-0.009994	0.601612
C115	C	0.999209	-0.037359	0.716845
C116	C	1.073091	-0.110888	0.777184
H117	H	1.264841	-0.163861	0.566425
H118	H	1.136266	-0.035901	0.461421
H119	H	0.967572	0.044437	0.556946
H120	H	0.927449	-0.003185	0.757482
H121	H	1.056023	-0.131145	0.862487
H122	H	1.754564	-0.894739	1.111323
H123	H	1.396390	-0.382299	1.106243
C124	C	0.774834	-0.495852	0.679602
C125	C	0.675340	-0.457310	0.735839
C126	C	0.636186	-0.345112	0.718303
C127	C	0.696526	-0.271455	0.644531
C128	C	0.796026	-0.309996	0.588289
C129	C	0.835180	-0.422195	0.605824
H130	H	0.630667	-0.511836	0.790455
H131	H	0.562529	-0.316582	0.759938
H132	H	0.667542	-0.188399	0.631549
H133	H	0.840699	-0.255470	0.533673
H134	H	0.908837	-0.450725	0.564190
H135	H	0.914129	-0.895107	0.742002
C136	C	1.656195	-1.123118	0.368658
C137	C	1.730181	-1.063185	0.294749
C138	C	1.804134	-1.123298	0.220972
C139	C	1.804100	-1.243344	0.221103
C140	C	1.730111	-1.303283	0.295015
C141	C	1.656159	-1.243170	0.368792
H142	H	1.730209	-0.974314	0.294649
H143	H	1.858905	-1.078927	0.166257
H144	H	1.858844	-1.287843	0.166489
H145	H	1.730084	-1.392154	0.295115
H146	H	1.601388	-1.287541	0.423507
H147	H	1.352078	-0.360659	0.206540
H148	H	0.750038	-0.831520	0.834769
H149	H	0.919233	-0.382108	0.384525
H150	H	1.463630	-1.070326	0.560844
H151	H	1.463562	-0.935780	0.560818
H152	H	0.685476	-0.646462	0.805844
C153	C	0.998025	-0.223475	0.406649
C154	C	0.903161	-0.185943	0.342293
C155	C	0.803664	-0.147396	0.398533
C156	C	0.799030	-0.146382	0.519129
C157	C	0.893896	-0.183916	0.583492
C158	C	0.993394	-0.222462	0.527252
H159	H	0.906589	-0.186692	0.253014
H160	H	0.733438	-0.119611	0.350886
H161	H	0.725376	-0.117847	0.560761
H162	H	0.890469	-0.183166	0.672771
H163	H	1.063620	-0.250247	0.574899
H164	H	1.252561	-0.482112	0.328248
H165	H	1.636861	-0.898386	0.387783
H166	H	1.847210	-0.830994	1.275469
H167	H	1.818030	-0.645973	1.340068
H168	H	1.696204	-0.524709	1.240537
H169	H	1.403725	-0.233664	1.001642
H170	H	1.218442	-0.361170	0.673350
H171	H	1.340304	-0.482422	0.772870
