data_functionalizedCrystal
_audit_creation_method	'MofGen! by Chris Wilmer'
_symmetry_space_group_name_H-M	'P1'
_symmetry_Int_Tables_number	1
_symmetry_cell_setting	triclinic
loop_
_symmetry_equiv_pos_as_xyz
  x,y,z
_cell_length_a	27.732048
_cell_length_b	17.000371
_cell_length_c	15.500227
_cell_angle_alpha	87.380458
_cell_angle_beta	87.187766
_cell_angle_gamma	100.879049
loop_
_atom_site_label
_atom_site_type_symbol
_atom_site_fract_x
_atom_site_fract_y
_atom_site_fract_z
O1	O	-0.015024	1.059620	-0.071944
O2	O	0.484976	1.559620	0.428056
O3	O	-0.032576	0.827671	-0.071941
O4	O	0.467424	1.327671	0.428059
O5	O	0.046871	0.950850	-0.071954
O6	O	0.546871	1.450850	0.428046
O7	O	-0.094471	0.936441	-0.071931
O8	O	0.405529	1.436441	0.428069
O9	O	0.042067	0.943376	0.071936
O10	O	0.542067	1.443376	0.571936
O11	O	-0.037380	0.820197	0.071949
O12	O	0.462620	1.320197	0.571949
O13	O	-0.019827	1.052146	0.071945
O14	O	0.480173	1.552146	0.571945
Cu15	Cu	-0.029042	0.935489	0.085085
Cu16	Cu	0.470958	1.435489	0.585085
Cu17	Cu	-0.023361	0.944328	-0.085081
Cu18	Cu	0.476639	1.444328	0.414919
O19	O	-0.099274	0.928967	0.071959
O20	O	0.400726	1.428967	0.571959
C21	C	-0.035921	0.794269	0.000004
C22	C	0.464079	1.294269	0.500004
C23	C	-0.038724	0.705876	0.000005
C24	C	0.461276	1.205876	0.500005
C25	C	0.004417	0.674381	-0.000001
C26	C	0.504417	1.174381	0.499999
C27	C	0.001780	0.591326	-0.000007
C28	C	0.501780	1.091326	0.499993
C29	C	-0.043998	0.539767	-0.000001
C30	C	0.456002	1.039767	0.499999
C31	C	-0.087143	0.571266	0.000002
C32	C	0.412857	1.071266	0.500002
C33	C	-0.084505	0.654320	0.000002
C34	C	0.415495	1.154320	0.500002
C35	C	-0.054186	0.288496	-0.000005
C36	C	0.445814	0.788496	0.499995
C37	C	-0.056820	0.205436	-0.000002
C38	C	0.443180	0.705436	0.499998
C39	C	0.032103	0.225502	-0.000012
C40	C	0.532103	0.725502	0.499988
C41	C	0.034736	0.308556	-0.000008
C42	C	0.534736	0.808556	0.499992
C43	C	-0.008408	0.340049	-0.000009
C44	C	0.491592	0.840049	0.499991
C45	C	-0.046695	0.454871	-0.000004
C46	C	0.453305	0.954871	0.499996
C47	C	-0.005711	0.424944	-0.000012
C48	C	0.494289	0.924944	0.499988
C49	C	-0.114868	0.933006	0.000017
C50	C	0.385132	1.433006	0.500017
C51	C	-0.168488	0.933917	0.000025
C52	C	0.331512	1.433917	0.500025
C53	C	-0.509848	0.866862	-0.000015
C54	C	-0.009848	1.366862	0.499985
C55	C	-0.711379	0.870241	-0.000026
C56	C	-0.211379	1.370241	0.499974
O57	O	-0.744962	0.808924	-0.000063
O58	O	-0.244962	1.308924	0.499937
N59	N	-0.727730	0.943281	-0.000026
N60	N	-0.227730	1.443281	0.499974
C61	C	-0.693694	1.015481	-0.000029
C62	C	-0.193694	1.515481	0.499971
O63	O	-0.712225	1.077683	-0.000037
O64	O	-0.212225	1.577683	0.499963
C65	C	-0.492164	1.012101	-0.000024
C66	C	0.007836	1.512101	0.499976
C67	C	-0.475816	0.939056	-0.000016
C68	C	0.024184	1.439056	0.499984
C69	C	-0.493500	0.793823	-0.000008
C70	C	0.006500	1.293823	0.499992
C71	C	-0.443121	0.792979	-0.000001
C72	C	0.056879	1.292979	0.499999
C73	C	-0.409089	0.865173	-0.000001
C74	C	0.090911	1.365173	0.499999
C75	C	-0.425437	0.938212	-0.000008
C76	C	0.074563	1.438212	0.499992
C77	C	-0.458128	1.084301	-0.000033
C78	C	0.041872	1.584301	0.499967
C79	C	-0.407743	1.083449	-0.000035
C80	C	0.092257	1.583449	0.499965
C81	C	-0.391396	1.010404	-0.000026
C82	C	0.108604	1.510404	0.499974
C83	C	-0.341025	1.009562	-0.000001
C84	C	0.158975	1.509562	0.499999
N85	N	-0.324675	0.936522	-0.000002
N86	N	0.175325	1.436522	0.499998
C87	C	-0.358707	0.864328	-0.000001
C88	C	0.141293	1.364328	0.499999
C89	C	-0.799501	1.017250	-0.000029
C90	C	-0.299501	1.517250	0.499971
C91	C	-0.849883	1.018095	-0.000028
C92	C	-0.349883	1.518095	0.499972
C93	C	-0.867565	0.872855	-0.000027
C94	C	-0.367565	1.372855	0.499973
C95	C	-0.817182	0.872011	-0.000022
C96	C	-0.317182	1.372011	0.499978
C97	C	-0.783150	0.944211	-0.000029
C98	C	-0.283150	1.444211	0.499971
C99	C	-0.252905	0.862560	0.000015
C100	C	0.247095	1.362560	0.500015
C101	C	-0.202520	0.861722	0.000026
C102	C	0.297480	1.361722	0.500026
C103	C	-0.184843	1.006962	0.000020
C104	C	0.315157	1.506962	0.500020
C105	C	-0.235223	1.007800	0.000014
C106	C	0.264777	1.507800	0.500014
C107	C	-0.269254	0.935593	0.000008
C108	C	0.230746	1.435593	0.500008
O109	O	-0.307415	1.070847	0.000026
O110	O	0.192585	1.570847	0.500026
O111	O	-0.340165	0.802136	-0.000012
O112	O	0.159835	1.302136	0.499988
C113	C	-0.560228	0.867706	-0.000023
C114	C	-0.060228	1.367706	0.499977
C115	C	-0.576576	0.940745	-0.000030
C116	C	-0.076576	1.440745	0.499970
C117	C	-0.542544	1.012939	-0.000031
C118	C	-0.042544	1.512939	0.499969
C119	C	-0.626958	0.941590	-0.000030
C120	C	-0.126958	1.441590	0.499970
C121	C	-0.660990	0.869396	-0.000030
C122	C	-0.160990	1.369396	0.499970
C123	C	-0.644639	0.796356	-0.000030
C124	C	-0.144639	1.296356	0.499970
C125	C	-0.594260	0.795512	-0.000023
C126	C	-0.094260	1.295512	0.499977
C127	C	-0.558895	1.085979	-0.000030
C128	C	-0.058895	1.585979	0.499970
C129	C	-0.609275	1.086817	-0.000037
C130	C	-0.109275	1.586817	0.499963
C131	C	-0.643307	1.014623	-0.000036
C132	C	-0.143307	1.514623	0.499964
C133	C	0.062464	0.946811	-0.000014
C134	C	0.562464	1.446811	0.499986
C135	C	0.116085	0.945901	-0.000028
C136	C	0.616085	1.445901	0.499972
C137	C	-0.016483	1.085548	-0.000001
C138	C	0.483517	1.585548	0.499999
C139	C	-0.013679	1.173942	-0.000007
C140	C	0.486321	1.673942	0.499993
N141	N	-0.033037	0.929277	0.204771
N142	N	0.466963	1.429277	0.704771
N143	N	-0.019363	0.950546	-0.204766
N144	N	0.480637	1.450546	0.295234
C145	C	0.000617	0.981490	0.250042
C146	C	0.500617	1.481490	0.750042
C147	C	-0.002409	0.976800	0.340615
C148	C	0.497591	1.476800	0.840615
C149	C	-0.039090	0.919900	0.385916
C150	C	0.460910	1.419900	0.885916
C151	C	-0.072745	0.867681	0.340639
C152	C	0.427255	1.367681	0.840639
C153	C	-0.069717	0.872368	0.250067
C154	C	0.430283	1.372368	0.750067
C155	C	-0.049990	0.903015	0.659385
C156	C	0.450010	1.403015	1.159385
C157	C	-0.053016	0.898333	0.749963
C158	C	0.446984	1.398333	1.249963
C159	C	0.017321	1.007451	0.749933
C160	C	0.517321	1.507451	1.249933
C161	C	0.020344	1.012137	0.659360
C162	C	0.520344	1.512137	1.159360
C163	C	-0.013309	0.959915	0.614090
C164	C	0.486691	1.459915	1.114090
C165	C	-0.042184	0.915106	0.478496
C166	C	0.457816	1.415106	0.978496
C167	C	-0.010213	0.964706	0.521511
C168	C	0.489787	1.464706	1.021511
H169	H	0.072014	0.350531	-0.000009
H170	H	0.572014	0.850531	0.499991
H171	H	-0.672357	0.737573	-0.000024
H172	H	-0.172357	1.237573	0.499976
H173	H	-0.531190	1.144770	-0.000032
H174	H	-0.031190	1.644770	0.499968
O175	O	-0.086290	0.846701	0.610562
O176	O	0.413710	1.346701	1.110562
H177	H	-0.112308	0.806356	0.657282
H178	H	0.387692	1.306356	1.157282
H179	H	0.036910	0.565688	-0.000012
H180	H	0.536910	1.065688	0.499988
O181	O	-0.081753	0.853746	0.527359
O182	O	0.418247	1.353746	1.027359
H183	H	-0.064406	0.813163	0.568641
H184	H	0.435594	1.313163	1.068641
H185	H	0.031562	0.466927	-0.000022
H186	H	0.531562	0.966927	0.499978
O187	O	-0.092581	0.836960	0.798829
O188	O	0.407419	1.336960	1.298829
H189	H	-0.075230	0.796387	0.840115
H190	H	0.424770	1.296387	1.340115
H191	H	-0.102611	0.821348	0.377528
H192	H	0.397389	1.321348	0.877528
O193	O	-0.904278	0.794989	-0.000025
O194	O	-0.404278	1.294989	0.499975
H195	H	-0.884451	0.744051	-0.000020
H196	H	-0.384451	1.244051	0.499980
O197	O	-0.106017	0.816058	0.201232
O198	O	0.393983	1.316058	0.701232
H199	H	-0.132036	0.775709	0.247947
H200	H	0.367964	1.275709	0.747947
O201	O	0.053618	1.063766	0.798766
O202	O	0.553618	1.563766	1.298766
H203	H	0.050650	1.126666	0.781371
H204	H	0.550650	1.626666	1.281371
H205	H	0.041695	0.716356	-0.000002
H206	H	0.541695	1.216356	0.499998
H207	H	-0.083968	0.412882	0.000002
H208	H	0.416032	0.912882	0.500002
H209	H	0.067229	0.199851	-0.000021
H210	H	0.567229	0.699851	0.499979
H211	H	0.030485	1.027828	0.213164
H212	H	0.530485	1.527828	0.713164
H213	H	0.019655	1.011032	0.484625
H214	H	0.519655	1.511032	0.984625
H215	H	-0.089316	0.314127	-0.000012
H216	H	0.410684	0.814127	0.499988
H217	H	-0.094101	0.163457	0.000007
H218	H	0.405899	0.663457	0.500007
H219	H	-0.124416	0.529280	0.000001
H220	H	0.375584	1.029280	0.500001
H221	H	-0.119635	0.679961	0.000010
H222	H	0.380365	1.179961	0.500010
O223	O	0.033887	1.033114	0.389450
O224	O	0.533887	1.533114	0.889450
H225	H	0.013776	1.069417	0.430711
H226	H	0.513776	1.569417	0.930711
O227	O	-0.184888	0.782936	0.000037
O228	O	0.315112	1.282936	0.500037
H229	H	-0.196831	0.751325	-0.058613
H230	H	0.303169	1.251325	0.441387
O231	O	-0.289607	0.784682	0.000022
O232	O	0.210393	1.284682	0.500022
H233	H	-0.269768	0.733758	0.000039
H234	H	0.230232	1.233758	0.500039
O235	O	-0.425491	0.714195	0.000001
O236	O	0.074509	1.214195	0.500001
H237	H	-0.457626	0.664144	-0.000008
H238	H	0.042374	1.164144	0.499992
H239	H	0.050213	1.058469	0.622478
H240	H	0.550213	1.558469	1.122478
O241	O	-0.530204	0.715949	0.000006
O242	O	-0.030204	1.215949	0.500006
H243	H	-0.510363	0.665027	0.000021
H244	H	-0.010363	1.165027	0.500021
H245	H	-0.803876	0.812531	-0.000011
H246	H	-0.303876	1.312531	0.499989
O247	O	-0.867513	1.096878	-0.000038
O248	O	-0.367513	1.596878	0.499962
H249	H	-0.835380	1.146934	-0.000050
H250	H	-0.335380	1.646934	0.499950
H251	H	-0.248534	1.067279	0.000019
H252	H	0.251466	1.567279	0.500019
H253	H	-0.771795	1.076047	-0.000034
H254	H	-0.271795	1.576047	0.499966
H255	H	-0.471428	1.143781	-0.000041
H256	H	0.028572	1.643781	0.499959
O257	O	-0.371037	1.161323	-0.000033
O258	O	0.128963	1.661323	0.499967
H259	H	-0.390873	1.212251	-0.000031
H260	H	0.109127	1.712251	0.499969
O261	O	-0.626904	1.165606	-0.000056
O262	O	-0.126904	1.665606	0.499944
H263	H	-0.594770	1.215662	-0.000068
H264	H	-0.094770	1.715662	0.499932
H265	H	-0.157125	1.065740	0.000024
H266	H	0.342875	1.565740	0.500024
O267	O	-0.576630	0.716728	-0.000019
O268	O	-0.076630	1.216728	0.499981
H269	H	-0.608765	0.666676	-0.000026
H270	H	-0.108765	1.166676	0.499974
