data_functionalizedCrystal
_audit_creation_method	'MofGen! by Chris Wilmer'
_symmetry_space_group_name_H-M	'P1'
_symmetry_Int_Tables_number	1
_symmetry_cell_setting	triclinic
loop_
_symmetry_equiv_pos_as_xyz
  x,y,z
_cell_length_a	8.497374
_cell_length_b	19.077105
_cell_length_c	19.076919
_cell_angle_alpha	90.076224
_cell_angle_beta	92.288646
_cell_angle_gamma	87.698119
loop_
_atom_site_label
_atom_site_type_symbol
_atom_site_fract_x
_atom_site_fract_y
_atom_site_fract_z
Zn1	Zn	0.763226	-1.058405	0.440518
Zn2	Zn	1.016886	-1.063090	0.323044
Zn3	Zn	0.742092	-0.945619	0.318309
Zn4	Zn	1.015935	-0.940911	0.435797
O5	O	0.884535	-1.002006	0.379417
O6	O	0.806117	-1.157360	0.428893
O7	O	0.971988	-1.051438	0.224084
O8	O	0.524134	-0.960590	0.334514
O9	O	0.992481	-1.160802	0.342585
O10	O	0.539661	-1.043454	0.424300
O11	O	0.770098	-0.965133	0.220604
O12	O	0.769175	-0.846661	0.329936
O13	O	0.990859	-0.952566	0.534756
O14	O	0.970366	-0.843203	0.416254
O15	O	0.805195	-1.038889	0.538224
O16	O	1.237522	-1.046873	0.338008
O17	O	1.236823	-0.957109	0.420846
C18	C	0.867375	-0.819435	0.372069
C19	C	0.860074	-0.741330	0.368942
C20	C	0.900278	-0.994680	0.562699
C21	C	0.906987	-0.991558	0.640803
C22	C	0.901763	-1.185291	0.386794
C23	C	0.909104	-1.263395	0.389937
C24	C	1.294415	-1.001997	0.379427
C25	C	1.473060	-1.002016	0.379416
C26	C	0.868743	-1.009345	0.196849
C27	C	0.861602	-1.012603	0.118751
C28	C	0.961539	-0.702856	0.412344
C29	C	0.954658	-0.629468	0.409410
C30	C	0.846318	-0.594554	0.363069
C31	C	0.744842	-0.633033	0.319666
C32	C	0.751717	-0.706420	0.322604
C33	C	0.814502	-0.375261	0.349473
C34	C	0.807639	-0.301869	0.346536
C35	C	1.017454	-0.298309	0.436281
C36	C	1.024325	-0.371697	0.439212
C37	C	0.922843	-0.410170	0.395812
N38	N	0.839286	-0.519539	0.360067
N39	N	0.929870	-0.485183	0.398818
C40	C	0.813478	-1.035032	0.679304
C41	C	0.819775	-1.032090	0.752690
C42	C	0.919590	-0.985676	0.787575
C43	C	1.013103	-0.942197	0.749070
C44	C	1.006797	-0.945136	0.675684
C45	C	0.948809	-0.972063	1.006860
C46	C	0.955111	-0.969129	1.080251
C47	C	0.761780	-1.059021	1.083866
C48	C	0.755490	-1.061959	1.010480
C49	C	0.848996	-1.018477	0.971980
N50	N	0.926033	-0.982669	0.862588
N51	N	0.842544	-1.021481	0.896968
H52	H	1.037283	-0.598145	0.444751
H53	H	1.112550	-0.400119	0.476946
H54	H	0.743634	-1.067493	0.784034
H55	H	0.685650	-1.094420	1.115220
N56	N	0.647837	-1.112021	0.972855
H57	H	0.589553	-1.139116	1.008381
H58	H	0.569525	-1.084642	0.941250
H59	H	1.100072	-0.266977	0.471616
H60	H	0.656623	-0.604601	0.281938
H61	H	0.669085	-0.737744	0.287266
N62	N	0.705029	-0.416751	0.302675
H63	H	0.635353	-0.383495	0.272876
H64	H	0.769154	-0.448504	0.271328
N65	N	1.062779	-0.919069	1.117880
H66	H	1.121058	-0.891969	1.082356
H67	H	0.998120	-0.885338	1.147019
N68	N	1.049603	-0.925145	0.965340
H69	H	1.113776	-0.895292	0.998577
H70	H	1.122700	-0.954938	0.936031
H71	H	0.732203	-1.072829	0.650906
N72	N	1.120726	-0.892120	0.786691
H73	H	1.110528	-0.896852	0.839023
H74	H	1.233330	-0.903552	0.774312
N75	N	0.690805	-0.264223	0.296532
H76	H	0.749186	-0.235088	0.262707
H77	H	0.627618	-0.299784	0.269534
N78	N	1.107637	-0.898240	0.634155
H79	H	1.171826	-0.868391	0.667389
H80	H	1.180719	-0.928054	0.604857
N81	N	1.078405	-0.740506	0.462323
H82	H	1.057197	-0.725738	0.512035
H83	H	1.067316	-0.792825	0.457539
