data_functionalizedCrystal
_audit_creation_method	'MofGen! by Chris Wilmer'
_symmetry_space_group_name_H-M	'P1'
_symmetry_Int_Tables_number	1
_symmetry_cell_setting	triclinic
loop_
_symmetry_equiv_pos_as_xyz
  x,y,z
_cell_length_a	15.995350
_cell_length_b	27.732048
_cell_length_c	15.072220
_cell_angle_alpha	90.007580
_cell_angle_beta	89.998728
_cell_angle_gamma	83.067515
loop_
_atom_site_label
_atom_site_type_symbol
_atom_site_fract_x
_atom_site_fract_y
_atom_site_fract_z
O1	O	1.110177	0.062303	0.073717
O2	O	1.360177	0.312303	0.323717
O3	O	1.610177	0.562303	0.573717
O4	O	1.860177	0.812303	0.823717
O5	O	0.866302	0.069997	0.073737
O6	O	1.116302	0.319997	0.323737
O7	O	1.366302	0.569997	0.573737
O8	O	1.616302	0.819997	0.823737
O9	O	0.995814	-0.004214	0.073709
O10	O	1.245814	0.245786	0.323709
O11	O	1.495814	0.495786	0.573709
O12	O	1.745814	0.745786	0.823709
O13	O	0.980665	0.136514	0.073744
O14	O	1.230665	0.386514	0.323744
O15	O	1.480665	0.636514	0.573744
O16	O	1.730665	0.886514	0.823744
O17	O	0.995807	-0.004214	-0.073856
O18	O	1.245807	0.245786	0.176144
O19	O	1.495807	0.495786	0.426144
O20	O	1.745807	0.745786	0.676144
O21	O	0.866296	0.069997	-0.073828
O22	O	1.116296	0.319997	0.176172
O23	O	1.366296	0.569997	0.426172
O24	O	1.616296	0.819997	0.676172
O25	O	1.110171	0.062304	-0.073848
O26	O	1.360171	0.312304	0.176152
O27	O	1.610171	0.562304	0.426152
O28	O	1.860171	0.812304	0.676152
Zn29	Zn	0.988232	0.066151	-0.097267
Zn30	Zn	1.238232	0.316151	0.152733
Zn31	Zn	1.488232	0.566151	0.402733
Zn32	Zn	1.738232	0.816151	0.652733
Zn33	Zn	0.988241	0.066150	0.097156
Zn34	Zn	1.238241	0.316150	0.347156
Zn35	Zn	1.488241	0.566150	0.597156
Zn36	Zn	1.738241	0.816150	0.847156
O37	O	0.980659	0.136515	-0.073821
O38	O	1.230659	0.386515	0.176179
O39	O	1.480659	0.636515	0.426179
O40	O	1.730659	0.886515	0.676179
C41	C	0.835108	0.069679	-0.000044
C42	C	1.085108	0.319679	0.249956
C43	C	1.335108	0.569679	0.499956
C44	C	1.585108	0.819679	0.749956
C45	C	0.742170	0.068726	-0.000037
C46	C	0.992170	0.318726	0.249963
C47	C	1.242170	0.568726	0.499963
C48	C	1.492170	0.818726	0.749963
C49	C	0.404467	0.065301	-0.000056
C50	C	0.654467	0.315301	0.249944
C51	C	0.904467	0.565301	0.499944
C52	C	1.154467	0.815301	0.749944
C53	C	0.452585	0.012449	-0.000399
C54	C	0.702585	0.262449	0.249601
C55	C	0.952585	0.512449	0.499601
C56	C	1.202585	0.762449	0.749601
C57	C	0.549263	0.013403	-0.000060
C58	C	0.799263	0.263403	0.249940
C59	C	1.049263	0.513403	0.499940
C60	C	1.299263	0.763403	0.749940
C61	C	0.572006	0.067000	-0.000047
C62	C	0.822006	0.317000	0.249953
C63	C	1.072006	0.567000	0.499953
C64	C	1.322006	0.817000	0.749953
C65	C	0.530585	0.093068	0.084223
C66	C	0.780585	0.343068	0.334223
C67	C	1.030585	0.593068	0.584223
C68	C	1.280585	0.843068	0.834223
C69	C	0.433966	0.091740	0.084287
C70	C	0.683966	0.341740	0.334287
C71	C	0.933966	0.591740	0.584287
C72	C	1.183966	0.841740	0.834287
C73	C	0.433606	0.092832	-0.083522
C74	C	0.683606	0.342832	0.166478
C75	C	0.933606	0.592832	0.416478
C76	C	1.183606	0.842832	0.666478
C77	C	0.530552	0.092820	-0.084630
C78	C	0.780552	0.342820	0.165370
C79	C	1.030552	0.592820	0.415370
C80	C	1.280552	0.842820	0.665370
C81	C	0.666691	0.067962	-0.000039
C82	C	0.916691	0.317962	0.249961
C83	C	1.166691	0.567962	0.499961
C84	C	1.416691	0.817962	0.749961
C85	C	0.309782	0.064340	-0.000058
C86	C	0.559782	0.314340	0.249942
C87	C	0.809782	0.564340	0.499942
C88	C	1.059782	0.814340	0.749942
C89	C	0.995493	-0.022222	-0.000076
C90	C	1.245493	0.227778	0.249924
C91	C	1.495493	0.477778	0.499924
C92	C	1.745493	0.727778	0.749924
C93	C	0.994535	-0.075881	-0.000083
C94	C	1.244535	0.174119	0.249917
C95	C	1.494535	0.424119	0.499917
C96	C	1.744535	0.674119	0.749917
C97	C	1.065040	-0.414392	-0.000043
C98	C	1.315040	-0.164392	0.249957
C99	C	1.565040	0.085608	0.499957
C100	C	1.815040	0.335608	0.749957
C101	C	1.061487	-0.616067	-0.000030
C102	C	1.311487	-0.366067	0.249970
C103	C	1.561487	-0.116067	0.499970
C104	C	1.811487	0.133933	0.749970
O105	O	1.125959	-0.647045	0.000004
O106	O	1.375959	-0.397045	0.250004
O107	O	1.625959	-0.147045	0.500004
O108	O	1.875959	0.102955	0.750004
N109	N	0.984692	-0.635522	-0.000025
N110	N	1.234692	-0.385522	0.249975
N111	N	1.484692	-0.135522	0.499975
N112	N	1.734692	0.114478	0.749975
C113	C	0.908780	-0.604555	-0.000017
C114	C	1.158780	-0.354555	0.249983
C115	C	1.408780	-0.104555	0.499983
C116	C	1.658780	0.145445	0.749983
O117	O	0.843380	-0.625730	-0.000003
O118	O	1.093380	-0.375730	0.249997
O119	O	1.343380	-0.125730	0.499997
O120	O	1.593380	0.124270	0.749997
C121	C	0.912334	-0.402881	-0.000023
C122	C	1.162334	-0.152881	0.249977
C123	C	1.412334	0.097119	0.499977
C124	C	1.662334	0.347119	0.749977
C125	C	0.989134	-0.383429	-0.000037
C126	C	1.239134	-0.133429	0.249963
C127	C	1.489134	0.116571	0.499963
C128	C	1.739134	0.366571	0.749963
C129	C	1.141834	-0.394940	-0.000056
C130	C	1.391834	-0.144940	0.249944
C131	C	1.641834	0.105060	0.499944
C132	C	1.891834	0.355060	0.749944
C133	C	1.142721	-0.344524	-0.000064
C134	C	1.392721	-0.094524	0.249936
C135	C	1.642721	0.155476	0.499936
C136	C	1.892721	0.405476	0.749936
C137	C	1.066815	-0.313561	-0.000059
C138	C	1.316815	-0.063561	0.249941
C139	C	1.566815	0.186439	0.499941
C140	C	1.816815	0.436439	0.749941
C141	C	0.990021	-0.333013	-0.000045
C142	C	1.240021	-0.083013	0.249955
C143	C	1.490021	0.166987	0.499955
C144	C	1.740021	0.416987	0.749955
C145	C	0.836422	-0.371914	-0.000009
C146	C	1.086422	-0.121914	0.249991
C147	C	1.336422	0.128086	0.499991
C148	C	1.586422	0.378086	0.749991
C149	C	0.837317	-0.321493	-0.000008
C150	C	1.087317	-0.071493	0.249992
C151	C	1.337317	0.178507	0.499992
C152	C	1.587317	0.428507	0.749992
C153	C	0.914117	-0.302041	-0.000023
C154	C	1.164117	-0.052041	0.249977
C155	C	1.414117	0.197959	0.499977
C156	C	1.664117	0.447959	0.749977
C157	C	0.915002	-0.251634	-0.000048
C158	C	1.165002	-0.001634	0.249952
C159	C	1.415002	0.248366	0.499952
C160	C	1.665002	0.498366	0.749952
N161	N	0.991797	-0.232179	-0.000053
N162	N	1.241797	0.017821	0.249947
N163	N	1.491797	0.267821	0.499947
N164	N	1.741797	0.517821	0.749947
C165	C	1.067703	-0.263142	-0.000059
C166	C	1.317703	-0.013142	0.249941
C167	C	1.567703	0.236858	0.499941
C168	C	1.817703	0.486858	0.749941
C169	C	0.906920	-0.710437	-0.000015
C170	C	1.156920	-0.460437	0.249985
C171	C	1.406920	-0.210437	0.499985
C172	C	1.656920	0.039563	0.749985
C173	C	0.906031	-0.760855	-0.000015
C174	C	1.156031	-0.510855	0.249985
C175	C	1.406031	-0.260855	0.499985
C176	C	1.656031	-0.010855	0.749985
C177	C	1.058739	-0.772364	-0.000027
C178	C	1.308739	-0.522364	0.249973
C179	C	1.558739	-0.272364	0.499973
C180	C	1.808739	-0.022364	0.749973
C181	C	1.059627	-0.721945	-0.000033
C182	C	1.309627	-0.471945	0.249967
C183	C	1.559627	-0.221945	0.499967
C184	C	1.809627	0.028055	0.749967
C185	C	0.983715	-0.690982	-0.000021
C186	C	1.233715	-0.440982	0.249979
C187	C	1.483715	-0.190982	0.499979
C188	C	1.733715	0.059018	0.749979
C189	C	1.069561	-0.157265	-0.000076
C190	C	1.319561	0.092735	0.249924
C191	C	1.569561	0.342735	0.499924
C192	C	1.819561	0.592735	0.749924
C193	C	1.070442	-0.106844	-0.000088
C194	C	1.320442	0.143156	0.249912
C195	C	1.570442	0.393156	0.499912
C196	C	1.820442	0.643156	0.749912
C197	C	0.917734	-0.095340	-0.000072
C198	C	1.167734	0.154660	0.249928
C199	C	1.417734	0.404660	0.499928
C200	C	1.667734	0.654660	0.749928
C201	C	0.916853	-0.145756	-0.000065
C202	C	1.166853	0.104244	0.249935
C203	C	1.416853	0.354244	0.499935
C204	C	1.666853	0.604244	0.749935
C205	C	0.992773	-0.176718	-0.000064
C206	C	1.242773	0.073282	0.249936
C207	C	1.492773	0.323282	0.499936
C208	C	1.742773	0.573282	0.749936
O209	O	0.850565	-0.220628	-0.000072
O210	O	1.100565	0.029372	0.249928
O211	O	1.350565	0.279372	0.499928
O212	O	1.600565	0.529372	0.749928
O213	O	1.133094	-0.241958	-0.000053
O214	O	1.383094	0.008042	0.249947
O215	O	1.633094	0.258042	0.499947
O216	O	1.883094	0.508042	0.749947
C217	C	1.064153	-0.464808	-0.000035
C218	C	1.314153	-0.214808	0.249965
C219	C	1.564153	0.035192	0.499965
C220	C	1.814153	0.285192	0.749965
C221	C	0.987359	-0.484260	-0.000022
C222	C	1.237359	-0.234260	0.249978
C223	C	1.487359	0.015740	0.499978
C224	C	1.737359	0.265740	0.749978
C225	C	0.911452	-0.453297	-0.000016
C226	C	1.161452	-0.203297	0.249984
C227	C	1.411452	0.046703	0.499984
C228	C	1.661452	0.296703	0.749984
C229	C	0.986470	-0.534679	-0.000022
C230	C	1.236470	-0.284679	0.249978
C231	C	1.486470	-0.034679	0.499978
C232	C	1.736470	0.215321	0.749978
C233	C	1.062377	-0.565642	-0.000027
C234	C	1.312377	-0.315642	0.249973
C235	C	1.562377	-0.065642	0.499973
C236	C	1.812377	0.184358	0.749973
C237	C	1.139172	-0.546187	-0.000032
C238	C	1.389172	-0.296187	0.249968
C239	C	1.639172	-0.046187	0.499968
C240	C	1.889172	0.203813	0.749968
C241	C	1.140059	-0.495771	-0.000040
C242	C	1.390059	-0.245771	0.249960
C243	C	1.640059	0.004229	0.499960
C244	C	1.890059	0.254229	0.749960
C245	C	0.834657	-0.472752	-0.000011
C246	C	1.084657	-0.222752	0.249989
C247	C	1.334657	0.027248	0.499989
C248	C	1.584657	0.277248	0.749989
C249	C	0.833776	-0.523168	-0.000004
C250	C	1.083776	-0.273168	0.249996
C251	C	1.333776	-0.023168	0.499996
C252	C	1.583776	0.226832	0.749996
C253	C	0.909683	-0.554132	-0.000009
C254	C	1.159683	-0.304132	0.249991
C255	C	1.409683	-0.054132	0.499991
C256	C	1.659683	0.195868	0.749991
C257	C	1.141364	0.062621	-0.000066
C258	C	1.391364	0.312621	0.249934
C259	C	1.641364	0.562621	0.499934
C260	C	1.891364	0.812621	0.749934
C261	C	1.234303	0.063575	-0.000066
C262	C	1.484303	0.313575	0.249934
C263	C	1.734303	0.563575	0.499934
C264	C	1.984303	0.813575	0.749934
C265	C	0.980980	0.154523	-0.000034
C266	C	1.230980	0.404523	0.249966
C267	C	1.480980	0.654523	0.499966
C268	C	1.730980	0.904523	0.749966
C269	C	0.981938	0.208182	-0.000021
C270	C	1.231938	0.458182	0.249979
C271	C	1.481938	0.708182	0.499979
C272	C	1.731938	0.958182	0.749979
N273	N	0.988232	0.066151	-0.229956
N274	N	1.238232	0.316151	0.020044
N275	N	1.488232	0.566151	0.270044
N276	N	1.738232	0.816151	0.520044
N277	N	0.988247	0.066146	0.229845
N278	N	1.238247	0.316146	0.479845
N279	N	1.488247	0.566146	0.729845
N280	N	1.738247	0.816146	0.979845
C281	C	0.988237	0.066149	0.589046
C282	C	1.238237	0.316149	0.839046
C283	C	1.488237	0.566149	1.089046
C284	C	1.738237	0.816149	1.339046
C285	C	1.057461	0.026400	0.551397
C286	C	1.307461	0.276400	0.801397
C287	C	1.557461	0.526400	1.051397
C288	C	1.807461	0.776400	1.301397
C289	C	1.057707	0.026501	0.448572
C290	C	1.307707	0.276501	0.698572
C291	C	1.557707	0.526501	0.948572
C292	C	1.807707	0.776501	1.198572
C293	C	0.988242	0.066147	0.410842
C294	C	1.238242	0.316147	0.660842
C295	C	1.488242	0.566147	0.910842
C296	C	1.738242	0.816147	1.160842
C297	C	1.006444	0.116621	0.448181
C298	C	1.256444	0.366621	0.698181
C299	C	1.506444	0.616621	0.948181
C300	C	1.756444	0.866621	1.198181
C301	C	1.006938	0.116389	0.551039
C302	C	1.256938	0.366389	0.801039
C303	C	1.506938	0.616389	1.051039
C304	C	1.756938	0.866389	1.301039
C305	C	0.900600	0.055879	0.551142
C306	C	1.150600	0.305879	0.801142
C307	C	1.400600	0.555879	1.051142
C308	C	1.650600	0.805879	1.301142
C309	C	0.901203	0.054731	0.448278
C310	C	1.151203	0.304731	0.698278
C311	C	1.401203	0.554731	0.948278
C312	C	1.651203	0.804731	1.198278
C313	C	0.988243	0.066149	0.310129
C314	C	1.238243	0.316149	0.560129
C315	C	1.488243	0.566149	0.810129
C316	C	1.738243	0.816149	1.060129
C317	C	0.988238	0.066151	0.689760
C318	C	1.238238	0.316151	0.939760
C319	C	1.488238	0.566151	1.189760
C320	C	1.738238	0.816151	1.439760
H321	H	0.545411	0.131904	-0.089710
H322	H	0.795411	0.381904	0.160290
H323	H	1.045411	0.631904	0.410290
H324	H	1.295411	0.881904	0.660290
F325	F	1.088987	0.128712	0.414506
F326	F	1.338987	0.378712	0.664506
F327	F	1.588987	0.628712	0.914506
F328	F	1.838987	0.878712	1.164506
H329	H	0.577954	-0.007088	-0.060468
H330	H	0.827954	0.242912	0.189532
H331	H	1.077954	0.492912	0.439532
H332	H	1.327954	0.742912	0.689532
H333	H	0.854317	-0.161595	-0.000078
H334	H	1.104317	0.088405	0.249922
H335	H	1.354317	0.338405	0.499922
H336	H	1.604317	0.588405	0.749922
H337	H	1.200977	-0.571406	-0.000040
H338	H	1.450977	-0.321406	0.249960
H339	H	1.700977	-0.071406	0.499960
H340	H	1.950977	0.178594	0.749960
H341	H	0.849096	0.084865	0.575491
H342	H	1.099096	0.334865	0.825491
H343	H	1.349096	0.584865	1.075491
H344	H	1.599096	0.834865	1.325491
H345	H	1.070824	0.125421	0.575025
H346	H	1.320824	0.375421	0.825025
H347	H	1.570824	0.625421	1.075025
H348	H	1.820824	0.875421	1.325025
F349	F	0.756519	-0.288543	0.000007
F350	F	1.006519	-0.038543	0.250007
F351	F	1.256519	0.211457	0.500007
F352	F	1.506519	0.461457	0.750007
F353	F	1.224463	-0.323828	-0.000060
F354	F	1.474463	-0.073828	0.249940
F355	F	1.724463	0.176172	0.499940
F356	F	1.974463	0.426172	0.749940
H357	H	1.203650	-0.420146	-0.000057
H358	H	1.453650	-0.170146	0.249943
H359	H	1.703650	0.079854	0.499943
H360	H	1.953650	0.329854	0.749943
F361	F	1.221801	-0.475076	-0.000050
F362	F	1.471801	-0.225076	0.249950
F363	F	1.721801	0.024924	0.499950
F364	F	1.971801	0.274924	0.749950
H365	H	0.773883	-0.387743	0.000008
H366	H	1.023883	-0.137743	0.250008
H367	H	1.273883	0.112257	0.500008
H368	H	1.523883	0.362257	0.750008
F369	F	0.826118	-0.677489	-0.000002
F370	F	1.076118	-0.427489	0.249998
F371	F	1.326118	-0.177489	0.499998
F372	F	1.576118	0.072511	0.749998
F373	F	0.428725	-0.015164	-0.079391
F374	F	0.678725	0.234836	0.170609
F375	F	0.928725	0.484836	0.420609
F376	F	1.178725	0.734836	0.670609
F377	F	0.752029	-0.543864	0.000006
F378	F	1.002029	-0.293864	0.250006
F379	F	1.252029	-0.043864	0.500006
F380	F	1.502029	0.206136	0.750006
H381	H	1.120545	-0.797583	-0.000032
H382	H	1.370545	-0.547583	0.249968
H383	H	1.620545	-0.297583	0.499968
H384	H	1.870545	-0.047583	0.749968
H385	H	1.122759	0.033075	0.423960
H386	H	1.372759	0.283075	0.673960
H387	H	1.622759	0.533075	0.923960
H388	H	1.872759	0.783075	1.173960
H389	H	0.772844	-0.447546	-0.000005
H390	H	1.022844	-0.197546	0.249995
H391	H	1.272844	0.052454	0.499995
H392	H	1.522844	0.302454	0.749995
H393	H	0.401216	0.130543	0.088120
H394	H	0.651216	0.380543	0.338120
H395	H	0.901216	0.630543	0.588120
H396	H	1.151216	0.880543	0.838120
F397	F	1.043708	-0.022799	0.583718
F398	F	1.293708	0.227201	0.833718
F399	F	1.543708	0.477201	1.083718
F400	F	1.793708	0.727201	1.333718
H401	H	0.401340	0.131799	-0.084083
H402	H	0.651340	0.381799	0.165917
H403	H	0.901340	0.631799	0.415917
H404	H	1.151340	0.881799	0.665917
F405	F	0.586005	-0.013452	0.079149
F406	F	0.836005	0.236548	0.329149
F407	F	1.086005	0.486548	0.579149
F408	F	1.336005	0.736548	0.829149
F409	F	0.883111	0.006204	0.416363
F410	F	1.133111	0.256204	0.666363
F411	F	1.383111	0.506204	0.916363
F412	F	1.633111	0.756204	1.166363
H413	H	0.544201	0.132444	0.087365
H414	H	0.794201	0.382444	0.337365
H415	H	1.044201	0.632444	0.587365
H416	H	1.294201	0.882444	0.837365
H417	H	1.046998	-0.011014	0.423325
H418	H	1.296998	0.238986	0.673325
H419	H	1.546998	0.488986	0.923325
H420	H	1.796998	0.738986	1.173325
F421	F	0.943949	0.156458	0.583595
F422	F	1.193949	0.406458	0.833595
F423	F	1.443949	0.656458	1.083595
F424	F	1.693949	0.906458	1.333595
F425	F	0.830802	0.090110	0.414719
F426	F	1.080802	0.340110	0.664719
F427	F	1.330802	0.590110	0.914719
F428	F	1.580802	0.840110	1.164719
H429	H	1.122146	0.032876	0.577252
H430	H	1.372146	0.282876	0.827252
H431	H	1.622146	0.532876	1.077252
H432	H	1.872146	0.782876	1.327252
F433	F	1.152186	-0.086146	-0.000103
F434	F	1.402186	0.163854	0.249897
F435	F	1.652186	0.413854	0.499897
F436	F	1.902186	0.663854	0.749897
F437	F	0.567979	0.069402	0.166187
F438	F	0.817979	0.319402	0.416187
F439	F	1.067979	0.569402	0.666187
F440	F	1.317979	0.819402	0.916187
H441	H	0.843493	-0.776688	-0.000019
H442	H	1.093493	-0.526688	0.249981
H443	H	1.343493	-0.276688	0.499981
H444	H	1.593493	-0.026688	0.749981
F445	F	0.407058	0.070247	-0.167011
F446	F	0.657058	0.320247	0.082989
F447	F	0.907058	0.570247	0.332989
F448	F	1.157058	0.820247	0.582989
H449	H	1.122164	-0.706111	-0.000044
H450	H	1.372164	-0.456111	0.249956
H451	H	1.622164	-0.206111	0.499956
H452	H	1.872164	0.043889	0.749956
H453	H	0.855933	-0.070121	-0.000071
H454	H	1.105933	0.179879	0.249929
H455	H	1.355933	0.429879	0.499929
H456	H	1.605933	0.679879	0.749929
H457	H	0.957329	0.146917	0.423744
H458	H	1.207329	0.396917	0.673744
H459	H	1.457329	0.646917	0.923744
H460	H	1.707329	0.896917	1.173744
F461	F	0.877455	0.008792	0.585041
F462	F	1.127455	0.258792	0.835041
F463	F	1.377455	0.508792	1.085041
F464	F	1.627455	0.758792	1.335041
F465	F	1.150364	-0.190210	-0.000075
F466	F	1.400364	0.059790	0.249925
F467	F	1.650364	0.309790	0.499925
F468	F	1.900364	0.559790	0.749925
H469	H	0.433266	-0.008580	0.059692
H470	H	0.683266	0.241420	0.309692
H471	H	0.933266	0.491420	0.559692
H472	H	1.183266	0.741420	0.809692
H473	H	0.415907	0.072730	0.147272
H474	H	0.665907	0.322730	0.397272
H475	H	0.915907	0.572730	0.647272
H476	H	1.165907	0.822730	0.897272
H477	H	0.558112	0.073790	-0.146972
H478	H	0.808112	0.323790	0.103028
H479	H	1.058112	0.573790	0.353028
H480	H	1.308112	0.823790	0.603028
