data_functionalizedCrystal
_audit_creation_method	'MofGen! by Chris Wilmer'
_symmetry_space_group_name_H-M	'P1'
_symmetry_Int_Tables_number	1
_symmetry_cell_setting	triclinic
loop_
_symmetry_equiv_pos_as_xyz
  x,y,z
_cell_length_a	18.101398
_cell_length_b	18.050589
_cell_length_c	18.050582
_cell_angle_alpha	89.981795
_cell_angle_beta	89.994346
_cell_angle_gamma	90.023777
loop_
_atom_site_label
_atom_site_type_symbol
_atom_site_fract_x
_atom_site_fract_y
_atom_site_fract_z
Zn1	Zn	1.132106	-0.295795	-0.419751
Zn2	Zn	1.465439	0.037539	-0.086418
Zn3	Zn	1.798773	0.370872	0.246915
Zn4	Zn	1.132017	-0.419978	-0.295571
Zn5	Zn	1.465350	-0.086645	0.037762
Zn6	Zn	1.798683	0.246689	0.371096
Zn7	Zn	1.008274	-0.295797	-0.295596
Zn8	Zn	1.341607	0.037537	0.037738
Zn9	Zn	1.674940	0.370870	0.371071
Zn10	Zn	1.008222	-0.419938	-0.419739
Zn11	Zn	1.341555	-0.086604	-0.086406
Zn12	Zn	1.674888	0.246729	0.246927
O13	O	1.070155	-0.357877	-0.357664
O14	O	1.403488	-0.024544	-0.024331
O15	O	1.736821	0.308790	0.309002
O16	O	1.235727	-0.312284	-0.403273
O17	O	1.569060	0.021049	-0.069940
O18	O	1.902394	0.354383	0.263393
O19	O	1.115586	-0.403523	-0.191650
O20	O	1.448920	-0.070189	0.141684
O21	O	1.782253	0.263144	0.475017
O22	O	1.024759	-0.191872	-0.312080
O23	O	1.358093	0.141461	0.021253
O24	O	1.691426	0.474795	0.354586
O25	O	1.235662	-0.403521	-0.312038
O26	O	1.568995	-0.070188	0.021295
O27	O	1.902328	0.263146	0.354628
O28	O	1.115738	-0.191870	-0.403297
O29	O	1.449072	0.141463	-0.069964
O30	O	1.782405	0.474796	0.263369
O31	O	1.024673	-0.312287	-0.191668
O32	O	1.358006	0.021046	0.141666
O33	O	1.691340	0.354379	0.474999
O34	O	0.904634	-0.312248	-0.312069
O35	O	1.237967	0.021085	0.021264
O36	O	1.571301	0.354418	0.354598
O37	O	1.024671	-0.403452	-0.523666
O38	O	1.358004	-0.070119	-0.190332
O39	O	1.691338	0.263214	0.143001
O40	O	0.904596	-0.403454	-0.403277
O41	O	1.237929	-0.070121	-0.069944
O42	O	1.571262	0.263212	0.263390
O43	O	1.115688	-0.312245	-0.523674
O44	O	1.449021	0.021088	-0.190341
O45	O	1.782355	0.354422	0.142992
O46	O	1.115536	-0.523897	-0.312027
O47	O	1.448870	-0.190564	0.021307
O48	O	1.782203	0.142769	0.354640
O49	O	1.024584	-0.523868	-0.403253
O50	O	1.357918	-0.190534	-0.069920
O51	O	1.691251	0.142799	0.263414
C52	C	0.877744	-0.357848	-0.357675
C53	C	1.211077	-0.024514	-0.024341
C54	C	1.544411	0.308819	0.308992
C55	C	0.795430	-0.357853	-0.357697
C56	C	1.128763	-0.024520	-0.024363
C57	C	1.462097	0.308814	0.308970
C58	C	0.496339	-0.357897	-0.357666
C59	C	0.829672	-0.024563	-0.024332
C60	C	1.163006	0.308770	0.309001
C61	C	0.527665	-0.415558	-0.414768
C62	C	0.860998	-0.082225	-0.081435
C63	C	1.194332	0.251108	0.251899
C64	C	0.613283	-0.415378	-0.415003
C65	C	0.946617	-0.082045	-0.081669
C66	C	1.279950	0.251289	0.251664
C67	C	0.644721	-0.357876	-0.357681
C68	C	0.978055	-0.024542	-0.024348
C69	C	1.311388	0.308791	0.308986
C70	C	0.613662	-0.279656	-0.379063
C71	C	0.946995	0.053677	-0.045730
C72	C	1.280328	0.387011	0.287604
C73	C	0.528017	-0.280002	-0.379469
C74	C	0.861350	0.053331	-0.046136
C75	C	1.194683	0.386664	0.287198
C76	C	0.527893	-0.377765	-0.279044
C77	C	0.861226	-0.044432	0.054289
C78	C	1.194560	0.288902	0.387623
C79	C	0.613543	-0.379481	-0.279464
C80	C	0.946876	-0.046148	0.053869
C81	C	1.280210	0.287185	0.387203
C82	C	0.728581	-0.357859	-0.357689
C83	C	1.061914	-0.024526	-0.024355
C84	C	1.395248	0.308808	0.308978
C85	C	0.412479	-0.357908	-0.357660
C86	C	0.745813	-0.024575	-0.024327
C87	C	1.079146	0.308758	0.309007
C88	C	1.070065	-0.550829	-0.357652
C89	C	1.403398	-0.217496	-0.024319
C90	C	1.736732	0.115838	0.309015
C91	C	1.070095	-0.633375	-0.357672
C92	C	1.403428	-0.300041	-0.024338
C93	C	1.736761	0.033292	0.308995
C94	C	1.020684	-0.832836	-0.407263
C95	C	1.354017	-0.499503	-0.073930
C96	C	1.687350	-0.166170	0.259404
C97	C	1.002637	-0.882269	-0.339499
C98	C	1.335970	-0.548935	-0.006165
C99	C	1.669303	-0.215602	0.327168
C100	C	1.070167	-0.784505	-0.357681
C101	C	1.403501	-0.451172	-0.024348
C102	C	1.736834	-0.117838	0.308985
C103	C	1.088251	-0.882154	-0.425453
C104	C	1.421584	-0.548821	-0.092120
C105	C	1.754917	-0.215488	0.241213
C106	C	1.070236	-0.930490	-0.357697
C107	C	1.403570	-0.597157	-0.024363
C108	C	1.736903	-0.263823	0.308970
C109	C	1.052085	-0.832850	-0.289881
C110	C	1.385418	-0.499517	0.043452
C111	C	1.718751	-0.166184	0.376786
C112	C	1.137730	-0.832731	-0.375881
C113	C	1.471064	-0.499398	-0.042548
C114	C	1.804397	-0.166065	0.290785
C115	C	1.119709	-0.882142	-0.308070
C116	C	1.453042	-0.548808	0.025263
C117	C	1.786376	-0.215475	0.358596
C118	C	1.070126	-0.700407	-0.357673
C119	C	1.403459	-0.367073	-0.024340
C120	C	1.736792	-0.033740	0.308993
C121	C	1.070278	-1.014587	-0.357697
C122	C	1.403611	-0.681253	-0.024363
C123	C	1.736945	-0.347920	0.308970
C124	C	1.263316	-0.357907	-0.357654
C125	C	1.596650	-0.024573	-0.024321
C126	C	1.929983	0.308760	0.309012
C127	C	1.345630	-0.357919	-0.357650
C128	C	1.678964	-0.024586	-0.024317
C129	C	2.012297	0.308747	0.309017
C130	C	1.070184	-0.357844	-0.551370
C131	C	1.403517	-0.024511	-0.218037
C132	C	1.736850	0.308823	0.115297
C133	C	1.070196	-0.357830	-0.633916
C134	C	1.403529	-0.024497	-0.300582
C135	C	1.736863	0.308837	0.032751
C136	C	1.070264	-0.164171	-0.357693
C137	C	1.403598	0.169162	-0.024360
C138	C	1.736931	0.502495	0.308974
C139	C	1.070311	-0.081625	-0.357705
C140	C	1.403645	0.251708	-0.024372
C141	C	1.736978	0.585041	0.308962
C142	C	1.020739	-0.407361	-0.833362
C143	C	1.354072	-0.074027	-0.500028
C144	C	1.687405	0.259306	-0.166695
C145	C	1.088304	-0.425519	-0.882744
C146	C	1.421637	-0.092186	-0.549410
C147	C	1.754970	0.241147	-0.216077
C148	C	1.070232	-0.357773	-0.785046
C149	C	1.403566	-0.024440	-0.451713
C150	C	1.736899	0.308893	-0.118380
C151	C	1.002704	-0.339594	-0.882746
C152	C	1.336038	-0.006261	-0.549413
C153	C	1.669371	0.327073	-0.216080
C154	C	1.070262	-0.357720	-0.931031
C155	C	1.403595	-0.024387	-0.597698
C156	C	1.736928	0.308947	-0.264365
C157	C	1.137833	-0.375967	-0.833341
C158	C	1.471166	-0.042634	-0.500007
C159	C	1.804500	0.290699	-0.166674
C160	C	1.052188	-0.290010	-0.833339
C161	C	1.385521	0.043323	-0.500006
C162	C	1.718855	0.376656	-0.166672
C163	C	1.119800	-0.308143	-0.882699
C164	C	1.453133	0.025190	-0.549365
C165	C	1.786467	0.358523	-0.216032
C166	C	1.070215	-0.357806	-0.700948
C167	C	1.403548	-0.024472	-0.367615
C168	C	1.736881	0.308861	-0.034281
C169	C	1.070287	-0.357687	-1.015128
C170	C	1.403621	-0.024354	-0.681795
C171	C	1.736954	0.308980	-0.348461
C172	C	1.070168	-0.357856	-0.164712
C173	C	1.403502	-0.024523	0.168621
C174	C	1.736835	0.308811	0.501954
C175	C	1.070299	-0.357661	-0.082167
C176	C	1.403633	-0.024328	0.251166
C177	C	1.736966	0.309006	0.584500
H178	H	0.506150	-0.402580	-0.472685
H179	H	0.839483	-0.069247	-0.139352
H180	H	1.172816	0.264086	0.193982
F181	F	0.927994	-0.910708	-0.319378
F182	F	1.261328	-0.577375	0.013955
F183	F	1.594661	-0.244041	0.347288
H184	H	0.634026	-0.235530	-0.338769
H185	H	0.967360	0.097804	-0.005436
H186	H	1.300693	0.431137	0.327897
F187	F	0.501414	-0.322870	-0.223432
F188	F	0.834747	0.010464	0.109902
F189	F	1.168080	0.343797	0.443235
F190	F	0.640079	-0.398196	-0.491145
F191	F	0.973412	-0.064862	-0.157811
F192	F	1.306745	0.268471	0.175522
H193	H	0.633851	-0.437040	-0.263338
H194	H	0.967184	-0.103706	0.069996
H195	H	1.300518	0.229627	0.403329
F196	F	1.032044	-0.804663	-0.214953
F197	F	1.365378	-0.471330	0.118380
F198	F	1.698711	-0.137996	0.451713
H199	H	0.634944	-0.340532	-0.234634
H200	H	0.968278	-0.007199	0.098699
H201	H	1.301611	0.326134	0.432033
F202	F	0.965909	-0.804536	-0.461992
F203	F	1.299243	-0.471203	-0.128658
F204	F	1.632576	-0.137870	0.204675
H205	H	0.506284	-0.433827	-0.259612
H206	H	0.839617	-0.100494	0.073722
H207	H	1.172950	0.232840	0.407055
F208	F	1.174446	-0.910261	-0.253213
F209	F	1.507780	-0.576928	0.080120
F210	F	1.841113	-0.243595	0.413454
H211	H	1.103584	-0.482802	-0.904444
H212	H	1.436917	-0.149469	-0.571111
H213	H	1.770250	0.183864	-0.237778
F214	F	0.640733	-0.491200	-0.397512
F215	F	0.974066	-0.157866	-0.064179
F216	F	1.307399	0.175467	0.269155
F217	F	0.928046	-0.319524	-0.911113
F218	F	1.261379	0.013809	-0.577780
F219	F	1.594712	0.347143	-0.244446
H220	H	1.194969	-0.391386	-0.811730
H221	H	1.528303	-0.058053	-0.478397
H222	H	1.861636	0.275280	-0.145064
F223	F	0.501917	-0.257976	-0.454594
F224	F	0.835250	0.075357	-0.121261
F225	F	1.168584	0.408690	0.212073
H226	H	0.507053	-0.473752	-0.401518
H227	H	0.840387	-0.140419	-0.068184
H228	H	1.173720	0.192914	0.265149
H229	H	1.194821	-0.810958	-0.391294
H230	H	1.528154	-0.477624	-0.057961
H231	H	1.861488	-0.144291	0.275373
F232	F	0.500930	-0.221945	-0.327479
F233	F	0.834263	0.111388	0.005854
F234	F	1.167596	0.444721	0.339188
F235	F	1.174585	-0.253303	-0.910839
F236	F	1.507919	0.080031	-0.577506
F237	F	1.841252	0.413364	-0.244172
H238	H	1.103518	-0.903811	-0.482761
H239	H	1.436852	-0.570478	-0.149428
H240	H	1.770185	-0.237145	0.183905
F241	F	0.966082	-0.462241	-0.805045
F242	F	1.299415	-0.128908	-0.471711
F243	F	1.632749	0.204425	-0.138378
H244	H	1.036889	-0.232744	-0.811622
H245	H	1.370222	0.100589	-0.478289
H246	H	1.703555	0.433923	-0.144955
H247	H	0.635121	-0.262499	-0.435914
H248	H	0.968455	0.070835	-0.102581
H249	H	1.301788	0.404168	0.230753
