data_functionalizedCrystal
_audit_creation_method	'MofGen! by Chris Wilmer'
_symmetry_space_group_name_H-M	'P1'
_symmetry_Int_Tables_number	1
_symmetry_cell_setting	triclinic
loop_
_symmetry_equiv_pos_as_xyz
  x,y,z
_cell_length_a	19.188900
_cell_length_b	17.699083
_cell_length_c	17.666332
_cell_angle_alpha	90.004809
_cell_angle_beta	90.014953
_cell_angle_gamma	96.792247
loop_
_atom_site_label
_atom_site_type_symbol
_atom_site_fract_x
_atom_site_fract_y
_atom_site_fract_z
O1	O	-0.926266	0.094379	-0.063085
O2	O	-0.722967	0.107123	-0.063052
O3	O	-0.830360	-0.009446	-0.063077
O4	O	-0.818873	0.210949	-0.063060
O5	O	-0.830346	-0.009442	0.062820
O6	O	-0.722952	0.107127	0.062844
O7	O	-0.926252	0.094383	0.062812
Cu8	Cu	-0.824601	0.100755	0.074324
Cu9	Cu	-0.824618	0.100751	-0.074564
O10	O	-0.818859	0.210953	0.062837
C11	C	-0.696948	0.106716	-0.000100
C12	C	-0.619441	0.105489	-0.000088
N13	N	-0.824594	0.100758	0.179043
C14	C	-0.583056	0.104897	-0.068716
C15	C	-0.510231	0.103735	-0.068724
C16	C	-0.473795	0.103150	-0.000100
C17	C	-0.510188	0.103746	0.068537
C18	C	-0.583011	0.104916	0.068542
N19	N	-0.364718	0.058244	0.050969
N20	N	-0.295540	0.057132	0.050958
C21	C	-0.254384	0.099629	-0.000113
N22	N	-0.285021	0.143270	-0.051186
N23	N	-0.354206	0.144379	-0.051178
C24	C	-0.394831	0.101883	-0.000099
C25	C	-0.139034	0.097778	-0.068754
C26	C	-0.066207	0.096621	-0.068759
C27	C	-0.066166	0.096624	0.068503
C28	C	-0.138991	0.097789	0.068506
C29	C	-0.175421	0.098362	-0.000125
C30	C	-0.829941	-0.037641	-0.000132
C31	C	-0.828707	-0.121657	-0.000142
C32	C	0.047729	0.094795	-0.000136
C33	C	-0.029776	0.096037	-0.000135
C34	C	-0.819277	0.239147	-0.000110
C35	C	-0.820512	0.323163	-0.000105
C36	C	-0.757474	0.371875	-0.000095
C37	C	-0.758639	0.450816	-0.000104
C38	C	-0.822842	0.481045	-0.000117
C39	C	-0.885884	0.432327	-0.000130
C40	C	-0.884719	0.353387	-0.000126
C41	C	-0.890585	0.750684	-0.000145
C42	C	-0.891745	0.829630	-0.000147
C43	C	-0.764504	0.848113	-0.000123
C44	C	-0.763339	0.769173	-0.000119
C45	C	-0.826381	0.720462	-0.000136
C46	C	-0.825118	0.634865	-0.000127
C47	C	-0.824106	0.566641	-0.000120
N48	N	-0.824630	0.100742	-0.179283
C49	C	-0.866896	0.146521	0.781089
C50	C	-0.866889	0.146529	0.701841
C51	C	-0.824624	0.100743	0.662225
C52	C	-0.782350	0.054961	0.701862
C53	C	-0.782352	0.054960	0.781108
N54	N	-0.822859	0.034444	0.537796
N55	N	-0.822861	0.034446	0.462515
C56	C	-0.824612	0.100743	0.423461
N57	N	-0.826375	0.167038	0.462530
N58	N	-0.826378	0.167034	0.537818
C59	C	-0.824616	0.100739	0.576295
C60	C	-0.866872	0.146534	0.297904
C61	C	-0.866861	0.146544	0.218654
C62	C	-0.782325	0.054969	0.218676
C63	C	-0.782333	0.054966	0.297924
C64	C	-0.824610	0.100748	0.337533
H65	H	-0.612712	0.105364	-0.124600
H66	H	-0.480600	0.103255	-0.124610
C67	C	-0.735829	0.004606	0.175108
C68	C	-0.689336	-0.045754	0.218703
C69	C	-0.642835	-0.096115	0.175130
C70	C	-0.642826	-0.096114	0.087963
C71	C	-0.689320	-0.045752	0.044363
C72	C	-0.735822	0.004608	0.087935
H73	H	-0.689341	-0.045756	0.283234
H74	H	-0.608417	-0.133396	0.207406
H75	H	-0.608403	-0.133394	0.055708
H76	H	-0.689315	-0.045750	-0.020168
H77	H	-0.770240	0.041889	0.055659
H78	H	-0.707307	0.490475	-0.000098
H79	H	-0.612635	0.105398	0.124429
C80	C	-0.692715	0.735922	-0.000101
C81	C	-0.691432	0.649091	-0.000094
C82	C	-0.620806	0.615842	-0.000077
C83	C	-0.551464	0.669423	-0.000067
C84	C	-0.552744	0.756259	-0.000075
C85	C	-0.623370	0.789509	-0.000092
H86	H	-0.742766	0.609422	-0.000100
H87	H	-0.619859	0.551560	-0.000071
H88	H	-0.499183	0.644810	-0.000055
H89	H	-0.501410	0.795928	-0.000068
H90	H	-0.624317	0.853791	-0.000098
C91	C	-0.962373	0.862883	-0.000169
C92	C	-1.014702	0.844412	0.065190
C93	C	-1.085326	0.877666	0.065169
C94	C	-1.103620	0.929390	-0.000211
C95	C	-1.051290	0.947864	-0.065574
C96	C	-0.980666	0.914610	-0.065553
H97	H	-1.001161	0.806120	0.113592
H98	H	-1.124064	0.863990	0.113555
H99	H	-1.155900	0.954007	-0.000227
H100	H	-1.064831	0.986156	-0.113977
H101	H	-0.941928	0.928286	-0.113940
C102	C	-0.959932	0.697112	-0.000152
C103	C	-0.976624	0.640311	0.065224
C104	C	-1.045975	0.586737	0.065220
C105	C	-1.098634	0.589964	-0.000158
C106	C	-1.081943	0.646767	-0.065538
C107	C	-1.012592	0.700341	-0.065535
H108	H	-0.937641	0.637920	0.113625
H109	H	-1.058331	0.544687	0.113619
H110	H	-1.149972	0.550305	-0.000161
H111	H	-1.120926	0.649158	-0.113940
H112	H	-1.000237	0.742391	-0.113934
H113	H	-0.747936	0.017683	0.669601
C114	C	-0.026095	0.095980	0.143991
C115	C	-0.044140	0.030434	0.200603
C116	C	-0.004064	0.029791	0.276093
C117	C	0.054058	0.094695	0.294969
C118	C	0.072106	0.160246	0.238355
C119	C	0.032030	0.160889	0.162866
H120	H	-0.087168	-0.017617	0.186631
H121	H	-0.017425	-0.018734	0.318002
H122	H	0.083725	0.094220	0.350851
H123	H	0.115134	0.208297	0.252327
H124	H	0.045391	0.209414	0.120956
C125	C	-0.735846	0.004596	0.341515
C126	C	-0.746291	-0.082331	0.330603
C127	C	-0.699800	-0.132704	0.374192
C128	C	-0.642865	-0.096150	0.428694
C129	C	-0.632418	-0.009219	0.439608
C130	C	-0.678909	0.041154	0.396019
H131	H	-0.788440	-0.109395	0.290256
H132	H	-0.707534	-0.197057	0.366112
H133	H	-0.608450	-0.133439	0.460961
H134	H	-0.590269	0.017845	0.479956
H135	H	-0.671175	0.105507	0.404099
H136	H	-0.480517	0.103272	0.124410
C137	C	-0.954062	0.299801	-0.000134
C138	C	-1.006703	0.303033	0.065231
C139	C	-1.076047	0.249447	0.065218
C140	C	-1.092750	0.192629	-0.000159
C141	C	-1.040107	0.189394	-0.065529
C142	C	-0.970763	0.242980	-0.065517
H143	H	-0.994340	0.345096	0.113632
H144	H	-1.115017	0.251842	0.113610
H145	H	-1.144083	0.152961	-0.000168
H146	H	-1.052471	0.147332	-0.113930
H147	H	-0.931794	0.240585	-0.113909
C148	C	-0.913391	0.196882	0.658238
C149	C	-0.959895	0.247237	0.701806
C150	C	-1.006399	0.297587	0.658205
C151	C	-1.006398	0.297582	0.571038
C152	C	-0.959892	0.247226	0.527466
C153	C	-0.913388	0.196875	0.571066
H154	H	-0.959898	0.247242	0.766337
H155	H	-1.040826	0.334864	0.690461
H156	H	-1.040823	0.334855	0.538762
H157	H	-0.959890	0.247220	0.462935
H158	H	-0.878961	0.159598	0.538810
H159	H	-0.168616	0.098266	0.124390
C160	C	-0.179111	0.098418	-0.144244
C161	C	-0.139083	0.097780	-0.219737
C162	C	-0.179158	0.098420	-0.295227
C163	C	-0.259261	0.099699	-0.295225
C164	C	-0.299294	0.100338	-0.219729
C165	C	-0.259219	0.099697	-0.144239
H166	H	-0.079782	0.096833	-0.219741
H167	H	-0.149523	0.097948	-0.351114
H168	H	-0.288927	0.100173	-0.351107
H169	H	-0.358595	0.101285	-0.219725
H170	H	-0.288854	0.100170	-0.088352
C171	C	-0.686849	0.338626	-0.000080
C172	C	-0.634512	0.357118	0.065300
C173	C	-0.563885	0.323871	0.065312
C174	C	-0.545595	0.272134	-0.000057
C175	C	-0.597933	0.253640	-0.065443
C176	C	-0.668560	0.286886	-0.065454
H177	H	-0.648051	0.395419	0.113695
H178	H	-0.525141	0.337562	0.113714
H179	H	-0.493312	0.247523	-0.000049
H180	H	-0.584394	0.215338	-0.113837
H181	H	-0.707304	0.273195	-0.113857
C182	C	-0.735861	0.004594	0.824702
C183	C	-0.746301	-0.082333	0.813792
C184	C	-0.699810	-0.132702	0.857387
C185	C	-0.642881	-0.096143	0.911892
C186	C	-0.632439	-0.009212	0.922804
C187	C	-0.678929	0.041157	0.879209
H188	H	-0.788446	-0.109400	0.773442
H189	H	-0.707541	-0.197055	0.849308
H190	H	-0.608466	-0.133429	0.944163
H191	H	-0.590293	0.017855	0.963154
H192	H	-0.671199	0.105510	0.887288
C193	C	-0.913364	0.196900	0.341485
C194	C	-0.993543	0.185528	0.330565
C195	C	-1.040032	0.235894	0.374146
C196	C	-1.006344	0.297632	0.428647
C197	C	-0.926161	0.309008	0.439570
C198	C	-0.879672	0.258641	0.395989
H199	H	-1.018485	0.139823	0.290218
H200	H	-1.099388	0.227473	0.366060
H201	H	-1.040758	0.334917	0.460909
H202	H	-0.901219	0.354713	0.479917
H203	H	-0.820315	0.267062	0.404074
H204	H	-0.036583	0.096144	-0.124646
H205	H	-0.713172	0.887783	-0.000113
H206	H	-0.901321	0.183802	0.813334
H207	H	-0.938160	0.456946	-0.000139
H208	H	-0.901277	0.183827	0.186391
