data_functionalizedCrystal
_audit_creation_method	'MofGen! by Chris Wilmer'
_symmetry_space_group_name_H-M	'P1'
_symmetry_Int_Tables_number	1
_symmetry_cell_setting	triclinic
loop_
_symmetry_equiv_pos_as_xyz
  x,y,z
_cell_length_a	11.792241
_cell_length_b	11.792254
_cell_length_c	7.540329
_cell_angle_alpha	89.996229
_cell_angle_beta	90.001242
_cell_angle_gamma	84.196007
loop_
_atom_site_label
_atom_site_type_symbol
_atom_site_fract_x
_atom_site_fract_y
_atom_site_fract_z
O1	O	1.506913	0.155565	-0.147311
O2	O	2.006913	0.655565	0.352689
O3	O	1.176573	0.171598	-0.147352
O4	O	1.676573	0.671598	0.352648
O5	O	1.349752	-0.001588	-0.147318
O6	O	1.849752	0.498412	0.352682
O7	O	1.333734	0.328751	-0.147345
O8	O	1.833734	0.828751	0.352655
O9	O	1.349742	-0.001590	0.147647
O10	O	1.849742	0.498410	0.647647
O11	O	1.176563	0.171596	0.147613
O12	O	1.676563	0.671596	0.647613
O13	O	1.506903	0.155563	0.147654
O14	O	2.006903	0.655563	0.647654
Cu15	Cu	1.341732	0.163579	0.174566
Cu16	Cu	1.841732	0.663579	0.674566
Cu17	Cu	1.341744	0.163582	-0.174264
Cu18	Cu	1.841744	0.663582	0.325736
O19	O	1.333724	0.328749	0.147620
O20	O	1.833724	0.828749	0.647620
C21	C	1.134277	0.170590	0.000125
C22	C	1.634277	0.670590	0.500125
C23	C	1.008263	0.167576	0.000109
C24	C	1.508263	0.667576	0.500109
C25	C	1.348738	-0.043880	0.000164
C26	C	1.848738	0.456120	0.500164
C27	C	1.345718	-0.169893	0.000162
C28	C	1.845718	0.330107	0.500162
C29	C	0.777551	0.162033	0.000161
C30	C	1.277551	0.662033	0.500161
C31	C	0.905936	0.165112	0.000133
C32	C	1.405936	0.665112	0.500133
C33	C	1.343264	-0.272229	0.000155
C34	C	1.843264	0.227771	0.500155
C35	C	1.340196	-0.400616	0.000138
C36	C	1.840196	0.099384	0.500138
C37	C	1.549199	0.156571	0.000173
C38	C	2.049199	0.656571	0.500173
C39	C	1.675213	0.159586	0.000177
C40	C	2.175213	0.659586	0.500177
C41	C	1.334738	0.371041	0.000134
C42	C	1.834738	0.871041	0.500134
C43	C	1.337758	0.497054	0.000124
C44	C	1.837758	0.997054	0.500124
N45	N	1.341732	0.163577	0.419914
N46	N	1.841732	0.663577	0.919914
N47	N	1.341754	0.163575	-0.419613
N48	N	1.841754	0.663575	0.080387
