data_functionalizedCrystal
_audit_creation_method	'MofGen! by Chris Wilmer'
_symmetry_space_group_name_H-M	'P1'
_symmetry_Int_Tables_number	1
_symmetry_cell_setting	triclinic
loop_
_symmetry_equiv_pos_as_xyz
  x,y,z
_cell_length_a	14.971486
_cell_length_b	16.109301
_cell_length_c	13.448316
_cell_angle_alpha	89.991973
_cell_angle_beta	89.998199
_cell_angle_gamma	83.537805
loop_
_atom_site_label
_atom_site_type_symbol
_atom_site_fract_x
_atom_site_fract_y
_atom_site_fract_z
O1	O	1.186791	0.108348	-0.082581
O2	O	0.926372	0.121323	-0.082608
O3	O	1.063736	-0.006187	-0.082584
O4	O	1.049428	0.235857	-0.082605
O5	O	1.063718	-0.006195	0.082800
O6	O	0.926355	0.121315	0.082776
O7	O	1.186774	0.108340	0.082803
Cu8	Cu	1.056563	0.114827	0.097890
Cu9	Cu	1.056583	0.114836	-0.097695
O10	O	1.049410	0.235850	0.082778
C11	C	0.893040	0.120739	0.000080
C12	C	0.793745	0.119000	0.000070
C13	C	0.736412	0.193908	0.000065
C14	C	0.643115	0.192269	0.000080
C15	C	0.607153	0.115721	0.000093
C16	C	0.664494	0.040807	0.000101
C17	C	0.757789	0.042447	0.000093
C18	C	0.470036	0.037395	0.000115
C19	C	0.376734	0.035755	0.000121
C20	C	0.355362	0.187217	0.000102
C21	C	0.448657	0.188857	0.000094
C22	C	0.505991	0.113942	0.000100
C23	C	1.063147	-0.037166	0.000109
C24	C	1.061410	-0.129464	0.000110
C25	C	1.138878	-0.351640	0.000102
C26	C	1.137239	-0.438362	0.000094
C27	C	0.974262	-0.418691	0.000081
C28	C	0.975902	-0.331970	0.000082
C29	C	1.058213	-0.298447	0.000098
C30	C	1.054933	-0.471890	0.000088
C31	C	1.053155	-0.565918	0.000079
C32	C	1.059992	-0.204413	0.000105
C33	C	1.220106	0.108924	0.000112
C34	C	1.319401	0.110663	0.000116
C35	C	1.049999	0.266829	0.000084
C36	C	1.051736	0.359127	0.000076
N37	N	1.056555	0.114820	0.235454
N38	N	1.056598	0.114837	-0.235260
C39	C	1.117398	0.058382	0.287506
C40	C	1.117404	0.058381	0.391609
C41	C	1.056570	0.114823	0.443659
C42	C	0.995720	0.171264	0.391601
C43	C	0.995711	0.171260	0.287499
C44	C	0.995745	0.171269	0.608581
C45	C	0.995755	0.171275	0.712689
C46	C	1.117438	0.058391	0.712690
C47	C	1.117429	0.058387	0.608589
C48	C	1.056580	0.114829	0.556538
H49	H	0.308675	0.248215	0.000101
O50	O	1.215680	-0.489914	0.000146
C51	C	1.288676	-0.441726	0.000133
H52	H	1.265951	-0.377030	0.031445
H53	H	1.345189	-0.473667	0.048153
H54	H	1.313914	-0.435514	-0.079207
H55	H	1.166940	0.012424	0.245133
H56	H	0.804470	-0.018551	0.000097
H57	H	0.765684	0.256242	0.000053
O58	O	0.894387	-0.451395	0.000119
C59	C	0.910234	-0.539344	0.000097
H60	H	0.980040	-0.559644	0.031411
H61	H	0.857566	-0.566025	0.048111
H62	H	0.905909	-0.563480	-0.079245
O63	O	0.897456	-0.280411	0.000122
C64	C	0.824455	-0.328593	0.000091
H65	H	0.847167	-0.393298	0.031406
H66	H	0.767934	-0.296659	0.048101
H67	H	0.799232	-0.334783	-0.079254
H68	H	1.166947	0.012425	0.433989
O69	O	0.629712	-0.033625	0.000155
C70	C	0.700325	-0.099390	0.000132
H71	H	0.763696	-0.076022	0.031441
H72	H	0.680845	-0.152832	0.048151
H73	H	0.713535	-0.122494	-0.079210
O74	O	0.483705	0.263159	0.000197
C75	C	0.537026	0.268649	0.085850
H76	H	0.560272	0.203144	0.114427
H77	H	0.598115	0.301837	0.066561
H78	H	0.495811	0.305405	0.145823
H79	H	0.347458	-0.026577	0.000133
O80	O	0.525824	-0.035321	-0.000013
C81	C	0.580408	-0.038904	-0.085685
H82	H	0.585099	0.027096	-0.114245
H83	H	0.650540	-0.069802	-0.066427
H84	H	0.549725	-0.076904	-0.145658
H85	H	1.205901	-0.324348	0.000113
H86	H	1.166969	0.012432	0.566210
H87	H	0.946192	0.217228	0.566204
O88	O	1.176511	0.003446	0.763135
C89	C	1.161995	-0.078882	0.737732
H90	H	1.127509	-0.078836	0.662155
H91	H	1.229243	-0.119716	0.734164
H92	H	1.117495	-0.104669	0.796335
H93	H	0.946216	0.217235	0.755063
O94	O	0.936588	0.225976	0.442271
C95	C	0.881419	0.181366	0.502490
H96	H	0.917067	0.116362	0.518093
H97	H	0.867267	0.216049	0.575689
H98	H	0.815313	0.175613	0.462385
O99	O	0.936698	0.226200	0.236978
C100	C	0.951194	0.308528	0.262410
H101	H	1.022806	0.309048	0.291016
H102	H	0.940884	0.350235	0.193940
H103	H	0.901616	0.332874	0.322838
O104	O	0.587549	0.265113	0.000029
C105	C	0.639296	0.333027	0.000035
H106	H	0.708930	0.311993	-0.031283
H107	H	0.604861	0.385519	-0.047984
H108	H	0.645939	0.356485	0.079373
