data_functionalizedCrystal
_audit_creation_method	'MofGen! by Chris Wilmer'
_symmetry_space_group_name_H-M	'P1'
_symmetry_Int_Tables_number	1
_symmetry_cell_setting	triclinic
loop_
_symmetry_equiv_pos_as_xyz
  x,y,z
_cell_length_a	13.032831
_cell_length_b	13.897447
_cell_length_c	13.032268
_cell_angle_alpha	97.149071
_cell_angle_beta	90.886977
_cell_angle_gamma	82.824382
loop_
_atom_site_label
_atom_site_type_symbol
_atom_site_fract_x
_atom_site_fract_y
_atom_site_fract_z
Zn1	Zn	1.498459	-0.651421	-0.780831
Zn2	Zn	1.831792	-0.318088	-0.447498
Zn3	Zn	2.165125	0.015246	-0.114164
Zn4	Zn	1.520196	-0.795136	-0.608850
Zn5	Zn	1.853530	-0.461802	-0.275517
Zn6	Zn	2.186863	-0.128469	0.057817
Zn7	Zn	1.348318	-0.611126	-0.587072
Zn8	Zn	1.681652	-0.277793	-0.253739
Zn9	Zn	2.014985	0.055541	0.079594
Zn10	Zn	1.326445	-0.789920	-0.758975
Zn11	Zn	1.659778	-0.456587	-0.425642
Zn12	Zn	1.993111	-0.123254	-0.092309
O13	O	1.423354	-0.711901	-0.683932
O14	O	1.756688	-0.378567	-0.350599
O15	O	2.090021	-0.045234	-0.017265
O16	O	1.645262	-0.689531	-0.776278
O17	O	1.978595	-0.356198	-0.442945
O18	O	2.311929	-0.022865	-0.109611
O19	O	1.515648	-0.756045	-0.462045
O20	O	1.848981	-0.422712	-0.128711
O21	O	2.182314	-0.089379	0.204622
O22	O	1.368292	-0.481500	-0.612807
O23	O	1.701625	-0.148167	-0.279474
O24	O	2.034958	0.185167	0.053859
O25	O	1.661233	-0.795118	-0.649925
O26	O	1.994566	-0.461784	-0.316591
O27	O	2.327899	-0.128451	0.016742
O28	O	1.478599	-0.511105	-0.755161
O29	O	1.811932	-0.177771	-0.421828
O30	O	2.145266	0.155562	-0.088494
O31	O	1.389370	-0.620854	-0.446044
O32	O	1.722703	-0.287521	-0.112711
O33	O	2.056036	0.045812	0.220622
O34	O	1.201497	-0.615797	-0.591615
O35	O	1.534830	-0.282464	-0.258281
O36	O	1.868163	0.050869	0.075052
O37	O	1.331011	-0.786229	-0.905791
O38	O	1.664344	-0.452896	-0.572458
O39	O	1.997678	-0.119562	-0.239124
O40	O	1.185426	-0.747157	-0.717911
O41	O	1.518759	-0.413823	-0.384578
O42	O	1.852093	-0.080490	-0.051245
O43	O	1.457389	-0.684474	-0.921848
O44	O	1.790722	-0.351141	-0.588515
O45	O	2.124056	-0.017807	-0.255182
O46	O	1.494438	-0.929415	-0.628732
O47	O	1.827771	-0.596082	-0.295399
O48	O	2.161104	-0.262748	0.037935
O49	O	1.352089	-0.925583	-0.739028
O50	O	1.685423	-0.592250	-0.405695
O51	O	2.018756	-0.258917	-0.072362
C52	C	1.156144	-0.676539	-0.650029
C53	C	1.489478	-0.343206	-0.316695
C54	C	1.822811	-0.009873	0.016638
C55	C	1.041828	-0.661437	-0.635549
C56	C	1.375161	-0.328104	-0.302216
C57	C	1.708494	0.005230	0.031118
C58	C	0.982950	-0.719783	-0.691489
C59	C	1.316283	-0.386449	-0.358156
C60	C	1.649617	-0.053116	-0.024822
C61	C	0.864797	-0.704175	-0.676525
C62	C	1.198131	-0.370842	-0.343192
C63	C	1.531464	-0.037509	-0.009858
C64	C	1.423274	-0.962502	-0.683898
C65	C	1.756607	-0.629168	-0.350564
C66	C	2.089940	-0.295835	-0.017231
C67	C	1.423329	-1.069726	-0.683929
C68	C	1.756662	-0.736392	-0.350596
C69	C	2.089996	-0.403059	-0.017263
C70	C	1.423376	-1.156804	-0.683959
C71	C	1.756709	-0.823471	-0.350626
C72	C	2.090042	-0.490138	-0.017292
C73	C	1.423445	-1.266049	-0.683995
C74	C	1.756778	-0.932716	-0.350661
C75	C	2.090111	-0.599382	-0.017328
C76	C	1.691608	-0.747401	-0.717969
C77	C	2.024941	-0.414068	-0.384635
C78	C	2.358274	-0.080734	-0.051302
C79	C	1.805921	-0.762529	-0.732473
C80	C	2.139255	-0.429196	-0.399139
C81	C	2.472588	-0.095862	-0.065806
C82	C	1.389335	-0.739265	-0.952179
C83	C	1.722669	-0.405931	-0.618846
C84	C	2.056002	-0.072598	-0.285512
C85	C	1.374838	-0.750926	-1.066490
C86	C	1.708172	-0.417592	-0.733157
C87	C	2.041505	-0.084259	-0.399823
C88	C	1.423460	-0.460327	-0.683993
C89	C	1.756794	-0.126994	-0.350659
C90	C	2.090127	0.206339	-0.017326
C91	C	1.423506	-0.353122	-0.684019
C92	C	1.756839	-0.019788	-0.350685
C93	C	2.090172	0.313545	-0.017352
C94	C	1.430904	-0.705778	-1.125398
C95	C	1.764238	-0.372445	-0.792065
C96	C	2.097571	-0.039111	-0.458732
C97	C	1.415923	-0.717829	-1.243545
C98	C	1.749256	-0.384496	-0.910211
C99	C	2.082589	-0.051162	-0.576878
C100	C	1.457300	-0.684581	-0.416736
C101	C	1.790634	-0.351248	-0.083403
C102	C	2.123967	-0.017915	0.249930
C103	C	1.471996	-0.672675	-0.302451
C104	C	1.805330	-0.339342	0.030882
C105	C	2.138663	-0.006009	0.364215
H106	H	1.004763	-0.599927	-0.576583
H107	H	1.338096	-0.266594	-0.243249
H108	H	1.671430	0.066739	0.090084
H109	H	1.356820	-0.765399	-1.280573
H110	H	1.690153	-0.432066	-0.947240
H111	H	2.023487	-0.098733	-0.613906
O112	O	1.501393	-0.649095	-1.081065
O113	O	1.834727	-0.315761	-0.747732
O114	O	2.168060	0.017572	-0.414398
C115	C	1.580526	-0.585326	-0.922881
C116	C	1.913859	-0.251993	-0.589548
C117	C	2.247192	0.081340	-0.256214
C118	C	1.500674	-0.649566	-0.972951
C119	C	1.834007	-0.316233	-0.639618
C120	C	2.167341	0.017100	-0.306284
H121	H	1.579955	-0.585670	-0.835462
H122	H	1.913288	-0.252337	-0.502129
H123	H	2.246622	0.080997	-0.168795
H124	H	1.660827	-0.615374	-0.954387
H125	H	1.994161	-0.282040	-0.621053
H126	H	2.327494	0.051293	-0.287720
H127	H	1.559856	-0.507314	-0.941732
H128	H	1.893190	-0.173980	-0.608398
H129	H	2.226523	0.159353	-0.275065
H130	H	1.521247	-0.727593	-0.954121
H131	H	1.854580	-0.394260	-0.620787
H132	H	2.187913	-0.060926	-0.287454
H133	H	1.420395	-0.619439	-0.941443
H134	H	1.753728	-0.286105	-0.608110
H135	H	2.087061	0.047228	-0.274776
H136	H	1.315740	-0.798492	-1.103523
H137	H	1.649073	-0.465159	-0.770190
H138	H	1.982407	-0.131826	-0.436856
O139	O	1.542469	-0.615965	-1.258122
O140	O	1.875802	-0.282632	-0.924788
O141	O	2.209135	0.050702	-0.591455
C142	C	1.621554	-0.552140	-1.099935
C143	C	1.954887	-0.218807	-0.766601
C144	C	2.288221	0.114526	-0.433268
C145	C	1.541740	-0.616422	-1.150006
C146	C	1.875073	-0.283089	-0.816673
C147	C	2.208407	0.050245	-0.483339
H148	H	1.620976	-0.552472	-1.012514
H149	H	1.954310	-0.219139	-0.679181
H150	H	2.287643	0.114194	-0.345847
H151	H	1.701868	-0.582160	-1.131427
H152	H	2.035201	-0.248827	-0.798093
H153	H	2.368534	0.084507	-0.464760
H154	H	1.600853	-0.474136	-1.118799
H155	H	1.934186	-0.140802	-0.785466
H156	H	2.267519	0.192531	-0.452133
H157	H	1.562345	-0.694440	-1.131161
H158	H	1.895678	-0.361107	-0.797828
H159	H	2.229012	-0.027774	-0.464495
H160	H	1.461449	-0.586322	-1.118512
H161	H	1.794782	-0.252989	-0.785178
H162	H	2.128115	0.080345	-0.451845
H163	H	1.020014	-0.781286	-0.750463
H164	H	1.353347	-0.447953	-0.417130
H165	H	1.686680	-0.114619	-0.083797
H166	H	0.842979	-0.824035	-0.791454
H167	H	1.176312	-0.490702	-0.458121
H168	H	1.509645	-0.157368	-0.124787
H169	H	0.827737	-0.642661	-0.617555
H170	H	1.161071	-0.309328	-0.284221
H171	H	1.494404	0.024005	0.049112
