data_functionalizedCrystal
_audit_creation_method	'MofGen! by Chris Wilmer'
_symmetry_space_group_name_H-M	'P1'
_symmetry_Int_Tables_number	1
_symmetry_cell_setting	triclinic
loop_
_symmetry_equiv_pos_as_xyz
  x,y,z
_cell_length_a	17.038272
_cell_length_b	14.421503
_cell_length_c	15.944564
_cell_angle_alpha	89.996887
_cell_angle_beta	92.692254
_cell_angle_gamma	89.997443
loop_
_atom_site_label
_atom_site_type_symbol
_atom_site_fract_x
_atom_site_fract_y
_atom_site_fract_z
O1	O	1.037433	-0.077000	-0.182390
O2	O	1.287433	0.173000	0.067610
O3	O	1.537433	0.423000	0.317610
O4	O	1.787433	0.673000	0.567610
O5	O	0.809802	-0.077027	-0.179494
O6	O	1.059802	0.172973	0.070506
O7	O	1.309802	0.422973	0.320506
O8	O	1.559802	0.672973	0.570506
O9	O	0.929828	-0.077004	-0.059112
O10	O	1.179828	0.172996	0.190888
O11	O	1.429828	0.422996	0.440888
O12	O	1.679828	0.672996	0.690888
O13	O	0.917407	-0.077023	-0.302773
O14	O	1.167407	0.172977	-0.052773
O15	O	1.417407	0.422977	0.197227
O16	O	1.667407	0.672977	0.447227
O17	O	0.929809	0.077219	-0.059129
O18	O	1.179809	0.327219	0.190871
O19	O	1.429809	0.577219	0.440871
O20	O	1.679809	0.827219	0.690871
O21	O	0.809782	0.077196	-0.179512
O22	O	1.059782	0.327196	0.070488
O23	O	1.309782	0.577196	0.320488
O24	O	1.559782	0.827196	0.570488
O25	O	1.037413	0.077223	-0.182408
O26	O	1.287413	0.327223	0.067592
O27	O	1.537413	0.577223	0.317592
O28	O	1.787413	0.827223	0.567592
Cu29	Cu	0.923596	0.091292	-0.180962
Cu30	Cu	1.173596	0.341292	0.069038
Cu31	Cu	1.423596	0.591292	0.319038
Cu32	Cu	1.673596	0.841292	0.569038
Cu33	Cu	0.923619	-0.091096	-0.180941
Cu34	Cu	1.173619	0.158904	0.069059
Cu35	Cu	1.423619	0.408904	0.319059
Cu36	Cu	1.673619	0.658904	0.569059
O37	O	0.917387	0.077200	-0.302791
O38	O	1.167387	0.327200	-0.052791
O39	O	1.417387	0.577200	0.197209
O40	O	1.667387	0.827200	0.447209
C41	C	0.780663	0.000081	-0.176869
C42	C	1.030663	0.250081	0.073131
C43	C	1.280663	0.500081	0.323131
C44	C	1.530663	0.750081	0.573131
C45	C	0.693867	0.000071	-0.169009
C46	C	0.943867	0.250071	0.080991
C47	C	1.193867	0.500071	0.330991
C48	C	1.443867	0.750071	0.580991
N49	N	0.923585	0.219573	-0.180976
N50	N	1.173585	0.469573	0.069024
N51	N	1.423585	0.719573	0.319024
N52	N	1.673585	0.969573	0.569024
N53	N	0.923636	-0.219377	-0.180920
N54	N	1.173636	0.030623	0.069080
N55	N	1.423636	0.280623	0.319080
N56	N	1.673636	0.530623	0.569080
C57	C	0.643777	0.000066	-0.241167
C58	C	0.893777	0.250066	0.008833
C59	C	1.143777	0.500066	0.258833
C60	C	1.393777	0.750066	0.508833
C61	C	0.562224	0.000079	-0.233777
C62	C	0.812224	0.250079	0.016223
C63	C	1.062224	0.500079	0.266223
C64	C	1.312224	0.750079	0.516223
C65	C	0.530762	0.000091	-0.154229
C66	C	0.780762	0.250091	0.095771
C67	C	1.030762	0.500091	0.345771
C68	C	1.280762	0.750091	0.595771
C69	C	0.580859	0.000099	-0.082067
C70	C	0.830859	0.250099	0.167933
C71	C	1.080859	0.500099	0.417933
C72	C	1.330859	0.750099	0.667933
C73	C	0.662410	0.000092	-0.089457
C74	C	0.912410	0.250092	0.160543
C75	C	1.162410	0.500092	0.410543
C76	C	1.412410	0.750092	0.660543
C77	C	0.284996	0.000118	-0.128121
C78	C	0.534996	0.250118	0.121879
C79	C	0.784996	0.500118	0.371879
C80	C	1.034996	0.750118	0.621879
C81	C	0.203438	0.000122	-0.120736
C82	C	0.453438	0.250122	0.129264
C83	C	0.703438	0.500122	0.379264
C84	C	0.953438	0.750122	0.629264
C85	C	0.184809	0.000104	-0.272447
C86	C	0.434809	0.250104	-0.022447
C87	C	0.684809	0.500104	0.227553
C88	C	0.934809	0.750104	0.477553
C89	C	0.266363	0.000092	-0.279830
C90	C	0.516363	0.250092	-0.029830
C91	C	0.766363	0.500092	0.220170
C92	C	1.016363	0.750092	0.470170
C93	C	0.316452	0.000104	-0.207667
C94	C	0.566452	0.250104	0.042333
C95	C	0.816452	0.500104	0.292333
C96	C	1.066452	0.750104	0.542333
C97	C	0.447402	0.000102	-0.146674
C98	C	0.697402	0.250102	0.103326
C99	C	0.947402	0.500102	0.353326
C100	C	1.197402	0.750102	0.603326
C101	C	0.399810	0.000100	-0.215223
C102	C	0.649810	0.250100	0.034777
C103	C	0.899810	0.500100	0.284777
C104	C	1.149810	0.750100	0.534777
C105	C	1.066553	0.000113	-0.185034
C106	C	1.316553	0.250113	0.064966
C107	C	1.566553	0.500113	0.314966
C108	C	1.816553	0.750113	0.564966
C109	C	1.153348	0.000117	-0.192893
C110	C	1.403348	0.250117	0.057107
C111	C	1.653348	0.500117	0.307107
C112	C	1.903348	0.750117	0.557107
C113	C	0.929301	0.000108	-0.027790
C114	C	1.179301	0.250108	0.222210
C115	C	1.429301	0.500108	0.472210
C116	C	1.679301	0.750108	0.722210
C117	C	0.927750	0.000109	0.065566
C118	C	1.177750	0.250109	0.315566
C119	C	1.427750	0.500109	0.565566
C120	C	1.677750	0.750109	0.815566
C121	C	0.868075	0.469216	-0.236614
C122	C	1.118075	0.719216	0.013386
C123	C	1.368075	0.969216	0.263386
C124	C	1.618075	1.219216	0.513386
C125	C	0.938725	0.531025	-0.257965
C126	C	1.188725	0.781025	-0.007965
C127	C	1.438725	1.031025	0.242035
C128	C	1.688725	1.281025	0.492035
C129	C	0.923604	0.408734	-0.180958
C130	C	1.173604	0.658734	0.069042
C131	C	1.423604	0.908734	0.319042
C132	C	1.673604	1.158734	0.569042
C133	C	0.852972	0.531018	-0.159627
C134	C	1.102972	0.781018	0.090373
C135	C	1.352972	1.031018	0.340373
C136	C	1.602972	1.281018	0.590373
C137	C	0.923616	0.591456	-0.180941
C138	C	1.173616	0.841456	0.069059
C139	C	1.423616	1.091456	0.319059
C140	C	1.673616	1.341456	0.569059
C141	C	0.994290	0.469183	-0.202349
C142	C	1.244290	0.719183	0.047651
C143	C	1.494290	0.969183	0.297651
C144	C	1.744290	1.219183	0.547651
C145	C	0.908490	0.469171	-0.103975
C146	C	1.158490	0.719171	0.146025
C147	C	1.408490	0.969171	0.396025
C148	C	1.658490	1.219171	0.646025
C149	C	0.979192	0.530952	-0.125298
C150	C	1.229192	0.780952	0.124702
C151	C	1.479192	1.030952	0.374702
C152	C	1.729192	1.280952	0.624702
C153	C	0.923596	0.303473	-0.180969
C154	C	1.173596	0.553473	0.069031
C155	C	1.423596	0.803473	0.319031
C156	C	1.673596	1.053473	0.569031
C157	C	0.923632	0.696715	-0.180929
C158	C	1.173632	0.946715	0.069071
C159	C	1.423632	1.196715	0.319071
C160	C	1.673632	1.446715	0.569071
C161	C	0.849641	0.000087	0.285999
C162	C	1.099641	0.250087	0.535999
C163	C	1.349641	0.500087	0.785999
C164	C	1.599641	0.750087	1.035999
C165	C	0.885895	0.076134	0.344418
C166	C	1.135895	0.326134	0.594418
C167	C	1.385895	0.576134	0.844418
C168	C	1.635895	0.826134	1.094418
C169	C	0.924943	0.000102	0.236492
C170	C	1.174943	0.250102	0.486492
C171	C	1.424943	0.500102	0.736492
C172	C	1.674943	0.750102	0.986492
C173	C	0.885933	-0.075919	0.344417
C174	C	1.135933	0.174081	0.594417
C175	C	1.385933	0.424081	0.844417
C176	C	1.635933	0.674081	1.094417
C177	C	0.922227	0.000091	0.401597
C178	C	1.172227	0.250091	0.651597
C179	C	1.422227	0.500091	0.901597
C180	C	1.672227	0.750091	1.151597
C181	C	0.961219	0.076211	0.293681
C182	C	1.211219	0.326211	0.543681
C183	C	1.461219	0.576211	0.793681
C184	C	1.711219	0.826211	1.043681
C185	C	0.961246	-0.075910	0.293675
C186	C	1.211246	0.174090	0.543675
C187	C	1.461246	0.424090	0.793675
C188	C	1.711246	0.674090	1.043675
C189	C	0.997555	0.000155	0.352072
C190	C	1.247555	0.250155	0.602072
C191	C	1.497555	0.500155	0.852072
C192	C	1.747555	0.750155	1.102072
C193	C	0.926506	0.000109	0.141378
C194	C	1.176506	0.250109	0.391378
C195	C	1.426506	0.500109	0.641378
C196	C	1.676506	0.750109	0.891378
C197	C	0.920670	0.000091	0.496709
C198	C	1.170670	0.250091	0.746709
C199	C	1.420670	0.500091	0.996709
C200	C	1.670670	0.750091	1.246709
C201	C	0.917903	0.000087	0.665887
C202	C	1.167903	0.250087	0.915887
C203	C	1.417903	0.500087	1.165887
C204	C	1.667903	0.750087	1.415887
C205	C	0.919423	0.000084	0.572528
C206	C	1.169423	0.250084	0.822528
C207	C	1.419423	0.500084	1.072528
C208	C	1.669423	0.750084	1.322528
H209	H	0.669386	0.000056	-0.305943
H210	H	0.919386	0.250056	-0.055943
H211	H	1.169386	0.500056	0.194057
H212	H	1.419386	0.750056	0.444057
F213	F	0.299840	0.000074	-0.364496
F214	F	0.549840	0.250074	-0.114496
F215	F	0.799840	0.500074	0.135504
F216	F	1.049840	0.750074	0.385504
F217	F	1.040643	0.566166	-0.063771
F218	F	1.290643	0.816166	0.186229
F219	F	1.540643	1.066166	0.436229
F220	F	1.790643	1.316166	0.686229
H221	H	0.951519	0.558194	-0.323061
H222	H	1.201519	0.808194	-0.073061
H223	H	1.451519	1.058194	0.176939
H224	H	1.701519	1.308194	0.426939
H225	H	0.854037	0.140417	0.366792
H226	H	1.104037	0.390417	0.616792
H227	H	1.354037	0.640417	0.866792
H228	H	1.604037	0.890417	1.116792
F229	F	1.079320	0.000218	0.389577
F230	F	1.329320	0.250218	0.639577
F231	F	1.579320	0.500218	0.889577
F232	F	1.829320	0.750218	1.139577
H233	H	0.521444	0.000074	-0.292536
H234	H	0.771444	0.250074	-0.042536
H235	H	1.021444	0.500074	0.207464
H236	H	1.271444	0.750074	0.457464
H237	H	0.555236	0.000122	-0.017297
H238	H	0.805236	0.250122	0.232703
H239	H	1.055236	0.500122	0.482703
H240	H	1.305236	0.750122	0.732703
H241	H	0.895674	0.441980	-0.038898
H242	H	1.145674	0.691980	0.211102
H243	H	1.395674	0.941980	0.461102
H244	H	1.645674	1.191980	0.711102
F245	F	0.774892	0.566523	-0.136054
F246	F	1.024892	0.816523	0.113946
F247	F	1.274892	1.066523	0.363946
F248	F	1.524892	1.316523	0.613946
H249	H	0.787139	0.000156	0.257154
H250	H	1.037139	0.250156	0.507154
H251	H	1.287139	0.500156	0.757154
H252	H	1.537139	0.750156	1.007154
H253	H	0.703193	0.000096	-0.030699
H254	H	0.953193	0.250096	0.219301
H255	H	1.203193	0.500096	0.469301
H256	H	1.453193	0.750096	0.719301
H257	H	0.144018	0.000096	-0.331197
H258	H	0.394018	0.250096	-0.081197
H259	H	0.644018	0.500096	0.168803
H260	H	0.894018	0.750096	0.418803
H261	H	0.993034	0.140572	0.271411
H262	H	1.243034	0.390572	0.521411
H263	H	1.493034	0.640572	0.771411
H264	H	1.743034	0.890572	1.021411
F265	F	1.072389	0.433834	-0.226020
F266	F	1.322389	0.683834	0.023980
F267	F	1.572389	0.933834	0.273980
F268	F	1.822389	1.183834	0.523980
F269	F	1.002852	-0.159937	0.264401
F270	F	1.252852	0.090063	0.514401
F271	F	1.502852	0.340063	0.764401
F272	F	1.752852	0.590063	1.014401
H273	H	0.325769	0.000129	-0.069360
H274	H	0.575769	0.250129	0.180640
H275	H	0.825769	0.500129	0.430640
H276	H	1.075769	0.750129	0.680640
F277	F	0.433296	0.000092	-0.299881
F278	F	0.683296	0.250092	-0.049881
F279	F	0.933296	0.500092	0.200119
F280	F	1.183296	0.750092	0.450119
F281	F	0.169957	0.000151	-0.036066
F282	F	0.419957	0.250151	0.213934
F283	F	0.669957	0.500151	0.463934
F284	F	0.919957	0.750151	0.713934
F285	F	0.413911	0.000111	-0.062016
F286	F	0.663911	0.250111	0.187984
F287	F	0.913911	0.500111	0.437984
F288	F	1.163911	0.750111	0.687984
F289	F	0.844296	-0.159945	0.373661
F290	F	1.094296	0.090055	0.623661
F291	F	1.344296	0.340055	0.873661
F292	F	1.594296	0.590055	1.123661
H293	H	0.821163	0.442109	-0.283724
H294	H	1.071163	0.692109	-0.033724
H295	H	1.321163	0.942109	0.216276
H296	H	1.571163	1.192109	0.466276
