data_functionalizedCrystal
_audit_creation_method	'MofGen! by Chris Wilmer'
_symmetry_space_group_name_H-M	'P1'
_symmetry_Int_Tables_number	1
_symmetry_cell_setting	triclinic
loop_
_symmetry_equiv_pos_as_xyz
  x,y,z
_cell_length_a	19.121102
_cell_length_b	25.639240
_cell_length_c	19.120904
_cell_angle_alpha	87.596818
_cell_angle_beta	89.911827
_cell_angle_gamma	87.586654
loop_
_atom_site_label
_atom_site_type_symbol
_atom_site_fract_x
_atom_site_fract_y
_atom_site_fract_z
Zn1	Zn	1.054802	-0.255751	0.442001
Zn2	Zn	1.059707	-0.339618	0.324744
Zn3	Zn	0.942572	-0.248315	0.319786
Zn4	Zn	0.937519	-0.339266	0.436946
O5	O	0.998650	-0.295737	0.380869
O6	O	1.153558	-0.270136	0.430636
O7	O	1.048337	-0.324541	0.225982
O8	O	0.957522	-0.176139	0.336039
O9	O	1.157162	-0.331752	0.344488
O10	O	1.039977	-0.181603	0.425829
O11	O	0.962278	-0.257461	0.222340
O12	O	0.843797	-0.257120	0.331138
O13	O	0.948909	-0.331153	0.535721
O14	O	0.840084	-0.323942	0.417215
O15	O	1.035076	-0.269795	0.539434
O16	O	1.043437	-0.412733	0.339587
O17	O	0.953665	-0.412475	0.422022
C18	C	0.816503	-0.289687	0.373090
C19	C	0.738579	-0.287111	0.369779
C20	C	0.700059	-0.320740	0.412969
C21	C	0.626841	-0.318313	0.409861
C22	C	0.592145	-0.282260	0.363559
C23	C	0.630670	-0.248627	0.320368
C24	C	0.703887	-0.251052	0.323480
C25	C	0.371174	-0.273193	0.351928
C26	C	0.297952	-0.270772	0.348818
C27	C	0.294127	-0.340458	0.438312
C28	C	0.367346	-0.342881	0.441417
C29	C	0.405865	-0.309247	0.398228
C30	C	0.517304	-0.279779	0.360380
C31	C	0.480704	-0.311725	0.401411
C32	C	0.998553	-0.431575	0.380810
C33	C	0.998575	-0.489690	0.380811
C34	C	1.041603	-0.852867	0.427705
C35	C	1.041623	-0.907472	0.427720
O36	O	1.078092	-0.938096	0.467529
N37	N	0.998745	-0.931982	0.380941
C38	C	0.955838	-0.901883	0.334149
O39	O	0.919367	-0.927744	0.294362
C40	C	0.955815	-0.847279	0.334138
C41	C	0.998701	-0.822772	0.380915
C42	C	1.084486	-0.828360	0.474479
C43	C	1.084467	-0.773758	0.474463
C44	C	1.041565	-0.743663	0.427673
C45	C	0.998682	-0.768170	0.380899
C46	C	0.912905	-0.817181	0.287349
C47	C	0.912885	-0.762573	0.287343
C48	C	0.955771	-0.738066	0.334120
C49	C	0.955761	-0.683474	0.334092
N50	N	0.998639	-0.658964	0.380871
C51	C	1.041541	-0.689059	0.427661
C52	C	0.955889	-1.016556	0.334177
C53	C	0.955915	-1.071160	0.334184
C54	C	1.041700	-1.076745	0.427756
C55	C	1.041677	-1.022140	0.427745
C56	C	0.998768	-0.992046	0.380956
C57	C	1.041498	-0.574391	0.427623
C58	C	1.041477	-0.519785	0.427601
C59	C	0.955690	-0.514204	0.334032
C60	C	0.955713	-0.568806	0.334051
C61	C	0.998620	-0.598899	0.380853
O62	O	0.919309	-0.652817	0.294305
O63	O	1.077999	-0.663190	0.467448
C64	C	1.181508	-0.301812	0.388679
C65	C	1.259432	-0.304401	0.392007
C66	C	0.990882	-0.301264	0.563726
C67	C	0.987571	-0.303619	0.641649
C68	C	0.998766	-0.159371	0.380945
C69	C	0.998815	-0.101259	0.380977
C70	C	1.006429	-0.290196	0.198725
C71	C	1.009875	-0.287698	0.120809
C72	C	1.030877	-0.272781	0.680192
C73	C	1.027758	-0.274992	0.753408
C74	C	0.981337	-0.308044	0.788080
C75	C	0.938027	-0.338883	0.749532
C76	C	0.941143	-0.336669	0.676317
C77	C	0.969681	-0.316323	1.009046
C78	C	0.966570	-0.318536	1.082266
C79	C	1.056300	-0.254644	1.086137
C80	C	1.059415	-0.252436	1.012920
C81	C	1.016102	-0.283273	0.974378
C82	C	0.978149	-0.310305	0.862919
C83	C	1.019287	-0.281008	0.899541
H84	H	1.076403	-0.499833	0.465693
H85	H	0.928766	-0.345452	1.110494
H86	H	0.735249	-0.223665	0.288314
H87	H	1.068680	-0.245869	0.651967
O88	O	1.069898	-0.245020	0.790743
C89	C	1.111530	-0.215367	0.744440
H90	H	1.116158	-0.235286	0.692342
H91	H	1.165871	-0.212268	0.767960
H92	H	1.086227	-0.174570	0.735576
H93	H	0.402528	-0.245810	0.316755
H94	H	0.934423	-0.341441	0.977674
H95	H	0.900227	-0.365792	0.777768
O96	O	0.913936	-0.484940	0.288682
C97	C	0.866939	-0.453063	0.326629
H98	H	0.860229	-0.471028	0.381655
H99	H	0.814082	-0.449925	0.298933
H100	H	0.888500	-0.412459	0.329983
H101	H	0.508956	-0.341078	0.439113
H102	H	1.097218	-0.225523	0.984695
O103	O	0.256780	-0.373102	0.480370
C104	C	0.271713	-0.364447	0.551031
H105	H	0.324825	-0.346159	0.554792
H106	H	0.272866	-0.403245	0.582480
H107	H	0.229526	-0.336942	0.572960
O108	O	0.914310	-0.987269	0.288685
C109	C	0.956170	-0.955644	0.245122
H110	H	1.008220	-0.949922	0.272159
H111	H	0.928001	-0.916039	0.234468
H112	H	0.966136	-0.975395	0.193515
H113	H	1.091562	-0.229538	1.117525
O114	O	1.083239	-0.603540	0.473113
C115	C	1.121064	-0.570191	0.514402
H116	H	1.124718	-0.530495	0.485775
H117	H	1.175981	-0.587985	0.524296
H118	H	1.093080	-0.565128	0.566522
H119	H	0.921001	-1.091108	0.296086
O120	O	0.589499	-0.350966	0.451910
C121	C	0.604432	-0.342327	0.522576
H122	H	0.657539	-0.324032	0.526344
H123	H	0.605594	-0.381131	0.554009
H124	H	0.562239	-0.314833	0.544518
H125	H	1.119386	-0.753808	0.512554
O126	O	0.933099	-0.342485	0.896528
C127	C	0.949150	-0.394564	0.879285
H128	H	0.978356	-0.394940	0.827276
H129	H	0.898642	-0.416253	0.874612
H130	H	0.983430	-0.414611	0.922024
O131	O	0.401119	-0.377832	0.486439
C132	C	0.441557	-0.350889	0.533608
H133	H	0.453596	-0.310859	0.509450
H134	H	0.492632	-0.374183	0.545142
H135	H	0.411143	-0.345837	0.584375
O136	O	0.871175	-0.840894	0.241887
C137	C	0.833319	-0.802612	0.200585
H138	H	0.829647	-0.764467	0.229191
H139	H	0.778410	-0.816361	0.190712
H140	H	0.861288	-0.796053	0.148456
H141	H	0.602415	-0.219270	0.282671
O142	O	0.899058	-0.366684	0.638982
C143	C	0.857409	-0.396325	0.685283
H144	H	0.883898	-0.400662	0.738703
H145	H	0.850807	-0.436632	0.663788
H146	H	0.803845	-0.375652	0.690797
H147	H	0.269705	-0.241408	0.311118
O148	O	0.483675	-0.244786	0.315309
C149	C	0.504487	-0.254617	0.246161
H150	H	0.557700	-0.276422	0.246902
H151	H	0.508328	-0.215982	0.214929
H152	H	0.464261	-0.279393	0.220735
O153	O	1.126231	-0.857511	0.519958
C154	C	1.164055	-0.824160	0.561245
H155	H	1.167697	-0.784461	0.532622
H156	H	1.218978	-0.841948	0.571128
H157	H	1.136079	-0.819104	0.613371
H158	H	1.076598	-1.002191	0.465835
O159	O	1.064284	-0.248870	0.865784
C160	C	1.026199	-0.212487	0.821760
H161	H	0.973519	-0.228828	0.808513
H162	H	1.056948	-0.204875	0.771497
H163	H	1.017333	-0.174339	0.849668
H164	H	0.728303	-0.350100	0.450670
O165	O	0.871124	-0.733317	0.241986
C166	C	0.824118	-0.701436	0.279920
H167	H	0.817406	-0.719393	0.334950
H168	H	0.771263	-0.698307	0.252219
H169	H	0.845672	-0.660829	0.283263
H170	H	1.076632	-1.101258	0.465857
H171	H	0.920797	-0.588760	0.295956
