data_functionalizedCrystal
_audit_creation_method	'MofGen! by Chris Wilmer'
_symmetry_space_group_name_H-M	'P1'
_symmetry_Int_Tables_number	1
_symmetry_cell_setting	triclinic
loop_
_symmetry_equiv_pos_as_xyz
  x,y,z
_cell_length_a	6.817900
_cell_length_b	17.982865
_cell_length_c	17.982968
_cell_angle_alpha	95.931086
_cell_angle_beta	102.451960
_cell_angle_gamma	102.450232
loop_
_atom_site_label
_atom_site_type_symbol
_atom_site_fract_x
_atom_site_fract_y
_atom_site_fract_z
V1	V	-4.009934	-0.106128	-0.237878
O2	O	-4.003034	0.004366	-0.233013
O3	O	-3.956501	-0.209729	-0.236574
O4	O	-3.956505	-0.104818	-0.341477
O5	O	-4.003030	-0.101271	-0.127384
V6	V	-4.494865	-0.092874	-0.224622
O7	O	-4.268102	-0.135203	-0.266954
O8	O	-4.686894	-0.063799	-0.195546
O9	O	-4.325092	0.010726	-0.225926
O10	O	-4.619162	-0.203368	-0.229487
O11	O	-4.619166	-0.097731	-0.335116
O12	O	-4.325088	-0.094184	-0.121023
C13	C	-3.800440	-0.234974	-0.232905
C14	C	-3.838005	-0.319670	-0.232530
C15	C	-4.032248	-0.828451	-0.160348
C16	C	-3.996952	-0.748872	-0.160711
C17	C	-4.015589	-0.720179	-0.230699
C18	C	-4.069507	-0.771071	-0.300329
C19	C	-4.104788	-0.850649	-0.299965
C20	C	-3.927220	-0.450142	-0.301797
C21	C	-3.891939	-0.370558	-0.302156
C22	C	-3.819383	-0.348365	-0.162543
C23	C	-3.854664	-0.427943	-0.162179
C24	C	-3.908568	-0.478827	-0.231808
C25	C	-3.946837	-0.565117	-0.231414
C26	C	-3.977336	-0.633892	-0.231094
C27	C	-3.800444	-0.101149	-0.366718
C28	C	-3.838010	-0.100764	-0.451412
C29	C	-4.037393	-0.104400	-0.495095
C30	C	-4.072679	-0.104037	-0.574675
C31	C	-3.908581	-0.100043	-0.610571
C32	C	-3.709180	-0.096404	-0.566882
C33	C	-3.673894	-0.096761	-0.487303
C34	C	-3.851477	-0.094961	-0.887814
C35	C	-3.886780	-0.094606	-0.967399
C36	C	-4.250261	-0.102237	-0.975186
C37	C	-4.214976	-0.102595	-0.895607
C38	C	-4.015577	-0.098951	-0.851925
C39	C	-3.977318	-0.099343	-0.765635
C40	C	-3.946840	-0.099657	-0.696860
C41	C	-4.144495	0.035968	-0.229593
C42	C	-4.086167	0.120663	-0.229973
C43	C	-4.144491	-0.097855	-0.095778
C44	C	-4.086163	-0.098237	-0.011083
H45	H	-3.971115	-0.491563	-0.358494
C46	C	-4.291997	-0.108042	-0.622727
H47	H	-4.289512	-0.107249	-0.675261
H48	H	-4.384091	-0.154327	-0.618384
H49	H	-4.337685	-0.065007	-0.604186
H50	H	-3.775478	-0.306924	-0.105847
C51	C	-4.011756	-0.860010	-0.083363
H52	H	-4.040510	-0.914692	-0.093116
H53	H	-3.874803	-0.839917	-0.052297
H54	H	-4.107350	-0.844898	-0.057184
C55	C	-3.912421	-0.338997	-0.379146
H56	H	-3.949556	-0.380698	-0.420562
H57	H	-4.016432	-0.310907	-0.384634
H58	H	-3.783880	-0.305922	-0.379739
H59	H	-3.511528	-0.093781	-0.451734
H60	H	-3.575568	-0.093147	-0.596114
C61	C	-4.164097	-0.906626	-0.376550
H62	H	-4.182418	-0.958128	-0.366310
H63	H	-4.289486	-0.900639	-0.407737
H64	H	-4.056934	-0.895650	-0.402846
H65	H	-3.953055	-0.707443	-0.104016
H66	H	-4.084667	-0.747703	-0.357314
H67	H	-3.839494	-0.451299	-0.105188
H68	H	-4.348607	-0.105851	-0.866386
C69	C	-3.706293	-0.090270	-1.006893
H70	H	-3.582489	-0.088163	-0.969482
H71	H	-3.735808	-0.134651	-1.044853
H72	H	-3.689228	-0.045326	-1.030701
C73	C	-4.217907	-0.108795	-0.455617
H74	H	-4.341702	-0.110901	-0.493032
H75	H	-4.234910	-0.153750	-0.431832
H76	H	-4.188487	-0.064429	-0.417638
H77	H	-4.412623	-0.105200	-1.010762
C78	C	-3.632157	-0.090963	-0.839775
H79	H	-3.539492	-0.088543	-0.872554
H80	H	-3.587615	-0.046287	-0.801471
H81	H	-3.634049	-0.135608	-0.815668
