data_functionalizedCrystal
_audit_creation_method	'MofGen! by Chris Wilmer'
_symmetry_space_group_name_H-M	'P1'
_symmetry_Int_Tables_number	1
_symmetry_cell_setting	triclinic
loop_
_symmetry_equiv_pos_as_xyz
  x,y,z
_cell_length_a	21.295420
_cell_length_b	21.295416
_cell_length_c	21.295411
_cell_angle_alpha	89.980829
_cell_angle_beta	90.024693
_cell_angle_gamma	89.971418
loop_
_atom_site_label
_atom_site_type_symbol
_atom_site_fract_x
_atom_site_fract_y
_atom_site_fract_z
Zn1	Zn	0.962356	0.250710	0.355924
Zn2	Zn	1.462356	0.750710	0.855924
Zn3	Zn	0.962259	0.355962	0.250654
Zn4	Zn	1.462259	0.855962	0.750654
Zn5	Zn	0.857079	0.250708	0.250669
Zn6	Zn	1.357079	0.750708	0.750669
Zn7	Zn	0.857049	0.355942	0.355886
Zn8	Zn	1.357049	0.855942	0.855886
O9	O	0.909686	0.303331	0.303283
O10	O	1.409686	0.803331	0.803283
O11	O	1.050433	0.264682	0.341970
O12	O	1.550433	0.764682	0.841970
O13	O	0.948279	0.342007	0.162567
O14	O	1.448279	0.842007	0.662567
O15	O	0.871098	0.162619	0.264654
O16	O	1.371098	0.662619	0.764654
O17	O	1.050361	0.342010	0.264629
O18	O	1.550361	0.842010	0.764629
O19	O	0.948444	0.162621	0.341984
O20	O	1.448444	0.662621	0.841984
O21	O	0.871004	0.264677	0.162578
O22	O	1.371004	0.764677	0.662578
O23	O	0.768986	0.264658	0.264617
O24	O	1.268986	0.764658	0.764617
O25	O	0.871046	0.341976	0.443980
O26	O	1.371046	0.841976	0.943980
O27	O	0.768964	0.341973	0.341919
O28	O	1.268964	0.841973	0.841919
O29	O	0.948415	0.264662	0.444009
O30	O	1.448415	0.764662	0.944009
O31	O	0.948249	0.444049	0.264591
O32	O	1.448249	0.944049	0.764591
O33	O	0.870952	0.444034	0.341904
O34	O	1.370952	0.944034	0.841904
C35	C	0.746134	0.303314	0.303265
C36	C	1.246134	0.803314	0.803265
C37	C	0.676166	0.303321	0.303273
C38	C	1.176166	0.803321	0.803273
C39	C	0.176713	0.343663	0.343496
C40	C	0.676713	0.843663	0.843496
C41	C	0.242456	0.343663	0.343489
C42	C	0.742456	0.843663	0.843489
C43	C	0.275327	0.303345	0.303303
C44	C	0.775327	0.803345	0.803303
C45	C	0.242450	0.263035	0.263110
C46	C	0.742450	0.763035	0.763110
C47	C	0.176709	0.263040	0.263113
C48	C	0.676709	0.763040	0.763113
N49	N	0.378567	0.248227	0.298568
N50	N	0.878567	0.748227	0.798568
N51	N	0.441019	0.248224	0.298569
N52	N	0.941019	0.748224	0.798569
C53	C	0.473401	0.303327	0.303290
C54	C	0.973401	0.803327	0.803290
N55	N	0.440973	0.358435	0.308023
N56	N	0.940973	0.858435	0.808023
N57	N	0.378516	0.358438	0.308025
N58	N	0.878516	0.858438	0.808025
C59	C	0.346612	0.303335	0.303295
C60	C	0.846612	0.803335	0.803295
C61	C	0.577556	0.343638	0.343471
C62	C	1.077556	0.843638	0.843471
C63	C	0.643300	0.343639	0.343460
C64	C	1.143300	0.843639	0.843460
C65	C	0.643293	0.263005	0.263083
C66	C	1.143293	0.763005	0.763083
C67	C	0.577550	0.263010	0.263091
C68	C	1.077550	0.763010	0.763091
C69	C	0.544686	0.303325	0.303288
C70	C	1.044686	0.803325	0.803288
C71	C	0.909604	0.466882	0.303256
C72	C	1.409604	0.966882	0.803256
C73	C	0.909626	0.536850	0.303265
C74	C	1.409626	1.036850	0.803265
C75	C	0.949911	0.569704	0.263051
C76	C	1.449911	1.069704	0.763051
C77	C	0.949941	0.635446	0.263068
C78	C	1.449941	1.135446	0.763068
C79	C	0.909674	0.668333	0.303292
C80	C	1.409674	1.168333	0.803292
C81	C	0.869387	0.635472	0.343514
C82	C	1.369387	1.135472	0.843514
C83	C	0.869363	0.569730	0.343501
C84	C	1.369363	1.069730	0.843501
N85	N	0.854608	0.771598	0.308090
N86	N	1.354608	1.271598	0.808090
N87	N	0.854632	0.834049	0.308099
N88	N	1.354632	1.334049	0.808099
C89	C	0.909746	0.866408	0.303337
C90	C	1.409746	1.366408	0.803337
N91	N	0.964834	0.833955	0.298553
N92	N	1.464834	1.333955	0.798553
N93	N	0.964809	0.771498	0.298540
N94	N	1.464809	1.271498	0.798540
C95	C	0.909696	0.739618	0.303312
C96	C	1.409696	1.239618	0.803312
C97	C	0.950066	0.970546	0.263139
C98	C	1.450066	1.470546	0.763139
C99	C	0.950096	1.036290	0.263160
C100	C	1.450096	1.536290	0.763160
C101	C	0.869537	1.036314	0.343604
C102	C	1.369537	1.536314	0.843604
C103	C	0.869512	0.970572	0.343586
C104	C	1.369512	1.470572	0.843586
C105	C	0.909776	0.937692	0.303350
C106	C	1.409776	1.437692	0.803350
C107	C	1.073876	0.303348	0.303302
C108	C	1.573876	0.803348	0.803302
C109	C	1.143844	0.303356	0.303310
C110	C	1.643844	0.803356	0.803310
C111	C	0.909738	0.303317	0.467474
C112	C	1.409738	0.803317	0.967474
C113	C	0.909760	0.303312	0.537442
C114	C	1.409760	0.803312	1.037442
C115	C	0.909786	1.139140	0.303336
C116	C	1.409786	1.639140	0.803336
C117	C	0.909831	1.069172	0.303386
C118	C	1.409831	1.569172	0.803386
C119	C	0.909670	0.303298	0.139732
C120	C	1.409670	0.803298	0.639732
C121	C	0.909770	0.303127	0.069764
C122	C	1.409770	0.803127	0.569764
C123	C	0.950044	0.263053	0.570324
C124	C	1.450044	0.763053	1.070324
C125	C	0.950044	0.263025	0.636067
C126	C	1.450044	0.763025	1.136067
C127	C	0.909765	0.303268	0.668925
C128	C	1.409765	0.803268	1.168925
C129	C	0.869473	0.343530	0.636034
C130	C	1.369473	0.843530	1.136034
C131	C	0.869471	0.343552	0.570293
C132	C	1.369471	0.843552	1.070293
N133	N	0.904909	0.358336	0.772142
N134	N	1.404909	0.858336	1.272142
N135	N	0.904915	0.358314	0.834594
N136	N	1.404915	0.858314	1.334594
C137	C	0.909769	0.303204	0.866999
C138	C	1.409769	0.803204	1.366999
N139	N	0.914630	0.248117	0.834594
N140	N	1.414630	0.748117	1.334594
N141	N	0.914627	0.248141	0.772137
N142	N	1.414627	0.748141	1.272137
C143	C	0.909763	0.303249	0.740210
C144	C	1.409763	0.803249	1.240210
C145	C	0.950055	0.262913	0.971167
C146	C	1.450055	0.762913	1.471167
C147	C	0.950049	0.262884	1.036911
C148	C	1.450049	0.762884	1.536911
C149	C	0.869482	0.343395	1.036877
C150	C	1.369482	0.843395	1.536877
C151	C	0.869484	0.343417	0.971135
C152	C	1.369484	0.843417	1.471135
C153	C	0.909774	0.303177	0.938284
C154	C	1.409774	0.803177	1.438284
H155	H	0.670056	0.230180	0.230361
H156	H	1.170056	0.730180	0.730361
O157	O	0.830273	0.382575	0.538321
O158	O	1.330273	0.882575	1.038321
C159	C	0.789648	0.346748	0.500261
C160	C	1.289648	0.846748	1.000261
H161	H	0.785788	0.297161	0.520069
H162	H	1.285788	0.797161	1.020069
H163	H	0.741190	0.369511	0.499494
H164	H	1.241190	0.869511	0.999494
H165	H	0.809114	0.344600	0.450446
H166	H	1.309114	0.844600	0.950446
H167	H	0.149959	0.376493	0.376225
H168	H	0.649959	0.876493	0.876225
O169	O	0.274296	0.382836	0.382591
O170	O	0.774296	0.882836	0.882591
C171	C	0.231192	0.418431	0.418057
C172	C	0.731192	0.918431	0.918057
H173	H	0.184338	0.392659	0.420280
H174	H	0.684338	0.892659	0.920280
H175	H	0.250208	0.425205	0.467643
H176	H	0.750208	0.925205	0.967643
H177	H	0.224174	0.466212	0.394930
H178	H	0.724174	0.966212	0.894930
O179	O	0.989126	0.667404	0.224082
O180	O	1.489126	1.167404	0.724082
C181	C	1.029772	0.705402	0.259949
C182	C	1.529772	1.205402	0.759949
H183	H	1.033658	0.685560	0.309524
H184	H	1.533658	1.185560	0.809524
H185	H	1.078218	0.706136	0.237205
H186	H	1.578218	1.206136	0.737205
H187	H	1.010310	0.755235	0.262119
H188	H	1.510310	1.255235	0.762119
H189	H	0.269218	0.230208	0.230389
H190	H	0.769218	0.730208	0.730389
H191	H	0.836558	0.542981	0.376249
H192	H	1.336558	1.042981	0.876249
O193	O	0.989237	0.938699	0.224039
O194	O	1.489237	1.438699	0.724039
C195	C	1.024793	0.981798	0.188539
C196	C	1.524793	1.481798	0.688539
H197	H	1.026982	1.028643	0.214338
H198	H	1.526982	1.528643	0.714338
H199	H	1.074385	0.962761	0.181862
H200	H	1.574385	1.462761	0.681862
H201	H	1.001766	0.988841	0.140712
H202	H	1.501766	1.488841	0.640712
O203	O	0.830359	0.667484	0.382619
O204	O	1.330359	1.167484	0.882619
C205	C	0.866193	0.705448	0.423326
C206	C	1.366193	1.205448	0.923326
H207	H	0.913912	0.715268	0.401169
H208	H	1.413912	1.215268	0.901169
H209	H	0.840565	0.751695	0.431747
H210	H	1.340565	1.251695	0.931747
H211	H	0.873079	0.680082	0.469977
H212	H	1.373079	1.180082	0.969977
O213	O	0.989056	0.537694	0.224059
O214	O	1.489056	1.037694	0.724059
C215	C	1.029693	0.499626	0.259929
C216	C	1.529693	0.999626	0.759929
H217	H	1.007466	0.489771	0.307612
H218	H	1.507466	0.989771	0.807612
H219	H	1.038125	0.453402	0.234288
H220	H	1.538125	0.953402	0.734288
H221	H	1.076349	0.524919	0.266892
H222	H	1.576349	1.024919	0.766892
O223	O	0.989099	0.223793	0.939180
O224	O	1.489099	0.723793	1.439180
C225	C	0.953285	0.183136	0.901145
C226	C	1.453285	0.683136	1.401145
H227	H	0.905565	0.205335	0.891278
H228	H	1.405565	0.705335	1.391278
H229	H	0.978931	0.174725	0.854925
H230	H	1.478931	0.674725	1.354925
H231	H	0.946399	0.136474	0.926473
H232	H	1.446399	0.636474	1.426473
O233	O	0.989350	1.068205	0.224213
O234	O	1.489350	1.568205	0.724213
C235	C	1.029996	1.106147	0.260140
C236	C	1.529996	1.606147	0.760140
H237	H	1.033776	1.086302	0.309723
H238	H	1.533776	1.586302	0.809723
H239	H	1.078477	1.106809	0.237471
H240	H	1.578477	1.606809	0.737471
H241	H	1.010602	1.156008	0.262277
H242	H	1.510602	1.656008	0.762277
O243	O	0.830445	1.068350	0.382622
O244	O	1.330445	1.568350	0.882622
C245	C	0.839118	1.133420	0.374026
C246	C	1.339118	1.633420	0.874026
H247	H	0.859759	1.142410	0.325466
H248	H	1.359759	1.642410	0.825466
H249	H	0.791975	1.158446	0.378262
H250	H	1.291975	1.658446	0.878262
H251	H	0.872632	1.152024	0.411398
H252	H	1.372632	1.652024	0.911398
O253	O	0.830439	0.382691	0.667977
O254	O	1.330439	0.882691	1.167977
C255	C	0.866255	0.423331	0.706027
C256	C	1.366255	0.923331	1.206027
H257	H	0.915830	0.427231	0.686233
H258	H	1.415830	0.927231	1.186233
H259	H	0.843458	0.471773	0.706762
H260	H	1.343458	0.971773	1.206762
H261	H	0.868438	0.403854	0.755853
H262	H	1.368438	0.903854	1.255853
H263	H	0.149947	0.230215	0.230389
H264	H	0.649947	0.730215	0.730389
O265	O	0.830314	0.938752	0.382664
O266	O	1.330314	1.438752	0.882664
C267	C	0.794790	0.981873	0.418183
C268	C	1.294790	1.481873	0.918183
H269	H	0.792642	1.028752	0.392408
H270	H	1.292642	1.528752	0.892408
H271	H	0.745182	0.962918	0.424845
H272	H	1.245182	1.462918	0.924845
H273	H	0.817819	0.988817	0.466016
H274	H	1.317819	1.488817	0.966016
H275	H	0.550788	0.230185	0.230370
H276	H	1.050788	0.730185	0.730370
H277	H	0.982851	0.230285	0.543581
H278	H	1.482851	0.730285	1.043581
O279	O	0.545724	0.382857	0.382536
O280	O	1.045724	0.882857	0.882536
C281	C	0.588836	0.418425	0.418015
C282	C	1.088836	0.918425	0.918015
H283	H	0.635683	0.420573	0.392220
H284	H	1.135683	0.920573	0.892220
H285	H	0.569819	0.468030	0.424653
H286	H	1.069819	0.968030	0.924653
H287	H	0.595869	0.395435	0.465860
H288	H	1.095869	0.895435	0.965860
O289	O	0.989242	0.223754	1.068758
O290	O	1.489242	0.723754	1.568758
C291	C	1.024789	0.188234	1.025662
C292	C	1.524789	0.688234	1.525662
H293	H	1.026951	0.214035	0.978801
H294	H	1.526951	0.714035	1.478801
H295	H	1.074391	0.181522	1.044678
H296	H	1.574391	0.681522	1.544678
H297	H	1.001771	0.140423	1.018659
H298	H	1.501771	0.640423	1.518659
H299	H	0.982846	0.230238	0.662845
H300	H	1.482846	0.730238	1.162845
O301	O	0.830448	0.382559	1.068812
O302	O	1.330448	0.882559	1.568812
C303	C	0.866265	0.423197	1.106863
C304	C	1.366265	0.923197	1.606863
H305	H	0.915842	0.427090	1.087073
H306	H	1.415842	0.927090	1.587073
H307	H	0.843474	0.471641	1.107594
H308	H	1.343474	0.971641	1.607594
H309	H	0.868443	0.403722	1.156690
H310	H	1.368443	0.903722	1.656690
O311	O	0.830335	0.382588	0.939286
O312	O	1.330335	0.882588	1.439286
C313	C	0.794770	0.418090	0.982382
C314	C	1.294770	0.918090	1.482382
H315	H	0.820555	0.420260	1.029254
H316	H	1.320555	0.920260	1.529254
H317	H	0.788022	0.467692	0.963383
H318	H	1.288022	0.967692	1.463383
H319	H	0.746977	0.395029	0.989356
H320	H	1.246977	0.895029	1.489356
H321	H	0.670060	0.376467	0.376182
H322	H	1.170060	0.876467	0.876182
