data_functionalizedCrystal
_audit_creation_method	'MofGen! by Chris Wilmer'
_symmetry_space_group_name_H-M	'P1'
_symmetry_Int_Tables_number	1
_symmetry_cell_setting	triclinic
loop_
_symmetry_equiv_pos_as_xyz
  x,y,z
_cell_length_a	12.594517
_cell_length_b	16.120847
_cell_length_c	12.594509
_cell_angle_alpha	87.077968
_cell_angle_beta	89.978673
_cell_angle_gamma	92.899582
loop_
_atom_site_label
_atom_site_type_symbol
_atom_site_fract_x
_atom_site_fract_y
_atom_site_fract_z
Zn1	Zn	1.605887	-0.331888	-0.580405
Zn2	Zn	1.596795	-0.471320	-0.393413
Zn3	Zn	1.427888	-0.331924	-0.402432
Zn4	Zn	1.418894	-0.471262	-0.571347
O5	O	1.512366	-0.401598	-0.486899
O6	O	1.753626	-0.350393	-0.555617
O7	O	1.574349	-0.452868	-0.245661
O8	O	1.459069	-0.215253	-0.433606
O9	O	1.746947	-0.452833	-0.418235
O10	O	1.589844	-0.215226	-0.564362
O11	O	1.450253	-0.350454	-0.252287
O12	O	1.277750	-0.350398	-0.424822
O13	O	1.443740	-0.452734	-0.721497
O14	O	1.271142	-0.452769	-0.548923
O15	O	1.581123	-0.350337	-0.728152
O16	O	1.565628	-0.587978	-0.409451
O17	O	1.434925	-0.587936	-0.540178
C18	C	1.235826	-0.401581	-0.486869
C19	C	1.117520	-0.401594	-0.486880
C20	C	1.498343	-0.618207	-0.472876
C21	C	1.492441	-0.710873	-0.466913
C22	C	1.512442	-0.401525	-0.764525
C23	C	1.512475	-0.401494	-0.882833
C24	C	1.051835	-0.345839	-0.419522
C25	C	0.976125	-0.421886	-0.388426
C26	C	0.982429	-0.325584	-0.517992
C27	C	1.043366	-0.477682	-0.455730
C28	C	1.049679	-0.381328	-0.585345
C29	C	0.973998	-0.457429	-0.554282
C30	C	1.789986	-0.401616	-0.486930
C31	C	1.908291	-0.401623	-0.486943
C32	C	1.526474	-0.184143	-0.501000
C33	C	1.532485	-0.091477	-0.507009
C34	C	1.543480	0.078185	-0.517977
C35	C	1.481449	0.119470	-0.455948
C36	C	1.487567	0.213876	-0.462051
C37	C	1.537364	-0.016229	-0.511876
C38	C	1.437777	-0.457156	-0.948468
C39	C	1.533585	-0.477527	-1.017942
C40	C	1.416745	-0.381073	-1.024161
C41	C	1.608331	-0.421904	-0.950745
C42	C	1.491428	-0.325416	-0.956961
C43	C	1.587305	-0.345757	-1.026405
C44	C	1.512356	-0.401611	-0.210357
C45	C	1.512545	-0.401407	-0.092066
H46	H	1.085890	-0.298734	-0.362482
H47	H	1.423746	0.083913	-0.398262
C48	C	1.717764	-0.445296	-0.907413
N49	N	1.800185	-0.462918	-0.874772
C50	C	0.932528	-0.445064	-0.275970
N51	N	0.899693	-0.462515	-0.191268
H52	H	1.601178	0.113738	-0.575660
C53	C	1.352510	-0.520848	-0.902367
N54	N	1.288297	-0.568823	-0.867634
C55	C	1.557683	-0.564393	-1.054354
N56	N	1.575826	-0.629822	-1.081776
C57	C	1.672777	-0.282115	-1.072216
N58	N	1.737156	-0.234182	-1.106723
H59	H	1.473559	-0.261134	-0.929988
H60	H	1.070164	-0.541994	-0.429351
C61	C	1.307336	-0.357785	-1.067662
N62	N	1.224927	-0.340249	-1.100422
C63	C	0.928232	-0.521216	-0.631263
N64	N	0.893757	-0.569264	-0.689239
H65	H	0.955443	-0.261300	-0.544242
C66	C	1.093315	-0.358112	-0.697769
N67	N	1.126187	-0.340616	-0.782446
