data_functionalizedCrystal
_audit_creation_method	'MofGen! by Chris Wilmer'
_symmetry_space_group_name_H-M	'P1'
_symmetry_Int_Tables_number	1
_symmetry_cell_setting	triclinic
loop_
_symmetry_equiv_pos_as_xyz
  x,y,z
_cell_length_a	10.654550
_cell_length_b	16.992695
_cell_length_c	9.730223
_cell_angle_alpha	89.995280
_cell_angle_beta	89.999957
_cell_angle_gamma	87.576577
loop_
_atom_site_label
_atom_site_type_symbol
_atom_site_fract_x
_atom_site_fract_y
_atom_site_fract_z
O1	O	1.677361	0.110190	-0.114188
O2	O	2.177361	0.610190	0.385812
O3	O	1.312790	0.120688	-0.114214
O4	O	1.812790	0.620688	0.385786
O5	O	1.493614	0.001288	-0.114190
O6	O	1.993614	0.501288	0.385810
O7	O	1.496537	0.229590	-0.114212
O8	O	1.996537	0.729590	0.385788
O9	O	1.493601	0.001285	0.114390
O10	O	1.993601	0.501285	0.614390
O11	O	1.312777	0.120685	0.114366
O12	O	1.812777	0.620685	0.614366
O13	O	1.677349	0.110187	0.114391
O14	O	2.177349	0.610187	0.614391
Zn15	Zn	1.495061	0.115435	0.150671
Zn16	Zn	1.995061	0.615435	0.650671
Zn17	Zn	1.495078	0.115439	-0.150493
Zn18	Zn	1.995078	0.615439	0.349507
O19	O	1.496525	0.229586	0.114368
O20	O	1.996525	0.729586	0.614368
C21	C	1.265919	0.119916	0.000073
C22	C	1.765919	0.619916	0.500073
C23	C	1.126277	0.117609	0.000064
C24	C	1.626277	0.617609	0.500064
C25	C	1.052866	0.187910	0.000061
C26	C	1.552866	0.687910	0.500061
C27	C	0.921658	0.185738	0.000085
C28	C	1.421658	0.685738	0.500085
C29	C	0.937282	0.042959	0.000109
C30	C	1.437282	0.542959	0.500109
C31	C	1.068488	0.045132	0.000095
C32	C	1.568488	0.545132	0.500095
C33	C	1.489848	-0.027946	0.000099
C34	C	1.989848	0.472054	0.500099
C35	C	1.478628	-0.115051	0.000098
C36	C	1.978628	0.384949	0.500098
C37	C	1.586879	-0.164703	0.000107
C38	C	2.086879	0.335297	0.500107
C39	C	1.576330	-0.246547	0.000093
C40	C	2.076330	0.253453	0.500093
C41	C	1.457529	-0.278738	0.000080
C42	C	1.957529	0.221262	0.500080
C43	C	1.349270	-0.229080	0.000067
C44	C	1.849270	0.270920	0.500067
C45	C	1.359820	-0.147237	0.000071
C46	C	1.859820	0.352763	0.500071
C47	C	1.413802	-0.522573	0.000058
C48	C	1.913802	-0.022573	0.500058
C49	C	1.403260	-0.604422	0.000059
C50	C	1.903260	-0.104422	0.500059
C51	C	1.630321	-0.621884	0.000082
C52	C	2.130321	-0.121884	0.500082
C53	C	1.640861	-0.540039	0.000094
C54	C	2.140861	-0.040039	0.500094
C55	C	1.532602	-0.490388	0.000074
C56	C	2.032602	0.009612	0.500074
N57	N	1.446743	-0.362395	0.000071
N58	N	1.946743	0.137605	0.500071
N59	N	1.543389	-0.406733	0.000074
N60	N	2.043389	0.093267	0.500074
C61	C	1.724220	0.110959	0.000102
C62	C	2.224220	0.610959	0.500102
C63	C	1.863862	0.113265	0.000102
C64	C	2.363862	0.613265	0.500102
C65	C	1.500291	0.258821	0.000075
C66	C	2.000291	0.758821	0.500075
C67	C	1.511510	0.345926	0.000068
C68	C	2.011510	0.845926	0.500068
N69	N	1.495059	0.115432	0.356207
N70	N	1.995059	0.615432	0.856207
N71	N	1.495089	0.115437	-0.356030
N72	N	1.995089	0.615437	0.143970
C73	C	1.575159	0.062584	0.428144
C74	C	2.075159	0.562584	0.928144
C75	C	1.575171	0.062584	0.572026
C76	C	2.075171	0.562584	1.072026
C77	C	1.414980	0.168287	0.572024
C78	C	1.914980	0.668287	1.072024
C79	C	1.414962	0.168282	0.428144
C80	C	1.914962	0.668282	0.928144
H81	H	0.890215	-0.016050	0.000142
H82	H	1.390215	0.483950	0.500142
H83	H	1.718458	-0.662318	0.000096
H84	H	2.218458	-0.162318	0.500096
C85	C	1.272576	-0.639834	0.000044
C86	C	1.772576	-0.139834	0.500044
H87	H	1.281802	-0.695688	0.000063
H88	H	1.781802	-0.195688	0.500063
H89	H	1.227660	-0.622835	-0.079671
H90	H	1.727660	-0.122835	0.420329
H91	H	1.227653	-0.622836	0.079760
H92	H	1.727653	-0.122836	0.579760
H93	H	1.683620	-0.138501	0.000126
H94	H	2.183620	0.361499	0.500126
C95	C	1.663286	0.004455	0.651151
C96	C	2.163286	0.504455	1.151151
H97	H	1.710989	-0.027015	0.587697
H98	H	2.210989	0.472985	1.087697
H99	H	1.614826	-0.028468	0.707293
H100	H	2.114826	0.471532	1.207293
H101	H	1.718428	0.032990	0.707262
H102	H	2.218428	0.532990	1.207262
H103	H	1.349770	0.211318	0.630609
H104	H	1.849770	0.711318	1.130609
C105	C	1.116436	0.267629	0.000038
C106	C	1.616436	0.767629	0.500038
H107	H	1.205092	0.258857	0.000016
H108	H	1.705092	0.758857	0.500016
H109	H	1.091731	0.296606	0.079747
H110	H	1.591731	0.796606	0.579747
H111	H	1.091714	0.296603	-0.079685
H112	H	1.591714	0.796603	0.420315
C113	C	1.663248	0.004444	0.349017
C114	C	2.163248	0.504444	0.849017
H115	H	1.710945	-0.027034	0.412473
H116	H	2.210945	0.472966	0.912473
H117	H	1.718377	0.032965	0.292872
H118	H	2.218377	0.532965	0.792872
H119	H	1.614757	-0.028481	0.292909
H120	H	2.114757	0.471519	0.792909
H121	H	1.349729	0.211317	0.369569
H122	H	1.849729	0.711317	0.869569
C123	C	0.840906	0.263067	0.000075
C124	C	1.340906	0.763067	0.500075
H125	H	0.754487	0.251396	0.000102
H126	H	1.254487	0.751396	0.500102
H127	H	0.859190	0.292753	-0.079645
H128	H	1.359190	0.792753	0.420355
H129	H	0.859210	0.292755	0.079787
H130	H	1.359210	0.792755	0.579787
C131	C	1.149245	-0.032203	0.000091
C132	C	1.649245	0.467797	0.500091
H133	H	1.096039	-0.075679	0.000091
H134	H	1.596039	0.424321	0.500091
H135	H	1.200762	-0.034323	0.079796
H136	H	1.700762	0.465677	0.579796
H137	H	1.200744	-0.034319	-0.079636
H138	H	1.700744	0.465681	0.420364
H139	H	1.664480	-0.286971	0.000104
H140	H	2.164480	0.213029	0.500104
C141	C	1.771542	-0.504635	0.000090
C142	C	2.271542	-0.004635	0.500090
H143	H	1.834503	-0.545929	0.000079
H144	H	2.334503	-0.045929	0.500079
H145	H	1.780378	-0.473074	0.079799
H146	H	2.280378	0.026926	0.579799
H147	H	1.780373	-0.473070	-0.079633
H148	H	2.280373	0.026930	0.420367
H149	H	1.325649	-0.482157	0.000042
H150	H	1.825649	0.017843	0.500042
H151	H	1.252539	-0.255296	0.000048
H152	H	1.752539	0.244704	0.500048
C153	C	1.240749	-0.092617	0.000061
C154	C	1.740749	0.407383	0.500061
H155	H	1.264046	-0.039265	0.000050
H156	H	1.764046	0.460735	0.500050
H157	H	1.192361	-0.102443	0.079764
H158	H	1.692361	0.397557	0.579764
H159	H	1.192385	-0.102439	-0.079668
H160	H	1.692385	0.397561	0.420332
