data_functionalizedCrystal
_audit_creation_method	'MofGen! by Chris Wilmer'
_symmetry_space_group_name_H-M	'P1'
_symmetry_Int_Tables_number	1
_symmetry_cell_setting	triclinic
loop_
_symmetry_equiv_pos_as_xyz
  x,y,z
_cell_length_a	18.101398
_cell_length_b	18.050590
_cell_length_c	18.101390
_cell_angle_alpha	89.966356
_cell_angle_beta	89.989901
_cell_angle_gamma	90.014109
loop_
_atom_site_label
_atom_site_type_symbol
_atom_site_fract_x
_atom_site_fract_y
_atom_site_fract_z
Zn1	Zn	1.132188	-0.295719	-0.418547
Zn2	Zn	1.465521	0.037614	-0.085214
Zn3	Zn	1.798855	0.370947	0.248120
Zn4	Zn	1.132110	-0.419925	-0.294704
Zn5	Zn	1.465444	-0.086592	0.038630
Zn6	Zn	1.798777	0.246742	0.371963
Zn7	Zn	1.008346	-0.295744	-0.294740
Zn8	Zn	1.341680	0.037590	0.038594
Zn9	Zn	1.675013	0.370923	0.371927
Zn10	Zn	1.008325	-0.419862	-0.418524
Zn11	Zn	1.341658	-0.086529	-0.085191
Zn12	Zn	1.674992	0.246804	0.248143
O13	O	1.070242	-0.357812	-0.356628
O14	O	1.403576	-0.024479	-0.023295
O15	O	1.736909	0.308854	0.310038
O16	O	1.235811	-0.312211	-0.402113
O17	O	1.569144	0.021122	-0.068780
O18	O	1.902477	0.354455	0.264553
O19	O	1.115669	-0.403488	-0.191076
O20	O	1.449003	-0.070155	0.142258
O21	O	1.782336	0.263178	0.475591
O22	O	1.024816	-0.191816	-0.311187
O23	O	1.358149	0.141518	0.022146
O24	O	1.691482	0.474851	0.355479
O25	O	1.235754	-0.403465	-0.311126
O26	O	1.569087	-0.070131	0.022207
O27	O	1.902420	0.263202	0.355540
O28	O	1.115802	-0.191798	-0.402148
O29	O	1.449135	0.141535	-0.068815
O30	O	1.782468	0.474869	0.264519
O31	O	1.024740	-0.312253	-0.191102
O32	O	1.358074	0.021081	0.142232
O33	O	1.691407	0.354414	0.475565
O34	O	0.904711	-0.312192	-0.311165
O35	O	1.238044	0.021141	0.022168
O36	O	1.571377	0.354475	0.355502
O37	O	1.024779	-0.403358	-0.522160
O38	O	1.358113	-0.070025	-0.188827
O39	O	1.691446	0.263309	0.144507
O40	O	0.904695	-0.403382	-0.402109
O41	O	1.238028	-0.070048	-0.068776
O42	O	1.571362	0.263285	0.264558
O43	O	1.115781	-0.312151	-0.522177
O44	O	1.449114	0.021183	-0.188843
O45	O	1.782448	0.354516	0.144490
O46	O	1.115648	-0.523841	-0.311104
O47	O	1.448982	-0.190508	0.022229
O48	O	1.782315	0.142826	0.355562
O49	O	1.024704	-0.523795	-0.402074
O50	O	1.358037	-0.190462	-0.068741
O51	O	1.691371	0.142872	0.264592
C52	C	0.877832	-0.357783	-0.356639
C53	C	1.211165	-0.024450	-0.023305
C54	C	1.544499	0.308883	0.310028
C55	C	0.795518	-0.357789	-0.356661
C56	C	1.128851	-0.024455	-0.023327
C57	C	1.462184	0.308878	0.310006
C58	C	0.496427	-0.357832	-0.356630
C59	C	0.829760	-0.024499	-0.023297
C60	C	1.163093	0.308834	0.310037
C61	C	0.527767	-0.415484	-0.413567
C62	C	0.861100	-0.082150	-0.080233
C63	C	1.194434	0.251183	0.253100
C64	C	0.613385	-0.415303	-0.413801
C65	C	0.946719	-0.081970	-0.080468
C66	C	1.280052	0.251363	0.252866
C67	C	0.644809	-0.357811	-0.356645
C68	C	0.978143	-0.024478	-0.023312
C69	C	1.311476	0.308855	0.310021
C70	C	0.613738	-0.279588	-0.377974
C71	C	0.947071	0.053746	-0.044641
C72	C	1.280405	0.387079	0.288693
C73	C	0.528093	-0.279934	-0.378379
C74	C	0.861426	0.053399	-0.045046
C75	C	1.194760	0.386733	0.288288
C76	C	0.527978	-0.377715	-0.278227
C77	C	0.861311	-0.044382	0.055106
C78	C	1.194645	0.288952	0.388440
C79	C	0.613628	-0.379431	-0.278646
C80	C	0.946962	-0.046098	0.054688
C81	C	1.280295	0.287235	0.388021
C82	C	0.728669	-0.357795	-0.356653
C83	C	1.062002	-0.024461	-0.023319
C84	C	1.395336	0.308872	0.310014
C85	C	0.412567	-0.357844	-0.356624
C86	C	0.745901	-0.024511	-0.023291
C87	C	1.079234	0.308823	0.310042
C88	C	1.070185	-0.550765	-0.356599
C89	C	1.403519	-0.217431	-0.023266
C90	C	1.736852	0.115902	0.310068
C91	C	1.070229	-0.633310	-0.356611
C92	C	1.403562	-0.299977	-0.023278
C93	C	1.736896	0.033356	0.310056
C94	C	1.119787	-0.832759	-0.307211
C95	C	1.453121	-0.499426	0.026123
C96	C	1.786454	-0.166092	0.359456
C97	C	1.137877	-0.882087	-0.374798
C98	C	1.471211	-0.548754	-0.041464
C99	C	1.804544	-0.215420	0.291869
C100	C	1.070271	-0.784441	-0.356641
C101	C	1.403604	-0.451107	-0.023307
C102	C	1.736938	-0.117774	0.310026
C103	C	1.052256	-0.882195	-0.289084
C104	C	1.385590	-0.548861	0.044249
C105	C	1.718923	-0.215528	0.377583
C106	C	1.070313	-0.930426	-0.356663
C107	C	1.403646	-0.597092	-0.023330
C108	C	1.736980	-0.263759	0.310003
C109	C	1.088395	-0.832681	-0.424263
C110	C	1.421729	-0.499348	-0.090930
C111	C	1.755062	-0.166015	0.242404
C112	C	1.002743	-0.832785	-0.338504
C113	C	1.336077	-0.499451	-0.005171
C114	C	1.669410	-0.166118	0.328163
C115	C	1.020807	-0.882090	-0.406138
C116	C	1.354141	-0.548757	-0.072804
C117	C	1.687474	-0.215423	0.260529
C118	C	1.070249	-0.700342	-0.356627
C119	C	1.403582	-0.367009	-0.023293
C120	C	1.736915	-0.033676	0.310040
C121	C	1.070335	-1.014522	-0.356685
C122	C	1.403668	-0.681189	-0.023352
C123	C	1.737002	-0.347856	0.309982
C124	C	1.263404	-0.357842	-0.356619
C125	C	1.596738	-0.024509	-0.023285
C126	C	1.930071	0.308824	0.310048
C127	C	1.345718	-0.357855	-0.356614
C128	C	1.679052	-0.024522	-0.023281
C129	C	2.012385	0.308812	0.310052
C130	C	1.070286	-0.357745	-0.549790
C131	C	1.403620	-0.024411	-0.216457
C132	C	1.736953	0.308922	0.116876
C133	C	1.070305	-0.357716	-0.632105
C134	C	1.403639	-0.024382	-0.298771
C135	C	1.736972	0.308951	0.034562
C136	C	1.070320	-0.164107	-0.356674
C137	C	1.403653	0.169226	-0.023341
C138	C	1.736986	0.502560	0.309992
C139	C	1.070353	-0.081561	-0.356694
C140	C	1.403686	0.251772	-0.023361
C141	C	1.737019	0.585106	0.309973
C142	C	1.070345	-0.357669	-0.931196
C143	C	1.403678	-0.024336	-0.597862
C144	C	1.737012	0.308997	-0.264529
C145	C	1.127790	-0.300486	-0.899881
C146	C	1.461123	0.032847	-0.566548
C147	C	1.794456	0.366180	-0.233214
C148	C	1.127610	-0.300274	-0.814263
C149	C	1.460944	0.033059	-0.480930
C150	C	1.794277	0.366393	-0.147596
C151	C	1.070326	-0.357692	-0.782813
C152	C	1.403659	-0.024359	-0.449480
C153	C	1.736993	0.308974	-0.116146
C154	C	0.992305	-0.336423	-0.813900
C155	C	1.325638	-0.003090	-0.480566
C156	C	1.658971	0.330243	-0.147233
C157	C	0.992648	-0.335995	-0.899545
C158	C	1.325982	-0.002661	-0.566212
C159	C	1.659315	0.330672	-0.232878
C160	C	1.090235	-0.436269	-0.899604
C161	C	1.423568	-0.102935	-0.566270
C162	C	1.756902	0.230398	-0.232937
C163	C	1.091947	-0.435868	-0.813953
C164	C	1.425280	-0.102535	-0.480620
C165	C	1.758614	0.230799	-0.147287
C166	C	1.070310	-0.357707	-0.698954
C167	C	1.403644	-0.024373	-0.365620
C168	C	1.736977	0.308960	-0.032287
C169	C	1.070356	-0.357653	-1.015055
C170	C	1.403689	-0.024320	-0.681722
C171	C	1.737022	0.309013	-0.348389
C172	C	1.070241	-0.357826	-0.164218
C173	C	1.403575	-0.024493	0.169115
C174	C	1.736908	0.308840	0.502449
C175	C	1.070366	-0.357646	-0.081904
C176	C	1.403699	-0.024313	0.251429
C177	C	1.737033	0.309021	0.584762
H178	H	0.634092	-0.235469	-0.337798
H179	H	0.967426	0.097865	-0.004464
H180	H	1.300759	0.431198	0.328869
Cl181	Cl	1.028705	-0.915773	-0.200864
Cl182	Cl	1.362038	-0.582440	0.132469
Cl183	Cl	1.695371	-0.249107	0.465803
H184	H	0.945635	-0.811111	-0.323129
H185	H	1.278968	-0.477777	0.010204
H186	H	1.612302	-0.144444	0.343537
H187	H	0.635199	-0.262420	-0.434667
H188	H	0.968533	0.070913	-0.101334
H189	H	1.301866	0.404246	0.232000
Cl190	Cl	0.924427	-0.398750	-0.782457
Cl191	Cl	1.257760	-0.065416	-0.449123
Cl192	Cl	1.591094	0.267917	-0.115790
Cl193	Cl	1.025637	-0.502050	-0.930866
Cl194	Cl	1.358970	-0.168716	-0.597532
Cl195	Cl	1.692304	0.164617	-0.264199
H196	H	1.053151	-0.480764	-0.792542
H197	H	1.386485	-0.147430	-0.459209
H198	H	1.719818	0.185903	-0.125875
Cl199	Cl	1.216935	-0.320827	-0.781810
Cl200	Cl	1.550269	0.012507	-0.448476
Cl201	Cl	1.883602	0.345840	-0.115143
Cl202	Cl	0.494616	-0.464269	-0.248294
Cl203	Cl	0.827950	-0.130935	0.085039
Cl204	Cl	1.161283	0.202398	0.418373
Cl205	Cl	0.644983	-0.468307	-0.253813
Cl206	Cl	0.978316	-0.134974	0.079521
Cl207	Cl	1.311649	0.198359	0.412854
Cl208	Cl	0.645041	-0.394990	-0.503490
Cl209	Cl	0.978374	-0.061657	-0.170156
Cl210	Cl	1.311708	0.271676	0.163177
Cl211	Cl	0.965802	-0.248698	-0.780816
Cl212	Cl	1.299135	0.084635	-0.447482
Cl213	Cl	1.632469	0.417969	-0.114149
Cl214	Cl	0.646648	-0.319305	-0.209629
Cl215	Cl	0.979981	0.014028	0.123705
Cl216	Cl	1.313314	0.347361	0.457038
Cl217	Cl	0.924310	-0.397487	-0.931530
Cl218	Cl	1.257643	-0.064154	-0.598197
Cl219	Cl	1.590977	0.269180	-0.264864
H220	H	0.508128	-0.263071	-0.435695
H221	H	0.841462	0.070262	-0.102362
H222	H	1.174795	0.403596	0.230972
H223	H	1.103593	-0.811025	-0.481453
H224	H	1.436926	-0.477692	-0.148120
H225	H	1.770259	-0.144358	0.185213
H226	H	0.507361	-0.235440	-0.338810
H227	H	0.840695	0.097893	-0.005477
H228	H	1.174028	0.431227	0.327856
H229	H	0.978951	-0.903614	-0.447997
H230	H	1.312284	-0.570281	-0.114664
H231	H	1.645618	-0.236948	0.218670
H232	H	0.507710	-0.335722	-0.235804
H233	H	0.841044	-0.002389	0.097530
H234	H	1.174377	0.330945	0.430863
H235	H	1.146131	-0.455634	-0.921239
H236	H	1.479465	-0.122301	-0.587905
H237	H	1.812798	0.211032	-0.254572
H238	H	1.195002	-0.903745	-0.390152
H239	H	1.528335	-0.570412	-0.056819
H240	H	1.861669	-0.237078	0.276514
Cl241	Cl	1.180597	-0.460630	-0.782588
Cl242	Cl	1.513931	-0.127297	-0.449255
Cl243	Cl	1.847264	0.206037	-0.115922
H244	H	0.507164	-0.473680	-0.400348
H245	H	0.840498	-0.140347	-0.067015
H246	H	1.173831	0.192987	0.266318
H247	H	1.161676	-0.811098	-0.265452
H248	H	1.495009	-0.477764	0.067881
H249	H	1.828343	-0.144431	0.401214
H250	H	0.634393	-0.473310	-0.400433
H251	H	0.967726	-0.139977	-0.067100
H252	H	1.301060	0.193357	0.266234
H253	H	0.506254	-0.402495	-0.471322
H254	H	0.839587	-0.069162	-0.137989
H255	H	1.172921	0.264171	0.195344
Cl256	Cl	1.217407	-0.320791	-0.931678
Cl257	Cl	1.550740	0.012543	-0.598344
Cl258	Cl	1.884073	0.345876	-0.265011
H259	H	1.114443	-0.242046	-0.793793
H260	H	1.447777	0.091287	-0.460460
H261	H	1.781110	0.424620	-0.127126
Cl262	Cl	1.107722	-0.211087	-0.933136
Cl263	Cl	1.441055	0.122247	-0.599803
Cl264	Cl	1.774389	0.455580	-0.266470
H265	H	0.975789	-0.278539	-0.919539
H266	H	1.309122	0.054794	-0.586206
H267	H	1.642456	0.388128	-0.252873
