data_functionalizedCrystal
_audit_creation_method	'MofGen! by Chris Wilmer'
_symmetry_space_group_name_H-M	'P1'
_symmetry_Int_Tables_number	1
_symmetry_cell_setting	triclinic
loop_
_symmetry_equiv_pos_as_xyz
  x,y,z
_cell_length_a	14.853576
_cell_length_b	9.065218
_cell_length_c	8.140239
_cell_angle_alpha	90.002802
_cell_angle_beta	89.997539
_cell_angle_gamma	95.672816
loop_
_atom_site_label
_atom_site_type_symbol
_atom_site_fract_x
_atom_site_fract_y
_atom_site_fract_z
O1	O	0.132190	-1.957785	-0.136613
O2	O	0.632190	-1.457785	0.363387
O3	O	0.143033	-1.528285	-0.136615
O4	O	0.643033	-1.028285	0.363385
O5	O	0.006468	-1.754501	-0.136608
O6	O	0.506468	-1.254501	0.363392
O7	O	0.268756	-1.731569	-0.136621
O8	O	0.768756	-1.231569	0.363379
O9	O	0.006466	-1.754488	0.136619
O10	O	0.506466	-1.254488	0.636619
O11	O	0.143032	-1.528273	0.136612
O12	O	0.643032	-1.028273	0.636612
O13	O	0.132189	-1.957772	0.136614
O14	O	0.632189	-1.457772	0.636614
Zn15	Zn	0.137610	-1.743021	0.179993
Zn16	Zn	0.637610	-1.243021	0.679993
Zn17	Zn	0.137612	-1.743037	-0.179995
Zn18	Zn	0.637612	-1.243037	0.320005
O19	O	0.268755	-1.731557	0.136606
O20	O	0.768755	-1.231557	0.636606
C21	C	0.141991	-1.473313	-0.000002
C22	C	0.641991	-0.973313	0.499998
C23	C	0.138875	-1.309532	-0.000003
C24	C	0.638875	-0.809532	0.499997
C25	C	-0.027130	-1.753453	0.000004
C26	C	0.472870	-1.253453	0.500004
C27	C	-0.127236	-1.750333	-0.000002
C28	C	0.372764	-1.250333	0.499998
C29	C	0.133232	-2.012744	-0.000003
C30	C	0.633232	-1.512744	0.499997
C31	C	0.136348	-2.176526	-0.000013
C32	C	0.636348	-1.676526	0.499987
C33	C	-0.174261	-1.748871	-0.148945
C34	C	0.325739	-1.248871	0.351055
C35	C	-0.174276	-1.748874	0.148937
C36	C	0.325724	-1.248874	0.648937
C37	C	-0.268332	-1.745950	0.148938
C38	C	0.231668	-1.245950	0.648938
C39	C	-0.315356	-1.744489	-0.000006
C40	C	0.184644	-1.244489	0.499994
C41	C	-0.268326	-1.745951	-0.148950
C42	C	0.231674	-1.245951	0.351050
C43	C	-0.315371	-1.744503	0.297879
C44	C	0.184629	-1.244503	0.797879
C45	C	-0.409432	-1.741580	0.297885
C46	C	0.090568	-1.241580	0.797885
C47	C	-0.456458	-1.740108	0.148939
C48	C	0.043542	-1.240108	0.648939
C49	C	-0.409421	-1.741569	-0.000010
C50	C	0.090579	-1.241569	0.499990
C51	C	-0.456446	-1.740107	-0.148954
C52	C	0.043554	-1.240107	0.351046
C53	C	-0.409410	-1.741557	-0.297905
C54	C	0.090590	-1.241557	0.202095
C55	C	-0.315351	-1.744479	-0.297895
C56	C	0.184649	-1.244479	0.202105
C57	C	-0.550517	-1.737187	0.148929
C58	C	-0.050517	-1.237187	0.648929
C59	C	-0.550511	-1.737187	-0.148958
C60	C	-0.050511	-1.237187	0.351042
C61	C	0.302352	-1.732604	-0.000009
C62	C	0.802352	-1.232604	0.499991
C63	C	0.402458	-1.735725	-0.000014
C64	C	0.902458	-1.235725	0.499986
N65	N	0.137608	-1.743020	0.425676
N66	N	0.637608	-1.243020	0.925676
N67	N	0.137607	-1.743049	-0.425678
N68	N	0.637607	-1.243049	0.074322
H69	H	-0.588791	-1.735986	-0.270248
H70	H	-0.088791	-1.235986	0.229752
H71	H	-0.447721	-1.740399	0.419170
H72	H	0.052279	-1.240399	0.919170
H73	H	-0.277047	-1.745665	-0.419163
H74	H	0.222953	-1.245665	0.080837
O75	O	-0.596293	-1.735582	0.293495
O76	O	-0.096293	-1.235582	0.793495
C77	C	-0.693289	-1.604546	0.466435
C78	C	-0.193289	-1.104546	0.966435
C79	C	-0.641508	-1.606194	0.302630
C80	C	-0.141508	-1.106194	0.802630
H81	H	-0.729842	-1.499932	0.473889
H82	H	-0.229842	-0.999932	0.973889
H83	H	-0.744785	-1.706271	0.473883
H84	H	-0.244785	-1.206271	0.973883
H85	H	-0.643512	-1.606176	0.572862
H86	H	-0.143512	-1.106176	1.072862
H87	H	-0.691216	-1.604514	0.196109
H88	H	-0.191216	-1.104514	0.696109
H89	H	-0.589998	-1.504479	0.295325
H90	H	-0.089998	-1.004479	0.795325
O91	O	-0.128462	-1.750095	-0.293524
O92	O	0.371538	-1.250095	0.206476
C93	C	-0.013137	-1.625638	-0.466447
C94	C	0.486863	-1.125638	0.033553
C95	C	-0.064921	-1.624082	-0.302639
C96	C	0.435079	-1.124082	0.197361
H97	H	0.038234	-1.523752	-0.473885
H98	H	0.538234	-1.023752	0.026115
H99	H	0.023564	-1.730100	-0.473918
H100	H	0.523564	-1.230100	0.026082
H101	H	-0.062928	-1.624169	-0.572871
H102	H	0.437072	-1.124169	-0.072871
H103	H	-0.015192	-1.625497	-0.196121
H104	H	0.484808	-1.125497	0.303879
H105	H	-0.101636	-1.519628	-0.295311
H106	H	0.398364	-1.019628	0.204689
H107	H	-0.447711	-1.740376	-0.419175
H108	H	0.052289	-1.240376	0.080825
H109	H	-0.135983	-1.750076	0.270200
H110	H	0.364017	-1.250076	0.770200
O111	O	-0.269549	-1.745866	0.442405
O112	O	0.230451	-1.245866	0.942405
C113	C	-0.124652	-1.750449	0.574415
C114	C	0.375348	-1.250449	1.074415
C115	C	-0.176435	-1.748876	0.410616
C116	C	0.323565	-1.248876	0.910616
H117	H	-0.049362	-1.752915	0.548771
H118	H	0.450638	-1.252915	1.048771
H119	H	-0.135677	-1.646694	0.647900
H120	H	0.364323	-1.146694	1.147900
H121	H	-0.150598	-1.853020	0.647851
H122	H	0.349402	-1.353020	1.147851
H123	H	-0.150521	-1.646374	0.337047
H124	H	0.349479	-1.146374	0.837047
H125	H	-0.165409	-1.852700	0.337256
H126	H	0.334591	-1.352700	0.837256
