data_functionalizedCrystal
_audit_creation_method	'MofGen! by Chris Wilmer'
_symmetry_space_group_name_H-M	'P1'
_symmetry_Int_Tables_number	1
_symmetry_cell_setting	triclinic
loop_
_symmetry_equiv_pos_as_xyz
  x,y,z
_cell_length_a	12.759401
_cell_length_b	12.759400
_cell_length_c	12.759393
_cell_angle_alpha	90.031564
_cell_angle_beta	90.018496
_cell_angle_gamma	90.014845
loop_
_atom_site_label
_atom_site_type_symbol
_atom_site_fract_x
_atom_site_fract_y
_atom_site_fract_z
Zn1	Zn	1.606255	-0.418200	0.593981
Zn2	Zn	1.606150	-0.593919	0.418301
Zn3	Zn	1.430557	-0.418255	0.418321
Zn4	Zn	1.430546	-0.593838	0.593943
O5	O	1.518377	-0.506053	0.506137
O6	O	1.753262	-0.441520	0.570685
O7	O	1.582818	-0.570673	0.271283
O8	O	1.453913	-0.271226	0.441647
O9	O	1.753185	-0.570620	0.441614
O10	O	1.582998	-0.271186	0.570704
O11	O	1.453811	-0.441614	0.271297
O12	O	1.283535	-0.441535	0.441609
O13	O	1.453894	-0.570482	0.740969
O14	O	1.283527	-0.570536	0.570638
O15	O	1.582987	-0.441442	0.740997
O16	O	1.582807	-0.740929	0.441577
O17	O	1.453791	-0.740870	0.570620
C18	C	1.245410	-0.506033	0.506122
C19	C	1.128633	-0.506050	0.506141
C20	C	1.518315	-0.779020	0.506115
C21	C	1.518384	-0.895797	0.506140
C22	C	1.073794	-0.573328	0.573215
C23	C	0.964070	-0.573342	0.573227
C24	C	0.964034	-0.438796	0.439081
C25	C	1.073756	-0.438778	0.439075
C26	C	1.073815	-0.651010	0.650660
C27	C	0.964091	-0.651024	0.650672
C28	C	1.585637	-0.950655	0.439022
C29	C	1.585702	-1.060379	0.439054
C30	C	1.451252	-1.060377	0.573327
C31	C	1.451193	-0.950655	0.573299
C32	C	1.652828	-0.895797	0.371864
C33	C	1.720086	-0.950655	0.304739
C34	C	1.720150	-1.060379	0.304771
C35	C	1.652957	-1.115245	0.371929
C36	C	1.792410	-0.506073	0.506152
C37	C	1.909187	-0.506082	0.506158
C38	C	1.518451	-0.505947	0.780170
C39	C	1.518482	-0.505902	0.896947
C40	C	1.518468	-0.232019	0.506182
C41	C	1.518507	-0.115243	0.506201
C42	C	1.518364	-0.506083	0.233169
C43	C	1.518537	-0.505832	0.116393
C44	C	1.585710	-0.438704	0.951825
C45	C	1.585735	-0.438666	1.061549
C46	C	1.451301	-0.573033	1.061507
C47	C	1.451272	-0.573064	0.951785
C48	C	1.663328	-0.361131	0.951851
C49	C	1.663353	-0.361093	1.061575
H50	H	0.919339	-0.384025	0.384479
O51	O	1.785657	-1.113522	0.239628
C52	C	1.890324	-1.086577	0.262717
H53	H	1.892386	-1.006887	0.303108
H54	H	1.925737	-1.148254	0.316769
C55	C	1.951501	-1.179354	0.110753
C56	C	1.954035	-1.081473	0.160354
H57	H	1.990803	-1.176210	0.047612
H58	H	1.880986	-1.197511	0.095199
H59	H	1.981011	-1.230741	0.155807
H60	H	1.924514	-1.030091	0.115306
H61	H	2.024547	-1.063308	0.175898
H62	H	1.396545	-1.105058	0.628002
H63	H	1.652780	-0.806454	0.371827
H64	H	0.934295	-0.732373	0.628740
H65	H	1.641559	-0.279767	0.922095
H66	H	1.774798	-0.905977	0.250068
H67	H	1.653024	-1.204589	0.371958
H68	H	1.634239	-0.283784	1.095623
O69	O	1.109433	-0.625308	0.747805
C70	C	1.170817	-0.708098	0.787604
H71	H	1.148134	-0.784281	0.746750
H72	H	1.257235	-0.690917	0.772783
C73	C	1.179632	-0.625261	0.956464
C74	C	1.151766	-0.718832	0.906293
H75	H	1.167886	-0.631881	1.029678
H76	H	1.138280	-0.569482	0.929651
H77	H	1.251646	-0.610954	0.944103
H78	H	1.079751	-0.733131	0.918644
H79	H	1.193106	-0.774614	0.933111
O80	O	1.114351	-0.743255	0.615898
C81	C	1.080121	-0.825490	0.681247
H82	H	1.057612	-0.792554	0.761199
H83	H	1.009135	-0.865321	0.644334
C84	C	1.196672	-0.946456	0.596292
C85	C	1.169034	-0.906005	0.694494
H86	H	1.251515	-0.996125	0.604460
H87	H	1.219731	-0.891055	0.552262
H88	H	1.137509	-0.979642	0.565541
H89	H	1.228193	-0.872810	0.725237
H90	H	1.145987	-0.961403	0.738530
H91	H	1.744723	-0.382886	1.091353
H92	H	1.396579	-0.627712	1.106169
H93	H	1.118401	-0.383987	0.384464
H94	H	0.930093	-0.621980	0.728024
O95	O	1.755511	-0.396066	0.911361
C96	C	1.773913	-0.499505	0.945537
H97	H	1.728387	-0.514475	1.020920
H98	H	1.747000	-0.556946	0.882566
C99	C	1.947784	-0.496292	0.873514
C100	C	1.891875	-0.514676	0.966106
H101	H	2.020548	-0.505654	0.886199
H102	H	1.935386	-0.426605	0.850486
H103	H	1.925345	-0.544163	0.821048
H104	H	1.914304	-0.466798	1.018567
H105	H	1.904280	-0.584356	0.989144
H106	H	1.396431	-0.905989	0.627954
H107	H	1.396525	-0.627780	0.907107
