data_functionalizedCrystal
_audit_creation_method	'MofGen! by Chris Wilmer'
_symmetry_space_group_name_H-M	'P1'
_symmetry_Int_Tables_number	1
_symmetry_cell_setting	triclinic
loop_
_symmetry_equiv_pos_as_xyz
  x,y,z
_cell_length_a	13.032831
_cell_length_b	16.625546
_cell_length_c	13.032268
_cell_angle_alpha	97.144614
_cell_angle_beta	90.886977
_cell_angle_gamma	82.826778
loop_
_atom_site_label
_atom_site_type_symbol
_atom_site_fract_x
_atom_site_fract_y
_atom_site_fract_z
Zn1	Zn	1.498429	-0.544521	-0.780776
Zn2	Zn	1.998429	-0.044521	-0.280776
Zn3	Zn	1.520160	-0.664651	-0.608784
Zn4	Zn	2.020160	-0.164651	-0.108784
Zn5	Zn	1.348291	-0.510838	-0.587021
Zn6	Zn	1.848291	-0.010838	-0.087021
Zn7	Zn	1.326409	-0.660292	-0.758909
Zn8	Zn	1.826409	-0.160292	-0.258909
O9	O	1.423322	-0.595075	-0.683873
O10	O	1.923322	-0.095075	-0.183873
O11	O	1.645231	-0.576377	-0.776220
O12	O	2.145231	-0.076377	-0.276220
O13	O	1.515614	-0.631976	-0.461981
O14	O	2.015614	-0.131976	0.038019
O15	O	1.368270	-0.402484	-0.612767
O16	O	1.868270	0.097516	-0.112767
O17	O	1.661197	-0.664636	-0.649858
O18	O	2.161197	-0.164636	-0.149858
O19	O	1.478576	-0.427231	-0.755118
O20	O	1.978576	0.072769	-0.255118
O21	O	1.389342	-0.518970	-0.445992
O22	O	1.889342	-0.018970	0.054008
O23	O	1.201469	-0.514743	-0.591563
O24	O	1.701469	-0.014743	-0.091563
O25	O	1.330976	-0.657206	-0.905725
O26	O	1.830976	-0.157206	-0.405725
O27	O	1.185392	-0.624546	-0.717849
O28	O	1.685392	-0.124546	-0.217849
O29	O	1.457358	-0.572150	-0.921791
O30	O	1.957358	-0.072150	-0.421791
O31	O	1.494396	-0.776895	-0.628654
O32	O	1.994396	-0.276895	-0.128654
O33	O	1.352048	-0.773692	-0.738951
O34	O	1.852048	-0.273692	-0.238951
C35	C	1.156114	-0.565517	-0.649972
C36	C	1.656114	-0.065517	-0.149972
C37	C	1.041798	-0.552893	-0.635494
C38	C	1.541798	-0.052893	-0.135494
C39	C	0.982917	-0.601664	-0.691429
C40	C	1.482917	-0.101664	-0.191429
C41	C	0.864766	-0.588618	-0.676466
C42	C	1.364766	-0.088618	-0.176466
C43	C	1.423230	-0.804552	-0.683817
C44	C	1.923230	-0.304552	-0.183817
C45	C	1.423281	-0.894180	-0.683840
C46	C	1.923281	-0.394180	-0.183840
C47	C	1.423447	-1.222385	-0.683970
C48	C	1.923447	-0.722385	-0.183970
C49	C	1.423397	-1.131068	-0.683936
C50	C	1.923397	-0.631068	-0.183936
C51	C	1.423363	-1.058285	-0.683904
C52	C	1.923363	-0.558285	-0.183904
C53	C	1.423315	-0.966963	-0.683872
C54	C	1.923315	-0.466963	-0.183872
C55	C	1.691574	-0.624750	-0.717906
C56	C	2.191574	-0.124750	-0.217906
C57	C	1.805887	-0.637396	-0.732409
C58	C	2.305887	-0.137396	-0.232409
C59	C	1.389302	-0.617949	-0.952117
C60	C	1.889302	-0.117949	-0.452117
C61	C	1.374805	-0.627696	-1.066427
C62	C	1.874805	-0.127696	-0.566427
C63	C	1.423440	-0.384786	-0.683954
C64	C	1.923440	0.115214	-0.183954
C65	C	1.423490	-0.295173	-0.683989
C66	C	1.923490	0.204827	-0.183989
C67	C	1.430873	-0.589958	-1.125339
C68	C	1.930873	-0.089958	-0.625339
C69	C	1.415890	-0.600031	-1.243485
C70	C	1.915890	-0.100031	-0.743485
C71	C	1.457270	-0.572239	-0.416679
C72	C	1.957270	-0.072239	0.083321
C73	C	1.471966	-0.562287	-0.302395
C74	C	1.971966	-0.062287	0.197605
H75	H	1.004736	-0.501477	-0.576533
H76	H	1.504736	-0.001477	-0.076533
Br77	Br	1.317379	-0.666310	-1.305186
Br78	Br	1.817379	-0.166310	-0.805186
H79	H	1.315704	-0.667457	-1.103456
H80	H	1.815704	-0.167457	-0.603456
H81	H	1.531059	-0.522512	-1.265370
H82	H	2.031059	-0.022512	-0.765370
Br83	Br	1.044678	-0.687361	-0.789710
Br84	Br	1.544678	-0.187361	-0.289710
H85	H	0.827708	-0.537199	-0.617501
H86	H	1.327708	-0.037199	-0.117501
H87	H	0.842942	-0.688808	-0.791385
H88	H	1.342942	-0.188808	-0.291385
H89	H	1.489963	-0.550187	-1.088309
H90	H	1.989963	-0.050187	-0.588309
