data_functionalizedCrystal
_audit_creation_method	'MofGen! by Chris Wilmer'
_symmetry_space_group_name_H-M	'P1'
_symmetry_Int_Tables_number	1
_symmetry_cell_setting	triclinic
loop_
_symmetry_equiv_pos_as_xyz
  x,y,z
_cell_length_a	23.532407
_cell_length_b	14.519709
_cell_length_c	13.596369
_cell_angle_alpha	90.006934
_cell_angle_beta	89.992211
_cell_angle_gamma	96.735589
loop_
_atom_site_label
_atom_site_type_symbol
_atom_site_fract_x
_atom_site_fract_y
_atom_site_fract_z
O1	O	0.755765	-0.111951	-0.081849
O2	O	1.255765	0.388049	0.418151
O3	O	0.589975	-0.128149	-0.081839
O4	O	1.089975	0.371851	0.418161
O5	O	0.677266	0.014241	-0.081835
O6	O	1.177266	0.514241	0.418165
O7	O	0.668474	-0.254340	-0.081852
O8	O	1.168474	0.245660	0.418148
O9	O	0.677257	0.014248	0.081748
O10	O	1.177257	0.514248	0.581748
O11	O	0.589966	-0.128142	0.081744
O12	O	1.089966	0.371858	0.581744
O13	O	0.755756	-0.111943	0.081734
O14	O	1.255756	0.388057	0.581734
Zn15	Zn	0.672860	-0.120041	0.107711
Zn16	Zn	1.172860	0.379959	0.607711
Zn17	Zn	0.672871	-0.120051	-0.107816
Zn18	Zn	1.172871	0.379949	0.392184
O19	O	0.668466	-0.254333	0.081730
O20	O	1.168466	0.245667	0.581730
C21	C	0.676852	0.048599	-0.000044
C22	C	1.176852	0.548599	0.499956
C23	C	0.675624	0.150966	-0.000043
C24	C	1.175624	0.650966	0.499957
C25	C	0.568753	-0.127733	-0.000046
C26	C	1.068753	0.372267	0.499954
C27	C	0.505530	-0.126493	-0.000042
C28	C	1.005530	0.373507	0.499958
C29	C	0.776979	-0.112360	-0.000061
C30	C	1.276979	0.387640	0.499939
C31	C	0.840201	-0.113600	-0.000071
C32	C	1.340201	0.386400	0.499929
C33	C	1.238959	-0.037115	-0.000032
C34	C	1.738959	0.462885	0.499968
C35	C	1.298365	-0.038267	-0.000028
C36	C	1.798365	0.461733	0.499972
O37	O	1.334789	0.032635	0.000012
O38	O	1.834789	0.532635	0.500012
N39	N	1.321373	-0.122918	-0.000036
N40	N	1.821373	0.377082	0.499964
C41	C	1.284972	-0.206422	-0.000039
C42	C	1.784972	0.293578	0.499961
O43	O	1.309997	-0.278529	-0.000045
O44	O	1.809997	0.221471	0.499955
C45	C	1.225568	-0.205269	-0.000036
C46	C	1.725568	0.294731	0.499964
C47	C	1.202563	-0.120613	-0.000038
C48	C	1.702563	0.379387	0.499962
C49	C	1.215954	0.047534	-0.000033
C50	C	1.715954	0.547534	0.499967
C51	C	1.156553	0.048686	-0.000039
C52	C	1.656553	0.548686	0.499961
C53	C	1.120157	-0.034812	-0.000045
C54	C	1.620157	0.465188	0.499955
C55	C	1.143162	-0.119461	-0.000044
C56	C	1.643162	0.380539	0.499956
C57	C	1.189168	-0.288771	-0.000032
C58	C	1.689168	0.211229	0.499968
C59	C	1.129760	-0.287611	-0.000028
C60	C	1.629760	0.212389	0.499972
C61	C	1.106756	-0.202955	-0.000030
C62	C	1.606756	0.297045	0.499970
C63	C	1.047364	-0.201807	-0.000056
C64	C	1.547364	0.298193	0.499944
N65	N	1.024356	-0.117156	-0.000047
N66	N	1.524356	0.382844	0.499953
C67	C	1.060752	-0.033659	-0.000042
C68	C	1.560752	0.466341	0.499958
C69	C	1.409726	-0.208837	-0.000043
C70	C	1.909726	0.291163	0.499957
C71	C	1.469129	-0.209991	-0.000053
C72	C	1.969129	0.290009	0.499947
C73	C	1.482517	-0.041836	-0.000040
C74	C	1.982517	0.458164	0.499960
C75	C	1.423113	-0.040683	-0.000037
C76	C	1.923113	0.459317	0.499963
C77	C	1.386717	-0.124186	-0.000035
C78	C	1.886717	0.375814	0.499965
C79	C	0.936005	-0.031247	-0.000056
C80	C	1.436005	0.468753	0.499944
C81	C	0.876598	-0.030102	-0.000066
C82	C	1.376598	0.469898	0.499934
C83	C	0.863214	-0.198257	-0.000073
C84	C	1.363214	0.301743	0.499927
C85	C	0.922616	-0.199401	-0.000068
C86	C	1.422616	0.300599	0.499932
C87	C	0.959011	-0.115889	-0.000056
C88	C	1.459011	0.384111	0.499944
O89	O	1.010905	-0.272672	-0.000091
O90	O	1.510905	0.227328	0.499909
O91	O	1.035719	0.038437	-0.000023
O92	O	1.535719	0.538437	0.499977
C93	C	0.668880	-0.288692	-0.000063
C94	C	1.168880	0.211308	0.499937
C95	C	0.670107	-0.391058	-0.000070
C96	C	1.170107	0.108942	0.499930
N97	N	0.672856	-0.120034	0.254803
N98	N	1.172856	0.379966	0.754803
C99	C	0.671104	0.525808	-0.000068
C100	C	1.171104	1.025808	0.499932
C101	C	0.672359	0.421515	-0.000061
C102	C	1.172359	0.921515	0.499939
C103	C	0.673364	0.338390	-0.000055
C104	C	1.173364	0.838390	0.499945
C105	C	0.674619	0.234091	-0.000049
C106	C	1.174619	0.734091	0.499951
N107	N	0.672880	-0.120051	-0.254908
N108	N	1.172880	0.379949	0.245092
C109	C	0.672871	-0.120052	0.656094
C110	C	1.172871	0.379948	1.156094
C111	C	0.672865	-0.120050	0.544443
C112	C	1.172865	0.379950	1.044443
C113	C	0.672864	-0.120044	0.455452
C114	C	1.172864	0.379956	0.955452
C115	C	0.672858	-0.120040	0.343794
C116	C	1.172858	0.379960	0.843794
H117	H	0.965631	0.036758	-0.000046
H118	H	1.465631	0.536758	0.499954
O119	O	1.211579	-0.370944	0.000090
O120	O	1.711579	0.129056	0.500090
C121	C	1.270842	-0.469868	0.084841
C122	C	1.770842	0.030132	0.584841
C123	C	1.245509	-0.376763	0.084824
C124	C	1.745509	0.123237	0.584824
H125	H	1.298270	-0.474611	0.153352
H126	H	1.798270	0.025389	0.653352
H127	H	1.298358	-0.474624	0.016424
H128	H	1.798358	0.025376	0.516424
H129	H	1.234612	-0.529331	0.084789
H130	H	1.734612	-0.029331	0.584789
H131	H	1.281702	-0.317246	0.084911
H132	H	1.781702	0.182754	0.584911
H133	H	1.217978	-0.372087	0.153235
H134	H	1.717978	0.127913	0.653235
O135	O	1.517936	0.039217	-0.000159
O136	O	2.017936	0.539217	0.499841
C137	C	1.592768	0.135518	-0.084921
C138	C	2.092768	0.635518	0.415079
C139	C	1.552698	0.043690	-0.084896
C140	C	2.052698	0.543690	0.415104
H141	H	1.620874	0.139173	-0.153434
H142	H	2.120874	0.639173	0.346566
H143	H	1.620947	0.139189	-0.016506
H144	H	2.120947	0.639189	0.483494
H145	H	1.566113	0.196209	-0.084868
H146	H	2.066113	0.696209	0.415132
H147	H	1.579307	-0.017053	-0.084983
H148	H	2.079307	0.482947	0.415017
H149	H	1.524517	0.040100	-0.153305
H150	H	2.024517	0.540100	0.346695
H151	H	0.833570	-0.266238	-0.000083
H152	H	1.333570	0.233762	0.499917
H153	H	1.245583	0.115532	-0.000025
H154	H	1.745583	0.615532	0.499975
H155	H	0.857871	0.038838	-0.000070
H156	H	1.357871	0.538838	0.499930
H157	H	1.487853	-0.278926	-0.000065
H158	H	1.987853	0.221074	0.499935
H159	H	1.137828	0.117621	-0.000036
H160	H	1.637828	0.617621	0.499964
O161	O	1.374349	-0.289933	0.000116
O162	O	1.874349	0.210067	0.500116
C163	C	1.299482	-0.386216	0.084813
C164	C	1.799482	0.113784	0.584813
C165	C	1.339518	-0.294353	0.084767
C166	C	1.839518	0.205647	0.584767
H167	H	1.271303	-0.389811	0.153236
H168	H	1.771303	0.110189	0.653236
H169	H	1.326107	-0.446946	0.084867
H170	H	1.826107	0.053054	0.584867
H171	H	1.271368	-0.389871	0.016321
H172	H	1.771368	0.110129	0.516321
H173	H	1.367639	-0.290608	0.153248
H174	H	1.867639	0.209392	0.653248
H175	H	1.312859	-0.233667	0.084662
H176	H	1.812859	0.266333	0.584662
H177	H	0.941347	-0.268335	-0.000068
H178	H	1.441347	0.231665	0.499932
H179	H	1.100129	-0.355611	-0.000022
H180	H	1.600129	0.144389	0.499978
H181	H	1.404387	0.028252	-0.000038
H182	H	1.904387	0.528252	0.499962
