data_functionalizedCrystal
_audit_creation_method	'MofGen! by Chris Wilmer'
_symmetry_space_group_name_H-M	'P1'
_symmetry_Int_Tables_number	1
_symmetry_cell_setting	triclinic
loop_
_symmetry_equiv_pos_as_xyz
  x,y,z
_cell_length_a	21.606444
_cell_length_b	21.606444
_cell_length_c	21.606444
_cell_angle_alpha	89.998123
_cell_angle_beta	59.990220
_cell_angle_gamma	60.003978
loop_
_atom_site_label
_atom_site_type_symbol
_atom_site_fract_x
_atom_site_fract_y
_atom_site_fract_z
Zr1	Zr	0.677537	0.596225	-0.081357
O2	O	0.806666	0.497404	-0.180201
O3	O	0.548408	0.626519	-0.051041
O4	O	0.677541	0.626520	-0.180184
O5	O	0.677530	0.497402	0.050795
O6	O	0.677545	0.728370	-0.180188
O7	O	0.677532	0.497403	-0.051058
O8	O	0.446550	0.728367	0.050825
O9	O	0.908526	0.497405	-0.180218
O10	O	0.601524	0.715449	-0.038132
O11	O	0.601519	0.639439	0.037882
O12	O	0.753557	0.639441	-0.114167
O13	O	0.753552	0.563431	-0.038152
Zr14	Zr	0.677540	0.758663	0.081081
Zr15	Zr	0.677544	0.758664	-0.081363
Zr16	Zr	0.677533	0.596224	0.081087
Zr17	Zr	0.839993	0.596226	-0.081384
Zr18	Zr	0.515085	0.758662	0.081108
O19	O	0.806670	0.728369	0.050765
O20	O	0.806676	0.728371	-0.180209
O21	O	0.806660	0.497403	0.050774
O22	O	0.548412	0.857484	0.179925
O23	O	0.548418	0.857486	-0.051049
O24	O	0.548402	0.626518	0.179933
O25	O	0.677548	0.857486	-0.051071
O26	O	0.677537	0.728368	0.179908
O27	O	0.677532	0.626518	0.179912
O28	O	0.677545	0.857486	0.050782
O29	O	0.908531	0.626522	-0.180223
O30	O	0.446546	0.728367	0.179947
O31	O	0.446552	0.857484	0.179942
O32	O	0.446555	0.857484	0.050821
O33	O	0.908523	0.497404	-0.051097
O34	O	0.908528	0.626521	-0.051101
O35	O	0.601521	0.715448	0.113891
O36	O	0.601526	0.791457	0.037877
O37	O	0.753559	0.715449	-0.038158
O38	O	0.753553	0.639440	0.037857
C39	C	0.474332	0.677443	-0.000104
C40	C	0.405366	0.677443	-0.000092
C41	C	0.429099	0.621331	-0.056218
C42	C	0.364310	0.621333	-0.056234
C43	C	0.275788	0.677444	-0.000120
C44	C	0.252054	0.733561	0.056009
C45	C	0.316843	0.733562	0.056021
C46	C	-0.009232	0.733561	0.055961
C47	C	-0.074021	0.733555	0.055946
C48	C	0.038235	0.621332	-0.056293
C49	C	0.103024	0.621333	-0.056281
C50	C	0.079285	0.677452	-0.000155
C51	C	0.149537	0.677450	-0.000140
C52	C	0.205536	0.677444	-0.000132
C53	C	0.677530	0.474258	-0.000131
C54	C	0.677527	0.405299	-0.000128
C55	C	0.598168	0.412575	0.039559
C56	C	0.598171	0.347778	0.039559
C57	C	0.677533	0.275705	-0.000132
C58	C	0.756898	0.268430	-0.039819
C59	C	0.756895	0.333227	-0.039815
C60	C	0.756913	0.007112	-0.039836
C61	C	0.756910	-0.057686	-0.039839
C62	C	0.598189	0.021663	0.039538
C63	C	0.598186	0.086459	0.039542
C64	C	0.677550	0.079179	-0.000142
C65	C	0.677547	0.149441	-0.000141
C66	C	0.677537	0.205445	-0.000137
C67	C	0.880746	0.677445	-0.000172
C68	C	0.949712	0.677446	-0.000183
C69	C	0.677544	0.677445	-0.203331
C70	C	0.677545	0.677446	-0.272292
C71	C	0.677548	0.880630	-0.000145
C72	C	0.677551	0.949589	-0.000148
C73	C	0.677549	0.733556	-0.304693
C74	C	0.677543	0.733558	-0.369486
C75	C	0.677539	0.677447	-0.401880
C76	C	0.677533	0.621334	-0.369474
C77	C	0.677533	0.621335	-0.304679
C78	C	0.677532	0.621328	-0.630784
C79	C	0.677535	0.621329	-0.695585
C80	C	0.677543	0.733550	-0.695591
C81	C	0.677543	0.733551	-0.630796
C82	C	0.677531	0.677441	-0.598393
C83	C	0.677536	0.677440	-0.528136
C84	C	0.677541	0.677444	-0.472139
C85	C	0.677534	0.677443	0.203055
C86	C	0.677532	0.677443	0.272017
C87	C	0.474341	0.880629	-0.000111
C88	C	0.405377	0.949588	-0.000102
C89	C	0.474327	0.677442	0.203089
C90	C	0.405359	0.677441	0.272062
C91	C	0.474336	0.880628	0.203081
C92	C	0.405371	0.949586	0.272052
C93	C	0.880742	0.474261	-0.203357
C94	C	0.949707	0.405302	-0.272328
C95	C	0.880737	0.474259	-0.000165
C96	C	0.949700	0.405300	-0.000174
C97	C	0.880750	0.677447	-0.203365
C98	C	0.949719	0.677447	-0.272338
C99	C	0.372991	0.942296	-0.039781
C100	C	0.308201	1.007084	-0.039787
C101	C	0.275795	1.079164	-0.000111
C102	C	0.308188	1.086454	0.039569
C103	C	0.372981	1.021667	0.039571
C104	C	0.372972	0.717116	0.344135
C105	C	0.308178	0.717113	0.408949
C106	C	0.275768	0.677438	0.401688
C107	C	0.308162	0.637757	0.329607
C108	C	0.372959	0.637757	0.264795
C109	C	0.372987	1.021653	0.264763
C110	C	0.308196	1.086453	0.329562
C111	C	0.275786	1.079185	0.401650
C112	C	0.308176	1.007111	0.408938
C113	C	0.372970	0.942312	0.344139
C114	C	0.982099	0.333235	-0.265039
C115	C	1.046910	0.268435	-0.329838
C116	C	1.079324	0.275703	-0.401926
C117	C	1.046929	0.347778	-0.409214
C118	C	0.982123	0.412576	-0.344415
C119	C	0.982094	0.412592	0.039498
C120	C	1.046901	0.347804	0.039487
C121	C	1.079310	0.275725	-0.000192
C122	C	1.046914	0.268434	-0.039869
C123	C	0.982112	0.333222	-0.039861
C124	C	0.982108	0.717130	-0.265052
C125	C	1.046902	0.717146	-0.329854
C126	C	1.079310	0.677474	-0.401940
C127	C	1.046915	0.637790	-0.409224
C128	C	0.982117	0.637779	-0.344423
H129	H	0.057558	0.575640	-0.101996
H130	H	0.281794	1.145150	0.071872
O131	O	0.677536	0.794090	-0.269754
H132	H	0.618193	0.826435	-0.210558
H133	H	0.399321	0.605451	0.206112
H134	H	1.073310	0.209739	-0.072174
H135	H	0.677530	0.575635	-0.721959
O136	O	1.149182	0.205856	-0.000168
H137	H	1.208224	0.205905	-0.024990
H138	H	0.175101	0.575639	-0.101972
O139	O	0.947176	0.490306	-0.352281
H140	H	0.980600	0.484466	-0.413296
H141	H	0.821541	-0.116372	-0.072162
H142	H	0.677548	0.779240	-0.721978
O143	O	0.205887	1.149079	0.471537
H144	H	0.230758	1.183296	0.471482
H145	H	0.955739	0.327274	-0.072165
H146	H	-0.146104	0.779250	0.101643
O147	O	1.149211	0.677477	-0.471831
H148	H	1.166292	0.711730	-0.454647
H149	H	0.955731	0.749436	-0.206362
O150	O	1.081881	0.594992	-0.486976
H151	H	1.132388	0.601663	-0.530805
H152	H	1.073272	0.749460	-0.323908
O153	O	0.947196	0.594965	-0.352285
H154	H	0.980630	0.567376	-0.413299
H155	H	0.281778	1.001204	0.467640
O156	O	0.407946	0.864558	-0.082589
H157	H	0.353553	0.857963	-0.059666
O158	O	0.947159	0.490331	0.082285
H159	H	0.980591	0.484505	0.109854
H160	H	0.501176	0.575631	-0.101905
O161	O	1.081825	0.355675	0.082293
H162	H	1.048385	0.416682	0.109897
H163	H	0.281811	0.749428	0.467634
O164	O	0.677535	0.560802	-0.595850
H165	H	0.618192	0.587778	-0.536655
H166	H	0.383643	0.575641	-0.101937
H167	H	0.281834	1.001133	-0.072099
O168	O	0.205904	1.149040	-0.000108
H169	H	0.188826	1.131852	-0.034361
O170	O	0.407879	0.864582	0.352005
H171	H	0.374442	0.870423	0.413020
O172	O	0.273202	0.594970	0.321773
H173	H	0.243681	0.617905	0.290315
O174	O	0.407947	1.029502	0.187015
H175	H	0.374544	1.090506	0.192845
O176	O	0.273257	1.164185	0.321694
H177	H	0.306670	1.158347	0.260679
H178	H	0.223007	0.677444	0.454469
H179	H	0.399342	1.027614	0.071886
H180	H	-0.028572	0.779257	0.101662
H181	H	1.073275	0.209755	-0.323889
O182	O	0.156579	0.794083	0.116535
H183	H	0.115512	0.784653	0.107103
O184	O	0.512568	0.490309	0.082362
H185	H	0.508769	0.521732	0.126216
H186	H	0.297512	0.779254	0.101724
H187	H	0.821537	0.001175	-0.072163
O188	O	0.947150	0.325387	-0.187290
H189	H	0.980579	0.264383	-0.193120
O190	O	1.081893	0.355606	-0.486970
H191	H	1.111427	0.387061	-0.493583
H192	H	0.677524	0.575649	-0.395851
O193	O	0.407925	0.759908	0.351976
H194	H	0.374517	0.787485	0.412987
O195	O	1.149231	0.205806	-0.471810
H196	H	1.124360	0.171590	-0.471760
O197	O	0.512577	0.355623	0.082352
H198	H	0.457392	0.416625	0.109940
H199	H	0.533567	0.027584	0.071853
O200	O	0.512589	0.164196	0.082350
H201	H	0.457405	0.158370	0.109953
O202	O	0.842500	0.190697	-0.082638
H203	H	0.829172	0.146861	-0.075984
O204	O	0.842488	0.325385	-0.082624
H205	H	0.897675	0.264383	-0.110232
H206	H	0.677546	0.779247	-0.395865
H207	H	0.677550	0.779240	-0.604424
H208	H	0.677528	0.575646	-0.278299
