data_functionalizedCrystal
_audit_creation_method	'MofGen! by Chris Wilmer'
_symmetry_space_group_name_H-M	'P1'
_symmetry_Int_Tables_number	1
_symmetry_cell_setting	triclinic
loop_
_symmetry_equiv_pos_as_xyz
  x,y,z
_cell_length_a	11.026607
_cell_length_b	10.065875
_cell_length_c	11.026607
_cell_angle_alpha	79.268236
_cell_angle_beta	71.413983
_cell_angle_gamma	79.302338
loop_
_atom_site_label
_atom_site_type_symbol
_atom_site_fract_x
_atom_site_fract_y
_atom_site_fract_z
O1	O	1.741286	-0.113490	-0.518966
O2	O	1.374706	-0.113493	-0.458202
O3	O	1.527614	-0.113487	-0.305294
O4	O	1.588379	-0.113496	-0.671873
O5	O	1.498489	0.113501	-0.334601
O6	O	1.345582	0.113495	-0.487509
O7	O	1.712161	0.113497	-0.548273
Zn8	Zn	1.524247	0.149535	-0.522544
Zn9	Zn	1.562620	-0.149531	-0.483931
O10	O	1.559254	0.113491	-0.701180
C11	C	1.312485	0.000001	-0.461645
C12	C	1.170471	0.000000	-0.428228
N13	N	1.498068	0.353640	-0.548898
N14	N	1.588808	-0.353635	-0.457569
C15	C	1.116822	-0.000003	-0.520498
C16	C	0.970043	-0.000004	-0.485962
C17	C	1.774384	0.000001	-0.544829
C18	C	1.916399	-0.000007	-0.578244
C19	C	1.501842	0.000005	-0.272288
C20	C	1.468426	0.000000	-0.130273
C21	C	1.553502	0.421421	-0.493090
C22	C	1.533366	0.578587	-0.513385
C23	C	1.585026	-0.000004	-0.734186
C24	C	1.618444	-0.000008	-0.876199
C25	C	1.560695	-0.000001	-0.076624
C26	C	1.526160	-0.000006	0.070155
H27	H	1.179554	0.000002	-0.625061
H28	H	1.435696	0.411964	-0.611696
C29	C	1.701952	0.000005	-0.161360
H30	H	1.706631	0.000017	-0.248897
H31	H	1.753346	-0.079148	-0.133519
H32	H	1.733021	0.079173	-0.153953
C33	C	0.885313	-0.000008	-0.344697
H34	H	0.797778	-0.000020	-0.340015
H35	H	0.892780	0.079145	-0.313677
H36	H	0.913098	-0.079177	-0.293251
C37	C	1.637755	0.342648	-0.408244
H38	H	1.669915	0.405554	-0.375855
H39	H	1.708029	0.286889	-0.458407
H40	H	1.587283	0.286921	-0.338102
C41	C	1.327169	-0.000002	-0.045538
H42	H	1.322487	0.000004	0.041997
H43	H	1.296090	-0.079155	-0.052948
H44	H	1.275781	0.079166	-0.073380
C45	C	1.384896	-0.000009	0.154887
H46	H	1.380215	-0.000003	0.242422
H47	H	1.353818	-0.079161	0.147477
H48	H	1.333509	0.079160	0.127045
C49	C	1.449111	0.657361	-0.598234
H50	H	1.446637	0.752660	-0.600752
H51	H	1.363995	0.634029	-0.563005
H52	H	1.484743	0.634007	-0.683308
C53	C	1.001129	-0.000019	-0.719508
H54	H	1.088667	-0.000029	-0.724191
H55	H	0.973349	0.079131	-0.770967
H56	H	0.993658	-0.079190	-0.750508
H57	H	1.107742	-0.000032	-0.323661
C58	C	1.673064	0.567600	-0.372717
H59	H	1.705223	0.630509	-0.340329
H60	H	1.743340	0.511840	-0.422879
H61	H	1.622593	0.511874	-0.302575
C62	C	1.759707	0.000006	0.039070
H63	H	1.764389	0.000021	-0.048468
H64	H	1.811105	-0.079145	0.066909
H65	H	1.790769	0.079176	0.046482
