data_functionalizedCrystal
_audit_creation_method	'MofGen! by Chris Wilmer'
_symmetry_space_group_name_H-M	'P1'
_symmetry_Int_Tables_number	1
_symmetry_cell_setting	triclinic
loop_
_symmetry_equiv_pos_as_xyz
  x,y,z
_cell_length_a	16.109302
_cell_length_b	17.038272
_cell_length_c	15.500346
_cell_angle_alpha	87.025623
_cell_angle_beta	86.815375
_cell_angle_gamma	87.286668
loop_
_atom_site_label
_atom_site_type_symbol
_atom_site_fract_x
_atom_site_fract_y
_atom_site_fract_z
O1	O	1.113947	0.103726	-0.071983
O2	O	1.447281	0.437060	0.261350
O3	O	1.780614	0.770393	0.594683
O4	O	0.872773	0.116232	-0.071977
O5	O	1.206106	0.449565	0.261357
O6	O	1.539440	0.782899	0.594690
O7	O	0.991926	-0.003837	-0.071973
O8	O	1.325260	0.329497	0.261360
O9	O	1.658593	0.662830	0.594693
O10	O	0.994794	0.223795	-0.071987
O11	O	1.328127	0.557128	0.261346
O12	O	1.661461	0.890461	0.594680
O13	O	0.984562	-0.010292	0.071914
O14	O	1.317896	0.323041	0.405247
O15	O	1.651229	0.656375	0.738580
O16	O	0.865409	0.109776	0.071910
O17	O	1.198742	0.443110	0.405243
O18	O	1.532076	0.776443	0.738577
O19	O	1.106583	0.097271	0.071903
O20	O	1.439917	0.430604	0.405237
O21	O	1.773250	0.763937	0.738570
Cu22	Cu	0.985324	0.102934	0.085045
Cu23	Cu	1.318657	0.436267	0.418378
Cu24	Cu	1.651990	0.769601	0.751711
Cu25	Cu	0.994033	0.110569	-0.085118
Cu26	Cu	1.327366	0.443902	0.248215
Cu27	Cu	1.660699	0.777235	0.581549
O28	O	0.987430	0.217339	0.071900
O29	O	1.320763	0.550673	0.405233
O30	O	1.654097	0.884006	0.738567
C31	C	0.838080	0.112497	-0.000032
C32	C	1.171414	0.445831	0.333301
C33	C	1.504747	0.779164	0.666634
C34	C	0.745677	0.110978	-0.000030
C35	C	1.079010	0.444312	0.333304
C36	C	1.412344	0.777645	0.666637
C37	C	0.529073	0.103947	0.078395
C38	C	0.862406	0.437281	0.411728
C39	C	1.195740	0.770614	0.745061
C40	C	0.442251	0.102512	0.078392
C41	C	0.775584	0.435845	0.411725
C42	C	1.108918	0.769178	0.745058
C43	C	0.450290	0.109554	-0.078482
C44	C	0.783624	0.442887	0.254852
C45	C	1.116957	0.776221	0.588185
C46	C	0.537111	0.110984	-0.078478
C47	C	0.870444	0.444317	0.254856
C48	C	1.203778	0.777650	0.588189
C49	C	0.576500	0.108184	-0.000037
C50	C	0.909833	0.441518	0.333296
C51	C	1.243166	0.774851	0.666630
C52	C	0.402857	0.105319	-0.000044
C53	C	0.736190	0.438652	0.333289
C54	C	1.069524	0.771985	0.666623
C55	C	0.308721	0.103762	-0.000048
C56	C	0.642054	0.437096	0.333286
C57	C	0.975388	0.770429	0.666619
C58	C	0.670642	0.109739	-0.000033
C59	C	1.003975	0.443073	0.333300
C60	C	1.337308	0.776406	0.666634
C61	C	0.985637	-0.036193	-0.000030
C62	C	1.318970	0.297141	0.333304
C63	C	1.652304	0.630474	0.666637
C64	C	0.977858	-0.122985	-0.000030
C65	C	1.311191	0.210348	0.333303
C66	C	1.644525	0.543681	0.666637
C67	C	1.049279	-0.173100	-0.000031
C68	C	1.382612	0.160233	0.333302
C69	C	1.715945	0.493567	0.666636
C70	C	1.041965	-0.254650	-0.000039
C71	C	1.375298	0.078683	0.333294
C72	C	1.708632	0.412017	0.666628
C73	C	0.963229	-0.286084	-0.000040
C74	C	1.296563	0.047249	0.333294
C75	C	1.629896	0.380582	0.666627
C76	C	0.891804	-0.235963	-0.000041
C77	C	1.225137	0.097370	0.333292
C78	C	1.558470	0.430703	0.666625
C79	C	0.899118	-0.154414	-0.000039
C80	C	1.232452	0.178919	0.333294
C81	C	1.565785	0.512252	0.666627
C82	C	0.937388	-0.531842	-0.000051
C83	C	1.270721	-0.198508	0.333283
C84	C	1.604054	0.134825	0.666616
C85	C	0.930078	-0.613397	-0.000050
C86	C	1.263411	-0.280064	0.333283
C87	C	1.596745	0.053270	0.666617
C88	C	1.080240	-0.632078	-0.000049
C89	C	1.413574	-0.298745	0.333284
C90	C	1.746907	0.034589	0.666617
C91	C	1.087548	-0.550527	-0.000042
C92	C	1.420881	-0.217194	0.333291
C93	C	1.754215	0.116140	0.666624
C94	C	1.016122	-0.500413	-0.000048
C95	C	1.349456	-0.167080	0.333285
C96	C	1.682789	0.166254	0.666618
C97	C	0.955752	-0.369442	-0.000045
C98	C	1.289085	-0.036108	0.333288
C99	C	1.622418	0.297225	0.666622
C100	C	1.023601	-0.417057	-0.000049
C101	C	1.356935	-0.083724	0.333284
C102	C	1.690268	0.249610	0.666618
C103	C	1.141276	0.101005	-0.000043
C104	C	1.474610	0.434339	0.333291
C105	C	1.807943	0.767672	0.666624
C106	C	1.233680	0.102525	-0.000051
C107	C	1.567013	0.435858	0.333282
C108	C	1.900346	0.769192	0.666615
C109	C	0.993719	0.249695	-0.000045
C110	C	1.327053	0.583029	0.333288
C111	C	1.660386	0.916362	0.666621
C112	C	1.001499	0.336488	-0.000051
C113	C	1.334832	0.669822	0.333282
C114	C	1.668165	1.003155	0.666616
N115	N	0.979205	0.097564	0.204728
N116	N	1.312538	0.430897	0.538061
N117	N	1.645871	0.764231	0.871395
N118	N	1.000158	0.115933	-0.204801
N119	N	1.333491	0.449266	0.128532
N120	N	1.666825	0.782599	0.461865
C121	C	0.948697	0.070544	0.749909
C122	C	1.282030	0.403877	1.083242
C123	C	1.615364	0.737211	1.416575
C124	C	0.953322	0.074636	0.659337
C125	C	1.286655	0.407969	0.992670
C126	C	1.619988	0.741302	1.326004
C127	C	1.009404	0.124120	0.614057
C128	C	1.342737	0.457454	0.947390
C129	C	1.676070	0.790787	1.280724
C130	C	1.060870	0.169511	0.659353
C131	C	1.394204	0.502844	0.992686
C132	C	1.727537	0.836177	1.326020
C133	C	1.056249	0.165414	0.749923
C134	C	1.389582	0.498748	1.083256
C135	C	1.722916	0.832081	1.416590
C136	C	1.026050	0.138858	0.340594
C137	C	1.359383	0.472191	0.673928
C138	C	1.692717	0.805525	1.007261
C139	C	1.030665	0.142953	0.250018
C140	C	1.363999	0.476286	0.583351
C141	C	1.697332	0.809619	0.916685
C142	C	0.923117	0.048076	0.250008
C143	C	1.256451	0.381409	0.583342
C144	C	1.589784	0.714743	0.916675
C145	C	0.918498	0.043988	0.340580
C146	C	1.251831	0.377321	0.673913
C147	C	1.585165	0.710654	1.007247
C148	C	0.969967	0.089375	0.385868
C149	C	1.303301	0.422708	0.719202
C150	C	1.636634	0.756041	1.052535
C151	C	1.014130	0.128306	0.521478
C152	C	1.347464	0.461639	0.854811
C153	C	1.680797	0.794972	1.188145
C154	C	0.965244	0.085185	0.478445
C155	C	1.298578	0.418518	0.811779
C156	C	1.631911	0.751851	1.145112
H157	H	0.403640	0.099062	0.142259
H158	H	0.736973	0.432395	0.475592
H159	H	1.070306	0.765728	0.808925
H160	H	0.881215	0.011124	0.213125
H161	H	1.214548	0.344457	0.546458
H162	H	1.547881	0.677790	0.879792
H163	H	0.903025	0.030252	0.786770
H164	H	1.236358	0.363586	1.120103
H165	H	1.569691	0.696919	1.453436
H166	H	1.100124	-0.295451	-0.000038
H167	H	1.433457	0.037883	0.333295
H168	H	1.766790	0.371216	0.666629
H169	H	0.561140	0.101668	0.142266
H170	H	0.894474	0.435001	0.475599
H171	H	1.227807	0.768334	0.808933
H172	H	0.911419	0.037673	0.622466
H173	H	1.244752	0.371006	0.955800
H174	H	1.578085	0.704340	1.289133
H175	H	1.151663	-0.524940	-0.000042
H176	H	1.484996	-0.191607	0.333292
H177	H	1.818329	0.141727	0.666625
H178	H	1.087708	-0.391459	-0.000068
H179	H	1.421042	-0.058126	0.333266
H180	H	1.754375	0.275208	0.666599
H181	H	0.872831	0.003691	0.377441
H182	H	1.206165	0.337024	0.710774
H183	H	1.539498	0.670357	1.044108
H184	H	0.891644	-0.395045	-0.000044
H185	H	1.224978	-0.061711	0.333289
H186	H	1.558311	0.271622	0.666623
H187	H	1.076333	0.183255	0.213153
H188	H	1.409666	0.516588	0.546486
H189	H	1.743000	0.849921	0.879820
H190	H	1.106537	0.209799	0.622478
H191	H	1.439871	0.543132	0.955812
H192	H	1.773204	0.876465	1.289145
H193	H	0.840960	-0.113611	-0.000039
H194	H	1.174293	0.219722	0.333295
H195	H	1.507626	0.553055	0.666628
H196	H	1.067960	0.175816	0.377457
H197	H	1.401293	0.509149	0.710790
H198	H	1.734627	0.842483	1.044124
H199	H	1.098155	0.202374	0.786797
H200	H	1.431488	0.535708	1.120130
H201	H	1.764821	0.869041	1.453463
H202	H	0.919585	0.044892	0.515316
H203	H	1.252919	0.378225	0.848650
H204	H	1.586252	0.711559	1.181983
H205	H	0.418209	0.111834	-0.142345
H206	H	0.751543	0.445167	0.190988
H207	H	1.084876	0.778501	0.524321
H208	H	1.059792	0.168597	0.484601
H209	H	1.393125	0.501931	0.817934
H210	H	1.726458	0.835264	1.151267
H211	H	1.138391	-0.672889	-0.000046
H212	H	1.471724	-0.339556	0.333287
H213	H	1.805058	-0.006223	0.666621
H214	H	0.575728	0.114432	-0.142350
H215	H	0.909061	0.447766	0.190983
H216	H	1.242394	0.781099	0.524316
H217	H	1.113393	-0.147513	-0.000025
H218	H	1.446727	0.185820	0.333308
H219	H	1.780060	0.519153	0.666642
H220	H	0.865958	-0.638988	-0.000037
H221	H	1.199291	-0.305654	0.333297
H222	H	1.532625	0.027679	0.666630
H223	H	0.879227	-0.491048	-0.000056
H224	H	1.212561	-0.157715	0.333278
H225	H	1.545894	0.175619	0.666611
H226	H	0.827695	-0.261563	-0.000047
H227	H	1.161029	0.071770	0.333286
H228	H	1.494362	0.405104	0.666619
