data_functionalizedCrystal
_audit_creation_method	'MofGen! by Chris Wilmer'
_symmetry_space_group_name_H-M	'P1'
_symmetry_Int_Tables_number	1
_symmetry_cell_setting	triclinic
loop_
_symmetry_equiv_pos_as_xyz
  x,y,z
_cell_length_a	17.699077
_cell_length_b	10.723022
_cell_length_c	16.176319
_cell_angle_alpha	89.994397
_cell_angle_beta	89.993140
_cell_angle_gamma	83.873901
loop_
_atom_site_label
_atom_site_type_symbol
_atom_site_fract_x
_atom_site_fract_y
_atom_site_fract_z
O1	O	1.005076	0.157762	-0.068733
O2	O	0.784827	0.178299	-0.068737
O3	O	0.900032	-0.013633	-0.068732
O4	O	0.889870	0.349694	-0.068739
O5	O	0.900016	-0.013645	0.068761
O6	O	0.784811	0.178287	0.068756
O7	O	1.005060	0.157750	0.068760
Cu8	Cu	0.894934	0.168017	0.081312
Cu9	Cu	0.894953	0.168032	-0.081290
O10	O	0.889854	0.349682	0.068755
C11	C	0.756617	0.177559	0.000009
C12	C	0.672585	0.175355	0.000007
C13	C	0.633102	0.174310	0.074956
C14	C	0.554146	0.172219	0.074957
C15	C	0.514674	0.171182	0.000008
C16	C	0.554163	0.172224	-0.074946
C17	C	0.633117	0.174306	-0.074946
C18	C	0.235746	0.163827	-0.074947
C19	C	0.156786	0.161749	-0.074942
C20	C	0.156775	0.161740	0.074955
C21	C	0.235730	0.163822	0.074955
C22	C	0.275212	0.164856	0.000002
C23	C	0.360825	0.167121	0.000002
C24	C	0.429062	0.168927	0.000008
C25	C	0.899285	-0.060126	0.000013
C26	C	0.897073	-0.198642	0.000010
C27	C	0.830638	-0.246062	0.000008
C28	C	0.828351	-0.389225	0.000005
C29	C	1.033270	0.158490	0.000012
C30	C	1.117302	0.160694	0.000008
C31	C	0.890602	0.396175	0.000007
C32	C	0.892813	0.534692	0.000005
N33	N	0.894926	0.168006	0.195677
N34	N	0.894967	0.168033	-0.195655
C35	C	0.945955	0.083053	0.238944
C36	C	0.945959	0.083052	0.325491
C37	C	0.894937	0.168011	0.368770
C38	C	0.843903	0.252968	0.325497
C39	C	0.843896	0.252962	0.238952
C40	C	0.843929	0.252991	0.674526
C41	C	0.843941	0.252993	0.761077
C42	C	0.945992	0.083081	0.761065
C43	C	0.945985	0.083076	0.674519
C44	C	0.894948	0.168028	0.631254
C45	C	0.894944	0.168026	0.537410
C46	C	0.894944	0.168019	0.462612
H47	H	0.124620	0.160892	0.135986
Br48	Br	0.774693	0.368303	0.819813
H49	H	0.987534	0.013899	0.639284
H50	H	0.987510	0.013876	0.360718
Br51	Br	1.015256	-0.032216	0.819785
Br52	Br	0.103216	0.160343	-0.176664
Br53	Br	0.774668	0.368282	0.615814
H54	H	0.802356	0.322139	0.360740
Br55	Br	0.774634	0.368253	0.180233
Br56	Br	0.500564	0.170821	0.176677
Br57	Br	0.500598	0.170762	-0.176663
Br58	Br	0.289295	0.165240	0.176674
Br59	Br	0.686703	0.175713	-0.176666
Br60	Br	0.686663	0.175729	0.176677
H61	H	0.775454	-0.180671	0.000012
H62	H	0.267883	0.164665	-0.135979
H63	H	0.771469	-0.430060	-0.000002
H64	H	0.949698	-0.424482	-0.000024
H65	H	0.952257	-0.264033	0.000014
H66	H	0.987506	0.013876	0.203712
