data_functionalizedCrystal
_audit_creation_method	'MofGen! by Chris Wilmer'
_symmetry_space_group_name_H-M	'P1'
_symmetry_Int_Tables_number	1
_symmetry_cell_setting	triclinic
loop_
_symmetry_equiv_pos_as_xyz
  x,y,z
_cell_length_a	19.902436
_cell_length_b	20.875641
_cell_length_c	20.875641
_cell_angle_alpha	60.089808
_cell_angle_beta	90.002930
_cell_angle_gamma	62.436880
loop_
_atom_site_label
_atom_site_type_symbol
_atom_site_fract_x
_atom_site_fract_y
_atom_site_fract_z
Zr1	Zr	0.678075	0.694275	-0.105717
O2	O	0.579604	0.820525	-0.208989
O3	O	0.704577	0.563017	-0.070784
O4	O	0.714473	0.687039	-0.204255
O5	O	0.566093	0.703957	0.026041
O6	O	0.825051	0.687027	-0.204246
O7	O	0.569708	0.696503	-0.075518
O8	O	0.807349	0.465174	0.034510
O9	O	0.583795	0.925810	-0.212715
O10	O	0.802854	0.618851	-0.059835
O11	O	0.717634	0.624422	0.015950
O12	O	0.729284	0.770442	-0.141195
O13	O	0.644064	0.776014	-0.065409
Zr14	Zr	0.848669	0.706144	0.056271
Zr15	Zr	0.854434	0.694256	-0.105703
Zr16	Zr	0.672310	0.706163	0.056257
Zr17	Zr	0.684759	0.862192	-0.111659
Zr18	Zr	0.841985	0.538227	0.062213
O19	O	0.822166	0.837402	0.021338
O20	O	0.830364	0.820499	-0.208969
O21	O	0.571406	0.837429	0.021318
O22	O	0.947140	0.579893	0.159543
O23	O	0.955337	0.562990	-0.070764
O24	O	0.696380	0.579920	0.159523
O25	O	0.960650	0.696461	-0.075487
O26	O	0.812271	0.713380	0.154809
O27	O	0.701693	0.713391	0.154800
O28	O	0.957035	0.703915	0.026072
O29	O	0.723977	0.925795	-0.212704
O30	O	0.802767	0.474623	0.163258
O31	O	0.942949	0.474608	0.163269
O32	O	0.947531	0.465159	0.034521
O33	O	0.579212	0.935259	-0.083967
O34	O	0.719394	0.935244	-0.083956
O35	O	0.797459	0.629976	0.091749
O36	O	0.882680	0.624405	0.015963
O37	O	0.809110	0.775996	-0.065396
O38	O	0.723889	0.781568	0.010389
C39	C	0.755011	0.490171	-0.017290
C40	C	0.752173	0.418886	-0.014768
C41	C	0.795322	0.382487	-0.053142
C42	C	0.792658	0.315503	-0.050765
C43	C	0.746839	0.284923	-0.010017
C44	C	0.703689	0.321324	0.028362
C45	C	0.706358	0.388303	0.025989
C46	C	0.734089	0.084913	0.001328
C47	C	0.731421	0.017931	0.003696
C48	C	0.820392	0.012114	-0.075430
C49	C	0.823053	0.079098	-0.077803
C50	C	0.779906	0.115490	-0.039421
N51	N	0.744112	0.216456	-0.007588
N52	N	0.782638	0.183951	-0.041846
C53	C	0.542773	0.700233	-0.024740
C54	C	0.467904	0.700241	-0.024746
C55	C	0.195900	0.700198	-0.024715
C56	C	0.177972	0.795842	-0.075809
C57	C	0.255822	0.795885	-0.076076
C58	C	0.330844	0.700220	-0.024731
C59	C	0.327714	0.648428	-0.057854
C60	C	0.249524	0.649036	-0.058229
C61	C	0.246241	0.655639	0.059549
C62	C	0.323241	0.657493	0.059356
C63	C	0.407111	0.700227	-0.024739
C64	C	0.119634	0.700188	-0.024710
C65	C	0.983970	0.700186	-0.024706
C66	C	1.058839	0.700178	-0.024700
C67	C	0.770583	0.685339	-0.227329
C68	C	0.773030	0.680292	-0.296091
C69	C	0.771733	0.910248	-0.032156
C70	C	0.774570	0.981533	-0.034678
C71	C	0.735779	0.757049	-0.370865
C72	C	0.738089	0.752302	-0.435472
C73	C	0.777646	0.670797	-0.425303
C74	C	0.814903	0.594035	-0.350522
C75	C	0.812597	0.598783	-0.285917
C76	C	0.788664	0.648112	-0.613968
C77	C	0.790965	0.643370	-0.678581
C78	C	0.714152	0.801637	-0.763527
C79	C	0.711846	0.806377	-0.698916
C80	C	0.749106	0.729616	-0.624141
N81	N	0.780006	0.665943	-0.491341
N82	N	0.746750	0.734471	-0.558105
C83	C	0.756160	0.715079	0.177883
C84	C	0.753713	0.720126	0.246645
C85	C	0.975609	0.490147	-0.017273
C86	C	1.047641	0.418854	-0.014745
C87	C	0.747800	0.505041	0.185315
C88	C	0.742514	0.438802	0.256600
C89	C	0.968398	0.505017	0.185333
C90	C	1.037982	0.438771	0.256623
C91	C	0.558346	0.895401	-0.234778
C92	C	0.488762	0.961648	-0.306069
C93	C	0.551134	0.910271	-0.032173
C94	C	0.479103	0.981564	-0.034701
C95	C	0.778944	0.895378	-0.234761
C96	C	0.784229	0.961616	-0.306046
C97	C	1.039800	0.382474	-0.053130
C98	C	1.107475	0.315495	-0.050770
C99	C	1.182990	0.284892	-0.010019
C100	C	1.190830	0.321279	0.028367
C101	C	1.123156	0.388261	0.026002
C102	C	0.781700	0.410596	0.329649
C103	C	0.776731	0.348368	0.396635
C104	C	0.732581	0.314343	0.390570
C105	C	0.693390	0.342555	0.317513
C106	C	0.698355	0.404787	0.250529
C107	C	1.115151	0.404753	0.250543
C108	C	1.180540	0.342516	0.317522
C109	C	1.168758	0.314294	0.390581
C110	C	1.091581	0.348319	0.396659
C111	C	1.026194	0.410559	0.329681
C112	C	0.411593	0.995674	-0.299989
C113	C	0.346205	1.057931	-0.366969
C114	C	0.357987	1.086157	-0.440028
C115	C	0.435164	1.052128	-0.446106
C116	C	0.500550	0.989876	-0.379128
C117	C	0.486944	1.017950	0.003677
C118	C	0.419270	1.084947	0.001299
C119	C	0.343755	1.115552	-0.039455
C120	C	0.335915	1.079163	-0.077838
C121	C	0.403589	1.012172	-0.075463
C122	C	0.828386	0.995622	-0.299956
C123	C	0.833368	1.057851	-0.366930
C124	C	0.794187	1.086079	-0.439992
C125	C	0.750028	1.052067	-0.446081
C126	C	0.745052	0.989834	-0.379108
H127	H	0.832629	0.407385	-0.086327
H128	H	0.869325	1.085538	-0.361957
Cl129	Cl	0.944874	0.420935	-0.104370
H130	H	1.238089	0.230350	-0.008099
H131	H	0.718129	1.075059	-0.505577
H132	H	0.304738	1.136846	-0.494560
Cl133	Cl	1.097601	0.269762	-0.099028
H134	H	0.139527	0.836461	-0.053920
Cl135	Cl	0.689526	0.947099	-0.386778
Cl136	Cl	0.581870	0.979494	0.054911
Cl137	Cl	0.826008	0.312910	0.488468
H138	H	0.288658	1.170101	-0.041382
Cl139	Cl	0.190524	0.707910	0.102787
Cl140	Cl	0.679850	0.130651	0.049584
H141	H	1.252324	0.296352	0.061545
Cl142	Cl	0.652113	0.434059	0.074235
H143	H	1.129551	0.417873	0.057265
Cl144	Cl	1.277553	0.299750	0.309862
H145	H	0.728545	0.263670	0.445119
H146	H	0.274422	1.104092	-0.111018
H147	H	1.124760	0.427721	0.191061
H148	H	1.222007	0.263614	0.445112
Cl149	Cl	0.800448	1.164319	-0.524180
Cl150	Cl	0.255102	0.858172	-0.042082
Cl151	Cl	1.076782	0.312829	0.488511
H152	H	0.683818	0.864132	-0.824414
Cl153	Cl	0.122058	0.848772	-0.171290
H154	H	0.963361	0.438249	0.334643
Cl155	Cl	0.393716	0.966431	-0.123710
Cl156	Cl	0.396760	0.960204	-0.208152
Cl157	Cl	0.874633	-0.033643	-0.123675
Cl158	Cl	0.249191	1.100695	-0.359309
Cl159	Cl	0.637892	0.299770	0.309902
Cl160	Cl	0.449962	1.087617	-0.537958
Cl161	Cl	0.691254	0.848800	-0.529472
H162	H	0.666447	0.427744	0.191052
H163	H	0.563383	0.962172	-0.384087
H164	H	0.264822	0.578680	-0.023236
H165	H	0.842931	0.536280	-0.225032
Cl166	Cl	0.846887	0.269765	-0.099027
Cl167	Cl	0.837211	0.453355	0.337294
Cl168	Cl	0.429144	1.130676	0.049560
H169	H	0.257760	0.830281	-0.138287
H170	H	0.679637	0.872747	-0.707205
H171	H	0.860293	0.972649	-0.240471
H172	H	0.216534	0.679568	-0.120156
Cl173	Cl	0.840699	0.540899	-0.665793
H174	H	0.332765	0.678209	-0.119176
H175	H	0.860362	0.103995	-0.110983
H176	H	0.666387	0.296416	0.061544
Cl177	Cl	0.673814	-0.020510	0.054923
H178	H	0.323365	0.695302	0.084133
Cl179	Cl	0.409133	0.539581	-0.002935
H180	H	0.376452	0.587959	0.100356
H181	H	0.261983	0.585224	0.097756
H182	H	0.703561	0.823418	-0.379153
Cl183	Cl	0.835470	0.551610	-0.519973
Cl184	Cl	0.864634	0.491572	-0.337738
