data_functionalizedCrystal
_audit_creation_method	'MofGen! by Chris Wilmer'
_symmetry_space_group_name_H-M	'P1'
_symmetry_Int_Tables_number	1
_symmetry_cell_setting	triclinic
loop_
_symmetry_equiv_pos_as_xyz
  x,y,z
_cell_length_a	11.169417
_cell_length_b	11.169416
_cell_length_c	11.169409
_cell_angle_alpha	90.030816
_cell_angle_beta	90.022388
_cell_angle_gamma	90.008562
loop_
_atom_site_label
_atom_site_type_symbol
_atom_site_fract_x
_atom_site_fract_y
_atom_site_fract_z
Zn1	Zn	-1.834971	0.477768	-0.678613
Zn2	Zn	-1.834858	0.678508	-0.477935
Zn3	Zn	-1.634254	0.477831	-0.477941
Zn4	Zn	-1.634264	0.678401	-0.678574
O5	O	-1.734587	0.578127	-0.578266
O6	O	-2.002906	0.504414	-0.652007
O7	O	-1.808196	0.651959	-0.309986
O8	O	-1.660923	0.309873	-0.504580
O9	O	-2.002823	0.651897	-0.504570
O10	O	-1.808389	0.309826	-0.652013
O11	O	-1.660813	0.504523	-0.309991
O12	O	-1.466306	0.504419	-0.504542
O13	O	-1.660940	0.651715	-0.846529
O14	O	-1.466313	0.651777	-0.651945
O15	O	-1.808399	0.504311	-0.846558
O16	O	-1.808206	0.846443	-0.504531
O17	O	-1.660830	0.846365	-0.651940
C18	C	-1.422762	0.578094	-0.578241
C19	C	-1.289362	0.578109	-0.578258
C20	C	-1.734539	0.889952	-0.578257
C21	C	-1.734629	1.023352	-0.578293
C22	C	-1.734683	0.577994	-0.891309
C23	C	-1.734724	0.577937	-1.024709
C24	C	-1.047629	0.578149	-0.578284
C25	C	-1.181029	0.578129	-0.578271
C26	C	-1.734667	0.265085	-0.578301
C27	C	-1.734702	0.131685	-0.578316
C28	C	-1.734560	0.578173	-0.266441
C29	C	-1.734752	0.577891	-0.133042
