data_functionalizedCrystal
_audit_creation_method	'MofGen! by Chris Wilmer'
_symmetry_space_group_name_H-M	'P1'
_symmetry_Int_Tables_number	1
_symmetry_cell_setting	triclinic
loop_
_symmetry_equiv_pos_as_xyz
  x,y,z
_cell_length_a	12.837943
_cell_length_b	12.837942
_cell_length_c	16.776229
_cell_angle_alpha	89.994225
_cell_angle_beta	89.994226
_cell_angle_gamma	94.828940
loop_
_atom_site_label
_atom_site_type_symbol
_atom_site_fract_x
_atom_site_fract_y
_atom_site_fract_z
O1	O	1.402340	0.272143	-0.066273
O2	O	1.099206	0.258700	-0.066278
O3	O	1.244051	0.113855	-0.066271
O4	O	1.257495	0.416988	-0.066280
O5	O	1.244029	0.113843	0.066306
O6	O	1.099184	0.258688	0.066299
O7	O	1.402317	0.272131	0.066303
Zn8	Zn	1.250747	0.265408	0.087350
Zn9	Zn	1.250777	0.265423	-0.087325
O10	O	1.257472	0.416976	0.066296
C11	C	1.060126	0.254153	0.000010
C12	C	0.943711	0.240608	0.000008
C13	C	0.718837	0.403437	0.000014
C14	C	0.609454	0.390716	0.000013
C15	C	0.615562	0.202445	0.000011
C16	C	0.724944	0.215166	0.000012
C17	C	0.776578	0.315666	0.000012
C18	C	0.885962	0.328386	0.000008
C19	C	0.892067	0.140116	0.000011
C20	C	0.782685	0.127395	0.000010
C21	C	1.239499	0.074780	0.000017
C22	C	1.225954	-0.041635	0.000015
C23	C	1.388784	-0.266510	0.000001
C24	C	1.376062	-0.375892	-0.000000
C25	C	1.187791	-0.369785	0.000005
C26	C	1.200513	-0.260402	0.000007
C27	C	1.301012	-0.208769	0.000006
C28	C	1.313732	-0.099384	0.000013
C29	C	1.125462	-0.093279	0.000013
C30	C	1.112741	-0.202661	0.000011
C31	C	1.441398	0.276679	0.000014
C32	C	1.557813	0.290223	0.000010
C33	C	1.262025	0.456051	0.000007
C34	C	1.275569	0.572467	0.000003
N35	N	1.250735	0.265397	0.206561
N36	N	1.250797	0.265427	-0.206536
C37	C	1.314897	0.201291	0.248282
C38	C	1.314902	0.201291	0.331734
C39	C	1.250751	0.265403	0.373464
C40	C	1.186582	0.329511	0.331738
C41	C	1.186571	0.329505	0.248288
C42	C	1.186622	0.329536	0.668285
C43	C	1.186639	0.329539	0.751742
C44	C	1.314953	0.201321	0.751732
C45	C	1.314942	0.201315	0.668281
C46	C	1.250769	0.265419	0.626562
C47	C	1.250763	0.265417	0.536074
C48	C	1.250763	0.265411	0.463951
H49	H	0.573502	0.120623	0.000076
O50	O	1.497171	-0.210807	-0.000001
H51	H	1.556070	-0.269336	-0.000008
H52	H	0.928000	0.410218	0.000009
H53	H	1.447536	-0.422901	-0.000007
H54	H	0.939092	0.068646	0.000004
O55	O	0.726994	0.019002	0.000009
H56	H	0.641232	0.024899	0.000006
O57	O	0.774539	0.511825	0.000016
H58	H	0.716010	0.570723	0.000021
H59	H	1.395564	-0.057346	0.000016
H60	H	0.562446	0.462189	0.000017
H61	H	1.134372	0.381734	0.634325
O62	O	1.079401	-0.425482	0.000012
H63	H	1.085307	-0.511243	0.000015
H64	H	1.030917	-0.244717	0.000009
O65	O	1.030783	-0.031004	0.000015
H66	H	1.056509	0.053732	0.000012
H67	H	1.367141	0.149088	0.214310
O68	O	1.384126	0.132169	0.376735
H69	H	1.428749	0.087604	0.333698
H70	H	1.367184	0.149113	0.634307
H71	H	1.367203	0.149120	0.785708
H72	H	1.134396	0.381748	0.785718
H73	H	1.134343	0.381709	0.365720
O74	O	1.117374	0.398653	0.203283
H75	H	1.072775	0.443244	0.246319
