data_functionalizedCrystal
_audit_creation_method	'MofGen! by Chris Wilmer'
_symmetry_space_group_name_H-M	'P1'
_symmetry_Int_Tables_number	1
_symmetry_cell_setting	triclinic
loop_
_symmetry_equiv_pos_as_xyz
  x,y,z
_cell_length_a	11.792254
_cell_length_b	19.288857
_cell_length_c	10.868271
_cell_angle_alpha	89.996434
_cell_angle_beta	90.005560
_cell_angle_gamma	96.334147
loop_
_atom_site_label
_atom_site_type_symbol
_atom_site_fract_x
_atom_site_fract_y
_atom_site_fract_z
O1	O	-1.505452	0.095239	-0.102363
O2	O	-1.174963	0.105041	-0.102359
O3	O	-1.349762	-0.000937	-0.102346
O4	O	-1.330653	0.201216	-0.102376
O5	O	-1.349746	-0.000933	0.102298
O6	O	-1.174948	0.105044	0.102286
O7	O	-1.505436	0.095242	0.102281
Zn8	Zn	-1.340189	0.100144	0.134775
Zn9	Zn	-1.340210	0.100139	-0.134853
O10	O	-1.330638	0.201219	0.102269
C11	C	-1.132674	0.104425	-0.000036
C12	C	-1.006689	0.102577	-0.000033
C13	C	-0.904376	0.101075	-0.000036
C14	C	-0.776017	0.099197	-0.000033
C15	C	-1.349140	-0.026815	-0.000023
C16	C	-1.347299	-0.103929	-0.000019
C17	C	-1.346448	-0.140147	-0.111571
C18	C	-1.344702	-0.212603	-0.111580
C19	C	-1.343829	-0.248840	-0.000031
C20	C	-1.344674	-0.212614	0.111535
C21	C	-1.346409	-0.140158	0.111541
C22	C	-1.407550	-0.368706	0.085421
C23	C	-1.405823	-0.441161	0.085411
C24	C	-1.338474	-0.472317	-0.000045
C25	C	-1.272867	-0.431010	-0.085511
C26	C	-1.274602	-0.358554	-0.085505
C27	C	-1.341948	-0.327406	-0.000025
C28	C	-1.335728	-0.587099	-0.111615
C29	C	-1.333975	-0.659556	-0.111619
C30	C	-1.333958	-0.659566	0.111500
C31	C	-1.335700	-0.587110	0.111501
C32	C	-1.336590	-0.550881	-0.000059
C33	C	-0.547725	0.095858	-0.000038
C34	C	-0.673710	0.097706	-0.000031
C35	C	-1.331259	0.227098	-0.000057
C36	C	-1.333100	0.304212	-0.000069
N37	N	-1.340183	0.100146	0.318789
N38	N	-1.340225	0.100131	-0.318867
C39	C	-1.340192	0.100146	0.430127
C40	C	-1.340207	0.100140	0.569805
H41	H	-1.347170	-0.110653	-0.202413
F42	F	-1.333023	-0.698128	0.230220
H43	H	-1.333276	-0.689042	-0.202462
F44	F	-1.204778	-0.314595	-0.176458
H45	H	-1.218026	-0.456374	-0.155097
F46	F	-1.336605	-0.548563	0.230232
F47	F	-1.336668	-0.548538	-0.230345
F48	F	-1.479260	-0.335558	0.176360
H49	H	-1.459247	-0.474788	0.154998
H50	H	-1.343960	-0.242123	0.202360
F51	F	-1.347312	-0.101612	0.230276
H52	H	-1.344002	-0.242096	-0.202422
