data_functionalizedCrystal
_audit_creation_method	'MofGen! by Chris Wilmer'
_symmetry_space_group_name_H-M	'P1'
_symmetry_Int_Tables_number	1
_symmetry_cell_setting	triclinic
loop_
_symmetry_equiv_pos_as_xyz
  x,y,z
_cell_length_a	14.908571
_cell_length_b	16.959454
_cell_length_c	16.959447
_cell_angle_alpha	90.023171
_cell_angle_beta	93.311179
_cell_angle_gamma	86.716421
loop_
_atom_site_label
_atom_site_type_symbol
_atom_site_fract_x
_atom_site_fract_y
_atom_site_fract_z
Zn1	Zn	1.379211	-0.384534	0.516559
Zn2	Zn	1.379114	-0.516713	0.384384
Zn3	Zn	1.228349	-0.376918	0.376781
Zn4	Zn	1.228317	-0.509034	0.508910
O5	O	1.303748	-0.446800	0.446659
O6	O	1.505443	-0.408469	0.505410
O7	O	1.359087	-0.498196	0.272763
O8	O	1.248415	-0.267321	0.395342
O9	O	1.505372	-0.505581	0.408301
O10	O	1.359252	-0.272916	0.498037
O11	O	1.248321	-0.395489	0.267177
O12	O	1.102100	-0.388043	0.387924
O13	O	1.248361	-0.492492	0.620537
O14	O	1.102076	-0.485107	0.484999
O15	O	1.359221	-0.401022	0.626157
O16	O	1.359056	-0.626303	0.400884
O17	O	1.248267	-0.620660	0.492372
C18	C	1.069354	-0.434916	0.434807
C19	C	0.969079	-0.429850	0.429755
C20	C	0.780676	-0.521563	0.521211
C21	C	0.686459	-0.516806	0.516467
C22	C	0.686427	-0.415577	0.415529
C23	C	0.780644	-0.420334	0.420273
C24	C	0.827765	-0.473329	0.473115
C25	C	0.921984	-0.478089	0.477854
C26	C	0.921949	-0.376857	0.376920
C27	C	0.827732	-0.372100	0.372176
C28	C	1.303672	-0.652162	0.446641
C29	C	1.303722	-0.740021	0.446664
C30	C	1.246143	-1.108595	0.494295
C31	C	1.361603	-1.114415	0.399115
C32	C	1.361572	-1.031867	0.399106
C33	C	1.303824	-0.987680	0.446692
C34	C	1.246108	-1.026039	0.494286
C35	C	1.419281	-0.993501	0.351506
C36	C	1.419251	-0.910949	0.351495
C37	C	1.361507	-0.866760	0.399085
C38	C	1.303789	-0.905124	0.446682
C39	C	1.246041	-0.860936	0.494268
C40	C	1.188327	-0.899300	0.541870
C41	C	1.188364	-0.981850	0.541877
C42	C	1.361470	-0.784209	0.399079
C43	C	1.246006	-0.778381	0.494259
C44	C	1.539057	-0.458731	0.458557
C45	C	1.639331	-0.463816	0.463627
C46	C	1.303798	-0.446750	0.652829
C47	C	1.303820	-0.446729	0.740687
C48	C	1.303848	-0.240637	0.446694
C49	C	1.303891	-0.152782	0.446710
C50	C	1.303749	-0.446795	0.241292
C51	C	1.303902	-0.446603	0.153444
C52	C	1.246111	-0.494343	0.779037
C53	C	1.361544	-0.399089	0.784892
C54	C	1.361562	-0.399064	0.867438
C55	C	1.303854	-0.446678	0.905788
C56	C	1.246126	-0.494318	0.861591
C57	C	1.419283	-0.351419	0.911641
C58	C	1.419303	-0.351391	0.994193
C59	C	1.361598	-0.399011	1.032545
C60	C	1.303869	-0.446653	0.988343
C61	C	1.246160	-0.494268	1.026693
C62	C	1.188434	-0.541915	0.982492
C63	C	1.188421	-0.541937	0.899943
C64	C	1.361611	-0.398988	1.115094
C65	C	1.246175	-0.494242	1.109247
H66	H	0.648044	-0.372426	0.372513
C67	C	1.425119	-1.163015	0.346771
H68	H	1.459482	-1.128344	0.318420
H69	H	1.464417	-1.197172	0.379023
H70	H	1.390637	-1.193505	0.310561
C71	C	0.775894	-0.313814	0.314051
H72	H	0.713037	-0.317893	0.318109
H73	H	0.791351	-0.261499	0.326477
H74	H	0.791305	-0.326107	0.261698
H75	H	1.466289	-1.029484	0.312759
C76	C	1.182615	-0.546748	0.730422
H77	H	1.190865	-0.539944	0.675765
H78	H	1.195796	-0.600520	0.744616
H79	H	1.122004	-0.532098	0.740884
H80	H	1.141423	-0.580728	0.863948
C81	C	1.482747	-0.299037	0.869460
H82	H	1.517118	-0.270649	0.907604
H83	H	1.522040	-0.331266	0.839241
H84	H	1.448228	-0.262862	0.835517
H85	H	1.141443	-0.580678	1.013727
H86	H	1.466245	-0.879718	0.312736
C87	C	1.182486	-0.729777	0.546605
H88	H	1.190732	-0.675118	0.539787
H89	H	1.121884	-0.740283	0.531936
H90	H	1.195669	-0.743937	0.600393
H91	H	0.648123	-0.556081	0.555634
H92	H	1.408456	-0.752977	0.360318
C93	C	0.973749	-0.323795	0.324014
H94	H	1.036610	-0.334214	0.334408
H95	H	0.958275	-0.334514	0.270107
H96	H	0.958326	-0.269920	0.334899
C97	C	1.182693	-0.546619	1.151426
H98	H	1.148311	-0.574992	1.113277
H99	H	1.217192	-0.582794	1.185375
H100	H	1.143396	-0.514376	1.181637
H101	H	1.466308	-0.312596	1.030175
H102	H	1.408524	-0.360319	0.753662
C103	C	1.425102	-0.346585	1.163711
H104	H	1.459470	-0.318233	1.129048
H105	H	1.390613	-0.310391	1.194174
H106	H	1.464410	-0.378807	1.197895
H107	H	1.141375	-1.013093	0.580630
C108	C	0.973821	-0.536383	0.535972
H109	H	1.036678	-0.532316	0.531904
H110	H	0.958413	-0.524106	0.588324
H111	H	0.958359	-0.588698	0.523530
C112	C	0.832517	-0.579856	0.579327
H113	H	0.895373	-0.575784	0.575259
H114	H	0.817108	-0.567583	0.631680
H115	H	0.817060	-0.632172	0.566883
C116	C	1.124809	-0.850688	0.594211
H117	H	1.133060	-0.796031	0.587387
H118	H	1.064206	-0.861191	0.579543
H119	H	1.137991	-0.864843	0.648001
C120	C	1.182660	-1.150789	0.546651
H121	H	1.190945	-1.206282	0.539841
H122	H	1.195818	-1.137889	0.600432
H123	H	1.122044	-1.134235	0.531965
