data_functionalizedCrystal
_audit_creation_method	'MofGen! by Chris Wilmer'
_symmetry_space_group_name_H-M	'P1'
_symmetry_Int_Tables_number	1
_symmetry_cell_setting	triclinic
loop_
_symmetry_equiv_pos_as_xyz
  x,y,z
_cell_length_a	18.050591
_cell_length_b	18.050589
_cell_length_c	18.215399
_cell_angle_alpha	89.973988
_cell_angle_beta	89.978472
_cell_angle_gamma	90.024669
loop_
_atom_site_label
_atom_site_type_symbol
_atom_site_fract_x
_atom_site_fract_y
_atom_site_fract_z
Zn1	Zn	1.135306	-0.295720	-0.416230
Zn2	Zn	1.468639	0.037614	-0.082897
Zn3	Zn	1.801972	0.370947	0.250436
Zn4	Zn	1.135212	-0.419920	-0.293173
Zn5	Zn	1.468546	-0.086587	0.040160
Zn6	Zn	1.801879	0.246747	0.373493
Zn7	Zn	1.011121	-0.295741	-0.293168
Zn8	Zn	1.344454	0.037593	0.040166
Zn9	Zn	1.677788	0.370926	0.373499
Zn10	Zn	1.011073	-0.419865	-0.416188
Zn11	Zn	1.344406	-0.086531	-0.082855
Zn12	Zn	1.677739	0.246802	0.250478
O13	O	1.073178	-0.357811	-0.354690
O14	O	1.406511	-0.024478	-0.021357
O15	O	1.739845	0.308855	0.311977
O16	O	1.239218	-0.312210	-0.399927
O17	O	1.572551	0.021124	-0.066593
O18	O	1.905884	0.354457	0.266740
O19	O	1.118733	-0.403479	-0.190188
O20	O	1.452066	-0.070146	0.143145
O21	O	1.785399	0.263188	0.476478
O22	O	1.027653	-0.191813	-0.309507
O23	O	1.360987	0.141520	0.023826
O24	O	1.694320	0.474853	0.357159
O25	O	1.239149	-0.403459	-0.309517
O26	O	1.572483	-0.070126	0.023816
O27	O	1.905816	0.263208	0.357149
O28	O	1.118891	-0.191798	-0.399921
O29	O	1.452225	0.141535	-0.066588
O30	O	1.785558	0.474869	0.266746
O31	O	1.027563	-0.312245	-0.190184
O32	O	1.360896	0.021088	0.143149
O33	O	1.694230	0.354422	0.476483
O34	O	0.907190	-0.312192	-0.309467
O35	O	1.240523	0.021142	0.023867
O36	O	1.573857	0.354475	0.357200
O37	O	1.027571	-0.403365	-0.519178
O38	O	1.360905	-0.070031	-0.185845
O39	O	1.694238	0.263302	0.147488
O40	O	0.907155	-0.403385	-0.399849
O41	O	1.240488	-0.070052	-0.066516
O42	O	1.573821	0.263282	0.266817
O43	O	1.118845	-0.312156	-0.519209
O44	O	1.452178	0.021177	-0.185876
O45	O	1.785511	0.354511	0.147458
O46	O	1.118686	-0.523837	-0.309476
O47	O	1.452019	-0.190504	0.023857
O48	O	1.785352	0.142829	0.357190
O49	O	1.027481	-0.523797	-0.399855
O50	O	1.360814	-0.190463	-0.066522
O51	O	1.694148	0.142870	0.266812
C52	C	0.880226	-0.357785	-0.354653
C53	C	1.213559	-0.024452	-0.021320
C54	C	1.546892	0.308882	0.312014
C55	C	0.797680	-0.357792	-0.354655
C56	C	1.131013	-0.024458	-0.021322
C57	C	1.464347	0.308875	0.312012
C58	C	0.548852	-0.308149	-0.305621
C59	C	0.882185	0.025184	0.027712
C60	C	1.215519	0.358517	0.361046
C61	C	0.598286	-0.290059	-0.372783
C62	C	0.931619	0.043274	-0.039449
C63	C	1.264953	0.376608	0.293884
C64	C	0.500560	-0.357830	-0.354715
C65	C	0.833893	-0.024496	-0.021382
C66	C	1.167226	0.308837	0.311952
C67	C	0.598207	-0.375866	-0.287528
C68	C	0.931541	-0.042533	0.045806
C69	C	1.264874	0.290800	0.379139
C70	C	0.646545	-0.357809	-0.354682
C71	C	0.979878	-0.024476	-0.021349
C72	C	1.313211	0.308857	0.311985
C73	C	0.548906	-0.339705	-0.421912
C74	C	0.882240	-0.006371	-0.088579
C75	C	1.215573	0.326962	0.244754
C76	C	0.548823	-0.425543	-0.336612
C77	C	0.882156	-0.092210	-0.003279
C78	C	1.215490	0.241124	0.330054
C79	C	0.598235	-0.407479	-0.403820
C80	C	0.931568	-0.074145	-0.070487
C81	C	1.264902	0.259188	0.262847
C82	C	0.416461	-0.357840	-0.354733
C83	C	0.749795	-0.024506	-0.021400
C84	C	1.083128	0.308827	0.311933
C85	C	0.730641	-0.357799	-0.354671
C86	C	1.063975	-0.024466	-0.021338
C87	C	1.397308	0.308867	0.311995
C88	C	1.073088	-0.550763	-0.354678
C89	C	1.406422	-0.217430	-0.021344
C90	C	1.739755	0.115903	0.311989
C91	C	1.073118	-0.633309	-0.354697
C92	C	1.406451	-0.299976	-0.021364
C93	C	1.739784	0.033357	0.311970
C94	C	1.023569	-0.832765	-0.403828
C95	C	1.356903	-0.499431	-0.070494
C96	C	1.690236	-0.166098	0.262839
C97	C	1.005469	-0.882207	-0.336672
C98	C	1.338803	-0.548873	-0.003339
C99	C	1.672136	-0.215540	0.329995
C100	C	1.073191	-0.784440	-0.354707
C101	C	1.406524	-0.451106	-0.021373
C102	C	1.739857	-0.117773	0.311960
C103	C	1.091327	-0.882079	-0.421870
C104	C	1.424661	-0.548746	-0.088537
C105	C	1.757994	-0.215412	0.244797
C106	C	1.073260	-0.930425	-0.354722
C107	C	1.406593	-0.597091	-0.021389
C108	C	1.739927	-0.263758	0.311945
C109	C	1.055055	-0.832794	-0.287515
C110	C	1.388389	-0.499461	0.045818
C111	C	1.721722	-0.166128	0.379151
C112	C	1.140944	-0.832662	-0.372759
C113	C	1.474278	-0.499329	-0.039425
C114	C	1.807611	-0.165996	0.293908
C115	C	1.122870	-0.882082	-0.305557
C116	C	1.456204	-0.548749	0.027776
C117	C	1.789537	-0.215415	0.361110
C118	C	1.073149	-0.700341	-0.354699
C119	C	1.406482	-0.367008	-0.021366
C120	C	1.739816	-0.033675	0.311968
C121	C	1.073302	-1.014521	-0.354722
C122	C	1.406635	-0.681188	-0.021389
C123	C	1.739968	-0.347854	0.311945
C124	C	1.266883	-0.357838	-0.354727
C125	C	1.600217	-0.024505	-0.021394
C126	C	1.933550	0.308829	0.311939
C127	C	1.349429	-0.357850	-0.354743
C128	C	1.682763	-0.024516	-0.021410
C129	C	2.016096	0.308817	0.311923
C130	C	1.073213	-0.357752	-0.546643
C131	C	1.406546	-0.024419	-0.213310
C132	C	1.739880	0.308915	0.120024
C133	C	1.073228	-0.357727	-0.628442
C134	C	1.406561	-0.024393	-0.295109
C135	C	1.739895	0.308940	0.038225
C136	C	1.073288	-0.164106	-0.354718
C137	C	1.406621	0.169228	-0.021385
C138	C	1.739955	0.502561	0.311948
C139	C	1.073335	-0.081560	-0.354730
C140	C	1.406668	0.251773	-0.021397
C141	C	1.740002	0.585107	0.311936
C142	C	1.025796	-0.310189	-0.816635
C143	C	1.359129	0.023144	-0.483301
C144	C	1.692463	0.356478	-0.149968
C145	C	1.025809	-0.310174	-0.893493
C146	C	1.359142	0.023159	-0.560160
C147	C	1.692476	0.356493	-0.226827
C148	C	1.120749	-0.405176	-0.893487
C149	C	1.454082	-0.071842	-0.560154
C150	C	1.787415	0.261491	-0.226820
C151	C	1.120731	-0.405194	-0.816630
C152	C	1.454065	-0.071861	-0.483296
C153	C	1.787398	0.261473	-0.149963
C154	C	1.073256	-0.357696	-0.778205
C155	C	1.406590	-0.024363	-0.444872
C156	C	1.739923	0.308970	-0.111539
C157	C	1.073286	-0.357663	-0.931922
C158	C	1.406620	-0.024330	-0.598588
C159	C	1.739953	0.309003	-0.265255
C160	C	1.073301	-0.357647	-1.015255
C161	C	1.406634	-0.024314	-0.681922
C162	C	1.739967	0.309019	-0.348589
C163	C	1.073241	-0.357713	-0.694866
C164	C	1.406574	-0.024380	-0.361533
C165	C	1.739907	0.308954	-0.028200
C166	C	1.073186	-0.357817	-0.163484
C167	C	1.406519	-0.024483	0.169850
C168	C	1.739852	0.308850	0.503183
C169	C	1.073315	-0.357633	-0.081685
C170	C	1.406648	-0.024300	0.251648
C171	C	1.739981	0.309034	0.584981
H172	H	0.619780	-0.449483	-0.445371
H173	H	0.953113	-0.116150	-0.112038
H174	H	1.286447	0.217183	0.221296
Cl175	Cl	1.114968	-0.915507	-0.509553
Cl176	Cl	1.448301	-0.582174	-0.176219
Cl177	Cl	1.781635	-0.248840	0.157114
Cl178	Cl	0.966110	-0.250481	-0.768332
Cl179	Cl	1.299444	0.082852	-0.434999
Cl180	Cl	1.632777	0.416186	-0.101666
H181	H	0.619999	-0.232784	-0.388094
H182	H	0.953332	0.100549	-0.054760
H183	H	1.286666	0.433883	0.278573
Cl184	Cl	0.917053	-0.915805	-0.313100
Cl185	Cl	1.250386	-0.582471	0.020234
Cl186	Cl	1.583720	-0.249138	0.353567
Cl187	Cl	1.031313	-0.799513	-0.199806
Cl188	Cl	1.364646	-0.466180	0.133528
Cl189	Cl	1.697980	-0.132846	0.466861
Cl190	Cl	0.515615	-0.316033	-0.509642
Cl191	Cl	0.848948	0.017300	-0.176308
Cl192	Cl	1.182281	0.350634	0.157025
Cl193	Cl	0.631646	-0.399434	-0.199826
Cl194	Cl	0.964979	-0.066101	0.133508
Cl195	Cl	1.298313	0.267233	0.466841
H196	H	0.987162	-0.271490	-0.924779
H197	H	1.320495	0.061844	-0.591446
H198	H	1.653828	0.395177	-0.258112
Cl199	Cl	1.180430	-0.464881	-0.941797
Cl200	Cl	1.513763	-0.131548	-0.608464
Cl201	Cl	1.847097	0.201785	-0.275130
H202	H	0.527081	-0.482799	-0.321290
H203	H	0.860414	-0.149466	0.012043
H204	H	1.193748	0.183867	0.345376
H205	H	0.981544	-0.811109	-0.445309
H206	H	1.314878	-0.477776	-0.111976
H207	H	1.648211	-0.144443	0.221358
H208	H	1.164863	-0.903600	-0.263975
H209	H	1.498196	-0.570267	0.069358
H210	H	1.831530	-0.236933	0.402691
H211	H	1.159381	-0.443883	-0.785340
H212	H	1.492714	-0.110550	-0.452007
H213	H	1.826048	0.222784	-0.118673
H214	H	0.527171	-0.266113	-0.264169
H215	H	0.860504	0.067220	0.069164
H216	H	1.193838	0.400553	0.402498
Cl217	Cl	1.229337	-0.799037	-0.396361
Cl218	Cl	1.562671	-0.465703	-0.063027
Cl219	Cl	1.896004	-0.132370	0.270306
