data_functionalizedCrystal
_audit_creation_method	'MofGen! by Chris Wilmer'
_symmetry_space_group_name_H-M	'P1'
_symmetry_Int_Tables_number	1
_symmetry_cell_setting	triclinic
loop_
_symmetry_equiv_pos_as_xyz
  x,y,z
_cell_length_a	23.196402
_cell_length_b	14.560438
_cell_length_c	23.196401
_cell_angle_alpha	90.014674
_cell_angle_beta	60.008822
_cell_angle_gamma	60.002032
loop_
_atom_site_label
_atom_site_type_symbol
_atom_site_fract_x
_atom_site_fract_y
_atom_site_fract_z
Zr1	Zr	0.631008	0.884751	-0.075618
O2	O	0.751274	0.738075	-0.167666
O3	O	0.510743	0.929712	-0.047404
O4	O	0.631010	0.929671	-0.167670
O5	O	0.631005	0.738152	0.047470
O6	O	0.631012	1.080809	-0.167668
O7	O	0.631006	0.738116	-0.047401
O8	O	0.415876	1.080882	0.047464
O9	O	0.846141	0.738080	-0.167662
O10	O	0.560211	1.061684	-0.035366
O11	O	0.560209	0.948918	0.035434
O12	O	0.701808	0.948870	-0.106162
O13	O	0.701806	0.836105	-0.035362
Zr14	Zr	0.631009	1.125857	0.075693
Zr15	Zr	0.631011	1.125799	-0.075616
Zr16	Zr	0.631006	0.884809	0.075690
Zr17	Zr	0.782311	0.884758	-0.075612
Zr18	Zr	0.479706	1.125850	0.075686
O19	O	0.751274	1.080897	0.047479
O20	O	0.751277	1.080815	-0.167663
O21	O	0.751270	0.738157	0.047475
O22	O	0.510744	1.272533	0.167741
O23	O	0.510747	1.272451	-0.047401
O24	O	0.510740	0.929794	0.167737
O25	O	0.631012	1.272456	-0.047396
O26	O	0.631007	1.080937	0.167744
O27	O	0.631005	0.929799	0.167743
O28	O	0.631011	1.272492	0.047476
O29	O	0.846143	0.929681	-0.167660
O30	O	0.415874	1.080928	0.167735
O31	O	0.415876	1.272529	0.167737
O32	O	0.415878	1.272483	0.047466
O33	O	0.846139	0.738125	-0.047392
O34	O	0.846141	0.929726	-0.047390
O35	O	0.560209	1.061738	0.106237
O36	O	0.560211	1.174504	0.035437
O37	O	0.701808	1.061690	-0.035360
O38	O	0.701806	0.948924	0.035440
C39	C	0.441752	1.005296	0.000029
C40	C	0.377520	1.005293	0.000026
C41	C	0.347351	1.064148	-0.036933
C42	C	0.286990	1.064159	-0.036928
C43	C	0.256812	1.005293	0.000028
C44	C	0.286985	0.946435	0.036996
C45	C	0.347340	0.946436	0.036995
C46	C	0.194782	0.906671	-0.005247
C47	C	0.134433	0.906668	-0.005251
C48	C	0.070657	1.005294	0.000035
C49	C	0.067247	1.103923	0.005312
C50	C	0.127601	1.103923	0.005311
C51	C	0.191368	1.005287	0.000034
C52	C	-0.024963	1.064166	-0.036920
C53	C	-0.085329	1.064180	-0.036909
C54	C	-0.085326	0.946446	0.037010
C55	C	-0.024968	0.946443	0.037004
C56	C	0.005213	1.005300	0.000035
C57	C	0.631005	0.703790	0.000034
C58	C	0.631004	0.601459	0.000033
C59	C	0.557094	0.612268	0.036988
C60	C	0.557097	0.516113	0.036994
C61	C	0.704929	0.398343	-0.036915
C62	C	0.704924	0.494497	-0.036916
C63	C	0.483173	0.719229	0.073938
C64	C	0.409257	0.730043	0.110895
C65	C	0.409261	0.633888	0.110901
C66	C	0.483181	0.526920	0.073950
C67	C	0.820265	1.005313	0.000045
C68	C	0.884497	1.005315	0.000048
C69	C	0.631011	1.005232	-0.189227
C70	C	0.631012	1.005208	-0.253462
C71	C	0.631012	1.306819	0.000040
C72	C	0.631013	1.409150	0.000041
C73	C	0.704922	0.946326	-0.320590
C74	C	0.704923	0.946354	-0.380945
C75	C	0.631010	1.005249	-0.374168
C76	C	0.557091	1.064144	-0.307028
C77	C	0.557092	1.064123	-0.246675
C78	C	0.574382	0.996884	-0.441488
C79	C	0.574384	0.996896	-0.501841
C80	C	0.631004	1.005321	-0.560316
C81	C	0.687636	1.013709	-0.558436
C82	C	0.687637	1.013688	-0.498083
C83	C	0.631001	1.005279	-0.439607
C84	C	0.704920	0.946467	-0.692890
C85	C	0.704918	0.946503	-0.753245
C86	C	0.557084	1.064286	-0.679326
C87	C	0.557088	1.064257	-0.618973
C88	C	0.631008	1.005341	-0.625760
C89	C	0.631006	1.005376	0.189302
C90	C	0.631005	1.005401	0.253536
C91	C	0.441756	1.306810	0.000032
C92	C	0.377525	1.409139	0.000030
C93	C	0.441749	1.005368	0.189294
C94	C	0.377517	1.005390	0.253525
C95	C	0.441753	1.306882	0.189297
C96	C	0.377521	1.409235	0.253529
C97	C	0.820265	0.703726	-0.189222
C98	C	0.884496	0.601373	-0.253455
C99	C	0.820262	0.703798	0.000042
C100	C	0.884492	0.601470	0.000044
C101	C	0.820268	1.005240	-0.189219
C102	C	0.884501	1.005219	-0.253451
C103	C	0.347361	1.398302	-0.036935
C104	C	0.287018	1.494442	-0.036951
C105	C	0.256835	1.601416	0.000003
C106	C	0.287005	1.612250	0.036970
C107	C	0.347351	1.516112	0.036981
C108	C	0.347352	1.064291	0.320654
C109	C	0.287007	1.064307	0.381012
C110	C	0.256823	1.005428	0.374241
C111	C	0.286994	0.946520	0.307105
C112	C	0.347342	0.946498	0.246748
C113	C	0.347358	1.516174	0.246737
C114	C	0.287014	1.612355	0.307085
C115	C	0.256830	1.601594	0.374224
C116	C	0.286998	1.494644	0.381016
C117	C	0.347345	1.398466	0.320668
C118	C	0.914666	0.494434	-0.246662
C119	C	0.975029	0.398254	-0.307010
C120	C	1.005217	0.409014	-0.374150
C121	C	0.975044	0.515964	-0.380941
C122	C	0.914687	0.612142	-0.320594
C123	C	0.914662	0.612306	0.037003
C124	C	0.975022	0.516167	0.037002
C125	C	1.005207	0.409192	0.000046
C126	C	0.975035	0.398358	-0.036918
C127	C	0.914680	0.494497	-0.036921
C128	C	0.914665	1.064109	-0.246657
C129	C	0.975011	1.064111	-0.307003
C130	C	1.005195	1.005215	-0.374144
C131	C	0.975024	0.946323	-0.380937
C132	C	0.914676	0.946328	-0.320591
H133	H	0.124819	1.184231	0.009609
H134	H	0.999620	0.311247	-0.067006
C135	C	0.881490	0.482557	-0.077572
N136	N	0.856494	0.473557	-0.108191
C137	C	0.786237	0.881531	-0.328060
N138	N	0.847485	0.832731	-0.333686
H139	H	0.349073	0.817141	0.140984
H140	H	0.371921	1.112076	-0.067033
H141	H	0.371926	1.524957	0.192074
H142	H	0.262422	1.112087	-0.067025
H143	H	0.528276	0.990015	-0.393880
H144	H	0.890099	1.112069	-0.191993
H145	H	0.371902	1.524951	0.067087
C146	C	0.749921	1.022981	-0.622755
N147	N	0.796832	1.029964	-0.671202
H148	H	0.207691	1.679918	0.423357
C149	C	0.253780	1.482826	0.454876
N150	N	0.228753	1.473929	0.510510
C151	C	1.008252	0.527782	-0.454802
N152	N	1.033261	0.536680	-0.510435
C153	C	0.253832	1.729989	0.299598
N154	N	0.228839	1.818588	0.293958
C155	C	0.380548	1.129060	0.328120
N156	N	0.405551	1.177840	0.333749
C157	C	1.008206	0.280620	-0.299524
N158	N	1.033194	0.192020	-0.293883
H159	H	-0.000401	0.898512	0.067098
H160	H	0.890123	0.699214	-0.326133
C161	C	0.253823	1.129126	0.454855
N162	N	0.228829	1.177951	0.510471
C163	C	0.264933	0.798167	-0.011062
N164	N	0.317768	0.716445	-0.015440
C165	C	0.380521	0.881696	0.077661
N166	N	0.405513	0.832936	0.108292
H167	H	1.054364	0.330691	-0.423283
H168	H	0.262421	1.699361	0.067057
H169	H	0.890090	0.699401	0.067102
C170	C	0.475780	1.129019	-0.545128
N171	N	0.414535	1.177802	-0.489505
C172	C	1.008194	0.528110	0.077673
N173	N	1.033175	0.537108	0.108308
C174	C	1.071582	1.005218	-0.440520
N175	N	1.121586	1.005222	-0.490512
C176	C	1.008206	0.881587	-0.454798
N177	N	1.033193	0.832842	-0.510432
H178	H	0.015314	1.184238	0.009625
H179	H	0.765112	0.311244	-0.067000
C180	C	0.786233	0.881671	-0.700354
N181	N	0.847479	0.832869	-0.705978
H182	H	-0.000391	1.112096	-0.067020
H183	H	0.262461	1.485598	-0.067053
H184	H	-0.109896	1.112114	-0.067003
H185	H	0.999569	1.112066	-0.301459
H186	H	0.496911	1.112099	-0.301514
C187	C	0.483162	0.825007	0.073935
N188	N	0.483155	0.904678	0.073931
H189	H	-0.109897	0.898516	0.067100
H190	H	0.137218	0.826357	-0.009551
H191	H	0.262410	0.898507	0.067086
H192	H	1.054352	0.330920	0.000054
H193	H	0.349074	0.642698	0.140999
H194	H	0.483178	0.448628	0.073963
H195	H	0.765109	0.485692	-0.066995
H196	H	0.890122	0.898368	-0.326133
C197	C	0.380555	1.280639	-0.077595
N198	N	0.405558	1.192018	-0.108226
H199	H	0.765111	0.898403	-0.435611
H200	H	0.733747	1.020521	-0.496555
H201	H	0.765107	0.898559	-0.807906
H202	H	0.496902	1.112241	-0.673807
H203	H	0.528275	0.990060	-0.503367
H204	H	0.890091	0.485651	-0.191999
H205	H	0.496904	1.112073	-0.192014
H206	H	0.207684	1.005455	0.423393
H207	H	0.207697	1.679689	-0.000011
H208	H	0.262409	0.898582	0.301602
H209	H	0.371894	0.898537	0.192091
H210	H	0.371896	1.311395	0.326209
