data_functionalizedCrystal
_audit_creation_method	'MofGen! by Chris Wilmer'
_symmetry_space_group_name_H-M	'P1'
_symmetry_Int_Tables_number	1
_symmetry_cell_setting	triclinic
loop_
_symmetry_equiv_pos_as_xyz
  x,y,z
_cell_length_a	21.395362
_cell_length_b	17.640280
_cell_length_c	21.395355
_cell_angle_alpha	78.784922
_cell_angle_beta	89.956060
_cell_angle_gamma	78.812025
loop_
_atom_site_label
_atom_site_type_symbol
_atom_site_fract_x
_atom_site_fract_y
_atom_site_fract_z
Zn1	Zn	1.008318	-0.314390	-0.304290
Zn2	Zn	1.341651	0.018944	0.029043
Zn3	Zn	1.674985	0.352277	0.362377
Zn4	Zn	1.029429	-0.446530	-0.178373
Zn5	Zn	1.362762	-0.113197	0.154960
Zn6	Zn	1.696095	0.220136	0.488294
Zn7	Zn	0.903539	-0.314427	-0.199486
Zn8	Zn	1.236872	0.018907	0.133848
Zn9	Zn	1.570205	0.352240	0.467181
Zn10	Zn	0.924713	-0.446546	-0.283075
Zn11	Zn	1.258046	-0.113213	0.050258
Zn12	Zn	1.591379	0.220120	0.383591
O13	O	0.966500	-0.380473	-0.241306
O14	O	1.299833	-0.047140	0.092027
O15	O	1.633166	0.286193	0.425361
O16	O	1.098793	-0.331896	-0.287630
O17	O	1.432126	0.001437	0.045703
O18	O	1.765459	0.334770	0.379037
O19	O	1.012702	-0.429015	-0.093494
O20	O	1.346036	-0.095682	0.239839
O21	O	1.679369	0.237652	0.573172
O22	O	0.899742	-0.203828	-0.231102
O23	O	1.233075	0.129506	0.102231
O24	O	1.566408	0.462839	0.435564
O25	O	1.114303	-0.428979	-0.195119
O26	O	1.447636	-0.095646	0.138214
O27	O	1.780969	0.237687	0.471548
O28	O	0.976723	-0.203801	-0.308102
O29	O	1.310056	0.129533	0.025232
O30	O	1.643389	0.462866	0.358565
O31	O	0.920212	-0.331959	-0.109006
O32	O	1.253545	0.001374	0.224328
O33	O	1.586879	0.334708	0.557661
O34	O	0.818673	-0.331975	-0.210531
O35	O	1.152007	0.001359	0.122802
O36	O	1.485340	0.334692	0.456136
O37	O	0.935830	-0.429007	-0.373569
O38	O	1.269163	-0.095674	-0.040235
O39	O	1.602496	0.237660	0.293098
O40	O	0.834230	-0.429043	-0.271944
O41	O	1.167563	-0.095709	0.061389
O42	O	1.500896	0.237624	0.394723
O43	O	0.997254	-0.331912	-0.389155
O44	O	1.330587	0.001421	-0.055822
O45	O	1.663921	0.334755	0.277511
O46	O	1.033234	-0.557126	-0.174548
O47	O	1.366567	-0.223793	0.158785
O48	O	1.699901	0.109540	0.492119
O49	O	0.956300	-0.557138	-0.251472
O50	O	1.289633	-0.223805	0.081861
O51	O	1.622966	0.109528	0.415195
C52	C	0.803719	-0.380515	-0.241227
C53	C	1.137052	-0.047182	0.092107
C54	C	1.470385	0.286152	0.425440
C55	C	0.734083	-0.380552	-0.241204
C56	C	1.067417	-0.047219	0.092129
C57	C	1.400750	0.286115	0.425462
C58	C	0.999372	-0.585808	-0.208431
C59	C	1.332706	-0.252475	0.124903
C60	C	1.666039	0.080859	0.458236
C61	C	1.013493	-0.673651	-0.194387
C62	C	1.346826	-0.340318	0.138946
C63	C	1.680159	-0.006984	0.472279
C64	C	0.709497	-0.431162	-0.273111
C65	C	1.042831	-0.097829	0.060222
C66	C	1.376164	0.235504	0.393555
C67	C	0.644059	-0.431143	-0.273143
C68	C	0.977392	-0.097809	0.060191
C69	C	1.310726	0.235524	0.393524
C70	C	0.603210	-0.380521	-0.241254
C71	C	0.936543	-0.047188	0.092079
C72	C	1.269877	0.286145	0.425413
C73	C	0.627802	-0.329901	-0.209346
C74	C	0.961135	0.003432	0.123988
C75	C	1.294469	0.336765	0.457321
C76	C	0.693239	-0.329917	-0.209321
C77	C	1.026572	0.003417	0.124012
C78	C	1.359905	0.336750	0.457346
C79	C	0.498463	-0.374155	-0.185867
C80	C	0.831797	-0.040821	0.147466
C81	C	1.165130	0.292512	0.480799
C82	C	0.433029	-0.374145	-0.185890
C83	C	0.766362	-0.040812	0.147443
C84	C	1.099696	0.292522	0.480777
C85	C	0.401381	-0.380470	-0.241331
C86	C	0.734714	-0.047137	0.092002
C87	C	1.068048	0.286197	0.425335
C88	C	0.435178	-0.386821	-0.296749
C89	C	0.768512	-0.053488	0.036584
C90	C	1.101845	0.279846	0.369918
C91	C	0.500615	-0.386836	-0.296724
C92	C	0.833948	-0.053503	0.036609
C93	C	1.167282	0.279830	0.369942
C94	C	0.532254	-0.380499	-0.241278
C95	C	0.865587	-0.047166	0.092056
C96	C	1.198921	0.286168	0.425389
C97	C	0.305840	-0.431062	-0.273275
C98	C	0.639173	-0.097729	0.060058
C99	C	0.972507	0.235605	0.393392
C100	C	0.240399	-0.431037	-0.273308
C101	C	0.573733	-0.097704	0.060025
C102	C	0.907066	0.235630	0.393359
C103	C	0.224144	-0.329800	-0.209505
C104	C	0.557478	0.003534	0.123828
C105	C	0.890811	0.336867	0.457162
C106	C	0.289583	-0.329820	-0.209478
C107	C	0.622916	0.003513	0.123855
C108	C	0.956250	0.336846	0.457188
C109	C	0.330428	-0.380456	-0.241362
C110	C	0.663761	-0.047122	0.091972
C111	C	0.997094	0.286211	0.425305
C112	C	0.859485	-0.962724	-0.348219
C113	C	1.192818	-0.629391	-0.014886
C114	C	1.526152	-0.296058	0.318448
C115	C	0.872755	-1.045266	-0.335003
C116	C	1.206088	-0.711933	-0.001670
C117	C	1.539421	-0.378600	0.331663
C118	C	0.952916	-1.045188	-0.254983
C119	C	1.286249	-0.711855	0.078350
C120	C	1.619583	-0.378522	0.411683
C121	C	0.939655	-0.962645	-0.268194
C122	C	1.272989	-0.629311	0.065139
C123	C	1.606322	-0.295978	0.398472
C124	C	0.892939	-0.921419	-0.314813
C125	C	1.226272	-0.588086	0.018521
C126	C	1.559605	-0.254753	0.351854
C127	C	0.973109	-0.921340	-0.234788
C128	C	1.306442	-0.588006	0.098545
C129	C	1.639776	-0.254673	0.431879
C130	C	0.959847	-0.838803	-0.247996
C131	C	1.293180	-0.505470	0.085337
C132	C	1.626513	-0.172137	0.418671
C133	C	0.913131	-0.797572	-0.294610
C134	C	1.246464	-0.464239	0.038723
C135	C	1.579798	-0.130905	0.372056
C136	C	0.879677	-0.838883	-0.328021
C137	C	1.213010	-0.505550	0.005313
C138	C	1.546343	-0.172216	0.338646
C139	C	1.019822	-0.962567	-0.188167
C140	C	1.353155	-0.629233	0.145166
C141	C	1.686489	-0.295900	0.478500
C142	C	1.053276	-0.921262	-0.154760
C143	C	1.386609	-0.587928	0.178573
C144	C	1.719942	-0.254595	0.511906
C145	C	1.040017	-0.838724	-0.167971
C146	C	1.373350	-0.505390	0.165362
C147	C	1.706684	-0.172057	0.498695
C148	C	0.993301	-0.797492	-0.214586
C149	C	1.326635	-0.464159	0.118747
C150	C	1.659968	-0.130826	0.452081
C151	C	1.073472	-0.797413	-0.134561
C152	C	1.406805	-0.464080	0.198772
C153	C	1.740138	-0.130746	0.532105
C154	C	1.060209	-0.714877	-0.147769
C155	C	1.393543	-0.381543	0.185564
C156	C	1.726876	-0.048210	0.518897
C157	C	0.980039	-0.714956	-0.227794
C158	C	1.313373	-0.381623	0.105539
C159	C	1.646706	-0.048289	0.438873
C160	C	1.129916	-0.380432	-0.241386
C161	C	1.463250	-0.047099	0.091947
C162	C	1.796583	0.286235	0.425281
C163	C	1.199555	-0.380414	-0.241420
C164	C	1.532888	-0.047081	0.091913
C165	C	1.866221	0.286252	0.425247
C166	C	0.966549	-0.380457	-0.404732
C167	C	1.299882	-0.047124	-0.071399
C168	C	1.633216	0.286209	0.261935
C169	C	0.966570	-0.380450	-0.474374
C170	C	1.299903	-0.047117	-0.141041
C171	C	1.633237	0.286216	0.192292
C172	C	0.933515	-0.174337	-0.274324
C173	C	1.266849	0.158997	0.059010
C174	C	1.600182	0.492330	0.392343
C175	C	0.919460	-0.086494	-0.288394
C176	C	1.252793	0.246840	0.044940
C177	C	1.586126	0.580173	0.378273
C178	C	0.998552	-0.329891	-0.515205
C179	C	1.331885	0.003442	-0.181871
C180	C	1.665218	0.336776	0.151462
C181	C	0.998545	-0.329857	-0.580646
C182	C	1.331879	0.003476	-0.247312
C183	C	1.665212	0.336810	0.086021
C184	C	0.966566	-0.380397	-0.605251
C185	C	1.299900	-0.047063	-0.271918
C186	C	1.633233	0.286270	0.061415
C187	C	0.934577	-0.430960	-0.564412
C188	C	1.267911	-0.097626	-0.231079
C189	C	1.601244	0.235707	0.102254
C190	C	0.934579	-0.430986	-0.498974
C191	C	1.267913	-0.097653	-0.165641
C192	C	1.601246	0.235680	0.167693
C193	C	0.973012	-0.451559	-0.697531
C194	C	1.306345	-0.118225	-0.364197
C195	C	1.639678	0.215108	-0.030864
C196	C	0.973014	-0.451533	-0.762968
C197	C	1.306348	-0.118200	-0.429635
C198	C	1.639681	0.215134	-0.096301
C199	C	0.966557	-0.380313	-0.807086
C200	C	1.299890	-0.046980	-0.473752
C201	C	1.633223	0.286354	-0.140419
C202	C	0.960109	-0.309116	-0.785758
C203	C	1.293443	0.024217	-0.452425
C204	C	1.626776	0.357550	-0.119092
C205	C	0.960111	-0.309143	-0.720320
C206	C	1.293444	0.024190	-0.386987
C207	C	1.626778	0.357523	-0.053653
C208	C	0.966560	-0.380373	-0.676208
C209	C	1.299894	-0.047039	-0.342874
C210	C	1.633227	0.286294	-0.009541
C211	C	0.998533	-0.329712	-0.918875
C212	C	1.331866	0.003621	-0.585542
C213	C	1.665200	0.336954	-0.252208
C214	C	0.998522	-0.329677	-0.984317
C215	C	1.331855	0.003656	-0.650984
C216	C	1.665189	0.336990	-0.317651
C217	C	0.934559	-0.430787	-0.968082
C218	C	1.267892	-0.097453	-0.634749
C219	C	1.601225	0.235880	-0.301415
C220	C	0.934565	-0.430815	-0.902642
C221	C	1.267898	-0.097482	-0.569309
C222	C	1.601232	0.235852	-0.235975
C223	C	0.966556	-0.380279	-0.878042
C224	C	1.299889	-0.046946	-0.544709
C225	C	1.633222	0.286388	-0.211376
C226	C	0.966477	-0.380432	-0.078525
C227	C	1.299811	-0.047099	0.254808
C228	C	1.633144	0.286235	0.588142
C229	C	0.966542	-0.380216	-0.008919
C230	C	1.299875	-0.046883	0.324415
C231	C	1.633208	0.286450	0.657748
H232	H	0.624037	-0.472355	-0.299127
H233	H	0.957370	-0.139022	0.034206
H234	H	1.290704	0.194311	0.367539
N235	N	0.583747	-0.275312	-0.174944
N236	N	0.917080	0.058022	0.158389
N237	N	1.250413	0.391355	0.491722
H238	H	0.586123	-0.218862	-0.193780
H239	H	0.919456	0.114471	0.139554
H240	H	1.252790	0.447804	0.472887
H241	H	0.538586	-0.283056	-0.179809
H242	H	0.871919	0.050277	0.153524
H243	H	1.205252	0.383611	0.486858
N244	N	1.103655	-0.965737	-0.104478
N245	N	1.436988	-0.632404	0.228855
N246	N	1.770322	-0.299070	0.562188
H247	H	1.138171	-0.999938	-0.124504
H248	H	1.471504	-0.666605	0.208829
H249	H	1.804837	-0.333271	0.542162
H250	H	1.122788	-0.926999	-0.085333
H251	H	1.456121	-0.593666	0.248001
H252	H	1.789454	-0.260333	0.581334
N253	N	0.316097	-0.275236	-0.175054
N254	N	0.649430	0.058097	0.158279
N255	N	0.982763	0.391431	0.491613
H256	H	0.348335	-0.307303	-0.140832
H257	H	0.681668	0.026030	0.192501
H258	H	1.015001	0.359363	0.525835
H259	H	0.337398	-0.238673	-0.206451
H260	H	0.670731	0.094661	0.126883
H261	H	1.004064	0.427994	0.460216
H262	H	0.942002	-0.681389	-0.265760
H263	H	1.275336	-0.348055	0.067574
H264	H	1.608669	-0.014722	0.400907
H265	H	0.409412	-0.391970	-0.341895
H266	H	0.742745	-0.058637	-0.008562
H267	H	1.076079	0.274697	0.324772
H268	H	0.524225	-0.369001	-0.140718
H269	H	0.857558	-0.035668	0.192616
H270	H	1.190892	0.297666	0.525949
N271	N	0.829285	-0.794412	-0.378298
N272	N	1.162619	-0.461079	-0.044965
N273	N	1.495952	-0.127745	0.288368
H274	H	0.825961	-0.735858	-0.381593
H275	H	1.159294	-0.402525	-0.048259
H276	H	1.492628	-0.069192	0.285074
H277	H	0.841326	-0.808806	-0.420757
H278	H	1.174660	-0.475472	-0.087423
H279	H	1.507993	-0.142139	0.245910
N280	N	0.953157	-0.232356	-0.697321
N281	N	1.286490	0.100977	-0.363988
N282	N	1.619823	0.434311	-0.030655
H283	H	0.911269	-0.196992	-0.714339
H284	H	1.244602	0.136341	-0.381005
H285	H	1.577936	0.469674	-0.047672
H286	H	0.954168	-0.243247	-0.649173
H287	H	1.287502	0.090086	-0.315840
H288	H	1.620835	0.423420	0.017493
N289	N	0.719760	-0.275322	-0.174911
N290	N	1.053093	0.058011	0.158422
N291	N	1.386426	0.391345	0.491755
H292	H	0.683954	-0.243245	-0.154717
H293	H	1.017288	0.090088	0.178616
H294	H	1.350621	0.423422	0.511949
H295	H	0.752007	-0.307440	-0.140720
H296	H	1.085340	0.025894	0.192613
H297	H	1.418673	0.359227	0.525947
H298	H	0.405517	-0.368979	-0.140765
H299	H	0.738850	-0.035645	0.192568
H300	H	1.072184	0.297688	0.525902
N301	N	1.096286	-0.670319	-0.111737
N302	N	1.429619	-0.336986	0.221596
N303	N	1.762953	-0.003652	0.554930
H304	H	1.127894	-0.708959	-0.080202
H305	H	1.461227	-0.375625	0.253132
H306	H	1.794560	-0.042292	0.586465
H307	H	1.119756	-0.636025	-0.142766
H308	H	1.453090	-0.302692	0.190567
H309	H	1.786423	0.030642	0.523901
H310	H	0.339097	-0.472288	-0.299240
H311	H	0.672430	-0.138955	0.034093
H312	H	1.005763	0.194379	0.367426
H313	H	0.528130	-0.392005	-0.341848
H314	H	0.861463	-0.058672	-0.008514
H315	H	1.194796	0.274661	0.324819
H316	H	0.902330	-0.730366	-0.305359
H317	H	1.235663	-0.397032	0.027974
H318	H	1.568996	-0.063699	0.361308
N319	N	1.033047	-0.275331	-0.624696
N320	N	1.366380	0.058002	-0.291362
N321	N	1.699714	0.391335	0.041971
H322	H	1.001728	-0.238700	-0.657688
H323	H	1.335061	0.094633	-0.324354
H324	H	1.668395	0.427966	0.008979
H325	H	1.053313	-0.243374	-0.599136
H326	H	1.386647	0.089960	-0.265802
H327	H	1.719980	0.423293	0.067531
N328	N	0.213882	-0.485631	-0.307722
N329	N	0.547215	-0.152297	0.025612
N330	N	0.880549	0.181036	0.358945
H331	H	0.192542	-0.522193	-0.276362
H332	H	0.525876	-0.188860	0.056972
H333	H	0.859209	0.144473	0.390305
H334	H	0.181673	-0.453509	-0.341947
H335	H	0.515006	-0.120176	-0.008613
H336	H	0.848340	0.213158	0.324720
H337	H	0.821448	-0.929157	-0.386185
H338	H	1.154782	-0.595824	-0.052852
H339	H	1.488115	-0.262490	0.280482
N340	N	1.033053	-0.275385	-0.488672
N341	N	1.366386	0.057948	-0.155339
N342	N	1.699719	0.391282	0.177995
H343	H	1.053312	-0.243350	-0.524472
H344	H	1.386645	0.089983	-0.191139
H345	H	1.719978	0.423317	0.142194
H346	H	1.001699	-0.238827	-0.467354
H347	H	1.335032	0.094507	-0.134020
H348	H	1.668366	0.427840	0.199313
H349	H	0.845517	-1.078894	-0.362218
H350	H	1.178850	-0.745561	-0.028885
H351	H	1.512183	-0.412227	0.304449
N352	N	0.180090	-0.275203	-0.175111
N353	N	0.513423	0.058130	0.158222
N354	N	0.846757	0.391463	0.491556
H355	H	0.193374	-0.287397	-0.128372
H356	H	0.526708	0.045937	0.204961
H357	H	0.860041	0.379270	0.538295
H358	H	0.182491	-0.218778	-0.193998
H359	H	0.515824	0.114555	0.139335
H360	H	0.849157	0.447889	0.472668
H361	H	0.742749	-0.472392	-0.299075
H362	H	1.076083	-0.139059	0.034259
H363	H	1.409416	0.194274	0.367592
H364	H	0.908527	-0.471991	-0.869396
H365	H	1.241860	-0.138658	-0.536063
H366	H	1.575193	0.194676	-0.202729
N367	N	1.003294	-1.089655	-0.204697
N368	N	1.336628	-0.756321	0.128636
N369	N	1.669961	-0.422988	0.461969
H370	H	1.006618	-1.148209	-0.201396
H371	H	1.339951	-0.814876	0.131937
H372	H	1.673285	-0.481543	0.465270
H373	H	1.045711	-1.075170	-0.216823
H374	H	1.379044	-0.741837	0.116511
H375	H	1.712378	-0.408503	0.449844
H376	H	1.030620	-1.029773	-0.177416
H377	H	1.363953	-0.696440	0.155917
H378	H	1.697287	-0.363107	0.489250
N379	N	1.123846	-0.841890	-0.084275
N380	N	1.457180	-0.508557	0.249058
N381	N	1.790513	-0.175223	0.582391
H382	H	1.158363	-0.876095	-0.104297
H383	H	1.491696	-0.542761	0.229036
H384	H	1.825030	-0.209428	0.562370
H385	H	1.142979	-0.803153	-0.065128
H386	H	1.476312	-0.469820	0.268205
H387	H	1.809646	-0.136487	0.601539
N388	N	0.953150	-0.232294	-0.833333
N389	N	1.286483	0.101040	-0.499999
N390	N	1.619816	0.434373	-0.166666
H391	H	0.954124	-0.243076	-0.878024
H392	H	1.287458	0.090257	-0.544691
H393	H	1.620791	0.423591	-0.211357
H394	H	0.911267	-0.196973	-0.827517
H395	H	1.244600	0.136361	-0.494183
H396	H	1.577933	0.469694	-0.160850
H397	H	1.024578	-0.288559	-0.898846
H398	H	1.357911	0.044775	-0.565512
H399	H	1.691244	0.378108	-0.232179
N400	N	1.033005	-0.275128	-1.028362
N401	N	1.366338	0.058205	-0.695029
N402	N	1.699671	0.391539	-0.361695
H403	H	1.053267	-0.243118	-1.002846
H404	H	1.386600	0.090215	-0.669513
H405	H	1.719934	0.423548	-0.336179
H406	H	1.067143	-0.307272	-1.050397
H407	H	1.400477	0.026062	-0.717064
H408	H	1.733810	0.359395	-0.383730
N409	N	0.900060	-0.485292	-0.994612
N410	N	1.233393	-0.151959	-0.661279
N411	N	1.566726	0.181374	-0.327945
H412	H	0.904909	-0.477603	-1.042263
H413	H	1.238242	-0.144269	-0.708930
H414	H	1.571576	0.189064	-0.375597
H415	H	0.918841	-0.541739	-0.974153
H416	H	1.252175	-0.208406	-0.640820
H417	H	1.585508	0.124928	-0.307487
H418	H	0.978268	-0.509506	-0.780327
H419	H	1.311601	-0.176172	-0.446993
H420	H	1.644935	0.157161	-0.113660
N421	N	0.979986	-0.528380	-0.649949
N422	N	1.313319	-0.195047	-0.316615
N423	N	1.646652	0.138287	0.016718
H424	H	0.984079	-0.573477	-0.673387
H425	H	1.317413	-0.240144	-0.340054
H426	H	1.650746	0.093189	-0.006721
H427	H	1.019337	-0.535709	-0.621660
H428	H	1.352671	-0.202376	-0.288327
H429	H	1.686004	0.130958	0.045007
N430	N	0.900073	-0.485458	-0.590949
N431	N	1.233406	-0.152125	-0.257615
N432	N	1.566740	0.181208	0.075718
H433	H	0.904923	-0.477768	-0.638600
H434	H	1.238256	-0.144435	-0.305267
H435	H	1.571590	0.188898	0.028067
H436	H	0.918847	-0.541907	-0.570491
H437	H	1.252181	-0.208574	-0.237157
H438	H	1.585514	0.124759	0.096176
N439	N	0.900073	-0.485509	-0.454932
N440	N	1.233406	-0.152176	-0.121599
N441	N	1.566740	0.181157	0.211734
H442	H	0.879807	-0.517517	-0.480448
H443	H	1.213140	-0.184184	-0.147114
H444	H	1.546474	0.149150	0.186219
H445	H	0.931422	-0.522093	-0.421946
H446	H	1.264755	-0.188760	-0.088613
H447	H	1.598089	0.144573	0.244721
