data_functionalizedCrystal
_audit_creation_method	'MofGen! by Chris Wilmer'
_symmetry_space_group_name_H-M	'P1'
_symmetry_Int_Tables_number	1
_symmetry_cell_setting	triclinic
loop_
_symmetry_equiv_pos_as_xyz
  x,y,z
_cell_length_a	10.654562
_cell_length_b	19.288865
_cell_length_c	18.366186
_cell_angle_alpha	89.988521
_cell_angle_beta	89.988154
_cell_angle_gamma	83.813175
loop_
_atom_site_label
_atom_site_type_symbol
_atom_site_fract_x
_atom_site_fract_y
_atom_site_fract_z
O1	O	1.665751	0.097598	-0.060607
O2	O	1.300076	0.106883	-0.060599
O3	O	1.493480	0.001179	-0.060589
O4	O	1.472347	0.203301	-0.060617
O5	O	1.493447	0.001174	0.060511
O6	O	1.300043	0.106877	0.060501
O7	O	1.665718	0.097592	0.060493
Zn8	Zn	1.482875	0.102234	0.079724
Zn9	Zn	1.482919	0.102241	-0.079830
O10	O	1.472314	0.203296	0.060482
C11	C	1.253276	0.106196	-0.000048
C12	C	1.113878	0.104151	-0.000044
C13	C	1.492783	-0.024704	-0.000037
C14	C	1.490742	-0.101821	-0.000030
C15	C	1.604223	-0.145772	-0.000029
C16	C	1.602305	-0.218231	-0.000041
C17	C	1.486900	-0.246737	-0.000039
C18	C	1.373405	-0.202777	-0.000044
C19	C	1.375326	-0.130319	-0.000040
C20	C	1.396167	-0.355623	0.042382
C21	C	1.394251	-0.428080	0.042382
C22	C	1.480971	-0.470222	-0.000055
C23	C	1.569628	-0.439899	-0.042483
C24	C	1.571549	-0.367441	-0.042479
C25	C	1.484805	-0.325305	-0.000044
C26	C	1.592380	-0.592742	-0.000067
C27	C	1.590458	-0.665203	-0.000083
C28	C	1.361554	-0.649747	-0.000079
C29	C	1.363480	-0.577288	-0.000070
C30	C	1.478896	-0.548790	-0.000061
C31	C	1.048349	0.103194	0.065962
C32	C	0.917368	0.101278	0.065950
C33	C	0.917454	0.101279	-0.066079
C34	C	1.048434	0.103190	-0.066067
C35	C	1.048298	0.103197	0.142188
C36	C	0.917317	0.101281	0.142176
C37	C	1.712518	0.098278	-0.000060
C38	C	1.851916	0.100324	-0.000069
C39	C	1.473011	0.229179	-0.000071
C40	C	1.475052	0.306296	-0.000082
N41	N	1.482855	0.102229	0.188615
N42	N	1.482949	0.102241	-0.188721
C43	C	1.568522	0.055447	0.226720
C44	C	1.568530	0.055443	0.302948
C45	C	1.482883	0.102235	0.341068
C46	C	1.397200	0.149020	0.302954
C47	C	1.397186	0.149017	0.226727
C48	C	1.466072	0.165412	0.461819
C49	C	1.466095	0.165416	0.538044
C50	C	1.482919	0.102243	0.576175
C51	C	1.499746	0.039065	0.538072
C52	C	1.499732	0.039062	0.461845
C53	C	1.482888	0.102243	0.423722
C54	C	1.568599	0.055454	0.696935
C55	C	1.568598	0.055450	0.773164
C56	C	1.397274	0.149033	0.773169
C57	C	1.397269	0.149031	0.696941
C58	C	1.482938	0.102242	0.658829
H59	H	1.698204	-0.122574	-0.000024
H60	H	0.888806	0.050625	0.165836
H61	H	1.095577	0.055195	0.171467
H62	H	1.638293	0.017346	0.333978
C63	C	1.669061	-0.334088	-0.089154
N64	N	1.742505	-0.308967	-0.124314
H65	H	1.638276	0.017347	0.195691
C66	C	0.853358	0.166226	0.181515
N67	N	0.805176	0.215178	0.211079
C68	C	1.518225	-0.030434	0.419934
N69	N	1.532147	-0.082779	0.388367
H70	H	0.864154	0.100496	-0.119833
C71	C	1.303061	0.200504	0.815096
N72	N	1.232097	0.239274	0.846680
H73	H	1.694717	-0.254023	-0.000043
C74	C	1.518250	-0.030431	0.580010
N75	N	1.532188	-0.082773	0.611601
C76	C	1.303117	0.200546	0.655024
N77	N	1.232226	0.239366	0.623452
C78	C	1.662824	0.003980	0.655009
N79	N	1.733794	-0.034792	0.623432
C80	C	1.662823	0.003971	0.815079
N81	N	1.733789	-0.034807	0.846650
H82	H	1.327424	0.187113	0.195701
H83	H	1.271071	-0.541502	-0.000067
H84	H	1.076782	0.153851	0.165832
H85	H	1.452401	0.216860	0.569062
H86	H	1.452351	0.216858	0.430779
H87	H	1.640243	-0.474210	-0.077039
C88	C	1.246459	-0.234135	-0.000036
N89	N	1.150840	-0.257754	-0.000031
C90	C	1.715302	-0.713549	-0.000078
N91	N	1.809338	-0.749964	-0.000071
C92	C	1.302982	0.200487	0.344887
N93	N	1.232010	0.239252	0.376471
C94	C	1.300767	-0.309274	0.089072
N95	N	1.228915	-0.274365	0.124240
H96	H	1.686359	-0.569538	-0.000063
H97	H	1.267589	-0.672956	-0.000081
H98	H	1.322056	-0.452763	0.076925
H99	H	1.282913	-0.094534	-0.000040
H100	H	1.101785	0.103958	-0.119815
