data_functionalizedCrystal
_audit_creation_method	'MofGen! by Chris Wilmer'
_symmetry_space_group_name_H-M	'P1'
_symmetry_Int_Tables_number	1
_symmetry_cell_setting	triclinic
loop_
_symmetry_equiv_pos_as_xyz
  x,y,z
_cell_length_a	6.817900
_cell_length_b	11.102183
_cell_length_c	14.125465
_cell_angle_alpha	94.634773
_cell_angle_beta	100.398878
_cell_angle_gamma	108.603876
loop_
_atom_site_label
_atom_site_type_symbol
_atom_site_fract_x
_atom_site_fract_y
_atom_site_fract_z
V1	V	-4.017257	-0.174747	-0.299975
O2	O	-3.978095	0.009521	-0.294266
O3	O	-3.994669	-0.347574	-0.297921
O4	O	-3.952927	-0.171566	-0.430805
O5	O	-4.020125	-0.167706	-0.160463
V6	V	-4.499605	-0.152765	-0.283288
O7	O	-4.281094	-0.222967	-0.336578
O8	O	-4.685965	-0.104545	-0.246685
O9	O	-4.298987	0.020063	-0.285341
O10	O	-4.656164	-0.337032	-0.288997
O11	O	-4.614133	-0.159806	-0.422800
O12	O	-4.340728	-0.155945	-0.152458
C13	C	-3.846464	-0.389721	-0.293189
C14	C	-3.909176	-0.531006	-0.292382
C15	C	-3.844194	-0.495370	-0.116162
C16	C	-3.841162	-0.543927	-0.027677
C17	C	-3.900091	-0.676678	-0.026924
C18	C	-3.962065	-0.760877	-0.114666
C19	C	-3.965098	-0.712320	-0.203152
C20	C	-3.906157	-0.579564	-0.203895
C21	C	-4.030093	-0.747956	-0.379370
C22	C	-3.971149	-0.615205	-0.380124
C23	C	-4.092066	-0.832154	-0.467112
C24	C	-4.095085	-0.783597	-0.555599
C25	C	-4.036148	-0.650837	-0.556348
C26	C	-3.974182	-0.566648	-0.468610
C27	C	-3.793217	-0.165204	-0.462693
C28	C	-3.822075	-0.163746	-0.569648
C29	C	-3.874968	-0.161074	-0.765471
C30	C	-4.061262	-0.166435	-0.817792
C31	C	-4.090694	-0.164948	-0.926755
C32	C	-3.845528	-0.162561	-0.656498
C33	C	-4.110534	0.062203	-0.290071
C34	C	-4.027060	0.203487	-0.290884
C35	C	-4.163781	-0.162312	-0.120564
C36	C	-4.114161	-0.163763	-0.013609
H37	H	-3.790703	-0.475359	0.043761
O38	O	-3.896943	-0.723636	0.059116
C39	C	-3.829671	-0.620866	0.136397
H40	H	-3.733802	-0.529214	0.111704
H41	H	-3.974035	-0.606949	0.159191
C42	C	-3.808427	-0.763777	0.253709
C43	C	-3.690663	-0.651211	0.223383
H44	H	-3.722688	-0.782497	0.307368
H45	H	-3.853757	-0.833017	0.201644
H46	H	-3.928724	-0.752166	0.272697
H47	H	-3.570384	-0.662830	0.204384
H48	H	-3.645310	-0.581974	0.275447
H49	H	-4.198654	-0.172154	-0.780754
O50	O	-3.711325	-0.154339	-0.809811
C51	C	-3.777609	-0.154320	-0.910309
H52	H	-3.957549	-0.199965	-0.932892
H53	H	-3.727585	-0.051247	-0.926512
C54	C	-3.453513	-0.175812	-0.939954
C55	C	-3.674518	-0.231885	-0.967693
H56	H	-3.389916	-0.223653	-0.975353
H57	H	-3.408851	-0.175820	-0.872247
H58	H	-3.411856	-0.089920	-0.953458
H59	H	-3.716173	-0.317769	-0.954178
H60	H	-3.719185	-0.231893	-1.035400
O61	O	-4.039070	-0.603463	-0.642222
C62	C	-3.973711	-0.468236	-0.624076
H63	H	-4.001104	-0.437023	-0.550119
H64	H	-3.797910	-0.425737	-0.624254
C65	C	-4.069149	-0.458432	-0.794757
C66	C	-4.102810	-0.420096	-0.703924
H67	H	-4.148774	-0.428734	-0.844013
H68	H	-4.113175	-0.549536	-0.806983
H69	H	-3.922644	-0.423013	-0.794891
H70	H	-4.249307	-0.455528	-0.703788
H71	H	-4.058811	-0.328996	-0.691700
H72	H	-3.796148	-0.387274	-0.116765
H73	H	-4.010071	-0.868969	-0.114046
H74	H	-4.140061	-0.940246	-0.466493
H75	H	-4.145558	-0.852161	-0.627032
H76	H	-3.926159	-0.458551	-0.469210
