data_functionalizedCrystal
_audit_creation_method	'MofGen! by Chris Wilmer'
_symmetry_space_group_name_H-M	'P1'
_symmetry_Int_Tables_number	1
_symmetry_cell_setting	triclinic
loop_
_symmetry_equiv_pos_as_xyz
  x,y,z
_cell_length_a	17.077402
_cell_length_b	17.077404
_cell_length_c	17.077396
_cell_angle_alpha	89.976781
_cell_angle_beta	90.026173
_cell_angle_gamma	89.979191
loop_
_atom_site_label
_atom_site_type_symbol
_atom_site_fract_x
_atom_site_fract_y
_atom_site_fract_z
Zn1	Zn	-0.312583	-1.200046	0.443933
Zn2	Zn	-0.443858	-1.199950	0.312672
Zn3	Zn	-0.312602	-1.068778	0.312673
Zn4	Zn	-0.443803	-1.068743	0.443887
O5	O	-0.378212	-1.134379	0.378291
O6	O	-0.330012	-1.309881	0.426540
O7	O	-0.426478	-1.182524	0.202825
O8	O	-0.202753	-1.086246	0.330104
O9	O	-0.426459	-1.309810	0.330103
O10	O	-0.202739	-1.182689	0.426540
O11	O	-0.330044	-1.086153	0.202826
O12	O	-0.329991	-0.958927	0.330059
O13	O	-0.426365	-1.086186	0.553741
O14	O	-0.426383	-0.958901	0.426463
O15	O	-0.329959	-1.182654	0.553774
O16	O	-0.553698	-1.182490	0.330059
O17	O	-0.553657	-1.086092	0.426462
C18	C	-0.378184	-0.930431	0.378257
C19	C	-0.378191	-0.843182	0.378260
C20	C	-0.328082	-0.467401	0.428594
C21	C	-0.328079	-0.549382	0.428588
C22	C	-0.378211	-0.590333	0.378294
C23	C	-0.428354	-0.549299	0.328009
C24	C	-0.428361	-0.467320	0.328020
C25	C	-0.428336	-0.720169	0.327989
C26	C	-0.428329	-0.802154	0.327977
C27	C	-0.328054	-0.802231	0.428557
C28	C	-0.328061	-0.720252	0.428568
C29	C	-0.378204	-0.679224	0.378281
C30	C	-0.582159	-1.134298	0.378273
C31	C	-0.669409	-1.134335	0.378291
C32	C	-1.045219	-1.184735	0.328185
C33	C	-0.963238	-1.184695	0.328172
C34	C	-0.922258	-1.134449	0.378319
C35	C	-0.963263	-1.084234	0.428478
C36	C	-1.045242	-1.084271	0.428488
C37	C	-0.792393	-1.084162	0.428456
C38	C	-0.710408	-1.084126	0.428448
C39	C	-0.710389	-1.184586	0.328140
C40	C	-0.792368	-1.184623	0.328150
C41	C	-0.833367	-1.134409	0.378310
C42	C	-0.173467	-1.134482	0.378327
C43	C	-0.086217	-1.134526	0.378342
C44	C	-0.378154	-1.134427	0.583036
C45	C	-0.378129	-1.134447	0.670286
C46	C	-0.378232	-0.339124	0.378319
C47	C	-0.378220	-0.426373	0.378311
C48	C	-0.378212	-1.134377	0.174344
C49	C	-0.378016	-1.134509	0.087094
C50	C	-0.327926	-1.184680	0.711295
C51	C	-0.327900	-1.184689	0.793275
C52	C	-0.378081	-1.134469	0.834245
C53	C	-0.428287	-1.084231	0.793230
C54	C	-0.428308	-1.084218	0.711251
C55	C	-0.428239	-1.084263	0.964101
C56	C	-0.428219	-1.084276	1.046085
C57	C	-0.327831	-1.184734	1.046124
C58	C	-0.327853	-1.184721	0.964145
C59	C	-0.378059	-1.134483	0.923136
H60	H	-0.469153	-0.835494	0.287026
H61	H	-0.287236	-0.686912	0.469518
O62	O	-0.476969	-1.035340	0.671382
C63	C	-0.432289	-0.984664	0.623944
H64	H	-0.370456	-0.979850	0.648655
H65	H	-0.429609	-1.008922	0.561818
C66	C	-0.546575	-0.908956	0.592314
C67	C	-0.470632	-0.903038	0.622669
H68	H	-0.570228	-0.858605	0.591524
H69	H	-0.576678	-0.943098	0.624272
H70	H	-0.544331	-0.929174	0.540545
H71	H	-0.472878	-0.882829	0.674439
H72	H	-0.440531	-0.868889	0.590719
H73	H	-0.286950	-1.225638	1.079518
O74	O	-0.477129	-0.588955	0.279130
C75	C	-0.521372	-0.535160	0.234739
H76	H	-0.524135	-0.476739	0.266894
H77	H	-0.492552	-0.526418	0.175173
C78	C	-0.601506	-0.638879	0.183784
C79	C	-0.604905	-0.567127	0.223281
H80	H	-0.653033	-0.658597	0.176712
H81	H	-0.571697	-0.675122	0.213688
H82	H	-0.577486	-0.631583	0.134149
H83	H	-0.628916	-0.574424	0.272918
H84	H	-0.634720	-0.530885	0.193384
O85	O	-0.670689	-1.233438	0.279387
C86	C	-0.724438	-1.277784	0.235118
H87	H	-0.782854	-1.280508	0.267282
H88	H	-0.733216	-1.249080	0.175473
C89	C	-0.620635	-1.357975	0.184381
C90	C	-0.692380	-1.361327	0.223889
H91	H	-0.600860	-1.409508	0.177451
H92	H	-0.584422	-1.328097	0.214203
H93	H	-0.627960	-1.334052	0.134681
H94	H	-0.685053	-1.385241	0.273592
H95	H	-0.728591	-1.391212	0.194075
H96	H	-0.286995	-1.225619	0.930789
H97	H	-1.078579	-1.225656	0.287354
H98	H	-0.929857	-1.225579	0.287329
O99	O	-0.279022	-1.233450	0.833019
C100	C	-0.200791	-1.216320	0.813001
H101	H	-0.199183	-1.186132	0.753474
H102	H	-0.174325	-1.175988	0.859134
C103	C	-0.155232	-1.329948	0.882342
C104	C	-0.153257	-1.292876	0.809226
H105	H	-0.125909	-1.377170	0.880016
H106	H	-0.207938	-1.341488	0.895831
H107	H	-0.133179	-1.296330	0.920778
H108	H	-0.175319	-1.326491	0.770793
H109	H	-0.100554	-1.281344	0.795731
O110	O	-0.477035	-1.035597	1.085925
C111	C	-0.527719	-1.080258	1.133367
H112	H	-0.532606	-1.142073	1.108671
H113	H	-0.503422	-1.082997	1.195498
C114	C	-0.603302	-0.965922	1.164952
C115	C	-0.609310	-1.041842	1.134617
H116	H	-0.653631	-0.942224	1.165727
H117	H	-0.569154	-0.935832	1.132992
H118	H	-0.583051	-0.968215	1.216725
H119	H	-0.629552	-1.039547	1.082842
H120	H	-0.643464	-1.071931	1.166568
H121	H	-0.469111	-1.043342	0.930714
H122	H	-0.825732	-1.225542	0.287319
H123	H	-0.287254	-0.434065	0.469544
H124	H	-0.469142	-1.043338	0.826595
H125	H	-0.287225	-0.835640	0.469501
O126	O	-0.279295	-0.589114	0.477453
C127	C	-0.235058	-0.535391	0.521853
H128	H	-0.232308	-0.476937	0.489712
H129	H	-0.263874	-0.526696	0.581424
C130	C	-0.154900	-0.639207	0.572774
C131	C	-0.151517	-0.567415	0.533295
H132	H	-0.103369	-0.658961	0.579836
H133	H	-0.184705	-0.675402	0.542864
H134	H	-0.178916	-0.631951	0.622413
H135	H	-0.127510	-0.574673	0.483654
H136	H	-0.121706	-0.531221	0.563198
O137	O	-0.832099	-1.035362	0.477258
C138	C	-0.778352	-0.990994	0.521508
H139	H	-0.719885	-1.023116	0.524245
H140	H	-0.769701	-0.931385	0.492710
C141	C	-0.882116	-0.940204	0.601685
C142	C	-0.810308	-0.979661	0.605052
H143	H	-0.901828	-0.933210	0.653218
H144	H	-0.918327	-0.970093	0.571872
H145	H	-0.874897	-0.890534	0.577683
H146	H	-0.817530	-1.029333	0.629045
H147	H	-0.774099	-0.949780	0.634872
O148	O	-1.084949	-1.035475	0.477287
C149	C	-1.031202	-0.991105	0.521534
H150	H	-0.972737	-1.023229	0.524277
H151	H	-1.022548	-0.931499	0.492731
C152	C	-1.134967	-0.940304	0.601703
C153	C	-1.063161	-0.979763	0.605077
H154	H	-1.154681	-0.933304	0.653235
H155	H	-1.171178	-0.970194	0.571891
H156	H	-1.127745	-0.890637	0.577697
H157	H	-1.070385	-1.029433	0.629073
H158	H	-1.026952	-0.949881	0.634895
H159	H	-0.677046	-1.043209	0.469283
H160	H	-0.469171	-0.686767	0.287044
O161	O	-0.279138	-1.233354	0.671415
C162	C	-0.228431	-1.188678	0.624010
H163	H	-0.256115	-1.129176	0.611706
H164	H	-0.170253	-1.180082	0.655617
C165	C	-0.180235	-1.304944	0.561267
C166	C	-0.214240	-1.231865	0.546149
H167	H	-0.171478	-1.331584	0.513239
H168	H	-0.214395	-1.335044	0.593206
H169	H	-0.131757	-1.297771	0.587608
H170	H	-0.262722	-1.239040	0.519817
H171	H	-0.180088	-1.201767	0.514203
H172	H	-0.469190	-0.433916	0.287075
H173	H	-0.929892	-1.043318	0.469306
