data_functionalizedCrystal
_audit_creation_method	'MofGen! by Chris Wilmer'
_symmetry_space_group_name_H-M	'P1'
_symmetry_Int_Tables_number	1
_symmetry_cell_setting	triclinic
loop_
_symmetry_equiv_pos_as_xyz
  x,y,z
_cell_length_a	23.532355
_cell_length_b	22.610064
_cell_length_c	17.699083
_cell_angle_alpha	90.003173
_cell_angle_beta	96.944743
_cell_angle_gamma	90.002356
loop_
_atom_site_label
_atom_site_type_symbol
_atom_site_fract_x
_atom_site_fract_y
_atom_site_fract_z
O1	O	0.755546	0.049105	-0.091680
O2	O	1.088879	0.382439	0.241653
O3	O	1.422213	0.715772	0.574987
O4	O	0.589717	0.049124	-0.105015
O5	O	0.923050	0.382458	0.228318
O6	O	1.256383	0.715791	0.561652
O7	O	0.677317	0.049109	0.011867
O8	O	1.010650	0.382442	0.345200
O9	O	1.343983	0.715776	0.678533
O10	O	0.667946	0.049121	-0.208562
O11	O	1.001280	0.382454	0.124772
O12	O	1.334613	0.715787	0.458105
O13	O	0.677301	-0.049260	0.011849
O14	O	1.010634	0.284073	0.345183
O15	O	1.343968	0.617407	0.678516
O16	O	0.589701	-0.049245	-0.105032
O17	O	0.923035	0.284088	0.228301
O18	O	1.256368	0.617422	0.561635
O19	O	0.755531	-0.049264	-0.091697
O20	O	1.088864	0.284069	0.241636
O21	O	1.422197	0.617403	0.574969
Zn22	Zn	0.672614	-0.064873	-0.098367
Zn23	Zn	1.005947	0.268461	0.234966
Zn24	Zn	1.339280	0.601794	0.568299
Zn25	Zn	0.672634	0.064733	-0.098345
Zn26	Zn	1.005967	0.398066	0.234988
Zn27	Zn	1.339301	0.731400	0.568322
O28	O	0.667931	-0.049249	-0.208579
O29	O	1.001264	0.284085	0.124755
O30	O	1.334598	0.617418	0.458088
C31	C	0.568492	-0.000058	-0.104690
C32	C	0.901825	0.333275	0.228643
C33	C	1.235158	0.666609	0.561976
C34	C	0.505270	-0.000051	-0.103688
C35	C	0.838603	0.333283	0.229645
C36	C	1.171937	0.666616	0.562978
C37	C	0.113230	-0.053697	-0.097401
C38	C	0.446563	0.279636	0.235933
C39	C	0.779896	0.612970	0.569266
C40	C	0.053828	-0.053699	-0.096447
C41	C	0.387161	0.279634	0.236886
C42	C	0.720494	0.612967	0.570219
O43	O	0.023100	-0.099301	-0.095936
O44	O	0.356434	0.234032	0.237397
O45	O	0.689767	0.567365	0.570730
N46	N	0.024126	-0.000078	-0.095965
N47	N	0.357459	0.333255	0.237368
N48	N	0.690793	0.666588	0.570702
C49	C	0.053831	0.053548	-0.096429
C50	C	0.387164	0.386882	0.236904
C51	C	0.720497	0.720215	0.570238
O52	O	0.023113	0.099157	-0.095931
O53	O	0.356446	0.432490	0.237403
O54	O	0.689780	0.765823	0.570736
C55	C	0.113232	0.053550	-0.097377
C56	C	0.446566	0.386883	0.235956
C57	C	0.779899	0.720217	0.569290
C58	C	0.142930	-0.000074	-0.097867
C59	C	0.476263	0.333259	0.235467
C60	C	0.809597	0.666592	0.568800
C61	C	0.142927	-0.107317	-0.097890
C62	C	0.476261	0.226016	0.235444
C63	C	0.809594	0.559350	0.568777
C64	C	0.202325	-0.107314	-0.098844
C65	C	0.535659	0.226019	0.234489
C66	C	0.868992	0.559352	0.567822
C67	C	0.232026	-0.053692	-0.099310
C68	C	0.565359	0.279642	0.234023
C69	C	0.898692	0.612975	0.567356
C70	C	0.202328	-0.000072	-0.098821
C71	C	0.535661	0.333261	0.234512
C72	C	0.868994	0.666595	0.567845
C73	C	0.142936	0.107176	-0.097835
C74	C	0.476270	0.440509	0.235498
C75	C	0.809603	0.773843	0.568832
C76	C	0.202342	0.107173	-0.098783
C77	C	0.535675	0.440506	0.234551
C78	C	0.869009	0.773840	0.567884
C79	C	0.232040	0.053549	-0.099272
C80	C	0.565373	0.386882	0.234061
C81	C	0.898706	0.720215	0.567394
C82	C	0.291426	0.053553	-0.100242
C83	C	0.624759	0.386887	0.233091
C84	C	0.958093	0.720220	0.566424
N85	N	0.321127	-0.000068	-0.100724
N86	N	0.654461	0.333266	0.232609
N87	N	0.987794	0.666599	0.565942
C88	C	0.291427	-0.053690	-0.100258
C89	C	0.624760	0.279643	0.233075
C90	C	0.958094	0.612977	0.566408
C91	C	-0.070917	0.053541	-0.094437
C92	C	0.262417	0.386874	0.238897
C93	C	0.595750	0.720207	0.572230
C94	C	-0.130318	0.053539	-0.093494
C95	C	0.203016	0.386873	0.239839
C96	C	0.536349	0.720206	0.573173
C97	C	-0.130317	-0.053708	-0.093511
C98	C	0.203017	0.279625	0.239822
C99	C	0.536350	0.612958	0.573156
C100	C	-0.070915	-0.053707	-0.094459
C101	C	0.262418	0.279627	0.238874
C102	C	0.595752	0.612960	0.572208
C103	C	-0.041215	-0.000080	-0.094919
C104	C	0.292118	0.333253	0.238415
C105	C	0.625452	0.666586	0.571748
C106	C	0.416167	-0.053681	-0.102264
C107	C	0.749500	0.279653	0.231069
C108	C	1.082834	0.612986	0.564402
C109	C	0.475570	-0.053673	-0.103222
C110	C	0.808903	0.279660	0.230111
C111	C	1.142236	0.612993	0.563444
C112	C	0.475564	0.053574	-0.103201
C113	C	0.808897	0.386907	0.230132
C114	C	1.142231	0.720241	0.563466
C115	C	0.416166	0.053567	-0.102247
C116	C	0.749499	0.386900	0.231086
C117	C	1.082833	0.720234	0.564419
C118	C	0.386469	-0.000065	-0.101776
C119	C	0.719802	0.333268	0.231557
C120	C	1.053136	0.666602	0.564891
O121	O	0.322191	0.099132	-0.100751
O122	O	0.655525	0.432465	0.232583
O123	O	0.988858	0.765799	0.565916
O124	O	0.322153	-0.099291	-0.100747
O125	O	0.655486	0.234042	0.232587
O126	O	0.988820	0.567376	0.565920
N127	N	0.672604	-0.153325	-0.098382
N128	N	1.005937	0.180008	0.234951
N129	N	1.339270	0.513342	0.568284
C130	C	0.711425	-0.561973	-0.046598
C131	C	1.044758	-0.228640	0.286736
C132	C	1.378091	0.104693	0.620069
C133	C	0.711428	-0.623893	-0.046592
C134	C	1.044761	-0.290560	0.286741
C135	C	1.378094	0.042774	0.620075
O136	O	0.744410	-0.655918	-0.002574
O137	O	1.077744	-0.322584	0.330759
O138	O	1.411077	0.010749	0.664092
N139	N	0.672633	-0.654862	-0.098329
N140	N	1.005967	-0.321529	0.235004
N141	N	1.339300	0.011804	0.568337
C142	C	0.633830	-0.623908	-0.150070
C143	C	0.967163	-0.290575	0.183263
C144	C	1.300497	0.042759	0.516597
O145	O	0.600832	-0.655936	-0.194076
O146	O	0.934166	-0.322602	0.139258
O147	O	1.267499	0.010731	0.472591
C148	C	0.633825	-0.561989	-0.150071
C149	C	0.967158	-0.228656	0.183262
C150	C	1.300491	0.104677	0.516595
C151	C	0.672625	-0.531023	-0.098336
C152	C	1.005959	-0.197690	0.234997
C153	C	1.339292	0.135643	0.568331
C154	C	0.750222	-0.531007	0.005134
C155	C	1.083555	-0.197674	0.338467
C156	C	1.416889	0.135659	0.671801
C157	C	0.750220	-0.469092	0.005128
C158	C	1.083553	-0.135758	0.338461
C159	C	1.416886	0.197575	0.671794
C160	C	0.711420	-0.438142	-0.046611
C161	C	1.044753	-0.104809	0.286722
C162	C	1.378087	0.228525	0.620056
C163	C	0.672623	-0.469108	-0.098343
C164	C	1.005956	-0.135775	0.234991
C165	C	1.339290	0.197559	0.568324
C166	C	0.595019	-0.531036	-0.201808
C167	C	0.928352	-0.197703	0.131525
C168	C	1.261686	0.135630	0.464859
C169	C	0.595017	-0.469113	-0.201804
C170	C	0.928350	-0.135780	0.131529
C171	C	1.261683	0.197553	0.464862
C172	C	0.633817	-0.438148	-0.150069
C173	C	0.967151	-0.104814	0.183264
C174	C	1.300484	0.228519	0.516598
C175	C	0.633821	-0.376243	-0.150088
C176	C	0.967155	-0.042909	0.183246
C177	C	1.300488	0.290424	0.516579
N178	N	0.672616	-0.345273	-0.098351
N179	N	1.005949	-0.011940	0.234983
N180	N	1.339282	0.321393	0.568316
C181	C	0.711415	-0.376223	-0.046612
C182	C	1.044748	-0.042890	0.286721
C183	C	1.378082	0.290444	0.620055
C184	C	0.633843	-0.753942	-0.150062
C185	C	0.967176	-0.420608	0.183271
C186	C	1.300510	-0.087275	0.516604
C187	C	0.633851	-0.815859	-0.150065
C188	C	0.967184	-0.482526	0.183268
C189	C	1.300517	-0.149193	0.516601
C190	C	0.711448	-0.815840	-0.046586
C191	C	1.044781	-0.482507	0.286747
C192	C	1.378114	-0.149173	0.620080
C193	C	0.711443	-0.753921	-0.046588
C194	C	1.044776	-0.420588	0.286746
C195	C	1.378109	-0.087255	0.620079
C196	C	0.672637	-0.722973	-0.098325
C197	C	1.005971	-0.389639	0.235008
C198	C	1.339304	-0.056306	0.568341
C199	C	0.711407	-0.246196	-0.046630
C200	C	1.044741	0.087138	0.286703
C201	C	1.378074	0.420471	0.620036
C202	C	0.711403	-0.184275	-0.046644
C203	C	1.044736	0.149059	0.286690
C204	C	1.378070	0.482392	0.620023
C205	C	0.633804	-0.184299	-0.150120
C206	C	0.967138	0.149034	0.183213
C207	C	1.300471	0.482367	0.516547
C208	C	0.633810	-0.246215	-0.150110
C209	C	0.967143	0.087118	0.183224
C210	C	1.300477	0.420452	0.516557
C211	C	0.672614	-0.277162	-0.098359
C212	C	1.005947	0.056172	0.234975
C213	C	1.339281	0.389505	0.568308
O214	O	0.600854	-0.344179	-0.194081
O215	O	0.934187	-0.010845	0.139252
O216	O	1.267520	0.322488	0.472586
O217	O	0.744402	-0.344188	-0.002607
O218	O	1.077735	-0.010855	0.330726
O219	O	1.411069	0.322478	0.664059
C220	C	0.776756	-0.000080	-0.092022
C221	C	1.110089	0.333253	0.241311
C222	C	1.443423	0.666586	0.574645
C223	C	0.839977	-0.000084	-0.093024
C224	C	1.173311	0.333250	0.240309
C225	C	1.506644	0.666583	0.573643
C226	C	0.676973	-0.000076	0.040053
C227	C	1.010306	0.333258	0.373387
C228	C	1.343640	0.666591	0.706720
C229	C	0.675966	-0.000076	0.124066
C230	C	1.009299	0.333258	0.457399
C231	C	1.342632	0.666591	0.790733
N232	N	0.672648	0.153185	-0.098324
N233	N	1.005982	0.486519	0.235009
N234	N	1.339315	0.819852	0.568343
C235	C	0.668274	-0.000063	-0.236765
C236	C	1.001608	0.333271	0.096568
C237	C	1.334941	0.666604	0.429901
C238	C	0.669282	-0.000059	-0.320778
C239	C	1.002615	0.333275	0.012555
C240	C	1.335948	0.666608	0.345888
C241	C	0.727385	-0.000082	0.172961
C242	C	1.060718	0.333251	0.506294
C243	C	1.394052	0.666584	0.839627
C244	C	0.726435	-0.000077	0.251899
C245	C	1.059768	0.333256	0.585232
C246	C	1.393102	0.666590	0.918565
C247	C	0.674066	-0.000069	0.281941
C248	C	1.007399	0.333264	0.615274
C249	C	1.340732	0.666597	0.948608
C250	C	0.622642	-0.000061	0.233040
C251	C	0.955976	0.333273	0.566373
C252	C	1.289309	0.666606	0.899707
C253	C	0.623593	-0.000062	0.154103
C254	C	0.956926	0.333271	0.487437
C255	C	1.290259	0.666605	0.820770
C256	C	0.618808	-0.000055	0.551383
C257	C	0.952142	0.333278	0.884716
C258	C	1.285475	0.666611	1.218049
C259	C	0.617862	-0.000056	0.630326
C260	C	0.951195	0.333277	0.963659
C261	C	1.284529	0.666611	1.296992
C262	C	0.721651	-0.000071	0.649178
C263	C	1.054984	0.333263	0.982511
C264	C	1.388317	0.666596	1.315845
C265	C	0.722601	-0.000072	0.570241
C266	C	1.055934	0.333262	0.903575
C267	C	1.389268	0.666595	1.236908
C268	C	0.671178	-0.000060	0.521348
C269	C	1.004512	0.333273	0.854681
C270	C	1.337845	0.666606	1.188014
C271	C	0.672209	-0.000065	0.435754
C272	C	1.005542	0.333268	0.769087
C273	C	1.338875	0.666602	1.102421
C274	C	0.673034	-0.000069	0.367533
C275	C	1.006368	0.333265	0.700866
C276	C	1.339701	0.666598	1.034200
H277	H	0.499756	0.097232	-0.103584
H278	H	0.833090	0.430565	0.229750
H279	H	1.166423	0.763899	0.563083
H280	H	0.768306	-0.000084	0.291706
H281	H	1.101639	0.333250	0.625040
H282	H	1.434973	0.666583	0.958373
H283	H	0.575214	-0.000051	0.654782
H284	H	0.908547	0.333282	0.988116
H285	H	1.241880	0.666616	1.321449
Cl286	Cl	0.378843	-0.121105	-0.101672
Cl287	Cl	0.712176	0.212229	0.231661
Cl288	Cl	1.045510	0.545562	0.564995
Cl289	Cl	0.239675	0.174593	-0.099359
Cl290	Cl	0.573009	0.507927	0.233974
Cl291	Cl	0.906342	0.841260	0.567308
Cl292	Cl	0.585059	-0.715041	-0.215117
Cl293	Cl	0.918392	-0.381707	0.118216
Cl294	Cl	1.251726	-0.048374	0.451550
H295	H	0.391984	0.097232	-0.101861
H296	H	0.725317	0.430566	0.231473
H297	H	1.058650	0.763899	0.564806
Cl298	Cl	0.760223	-0.854761	0.018458
Cl299	Cl	1.093556	-0.521428	0.351791
Cl300	Cl	1.426890	-0.188094	0.685125
Cl301	Cl	0.760185	-0.145349	0.018398
Cl302	Cl	1.093519	0.187984	0.351732
Cl303	Cl	1.426852	0.521317	0.685065
H304	H	0.118767	0.150843	-0.097435
H305	H	0.452100	0.484176	0.235898
H306	H	0.785434	0.817509	0.569231
Cl307	Cl	0.554162	-0.000039	0.489926
Cl308	Cl	0.887495	0.333294	0.823260
Cl309	Cl	1.220829	0.666627	1.156593
H310	H	0.226500	-0.150981	-0.099239
H311	H	0.559834	0.182352	0.234095
H312	H	0.893167	0.515686	0.567428
H313	H	0.602261	-0.841068	-0.192201
H314	H	0.935595	-0.507734	0.141132
H315	H	1.268928	-0.174401	0.474466
Cl316	Cl	0.788440	-0.000080	0.532479
Cl317	Cl	1.121773	0.333254	0.865812
Cl318	Cl	1.455106	0.666587	1.199146
H319	H	0.602221	-0.271428	-0.192244
H320	H	0.935554	0.061905	0.141089
H321	H	1.268887	0.395239	0.474422
H322	H	0.580002	-0.000051	0.257506
H323	H	0.913335	0.333283	0.590840
H324	H	1.246669	0.666616	0.924173
H325	H	0.581722	-0.000056	0.114293
H326	H	0.915055	0.333277	0.447627
H327	H	1.248389	0.666610	0.780960
H328	H	0.743004	-0.271386	-0.004489
H329	H	1.076338	0.061948	0.328844
H330	H	1.409671	0.395281	0.662177
Cl331	Cl	0.786298	-0.000083	0.710650
Cl332	Cl	1.119631	0.333250	1.043983
Cl333	Cl	1.452964	0.666584	1.377316
Cl334	Cl	0.512900	-0.121092	-0.103840
Cl335	Cl	0.846233	0.212241	0.229493
Cl336	Cl	1.179567	0.545575	0.562827
Cl337	Cl	0.793225	-0.000098	0.135202
Cl338	Cl	1.126558	0.333235	0.468535
Cl339	Cl	1.459892	0.666568	0.801868
Cl340	Cl	0.798995	-0.430170	0.070174
Cl341	Cl	1.132329	-0.096836	0.403507
Cl342	Cl	1.465662	0.236497	0.736840
Cl343	Cl	0.546237	-0.569953	-0.266848
Cl344	Cl	0.879571	-0.236619	0.066485
Cl345	Cl	1.212904	0.096714	0.399819
Cl346	Cl	0.546229	-0.430211	-0.266850
Cl347	Cl	0.879562	-0.096878	0.066484
Cl348	Cl	1.212895	0.236455	0.399817
H349	H	0.118752	-0.150985	-0.097509
H350	H	0.452085	0.182348	0.235825
H351	H	0.785419	0.515681	0.569158
Cl352	Cl	-0.033587	-0.121122	-0.095072
Cl353	Cl	0.299747	0.212211	0.238261
Cl354	Cl	0.633080	0.545544	0.571595
Cl355	Cl	-0.167665	-0.121120	-0.092922
Cl356	Cl	0.165669	0.212213	0.240411
Cl357	Cl	0.499002	0.545546	0.573745
Cl358	Cl	-0.167646	0.120956	-0.092894
Cl359	Cl	0.165688	0.454289	0.240440
Cl360	Cl	0.499021	0.787622	0.573773
H361	H	0.781817	-0.556201	0.047269
H362	H	1.115150	-0.222868	0.380603
H363	H	1.448484	0.110466	0.713936
Cl364	Cl	0.760221	-0.715000	0.018455
Cl365	Cl	1.093554	-0.381666	0.351789
Cl366	Cl	1.426888	-0.048333	0.685122
Cl367	Cl	0.585030	-0.145381	-0.215161
Cl368	Cl	0.918363	0.187952	0.118173
Cl369	Cl	1.251697	0.521285	0.451506
H370	H	-0.046739	0.097212	-0.094818
H371	H	0.286594	0.430545	0.238515
H372	H	0.619927	0.763879	0.571849
