data_functionalizedCrystal
_audit_creation_method	'MofGen! by Chris Wilmer'
_symmetry_space_group_name_H-M	'P1'
_symmetry_Int_Tables_number	1
_symmetry_cell_setting	triclinic
loop_
_symmetry_equiv_pos_as_xyz
  x,y,z
_cell_length_a	16.956995
_cell_length_b	16.053811
_cell_length_c	16.956995
_cell_angle_alpha	92.373810
_cell_angle_beta	76.054471
_cell_angle_gamma	87.607598
loop_
_atom_site_label
_atom_site_type_symbol
_atom_site_fract_x
_atom_site_fract_y
_atom_site_fract_z
O1	O	1.059454	-0.069486	0.029595
O2	O	1.559454	0.430514	0.529595
O3	O	0.825443	-0.069475	0.057711
O4	O	1.325443	0.430525	0.557711
O5	O	0.956506	-0.069478	-0.073352
O6	O	1.456506	0.430522	0.426648
O7	O	0.928390	-0.069483	0.160658
O8	O	1.428390	0.430517	0.660658
O9	O	0.949293	0.069381	-0.066165
O10	O	1.449293	0.569381	0.433835
O11	O	0.818230	0.069385	0.064898
O12	O	1.318230	0.569385	0.564898
O13	O	1.052240	0.069373	0.036781
O14	O	1.552240	0.569373	0.536781
Zn15	Zn	0.934090	0.091426	0.051981
Zn16	Zn	1.434090	0.591426	0.551981
Zn17	Zn	0.943593	-0.091527	0.042512
Zn18	Zn	1.443593	0.408473	0.542512
O19	O	0.921177	0.069376	0.167845
O20	O	1.421177	0.569376	0.667845
C21	C	0.792033	-0.000044	0.062744
C22	C	1.292033	0.499956	0.562744
C23	C	0.703230	-0.000039	0.067024
C24	C	1.203230	0.499961	0.567024
N25	N	0.927610	0.216286	0.058442
N26	N	1.427610	0.716286	0.558442
C27	C	0.201821	-0.000071	0.099040
C28	C	0.701821	0.499929	0.599040
C29	C	0.285262	-0.000070	0.095013
C30	C	0.785262	0.499930	0.595013
C31	C	0.341333	-0.000062	0.019412
C32	C	0.841333	0.499938	0.519412
C33	C	0.313960	-0.000064	-0.052166
C34	C	0.813960	0.499936	0.447834
C35	C	0.230521	-0.000070	-0.048138
C36	C	0.730521	0.499930	0.451862
C37	C	0.592419	-0.000047	-0.000526
C38	C	1.092419	0.499953	0.499474
C39	C	0.675862	-0.000038	-0.004548
C40	C	1.175862	0.499962	0.495452
C41	C	0.647159	-0.000046	0.142631
C42	C	1.147159	0.499954	0.642631
C43	C	0.563719	-0.000048	0.146652
C44	C	1.063719	0.499952	0.646652
C45	C	0.536354	-0.000054	0.075074
C46	C	1.036354	0.499946	0.575074
N47	N	0.426623	-0.000059	0.015294
N48	N	0.926623	0.499941	0.515294
N49	N	0.451065	-0.000063	0.079193
N50	N	0.951065	0.499937	0.579193
C51	C	0.983395	0.259979	0.002692
C52	C	1.483395	0.759979	0.502692
C53	C	0.978869	0.347386	0.007219
C54	C	1.478869	0.847386	0.507219
C55	C	0.918561	0.391098	0.067500
C56	C	1.418561	0.891098	0.567500
C57	C	0.862770	0.347400	0.123253
C58	C	1.362770	0.847400	0.623253
C59	C	0.867293	0.259994	0.118722
C60	C	1.367293	0.759994	0.618722
C61	C	0.898806	0.652508	0.087270
C62	C	1.398806	1.152508	0.587270
C63	C	0.894288	0.739920	0.091798
C64	C	1.394288	1.239920	0.591798
C65	C	1.010387	0.739900	-0.024237
C66	C	1.510387	1.239900	0.475763
C67	C	1.014908	0.652493	-0.028760
C68	C	1.514908	1.152493	0.471240
C69	C	0.959114	0.608802	0.026990
C70	C	1.459114	1.108802	0.526990
N71	N	0.913934	0.480442	0.072131
N72	N	1.413934	0.980442	0.572131
N73	N	0.963737	0.519459	0.022356
N74	N	1.463737	1.019459	0.522356
C75	C	1.085650	-0.000060	0.031748
C76	C	1.585650	0.499940	0.531748
C77	C	1.174453	-0.000070	0.027468
C78	C	1.674453	0.499930	0.527468
C79	C	0.954339	-0.000049	-0.099562
C80	C	1.454339	0.499951	0.400438
C81	C	0.958619	-0.000052	-0.188364
C82	C	1.458619	0.499948	0.311636
N83	N	0.950073	0.783612	0.036048
N84	N	1.450073	1.283612	0.536048
C85	C	0.990637	-0.000057	-0.689775
C86	C	1.490637	0.499943	-0.189775
C87	C	0.986609	-0.000052	-0.606334
C88	C	1.486609	0.499948	-0.106334
C89	C	0.911008	-0.000052	-0.550263
C90	C	1.411008	0.499948	-0.050263
C91	C	0.839430	-0.000049	-0.577636
C92	C	1.339430	0.499951	-0.077636
C93	C	0.843459	-0.000048	-0.661075
C94	C	1.343459	0.499952	-0.161075
C95	C	0.891069	-0.000049	-0.299177
C96	C	1.391069	0.499951	0.200823
C97	C	0.887046	-0.000052	-0.215733
C98	C	1.387046	0.499948	0.284267
C99	C	1.034226	-0.000053	-0.244437
C100	C	1.534226	0.499947	0.255563
C101	C	1.038248	-0.000057	-0.327876
C102	C	1.538248	0.499943	0.172124
C103	C	0.966670	-0.000050	-0.355242
C104	C	1.466670	0.499950	0.144758
N105	N	0.906889	-0.000049	-0.464973
N106	N	1.406889	0.499951	0.035027
N107	N	0.970789	-0.000047	-0.440530
N108	N	1.470789	0.499953	0.059470
C109	C	0.923344	-0.000054	0.194054
C110	C	1.423344	0.499946	0.694054
C111	C	0.919065	-0.000057	0.282856
C112	C	1.419065	0.499943	0.782856
H113	H	0.156173	-0.000071	0.160603
H114	H	0.656173	0.499929	0.660603
C115	C	0.837442	0.604459	0.148599
C116	C	1.337442	1.104459	0.648599
H117	H	0.800885	0.643014	0.185153
H118	H	1.300885	1.143014	0.685153
H119	H	0.807767	0.570376	0.120204
H120	H	1.307767	1.070376	0.620204
H121	H	0.865819	0.570350	0.178291
H122	H	1.365819	1.070350	0.678291
H123	H	1.055811	0.775481	-0.069627
H124	H	1.555811	1.275481	0.430373
C125	C	0.200412	-0.000069	-0.126865
C126	C	0.700412	0.499931	0.373135
H127	H	0.142689	-0.000083	-0.113640
H128	H	0.642689	0.499917	0.386360
H129	H	0.217458	0.048355	-0.155256
H130	H	0.717458	0.548355	0.344744
H131	H	0.222505	-0.048497	-0.160266
H132	H	0.722505	0.451503	0.339734
C133	C	0.315363	-0.000061	0.173743
C134	C	0.815363	0.499939	0.673743
H135	H	0.270019	-0.000054	0.219345
H136	H	0.770019	0.499946	0.719345
H137	H	0.349838	-0.048480	0.172731
H138	H	0.849838	0.451520	0.672731
H139	H	0.344793	0.048372	0.177733
H140	H	0.844793	0.548372	0.677733
H141	H	1.092501	-0.000066	-0.222146
H142	H	1.592501	0.499934	0.277854
H143	H	0.570148	-0.000049	-0.058810
H144	H	1.070148	0.499951	0.441190
H145	H	1.024293	0.382960	-0.038177
H146	H	1.524293	0.882960	0.461823
C147	C	1.081242	0.604415	-0.095074
C148	C	1.581242	1.104415	0.404926
H149	H	1.113814	0.642956	-0.127633
H150	H	1.613814	1.142956	0.372367
H151	H	1.114442	0.570302	-0.070211
H152	H	1.614442	1.070302	0.429789
H153	H	1.056391	0.570334	-0.128299
H154	H	1.556391	1.070334	0.371701
C155	C	0.737540	-0.000045	-0.087713
C156	C	1.237540	0.499955	0.412287
H157	H	0.709293	-0.000060	-0.129767
H158	H	1.209293	0.499940	0.370233
H159	H	0.768169	0.048379	-0.089844
H160	H	1.268169	0.548379	0.410156
H161	H	0.773203	-0.048474	-0.094839
H162	H	1.273203	0.451526	0.405161
H163	H	0.832786	-0.000053	-0.321447
H164	H	1.332786	0.499947	0.178553
C165	C	1.065337	-0.000048	-0.576228
C166	C	1.565337	0.499952	-0.076228
H167	H	1.052112	-0.000036	-0.518504
H168	H	1.552112	0.499964	-0.018504
H169	H	1.098754	-0.048470	-0.598301
H170	H	1.598754	0.451530	-0.098301
H171	H	1.093710	0.048382	-0.593297
H172	H	1.593710	0.548382	-0.093297
H173	H	0.813662	0.382996	0.172333
H174	H	1.313662	0.882996	0.672333
C175	C	0.805932	0.211932	0.180050
C176	C	1.305932	0.711932	0.680050
H177	H	0.769372	0.250483	0.216605
H178	H	1.269372	0.750483	0.716605
H179	H	0.776262	0.177849	0.151651
H180	H	1.276262	0.677849	0.651651
H181	H	0.834310	0.177824	0.209741
H182	H	1.334310	0.677824	0.709741
H183	H	0.845176	0.775507	0.140890
H184	H	1.345176	1.275507	0.640890
C185	C	0.375632	-0.000062	-0.135327
C186	C	0.875632	0.499938	0.364673
H187	H	0.347380	-0.000072	-0.177377
H188	H	0.847380	0.499928	0.322623
H189	H	0.406260	0.048362	-0.137454
H190	H	0.906260	0.548362	0.362546
H191	H	0.411296	-0.048491	-0.142462
H192	H	0.911296	0.451509	0.357538
H193	H	1.099810	-0.000054	-0.373525
H194	H	1.599810	0.499946	0.126475
H195	H	1.052200	-0.000064	-0.735424
H196	H	1.552200	0.499936	-0.235424
H197	H	1.032507	0.224393	-0.046392
H198	H	1.532507	0.724393	0.453608
H199	H	0.825480	-0.000049	-0.170079
H200	H	1.325480	0.499951	0.329921
H201	H	0.777874	-0.000044	-0.531976
H202	H	1.277874	0.499956	-0.031976
C203	C	0.764729	-0.000055	-0.691181
C204	C	1.264729	0.499945	-0.191181
H205	H	0.719127	-0.000064	-0.645838
H206	H	1.219127	0.499936	-0.145838
H207	H	0.760721	0.048367	-0.720629
H208	H	1.260721	0.548367	-0.220629
H209	H	0.765763	-0.048486	-0.725639
H210	H	1.265763	0.451514	-0.225639
H211	H	0.669449	-0.000043	0.200906
H212	H	1.169449	0.499957	0.700906
C213	C	0.502047	-0.000058	0.229813
C214	C	1.002047	0.499942	0.729813
H215	H	0.530298	-0.000064	0.271863
H216	H	1.030298	0.499936	0.771863
H217	H	0.466380	0.048363	0.236951
H218	H	0.966380	0.548363	0.736951
H219	H	0.471423	-0.048490	0.231934
H220	H	0.971423	0.451510	0.731934
