data_functionalizedCrystal
_audit_creation_method	'MofGen! by Chris Wilmer'
_symmetry_space_group_name_H-M	'P1'
_symmetry_Int_Tables_number	1
_symmetry_cell_setting	triclinic
loop_
_symmetry_equiv_pos_as_xyz
  x,y,z
_cell_length_a	13.033293
_cell_length_b	14.908178
_cell_length_c	13.033388
_cell_angle_alpha	86.530735
_cell_angle_beta	90.907614
_cell_angle_gamma	100.025217
loop_
_atom_site_label
_atom_site_type_symbol
_atom_site_fract_x
_atom_site_fract_y
_atom_site_fract_z
Zn1	Zn	1.482148	-0.280436	0.760637
Zn2	Zn	1.496513	-0.409791	0.579072
Zn3	Zn	1.332338	-0.275615	0.567179
Zn4	Zn	1.300564	-0.447382	0.726316
O5	O	1.402891	-0.353306	0.658301
O6	O	1.628754	-0.283880	0.755893
O7	O	1.494044	-0.374243	0.434909
O8	O	1.359497	-0.150233	0.602228
O9	O	1.639308	-0.378917	0.622498
O10	O	1.469561	-0.153775	0.744361
O11	O	1.373426	-0.275664	0.426171
O12	O	1.183423	-0.312115	0.568948
O13	O	1.305342	-0.442986	0.873454
O14	O	1.160078	-0.438312	0.685865
O15	O	1.438751	-0.320331	0.898670
O16	O	1.463234	-0.540799	0.589217
O17	O	1.319272	-0.568417	0.697397
C18	C	1.134231	-0.378770	0.622392
C19	C	1.019293	-0.389688	0.607053
C20	C	0.962809	-0.347630	0.666305
C21	C	0.844014	-0.358914	0.650452
C22	C	1.389389	-0.587284	0.640899
C23	C	1.383703	-0.687376	0.633501
C24	C	1.487508	-0.879024	0.767730
C25	C	1.482169	-0.973070	0.760783
C26	C	1.367679	-0.969515	0.612666
C27	C	1.373018	-0.875469	0.619613
C28	C	1.432936	-0.830227	0.697146
C29	C	1.438281	-0.736179	0.704088
C30	C	1.323786	-0.732627	0.555976
C31	C	1.318446	-0.826672	0.549029
C32	C	1.672599	-0.327743	0.694351
C33	C	1.787533	-0.316850	0.709713
C34	C	1.366900	-0.386390	0.924066
C35	C	1.351562	-0.400488	1.037319
C36	C	1.416470	-0.118415	0.675797
C37	C	1.422257	-0.018318	0.683252
C38	C	1.394895	-0.360661	1.217343
C39	C	1.410742	-0.346083	1.100289
C40	C	1.438732	-0.320369	1.393567
C41	C	1.454066	-0.306263	1.280314
H42	H	1.487073	-0.699343	0.767217
H43	H	0.827118	-0.272481	0.772177
H44	H	0.804429	-0.403275	0.587982
C45	C	1.016276	-0.287702	0.750693
H46	H	0.965435	-0.262774	0.785807
H47	H	1.050435	-0.323755	0.798040
H48	H	1.065934	-0.239590	0.720285
C49	C	1.538349	-0.228762	1.236092
H50	H	1.573412	-0.196519	1.290778
H51	H	1.586994	-0.253802	1.198016
H52	H	1.506631	-0.188138	1.192213
H53	H	1.279353	-0.692885	0.498500
C54	C	0.965820	-0.449620	0.522671
H55	H	0.892990	-0.449348	0.523092
H56	H	0.993486	-0.426171	0.457556
H57	H	0.977983	-0.510329	0.535321
H58	H	1.473132	-0.288710	1.067548
H59	H	1.526601	-1.012798	0.818263
C60	C	1.553398	-0.829258	0.853021
H61	H	1.585127	-0.871792	0.894071
H62	H	1.605844	-0.783419	0.822836
H63	H	1.509856	-0.801875	0.894797
C64	C	1.301781	-1.019291	0.527386
H65	H	1.306424	-1.082288	0.533358
H66	H	1.231151	-1.012367	0.534075
H67	H	1.327131	-0.993932	0.462104
H68	H	1.269660	-0.863522	0.485906
C69	C	1.310610	-0.438158	1.261569
H70	H	1.311021	-0.437793	1.334441
H71	H	1.244232	-0.429416	1.235874
H72	H	1.324592	-0.495082	1.241688
C73	C	1.267280	-0.477996	1.081539
H74	H	1.267691	-0.477635	1.154411
H75	H	1.200899	-0.469261	1.055846
H76	H	1.281271	-0.534916	1.061653
