data_functionalizedCrystal
_audit_creation_method	'MofGen! by Chris Wilmer'
_symmetry_space_group_name_H-M	'P1'
_symmetry_Int_Tables_number	1
_symmetry_cell_setting	triclinic
loop_
_symmetry_equiv_pos_as_xyz
  x,y,z
_cell_length_a	14.044220
_cell_length_b	10.654550
_cell_length_c	9.730223
_cell_angle_alpha	89.995798
_cell_angle_beta	90.006515
_cell_angle_gamma	91.163110
loop_
_atom_site_label
_atom_site_type_symbol
_atom_site_fract_x
_atom_site_fract_y
_atom_site_fract_z
O1	O	0.133233	-1.681223	0.114408
O2	O	0.145926	-1.317020	0.114387
O3	O	0.001559	-1.493655	0.114384
O4	O	0.277600	-1.504588	0.114411
O5	O	0.001552	-1.493651	-0.114196
O6	O	0.145919	-1.317017	-0.114193
O7	O	0.133226	-1.681220	-0.114172
Zn8	Zn	0.139571	-1.499118	-0.150474
Zn9	Zn	0.139581	-1.499122	0.150689
O10	O	0.277593	-1.504585	-0.114169
C11	C	-0.033790	-1.488867	0.000093
C12	C	-0.139110	-1.474592	0.000090
C13	C	0.144991	-1.270127	0.000094
C14	C	0.142202	-1.130403	0.000085
C15	C	0.134161	-1.728113	0.000124
C16	C	0.136950	-1.867836	0.000142
C17	C	-0.331943	-1.448493	0.000108
C18	C	-0.388911	-1.549741	0.000119
C19	C	-0.496210	-1.535219	0.000129
C20	C	-0.224634	-1.463013	0.000098
C21	C	0.312942	-1.509372	0.000125
C22	C	0.418262	-1.523648	0.000137
C23	C	0.227203	-1.059459	0.000114
C24	C	0.224578	-0.928175	0.000137
C25	C	0.051942	-0.938790	0.000109
C26	C	0.054569	-1.070072	0.000076
C27	C	0.314837	-1.119790	0.000123
C28	C	0.399845	-1.048846	0.000153
C29	C	0.397219	-0.917561	0.000177
C30	C	0.309585	-0.857221	0.000170
N31	N	0.139580	-1.499125	0.356226
N32	N	0.139564	-1.499124	-0.356011
C33	C	0.075780	-1.577510	0.428151
C34	C	0.075774	-1.577514	0.572034
C35	C	0.203371	-1.420735	0.572054
C36	C	0.203381	-1.420739	0.428174
C37	C	0.011979	-1.655896	0.356202
C38	C	-0.051827	-1.734287	0.428127
C39	C	-0.051833	-1.734290	0.572010
C40	C	0.011967	-1.655902	0.643968
H41	H	-0.357098	-1.647328	0.000217
Cl42	Cl	0.510007	-1.124700	0.000146
H43	H	-0.363754	-1.350913	0.000106
Cl44	Cl	-0.132036	-1.832846	0.662429
Cl45	Cl	0.011963	-1.655923	0.824852
Cl46	Cl	0.318144	-1.284833	0.000101
Cl47	Cl	-0.132020	-1.832837	0.337670
H48	H	0.255314	-1.356914	0.630652
Cl49	Cl	0.504084	-0.828377	0.000201
H50	H	0.255334	-1.356912	0.369612
H51	H	0.307454	-0.750320	0.000168
H52	H	-0.019405	-0.889650	0.000126
H53	H	-0.014647	-1.127836	0.000056
H54	H	0.011976	-1.655898	0.239046
