data_functionalizedCrystal
_audit_creation_method	'MofGen! by Chris Wilmer'
_symmetry_space_group_name_H-M	'P1'
_symmetry_Int_Tables_number	1
_symmetry_cell_setting	triclinic
loop_
_symmetry_equiv_pos_as_xyz
  x,y,z
_cell_length_a	21.395362
_cell_length_b	17.640280
_cell_length_c	21.395355
_cell_angle_alpha	101.215078
_cell_angle_beta	90.043940
_cell_angle_gamma	78.812025
loop_
_atom_site_label
_atom_site_type_symbol
_atom_site_fract_x
_atom_site_fract_y
_atom_site_fract_z
Zn1	Zn	1.008318	-0.314390	0.304290
Zn2	Zn	1.341651	0.018944	0.637623
Zn3	Zn	1.674985	0.352277	0.970957
Zn4	Zn	1.029429	-0.446530	0.178373
Zn5	Zn	1.362762	-0.113197	0.511706
Zn6	Zn	1.696095	0.220136	0.845040
Zn7	Zn	0.903539	-0.314427	0.199486
Zn8	Zn	1.236872	0.018907	0.532819
Zn9	Zn	1.570205	0.352240	0.866152
Zn10	Zn	0.924713	-0.446546	0.283075
Zn11	Zn	1.258046	-0.113213	0.616409
Zn12	Zn	1.591379	0.220120	0.949742
O13	O	0.966500	-0.380473	0.241306
O14	O	1.299833	-0.047140	0.574639
O15	O	1.633166	0.286193	0.907973
O16	O	1.098793	-0.331896	0.287630
O17	O	1.432126	0.001437	0.620963
O18	O	1.765459	0.334770	0.954297
O19	O	1.012702	-0.429015	0.093494
O20	O	1.346036	-0.095682	0.426828
O21	O	1.679369	0.237652	0.760161
O22	O	0.899742	-0.203828	0.231102
O23	O	1.233075	0.129506	0.564436
O24	O	1.566408	0.462839	0.897769
O25	O	1.114303	-0.428979	0.195119
O26	O	1.447636	-0.095646	0.528452
O27	O	1.780969	0.237687	0.861786
O28	O	0.976723	-0.203801	0.308102
O29	O	1.310056	0.129533	0.641435
O30	O	1.643389	0.462866	0.974768
O31	O	0.920212	-0.331959	0.109006
O32	O	1.253545	0.001374	0.442339
O33	O	1.586879	0.334708	0.775672
O34	O	0.818673	-0.331975	0.210531
O35	O	1.152007	0.001359	0.543864
O36	O	1.485340	0.334692	0.877198
O37	O	0.935830	-0.429007	0.373569
O38	O	1.269163	-0.095674	0.706902
O39	O	1.602496	0.237660	1.040235
O40	O	0.834230	-0.429043	0.271944
O41	O	1.167563	-0.095709	0.605277
O42	O	1.500896	0.237624	0.938611
O43	O	0.997254	-0.331912	0.389155
O44	O	1.330587	0.001421	0.722489
O45	O	1.663921	0.334755	1.055822
O46	O	1.033234	-0.557126	0.174548
O47	O	1.366567	-0.223793	0.507881
O48	O	1.699901	0.109540	0.841215
O49	O	0.956300	-0.557138	0.251472
O50	O	1.289633	-0.223805	0.584805
O51	O	1.622966	0.109528	0.918139
C52	C	0.803719	-0.380515	0.241227
C53	C	1.137052	-0.047182	0.574560
C54	C	1.470385	0.286152	0.907893
C55	C	0.734083	-0.380552	0.241204
C56	C	1.067417	-0.047219	0.574538
C57	C	1.400750	0.286115	0.907871
C58	C	0.709497	-0.431162	0.273111
C59	C	1.042831	-0.097829	0.606445
C60	C	1.376164	0.235504	0.939778
C61	C	0.644059	-0.431143	0.273143
C62	C	0.977392	-0.097809	0.606476
C63	C	1.310726	0.235524	0.939809
C64	C	0.603210	-0.380521	0.241254
C65	C	0.936543	-0.047188	0.574587
C66	C	1.269877	0.286145	0.907921
C67	C	0.627802	-0.329901	0.209346
C68	C	0.961135	0.003432	0.542679
C69	C	1.294469	0.336765	0.876012
C70	C	0.693239	-0.329917	0.209321
C71	C	1.026572	0.003417	0.542654
C72	C	1.359905	0.336750	0.875988
C73	C	0.498463	-0.374155	0.185867
C74	C	0.831797	-0.040821	0.519201
C75	C	1.165130	0.292512	0.852534
C76	C	0.433029	-0.374145	0.185890
C77	C	0.766362	-0.040812	0.519223
C78	C	1.099696	0.292522	0.852557
C79	C	0.401381	-0.380470	0.241331
C80	C	0.734714	-0.047137	0.574665
C81	C	1.068048	0.286197	0.907998
C82	C	0.435178	-0.386821	0.296749
C83	C	0.768512	-0.053488	0.630082
C84	C	1.101845	0.279846	0.963416
C85	C	0.500615	-0.386836	0.296724
C86	C	0.833948	-0.053503	0.630058
C87	C	1.167282	0.279830	0.963391
C88	C	0.532254	-0.380499	0.241278
C89	C	0.865587	-0.047166	0.574611
C90	C	1.198921	0.286168	0.907944
C91	C	0.305840	-0.431062	0.273275
C92	C	0.639173	-0.097729	0.606608
C93	C	0.972507	0.235605	0.939942
C94	C	0.240399	-0.431037	0.273308
C95	C	0.573733	-0.097704	0.606641
C96	C	0.907066	0.235630	0.939975
C97	C	0.224144	-0.329800	0.209505
C98	C	0.557478	0.003534	0.542838
C99	C	0.890811	0.336867	0.876172
C100	C	0.289583	-0.329820	0.209478
C101	C	0.622916	0.003513	0.542812
C102	C	0.956250	0.336846	0.876145
C103	C	0.330428	-0.380456	0.241362
C104	C	0.663761	-0.047122	0.574695
C105	C	0.997094	0.286211	0.908028
C106	C	0.999372	-0.585808	0.208431
C107	C	1.332706	-0.252475	0.541764
C108	C	1.666039	0.080859	0.875097
C109	C	1.013493	-0.673651	0.194387
C110	C	1.346826	-0.340318	0.527721
C111	C	1.680159	-0.006984	0.861054
C112	C	0.859485	-0.962724	0.348219
C113	C	1.192818	-0.629391	0.681552
C114	C	1.526152	-0.296058	1.014886
C115	C	0.872755	-1.045266	0.335003
C116	C	1.206088	-0.711933	0.668337
C117	C	1.539421	-0.378600	1.001670
C118	C	0.952916	-1.045188	0.254983
C119	C	1.286249	-0.711855	0.588317
C120	C	1.619583	-0.378522	0.921650
C121	C	0.939655	-0.962645	0.268194
C122	C	1.272989	-0.629311	0.601528
C123	C	1.606322	-0.295978	0.934861
C124	C	0.892939	-0.921419	0.314813
C125	C	1.226272	-0.588086	0.648146
C126	C	1.559605	-0.254753	0.981479
C127	C	0.973109	-0.921340	0.234788
C128	C	1.306442	-0.588006	0.568121
C129	C	1.639776	-0.254673	0.901455
C130	C	0.959847	-0.838803	0.247996
C131	C	1.293180	-0.505470	0.581329
C132	C	1.626513	-0.172137	0.914663
C133	C	0.913131	-0.797572	0.294610
C134	C	1.246464	-0.464239	0.627944
C135	C	1.579798	-0.130905	0.961277
C136	C	0.879677	-0.838883	0.328021
C137	C	1.213010	-0.505550	0.661354
C138	C	1.546343	-0.172216	0.994687
C139	C	1.019822	-0.962567	0.188167
C140	C	1.353155	-0.629233	0.521500
C141	C	1.686489	-0.295900	0.854834
C142	C	1.053276	-0.921262	0.154760
C143	C	1.386609	-0.587928	0.488094
C144	C	1.719942	-0.254595	0.821427
C145	C	1.040017	-0.838724	0.167971
C146	C	1.373350	-0.505390	0.501305
C147	C	1.706684	-0.172057	0.834638
C148	C	0.993301	-0.797492	0.214586
C149	C	1.326635	-0.464159	0.547919
C150	C	1.659968	-0.130826	0.881253
C151	C	1.073472	-0.797413	0.134561
C152	C	1.406805	-0.464080	0.467895
C153	C	1.740138	-0.130746	0.801228
C154	C	1.060209	-0.714877	0.147769
C155	C	1.393543	-0.381543	0.481103
C156	C	1.726876	-0.048210	0.814436
C157	C	0.980039	-0.714956	0.227794
C158	C	1.313373	-0.381623	0.561127
C159	C	1.646706	-0.048289	0.894461
C160	C	1.129916	-0.380432	0.241386
C161	C	1.463250	-0.047099	0.574719
C162	C	1.796583	0.286235	0.908053
C163	C	1.199555	-0.380414	0.241420
C164	C	1.532888	-0.047081	0.574753
C165	C	1.866221	0.286252	0.908087
C166	C	0.966549	-0.380457	0.404732
C167	C	1.299882	-0.047124	0.738065
C168	C	1.633216	0.286209	1.071399
C169	C	0.966570	-0.380450	0.474374
C170	C	1.299903	-0.047117	0.807708
C171	C	1.633237	0.286216	1.141041
C172	C	0.933515	-0.174337	0.274324
C173	C	1.266849	0.158997	0.607657
C174	C	1.600182	0.492330	0.940990
C175	C	0.919460	-0.086494	0.288394
C176	C	1.252793	0.246840	0.621727
C177	C	1.586126	0.580173	0.955060
C178	C	0.966477	-0.380432	0.078525
C179	C	1.299811	-0.047099	0.411858
C180	C	1.633144	0.286235	0.745192
C181	C	0.966542	-0.380216	0.008919
C182	C	1.299875	-0.046883	0.342252
C183	C	1.633208	0.286450	0.675585
C184	C	0.998552	-0.329891	0.515205
C185	C	1.331885	0.003442	0.848538
C186	C	1.665218	0.336776	1.181871
C187	C	0.998545	-0.329857	0.580646
C188	C	1.331879	0.003476	0.913979
C189	C	1.665212	0.336810	1.247312
C190	C	0.966566	-0.380397	0.605251
C191	C	1.299900	-0.047063	0.938585
C192	C	1.633233	0.286270	1.271918
C193	C	0.934577	-0.430960	0.564412
C194	C	1.267911	-0.097626	0.897746
C195	C	1.601244	0.235707	1.231079
C196	C	0.934579	-0.430986	0.498974
C197	C	1.267913	-0.097653	0.832307
C198	C	1.601246	0.235680	1.165641
C199	C	0.973012	-0.451559	0.697531
C200	C	1.306345	-0.118225	1.030864
C201	C	1.639678	0.215108	1.364197
C202	C	0.973014	-0.451533	0.762968
C203	C	1.306348	-0.118200	1.096301
C204	C	1.639681	0.215134	1.429635
C205	C	0.966557	-0.380313	0.807086
C206	C	1.299890	-0.046980	1.140419
C207	C	1.633223	0.286354	1.473752
C208	C	0.960109	-0.309116	0.785758
C209	C	1.293443	0.024217	1.119092
C210	C	1.626776	0.357550	1.452425
C211	C	0.960111	-0.309143	0.720320
C212	C	1.293444	0.024190	1.053653
C213	C	1.626778	0.357523	1.386987
C214	C	0.966560	-0.380373	0.676208
C215	C	1.299894	-0.047039	1.009541
C216	C	1.633227	0.286294	1.342874
C217	C	0.998533	-0.329712	0.918875
C218	C	1.331866	0.003621	1.252208
C219	C	1.665200	0.336954	1.585542
C220	C	0.998522	-0.329677	0.984317
C221	C	1.331855	0.003656	1.317651
C222	C	1.665189	0.336990	1.650984
C223	C	0.934559	-0.430787	0.968082
C224	C	1.267892	-0.097453	1.301415
C225	C	1.601225	0.235880	1.634749
C226	C	0.934565	-0.430815	0.902642
C227	C	1.267898	-0.097482	1.235975
C228	C	1.601232	0.235852	1.569309
C229	C	0.966556	-0.380279	0.878042
C230	C	1.299889	-0.046946	1.211376
C231	C	1.633222	0.286388	1.544709
H232	H	0.409412	-0.391970	0.341895
H233	H	0.742745	-0.058637	0.675228
H234	H	1.076079	0.274697	1.008562
F235	F	1.095810	-0.670914	0.112210
F236	F	1.429143	-0.337581	0.445543
F237	F	1.762476	-0.004247	0.778876
H238	H	0.990951	-1.078765	0.217025
H239	H	1.324284	-0.745432	0.550358
H240	H	1.657617	-0.412099	0.883692
H241	H	0.942002	-0.681389	0.265760
H242	H	1.275336	-0.348055	0.599093
H243	H	1.608669	-0.014722	0.932426
F244	F	0.899129	-0.709729	0.308781
F245	F	1.232462	-0.376395	0.642114
F246	F	1.565796	-0.043062	0.975447
F247	F	1.032596	-0.276102	0.489028
F248	F	1.365929	0.057231	0.822362
F249	F	1.699263	0.390564	1.155695
H250	H	0.845517	-1.078894	0.362218
H251	H	1.178850	-0.745561	0.695551
H252	H	1.512183	-0.412227	1.028885
F253	F	0.900541	-0.484745	0.590601
F254	F	1.233874	-0.151412	0.923934
F255	F	1.567207	0.181922	1.257267
F256	F	1.033953	-1.050410	0.174128
F257	F	1.367287	-0.717077	0.507461
F258	F	1.700620	-0.383744	0.840795
F259	F	0.532139	-0.367425	0.126854
F260	F	0.865473	-0.034091	0.460188
F261	F	1.198806	0.299242	0.793521
F262	F	0.536582	-0.393592	0.355702
F263	F	0.869915	-0.060259	0.689036
F264	F	1.203248	0.273075	1.022369
F265	F	0.900528	-0.484631	0.859185
F266	F	1.233861	-0.151298	1.192518
F267	F	1.567195	0.182036	1.525851
F268	F	1.102994	-0.965145	0.105148
F269	F	1.436327	-0.631812	0.438482
F270	F	1.769661	-0.298479	0.771815
H271	H	0.821448	-0.929157	0.386185
H272	H	1.154782	-0.595824	0.719518
H273	H	1.488115	-0.262490	1.052852
F274	F	0.953238	-0.233313	0.832707
F275	F	1.286572	0.100020	1.166040
F276	F	1.619905	0.433354	1.499374
F277	F	0.900539	-0.484801	0.455517
F278	F	1.233872	-0.151468	0.788851
F279	F	1.567205	0.181865	1.122184
H280	H	1.111504	-0.830991	0.096601
H281	H	1.444837	-0.497658	0.429934
H282	H	1.778170	-0.164325	0.763267
H283	H	0.339097	-0.472288	0.299240
H284	H	0.672430	-0.138955	0.632574
H285	H	1.005763	0.194379	0.965907
H286	H	0.742749	-0.472392	0.299075
H287	H	1.076083	-0.139059	0.632408
H288	H	1.409416	0.194274	0.965741
H289	H	1.024578	-0.288559	0.898846
H290	H	1.357911	0.044775	1.232179
H291	H	1.691244	0.378108	1.565512
F292	F	0.315750	-0.275955	0.175516
F293	F	0.649083	0.057378	0.508849
F294	F	0.982417	0.390711	0.842183
H295	H	0.594538	-0.288684	0.183383
H296	H	0.927872	0.044650	0.516717
H297	H	1.261205	0.377983	0.850050
H298	H	0.220383	-0.472248	0.299295
H299	H	0.553717	-0.138915	0.632628
H300	H	0.887050	0.194418	0.965961
H301	H	0.190885	-0.288579	0.183544
H302	H	0.524218	0.044754	0.516878
H303	H	0.857552	0.378088	0.850211
H304	H	0.405517	-0.368979	0.140765
H305	H	0.738850	-0.035645	0.474098
H306	H	1.072184	0.297688	0.807432
F307	F	0.719405	-0.276047	0.175360
F308	F	1.052738	0.057286	0.508693
F309	F	1.386071	0.390619	0.842027
H310	H	0.841640	-0.805315	0.365986
H311	H	1.174973	-0.471982	0.699320
H312	H	1.508306	-0.138649	1.032653
F313	F	1.032574	-0.276029	0.624110
F314	F	1.365907	0.057304	0.957444
F315	F	1.699240	0.390637	1.290777
H316	H	0.954860	-0.251173	0.702958
H317	H	1.288193	0.082161	1.036292
H318	H	1.621526	0.415494	1.369625
H319	H	1.024564	-0.288501	1.017562
H320	H	1.357897	0.044832	1.350895
H321	H	1.691230	0.378166	1.684229
H322	H	0.908513	-0.471929	0.988116
H323	H	1.241846	-0.138596	1.321450
H324	H	1.575180	0.194738	1.654783
H325	H	0.624037	-0.472355	0.299127
H326	H	0.957370	-0.139022	0.632461
H327	H	1.290704	0.194311	0.965794
H328	H	0.978268	-0.509506	0.780327
H329	H	1.311601	-0.176172	1.113660
H330	H	1.644935	0.157161	1.446993
H331	H	0.978100	-0.509540	0.661617
H332	H	1.311434	-0.176206	0.994950
H333	H	1.644767	0.157127	1.328283
