data_functionalizedCrystal
_audit_creation_method	'MofGen! by Chris Wilmer'
_symmetry_space_group_name_H-M	'P1'
_symmetry_Int_Tables_number	1
_symmetry_cell_setting	triclinic
loop_
_symmetry_equiv_pos_as_xyz
  x,y,z
_cell_length_a	12.759399
_cell_length_b	12.759401
_cell_length_c	12.759393
_cell_angle_alpha	90.021157
_cell_angle_beta	89.969094
_cell_angle_gamma	89.989281
loop_
_atom_site_label
_atom_site_type_symbol
_atom_site_fract_x
_atom_site_fract_y
_atom_site_fract_z
Zn1	Zn	-0.418339	-1.606263	-0.594023
Zn2	Zn	-0.594054	-1.606153	-0.418342
Zn3	Zn	-0.418376	-1.430562	-0.418358
Zn4	Zn	-0.593963	-1.430553	-0.593979
O5	O	-0.506183	-1.518383	-0.506175
O6	O	-0.441670	-1.753270	-0.570731
O7	O	-0.570804	-1.582818	-0.271323
O8	O	-0.271350	-1.453919	-0.441685
O9	O	-0.570768	-1.753189	-0.441659
O10	O	-0.271323	-1.583006	-0.570746
O11	O	-0.441735	-1.453812	-0.271334
O12	O	-0.441646	-1.283540	-0.441642
O13	O	-0.570612	-1.453903	-0.741006
O14	O	-0.570648	-1.283533	-0.570670
O15	O	-0.441582	-1.582997	-0.741038
O16	O	-0.741063	-1.582809	-0.441615
O17	O	-0.740996	-1.453796	-0.570655
C18	C	-0.506142	-1.245415	-0.506154
C19	C	-0.506150	-1.128639	-0.506169
C20	C	-0.439064	-0.964082	-0.573484
C21	C	-0.439051	-1.073807	-0.573480
C22	C	-0.573275	-1.073741	-0.438866
C23	C	-0.573293	-0.964019	-0.438876
C24	C	-0.779150	-1.518318	-0.506151
C25	C	-0.895927	-1.518387	-0.506176
C26	C	-0.950789	-1.585641	-0.439062
C27	C	-1.060513	-1.585708	-0.439097
C28	C	-1.060503	-1.451259	-0.573364
C29	C	-0.950781	-1.451198	-0.573334
C30	C	-0.232150	-1.518476	-0.506222
C31	C	-0.115373	-1.518516	-0.506242
C32	C	-0.506082	-1.518461	-0.780209
C33	C	-0.506039	-1.518495	-0.896986
C34	C	-0.506210	-0.792416	-0.506192
C35	C	-0.506182	-0.909193	-0.506184
C36	C	-0.438842	-1.585719	-0.951866
C37	C	-0.438797	-1.585737	-1.061590
C38	C	-0.573154	-1.451303	-1.061543
C39	C	-0.573194	-1.451281	-0.951821
C40	C	-0.506208	-1.518365	-0.233208
C41	C	-0.505955	-1.518535	-0.116432
H42	H	-0.384418	-0.919446	-0.628290
O43	O	-1.113629	-1.385956	-0.638691
C44	C	-1.041673	-1.326566	-0.697905
H45	H	-0.963425	-1.369554	-0.701559
H46	H	-1.073316	-1.315335	-0.780681
H47	H	-1.030094	-1.246786	-0.659359
O48	O	-0.897366	-1.385811	-0.638386
C49	C	-0.834015	-1.317933	-0.578493
H50	H	-0.817619	-1.355017	-0.498900
H51	H	-0.756831	-1.303795	-0.621252
H52	H	-0.876364	-1.240101	-0.566897
H53	H	-0.384077	-1.640476	-1.106269
H54	H	-0.627954	-0.919327	-0.384072
O55	O	-0.373506	-1.651034	-0.898760
C56	C	-0.314204	-1.710388	-0.970734
H57	H	-0.310534	-1.667371	-1.048941
H58	H	-0.231439	-1.721617	-0.939050
H59	H	-0.352685	-1.790171	-0.982410
H60	H	-0.627832	-1.396583	-1.106204
H61	H	-0.906129	-1.640352	-0.384380
H62	H	-1.105177	-1.640474	-0.384447
O63	O	-0.373751	-1.126964	-0.638886
C64	C	-0.314546	-1.055039	-0.698312
H65	H	-0.310870	-0.976808	-0.655288
H66	H	-0.231776	-1.086749	-0.709658
H67	H	-0.353114	-1.043402	-0.778039
H68	H	-0.627912	-1.118394	-0.384065
H69	H	-0.627913	-1.396532	-0.907136
