data_functionalizedCrystal
_audit_creation_method	'MofGen! by Chris Wilmer'
_symmetry_space_group_name_H-M	'P1'
_symmetry_Int_Tables_number	1
_symmetry_cell_setting	triclinic
loop_
_symmetry_equiv_pos_as_xyz
  x,y,z
_cell_length_a	14.519709
_cell_length_b	10.723024
_cell_length_c	9.798715
_cell_angle_alpha	89.998022
_cell_angle_beta	90.001928
_cell_angle_gamma	84.074007
loop_
_atom_site_label
_atom_site_type_symbol
_atom_site_fract_x
_atom_site_fract_y
_atom_site_fract_z
O1	O	1.224702	0.163572	-0.113310
O2	O	0.956324	0.182835	-0.113351
O3	O	1.096703	-0.008431	-0.113324
O4	O	1.084322	0.354837	-0.113336
O5	O	1.096693	-0.008431	0.113658
O6	O	0.956313	0.182834	0.113631
O7	O	1.224692	0.163571	0.113673
Zn8	Zn	1.090501	0.173203	0.149690
Zn9	Zn	1.090515	0.173203	-0.149369
O10	O	1.084312	0.354837	0.113646
C11	C	1.095797	-0.054922	0.000165
C12	C	1.093101	-0.193451	0.000160
C13	C	0.921954	0.181937	0.000135
C14	C	0.819559	0.179246	0.000119
C15	C	1.171651	-0.269169	0.000170
C16	C	1.168866	-0.412346	0.000165
C17	C	0.444613	0.169343	0.000182
C18	C	0.548935	0.172093	0.000164
C19	C	0.632082	0.174294	0.000149
C20	C	0.736411	0.177045	0.000134
C21	C	1.259061	0.164469	0.000184
C22	C	1.361456	0.167159	0.000191
C23	C	1.085218	0.401328	0.000154
C24	C	1.087914	0.539857	0.000150
N25	N	1.090498	0.173201	0.353790
N26	N	1.090525	0.173194	-0.353468
C27	C	1.149440	0.092543	0.421578
C28	C	1.149454	0.092538	0.578741
H29	H	1.240961	-0.227995	0.000189
H30	H	1.040043	0.242249	0.412105
H31	H	1.199920	0.023488	0.637035
Cl32	Cl	0.986086	-0.257009	0.000130
Cl33	Cl	1.227127	-0.014353	0.331554
Cl34	Cl	1.012613	0.279826	0.556544
H35	H	1.236110	-0.477407	0.000179
H36	H	1.020666	-0.395089	0.000150
