data_functionalizedCrystal
_audit_creation_method	'MofGen! by Chris Wilmer'
_symmetry_space_group_name_H-M	'P1'
_symmetry_Int_Tables_number	1
_symmetry_cell_setting	triclinic
loop_
_symmetry_equiv_pos_as_xyz
  x,y,z
_cell_length_a	19.077068
_cell_length_b	17.077404
_cell_length_c	17.077396
_cell_angle_alpha	90.017442
_cell_angle_beta	92.266197
_cell_angle_gamma	87.675877
loop_
_atom_site_label
_atom_site_type_symbol
_atom_site_fract_x
_atom_site_fract_y
_atom_site_fract_z
Zn1	Zn	-0.280250	-1.187454	-0.456382
Zn2	Zn	0.053084	-0.854121	-0.123049
Zn3	Zn	0.386417	-0.520788	0.210284
Zn4	Zn	-0.397955	-1.182082	-0.330381
Zn5	Zn	-0.064622	-0.848748	0.002952
Zn6	Zn	0.268712	-0.515415	0.336286
Zn7	Zn	-0.280270	-1.056190	-0.325131
Zn8	Zn	0.053064	-0.722857	0.008203
Zn9	Zn	0.386397	-0.389524	0.341536
Zn10	Zn	-0.397905	-1.050871	-0.461602
Zn11	Zn	-0.064572	-0.717538	-0.128269
Zn12	Zn	0.268762	-0.384205	0.205065
O13	O	-0.339095	-1.119149	-0.393374
O14	O	-0.005762	-0.785816	-0.060041
O15	O	0.327572	-0.452483	0.273293
O16	O	-0.295876	-1.296588	-0.439681
O17	O	0.037457	-0.963255	-0.106347
O18	O	0.370790	-0.629921	0.226986
O19	O	-0.382373	-1.165359	-0.219839
O20	O	-0.049040	-0.832026	0.113494
O21	O	0.284294	-0.498693	0.446828
O22	O	-0.181776	-1.078077	-0.338160
O23	O	0.151557	-0.744744	-0.004826
O24	O	0.484890	-0.411410	0.328507
O25	O	-0.382354	-1.292641	-0.347108
O26	O	-0.049020	-0.959307	-0.013775
O27	O	0.284313	-0.625974	0.319558
O28	O	-0.181762	-1.174516	-0.434590
O29	O	0.151572	-0.841183	-0.101256
O30	O	0.484905	-0.507850	0.232077
O31	O	-0.295910	-1.072868	-0.215981
O32	O	0.037423	-0.739534	0.117352
O33	O	0.370757	-0.406201	0.450685
O34	O	-0.295862	-0.945638	-0.343221
O35	O	0.037472	-0.612305	-0.009888
O36	O	0.370805	-0.278972	0.323446
O37	O	-0.382269	-1.069012	-0.570755
O38	O	-0.048935	-0.735679	-0.237422
O39	O	0.284398	-0.402345	0.095911
O40	O	-0.382288	-0.941731	-0.443486
O41	O	-0.048955	-0.608397	-0.110153
O42	O	0.284379	-0.275064	0.223181
O43	O	-0.295828	-1.169359	-0.566920
O44	O	0.037506	-0.836025	-0.233587
O45	O	0.370839	-0.502692	0.099746
O46	O	-0.496439	-1.160202	-0.352170
O47	O	-0.163106	-0.826869	-0.018836
O48	O	0.170228	-0.493535	0.314497
O49	O	-0.496402	-1.063802	-0.448577
O50	O	-0.163069	-0.730469	-0.115244
O51	O	0.170264	-0.397136	0.218090
C52	C	-0.339072	-0.915203	-0.393351
C53	C	-0.005739	-0.581869	-0.060017
C54	C	0.327595	-0.248536	0.273316
C55	C	-0.339079	-0.827952	-0.393360
C56	C	-0.005746	-0.494619	-0.060027
C57	C	0.327587	-0.161286	0.273307
C58	C	-0.294130	-0.789015	-0.441642
C59	C	0.039203	-0.455681	-0.108308
C60	C	0.372537	-0.122348	0.225025
C61	C	-0.294133	-0.707034	-0.441644
C62	C	0.039200	-0.373701	-0.108310
C63	C	0.372533	-0.040368	0.225023
C64	C	-0.339090	-0.663993	-0.393367
C65	C	-0.005757	-0.330659	-0.060034
C66	C	0.327577	0.002674	0.273299
C67	C	-0.384041	-0.702936	-0.345080
C68	C	-0.050708	-0.369603	-0.011747
C69	C	0.282625	-0.036269	0.321587
C70	C	-0.384034	-0.784915	-0.345075
C71	C	-0.050701	-0.451582	-0.011741
C72	C	0.282633	-0.118248	0.321592
C73	C	-0.384055	-0.532065	-0.345096
C74	C	-0.050722	-0.198732	-0.011763
C75	C	0.282612	0.134601	0.321570
C76	C	-0.384064	-0.450080	-0.345102
C77	C	-0.050730	-0.116747	-0.011769
C78	C	0.282603	0.216586	0.321564
C79	C	-0.294154	-0.454184	-0.441665
C80	C	0.039179	-0.120851	-0.108332
C81	C	0.372512	0.212482	0.225002
C82	C	-0.294147	-0.536164	-0.441660
C83	C	0.039187	-0.202830	-0.108326
C84	C	0.372520	0.130503	0.225007
C85	C	-0.339099	-0.575101	-0.393373
C86	C	-0.005766	-0.241768	-0.060040
C87	C	0.327567	0.091566	0.273293
C88	C	-0.521958	-1.110863	-0.401527
C89	C	-0.188625	-0.777530	-0.068193
C90	C	0.144708	-0.444197	0.265140
C91	C	-0.600188	-1.107390	-0.405041
C92	C	-0.266855	-0.774057	-0.071707
C93	C	0.066479	-0.440724	0.261626
C94	C	-0.636936	-1.155988	-0.356539
C95	C	-0.303603	-0.822654	-0.023206
C96	C	0.029730	-0.489321	0.310128
C97	C	-0.710441	-1.152726	-0.359849
C98	C	-0.377108	-0.819392	-0.026515
C99	C	-0.043775	-0.486059	0.306818
C100	C	-0.747197	-1.100862	-0.411657
C101	C	-0.413864	-0.767529	-0.078323
C102	C	-0.080530	-0.434195	0.255010
C103	C	-0.710444	-1.052262	-0.460164
C104	C	-0.377110	-0.718929	-0.126830
C105	C	-0.043777	-0.385596	0.206503
C106	C	-0.636940	-1.055529	-0.456857
C107	C	-0.303606	-0.722196	-0.123524
C108	C	0.029727	-0.388862	0.209809
C109	C	-0.967030	-1.085710	-0.426927
C110	C	-0.633697	-0.752377	-0.093594
C111	C	-0.300364	-0.419044	0.239740
C112	C	-1.040539	-1.082446	-0.430228
C113	C	-0.707206	-0.749112	-0.096895
C114	C	-0.373873	-0.415779	0.236439
C115	C	-1.040532	-1.182911	-0.329914
C116	C	-0.707199	-0.849577	0.003420
C117	C	-0.373865	-0.516244	0.336753
C118	C	-0.967027	-1.186169	-0.326609
C119	C	-0.633694	-0.852836	0.006725
C120	C	-0.300360	-0.519502	0.340058
C121	C	-0.930280	-1.137573	-0.375118
C122	C	-0.596947	-0.804239	-0.041785
C123	C	-0.263613	-0.470906	0.291548
N124	N	-0.822331	-1.097525	-0.415039
N125	N	-0.488998	-0.764191	-0.081706
N126	N	-0.155664	-0.430858	0.251627
N127	N	-0.855147	-1.140914	-0.371739
N128	N	-0.521814	-0.807581	-0.038406
N129	N	-0.188480	-0.474248	0.294927
C130	C	-0.155517	-1.127489	-0.385207
C131	C	0.177816	-0.794156	-0.051873
C132	C	0.511149	-0.460823	0.281460
C133	C	-0.077288	-1.131043	-0.381726
C134	C	0.256046	-0.797710	-0.048393
C135	C	0.589379	-0.464377	0.284940
C136	C	-0.339040	-1.119191	-0.598116
C137	C	-0.005707	-0.785858	-0.264783
C138	C	0.327626	-0.452525	0.068551
C139	C	-0.339017	-1.119209	-0.685365
C140	C	-0.005684	-0.785876	-0.352031
C141	C	0.327650	-0.452542	-0.018698
C142	C	-0.339115	-0.323893	-0.393392
C143	C	-0.005781	0.009441	-0.060059
C144	C	0.327552	0.342774	0.273275
C145	C	-0.339114	-0.411143	-0.393384
C146	C	-0.005781	-0.077809	-0.060051
C147	C	0.327553	0.255524	0.273282
C148	C	-0.293991	-1.071064	-0.724345
C149	C	0.039343	-0.737731	-0.391012
C150	C	0.372676	-0.404398	-0.057679
C151	C	-0.293975	-1.071078	-0.806325
C152	C	0.039359	-0.737744	-0.472992
C153	C	0.372692	-0.404411	-0.139659
C154	C	-0.338982	-1.119241	-0.849323
C155	C	-0.005649	-0.785908	-0.515989
C156	C	0.327685	-0.452574	-0.182656
C157	C	-0.384014	-1.167388	-0.810336
C158	C	-0.050680	-0.834054	-0.477003
C159	C	0.282653	-0.500721	-0.143670
C160	C	-0.384033	-1.167370	-0.728358
C161	C	-0.050699	-0.834036	-0.395025
C162	C	0.282634	-0.500703	-0.061692
C163	C	-0.383970	-1.167424	-0.981205
C164	C	-0.050636	-0.834090	-0.647871
C165	C	0.282697	-0.500757	-0.314538
C166	C	-0.383950	-1.167443	-1.063188
C167	C	-0.050617	-0.834110	-0.729855
C168	C	0.282717	-0.500777	-0.396522
C169	C	-0.293912	-1.071132	-1.059172
C170	C	0.039422	-0.737799	-0.725838
C171	C	0.372755	-0.404465	-0.392505
C172	C	-0.293931	-1.071114	-0.977193
C173	C	0.039403	-0.737780	-0.643860
C174	C	0.372736	-0.404447	-0.310527
C175	C	-0.338961	-1.119262	-0.938213
C176	C	-0.005628	-0.785929	-0.604879
C177	C	0.327705	-0.452595	-0.271546
C178	C	-0.339098	-1.119155	-0.189426
C179	C	-0.005765	-0.785822	0.143907
C180	C	0.327568	-0.452488	0.477240
C181	C	-0.338923	-1.119298	-0.102169
C182	C	-0.005590	-0.785965	0.231164
C183	C	0.327743	-0.452632	0.564498
H184	H	-0.257523	-0.824054	-0.480956
H185	H	0.075811	-0.490720	-0.147623
H186	H	0.409144	-0.157387	0.185710
H187	H	-0.257551	-0.422477	-0.480980
H188	H	0.075782	-0.089144	-0.147647
H189	H	0.409116	0.244189	0.185687
O190	O	-0.245649	-0.665037	-0.493717
O191	O	0.087684	-0.331703	-0.160383
O192	O	0.421017	0.001630	0.172950
H193	H	-0.257794	-0.680237	-0.555843
H194	H	0.075540	-0.346904	-0.222510
H195	H	0.408873	-0.013571	0.110823
O196	O	-0.245439	-1.019121	-0.677975
O197	O	0.087894	-0.685787	-0.344641
O198	O	0.421227	-0.352454	-0.011308
H199	H	-0.276940	-0.977747	-0.642014
H200	H	0.056393	-0.644413	-0.308681
H201	H	0.389726	-0.311080	0.024652
H202	H	-0.740376	-1.010037	-0.502350
H203	H	-0.407042	-0.676704	-0.169017
H204	H	-0.073709	-0.343371	0.164316
O205	O	-0.432514	-0.826912	-0.292995
O206	O	-0.099181	-0.493579	0.040339
O207	O	0.234152	-0.160245	0.373672
H208	H	-0.424951	-0.891148	-0.301093
H209	H	-0.091617	-0.557815	0.032240
H210	H	0.241716	-0.224482	0.365574
H211	H	-0.257312	-1.031870	-0.838060
H212	H	0.076021	-0.698537	-0.504726
H213	H	0.409355	-0.365203	-0.171393
O214	O	-0.432541	-0.403655	-0.293021
O215	O	-0.099207	-0.070322	0.040312
O216	O	0.234126	0.263012	0.373646
H217	H	-0.468400	-0.364701	-0.329683
H218	H	-0.135067	-0.031367	0.003651
H219	H	0.198267	0.301966	0.336984
O220	O	-0.597293	-1.211930	-0.300663
O221	O	-0.263960	-0.878597	0.032670
O222	O	0.069373	-0.545263	0.366003
H223	H	-0.635199	-1.245181	-0.267500
H224	H	-0.301865	-0.911847	0.065833
H225	H	0.031468	-0.578514	0.399166
O226	O	-0.245654	-0.582592	-0.493721
O227	O	0.087679	-0.249259	-0.160388
O228	O	0.421012	0.084074	0.172946
H229	H	-0.214390	-0.541746	-0.527291
H230	H	0.118943	-0.208413	-0.193957
H231	H	0.452277	0.124921	0.139376
H232	H	-0.257245	-1.031929	-1.090913
H233	H	0.076088	-0.698595	-0.757580
H234	H	0.409422	-0.365262	-0.424247
H235	H	-0.607020	-1.015957	-0.496354
H236	H	-0.273687	-0.682623	-0.163020
H237	H	0.059647	-0.349290	0.170313
H238	H	-0.420693	-1.206580	-0.696621
H239	H	-0.087359	-0.873247	-0.363288
H240	H	0.245974	-0.539914	-0.029955
H241	H	-0.740359	-1.192298	-0.320353
H242	H	-0.407025	-0.858965	0.012980
H243	H	-0.073692	-0.525632	0.346314
H244	H	-0.257278	-1.031899	-0.942187
H245	H	0.076055	-0.698565	-0.608853
H246	H	0.409388	-0.365232	-0.275520
H247	H	-0.420632	-1.206638	-0.949469
H248	H	-0.087299	-0.873305	-0.616136
H249	H	0.246034	-0.539972	-0.282802
O250	O	-0.432540	-0.574067	-0.293020
O251	O	-0.099206	-0.240734	0.040314
O252	O	0.234127	0.092600	0.373647
H253	H	-0.463809	-0.530366	-0.259457
H254	H	-0.130475	-0.197033	0.073876
H255	H	0.202858	0.136300	0.407210
O256	O	-0.432528	-0.656517	-0.293003
O257	O	-0.099194	-0.323184	0.040330
O258	O	0.234139	0.010149	0.373663
H259	H	-0.468386	-0.617566	-0.329670
H260	H	-0.135052	-0.284232	0.003664
H261	H	0.198281	0.049101	0.336997
O262	O	-0.927383	-1.242115	-0.270737
O263	O	-0.594049	-0.908781	0.062596
O264	O	-0.260716	-0.575448	0.395929
H265	H	-0.965286	-1.275367	-0.237572
H266	H	-0.631952	-0.942034	0.095761
H267	H	-0.298619	-0.608700	0.429095
H268	H	-1.070459	-1.222476	-0.290421
H269	H	-0.737126	-0.889143	0.042913
H270	H	-0.403793	-0.555809	0.376246
O271	O	-1.080188	-1.026511	-0.486115
O272	O	-0.746854	-0.693177	-0.152781
O273	O	-0.413521	-0.359844	0.180552
H274	H	-1.042287	-0.993273	-0.519298
H275	H	-0.708954	-0.659939	-0.185965
H276	H	-0.375620	-0.326606	0.147369
O277	O	-0.432562	-1.219329	-0.856713
O278	O	-0.099229	-0.885996	-0.523380
O279	O	0.234104	-0.552663	-0.190046
H280	H	-0.463882	-1.252798	-0.815832
H281	H	-0.130548	-0.919464	-0.482499
H282	H	0.202785	-0.586131	-0.149166
H283	H	-0.420599	-1.206662	-1.098195
H284	H	-0.087266	-0.873329	-0.764862
H285	H	0.246068	-0.539995	-0.431528
H286	H	-0.937117	-1.046140	-0.466424
H287	H	-0.603783	-0.712806	-0.133091
H288	H	-0.270450	-0.379473	0.200243
