data_functionalizedCrystal
_audit_creation_method	'MofGen! by Chris Wilmer'
_symmetry_space_group_name_H-M	'P1'
_symmetry_Int_Tables_number	1
_symmetry_cell_setting	triclinic
loop_
_symmetry_equiv_pos_as_xyz
  x,y,z
_cell_length_a	6.817900
_cell_length_b	9.582860
_cell_length_c	16.015572
_cell_angle_alpha	76.189886
_cell_angle_beta	104.485554
_cell_angle_gamma	111.206767
loop_
_atom_site_label
_atom_site_type_symbol
_atom_site_fract_x
_atom_site_fract_y
_atom_site_fract_z
V1	V	-4.003263	-0.060387	-0.269347
O2	O	-3.950086	0.153916	-0.264383
O3	O	-3.994506	-0.264976	-0.267348
O4	O	-3.926564	0.006805	-0.386890
O5	O	-4.018499	-0.119746	-0.144013
V6	V	-4.485422	-0.042583	-0.254375
O7	O	-4.267516	-0.099440	-0.302189
O8	O	-4.671367	-0.003529	-0.221533
O9	O	-4.270973	0.162006	-0.256374
O10	O	-4.655995	-0.256885	-0.259339
O11	O	-4.587583	0.016777	-0.379709
O12	O	-4.338915	-0.109774	-0.136832
C13	C	-3.850066	-0.316921	-0.263058
C14	C	-3.924004	-0.483749	-0.262208
C15	C	-3.763398	0.029764	-0.415545
C16	C	-3.782234	0.083346	-0.511636
C17	C	-4.163022	-0.392251	-0.888905
C18	C	-4.180716	-0.341854	-0.979193
C19	C	-4.053206	-0.081114	-0.954685
C20	C	-4.035491	-0.131490	-0.864393
C21	C	-4.090405	-0.287060	-0.831511
C22	C	-3.962873	-0.026298	-0.806999
C23	C	-3.945171	-0.076671	-0.716715
C24	C	-4.000085	-0.232235	-0.683826
C25	C	-4.072703	-0.337432	-0.741227
C26	C	-3.907974	0.129271	-0.839884
C27	C	-3.835357	0.234463	-0.782489
C28	C	-3.817639	0.184091	-0.692203
C29	C	-3.872554	0.028527	-0.659314
C30	C	-3.745022	0.289289	-0.634802
C31	C	-3.727319	0.238917	-0.544518
C32	C	-3.854851	-0.021845	-0.569030
C33	C	-4.078756	0.213942	-0.260661
C34	C	-3.984056	0.380772	-0.261517
C35	C	-4.165424	-0.132741	-0.108172
C36	C	-4.125826	-0.186316	-0.012081
H37	H	-3.985674	-0.273246	-0.610310
H38	H	-3.700336	0.415954	-0.661590
C39	C	-4.131824	-0.506386	-0.705672
C40	C	-4.198934	-0.587730	-0.775251
C41	C	-4.253125	-0.743356	-0.742524
H42	H	-4.010582	-0.528013	-0.668246
H43	H	-4.244342	-0.535154	-0.673710
H44	H	-4.086426	-0.558973	-0.807199
H45	H	-4.320190	-0.566150	-0.812684
H46	H	-4.365643	-0.772124	-0.710562
H47	H	-4.131874	-0.764966	-0.705098
H48	H	-4.298683	-0.798567	-0.789728
H49	H	-3.922361	0.170280	-0.913399
C50	C	-3.648328	0.353359	-0.482337
C51	C	-3.603968	0.500383	-0.530456
C52	C	-3.531181	0.605848	-0.473204
H53	H	-3.755405	0.336082	-0.449393
H54	H	-3.521931	0.342462	-0.443810
H55	H	-3.730349	0.511275	-0.568968
H56	H	-3.496877	0.517708	-0.563397
H57	H	-3.404784	0.594950	-0.434676
H58	H	-3.638268	0.588557	-0.440263
H59	H	-3.501055	0.705615	-0.505843
H60	H	-4.207712	-0.518931	-0.862130
H61	H	-4.239844	-0.427525	-1.025922
H62	H	-4.008507	0.045552	-0.981471
C63	C	-3.775359	0.403417	-0.818064
C64	C	-3.560335	0.474620	-0.784551
C65	C	-3.504995	0.630265	-0.817289
H66	H	-3.796105	0.418575	-0.880046
H67	H	-3.862918	0.445548	-0.801007
H68	H	-3.472802	0.432503	-0.801613
H69	H	-3.539536	0.459506	-0.722572
H70	H	-3.592554	0.672396	-0.800232
H71	H	-3.525753	0.645407	-0.879270
H72	H	-3.359103	0.678598	-0.794549
C73	C	-3.914251	-0.190687	-0.533147
C74	C	-3.883155	-0.212275	-0.441795
C75	C	-3.937821	-0.367782	-0.408708
H76	H	-4.060112	-0.239424	-0.555690
H77	H	-3.826529	-0.232790	-0.550117
H78	H	-3.970878	-0.170192	-0.424832
H79	H	-3.737308	-0.163574	-0.419228
H80	H	-3.850099	-0.409885	-0.425678
H81	H	-4.083680	-0.416505	-0.431256
H82	H	-3.916711	-0.382449	-0.346722
