data_functionalizedCrystal
_audit_creation_method	'MofGen! by Chris Wilmer'
_symmetry_space_group_name_H-M	'P1'
_symmetry_Int_Tables_number	1
_symmetry_cell_setting	triclinic
loop_
_symmetry_equiv_pos_as_xyz
  x,y,z
_cell_length_a	27.354012
_cell_length_b	27.353283
_cell_length_c	27.349551
_cell_angle_alpha	60.005606
_cell_angle_beta	60.011434
_cell_angle_gamma	59.993282
loop_
_atom_site_label
_atom_site_type_symbol
_atom_site_fract_x
_atom_site_fract_y
_atom_site_fract_z
O1	O	0.067635	-0.714267	0.597330
O2	O	0.025429	-0.556105	0.481282
O3	O	0.125575	-0.656186	0.481214
O4	O	-0.032512	-0.614186	0.597397
O5	O	0.158797	-0.622968	0.514367
O6	O	0.058650	-0.522887	0.514434
O7	O	0.100856	-0.681048	0.630482
Zn8	Zn	0.085028	-0.596693	0.577722
Zn9	Zn	0.041257	-0.640460	0.534042
O10	O	0.000709	-0.580967	0.630549
N11	N	0.114901	-0.566828	0.607534
N12	N	0.011389	-0.670331	0.504229
C13	C	0.179404	-0.338196	0.672015
C14	C	0.179501	-0.502386	0.836160
C15	C	0.179415	-0.502363	0.671996
C16	C	0.343611	-0.502373	0.671960
C17	C	0.197478	-0.392371	0.690061
C18	C	0.197534	-0.484321	0.781984
C19	C	0.289434	-0.484312	0.690032
C20	C	0.197486	-0.484308	0.690051
C21	C	0.156398	-0.269238	0.649045
C22	C	0.156418	-0.525342	0.649015
C23	C	0.220484	-0.461329	0.713032
C24	C	0.443889	-0.485097	0.619172
C25	C	0.506571	-0.505993	0.598266
C26	C	0.506589	-0.607412	0.636940
C27	C	0.443909	-0.586515	0.657848
C28	C	0.171510	-0.237888	0.587422
C29	C	0.150593	-0.175201	0.566543
C30	C	0.099458	-0.175218	0.668913
C31	C	0.120375	-0.237905	0.689792
C32	C	0.094789	-0.510201	0.664176
C33	C	0.073888	-0.531091	0.643278
C34	C	0.176239	-0.582263	0.592072
C35	C	0.197142	-0.561373	0.612963
C36	C	0.094933	-0.510244	0.936476
C37	C	0.074073	-0.531151	0.999161
C38	C	0.176453	-0.582335	0.999126
C39	C	0.197312	-0.561429	0.936439
C40	C	0.156551	-0.525382	0.905116
C41	C	0.412561	-0.525357	0.648961
C42	C	-0.098513	-0.688235	0.485867
C43	C	-0.006461	-0.688368	0.394066
C44	C	-0.006645	-0.780264	0.486040
C45	C	-0.006630	-0.688361	0.486097
C46	C	-0.029562	-0.711308	0.463018
N47	N	0.537030	-0.566846	0.607436
O48	O	0.741877	-0.576849	0.459995
O49	O	0.742050	-0.693241	0.618010
O50	O	0.741986	-0.692977	0.517791
O51	O	0.741941	-0.577114	0.560214
O52	O	0.642405	-0.659839	0.551046
O53	O	0.642469	-0.660104	0.651265
O54	O	0.642296	-0.543712	0.493251
Zn55	Zn	0.626572	-0.596646	0.577538
Zn56	Zn	0.757774	-0.640307	0.533723
O57	O	0.642360	-0.543976	0.593469
N58	N	0.847316	-0.670107	0.503818
N59	N	0.114877	-0.144758	0.607577
O60	O	-0.032498	0.060193	0.597441
O61	O	0.125523	0.060193	0.481067
O62	O	0.025289	0.060179	0.481345
O63	O	0.067736	0.060207	0.597163
O64	O	0.058511	-0.039410	0.514543
O65	O	0.158745	-0.039397	0.514265
O66	O	0.000724	-0.039396	0.630638
Zn67	Zn	0.085009	-0.055208	0.577722
Zn68	Zn	0.041238	0.076005	0.533983
O69	O	0.100958	-0.039382	0.630360
N70	N	0.011362	0.165555	0.504130
N71	N	0.115121	-0.566884	1.029592
O72	O	0.104990	-0.714248	1.234528
O73	O	-0.011371	-0.556177	1.234539
O74	O	-0.011103	-0.656395	1.234497
O75	O	0.104722	-0.614030	1.234569
O76	O	0.022090	-0.623190	1.134913
O77	O	0.021822	-0.522972	1.134954
O78	O	0.138182	-0.681044	1.134943
Zn79	Zn	0.085272	-0.596736	1.119137
Zn80	Zn	0.041539	-0.640484	1.250344
O81	O	0.137914	-0.580826	1.134984
N82	N	0.011689	-0.670343	1.339890
C83	C	0.038085	-0.519567	0.481870
C84	C	0.162104	-0.643505	0.481786
C85	C	0.088200	-0.717587	0.629893
C86	C	-0.035819	-0.593649	0.629977
C87	C	0.692280	-0.692701	0.654545
C88	C	0.692203	-0.692374	0.530435
C89	C	0.692063	-0.544251	0.456717
C90	C	0.692144	-0.544580	0.580825
C91	C	0.162000	0.010521	0.481600
C92	C	0.037914	0.010381	0.481984
C93	C	-0.035795	0.010399	0.630065
C94	C	0.088333	0.010415	0.629722
C95	C	-0.010799	-0.519660	1.184747
C96	C	-0.010461	-0.643761	1.184677
C97	C	0.137610	-0.717561	1.184734
C98	C	0.137280	-0.593452	1.184783
H99	H	0.023897	-0.518815	1.024687
C100	C	-0.096334	-0.581843	0.678695
C101	C	-0.096338	-0.633013	0.729896
C102	C	-0.152075	-0.622162	0.774784
H103	H	-0.103674	-0.549228	0.688138
H104	H	-0.126801	-0.572396	0.664970
H105	H	-0.065879	-0.642452	0.743619
H106	H	-0.089008	-0.665635	0.720472
H107	H	-0.182543	-0.612716	0.761059
H108	H	-0.159411	-0.589546	0.784223
H109	H	-0.152087	-0.656881	0.809528
C110	C	0.185870	-0.581498	1.184831
C111	C	0.237148	-0.632602	1.184844
C112	C	0.281919	-0.621615	1.184896
H113	H	0.195258	-0.548865	1.150119
H114	H	0.172069	-0.572022	1.219578
H115	H	0.250947	-0.642071	1.150100
H116	H	0.227779	-0.665242	1.219554
H117	H	0.268118	-0.612138	1.219643
H118	H	0.291301	-0.588980	1.150183
H119	H	0.316714	-0.656288	1.184911
H120	H	0.174144	-0.762957	1.184724
C121	C	0.026145	-0.458960	0.433286
C122	C	0.066957	-0.432593	0.417325
C123	C	0.055971	-0.376759	0.372577
H124	H	0.030634	-0.464076	0.399205
H125	H	-0.013482	-0.433848	0.447846
H126	H	0.106574	-0.457699	0.402763
H127	H	0.062475	-0.427462	0.451392
H128	H	0.016344	-0.351647	0.387137
H129	H	0.060459	-0.381881	0.338500
H130	H	0.083656	-0.358860	0.361746
C131	C	0.222694	-0.655544	0.433221
C132	C	0.259599	-0.713978	0.454779
C133	C	0.315421	-0.725087	0.410060
H134	H	0.217551	-0.651089	0.399169
H135	H	0.240676	-0.627900	0.422320
H136	H	0.241621	-0.741614	0.465671
H137	H	0.264759	-0.718447	0.488824
H138	H	0.333403	-0.697443	0.399159
H139	H	0.310272	-0.720628	0.376011
H140	H	0.340470	-0.764732	0.424683
C141	C	0.100318	-0.778216	0.678407
C142	C	0.158755	-0.815064	0.656784
C143	C	0.169937	-0.870922	0.701454
H144	H	0.095888	-0.773110	0.712468
H145	H	0.072695	-0.796222	0.689309
H146	H	0.186370	-0.797062	0.645890
H147	H	0.163199	-0.820188	0.622728
H148	H	0.142314	-0.888928	0.712356
H149	H	0.165504	-0.865810	0.735512
H150	H	0.209585	-0.895932	0.686787
H151	H	-0.047330	-0.474261	1.184750
C152	C	0.025927	0.010273	0.433439
C153	C	0.066727	-0.040962	0.417479
C154	C	0.055713	-0.041080	0.372754
H155	H	-0.013692	0.010238	0.448001
H156	H	0.030410	0.044980	0.399356
H157	H	0.062239	-0.075660	0.451555
H158	H	0.106350	-0.040938	0.402906
H159	H	0.060196	-0.006373	0.338670
H160	H	0.016093	-0.041113	0.387321
H161	H	0.083397	-0.075839	0.361915
C162	C	0.692373	-0.741359	0.715084
C163	C	0.692395	-0.719901	0.752042
C164	C	0.692489	-0.764711	0.807812
H165	H	0.657673	-0.752292	0.733085
H166	H	0.727130	-0.775379	0.709844
H167	H	0.657641	-0.685893	0.757284
H168	H	0.727092	-0.708973	0.734060
H169	H	0.727246	-0.798731	0.802572
H170	H	0.657789	-0.775641	0.825807
H171	H	0.692509	-0.750160	0.832893
H172	H	0.692134	-0.508185	0.589902
H173	H	0.692005	-0.507708	0.411338
C174	C	0.692192	-0.740822	0.518230
C175	C	0.692126	-0.719102	0.459784
C176	C	0.692108	-0.763712	0.448522
H177	H	0.726932	-0.774889	0.522623
H178	H	0.657475	-0.751742	0.545839
H179	H	0.726840	-0.708191	0.432183
H180	H	0.657389	-0.685041	0.455377
H181	H	0.657391	-0.774632	0.476132
H182	H	0.726848	-0.797777	0.452919
H183	H	0.692058	-0.748980	0.408869
C184	C	0.222414	0.010923	0.432824
C185	C	0.259342	0.011060	0.454231
C186	C	0.314997	0.011439	0.409313
H187	H	0.240547	-0.023721	0.421754
H188	H	0.216985	0.045741	0.398903
H189	H	0.264773	-0.023754	0.488141
H190	H	0.241229	0.045702	0.465297
H191	H	0.309567	0.046256	0.375393
H192	H	0.333123	-0.023205	0.398246
H193	H	0.340057	0.011538	0.423830
C194	C	-0.096359	0.010444	0.678693
C195	C	-0.133336	0.010455	0.657236
C196	C	-0.189136	0.010509	0.702011
H197	H	-0.091194	-0.024268	0.712753
H198	H	-0.114298	0.045195	0.689553
H199	H	-0.115401	-0.024293	0.646385
H200	H	-0.138518	0.045164	0.623182
H201	H	-0.207075	0.045260	0.712871
H202	H	-0.183965	-0.024204	0.736068
H203	H	-0.214234	0.010522	0.687457
H204	H	-0.046832	-0.652809	1.184615
H205	H	0.209648	-0.611676	1.024626
C206	C	0.050580	-0.471136	0.902579
C207	C	-0.007847	-0.462366	0.943461
C208	C	-0.048719	-0.426352	0.912257
H209	H	0.056509	-0.433530	0.878128
H210	H	0.056553	-0.490270	0.878136
H211	H	-0.013818	-0.443231	0.967894
H212	H	-0.013795	-0.499961	0.967914
H213	H	-0.042746	-0.445486	0.887815
H214	H	-0.042785	-0.388749	0.887807
H215	H	-0.088366	-0.420401	0.939991
C216	C	0.264232	-0.577988	0.902470
C217	C	0.290048	-0.640344	0.917715
C218	C	0.351693	-0.655620	0.886443
H219	H	0.270904	-0.560439	0.860642
H220	H	0.281868	-0.563607	0.912754
H221	H	0.272418	-0.654719	0.907427
H222	H	0.283393	-0.657908	0.959538
H223	H	0.369329	-0.641239	0.896727
H224	H	0.358359	-0.638068	0.844616
H225	H	0.369218	-0.697930	0.896786
C226	C	0.050478	-0.471059	0.703280
C227	C	-0.007966	-0.462254	0.712065
C228	C	-0.048801	-0.426193	0.748079
H229	H	0.056439	-0.490155	0.740880
H230	H	0.056457	-0.433466	0.684144
H231	H	-0.013942	-0.499841	0.731202
H232	H	-0.013946	-0.443152	0.674476
H233	H	-0.042823	-0.388600	0.728943
H234	H	-0.042835	-0.445293	0.785676
H235	H	-0.088460	-0.420210	0.754039
C236	C	0.006983	-0.514572	0.659617
C237	C	-0.008039	-0.483212	0.607295
C238	C	-0.069667	-0.467978	0.622324
H239	H	-0.003352	-0.549974	0.680855
H240	H	-0.014299	-0.490097	0.684060
H241	H	0.013235	-0.507686	0.582861
H242	H	0.002281	-0.447804	0.586050
H243	H	-0.090949	-0.443503	0.646767
H244	H	-0.079996	-0.503383	0.643562
H245	H	-0.079869	-0.446694	0.586827
C246	C	0.210515	-0.271873	0.543153
C247	C	0.179006	-0.256633	0.507218
C248	C	0.214916	-0.287936	0.466438
H249	H	0.245959	-0.261621	0.518631
H250	H	0.220797	-0.313703	0.564392
H251	H	0.168733	-0.214812	0.485981
H252	H	0.143566	-0.266887	0.531723
H253	H	0.225198	-0.329766	0.487676
H254	H	0.250358	-0.277682	0.441920
H255	H	0.193541	-0.277605	0.442055
C256	C	0.100574	0.010382	0.678177
C257	C	0.159036	0.010366	0.656469
C258	C	0.170337	0.010323	0.701093
H259	H	0.073008	0.045099	0.689120
H260	H	0.096157	-0.024364	0.712230
H261	H	0.163448	0.045107	0.622427
H262	H	0.186614	-0.024349	0.645531
H263	H	0.165921	-0.024423	0.735146
H264	H	0.142769	0.045040	0.712033
H265	H	0.210007	0.010306	0.686373
H266	H	0.209407	-0.611608	0.562721
H267	H	0.247325	-0.573698	0.600612
H268	H	0.532110	-0.657210	0.644171
C269	C	0.410005	-0.630319	0.690150
C270	C	0.450880	-0.688347	0.693438
C271	C	0.419671	-0.728716	0.723184
H272	H	0.385566	-0.628800	0.729446
H273	H	0.385552	-0.619864	0.668793
H274	H	0.475323	-0.698799	0.714796
H275	H	0.475321	-0.689885	0.654152
H276	H	0.395217	-0.718261	0.701827
H277	H	0.395233	-0.727191	0.762477
H278	H	0.447400	-0.768091	0.725414
H279	H	0.418366	-0.435297	0.611936
C280	C	0.540483	-0.462185	0.565906
C281	C	0.499615	-0.404149	0.562584
C282	C	0.530833	-0.363777	0.532768
H283	H	0.564954	-0.472593	0.587216
H284	H	0.564904	-0.463751	0.526616
H285	H	0.475203	-0.402584	0.601867
H286	H	0.475142	-0.393722	0.541270
H287	H	0.555254	-0.365344	0.493477
H288	H	0.555303	-0.374191	0.554081
H289	H	0.503109	-0.324395	0.530505
H290	H	0.070133	-0.149706	0.702094
C291	C	0.103927	-0.271832	0.756721
C292	C	0.067913	-0.230972	0.787933
C293	C	0.052754	-0.262205	0.849591
H294	H	0.082634	-0.296290	0.767080
H295	H	0.139371	-0.296274	0.767016
H296	H	0.032475	-0.206541	0.777642
H297	H	0.089194	-0.206513	0.777591
H298	H	0.088198	-0.286646	0.859886
H299	H	0.031464	-0.286661	0.859944
H300	H	0.028322	-0.234486	0.870776
H301	H	0.162897	-0.149674	0.516363
