data_functionalizedCrystal
_audit_creation_method	'MofGen! by Chris Wilmer'
_symmetry_space_group_name_H-M	'P1'
_symmetry_Int_Tables_number	1
_symmetry_cell_setting	triclinic
loop_
_symmetry_equiv_pos_as_xyz
  x,y,z
_cell_length_a	6.817900
_cell_length_b	17.296766
_cell_length_c	16.305656
_cell_angle_alpha	99.274130
_cell_angle_beta	103.457069
_cell_angle_gamma	102.621013
loop_
_atom_site_label
_atom_site_type_symbol
_atom_site_fract_x
_atom_site_fract_y
_atom_site_fract_z
V1	V	-4.027401	-0.111775	-0.271565
O2	O	-4.013797	0.004699	-0.257662
O3	O	-3.979977	-0.220984	-0.278108
O4	O	-3.978795	-0.110351	-0.386172
O5	O	-4.014988	-0.106701	-0.148850
V6	V	-4.510930	-0.097809	-0.255867
O7	O	-4.288648	-0.142412	-0.306000
O8	O	-4.699880	-0.067172	-0.221432
O9	O	-4.335147	0.011401	-0.249324
O10	O	-4.641931	-0.214282	-0.269770
O11	O	-4.640740	-0.102883	-0.378583
O12	O	-4.336330	-0.099233	-0.141260
C13	C	-3.825222	-0.247598	-0.275991
C14	C	-3.867733	-0.336880	-0.282104
C15	C	-3.823713	-0.106473	-0.413837
C16	C	-3.865261	-0.106031	-0.507583
C17	C	-3.941381	-0.105200	-0.679220
C18	C	-3.737108	-0.100173	-0.709366
C19	C	-3.780075	-0.099394	-0.806798
C20	C	-4.016324	-0.104382	-0.848207
C21	C	-4.067809	-0.030048	-0.797097
C22	C	-4.023081	-0.030423	-0.699507
C23	C	-4.111597	-0.184002	-0.736362
C24	C	-4.151302	-0.184451	-0.834046
C25	C	-4.058689	-0.103918	-0.943711
C26	C	-3.899020	-0.105659	-0.583714
C27	C	-3.847474	-0.367163	-0.206832
C28	C	-3.887437	-0.451053	-0.212579
C29	C	-3.947644	-0.504659	-0.293599
C30	C	-3.967910	-0.474371	-0.368878
C31	C	-3.927962	-0.390482	-0.363130
C32	C	-4.070289	-0.758532	-0.314862
C33	C	-4.110231	-0.842426	-0.320604
C34	C	-4.029759	-0.819102	-0.164305
C35	C	-3.989801	-0.735213	-0.158564
C36	C	-4.010080	-0.704932	-0.233843
C37	C	-3.988488	-0.590409	-0.299475
C38	C	-3.969252	-0.619184	-0.227966
C39	C	-4.153244	0.038010	-0.251439
C40	C	-4.089972	0.127291	-0.245331
C41	C	-4.154754	-0.103113	-0.113591
C42	C	-4.092444	-0.103551	-0.019844
H43	H	-3.735122	-0.152514	-0.841805
H44	H	-4.086778	-0.733888	-0.376159
H45	H	-4.013256	-0.843766	-0.103017
F46	F	-3.867035	0.047110	-0.649104
F47	F	-4.046988	-0.258350	-0.720188
H48	H	-4.172302	-0.030821	-0.679178
F49	F	-3.783382	-0.310117	-0.120598
H50	H	-3.670500	-0.153529	-0.696973
F51	F	-4.290986	-0.031113	-0.831897
H52	H	-4.159251	-0.886071	-0.386584
H53	H	-3.870942	-0.475705	-0.151284
F54	F	-3.925722	-0.678167	-0.072331
H55	H	-3.944482	-0.365829	-0.424426
F56	F	-4.310680	-0.189797	-0.711761
H57	H	-4.113034	-0.239486	-0.868840
F58	F	-4.032003	-0.531425	-0.455106
F59	F	-3.941630	0.047397	-0.808498
H60	H	-3.920239	-0.575535	-0.162000
F61	F	-4.052562	-0.647466	-0.385701
F62	F	-4.378907	-0.195310	-0.872717
H63	H	-3.673763	-0.041919	-0.814646
F64	F	-3.571104	-0.025864	-0.657220
