data_functionalizedCrystal
_audit_creation_method	'MofGen! by Chris Wilmer'
_symmetry_space_group_name_H-M	'P1'
_symmetry_Int_Tables_number	1
_symmetry_cell_setting	triclinic
loop_
_symmetry_equiv_pos_as_xyz
  x,y,z
_cell_length_a	12.827893
_cell_length_b	12.594516
_cell_length_c	12.827885
_cell_angle_alpha	90.028054
_cell_angle_beta	90.019272
_cell_angle_gamma	90.016213
loop_
_atom_site_label
_atom_site_type_symbol
_atom_site_fract_x
_atom_site_fract_y
_atom_site_fract_z
Zn1	Zn	1.597665	-0.423686	0.590861
Zn2	Zn	1.597557	-0.601702	0.416127
Zn3	Zn	1.422906	-0.423738	0.416135
Zn4	Zn	1.422889	-0.601623	0.590827
O5	O	1.510254	-0.512687	0.503487
O6	O	1.743887	-0.447311	0.567693
O7	O	1.574351	-0.578150	0.269892
O8	O	1.446140	-0.274786	0.439330
O9	O	1.743807	-0.578099	0.439317
O10	O	1.574535	-0.274747	0.567701
O11	O	1.446036	-0.447400	0.269898
O12	O	1.276668	-0.447324	0.439297
O13	O	1.446112	-0.577965	0.737067
O14	O	1.276656	-0.578016	0.567642
O15	O	1.574519	-0.447235	0.737093
O16	O	1.574335	-0.750637	0.439283
O17	O	1.446007	-0.750580	0.567635
C18	C	1.238744	-0.512668	0.503468
C19	C	1.122591	-0.512685	0.503484
C20	C	1.070846	-0.448082	0.567108
C21	C	0.950795	-0.448098	0.567126
C22	C	1.510186	-0.789228	0.503477
C23	C	1.510252	-0.907534	0.503508
C24	C	1.440448	-0.976794	0.573269
C25	C	1.414986	-1.047663	0.477914
C26	C	1.535809	-1.047464	0.598879
C27	C	1.484740	-0.976844	0.408102
C28	C	1.605607	-0.976639	0.529132
C29	C	1.580182	-1.047476	0.433711
C30	C	1.782824	-0.512708	0.503508
C31	C	1.898978	-0.512717	0.503517
C32	C	1.510325	-0.512585	0.776058
C33	C	1.510356	-0.512542	0.892211
C34	C	1.510352	-0.235067	0.503521
C35	C	1.510393	-0.116761	0.503535
C36	C	1.510244	-0.512712	0.231978
C37	C	1.510416	-0.512456	0.115825
C38	C	1.573902	-0.447840	0.944008
C39	C	1.573935	-0.447793	1.064059
H40	H	0.906295	-0.392793	0.621600
O41	O	0.952165	-0.578760	0.438673
C42	C	1.015298	-0.647529	0.498106
H43	H	1.031586	-0.610068	0.577375
H44	H	1.092072	-0.661662	0.455577
H45	H	0.973290	-0.726464	0.509426
O46	O	1.638742	-0.381736	1.117352
C47	C	1.624358	-0.396407	1.225351
H48	H	1.543692	-0.431273	1.240144
H49	H	1.631443	-0.316702	1.266915
H50	H	1.686307	-0.453105	1.256326
H51	H	1.456012	-0.567857	1.071287
O52	O	1.638928	-0.381844	0.891010
C53	C	1.743105	-0.405100	0.917590
H54	H	1.745348	-0.445915	0.996858
H55	H	1.789996	-0.328282	0.921227
H56	H	1.778210	-0.459903	0.856178
O57	O	1.069470	-0.578574	0.438365
C58	C	1.096037	-0.555230	0.334222
H59	H	1.126120	-0.470217	0.329051
H60	H	1.024183	-0.564281	0.282656
H61	H	1.159288	-0.612313	0.306748
H62	H	1.115421	-0.392757	0.621561
O63	O	1.445528	-0.578739	0.945209
C64	C	1.468319	-0.684858	0.918624
H65	H	1.508399	-0.687169	0.839353
H66	H	1.392880	-0.732586	0.914988
H67	H	1.522105	-0.720631	0.980031
H68	H	1.334412	-1.078883	0.456263
H69	H	1.381312	-0.945758	0.632178
H70	H	1.686164	-0.945422	0.550829
O71	O	1.458758	-0.940127	0.311859
C72	C	1.358587	-0.977174	0.284873
H73	H	1.340166	-1.051905	0.331473
H74	H	1.356228	-0.996258	0.198023
H75	H	1.298367	-0.913318	0.303299
O76	O	1.650559	-1.084228	0.363127
C77	C	1.623316	-1.048029	0.262762
H78	H	1.536603	-1.028354	0.260695
H79	H	1.640931	-1.112639	0.203047
H80	H	1.670382	-0.973827	0.243386
H81	H	1.557369	-1.078485	0.679523
