data_functionalizedCrystal
_audit_creation_method	'MofGen! by Chris Wilmer'
_symmetry_space_group_name_H-M	'P1'
_symmetry_Int_Tables_number	1
_symmetry_cell_setting	triclinic
loop_
_symmetry_equiv_pos_as_xyz
  x,y,z
_cell_length_a	14.044220
_cell_length_b	14.519731
_cell_length_c	13.596369
_cell_angle_alpha	89.994584
_cell_angle_beta	90.004689
_cell_angle_gamma	91.561135
loop_
_atom_site_label
_atom_site_type_symbol
_atom_site_fract_x
_atom_site_fract_y
_atom_site_fract_z
O1	O	-0.124370	1.233888	-0.081792
O2	O	0.375630	1.733888	0.418208
O3	O	-0.138983	0.966592	-0.081793
O4	O	0.361017	1.466592	0.418207
O5	O	0.006315	1.096228	-0.081788
O6	O	0.506315	1.596228	0.418212
O7	O	-0.269668	1.104252	-0.081797
O8	O	0.230332	1.604252	0.418203
O9	O	0.006323	1.096213	0.081795
O10	O	0.506323	1.596213	0.581795
O11	O	-0.138975	0.966578	0.081790
O12	O	0.361025	1.466578	0.581790
O13	O	-0.124362	1.233873	0.081791
O14	O	0.375638	1.733873	0.581791
Zn15	Zn	-0.131667	1.100223	0.107763
Zn16	Zn	0.368333	1.600223	0.607763
Zn17	Zn	-0.131678	1.100242	-0.107765
Zn18	Zn	0.368322	1.600242	0.392235
O19	O	-0.269660	1.104238	0.081786
O20	O	0.230340	1.604238	0.581786
C21	C	-0.138295	0.932170	-0.000002
C22	C	0.361705	1.432170	0.499998
C23	C	-0.136243	0.829625	-0.000002
C24	C	0.363757	1.329625	0.499998
C25	C	-0.134575	0.746346	-0.000006
C26	C	0.365425	1.246346	0.499994
C27	C	-0.132492	0.641869	-0.000006
C28	C	0.367508	1.141869	0.499994
C29	C	-0.130839	0.558597	-0.000006
C30	C	0.369161	1.058597	0.499994
C31	C	-0.128756	0.454113	-0.000008
C32	C	0.371244	0.954113	0.499992
C33	C	-0.304985	1.107757	-0.000006
C34	C	0.195015	1.607757	0.499994
C35	C	-0.410229	1.118234	-0.000010
C36	C	0.089771	1.618234	0.499990
C37	C	-0.602925	1.137389	-0.000005
C38	C	-0.102925	1.637389	0.499995
C39	C	-0.660426	1.063081	-0.000005
C40	C	-0.160426	1.563081	0.499995
C41	C	-0.767648	1.073739	-0.000002
C42	C	-0.267648	1.573739	0.499998
C43	C	-0.495692	1.126732	-0.000008
C44	C	0.004308	1.626732	0.499992
C45	C	0.041640	1.092708	0.000003
C46	C	0.541640	1.592708	0.500003
C47	C	0.146884	1.082231	-0.000000
C48	C	0.646884	1.582231	0.500000
C49	C	-0.125050	1.268295	-0.000002
C50	C	0.374950	1.768295	0.499998
C51	C	-0.127102	1.370841	-0.000008
C52	C	0.372898	1.870841	0.499992
N53	N	-0.131660	1.100217	0.254855
N54	N	0.368340	1.600217	0.754855
N55	N	-0.131678	1.100256	-0.254856
N56	N	0.368322	1.600256	0.245144
C57	C	-0.131679	1.100241	0.656146
C58	C	0.368321	1.600241	1.156146
C59	C	-0.131677	1.100232	0.544494
C60	C	0.368323	1.600232	1.044494
C61	C	-0.131670	1.100229	0.455504
C62	C	0.368330	1.600229	0.955504
C63	C	-0.131667	1.100219	0.343845
C64	C	0.368333	1.600219	0.843845
H65	H	-0.629128	0.991460	-0.000004
H66	H	-0.129128	1.491460	0.499996
O67	O	-0.644370	1.232257	0.000006
O68	O	-0.144370	1.732257	0.500006
H69	H	-0.723305	1.225845	0.000017
H70	H	-0.223305	1.725845	0.500017
