data_functionalizedCrystal
_audit_creation_method	'MofGen! by Chris Wilmer'
_symmetry_space_group_name_H-M	'P1'
_symmetry_Int_Tables_number	1
_symmetry_cell_setting	triclinic
loop_
_symmetry_equiv_pos_as_xyz
  x,y,z
_cell_length_a	8.634740
_cell_length_b	8.597304
_cell_length_c	9.730223
_cell_angle_alpha	82.295717
_cell_angle_beta	89.997098
_cell_angle_gamma	92.879752
loop_
_atom_site_label
_atom_site_type_symbol
_atom_site_fract_x
_atom_site_fract_y
_atom_site_fract_z
O1	O	2.053791	0.512866	-0.175013
O2	O	1.604191	0.469860	-0.169923
O3	O	1.837839	0.264234	-0.145570
O4	O	1.820143	0.718493	-0.199366
O5	O	1.837824	0.264225	0.083011
O6	O	1.604176	0.469852	0.058658
O7	O	2.053776	0.512858	0.053568
Zn8	Zn	1.828973	0.491353	0.092405
Zn9	Zn	1.828994	0.491365	-0.208760
O10	O	1.820128	0.718484	0.029215
C11	C	1.546586	0.460113	-0.054479
C12	C	1.374965	0.431065	-0.051041
C13	C	1.835931	0.205471	-0.024324
C14	C	1.830249	0.030384	-0.003599
C15	C	2.111381	0.522604	-0.061879
C16	C	2.283002	0.551653	-0.065327
C17	C	1.822037	0.777247	-0.092034
C18	C	1.827719	0.952334	-0.112769
N19	N	1.828971	0.491346	0.297942
N20	N	1.829008	0.491361	-0.414296
C21	C	1.932466	0.400345	0.380646
C22	C	1.932482	0.400348	0.524528
C23	C	1.725502	0.582366	0.502990
C24	C	1.725480	0.582353	0.359111
H25	H	1.335564	0.677116	-0.080172
O26	O	1.827845	-0.049518	0.126908
C27	C	1.962663	-0.007063	0.197717
H28	H	2.011065	0.113236	0.148177
H29	H	1.932804	-0.002146	0.311130
H30	H	2.053134	-0.097944	0.191105
H31	H	1.322396	0.305594	-0.036221
H32	H	2.016733	0.326239	0.330846
O33	O	1.830084	0.032546	-0.243144
C34	C	1.699630	0.125244	-0.261468
H35	H	1.655950	0.148950	-0.156055
H36	H	1.733373	0.241537	-0.327884
H37	H	1.604081	0.060208	-0.315282
O38	O	2.033169	0.311916	0.604657
C39	C	2.124472	0.231561	0.519812
H40	H	2.127169	0.296317	0.409577
H41	H	2.247541	0.226308	0.561987
H42	H	2.072539	0.107083	0.519264
H43	H	1.641244	0.656465	0.552808
O44	O	1.624884	0.670902	0.278959
C45	C	1.533527	0.751210	0.363800
H46	H	1.596929	0.762626	0.465001
H47	H	1.511826	0.873248	0.307761
H48	H	1.417956	0.682700	0.387239
