data_functionalizedCrystal
_audit_creation_method	'MofGen! by Chris Wilmer'
_symmetry_space_group_name_H-M	'P1'
_symmetry_Int_Tables_number	1
_symmetry_cell_setting	triclinic
loop_
_symmetry_equiv_pos_as_xyz
  x,y,z
_cell_length_a	10.540539
_cell_length_b	17.699092
_cell_length_c	16.776229
_cell_angle_alpha	90.001732
_cell_angle_beta	90.003709
_cell_angle_gamma	83.905930
loop_
_atom_site_label
_atom_site_type_symbol
_atom_site_fract_x
_atom_site_fract_y
_atom_site_fract_z
O1	O	1.683944	0.106658	0.066247
O2	O	2.183944	0.606658	0.566247
O3	O	1.314348	0.116707	0.066257
O4	O	1.814348	0.616707	0.566257
O5	O	1.509583	0.001562	0.066250
O6	O	2.009583	0.501562	0.566250
O7	O	1.488710	0.221803	0.066254
O8	O	1.988710	0.721803	0.566254
O9	O	1.509561	0.001561	-0.066326
O10	O	2.009561	0.501561	0.433674
O11	O	1.314326	0.116707	-0.066320
O12	O	1.814326	0.616707	0.433680
O13	O	1.683922	0.106657	-0.066329
O14	O	2.183922	0.606657	0.433671
Zn15	Zn	1.499121	0.111682	-0.087374
Zn16	Zn	1.999121	0.611682	0.412626
Zn17	Zn	1.499150	0.111683	0.087302
Zn18	Zn	1.999150	0.611683	0.587302
O19	O	1.488688	0.221803	-0.066322
O20	O	1.988688	0.721803	0.433678
C21	C	1.267048	0.115953	-0.000030
C22	C	1.767048	0.615953	0.499970
C23	C	1.126141	0.113699	-0.000026
C24	C	1.626141	0.613699	0.499974
C25	C	0.944290	0.027300	-0.000338
C26	C	1.444290	0.527300	0.499662
C27	C	1.090866	0.029585	-0.000030
C28	C	1.590866	0.529585	0.499970
C29	C	1.063743	0.154177	0.075679
C30	C	1.563743	0.654177	0.575679
C31	C	0.917250	0.151307	0.075734
C32	C	1.417250	0.651307	0.575734
C33	C	0.916706	0.153018	-0.075030
C34	C	1.416706	0.653018	0.424970
C35	C	1.063673	0.153792	-0.076022
C36	C	1.563673	0.653792	0.423978
C37	C	1.508822	-0.026640	-0.000037
C38	C	2.008822	0.473360	0.499963
C39	C	1.506573	-0.110673	-0.000033
C40	C	2.006573	0.389327	0.499967
C41	C	1.505531	-0.150147	0.072235
C42	C	2.005531	0.349853	0.572235
C43	C	1.503410	-0.229104	0.072236
C44	C	2.003410	0.270896	0.572236
C45	C	1.502339	-0.268586	-0.000032
C46	C	2.002339	0.231414	0.499968
C47	C	1.503377	-0.229106	-0.072306
C48	C	2.003377	0.270894	0.427694
C49	C	1.505490	-0.150150	-0.072306
C50	C	2.005490	0.349850	0.427694
C51	C	1.494857	-0.547526	-0.072307
C52	C	1.994857	-0.047526	0.427693
C53	C	1.492748	-0.626488	-0.072301
C54	C	1.992748	-0.126488	0.427699
C55	C	1.492777	-0.626480	0.072235
C56	C	1.992777	-0.126480	0.572235
C57	C	1.494890	-0.547524	0.072235
C58	C	1.994890	-0.047524	0.572235
C59	C	1.495921	-0.508051	-0.000038
C60	C	1.995921	-0.008051	0.499962
C61	C	1.498219	-0.422437	-0.000038
C62	C	1.998219	0.077563	0.499962
C63	C	1.500051	-0.354199	-0.000033
C64	C	2.000051	0.145801	0.499967
C65	C	1.731223	0.107411	-0.000040
C66	C	2.231223	0.607411	0.499960
C67	C	1.872130	0.109666	-0.000039
C68	C	2.372130	0.609666	0.499961
C69	C	1.489448	0.250005	-0.000034
C70	C	1.989448	0.750005	0.499966
C71	C	1.491697	0.334037	-0.000032
C72	C	1.991697	0.834037	0.499968
N73	N	1.499110	0.111681	-0.206585
N74	N	1.999110	0.611681	0.293415
C75	C	1.575949	0.158029	-0.248300
C76	C	2.075949	0.658029	0.251700
C77	C	1.575963	0.158026	-0.331752
C78	C	2.075963	0.658026	0.168248
C79	C	1.499131	0.111679	-0.373488
C80	C	1.999131	0.611679	0.126512
C81	C	1.422289	0.065326	-0.331767
C82	C	1.922289	0.565326	0.168233
C83	C	1.422282	0.065325	-0.248317
C84	C	1.922282	0.565325	0.251683
C85	C	1.422315	0.065327	-0.668314
C86	C	1.922315	0.565327	-0.168314
C87	C	1.422324	0.065333	-0.751771
C88	C	1.922324	0.565333	-0.251771
C89	C	1.575995	0.158028	-0.751750
C90	C	2.075995	0.658028	-0.251750
C91	C	1.575989	0.158028	-0.668299
C92	C	2.075989	0.658028	-0.168299
C93	C	1.499152	0.111672	-0.626586
C94	C	1.999152	0.611672	-0.126586
C95	C	1.499140	0.111674	-0.536097
C96	C	1.999140	0.611674	-0.036097
C97	C	1.499136	0.111680	-0.463975
C98	C	1.999136	0.611680	0.036025
N99	N	1.499170	0.111677	0.206513
N100	N	1.999170	0.611677	0.706513
H101	H	1.134052	-0.002265	-0.054300
H102	H	1.634052	0.497735	0.445700
H103	H	1.106853	0.126059	0.132020
H104	H	1.606853	0.626059	0.632020
H105	H	1.638548	0.195771	-0.634322
H106	H	2.138548	0.695771	-0.134322
H107	H	1.133206	-0.002489	0.054331
H108	H	1.633206	0.497511	0.554331
H109	H	1.495767	-0.515382	0.131083
H110	H	1.995767	-0.015382	0.631083
H111	H	1.359712	0.027584	-0.214353
H112	H	1.859712	0.527584	0.285647
H113	H	1.638507	0.195775	-0.214324
H114	H	2.138507	0.695775	0.285676
H115	H	1.506410	-0.118007	0.131084
H116	H	2.006410	0.381993	0.631084
H117	H	1.084969	0.215948	0.078497
H118	H	1.584969	0.715948	0.578497
H119	H	1.502567	-0.261240	0.131084
H120	H	2.002567	0.238760	0.631084
H121	H	0.868370	0.213772	-0.075540
H122	H	1.368370	0.713772	0.424460
H123	H	0.885646	0.125796	-0.132414
H124	H	1.385646	0.625796	0.367586
H125	H	1.105166	0.124221	-0.132029
H126	H	1.605166	0.624221	0.367971
H127	H	1.491873	-0.658632	-0.131154
H128	H	1.991873	-0.158632	0.368846
H129	H	1.491931	-0.658628	0.131084
H130	H	1.991931	-0.158628	0.631084
H131	H	1.086780	0.215116	-0.080592
H132	H	1.586780	0.715116	0.419408
H133	H	1.502498	-0.261258	-0.131148
H134	H	2.002498	0.238742	0.368852
H135	H	1.638535	0.195766	-0.365712
H136	H	2.138535	0.695766	0.134288
H137	H	1.495722	-0.515398	-0.131156
H138	H	1.995722	-0.015398	0.368844
H139	H	1.638562	0.195772	-0.785723
H140	H	2.138562	0.695772	-0.285723
H141	H	0.914695	-0.005789	0.053652
H142	H	1.414695	0.494211	0.553652
H143	H	1.506320	-0.118010	-0.131155
H144	H	2.006320	0.381990	0.368845
H145	H	1.359755	0.027588	-0.785750
H146	H	1.859755	0.527588	-0.285750
H147	H	0.889595	0.121390	0.132324
H148	H	1.389595	0.621390	0.632324
H149	H	1.359737	0.027585	-0.365755
H150	H	1.859737	0.527585	0.134245
H151	H	0.916302	-0.005930	-0.054630
H152	H	1.416302	0.494070	0.445370
H153	H	0.868178	0.211800	0.079172
H154	H	1.368178	0.711800	0.579172
H155	H	1.359750	0.027581	-0.634361
H156	H	1.859750	0.527581	-0.134361
