data_functionalizedCrystal
_audit_creation_method	'MofGen! by Chris Wilmer'
_symmetry_space_group_name_H-M	'P1'
_symmetry_Int_Tables_number	1
_symmetry_cell_setting	triclinic
loop_
_symmetry_equiv_pos_as_xyz
  x,y,z
_cell_length_a	16.959455
_cell_length_b	18.101395
_cell_length_c	16.959447
_cell_angle_alpha	90.029468
_cell_angle_beta	90.014322
_cell_angle_gamma	90.028051
loop_
_atom_site_label
_atom_site_type_symbol
_atom_site_fract_x
_atom_site_fract_y
_atom_site_fract_z
Zn1	Zn	1.208323	-0.294875	0.446913
Zn2	Zn	1.208220	-0.418728	0.314737
Zn3	Zn	1.076152	-0.294899	0.314751
Zn4	Zn	1.076091	-0.418673	0.446875
O5	O	1.142196	-0.356794	0.380819
O6	O	1.318920	-0.311318	0.429390
O7	O	1.190683	-0.402335	0.204128
O8	O	1.093753	-0.191263	0.332304
O9	O	1.318845	-0.402312	0.332280
O10	O	1.190859	-0.191246	0.429404
O11	O	1.093653	-0.311358	0.204138
O12	O	0.965533	-0.311304	0.332267
O13	O	1.093649	-0.402218	0.557491
O14	O	0.965488	-0.402241	0.429339
O15	O	1.190800	-0.311264	0.557519
O16	O	1.190624	-0.522354	0.332243
O17	O	1.093550	-0.522313	0.429325
C18	C	0.936830	-0.356769	0.380801
C19	C	0.848974	-0.356777	0.380812
C20	C	1.142091	-0.549204	0.380796
C21	C	1.142118	-0.631518	0.380812
C22	C	0.477497	-0.309404	0.330380
C23	C	0.477499	-0.404244	0.431304
C24	C	0.560045	-0.404234	0.431299
C25	C	0.601321	-0.356808	0.380833
C26	C	0.560050	-0.309394	0.330372
C27	C	0.601321	-0.451653	0.481754
C28	C	0.683872	-0.451644	0.481750
C29	C	0.725150	-0.404215	0.431287
C30	C	0.683874	-0.356798	0.380825
C31	C	0.725150	-0.309373	0.330359
C32	C	0.683876	-0.261951	0.279899
C33	C	0.601327	-0.261964	0.279909
C34	C	0.807698	-0.404202	0.431278
C35	C	0.807703	-0.309362	0.330351
C36	C	1.142291	-0.930609	0.380855
C37	C	1.081356	-0.899289	0.442088
C38	C	1.081066	-0.813671	0.441896
C39	C	1.142205	-0.782227	0.380834
C40	C	1.119658	-0.813380	0.297530
C41	C	1.119266	-0.899025	0.297896
C42	C	1.225907	-0.898956	0.402193
C43	C	1.225415	-0.813305	0.404020
C44	C	1.142158	-0.698367	0.380818
C45	C	1.142337	-1.014469	0.380866
C46	C	1.348365	-0.356819	0.380838
C47	C	1.436221	-0.356830	0.380846
C48	C	1.142229	-0.356732	0.586987
C49	C	1.142243	-0.356706	0.674844
C50	C	1.142324	-0.163632	0.380860
C51	C	1.142379	-0.081318	0.380877
C52	C	1.142209	-0.356801	0.175453
C53	C	1.142348	-0.356619	0.087597
C54	C	1.091756	-0.403984	1.046308
C55	C	1.192920	-0.309273	1.046332
C56	C	1.192899	-0.309289	0.963786
C57	C	1.142306	-0.356653	0.922497
C58	C	1.091735	-0.404002	0.963754
C59	C	1.243475	-0.261946	0.922523
C60	C	1.243456	-0.261960	0.839972
C61	C	1.192859	-0.309322	0.798681
C62	C	1.142285	-0.356672	0.839944
C63	C	1.091693	-0.404037	0.798655
C64	C	1.041115	-0.451384	0.839915
C65	C	1.041138	-0.451364	0.922464
C66	C	1.192836	-0.309342	0.716133
C67	C	1.091672	-0.404055	0.716101
H68	H	0.841304	-0.270738	0.289259
H69	H	0.999962	-0.489914	0.956066
H70	H	1.019089	-0.793246	0.427762
H71	H	1.019755	-0.920873	0.428131
N72	N	0.728397	-0.210806	0.225464
H73	H	0.786953	-0.218001	0.233116
H74	H	0.714001	-0.157929	0.237867
H75	H	0.567709	-0.490269	0.522835
H76	H	1.161723	-0.919746	0.250718
N77	N	1.176594	-0.786408	0.235443
H78	H	1.217648	-0.753655	0.260780
H79	H	1.146890	-0.757424	0.194146
N80	N	1.039553	-0.785052	0.273157
H81	H	0.998764	-0.801466	0.312845
H82	H	1.025638	-0.805410	0.219469
N83	N	0.432983	-0.258273	0.275946
H84	H	0.398752	-0.223992	0.308127
H85	H	0.398760	-0.288396	0.239281
N86	N	1.037203	-0.455054	1.090793
H87	H	0.980735	-0.443545	1.076421
H88	H	1.044949	-0.447840	1.149341
N89	N	0.432985	-0.455400	0.485725
H90	H	0.374428	-0.448214	0.478071
H91	H	0.447434	-0.443938	0.542199
N92	N	0.728386	-0.502789	0.536170
H93	H	0.689711	-0.532834	0.568139
H94	H	0.762658	-0.472681	0.572804
N95	N	0.852216	-0.455347	0.485688
H96	H	0.813542	-0.485396	0.517656
H97	H	0.886489	-0.425243	0.522325
N98	N	1.099744	-0.785760	0.523715
H99	H	1.108241	-0.829092	0.560232
H100	H	1.054345	-0.754874	0.543646
N101	N	1.038307	-0.925579	0.273951
H102	H	1.003209	-0.881649	0.263258
H103	H	1.014946	-0.956203	0.317894
H104	H	1.095322	-0.919836	0.504057
H105	H	1.246464	-0.920503	0.461904
H106	H	1.242417	-0.792941	0.465328
N107	N	1.288740	-0.784947	0.349258
H108	H	1.264277	-0.751405	0.308458
H109	H	1.315076	-0.828030	0.322092
H110	H	1.284640	-0.223407	0.806384
H111	H	1.271306	-0.919210	0.357595
H112	H	1.050466	-0.442619	0.682489
N113	N	0.986554	-0.502474	0.795380
H114	H	0.994222	-0.495301	0.736825
H115	H	0.930111	-0.490938	0.809804
N116	N	1.247490	-0.258194	1.090860
H117	H	1.239831	-0.265368	1.149415
H118	H	1.235217	-0.205305	1.076450
H119	H	1.284669	-0.223389	0.956146
N120	N	1.247386	-0.258287	0.671630
H121	H	1.279443	-0.228283	0.710312
H122	H	1.215229	-0.224016	0.637390
H123	H	0.567715	-0.223357	0.238827
