data_functionalizedCrystal
_audit_creation_method	'MofGen! by Chris Wilmer'
_symmetry_space_group_name_H-M	'P1'
_symmetry_Int_Tables_number	1
_symmetry_cell_setting	triclinic
loop_
_symmetry_equiv_pos_as_xyz
  x,y,z
_cell_length_a	10.654550
_cell_length_b	27.731996
_cell_length_c	9.130313
_cell_angle_alpha	89.989531
_cell_angle_beta	89.999724
_cell_angle_gamma	83.553159
loop_
_atom_site_label
_atom_site_type_symbol
_atom_site_fract_x
_atom_site_fract_y
_atom_site_fract_z
O1	O	1.664953	0.067887	-0.121712
O2	O	1.299199	0.074355	-0.121741
O3	O	1.493469	0.000794	-0.121693
O4	O	1.470682	0.141449	-0.121759
O5	O	1.493456	0.000792	0.121905
O6	O	1.299186	0.074353	0.121858
O7	O	1.664940	0.067885	0.121887
Cu8	Cu	1.482062	0.071119	0.144115
Cu9	Cu	1.482077	0.071122	-0.143969
O10	O	1.470669	0.141447	0.121840
C11	C	1.252415	0.073879	0.000056
C12	C	1.113032	0.072458	0.000046
C13	C	1.031705	0.115770	0.000030
C14	C	0.900741	0.114432	0.000056
C15	C	0.932444	0.026467	0.000108
C16	C	1.063406	0.027805	0.000092
C17	C	1.492995	-0.017218	0.000111
C18	C	1.491585	-0.070883	0.000126
C19	C	1.482721	-0.403653	-0.132732
C20	C	1.477367	-0.605345	-0.132758
O21	O	1.476627	-0.631419	-0.245689
N22	N	1.476695	-0.630567	0.000026
C23	C	1.477353	-0.605363	0.132826
O24	O	1.476646	-0.631444	0.245767
C25	C	1.482698	-0.403672	0.132851
C26	C	1.483383	-0.378453	0.000058
C27	C	1.483405	-0.378434	-0.265515
C28	C	1.484750	-0.328014	-0.265507
C29	C	1.485412	-0.302814	-0.132716
C30	C	1.484729	-0.328033	0.000066
C31	C	1.483347	-0.378469	0.265650
C32	C	1.484681	-0.328042	0.265644
C33	C	1.485365	-0.302823	0.132851
C34	C	1.486736	-0.252413	0.132864
N35	N	1.487408	-0.227191	0.000079
C36	C	1.486746	-0.252391	-0.132711
C37	C	1.474550	-0.711254	0.132804
C38	C	1.473216	-0.761677	0.132798
C39	C	1.473227	-0.761654	-0.132787
C40	C	1.474570	-0.711231	-0.132780
C41	C	1.475222	-0.686031	0.000020
C42	C	1.489572	-0.146507	-0.132684
C43	C	1.490923	-0.096083	-0.132664
C44	C	1.490905	-0.096109	0.132920
C45	C	1.489561	-0.146529	0.132901
C46	C	1.488890	-0.171726	0.000087
O47	O	1.487463	-0.226307	0.245735
O48	O	1.487426	-0.226301	-0.245635
C49	C	1.481376	-0.454073	-0.132740
C50	C	1.480693	-0.479292	0.000042
C51	C	1.481354	-0.454092	0.132832
C52	C	1.479359	-0.529715	0.000036
C53	C	1.478697	-0.554915	-0.132754
C54	C	1.479369	-0.529692	-0.265538
C55	C	1.480714	-0.479273	-0.265530
C56	C	1.480682	-0.479314	0.265617
C57	C	1.479338	-0.529734	0.265598
C58	C	1.478677	-0.554934	0.132808
C59	C	1.711724	0.068361	0.000088
C60	C	1.851107	0.069782	0.000088
C61	C	1.471144	0.159458	0.000033
C62	C	1.472554	0.213123	0.000008
N63	N	1.482060	0.071117	0.346738
N64	N	1.482089	0.071120	-0.346591
C65	C	1.568111	0.038558	0.423411
C66	C	1.568123	0.038558	0.576747
C67	C	1.396029	0.103681	0.576725
C68	C	1.396012	0.103678	0.423391
H69	H	0.834528	0.149701	0.000046
H70	H	1.478791	-0.550263	0.373742
O71	O	0.878921	-0.021694	0.000147
H72	H	0.774192	-0.015349	0.000142
O73	O	1.303199	0.138798	0.340677
H74	H	1.243381	0.161446	0.419736
O75	O	1.303239	0.138803	0.659411
H76	H	1.318481	0.176538	0.629933
H77	H	1.482792	-0.398994	0.373785
O78	O	1.660888	0.003433	0.340716
H79	H	1.758662	0.009934	0.370118
O80	O	1.085229	0.163931	0.000013
H81	H	1.052475	0.184769	-0.099270
H82	H	1.638192	0.012045	0.639170
H83	H	1.485192	-0.307527	0.373788
H84	H	1.475086	-0.690741	0.240952
H85	H	1.129627	-0.007467	0.000110
H86	H	1.491484	-0.075552	-0.240805
H87	H	1.489020	-0.167016	-0.240834
O88	O	1.485455	-0.300814	-0.408733
H89	H	1.484750	-0.326814	-0.501059
H90	H	1.475126	-0.690701	-0.240912
O91	O	1.482660	-0.405609	-0.408749
H92	H	1.483354	-0.379593	-0.501065
H93	H	1.472690	-0.782181	-0.240910
O94	O	1.472498	-0.788879	0.276021
H95	H	1.387125	-0.775184	0.339682
O96	O	1.488840	-0.173739	0.276115
H97	H	1.403472	-0.160044	0.339783
O98	O	1.491623	-0.068925	0.276141
H99	H	1.406607	-0.041931	0.282480
O100	O	1.481430	-0.452073	-0.408757
H101	H	1.480728	-0.478073	-0.501082
O102	O	1.478644	-0.556876	-0.408768
H103	H	1.477583	-0.596173	-0.386447
O104	O	1.481420	-0.452141	0.408853
H105	H	1.395551	-0.457803	0.472536
