data_functionalizedCrystal
_audit_creation_method	'MofGen! by Chris Wilmer'
_symmetry_space_group_name_H-M	'P1'
_symmetry_Int_Tables_number	1
_symmetry_cell_setting	triclinic
loop_
_symmetry_equiv_pos_as_xyz
  x,y,z
_cell_length_a	10.723024
_cell_length_b	15.944551
_cell_length_c	9.198806
_cell_angle_alpha	89.995864
_cell_angle_beta	89.996352
_cell_angle_gamma	83.983304
loop_
_atom_site_label
_atom_site_type_symbol
_atom_site_fract_x
_atom_site_fract_y
_atom_site_fract_z
O1	O	1.655699	0.117808	-0.120886
O2	O	1.292405	0.129085	-0.120892
O3	O	1.483973	0.001228	-0.120876
O4	O	1.464131	0.245664	-0.120902
O5	O	1.483958	0.001228	0.120909
O6	O	1.292389	0.129084	0.120893
O7	O	1.655684	0.117808	0.120899
Cu8	Cu	1.474035	0.123446	0.142973
Cu9	Cu	1.474053	0.123446	-0.142966
O10	O	1.464116	0.245664	0.120883
C11	C	1.245908	0.128264	0.000000
C12	C	1.107384	0.125809	-0.000001
C13	C	1.483141	-0.030070	0.000017
C14	C	1.480672	-0.123331	0.000018
C15	C	1.031498	0.197350	-0.000010
C16	C	0.888327	0.194814	-0.000012
C17	C	1.356026	-0.338901	-0.000004
C18	C	1.413900	-0.399587	0.119211
C19	C	1.476205	-0.294082	0.000006
C20	C	1.413944	-0.399570	-0.119170
C21	C	1.471880	-0.459020	-0.000011
C22	C	1.534111	-0.353540	0.119320
C23	C	1.534138	-0.353516	-0.119168
C24	C	1.592099	-0.414184	0.000077
C25	C	1.478692	-0.199066	0.000018
C26	C	1.469402	-0.554035	-0.000011
C27	C	1.702181	0.118629	0.000003
C28	C	1.840704	0.121084	-0.000005
C29	C	1.464947	0.276963	-0.000013
C30	C	1.467417	0.370223	-0.000024
N31	N	1.474032	0.123445	0.344087
N32	N	1.474067	0.123441	-0.344080
C33	C	1.554469	0.069525	0.416290
C34	C	1.554488	0.069522	0.583703
H35	H	1.072523	0.260477	-0.000009
O36	O	1.636466	0.014450	0.342000
C37	C	1.569368	-0.037610	0.253960
H38	H	1.471792	-0.004600	0.231357
H39	H	1.621310	-0.050559	0.146843
H40	H	1.560745	-0.099766	0.312485
H41	H	1.256273	-0.306164	0.000113
O42	O	1.353341	-0.424079	0.239400
C43	C	1.352833	-0.512468	0.238359
H44	H	1.433465	-0.541911	0.168181
H45	H	1.364527	-0.537616	0.354108
H46	H	1.260100	-0.529351	0.191950
H47	H	1.066360	0.062682	-0.000032
O48	O	1.636593	0.014331	0.657609
C49	C	1.615955	-0.068901	0.620565
H50	H	1.567924	-0.069061	0.510025
H51	H	1.709604	-0.109861	0.615498
H52	H	1.553653	-0.095085	0.706213
H53	H	1.405202	0.169609	0.593837
O54	O	1.594609	-0.329205	0.239651
C55	C	1.596183	-0.240898	0.238219
H56	H	1.516086	-0.211160	0.167565
H57	H	1.584377	-0.215516	0.353804
H58	H	1.689357	-0.224611	0.192132
O59	O	1.391715	0.178433	0.418122
C60	C	1.268068	0.164289	0.381034
H61	H	1.267140	0.097080	0.339101
H62	H	1.205561	0.173621	0.481211
H63	H	1.231520	0.210729	0.292805
O64	O	0.810368	0.267805	0.000040
C65	C	0.684775	0.249024	-0.000001
H66	H	0.679897	0.183007	0.045782
H67	H	0.625725	0.296919	0.070186
H68	H	0.647146	0.251960	-0.116000
O69	O	0.918300	0.047932	-0.000062
C70	C	0.846212	-0.021114	-0.000017
H71	H	0.749050	-0.000431	-0.045792
H72	H	0.894312	-0.073871	-0.070208
H73	H	0.836983	-0.044873	0.115983
H74	H	1.584931	-0.333095	-0.219959
H75	H	1.691940	-0.446772	0.000146
H76	H	1.363104	-0.419938	-0.219964
