data_functionalizedCrystal
_audit_creation_method	'MofGen! by Chris Wilmer'
_symmetry_space_group_name_H-M	'P1'
_symmetry_Int_Tables_number	1
_symmetry_cell_setting	triclinic
loop_
_symmetry_equiv_pos_as_xyz
  x,y,z
_cell_length_a	10.908937
_cell_length_b	11.792241
_cell_length_c	9.482900
_cell_angle_alpha	99.398500
_cell_angle_beta	83.036371
_cell_angle_gamma	72.139686
loop_
_atom_site_label
_atom_site_type_symbol
_atom_site_fract_x
_atom_site_fract_y
_atom_site_fract_z
O1	O	1.722491	-0.196579	-0.120936
O2	O	1.349246	-0.108067	-0.120930
O3	O	1.544925	-0.319251	-0.120923
O4	O	1.526813	0.014604	-0.120943
O5	O	1.505179	-0.276213	0.120868
O6	O	1.309500	-0.065029	0.120861
O7	O	1.682746	-0.153541	0.120855
Cu8	Cu	1.492494	-0.105355	0.142936
Cu9	Cu	1.539498	-0.156253	-0.143010
O10	O	1.487067	0.057642	0.120848
C11	C	1.281589	-0.078277	-0.000034
C12	C	1.139209	-0.053643	-0.000031
C13	C	0.942422	-0.118082	-0.000053
C14	C	1.089576	-0.143541	-0.000034
C15	C	1.523914	-0.339802	-0.000028
C16	C	1.520508	-0.465154	-0.000029
C17	C	1.514249	-0.694655	-0.000053
C18	C	1.517727	-0.566943	-0.000040
C19	C	1.750403	-0.183332	-0.000044
C20	C	1.892785	-0.207968	-0.000056
C21	C	1.508078	0.078193	-0.000050
C22	C	1.511486	0.203544	-0.000058
N23	N	1.459443	-0.069559	0.344055
N24	N	1.572559	-0.192060	-0.344129
C25	C	1.529740	-0.145699	0.416256
C26	C	1.502251	-0.115909	0.583673
H27	H	1.610272	-0.232943	0.354131
H28	H	1.653095	-0.279309	0.593749
H29	H	1.378903	0.017678	0.406182
H30	H	0.875978	-0.022282	-0.000074
H31	H	1.072769	0.042166	-0.000047
O32	O	1.169004	-0.257761	0.000043
C33	C	1.298251	-0.257758	0.000018
H34	H	1.296346	-0.161506	0.045792
H35	H	1.346937	-0.321804	0.070225
H36	H	1.355984	-0.289962	-0.115977
O37	O	0.972032	-0.322329	-0.000301
C38	C	0.968870	-0.403597	-0.125508
H39	H	0.937887	-0.350738	-0.213041
H40	H	1.070420	-0.474355	-0.167530
H41	H	0.895749	-0.451414	-0.097200
H42	H	1.421706	-0.028666	0.645794
