data_functionalizedCrystal
_audit_creation_method	'MofGen! by Chris Wilmer'
_symmetry_space_group_name_H-M	'P1'
_symmetry_Int_Tables_number	1
_symmetry_cell_setting	triclinic
loop_
_symmetry_equiv_pos_as_xyz
  x,y,z
_cell_length_a	19.288867
_cell_length_b	14.044220
_cell_length_c	17.766277
_cell_angle_alpha	90.005715
_cell_angle_beta	90.007910
_cell_angle_gamma	88.162973
loop_
_atom_site_label
_atom_site_type_symbol
_atom_site_fract_x
_atom_site_fract_y
_atom_site_fract_z
O1	O	0.928948	0.118222	0.062570
O2	O	0.727712	0.134167	0.062577
O3	O	0.825310	-0.011777	0.062566
O4	O	0.831351	0.264166	0.062581
O5	O	0.825290	-0.011781	-0.062622
O6	O	0.727693	0.134163	-0.062611
O7	O	0.928929	0.118218	-0.062619
Cu8	Cu	0.828309	0.126190	-0.074046
Cu9	Cu	0.828332	0.126195	0.074004
O10	O	0.831331	0.264162	-0.062608
C11	C	0.701793	0.133652	-0.000016
C12	C	0.624591	0.132110	-0.000013
C13	C	0.068323	0.121012	0.068218
C14	C	0.140863	0.122455	0.068220
C15	C	0.177128	0.123178	-0.000020
C16	C	0.140847	0.122435	-0.068268
C17	C	0.068308	0.120983	-0.068269
C18	C	0.290161	0.180978	-0.052297
C19	C	0.362698	0.182436	-0.052294
C20	C	0.400861	0.127652	-0.000020
C21	C	0.366477	0.071422	0.052263
C22	C	0.293939	0.069970	0.052262
C23	C	0.255783	0.124752	-0.000026
C24	C	0.515789	0.129952	0.068227
C25	C	0.588331	0.131389	0.068227
C26	C	0.588313	0.131378	-0.068263
C27	C	0.515773	0.129932	-0.068261
C28	C	0.479515	0.129224	-0.000014
C29	C	0.822656	-0.047082	-0.000028
C30	C	0.814768	-0.152275	-0.000029
C31	C	0.800347	-0.344875	-0.000018
C32	C	0.856291	-0.402746	-0.000017
C33	C	0.848267	-0.509915	-0.000011
C34	C	0.808370	-0.237695	-0.000024
C35	C	0.954848	0.118733	-0.000024
C36	C	1.032050	0.120274	-0.000021
C37	C	0.833986	0.299467	-0.000012
C38	C	0.841873	0.404660	-0.000006
N39	N	0.828298	0.126186	-0.178176
C40	C	0.873969	0.183519	-0.217555
C41	C	0.873980	0.183517	-0.296357
C42	C	0.828307	0.126191	-0.335777
C43	C	0.782633	0.068846	-0.296388
C44	C	0.782628	0.068844	-0.217588
C45	C	0.765541	0.123794	-0.460634
C46	C	0.765545	0.123804	-0.539433
C47	C	0.828322	0.126194	-0.578823
C48	C	0.891098	0.128596	-0.539405
C49	C	0.891093	0.128593	-0.460604
C50	C	0.828308	0.126188	-0.421222
C51	C	0.874009	0.183528	-0.703648
C52	C	0.874020	0.183518	-0.782451
C53	C	0.782667	0.068854	-0.782481
C54	C	0.782662	0.068858	-0.703679
C55	C	0.828331	0.126200	-0.664267
N56	N	0.828348	0.126191	0.178135
H57	H	0.038806	0.120432	0.123790
C58	C	0.696490	0.121168	-0.582785
N59	N	0.644476	0.119182	-0.615437
H60	H	0.714416	0.121854	-0.428569
H61	H	0.942217	0.130547	-0.571474
H62	H	0.910211	-0.371805	0.000031
H63	H	0.746431	-0.375814	-0.000014
H64	H	0.390686	0.228245	-0.094850
C65	C	0.180770	0.123277	0.143292
N66	N	0.210826	0.123901	0.199835
C67	C	0.256120	0.008106	0.109764
N68	N	0.227636	-0.038496	0.153071
H69	H	0.911160	0.230208	-0.185471
H70	H	0.259094	0.225586	-0.094873
H71	H	0.911171	0.230207	-0.328426
H72	H	0.397548	0.026814	0.094832
H73	H	0.038776	0.120385	-0.123839
H74	H	0.486267	0.129373	0.123798
C75	C	0.960146	0.131221	-0.417247
N76	N	1.012158	0.133195	-0.384591
H77	H	0.745447	0.022171	-0.328489
H78	H	0.617839	0.131964	-0.123825
C79	C	0.628231	0.132189	0.143300
N80	N	0.658284	0.132790	0.199846
H81	H	0.911196	0.230219	-0.671557
C82	C	0.924252	0.246613	-0.825768
N83	N	0.962082	0.294145	-0.858395
H84	H	0.745480	0.022177	-0.814576
C85	C	0.732412	0.005796	-0.660360
N86	N	0.694562	-0.041706	-0.627733
H87	H	0.486240	0.129335	-0.123828
H88	H	0.745436	0.022155	-0.185526
H89	H	0.170378	0.123022	-0.123829
