data_functionalizedCrystal
_audit_creation_method	'MofGen! by Chris Wilmer'
_symmetry_space_group_name_H-M	'P1'
_symmetry_Int_Tables_number	1
_symmetry_cell_setting	triclinic
loop_
_symmetry_equiv_pos_as_xyz
  x,y,z
_cell_length_a	21.395362
_cell_length_b	19.077068
_cell_length_c	21.395356
_cell_angle_alpha	92.269849
_cell_angle_beta	89.957023
_cell_angle_gamma	92.343691
loop_
_atom_site_label
_atom_site_type_symbol
_atom_site_fract_x
_atom_site_fract_y
_atom_site_fract_z
Zn1	Zn	0.947857	-0.279924	-0.364584
Zn2	Zn	1.281190	0.053409	-0.031251
Zn3	Zn	1.614524	0.386742	0.302083
Zn4	Zn	0.943558	-0.397624	-0.264010
Zn5	Zn	1.276891	-0.064291	0.069323
Zn6	Zn	1.610224	0.269042	0.402656
Zn7	Zn	0.843072	-0.279976	-0.259787
Zn8	Zn	1.176405	0.053357	0.073546
Zn9	Zn	1.509738	0.386691	0.406880
Zn10	Zn	0.838838	-0.397620	-0.368715
Zn11	Zn	1.172171	-0.064287	-0.035382
Zn12	Zn	1.505505	0.269047	0.297952
O13	O	0.893331	-0.338786	-0.314274
O14	O	1.226664	-0.005453	0.019059
O15	O	1.559998	0.327880	0.352393
O16	O	1.034965	-0.295518	-0.351281
O17	O	1.368299	0.037816	-0.017948
O18	O	1.701632	0.371149	0.315385
O19	O	0.930201	-0.382041	-0.175773
O20	O	1.263534	-0.048708	0.157560
O21	O	1.596868	0.284625	0.490894
O22	O	0.860543	-0.181477	-0.270192
O23	O	1.193876	0.151857	0.063141
O24	O	1.527209	0.485190	0.396474
O25	O	1.031807	-0.381991	-0.277390
O26	O	1.365140	-0.048658	0.055943
O27	O	1.698473	0.284675	0.389276
O28	O	0.937528	-0.181439	-0.347186
O29	O	1.270861	0.151894	-0.013853
O30	O	1.604195	0.485228	0.319481
O31	O	0.856374	-0.295606	-0.172670
O32	O	1.189707	0.037728	0.160663
O33	O	1.523041	0.371061	0.493997
O34	O	0.754831	-0.295601	-0.274198
O35	O	1.088165	0.037732	0.059135
O36	O	1.421498	0.371065	0.392469
O37	O	0.853327	-0.381984	-0.455844
O38	O	1.186660	-0.048651	-0.122511
O39	O	1.519993	0.284683	0.210823
O40	O	0.751721	-0.382034	-0.354227
O41	O	1.085054	-0.048701	-0.020893
O42	O	1.418388	0.284633	0.312440
O43	O	0.933423	-0.295514	-0.452809
O44	O	1.266756	0.037820	-0.119476
O45	O	1.600089	0.371153	0.213858
O46	O	0.926095	-0.496116	-0.281396
O47	O	1.259429	-0.162783	0.051937
O48	O	1.592762	0.170551	0.385271
O49	O	0.849158	-0.496113	-0.358322
O50	O	1.182491	-0.162780	-0.024989
O51	O	1.515825	0.170554	0.308345
C52	C	0.730542	-0.338823	-0.314203
C53	C	1.063875	-0.005490	0.019131
C54	C	1.397209	0.327843	0.352464
C55	C	0.660900	-0.338856	-0.314188
C56	C	0.994233	-0.005523	0.019146
C57	C	1.327566	0.327810	0.352479
C58	C	0.626581	-0.383921	-0.355801
C59	C	0.959914	-0.050588	-0.022467
C60	C	1.293248	0.282745	0.310866
C61	C	0.561146	-0.383904	-0.355828
C62	C	0.894480	-0.050571	-0.022495
C63	C	1.227813	0.282763	0.310839
C64	C	0.530032	-0.338829	-0.314231
C65	C	0.863366	-0.005496	0.019102
C66	C	1.196699	0.327837	0.352435
C67	C	0.564359	-0.293755	-0.272615
C68	C	0.897692	0.039578	0.060718
C69	C	1.231026	0.372911	0.394052
C70	C	0.629793	-0.293769	-0.272593
C71	C	0.963126	0.039564	0.060740
C72	C	1.296459	0.372898	0.394073
C73	C	0.426511	-0.333169	-0.257624
C74	C	0.759844	0.000164	0.075709
C75	C	1.093177	0.333497	0.409043
C76	C	0.361078	-0.333161	-0.257645
C77	C	0.694411	0.000173	0.075688
C78	C	1.027745	0.333506	0.409022
C79	C	0.328213	-0.338783	-0.314299
C80	C	0.661547	-0.005450	0.019034
C81	C	0.994880	0.327883	0.352368
C82	C	0.360789	-0.344429	-0.370934
C83	C	0.694122	-0.011096	-0.037601
C84	C	1.027455	0.322237	0.295733
C85	C	0.426222	-0.344443	-0.370912
C86	C	0.759556	-0.011109	-0.037579
C87	C	1.092889	0.322224	0.295754
C88	C	0.459081	-0.338809	-0.314251
C89	C	0.792414	-0.005476	0.019083
C90	C	1.125747	0.327858	0.352416
C91	C	0.222943	-0.383832	-0.355945
C92	C	0.556276	-0.050499	-0.022612
C93	C	0.889609	0.282835	0.310722
C94	C	0.157507	-0.383810	-0.355973
C95	C	0.490840	-0.050477	-0.022640
C96	C	0.824174	0.282857	0.310693
C97	C	0.160721	-0.293665	-0.272755
C98	C	0.494054	0.039669	0.060579
C99	C	0.827388	0.373002	0.393912
C100	C	0.226156	-0.293683	-0.272732
C101	C	0.559489	0.039650	0.060601
C102	C	0.892822	0.372983	0.393935
C103	C	0.257262	-0.338771	-0.314326
C104	C	0.590596	-0.005437	0.019007
C105	C	0.923929	0.327896	0.352340
C106	C	0.886718	-0.521652	-0.320779
C107	C	1.220051	-0.188319	0.012554
C108	C	1.553385	0.145014	0.345887
C109	C	0.883946	-0.599883	-0.323583
C110	C	1.217279	-0.266550	0.009750
C111	C	1.550613	0.066783	0.343083
C112	C	0.922732	-0.636615	-0.284883
C113	C	1.256065	-0.303281	0.048451
C114	C	1.589399	0.030052	0.381784
C115	C	0.920129	-0.710121	-0.287523
C116	C	1.253462	-0.376788	0.045810
C117	C	1.586795	-0.043454	0.379143
C118	C	0.878736	-0.746895	-0.328862
C119	C	1.212069	-0.413561	0.004471
C120	C	1.545402	-0.080228	0.337804
C121	C	0.839948	-0.710158	-0.367567
C122	C	1.173281	-0.376825	-0.034234
C123	C	1.506615	-0.043492	0.299099
C124	C	0.842555	-0.636653	-0.364929
C125	C	1.175888	-0.303320	-0.031596
C126	C	1.509222	0.030013	0.301738
C127	C	0.866643	-0.966733	-0.341047
C128	C	1.199976	-0.633400	-0.007713
C129	C	1.533310	-0.300067	0.325620
C130	C	0.864038	-1.040243	-0.343681
C131	C	1.197371	-0.706910	-0.010347
C132	C	1.530704	-0.373577	0.322986
C133	C	0.944219	-1.040201	-0.263637
C134	C	1.277553	-0.706868	0.069696
C135	C	1.610886	-0.373535	0.403029
C136	C	0.946820	-0.966695	-0.261000
C137	C	1.280153	-0.633362	0.072333
C138	C	1.613487	-0.300028	0.405666
C139	C	0.908035	-0.929965	-0.299707
C140	C	1.241368	-0.596631	0.033626
C141	C	1.574701	-0.263298	0.366959
N142	N	0.876072	-0.822030	-0.331561
N143	N	1.209406	-0.488697	0.001772
N144	N	1.542739	-0.155363	0.335105
N145	N	0.910702	-0.854831	-0.297011
N146	N	1.244035	-0.521498	0.036322
N147	N	1.577368	-0.188164	0.369656
C148	C	1.056756	-0.338749	-0.314346
C149	C	1.390089	-0.005416	0.018987
C150	C	1.723422	0.327917	0.352321
C151	C	1.126398	-0.338734	-0.314377
C152	C	1.459731	-0.005400	0.018957
C153	C	1.793064	0.327933	0.352290
C154	C	0.893382	-0.338743	-0.477696
C155	C	1.226715	-0.005409	-0.144363
C156	C	1.560049	0.327924	0.188971
C157	C	0.893404	-0.338724	-0.547337
C158	C	1.226737	-0.005391	-0.214003
C159	C	1.560070	0.327943	0.119330
C160	C	0.899987	-0.155206	-0.307757
C161	C	1.233321	0.178128	0.025576
C162	C	1.566654	0.511461	0.358909
C163	C	0.902824	-0.076975	-0.304980
C164	C	1.236157	0.256359	0.028353
C165	C	1.569490	0.589692	0.361687
C166	C	0.854973	-0.293712	-0.578424
C167	C	1.188306	0.039622	-0.245091
C168	C	1.521640	0.372955	0.088243
C169	C	0.854971	-0.293699	-0.643859
C170	C	1.188305	0.039635	-0.310526
C171	C	1.521638	0.372968	0.022808
C172	C	0.893412	-0.338690	-0.678204
C173	C	1.226745	-0.005357	-0.344870
C174	C	1.560078	0.327976	-0.011537
C175	C	0.931845	-0.383711	-0.647109
C176	C	1.265178	-0.050378	-0.313775
C177	C	1.598512	0.282955	0.019558
C178	C	0.931841	-0.383728	-0.581675
C179	C	1.265174	-0.050395	-0.248342
C180	C	1.598507	0.282939	0.084992
C181	C	0.949667	-0.344206	-0.782106
C182	C	1.283000	-0.010873	-0.448773
C183	C	1.616333	0.322460	-0.115439
C184	C	0.949672	-0.344185	-0.847538
C185	C	1.283005	-0.010851	-0.514205
C186	C	1.616339	0.322482	-0.180872
C187	C	0.893424	-0.338643	-0.880023
C188	C	1.226757	-0.005310	-0.546690
C189	C	1.560090	0.328024	-0.213356
C190	C	0.837169	-0.333108	-0.847067
C191	C	1.170502	0.000225	-0.513733
C192	C	1.503836	0.333559	-0.180400
C193	C	0.837165	-0.333125	-0.781633
C194	C	1.170498	0.000209	-0.448300
C195	C	1.503832	0.333542	-0.114966
C196	C	0.893420	-0.338678	-0.749156
C197	C	1.226753	-0.005344	-0.415822
C198	C	1.560087	0.327989	-0.082489
C199	C	0.854988	-0.293614	-0.982062
C200	C	1.188321	0.039719	-0.648729
C201	C	1.521655	0.373052	-0.315396
C202	C	0.854985	-0.293606	-1.047499
C203	C	1.188318	0.039727	-0.714165
C204	C	1.521652	0.373061	-0.380832
C205	C	0.931864	-0.383615	-1.050747
C206	C	1.265198	-0.050282	-0.717414
C207	C	1.598531	0.283052	-0.384080
C208	C	0.931862	-0.383627	-0.985312
C209	C	1.265195	-0.050294	-0.651979
C210	C	1.598528	0.283040	-0.318645
C211	C	0.893424	-0.338623	-0.950973
C212	C	1.226758	-0.005289	-0.617640
C213	C	1.560091	0.328044	-0.284307
C214	C	0.893318	-0.338779	-0.151486
C215	C	1.226652	-0.005446	0.181847
C216	C	1.559985	0.327888	0.515180
C217	C	0.893425	-0.338599	-0.081839
C218	C	1.226758	-0.005266	0.251494
C219	C	1.560092	0.328068	0.584828
H220	H	0.248271	-0.420541	-0.389817
H221	H	0.581605	-0.087208	-0.056484
H222	H	0.914938	0.246125	0.276850
C223	C	0.725961	-0.322160	-0.840020
C224	C	1.059294	0.011173	-0.506687
C225	C	1.392627	0.344506	-0.173353
C226	C	0.775334	-0.327016	-0.882764
C227	C	1.108667	0.006318	-0.549431
C228	C	1.442000	0.339651	-0.216097
H229	H	0.687789	-0.318393	-0.862061
H230	H	1.021123	0.014940	-0.528728
H231	H	1.354456	0.348273	-0.195394
H232	H	0.723668	-0.362961	-0.815945
H233	H	1.057001	-0.029628	-0.482612
H234	H	1.390334	0.303706	-0.149279
H235	H	0.732937	-0.281825	-0.813072
H236	H	1.066270	0.051508	-0.479738
H237	H	1.399603	0.384841	-0.146405
H238	H	0.768360	-0.367354	-0.909709
H239	H	1.101693	-0.034021	-0.576376
H240	H	1.435027	0.299313	-0.243043
H241	H	0.777626	-0.286211	-0.906849
H242	H	1.110959	0.047122	-0.573516
H243	H	1.444293	0.380456	-0.240183
C244	C	0.367084	-0.355545	-0.482918
C245	C	0.700417	-0.022212	-0.149585
C246	C	1.033750	0.311121	0.183749
C247	C	0.324674	-0.350593	-0.433216
C248	C	0.658007	-0.017260	-0.099883
C249	C	0.991341	0.316073	0.233451
H250	H	0.344785	-0.359352	-0.521366
H251	H	0.678118	-0.026018	-0.188033
H252	H	1.011451	0.307315	0.145301
H253	H	0.394105	-0.314762	-0.482320
H254	H	0.727439	0.018571	-0.148987
H255	H	1.060772	0.351905	0.184347
H256	H	0.391116	-0.395889	-0.478780
H257	H	0.724449	-0.062556	-0.145447
H258	H	1.057783	0.270778	0.187887
H259	H	0.300645	-0.310247	-0.437352
H260	H	0.633978	0.023087	-0.104018
H261	H	0.967311	0.356420	0.229315
H262	H	0.297642	-0.391381	-0.433815
H263	H	0.630975	-0.058048	-0.100482
H264	H	0.964308	0.275286	0.232852
H265	H	0.951712	-0.740025	-0.256009
H266	H	1.285045	-0.406691	0.077325
H267	H	1.618379	-0.073358	0.410658
C268	C	0.750134	-0.259329	-1.066338
C269	C	1.083468	0.074005	-0.733005
C270	C	1.416801	0.407338	-0.399672
C271	C	0.812735	-0.244124	-1.081667
C272	C	1.146068	0.089209	-0.748334
C273	C	1.479401	0.422542	-0.415001
H274	H	0.724051	-0.228776	-1.087430
H275	H	1.057385	0.104557	-0.754096
H276	H	1.390718	0.437890	-0.420763
H277	H	0.739251	-0.306611	-1.078737
H278	H	1.072585	0.026722	-0.745403
H279	H	1.405918	0.360056	-0.412070
H280	H	0.744645	-0.252898	-1.022452
H281	H	1.077979	0.080435	-0.689118
H282	H	1.411312	0.413769	-0.355785
H283	H	0.818225	-0.250560	-1.125554
H284	H	1.151558	0.082773	-0.792221
H285	H	1.484891	0.416107	-0.458887
H286	H	0.823621	-0.196831	-1.069273
H287	H	1.156954	0.136503	-0.735940
H288	H	1.490288	0.469836	-0.402606
C289	C	0.763038	-0.644073	-0.444313
C290	C	1.096371	-0.310740	-0.110979
C291	C	1.429704	0.022593	0.222354
C292	C	0.799921	-0.596275	-0.407471
C293	C	1.133255	-0.262942	-0.074138
C294	C	1.466588	0.070391	0.259195
H295	H	0.736717	-0.619145	-0.470576
H296	H	1.070050	-0.285811	-0.137243
H297	H	1.403384	0.047522	0.196090
H298	H	0.789310	-0.672692	-0.469336
H299	H	1.122643	-0.339359	-0.136002
H300	H	1.455977	-0.006025	0.197331
H301	H	0.738064	-0.672792	-0.418009
H302	H	1.071397	-0.339458	-0.084676
H303	H	1.404731	-0.006125	0.248658
H304	H	0.824899	-0.567560	-0.433775
H305	H	1.158232	-0.234227	-0.100442
H306	H	1.491565	0.099107	0.232892
H307	H	0.773646	-0.567644	-0.382446
H308	H	1.106979	-0.234311	-0.049113
H309	H	1.440313	0.099022	0.284221
H310	H	0.657735	-0.257069	-0.238707
H311	H	0.991068	0.076264	0.094627
H312	H	1.324401	0.409597	0.427960
H313	H	0.956436	-0.606679	-0.251217
H314	H	1.289769	-0.273345	0.082116
H315	H	1.623102	0.059988	0.415449
C316	C	0.778984	-0.204739	-0.581791
C317	C	1.112317	0.128594	-0.248457
C318	C	1.445651	0.461927	0.084876
C319	C	0.812718	-0.244249	-0.540680
C320	C	1.146051	0.089084	-0.207347
C321	C	1.479385	0.422417	0.125987
H322	H	0.752895	-0.174207	-0.558487
H323	H	1.086228	0.159126	-0.225154
H324	H	1.419561	0.492459	0.108180
H325	H	0.807262	-0.177806	-0.606373
H326	H	1.140595	0.155527	-0.273040
H327	H	1.473929	0.488860	0.060294
H328	H	0.753908	-0.235411	-0.608386
H329	H	1.087242	0.097923	-0.275053
H330	H	1.420575	0.431256	0.058280
H331	H	0.837797	-0.213578	-0.514087
H332	H	1.171130	0.119755	-0.180754
H333	H	1.504464	0.453089	0.152579
H334	H	0.784436	-0.271184	-0.516087
H335	H	1.117770	0.062149	-0.182754
H336	H	1.451103	0.395482	0.150579
H337	H	0.452743	-0.349038	-0.417027
H338	H	0.786076	-0.015705	-0.083693
H339	H	1.119409	0.317629	0.249640
C340	C	0.160906	-0.472931	-0.438214
C341	C	0.494240	-0.139597	-0.104881
C342	C	0.827573	0.193736	0.228453
C343	C	0.119781	-0.433353	-0.401716
C344	C	0.453114	-0.100019	-0.068383
C345	C	0.786448	0.233314	0.264951
H346	H	0.137614	-0.503520	-0.466450
H347	H	0.470947	-0.170187	-0.133116
H348	H	0.804280	0.163147	0.200217
H349	H	0.187574	-0.442311	-0.461130
H350	H	0.520907	-0.108977	-0.127797
H351	H	0.854241	0.224356	0.205537
H352	H	0.185415	-0.499812	-0.411813
H353	H	0.518748	-0.166478	-0.078479
H354	H	0.852082	0.166855	0.254854
H355	H	0.095275	-0.406467	-0.428117
H356	H	0.428609	-0.073134	-0.094784
H357	H	0.761942	0.260199	0.238550
H358	H	0.093102	-0.463976	-0.378798
H359	H	0.426436	-0.130643	-0.045465
H360	H	0.759769	0.202690	0.287869
C361	C	0.144887	-0.174440	-0.238166
C362	C	0.478220	0.158893	0.095167
C363	C	0.811553	0.492226	0.428501
C364	C	0.126517	-0.244125	-0.227032
C365	C	0.459850	0.089209	0.106302
C366	C	0.793184	0.422542	0.439635
H367	H	0.123762	-0.143858	-0.209941
H368	H	0.457095	0.189475	0.123393
H369	H	0.790428	0.522808	0.456726
H370	H	0.188761	-0.167995	-0.232187
H371	H	0.522094	0.165338	0.101146
H372	H	0.855428	0.498672	0.434480
H373	H	0.134585	-0.164206	-0.279920
H374	H	0.467918	0.169127	0.053413
H375	H	0.801251	0.502460	0.386746
H376	H	0.136823	-0.254360	-0.185279
H377	H	0.470156	0.078973	0.148055
H378	H	0.803490	0.412306	0.481388
H379	H	0.082632	-0.250573	-0.233006
H380	H	0.415966	0.082760	0.100328
H381	H	0.749299	0.416094	0.433661
H382	H	0.539022	-0.257054	-0.238748
H383	H	0.872355	0.076280	0.094586
H384	H	1.205689	0.409613	0.427919
H385	H	0.806248	-0.740105	-0.401229
H386	H	1.139581	-0.406772	-0.067896
H387	H	1.472914	-0.073438	0.265438
C388	C	0.247448	-0.259253	-0.165454
C389	C	0.580781	0.074080	0.167879
C390	C	0.914114	0.407413	0.501212
C391	C	0.263883	-0.244153	-0.226983
C392	C	0.597217	0.089180	0.106351
C393	C	0.930550	0.422514	0.439684
H394	H	0.270743	-0.228675	-0.137211
H395	H	0.604076	0.104659	0.196122
H396	H	0.937409	0.437992	0.529455
H397	H	0.204031	-0.252791	-0.159519
H398	H	0.537364	0.080543	0.173815
H399	H	0.870698	0.413876	0.507148
H400	H	0.256434	-0.306534	-0.157903
H401	H	0.589767	0.026800	0.175431
H402	H	0.923101	0.360133	0.508764
H403	H	0.254893	-0.196874	-0.234536
H404	H	0.588226	0.136459	0.098798
H405	H	0.921559	0.469793	0.432131
H406	H	0.307310	-0.250610	-0.232921
H407	H	0.640643	0.082724	0.100413
H408	H	0.973977	0.416057	0.433746
H409	H	0.334560	-0.328568	-0.211529
H410	H	0.667893	0.004766	0.121804
H411	H	1.001227	0.338099	0.455138
C412	C	0.785052	-1.032906	-0.422552
C413	C	1.118385	-0.699573	-0.089219
C414	C	1.451719	-0.366239	0.244115
C415	C	0.818541	-1.080667	-0.389130
C416	C	1.151875	-0.747333	-0.055797
C417	C	1.485208	-0.414000	0.277536
H418	H	0.756970	-1.057863	-0.450611
H419	H	1.090303	-0.724530	-0.117278
H420	H	1.423636	-0.391197	0.216055
H421	H	0.762110	-1.004288	-0.394202
H422	H	1.095443	-0.670955	-0.060869
H423	H	1.428776	-0.337621	0.272465
H424	H	0.813366	-1.004183	-0.445518
H425	H	1.146700	-0.670850	-0.112184
H426	H	1.480033	-0.337516	0.221149
H427	H	0.790227	-1.109386	-0.366161
H428	H	1.123561	-0.776053	-0.032827
H429	H	1.456894	-0.442720	0.300506
H430	H	0.841485	-1.109297	-0.417484
H431	H	1.174818	-0.775963	-0.084151
H432	H	1.508152	-0.442630	0.249182
H433	H	0.980525	-0.936755	-0.227339
H434	H	1.313859	-0.603422	0.105995
H435	H	1.647192	-0.270089	0.439328
H436	H	0.823678	-0.257041	-0.669175
H437	H	1.157011	0.076292	-0.335842
H438	H	1.490344	0.409626	-0.002508
C439	C	0.696709	-0.478625	-0.367719
C440	C	1.030042	-0.145292	-0.034386
C441	C	1.363376	0.188041	0.298948
C442	C	0.660775	-0.433472	-0.401527
C443	C	0.994108	-0.100139	-0.068194
C444	C	1.327442	0.233195	0.265140
H445	H	0.717817	-0.509216	-0.395951
H446	H	1.051150	-0.175883	-0.062617
H447	H	1.384484	0.157451	0.270716
H448	H	0.726512	-0.451789	-0.342936
H449	H	1.059845	-0.118455	-0.009603
H450	H	1.393179	0.214878	0.323730
H451	H	0.670164	-0.505503	-0.341348
H452	H	1.003498	-0.172170	-0.008015
H453	H	1.336831	0.161164	0.325318
H454	H	0.687320	-0.406591	-0.427894
H455	H	1.020653	-0.073257	-0.094561
H456	H	1.353987	0.260076	0.238772
H457	H	0.630968	-0.460312	-0.426320
H458	H	0.964302	-0.126979	-0.092987
H459	H	1.297635	0.206355	0.240346
H460	H	0.823690	-0.256970	-0.954102
H461	H	1.157023	0.076364	-0.620769
H462	H	1.490356	0.409697	-0.287436
C463	C	0.966020	-0.423541	-1.152490
C464	C	1.299353	-0.090207	-0.819157
C465	C	1.632686	0.243126	-0.485824
C466	C	0.974128	-0.433063	-1.088491
C467	C	1.307461	-0.099730	-0.755158
C468	C	1.640794	0.233604	-0.421824
H469	H	0.992117	-0.454065	-1.175792
H470	H	1.325450	-0.120732	-0.842459
H471	H	1.658783	0.212601	-0.509126
H472	H	0.923556	-0.433858	-1.163550
H473	H	1.256889	-0.100525	-0.830217
H474	H	1.590223	0.232808	-0.496883
H475	H	0.976899	-0.376241	-1.161532
H476	H	1.310232	-0.042908	-0.828199
H477	H	1.643565	0.290425	-0.494865
H478	H	0.963244	-0.480362	-1.079448
H479	H	1.296578	-0.147028	-0.746115
H480	H	1.629911	0.186305	-0.412782
H481	H	1.016601	-0.422751	-1.077427
H482	H	1.349934	-0.089417	-0.744094
H483	H	1.683267	0.243916	-0.410760
C484	C	0.860818	-0.884037	-0.422358
C485	C	1.194151	-0.550703	-0.089025
C486	C	1.527485	-0.217370	0.244309
C487	C	0.824004	-0.926371	-0.383591
C488	C	1.157337	-0.593038	-0.050257
C489	C	1.490671	-0.259704	0.283076
H490	H	0.834491	-0.859122	-0.448626
H491	H	1.167824	-0.525789	-0.115293
H492	H	1.501157	-0.192455	0.218041
H493	H	0.885835	-0.851614	-0.397366
H494	H	1.219168	-0.518280	-0.064032
H495	H	1.552502	-0.184947	0.269301
H496	H	0.887089	-0.912668	-0.447382
H497	H	1.220422	-0.579335	-0.114049
H498	H	1.553755	-0.246002	0.219285
H499	H	0.797737	-0.897739	-0.358563
H500	H	1.131070	-0.564405	-0.025230
H501	H	1.464403	-0.231072	0.308103
H502	H	0.798976	-0.958798	-0.408586
H503	H	1.132309	-0.625464	-0.075252
H504	H	1.465643	-0.292131	0.258081
H505	H	0.533199	-0.420601	-0.389717
H506	H	0.866532	-0.087268	-0.056384
H507	H	1.199865	0.246065	0.276950
C508	C	0.765077	-0.386526	-0.709888
C509	C	1.098411	-0.053192	-0.376554
C510	C	1.431744	0.280141	-0.043221
C511	C	0.775334	-0.327051	-0.745406
C512	C	1.108667	0.006283	-0.412072
C513	C	1.442000	0.339616	-0.078739
H514	H	0.726906	-0.382775	-0.687520
H515	H	1.060240	-0.049441	-0.354187
H516	H	1.393573	0.283892	-0.020853
H517	H	0.762784	-0.427308	-0.736863
H518	H	1.096117	-0.093975	-0.403530
H519	H	1.429450	0.239359	-0.070197
H520	H	0.798583	-0.389822	-0.681184
H521	H	1.131916	-0.056489	-0.347851
H522	H	1.465249	0.276845	-0.014517
H523	H	0.741830	-0.323757	-0.774113
H524	H	1.075164	0.009576	-0.440779
H525	H	1.408497	0.342910	-0.107446
H526	H	0.777622	-0.286257	-0.718428
H527	H	1.110955	0.047076	-0.385094
H528	H	1.444289	0.380410	-0.051761
H529	H	0.453264	-0.328588	-0.211486
H530	H	0.786597	0.004746	0.121847
H531	H	1.119930	0.338079	0.455180
H532	H	0.963138	-0.420382	-0.556364
H533	H	1.296472	-0.087048	-0.223031
H534	H	1.629805	0.246285	0.110302
C535	C	1.021758	-0.290842	-0.706675
C536	C	1.355091	0.042492	-0.373342
C537	C	1.688424	0.375825	-0.040008
C538	C	1.011501	-0.350296	-0.746403
C539	C	1.344835	-0.016963	-0.413070
C540	C	1.678168	0.316370	-0.079736
H541	H	1.059929	-0.294605	-0.684632
H542	H	1.393262	0.038728	-0.351299
H543	H	1.726595	0.372062	-0.017966
H544	H	1.024051	-0.250045	-0.730755
H545	H	1.357385	0.083288	-0.397422
H546	H	1.690718	0.416621	-0.064089
H547	H	0.988252	-0.287561	-0.677687
H548	H	1.321586	0.045772	-0.344353
H549	H	1.654919	0.379106	-0.011020
H550	H	1.045004	-0.353574	-0.775394
H551	H	1.378338	-0.020241	-0.442061
H552	H	1.711671	0.313093	-0.108728
H553	H	1.009213	-0.391104	-0.722321
H554	H	1.342546	-0.057770	-0.388987
H555	H	1.675879	0.275563	-0.055654
C556	C	0.975839	-1.152860	-0.232150
C557	C	1.309172	-0.819527	0.101183
C558	C	1.642505	-0.486193	0.434516
C559	C	0.986861	-1.080577	-0.221103
C560	C	1.320195	-0.747243	0.112230
C561	C	1.653528	-0.413910	0.445563
H562	H	1.002172	-1.177784	-0.205895
H563	H	1.335505	-0.844451	0.127438
H564	H	1.668838	-0.511118	0.460772
H565	H	0.933324	-1.164966	-0.223353
H566	H	1.266658	-0.831632	0.109980
H567	H	1.599991	-0.498299	0.443314
H568	H	0.984556	-1.164853	-0.274694
H569	H	1.317889	-0.831519	0.058639
H570	H	1.651223	-0.498186	0.391973
H571	H	0.978140	-1.068583	-0.178561
H572	H	1.311473	-0.735250	0.154773
H573	H	1.644806	-0.401916	0.488106
H574	H	1.029386	-1.068466	-0.229896
H575	H	1.362719	-0.735133	0.103437
H576	H	1.696052	-0.401800	0.436771
C577	C	1.007859	-0.472584	-0.995097
C578	C	1.341192	-0.139251	-0.661764
C579	C	1.674525	0.194083	-0.328431
C580	C	0.974115	-0.433097	-0.951136
C581	C	1.307448	-0.099764	-0.617803
C582	C	1.640782	0.233570	-0.284470
H583	H	1.033947	-0.503123	-0.973997
H584	H	1.367280	-0.169790	-0.640664
H585	H	1.700614	0.163543	-0.307331
H586	H	0.979586	-0.499508	-1.021552
H587	H	1.312920	-0.166174	-0.688219
H588	H	1.646253	0.167159	-0.354886
H589	H	1.032935	-0.441898	-1.019550
H590	H	1.366269	-0.108565	-0.686216
H591	H	1.699602	0.224768	-0.352883
H592	H	0.949035	-0.463783	-0.926687
H593	H	1.282368	-0.130450	-0.593354
H594	H	1.615701	0.202884	-0.260020
H595	H	1.002391	-0.406171	-0.924670
H596	H	1.335724	-0.072838	-0.591337
H597	H	1.669058	0.260495	-0.258004
C598	C	1.052396	-0.293822	-0.865946
C599	C	1.385730	0.039512	-0.532612
C600	C	1.719063	0.372845	-0.199279
C601	C	1.011511	-0.350263	-0.883751
C602	C	1.344845	-0.016930	-0.550418
C603	C	1.678178	0.316403	-0.217084
H604	H	1.090577	-0.297577	-0.888296
H605	H	1.423910	0.035756	-0.554963
H606	H	1.757243	0.369090	-0.221630
H607	H	1.033919	-0.250982	-0.875140
H608	H	1.367252	0.082351	-0.541807
H609	H	1.700586	0.415685	-0.208474
H610	H	1.060428	-0.294636	-0.822325
H611	H	1.393762	0.038697	-0.488991
H612	H	1.727095	0.372031	-0.155658
H613	H	1.003475	-0.349446	-0.927371
H614	H	1.336809	-0.016113	-0.594038
H615	H	1.670142	0.317221	-0.260705
H616	H	1.029992	-0.393114	-0.874561
H617	H	1.363326	-0.059780	-0.541228
H618	H	1.696659	0.273553	-0.207894
C619	C	1.036701	-0.417968	-0.668539
C620	C	1.370034	-0.084634	-0.335205
C621	C	1.703367	0.248699	-0.001872
C622	C	0.974102	-0.433167	-0.684856
C623	C	1.307435	-0.099834	-0.351522
C624	C	1.640769	0.233499	-0.018189
H625	H	1.062786	-0.448506	-0.691839
H626	H	1.396120	-0.115173	-0.358506
H627	H	1.729453	0.218161	-0.025172
H628	H	1.047582	-0.370679	-0.677593
H629	H	1.380915	-0.037346	-0.344259
H630	H	1.714248	0.295988	-0.010926
H631	H	1.042188	-0.424422	-0.625118
H632	H	1.375522	-0.091089	-0.291784
H633	H	1.708855	0.242245	0.041549
H634	H	0.968613	-0.426708	-0.728276
H635	H	1.301946	-0.093375	-0.394942
H636	H	1.635280	0.239959	-0.061609
H637	H	0.963217	-0.480467	-0.675806
H638	H	1.296550	-0.147134	-0.342473
H639	H	1.629884	0.186199	-0.009139
