data_functionalizedCrystal
_audit_creation_method	'MofGen! by Chris Wilmer'
_symmetry_space_group_name_H-M	'P1'
_symmetry_Int_Tables_number	1
_symmetry_cell_setting	triclinic
loop_
_symmetry_equiv_pos_as_xyz
  x,y,z
_cell_length_a	16.974800
_cell_length_b	14.519731
_cell_length_c	16.053802
_cell_angle_alpha	92.569546
_cell_angle_beta	91.074188
_cell_angle_gamma	83.539176
loop_
_atom_site_label
_atom_site_type_symbol
_atom_site_fract_x
_atom_site_fract_y
_atom_site_fract_z
O1	O	1.049251	0.117558	0.001491
O2	O	1.549251	0.617558	0.501491
O3	O	0.819810	0.131675	-0.014019
O4	O	1.319810	0.631675	0.485981
O5	O	0.940605	-0.009617	-0.005846
O6	O	1.440605	0.490383	0.494154
O7	O	0.928456	0.258850	-0.006682
O8	O	1.428456	0.758850	0.493318
O9	O	0.933956	-0.001872	0.132563
O10	O	1.433956	0.498128	0.632563
O11	O	0.813161	0.139420	0.124390
O12	O	1.313161	0.639420	0.624390
O13	O	1.042602	0.125303	0.139900
O14	O	1.542602	0.625303	0.639900
Zn15	Zn	0.926826	0.133591	0.154120
Zn16	Zn	1.426826	0.633591	0.654120
Zn17	Zn	0.935586	0.123387	-0.028240
Zn18	Zn	1.435586	0.623387	0.471760
O19	O	0.921807	0.266595	0.131727
O20	O	1.421807	0.766595	0.631727
C21	C	0.787121	0.134869	0.053200
C22	C	1.287121	0.634869	0.553200
C23	C	0.699626	0.132835	0.047286
C24	C	1.199626	0.632835	0.547286
C25	C	0.654901	0.136099	0.119956
C26	C	1.154901	0.636099	0.619956
C27	C	0.572691	0.134174	0.114401
C28	C	1.072691	0.634174	0.614401
C29	C	0.535207	0.128991	0.036175
C30	C	1.035207	0.628991	0.536175
C31	C	0.579938	0.125724	-0.036501
C32	C	1.079938	0.625724	0.463499
C33	C	0.662147	0.127643	-0.030945
C34	C	1.162147	0.627643	0.469055
C35	C	0.289727	0.122793	0.011468
C36	C	0.789727	0.622793	0.511468
C37	C	0.207512	0.120878	0.005918
C38	C	0.707512	0.620878	0.505918
C39	C	0.200270	0.129326	0.156820
C40	C	0.700270	0.629326	0.656820
C41	C	0.282480	0.131250	0.162369
C42	C	0.782480	0.631250	0.662369
C43	C	0.327205	0.127978	0.089693
C44	C	0.827205	0.627978	0.589693
N45	N	0.451175	0.127026	0.030495
N46	N	0.951175	0.627026	0.530495
N47	N	0.411236	0.129937	0.095374
N48	N	0.911236	0.629937	0.595374
C49	C	0.936711	-0.040105	0.063320
C50	C	1.436711	0.459895	0.563320
C51	C	0.935005	-0.142486	0.063206
C52	C	1.435005	0.357514	0.563206
C53	C	0.933619	-0.225631	0.063110
C54	C	1.433619	0.274369	0.563110
C55	C	0.931887	-0.329941	0.062986
C56	C	1.431887	0.170059	0.562986
C57	C	0.930513	-0.413081	0.062888
C58	C	1.430513	0.086919	0.562888
C59	C	0.928781	-0.517397	0.062766
C60	C	1.428781	-0.017397	0.562766
C61	C	1.075290	0.122109	0.072679
C62	C	1.575290	0.622109	0.572679
C63	C	1.162786	0.124142	0.078588
C64	C	1.662786	0.624142	0.578588
C65	C	0.925701	0.297082	0.062559
C66	C	1.425701	0.797082	0.562559
C67	C	0.927407	0.399463	0.062668
C68	C	1.427407	0.899463	0.562668
N69	N	0.920853	0.140555	0.278576
N70	N	1.420853	0.640555	0.778576
N71	N	0.941565	0.116416	-0.152695
N72	N	1.441565	0.616416	0.347305
C73	C	0.972270	0.080456	0.325750
C74	C	1.472270	0.580456	0.825750
C75	C	0.968099	0.085336	0.412874
C76	C	1.468099	0.585336	0.912874
C77	C	0.912515	0.150320	0.452824
C78	C	1.412515	0.650320	0.952824
C79	C	0.861092	0.210421	0.405645
C80	C	1.361092	0.710421	0.905645
C81	C	0.865260	0.205536	0.318522
C82	C	1.365260	0.705536	0.818522
C83	C	0.894310	0.171632	0.713002
C84	C	1.394310	0.671632	1.213002
C85	C	0.890148	0.176514	0.800132
C86	C	1.390148	0.676514	1.300132
C87	C	0.997155	0.051428	0.807355
C88	C	1.497155	0.551428	1.307355
C89	C	1.001320	0.046552	0.720230
C90	C	1.501320	0.546552	1.220230
C91	C	0.949895	0.106650	0.673058
C92	C	1.449895	0.606650	1.173058
N93	N	0.908252	0.155311	0.541880
N94	N	1.408252	0.655311	1.041880
N95	N	0.954155	0.101653	0.584004
N96	N	1.454155	0.601653	1.084004
H97	H	0.326133	0.120126	-0.047709
H98	H	0.826133	0.620126	0.452291
H99	H	1.039022	0.002498	0.845770
H100	H	1.539022	0.502498	1.345770
O101	O	1.018137	0.026925	0.458574
O102	O	1.518137	0.526925	0.958574
C103	C	1.068085	-0.031485	0.404631
C104	C	1.568085	0.468515	0.904631
H105	H	1.071989	0.002846	0.342582
H106	H	1.571989	0.502846	0.842582
H107	H	1.129802	-0.043928	0.434040
H108	H	1.629802	0.456072	0.934040
H109	H	1.042854	-0.100603	0.393651
H110	H	1.542854	0.399397	0.893651
H111	H	0.815830	0.263329	0.438177
H112	H	1.315830	0.763329	0.938177
H113	H	0.852439	0.220568	0.674601
H114	H	1.352439	0.720568	1.174601
H115	H	0.685413	0.140328	0.183655
H116	H	1.185413	0.640328	0.683655
O117	O	0.815280	0.264014	0.272822
O118	O	1.315280	0.764014	0.772822
C119	C	0.765312	0.322404	0.326762
C120	C	1.265312	0.822404	0.826762
H121	H	0.794655	0.327031	0.391042
H122	H	1.294655	0.827031	0.891042
H123	H	0.754597	0.394604	0.300773
H124	H	1.254597	0.894604	0.800773
H125	H	0.706281	0.292794	0.332088
H126	H	1.206281	0.792794	0.832088
H127	H	0.844882	0.229436	0.832655
H128	H	1.344882	0.729436	1.332655
H129	H	0.698562	0.124986	-0.090121
H130	H	1.198562	0.624986	0.409879
O131	O	0.543399	0.120730	-0.112424
O132	O	1.043399	0.620730	0.387576
C133	C	0.461251	0.119716	-0.101747
C134	C	0.961251	0.619716	0.398253
H135	H	0.443687	0.152254	-0.037883
H136	H	0.943687	0.652254	0.462117
H137	H	0.427382	0.161023	-0.152381
H138	H	0.927382	0.661023	0.347619
H139	H	0.446255	0.045053	-0.106343
H140	H	0.946255	0.545053	0.393657
H141	H	0.536280	0.136817	0.173576
H142	H	1.036280	0.636817	0.673576
O143	O	1.026145	0.017251	0.286864
O144	O	1.526145	0.517251	0.786864
C145	C	0.986236	-0.042611	0.233671
C146	C	1.486236	0.457389	0.733671
H147	H	0.925261	-0.006772	0.216443
H148	H	1.425261	0.493228	0.716443
H149	H	1.022041	-0.060593	0.174631
H150	H	1.522041	0.439407	0.674631
H151	H	0.979137	-0.108873	0.266923
H152	H	1.479137	0.391127	0.766923
O153	O	1.055336	-0.016658	0.681556
O154	O	1.555336	0.483342	1.181556
C155	C	1.099839	-0.068643	0.741877
C156	C	1.599839	0.431357	1.241877
H157	H	1.064556	-0.066306	0.801805
H158	H	1.564556	0.433694	1.301805
H159	H	1.112961	-0.143666	0.717517
H160	H	1.612961	0.356334	1.217517
H161	H	1.157984	-0.037995	0.755083
H162	H	1.657984	0.462005	1.255083
H163	H	0.163846	0.131989	0.215988
H164	H	0.663846	0.631989	0.715988
H165	H	0.176995	0.116660	-0.057786
H166	H	0.676995	0.616660	0.442214
O167	O	0.318769	0.136245	0.238424
O168	O	0.818769	0.636245	0.738424
C169	C	0.261661	0.138739	0.301376
C170	C	0.761661	0.638739	0.801376
H171	H	0.207344	0.106959	0.275520
H172	H	0.707344	0.606959	0.775520
H173	H	0.287822	0.097519	0.356089
H174	H	0.787822	0.597519	0.856089
H175	H	0.243638	0.213753	0.323423
H176	H	0.743638	0.713753	0.823423
