data_functionalizedCrystal
_audit_creation_method	'MofGen! by Chris Wilmer'
_symmetry_space_group_name_H-M	'P1'
_symmetry_Int_Tables_number	1
_symmetry_cell_setting	triclinic
loop_
_symmetry_equiv_pos_as_xyz
  x,y,z
_cell_length_a	13.897449
_cell_length_b	18.101395
_cell_length_c	13.897441
_cell_angle_alpha	89.970274
_cell_angle_beta	89.981404
_cell_angle_gamma	90.032384
loop_
_atom_site_label
_atom_site_type_symbol
_atom_site_fract_x
_atom_site_fract_y
_atom_site_fract_z
Zn1	Zn	1.474592	-0.294788	-0.545380
Zn2	Zn	1.974592	0.205212	-0.045380
Zn3	Zn	1.474455	-0.418641	-0.384082
Zn4	Zn	1.974455	0.081359	0.115918
Zn5	Zn	1.313288	-0.294821	-0.384099
Zn6	Zn	1.813288	0.205179	0.115901
Zn7	Zn	1.313225	-0.418595	-0.545334
Zn8	Zn	1.813225	0.081405	-0.045334
O9	O	1.393890	-0.356711	-0.464724
O10	O	1.893890	0.143289	0.035276
O11	O	1.609556	-0.311223	-0.523996
O12	O	2.109556	0.188777	-0.023996
O13	O	1.453044	-0.402250	-0.249102
O14	O	1.953044	0.097750	0.250898
O15	O	1.334769	-0.191184	-0.405520
O16	O	1.834769	0.308816	0.094480
O17	O	1.609455	-0.402218	-0.405490
O18	O	2.109455	0.097782	0.094510
O19	O	1.453279	-0.191159	-0.524013
O20	O	1.953279	0.308841	-0.024013
O21	O	1.334635	-0.311279	-0.249115
O22	O	1.834635	0.188721	0.250885
O23	O	1.178298	-0.311234	-0.405475
O24	O	1.678298	0.188766	0.094525
O25	O	1.334663	-0.402138	-0.680322
O26	O	1.834663	0.097862	-0.180322
O27	O	1.178252	-0.402170	-0.523934
O28	O	1.678252	0.097830	-0.023934
O29	O	1.453218	-0.311178	-0.680356
O30	O	1.953218	0.188822	-0.180356
O31	O	1.452984	-0.522268	-0.405445
O32	O	1.952984	-0.022268	0.094555
O33	O	1.334529	-0.522234	-0.523917
O34	O	1.834529	-0.022234	-0.023917
C35	C	1.143276	-0.356701	-0.464702
C36	C	1.643276	0.143299	0.035298
C37	C	1.036062	-0.356715	-0.464715
C38	C	1.536062	0.143285	0.035285
C39	C	0.839767	-0.356718	-0.464741
C40	C	1.339767	0.143282	0.035259
C41	C	0.948999	-0.356714	-0.464724
C42	C	1.448999	0.143286	0.035276
C43	C	1.393761	-0.549122	-0.464695
C44	C	1.893761	-0.049122	0.035305
C45	C	1.393794	-0.631436	-0.464716
C46	C	1.893794	-0.131436	0.035284
C47	C	1.394006	-0.930527	-0.464767
C48	C	1.894006	-0.430527	0.035233
C49	C	1.319650	-0.899211	-0.539492
C50	C	1.819650	-0.399211	-0.039492
C51	C	1.319297	-0.813593	-0.539258
C52	C	1.819297	-0.313593	-0.039258
C53	C	1.393901	-0.782144	-0.464743
C54	C	1.893901	-0.282144	0.035257
C55	C	1.366379	-0.813299	-0.363084
C56	C	1.866379	-0.313299	0.136916
C57	C	1.365899	-0.898945	-0.363531
C58	C	1.865899	-0.398945	0.136469
C59	C	1.496046	-0.898868	-0.490807
C60	C	1.996046	-0.398868	0.009193
C61	C	1.495446	-0.813217	-0.493037
C62	C	1.995446	-0.313217	0.006963
C63	C	1.393843	-0.698285	-0.464722
C64	C	1.893843	-0.198285	0.035278
C65	C	1.394061	-1.014386	-0.464781
C66	C	1.894061	-0.514386	0.035219
C67	C	1.645483	-0.356722	-0.464746
C68	C	2.145483	0.143278	0.035254
C69	C	1.752697	-0.356726	-0.464756
C70	C	2.252697	0.143274	0.035244
C71	C	1.393949	-0.356649	-0.716317
C72	C	1.893949	0.143351	-0.216317
C73	C	1.393974	-0.356623	-0.823531
C74	C	1.893974	0.143377	-0.323531
C75	C	1.394046	-0.163549	-0.464773
C76	C	1.894046	0.336451	0.035227
C77	C	1.394112	-0.081235	-0.464795
C78	C	1.894112	0.418765	0.035205
C79	C	1.393994	-0.356602	-0.910601
C80	C	1.893994	0.143398	-0.410601
C81	C	1.394022	-0.356568	-1.019833
C82	C	1.894022	0.143432	-0.519833
C83	C	1.393887	-0.356720	-0.214109
C84	C	1.893887	0.143280	0.285891
C85	C	1.394048	-0.356538	-0.106896
C86	C	1.894048	0.143462	0.393104
H87	H	1.336699	-0.919756	-0.615115
H88	H	1.836699	-0.419756	-0.115115
H89	H	1.244475	-0.920799	-0.522460
H90	H	1.744475	-0.420799	-0.022460
H91	H	1.291308	-0.918990	-0.341472
H92	H	1.791308	-0.418990	0.158528
O93	O	1.526035	-0.924439	-0.577783
O94	O	2.026035	-0.424439	-0.077783
C95	C	1.575153	-0.893476	-0.739149
C96	C	2.075153	-0.393476	-0.239149
C97	C	1.541233	-0.864415	-0.640688
C98	C	2.041233	-0.364415	-0.140688
H99	H	1.587431	-0.844962	-0.790041
H100	H	2.087431	-0.344962	-0.290041
H101	H	1.645221	-0.925407	-0.729837
H102	H	2.145221	-0.425407	-0.229837
H103	H	1.517847	-0.931586	-0.770480
H104	H	2.017847	-0.431586	-0.270480
H105	H	1.598471	-0.826277	-0.609302
H106	H	2.098471	-0.326277	-0.109302
H107	H	1.471141	-0.832526	-0.650061
H108	H	1.971141	-0.332526	-0.150061
O109	O	1.339861	-0.788330	-0.629117
O110	O	1.839861	-0.288330	-0.129117
C111	C	1.362753	-0.681932	-0.730874
C112	C	1.862753	-0.181932	-0.230874
C113	C	1.339480	-0.710437	-0.629054
C114	C	1.839480	-0.210437	-0.129054
H115	H	1.362432	-0.618953	-0.730861
H116	H	1.862432	-0.118953	-0.230861
H117	H	1.436777	-0.702665	-0.753650
H118	H	1.936777	-0.202665	-0.253650
H119	H	1.306206	-0.703084	-0.783513
H120	H	1.806206	-0.203084	-0.283513
H121	H	1.395964	-0.689297	-0.576346
H122	H	1.895964	-0.189297	-0.076346
H123	H	1.265429	-0.689710	-0.606359
H124	H	1.765429	-0.189710	-0.106359
H125	H	1.243662	-0.793172	-0.522009
H126	H	1.743662	-0.293172	-0.022009
O127	O	1.427700	-0.923543	-0.294770
O128	O	1.927700	-0.423543	0.205230
C129	C	1.540123	-0.890650	-0.169949
C130	C	2.040123	-0.390650	0.330051
C131	C	1.470158	-0.862697	-0.247775
C132	C	1.970158	-0.362697	0.252225
H133	H	1.574485	-0.841471	-0.131945
H134	H	2.074485	-0.341471	0.368055
H135	H	1.499108	-0.925574	-0.115322
H136	H	1.999108	-0.425574	0.384678
H137	H	1.598626	-0.925610	-0.205017
H138	H	2.098626	-0.425610	0.294983
H139	H	1.411640	-0.827708	-0.212791
H140	H	1.911640	-0.327708	0.287209
H141	H	1.511240	-0.827814	-0.302394
H142	H	2.011240	-0.327814	0.197606
O143	O	1.520383	-0.788919	-0.582241
O144	O	2.020383	-0.288919	-0.082241
C145	C	1.634332	-0.720128	-0.677524
C146	C	2.134332	-0.220128	-0.177524
C147	C	1.606216	-0.747595	-0.576443
C148	C	2.106216	-0.247595	-0.076443
H149	H	1.703719	-0.686700	-0.672868
H150	H	2.203719	-0.186700	-0.172868
H151	H	1.645679	-0.769498	-0.727141
H152	H	2.145679	-0.269498	-0.227141
H153	H	1.574363	-0.683809	-0.707390
H154	H	2.074363	-0.183809	-0.207390
H155	H	1.666151	-0.783902	-0.546491
H156	H	2.166151	-0.283902	-0.046491
H157	H	1.594836	-0.698193	-0.526892
H158	H	2.094836	-0.198193	-0.026892
H159	H	1.551443	-0.919119	-0.436383
H160	H	2.051443	-0.419119	0.063617
O161	O	1.428820	-0.788997	-0.294731
O162	O	1.928820	-0.288997	0.205269
C163	C	1.449059	-0.720986	-0.147104
C164	C	1.949059	-0.220986	0.352896
C165	C	1.378229	-0.748459	-0.224436
C166	C	1.878229	-0.248459	0.275564
H167	H	1.408187	-0.688192	-0.090262
H168	H	1.908187	-0.188192	0.409738
H169	H	1.485819	-0.770326	-0.111794
H170	H	1.985819	-0.270326	0.388206
H171	H	1.505628	-0.684056	-0.182052
H172	H	2.005628	-0.184056	0.317948
H173	H	1.321604	-0.785376	-0.189563
H174	H	1.821604	-0.285376	0.310437
H175	H	1.341542	-0.699085	-0.259739
H176	H	1.841542	-0.199085	0.240261
O177	O	1.278284	-0.787926	-0.336244
O178	O	1.778284	-0.287926	0.163756
C179	C	1.115808	-0.819326	-0.291445
C180	C	1.615808	-0.319326	0.208555
C181	C	1.215535	-0.848158	-0.321804
C182	C	1.715535	-0.348158	0.178196
H183	H	1.065042	-0.868008	-0.279781
H184	H	1.565042	-0.368008	0.220219
H185	H	1.122672	-0.786556	-0.221750
H186	H	1.622672	-0.286556	0.278250
H187	H	1.085861	-0.782056	-0.350402
H188	H	1.585861	-0.282056	0.149598
H189	H	1.245539	-0.885458	-0.262912
H190	H	1.745539	-0.385458	0.237088
H191	H	1.208611	-0.880886	-0.391525
H192	H	1.708611	-0.380886	0.108475
O193	O	1.565100	-0.787804	-0.432824
O194	O	2.065100	-0.287804	0.067176
C195	C	1.688679	-0.819082	-0.318271
C196	C	2.188679	-0.319082	0.181729
C197	C	1.609848	-0.847961	-0.386454
C198	C	2.109848	-0.347961	0.113546
H199	H	1.724866	-0.867703	-0.280747
H200	H	2.224866	-0.367703	0.219253
H201	H	1.744560	-0.786946	-0.361406
H202	H	2.244560	-0.286946	0.138594
H203	H	1.654919	-0.781206	-0.262128
H204	H	2.154919	-0.281206	0.237872
H205	H	1.643522	-0.885866	-0.442609
H206	H	2.143522	-0.385866	0.057391
H207	H	1.553977	-0.880055	-0.343254
H208	H	2.053977	-0.380055	0.156746
