data_functionalizedCrystal
_audit_creation_method	'MofGen! by Chris Wilmer'
_symmetry_space_group_name_H-M	'P1'
_symmetry_Int_Tables_number	1
_symmetry_cell_setting	triclinic
loop_
_symmetry_equiv_pos_as_xyz
  x,y,z
_cell_length_a	18.215407
_cell_length_b	21.295417
_cell_length_c	21.295411
_cell_angle_alpha	89.978356
_cell_angle_beta	89.977780
_cell_angle_gamma	90.027950
loop_
_atom_site_label
_atom_site_type_symbol
_atom_site_fract_x
_atom_site_fract_y
_atom_site_fract_z
Zn1	Zn	1.125078	-0.250724	-0.355872
Zn2	Zn	1.124964	-0.355976	-0.250597
Zn3	Zn	1.002001	-0.250720	-0.250621
Zn4	Zn	1.001965	-0.355954	-0.355833
O5	O	1.063502	-0.303343	-0.303231
O6	O	1.228047	-0.264696	-0.341913
O7	O	1.108620	-0.342020	-0.162511
O8	O	1.018390	-0.162631	-0.264609
O9	O	1.227964	-0.342025	-0.264569
O10	O	1.108815	-0.162634	-0.341937
O11	O	1.018279	-0.264689	-0.162529
O12	O	0.899012	-0.264669	-0.264572
O13	O	1.018329	-0.341988	-0.443928
O14	O	0.898985	-0.341984	-0.341871
O15	O	1.108780	-0.264676	-0.443956
O16	O	1.108585	-0.444062	-0.264531
O17	O	1.018218	-0.444047	-0.341848
C18	C	0.872296	-0.303324	-0.303220
C19	C	0.790497	-0.303331	-0.303230
C20	C	0.602346	-0.263149	-0.343567
C21	C	0.525487	-0.263155	-0.343569
C22	C	0.525410	-0.343555	-0.262906
C23	C	0.602268	-0.343546	-0.262901
C24	C	0.640733	-0.303344	-0.303235
C25	C	0.487017	-0.303359	-0.303242
C26	C	0.403684	-0.303365	-0.303244
C27	C	0.724072	-0.303337	-0.303233
C28	C	1.063405	-0.466895	-0.303196
C29	C	1.063432	-0.536863	-0.303202
C30	C	1.110528	-0.569717	-0.262985
C31	C	1.110562	-0.635460	-0.262999
C32	C	1.063487	-0.668346	-0.303224
C33	C	1.016388	-0.635484	-0.343449
C34	C	1.016360	-0.569743	-0.343439
N35	N	0.999109	-0.771610	-0.308019
N36	N	0.999138	-0.834061	-0.308026
C37	C	1.063570	-0.866420	-0.303260
N38	N	1.127974	-0.833969	-0.298475
N39	N	1.127944	-0.771512	-0.298465
C40	C	1.063513	-0.739631	-0.303241
C41	C	1.110707	-0.970560	-0.263056
C42	C	1.110743	-1.036303	-0.263075
C43	C	1.016562	-1.036326	-0.343521
C44	C	1.016533	-0.970584	-0.343506
C45	C	1.063605	-0.937705	-0.303270
C46	C	1.255455	-0.303363	-0.303243
C47	C	1.337254	-0.303372	-0.303247
C48	C	1.063563	-0.303330	-0.467421
C49	C	1.063589	-0.303324	-0.537390
C50	C	1.063619	-0.139153	-0.303280
C51	C	1.063669	-0.069185	-0.303301
C52	C	1.110685	-0.263066	-0.570272
C53	C	1.110684	-0.263039	-0.636015
C54	C	1.063595	-0.303281	-0.668872
C55	C	1.016490	-0.343542	-0.635982
C56	C	1.016487	-0.343564	-0.570241
N57	N	1.057917	-0.358349	-0.772088
N58	N	1.057924	-0.358326	-0.834539
C59	C	1.063599	-0.303217	-0.866947
N60	N	1.069282	-0.248130	-0.834544
N61	N	1.069279	-0.248153	-0.772087
C62	C	1.063592	-0.303262	-0.740158
C63	C	1.110697	-0.262926	-0.971115
C64	C	1.110691	-0.262898	-1.036859
C65	C	1.016500	-0.343407	-1.036825
C66	C	1.016503	-0.343429	-0.971082
C67	C	1.063605	-0.303190	-0.938231
C68	C	1.063483	-0.303311	-0.139680
C69	C	1.063600	-0.303140	-0.069712
H70	H	1.148858	-0.542949	-0.230224
F71	F	0.643281	-0.220361	-0.386493
F72	F	1.160690	-0.670432	-0.220192
F73	F	0.643125	-0.386324	-0.219967
H74	H	0.978061	-0.662264	-0.376202
H75	H	0.978008	-0.542992	-0.376189
H76	H	1.149038	-0.943788	-0.230295
H77	H	1.149099	-1.063052	-0.230326
F78	F	1.160800	-0.220178	-0.671018
H79	H	0.978236	-1.063102	-0.376276
F80	F	1.160812	-0.220237	-0.535313
F81	F	0.966404	-0.935617	-0.386309
H82	H	0.494082	-0.376287	-0.230068
H83	H	1.149040	-0.230111	-1.063631
H84	H	0.978156	-0.376216	-0.944309
F85	F	0.966372	-0.386369	-0.670952
H86	H	0.978132	-0.376346	-0.543468
F87	F	1.160823	-0.220098	-0.936150
F88	F	0.966379	-0.386231	-1.071790
H89	H	0.494235	-0.230423	-0.376411
