data_functionalizedCrystal
_audit_creation_method	'MofGen! by Chris Wilmer'
_symmetry_space_group_name_H-M	'P1'
_symmetry_Int_Tables_number	1
_symmetry_cell_setting	triclinic
loop_
_symmetry_equiv_pos_as_xyz
  x,y,z
_cell_length_a	33.359672
_cell_length_b	33.359674
_cell_length_c	33.359725
_cell_angle_alpha	90.002336
_cell_angle_beta	59.997790
_cell_angle_gamma	119.999824
loop_
_atom_site_label
_atom_site_type_symbol
_atom_site_fract_x
_atom_site_fract_y
_atom_site_fract_z
O1	O	0.353587	-0.274991	-0.011927
O2	O	0.271501	-0.216698	0.011867
O3	O	0.353584	-0.216698	-0.070218
O4	O	0.271504	-0.274991	0.070158
O5	O	0.286913	-0.283369	-0.070217
O6	O	0.204830	-0.283369	0.011868
O7	O	0.286915	-0.341662	-0.011926
Zn8	Zn	0.235287	-0.323101	-0.000029
Zn9	Zn	0.323130	-0.235259	-0.000030
O10	O	0.204833	-0.341662	0.070158
C11	C	0.117512	-0.073731	0.028809
C12	C	0.068931	-0.098077	0.029147
C13	C	0.117509	-0.146322	0.028814
C14	C	0.068928	-0.170558	0.029151
C15	C	0.044923	-0.146320	0.028809
C16	C	0.141407	-0.098079	0.029151
C17	C	0.196155	0.004722	0.022919
C18	C	0.222880	0.054297	0.019200
C19	C	0.199944	0.079161	0.017331
C20	C	0.228920	0.132913	0.013296
C21	C	0.150277	0.054455	0.019187
C22	C	0.123552	0.004883	0.022908
C23	C	0.146493	-0.019981	0.024772
C24	C	-0.027638	-0.146130	0.022914
C25	C	-0.073493	-0.168979	0.019194
C26	C	-0.096492	-0.216782	0.017330
C27	C	-0.146209	-0.241558	0.013295
C28	C	-0.073644	-0.241744	0.019190
C29	C	-0.027793	-0.218897	0.022912
C30	C	-0.004790	-0.171090	0.024771
C31	C	0.196149	-0.146136	0.022928
C32	C	0.222876	-0.168985	0.019206
C33	C	0.199936	-0.216787	0.017342
C34	C	0.228910	-0.241565	0.013312
C35	C	0.150274	-0.241745	0.019196
C36	C	0.123547	-0.218899	0.022915
C37	C	0.146487	-0.171094	0.024781
O38	O	-0.279069	-0.341655	-0.011947
O39	O	-0.162484	-0.283360	0.011844
O40	O	-0.162479	-0.283364	-0.070239
O41	O	-0.279074	-0.341650	0.070137
O42	O	-0.162476	-0.216692	-0.070243
O43	O	-0.162482	-0.216688	0.011840
O44	O	-0.279066	-0.274982	-0.011951
Zn45	Zn	-0.220774	-0.235249	-0.000056
Zn46	Zn	-0.220777	-0.323093	-0.000051
O47	O	-0.279072	-0.274978	0.070133
C48	C	0.440913	-0.146329	-0.367177
C49	C	0.489495	-0.098086	-0.391412
C50	C	0.440913	-0.146329	-0.294588
C51	C	0.489495	-0.098086	-0.318933
C52	C	0.513502	-0.073740	-0.367176
C53	C	0.417016	-0.170565	-0.318934
C54	C	0.362270	-0.219081	-0.366989
C55	C	0.335546	-0.242087	-0.389839
C56	C	0.358484	-0.217283	-0.437640
C57	C	0.329509	-0.242225	-0.462417
C58	C	0.408152	-0.169473	-0.462601
C59	C	0.434876	-0.146469	-0.439753
C60	C	0.411933	-0.171273	-0.391947
C61	C	0.586065	0.004714	-0.439927
C62	C	0.631921	0.054287	-0.462933
C63	C	0.654919	0.079151	-0.438129
C64	C	0.704637	0.132902	-0.463070
C65	C	0.632069	0.054444	-0.390319
C66	C	0.586218	0.004872	-0.367315
C67	C	0.563216	-0.019991	-0.392119
C68	C	0.362270	-0.219081	-0.216134
C69	C	0.335542	-0.242085	-0.166558
C70	C	0.358480	-0.217281	-0.141694
C71	C	0.329505	-0.242223	-0.087942
C72	C	0.408143	-0.169473	-0.166398
C73	C	0.434872	-0.146467	-0.215972
C74	C	0.411933	-0.171273	-0.240838
C75	C	0.513517	-0.412027	-0.028902
C76	C	0.489511	-0.460269	-0.029242
C77	C	0.440925	-0.412028	-0.028898
C78	C	0.417029	-0.460271	-0.029238
C79	C	0.440928	-0.484616	-0.028901
C80	C	0.489508	-0.387792	-0.029238
C81	C	0.586081	-0.339274	-0.023012
C82	C	0.631938	-0.316267	-0.019295
C83	C	0.654938	-0.341070	-0.017432
C84	C	0.704657	-0.316127	-0.013400
C85	C	0.632089	-0.388880	-0.019290
C86	C	0.586236	-0.411885	-0.023009
C87	C	0.563232	-0.387082	-0.024867
C88	C	0.435229	-0.563069	-0.023015
C89	C	0.408662	-0.612643	-0.019298
C90	C	0.358994	-0.637507	-0.017431
C91	C	0.330184	-0.691258	-0.013399
C92	C	0.335888	-0.612801	-0.019285
C93	C	0.362454	-0.563229	-0.023004
C94	C	0.412123	-0.538365	-0.024867
C95	C	0.435220	-0.339277	-0.023003
C96	C	0.408646	-0.316273	-0.019276
C97	C	0.358978	-0.341078	-0.017410
C98	C	0.330165	-0.316137	-0.013373
C99	C	0.335875	-0.388886	-0.019265
C100	C	0.362444	-0.411892	-0.022990
C101	C	0.412117	-0.387085	-0.024859
O102	O	0.286933	0.291016	-0.011949
O103	O	0.204848	0.150641	0.011842
O104	O	0.286934	0.232718	-0.070242
O105	O	0.204846	0.208939	0.070135
O106	O	0.353602	0.232716	-0.070238
O107	O	0.271516	0.150639	0.011846
O108	O	0.353601	0.291014	-0.011945
Zn109	Zn	0.323143	0.220826	-0.000049
Zn110	Zn	0.235305	0.220829	-0.000054
O111	O	0.271514	0.208937	0.070139
O112	O	0.837498	0.291002	-0.495832
O113	O	0.720911	0.150628	-0.437542
O114	O	0.720908	0.232707	-0.437536
O115	O	0.837501	0.208922	-0.495838
O116	O	0.720909	0.232709	-0.504208
O117	O	0.720912	0.150629	-0.504214
O118	O	0.837499	0.291004	-0.562504
Zn119	Zn	0.779206	0.220817	-0.543945
Zn120	Zn	0.779204	0.220814	-0.456101
O121	O	0.837502	0.208924	-0.562510
O122	O	0.271499	-0.274996	-0.562510
O123	O	0.353583	-0.216699	-0.504219
O124	O	0.271499	-0.216701	-0.504213
O125	O	0.353584	-0.274994	-0.562515
O126	O	0.204829	-0.283371	-0.437542
O127	O	0.286913	-0.283369	-0.437547
O128	O	0.204829	-0.341666	-0.495839
Zn129	Zn	0.235286	-0.323102	-0.456107
Zn130	Zn	0.323126	-0.235262	-0.543950
O131	O	0.286914	-0.341664	-0.495844
C132	C	0.044913	-0.484622	0.367117
C133	C	0.068919	-0.460277	0.391353
C134	C	0.117502	-0.412033	0.294528
C135	C	0.141398	-0.387798	0.318875
C136	C	0.117501	-0.412034	0.367118
C137	C	0.068920	-0.460276	0.318874
C138	C	-0.027650	-0.563076	0.366926
C139	C	-0.073506	-0.612649	0.389775
C140	C	-0.096504	-0.637513	0.437576
C141	C	-0.146222	-0.691265	0.462352
C142	C	-0.073655	-0.612807	0.462538
C143	C	-0.027803	-0.563235	0.439692
C144	C	-0.004801	-0.538372	0.391885
C145	C	0.123202	-0.412223	0.439871
C146	C	0.149770	-0.389374	0.462878
C147	C	0.199437	-0.341572	0.438075
C148	C	0.228247	-0.316796	0.463017
C149	C	0.222541	-0.316611	0.390264
C150	C	0.195974	-0.339458	0.367259
C151	C	0.146307	-0.387264	0.392063
C152	C	0.123205	-0.412221	0.216073
C153	C	0.149777	-0.389373	0.166497
C154	C	0.199444	-0.341571	0.141635
C155	C	0.228255	-0.316795	0.087883
C156	C	0.222548	-0.316613	0.166340
C157	C	0.195980	-0.339459	0.215914
C158	C	0.146308	-0.387263	0.240779
C159	C	0.117538	-0.073747	-0.367204
C160	C	0.141435	-0.098094	-0.391438
C161	C	0.044944	-0.146333	-0.294613
C162	C	0.068952	-0.170570	-0.318957
C163	C	0.117536	-0.146337	-0.367200
C164	C	0.068953	-0.098090	-0.318960
C165	C	0.123241	0.004709	-0.367018
C166	C	0.149810	0.054282	-0.389869
C167	C	0.199480	0.079143	-0.437671
C168	C	0.228292	0.132895	-0.462450
C169	C	0.222584	0.054435	-0.462631
C170	C	0.196015	0.004864	-0.439782
C171	C	0.146346	-0.019997	-0.391975
C172	C	0.196182	-0.146152	-0.439951
C173	C	0.222906	-0.169003	-0.462956
C174	C	0.199966	-0.216805	-0.438150
C175	C	0.228941	-0.241583	-0.463090
C176	C	0.150296	-0.241763	-0.390340
C177	C	0.123571	-0.218914	-0.367337
C178	C	0.146516	-0.171108	-0.392143
C179	C	-0.027622	-0.146140	-0.216160
C180	C	-0.073477	-0.168985	-0.166583
C181	C	-0.096477	-0.216787	-0.141718
C182	C	-0.146198	-0.241561	-0.087966
C183	C	-0.073627	-0.241747	-0.166421
C184	C	-0.027772	-0.218904	-0.215995
C185	C	-0.004772	-0.171100	-0.240863
C186	C	-0.559087	-0.412008	0.367094
C187	C	-0.582986	-0.460250	0.391332
C188	C	-0.486495	-0.412011	0.294506
C189	C	-0.510504	-0.460253	0.318854
C190	C	-0.559088	-0.484598	0.367097
C191	C	-0.510503	-0.387774	0.318851
C192	C	-0.564788	-0.339255	0.366903
C193	C	-0.591356	-0.316247	0.389752
C194	C	-0.641026	-0.341049	0.437554
C195	C	-0.669837	-0.316106	0.462329
C196	C	-0.664132	-0.388859	0.462516
C197	C	-0.637563	-0.411865	0.439670
C198	C	-0.587894	-0.387063	0.391863
C199	C	-0.637735	-0.563049	0.439851
C200	C	-0.664460	-0.612623	0.462858
C201	C	-0.641521	-0.637487	0.438055
C202	C	-0.670498	-0.691239	0.462998
C203	C	-0.591851	-0.612783	0.390245
C204	C	-0.565125	-0.563211	0.367239
C205	C	-0.588069	-0.538347	0.392042
C206	C	-0.413927	-0.339261	0.216051
C207	C	-0.368073	-0.316259	0.166474
C208	C	-0.345074	-0.341064	0.141612
C209	C	-0.295353	-0.316124	0.087860
C210	C	-0.367925	-0.388872	0.166317
C211	C	-0.413780	-0.411877	0.215892
C212	C	-0.436778	-0.387069	0.240756
C213	C	0.513514	0.249625	-0.367189
C214	C	0.489508	0.249961	-0.391427
C215	C	0.440928	0.249639	-0.294605
C216	C	0.417032	0.249974	-0.318952
C217	C	0.440927	0.249627	-0.367194
C218	C	0.489508	0.249973	-0.318948
C219	C	0.586074	0.243733	-0.366995
C220	C	0.631928	0.240010	-0.389841
C221	C	0.654924	0.238136	-0.437642
C222	C	0.704640	0.234097	-0.462414
C223	C	0.632075	0.239990	-0.462604
C224	C	0.586226	0.243715	-0.439760
C225	C	0.563225	0.245584	-0.391956
C226	C	0.435225	0.243725	-0.439945
C227	C	0.408657	0.240003	-0.462953
C228	C	0.358992	0.238143	-0.438152
C229	C	0.330182	0.234106	-0.463094
C230	C	0.335889	0.240008	-0.390343
C231	C	0.362457	0.243732	-0.367337
C232	C	0.412122	0.245588	-0.392139
C233	C	0.435227	0.243760	-0.216150
C234	C	0.408656	0.240045	-0.166575
C235	C	0.358990	0.238184	-0.141715
C236	C	0.330181	0.234160	-0.087964
C237	C	0.335887	0.240036	-0.166421
C238	C	0.362454	0.243749	-0.215994
C239	C	0.412123	0.245612	-0.240856
O240	O	0.353642	0.290996	-0.562541
O241	O	0.271549	0.150620	-0.504250
O242	O	0.353625	0.232694	-0.504240
O243	O	0.271565	0.208921	-0.562552
O244	O	0.286949	0.232697	-0.437571
O245	O	0.204872	0.150622	-0.437582
O246	O	0.286966	0.290998	-0.495873
Zn247	Zn	0.235333	0.220811	-0.456142
Zn248	Zn	0.323182	0.220807	-0.543981
O249	O	0.204889	0.208924	-0.495884
C250	C	0.117521	0.192028	0.367091
C251	C	0.068941	0.191695	0.391324
C252	C	0.117521	0.192017	0.294502
C253	C	0.068941	0.191683	0.318845
C254	C	0.044935	0.192031	0.367086
C255	C	0.141416	0.191681	0.318849
C256	C	0.196161	0.197916	0.366906
C257	C	0.222885	0.201637	0.389757
C258	C	0.199948	0.203511	0.437557
C259	C	0.228922	0.207547	0.462335
C260	C	0.150282	0.201659	0.462515
C261	C	0.123559	0.197936	0.439666
C262	C	0.146500	0.196067	0.391862
C263	C	-0.027624	0.197935	0.439833
C264	C	-0.073477	0.201659	0.462836
C265	C	-0.096474	0.203521	0.438030
C266	C	-0.146190	0.207561	0.462968
C267	C	-0.073626	0.201656	0.390221
C268	C	-0.027777	0.197931	0.367220
C269	C	-0.004776	0.196072	0.392026
C270	C	0.196160	0.197893	0.216052
C271	C	0.222888	0.201609	0.166476
C272	C	0.199950	0.203471	0.141611
C273	C	0.228924	0.207496	0.087861
C274	C	0.150289	0.201622	0.166313
C275	C	0.123561	0.197908	0.215886
C276	C	0.146499	0.196044	0.240753
H277	H	0.083112	-0.015232	0.024421
C278	C	-0.098615	-0.141530	-0.139418
C279	C	-0.061165	-0.092823	-0.135105
C280	C	-0.086305	-0.065367	-0.107939
C281	C	-0.148896	-0.086617	-0.085085
C282	C	-0.186349	-0.135326	-0.089398
C283	C	-0.161209	-0.162782	-0.116564
H284	H	-0.014829	-0.077090	-0.152023
H285	H	-0.058579	-0.029309	-0.104747
H286	H	-0.167506	-0.066292	-0.064975
H287	H	-0.232686	-0.151059	-0.072480
H288	H	-0.188935	-0.198840	-0.119756
C289	C	0.280917	-0.294674	-0.139387
C290	C	0.225809	-0.304932	-0.094130
C291	C	0.171180	-0.357522	-0.066958
C292	C	0.171659	-0.399855	-0.085042
C293	C	0.226769	-0.389598	-0.130301
C294	C	0.281398	-0.337008	-0.157474
H295	H	0.225452	-0.273594	-0.080741
H296	H	0.130384	-0.365114	-0.033453
H297	H	0.131220	-0.438785	-0.064927
H298	H	0.227126	-0.420937	-0.143690
H299	H	0.322194	-0.329416	-0.190978
C300	C	0.364202	-0.224111	-0.292522
C301	C	0.309007	-0.237270	-0.284903
C302	C	0.256193	-0.290814	-0.258489
C303	C	0.258575	-0.331198	-0.239693
C304	C	0.313773	-0.318040	-0.247312
C305	C	0.366586	-0.264497	-0.273726
H306	H	0.307242	-0.207374	-0.298817
H307	H	0.215332	-0.300554	-0.252849
H308	H	0.219480	-0.370834	-0.220139
H309	H	0.315538	-0.347936	-0.233398
H310	H	0.407447	-0.254757	-0.279366
H311	H	0.263317	0.074407	0.017690
C312	C	0.516637	-0.071685	-0.444962
C313	C	0.522199	-0.024099	-0.458129
C314	C	0.549339	0.002299	-0.511676
C315	C	0.570919	-0.018888	-0.552057
C316	C	0.565358	-0.066477	-0.538891
C317	C	0.538217	-0.092875	-0.485344
H318	H	0.506224	-0.008412	-0.428235
H319	H	0.553456	0.037527	-0.521422
H320	H	0.591010	0.000653	-0.591696
H321	H	0.581333	-0.082163	-0.568784
H322	H	0.534101	-0.128103	-0.475598
H323	H	0.295441	0.238517	-0.146174
C324	C	0.068941	-0.246359	-0.314747
C325	C	0.069413	-0.263964	-0.272410
C326	C	0.014784	-0.291407	-0.219818
C327	C	-0.040317	-0.301245	-0.209563
C328	C	-0.040791	-0.283640	-0.251900
C329	C	0.013838	-0.256197	-0.304492
H330	H	0.110204	-0.256681	-0.280001
H331	H	0.015135	-0.304439	-0.188477
H332	H	-0.080757	-0.321560	-0.170631
H333	H	-0.081582	-0.290923	-0.244310
H334	H	0.013487	-0.243165	-0.335833
C335	C	0.281252	0.237960	-0.363059
C336	C	0.279728	0.277688	-0.384439
C337	C	0.225093	0.275641	-0.357154
C338	C	0.171980	0.233866	-0.308489
C339	C	0.173502	0.194135	-0.287106
C340	C	0.228137	0.196182	-0.314392
H341	H	0.319047	0.308615	-0.420467
H342	H	0.223967	0.305052	-0.372983
H343	H	0.131535	0.232351	-0.288291
H344	H	0.134183	0.163209	-0.251079
H345	H	0.229263	0.166771	-0.298563
C346	C	-0.002353	-0.535724	0.314342
C347	C	0.060275	-0.512832	0.273083
C348	C	0.085575	-0.485481	0.220497
C349	C	0.048246	-0.481024	0.209170
C350	C	-0.014386	-0.503917	0.250429
C351	C	-0.039685	-0.531267	0.303015
H352	H	0.087912	-0.516131	0.281468
H353	H	0.131940	-0.468534	0.189954
H354	H	0.066975	-0.460778	0.170243
H355	H	-0.042022	-0.500618	0.242045
H356	H	-0.086050	-0.548214	0.333558
C357	C	-0.483358	-0.486659	0.292451
C358	C	-0.461767	-0.505448	0.313632
C359	C	-0.434622	-0.531853	0.287231
C360	C	-0.429067	-0.539468	0.239648
C361	C	-0.450658	-0.520678	0.218464
C362	C	-0.477803	-0.494274	0.244866
H363	H	-0.465879	-0.499812	0.348858
H364	H	-0.418639	-0.545762	0.302913
H365	H	-0.408972	-0.559014	0.220104
H366	H	-0.446546	-0.526315	0.183239
H367	H	-0.493787	-0.480365	0.229184
H368	H	0.343591	-0.239283	-0.236379
H369	H	0.650807	0.238464	-0.501529
C370	C	0.516652	-0.486674	-0.029972
C371	C	0.482222	-0.534256	0.012061
C372	C	0.509359	-0.560661	0.011337
C373	C	0.570928	-0.539483	-0.031421
C374	C	0.605361	-0.491899	-0.073458
C375	C	0.578223	-0.465494	-0.072733
H376	H	0.436642	-0.549936	0.043716
H377	H	0.483869	-0.595886	0.042455
H378	H	0.591017	-0.559029	-0.031958
H379	H	0.650941	-0.476220	-0.105112
H380	H	0.603714	-0.430269	-0.103851
C381	C	0.516647	-0.334242	-0.029978
C382	C	0.578211	-0.293858	-0.072745
C383	C	0.605348	-0.240311	-0.073486
C384	C	0.570921	-0.227148	-0.031460
C385	C	0.509353	-0.267533	0.011310
C386	C	0.482216	-0.321080	0.012051
H387	H	0.603699	-0.303602	-0.103858
H388	H	0.650924	-0.210415	-0.105147
H389	H	0.591009	-0.187509	-0.032008
H390	H	0.483865	-0.257790	0.042423
H391	H	0.436640	-0.350976	0.043713
H392	H	-0.008899	-0.107217	-0.236405
H393	H	0.082795	-0.015532	-0.328093
C394	C	0.489861	0.245806	-0.243500
C395	C	0.544885	0.290647	-0.288810
C396	C	0.599516	0.292686	-0.316158
C397	C	0.599124	0.249885	-0.298197
C398	C	0.544097	0.205041	-0.252885
C399	C	0.489466	0.203001	-0.225537
H400	H	0.545178	0.322333	-0.302107
H401	H	0.640250	0.325883	-0.349701
H402	H	0.639565	0.251395	-0.318443
H403	H	0.543805	0.173354	-0.239588
H404	H	0.448732	0.169805	-0.191994
C405	C	0.221384	-0.093550	0.024979
C406	C	0.239744	-0.052298	-0.014756
C407	C	0.264983	0.000291	-0.012710
C408	C	0.271862	0.011626	0.029071
C409	C	0.253501	-0.029627	0.068809
C410	C	0.228262	-0.082216	0.066763
H411	H	0.234652	-0.060688	-0.045688
H412	H	0.278575	0.030829	-0.042127
H413	H	0.290545	0.050555	0.030586
H414	H	0.258592	-0.021237	0.099741
H415	H	0.214670	-0.112754	0.096180
C416	C	0.434062	-0.263685	-0.017237
C417	C	0.494477	-0.221350	-0.060048
C418	C	0.519891	-0.168761	-0.058005
C419	C	0.484890	-0.158507	-0.013152
C420	C	0.424472	-0.200843	0.029661
C421	C	0.399058	-0.253432	0.027619
H422	H	0.520390	-0.228940	-0.093254
H423	H	0.564617	-0.137421	-0.089699
H424	H	0.503703	-0.119577	-0.011640
H425	H	0.398559	-0.193253	0.062867
H426	H	0.354332	-0.284772	0.059313
C427	C	0.125048	0.081810	0.017128
C428	C	0.160184	0.127110	-0.027726
C429	C	0.134951	0.154461	-0.029783
C430	C	0.074583	0.136513	0.013013
C431	C	0.039443	0.091211	0.057870
C432	C	0.064675	0.063860	0.059928
H433	H	0.204876	0.140398	-0.059409
H434	H	0.160964	0.187996	-0.062990
H435	H	0.055904	0.156760	0.011490
H436	H	-0.005249	0.077923	0.089554
H437	H	0.038662	0.030325	0.093134
H438	H	0.567341	-0.015529	-0.460129
H439	H	0.343587	-0.239282	-0.328064
H440	H	-0.009195	-0.239223	0.024430
C441	C	0.277227	0.081786	-0.515217
C442	C	0.278760	0.104687	-0.556476
C443	C	0.333402	0.132034	-0.609061
C444	C	0.386511	0.136482	-0.620386
C445	C	0.384980	0.113580	-0.579125
C446	C	0.330338	0.086233	-0.526540
H447	H	0.239445	0.101395	-0.548094
H448	H	0.334535	0.148987	-0.639605
H449	H	0.426960	0.156726	-0.659313
H450	H	0.424296	0.116872	-0.587508
H451	H	0.329205	0.069280	-0.495996
C452	C	-0.098637	-0.639826	0.362319
C453	C	-0.123353	-0.621740	0.344702
C454	C	-0.148489	-0.648919	0.317249
C455	C	-0.148909	-0.694183	0.307413
C456	C	-0.124192	-0.712271	0.325031
C457	C	-0.099056	-0.685093	0.352484
H458	H	-0.123044	-0.588231	0.351982
H459	H	-0.166787	-0.635529	0.304207
H460	H	-0.167516	-0.714303	0.287091
H461	H	-0.124501	-0.745781	0.317750
H462	H	-0.080758	-0.698483	0.365526
C463	C	0.194249	-0.071697	-0.444986
C464	C	0.191877	-0.052898	-0.485377
C465	C	0.244689	-0.026504	-0.538923
C466	C	0.299873	-0.018909	-0.552078
C467	C	0.302247	-0.037708	-0.511687
C468	C	0.249435	-0.064102	-0.458141
H469	H	0.151025	-0.058519	-0.475639
H470	H	0.242931	-0.012587	-0.568823
H471	H	0.338967	0.000630	-0.591716
H472	H	0.343099	-0.032087	-0.521425
H473	H	0.251193	-0.078019	-0.428241
H474	H	0.343637	0.245252	-0.236107
H475	H	-0.432649	-0.319058	0.236294
H476	H	0.650520	0.238492	-0.369511
H477	H	0.048852	0.191137	0.299295
H478	H	0.130993	0.074394	-0.369545
H479	H	-0.704579	-0.409051	0.501442
H480	H	0.343629	-0.450820	-0.024499
C481	C	0.221391	-0.312007	0.243092
C482	C	0.281811	-0.294392	0.225006
C483	C	0.307223	-0.266940	0.252184
C484	C	0.272215	-0.257101	0.297448
C485	C	0.211791	-0.274716	0.315537
C486	C	0.186379	-0.302168	0.288359
H487	H	0.307729	-0.301675	0.191496
H488	H	0.351952	-0.253900	0.238793
H489	H	0.291026	-0.236779	0.317567
H490	H	0.185873	-0.267433	0.349046
H491	H	0.141649	-0.315208	0.301750
C492	C	-0.565945	-0.263662	0.362295
C493	C	-0.559029	-0.252422	0.313600
C494	C	-0.533618	-0.199834	0.286145
C495	C	-0.515123	-0.158487	0.307385
C496	C	-0.522039	-0.169726	0.356082
C497	C	-0.547450	-0.222313	0.383537
H498	H	-0.572721	-0.283031	0.297875
H499	H	-0.528499	-0.191514	0.250096
H500	H	-0.496312	-0.119558	0.287061
H501	H	-0.508347	-0.139117	0.371808
H502	H	-0.552569	-0.230633	0.419587
H503	H	-0.432385	-0.450805	0.236006
H504	H	0.650536	-0.277341	-0.017781
H505	H	0.295426	-0.409085	-0.017742
C506	C	0.657390	-0.416166	-0.017238
C507	C	0.720021	-0.394794	-0.056968
C508	C	0.745319	-0.422082	-0.054917
C509	C	0.707986	-0.470742	-0.013135
C510	C	0.645352	-0.492117	0.026598
C511	C	0.620054	-0.464829	0.024546
H512	H	0.747660	-0.358770	-0.087900
H513	H	0.791685	-0.406258	-0.084330
H514	H	0.726713	-0.490942	-0.011617
H515	H	0.617712	-0.528140	0.057530
H516	H	0.573687	-0.480652	0.053959
C517	C	0.068917	-0.246351	0.024956
C518	C	0.015894	-0.295045	0.066733
C519	C	-0.038737	-0.322498	0.068774
C520	C	-0.040344	-0.301257	0.029037
C521	C	0.012681	-0.252560	-0.012743
C522	C	0.067311	-0.225107	-0.014784
H523	H	0.017082	-0.310772	0.096152
H524	H	-0.077989	-0.358547	0.099703
H525	H	-0.080785	-0.321579	0.030548
H526	H	0.011493	-0.236834	-0.042161
H527	H	0.106564	-0.189058	-0.045713
H528	H	0.650521	0.074397	-0.501861
C529	C	-0.662974	-0.464453	0.467121
C530	C	-0.723390	-0.506789	0.484730
C531	C	-0.748800	-0.559378	0.512180
C532	C	-0.713794	-0.569631	0.522021
C533	C	-0.653374	-0.527294	0.504413
C534	C	-0.627964	-0.474705	0.476962
H535	H	-0.749306	-0.499200	0.477444
H536	H	-0.793526	-0.590718	0.525215
H537	H	-0.732604	-0.608560	0.542342
H538	H	-0.627457	-0.534883	0.511698
H539	H	-0.583237	-0.443364	0.463927
C540	C	0.124356	-0.416831	0.515465
C541	C	0.105860	-0.395591	0.556814
C542	C	0.080450	-0.423045	0.609402
C543	C	0.073536	-0.471738	0.620642
C544	C	0.092033	-0.492981	0.579293
C545	C	0.117443	-0.465528	0.526704
H546	H	0.110977	-0.359543	0.548494
H547	H	0.066757	-0.407319	0.640011
H548	H	0.054726	-0.492061	0.659571
H549	H	0.086915	-0.529029	0.587612
H550	H	0.131135	-0.481253	0.496095
C551	C	0.125061	-0.294349	-0.363051
C552	C	0.064693	-0.336763	-0.345483
C553	C	0.039455	-0.389348	-0.318193
C554	C	0.074585	-0.399519	-0.308471
C555	C	0.134956	-0.357103	-0.326040
C556	C	0.160194	-0.304518	-0.353330
H557	H	0.038685	-0.329236	-0.352680
H558	H	-0.005236	-0.420747	-0.305188
H559	H	0.055902	-0.438445	-0.288269
H560	H	0.160964	-0.364630	-0.318843
H561	H	0.204885	-0.273119	-0.366335
C562	C	0.041811	-0.071689	-0.292536
C563	C	0.076238	-0.024119	-0.284915
C564	C	0.049098	0.002279	-0.258482
C565	C	-0.012469	-0.018893	-0.239670
C566	C	-0.046899	-0.066466	-0.247290
C567	C	-0.019759	-0.092864	-0.273724
H568	H	0.121817	-0.008443	-0.298841
H569	H	0.074586	0.037496	-0.252841
H570	H	-0.032560	0.000648	-0.220102
H571	H	-0.092478	-0.082142	-0.233364
H572	H	-0.045247	-0.128081	-0.279365
C573	C	-0.098954	-0.640161	0.515123
C574	C	-0.099402	-0.685461	0.525289
C575	C	-0.124698	-0.712812	0.577873
C576	C	-0.149546	-0.694862	0.620292
C577	C	-0.149099	-0.649559	0.610128
C578	C	-0.123803	-0.622208	0.557543
H579	H	-0.081007	-0.698751	0.493887
H580	H	-0.125028	-0.746348	0.585398
H581	H	-0.168272	-0.715108	0.659219
H582	H	-0.167494	-0.636269	0.641530
H583	H	-0.123472	-0.588672	0.550019
C584	C	0.277512	0.203674	0.362306
C585	C	0.277037	0.160865	0.344695
C586	C	0.331664	0.162899	0.317246
C587	C	0.386767	0.207741	0.307408
C588	C	0.387244	0.250553	0.325019
C589	C	0.332617	0.248519	0.352468
H590	H	0.236245	0.127668	0.351977
H591	H	0.331310	0.131207	0.304209
H592	H	0.427205	0.209246	0.287088
H593	H	0.428036	0.283750	0.317736
H594	H	0.332971	0.280211	0.365504
C595	C	0.125040	-0.294332	0.017142
C596	C	0.118168	-0.305662	-0.024644
C597	C	0.092937	-0.358247	-0.026698
C598	C	0.074577	-0.399502	0.013034
C599	C	0.081447	-0.388173	0.054823
C600	C	0.106679	-0.335588	0.056877
H601	H	0.131760	-0.275121	-0.054059
H602	H	0.087851	-0.366633	-0.057633
H603	H	0.055899	-0.438429	0.011514
H604	H	0.067856	-0.418714	0.084238
H605	H	0.111765	-0.327202	0.087812
H606	H	0.509600	0.250519	-0.299402
C607	C	0.068934	0.195873	0.243060
C608	C	0.069410	0.238678	0.224968
C609	C	0.014783	0.236644	0.252142
C610	C	-0.040321	0.191805	0.297408
C611	C	-0.040800	0.148997	0.315503
C612	C	0.013828	0.151031	0.288329
H613	H	0.110204	0.271874	0.191457
H614	H	0.015138	0.268334	0.238747
H615	H	-0.080760	0.190300	0.317524
H616	H	-0.081593	0.115801	0.349014
H617	H	0.013473	0.119341	0.301724
C618	C	-0.002665	-0.536055	0.467142
C619	C	0.022063	-0.554134	0.484750
C620	C	0.047203	-0.526953	0.512200
C621	C	0.047615	-0.481693	0.522042
C622	C	0.022886	-0.463612	0.504434
C623	C	-0.002254	-0.490793	0.476984
H624	H	0.021759	-0.587640	0.477465
H625	H	0.065509	-0.540338	0.525234
H626	H	0.066225	-0.461572	0.542362
H627	H	0.023190	-0.430105	0.511719
H628	H	-0.020561	-0.477408	0.463950
H629	H	0.427472	0.238538	-0.146464
C630	C	0.280916	-0.294674	-0.362384
C631	C	0.227891	-0.305918	-0.313689
C632	C	0.173261	-0.358508	-0.286236
C633	C	0.171655	-0.399852	-0.307480
C634	C	0.224681	-0.388608	-0.356178
C635	C	0.279312	-0.336019	-0.383630
H636	H	0.229078	-0.275312	-0.297961
H637	H	0.134007	-0.366831	-0.250187
H638	H	0.131214	-0.438782	-0.287158
H639	H	0.223494	-0.419215	-0.371906
H640	H	0.318565	-0.327696	-0.419680
H641	H	0.509604	0.250505	-0.431066
H642	H	0.567634	-0.450812	-0.024522
C643	C	-0.342627	-0.416163	0.138969
C644	C	-0.342168	-0.425881	0.093664
C645	C	-0.316867	-0.453169	0.066315
C646	C	-0.292026	-0.470739	0.084272
C647	C	-0.292484	-0.461022	0.129580
C648	C	-0.317785	-0.433734	0.156929
H649	H	-0.360558	-0.412874	0.080369
H650	H	-0.316528	-0.460362	0.032775
H651	H	-0.273297	-0.490939	0.064027
H652	H	-0.274094	-0.474028	0.142875
H653	H	-0.318124	-0.426540	0.190469
C654	C	0.364220	0.250712	-0.292554
C655	C	0.366605	0.293477	-0.313740
C656	C	0.313794	0.294213	-0.287345
C657	C	0.258597	0.252184	-0.239764
C658	C	0.256210	0.209416	-0.218576
C659	C	0.309022	0.208680	-0.244971
H660	H	0.407467	0.324592	-0.348964
H661	H	0.315561	0.325872	-0.303030
H662	H	0.219503	0.252728	-0.220225
H663	H	0.215349	0.178300	-0.183351
H664	H	0.307254	0.177020	-0.229286
H665	H	0.214783	-0.319132	0.328334
C666	C	-0.483348	-0.334225	0.292438
C667	C	-0.517754	-0.321054	0.284814
C668	C	-0.490596	-0.267507	0.258398
C669	C	-0.429031	-0.227131	0.239607
C670	C	-0.394622	-0.240301	0.247230
C671	C	-0.421780	-0.293848	0.273646
H672	H	-0.563331	-0.350943	0.298724
H673	H	-0.516068	-0.257757	0.252754
H674	H	-0.408927	-0.187492	0.220052
H675	H	-0.349045	-0.210412	0.233319
H676	H	-0.396308	-0.303598	0.279290
C677	C	-0.098621	-0.141521	0.017147
C678	C	-0.161209	-0.162759	0.056882
C679	C	-0.186342	-0.135304	0.054835
C680	C	-0.148887	-0.086612	0.013053
C681	C	-0.086296	-0.065372	-0.026684
C682	C	-0.061163	-0.092826	-0.024637
H683	H	-0.188939	-0.198806	0.087813
H684	H	-0.232677	-0.151028	0.084251
H685	H	-0.167492	-0.066289	0.011538
H686	H	-0.058566	-0.029324	-0.057616
H687	H	-0.014829	-0.077102	-0.054053
H688	H	0.214866	-0.107227	-0.460154
C689	C	0.434079	-0.639815	-0.017257
C690	C	0.494500	-0.621730	-0.060061
C691	C	0.519913	-0.648907	-0.058021
C692	C	0.484904	-0.694170	-0.013177
C693	C	0.424479	-0.712258	0.029630
C694	C	0.399066	-0.685081	0.027590
H695	H	0.520419	-0.588221	-0.093261
H696	H	0.564644	-0.635516	-0.089710
H697	H	0.503716	-0.714288	-0.011666
H698	H	0.398560	-0.745766	0.062830
H699	H	0.354335	-0.698471	0.059279
C700	C	0.561087	0.245751	-0.467211
C701	C	0.536355	0.202939	-0.484814
C702	C	0.511214	0.204974	-0.512263
C703	C	0.510804	0.249821	-0.522111
C704	C	0.535536	0.292636	-0.504508
C705	C	0.560678	0.290602	-0.477058
H706	H	0.536658	0.169737	-0.477524
H707	H	0.492905	0.173278	-0.525294
H708	H	0.492192	0.251327	-0.542431
H709	H	0.535233	0.325838	-0.511797
H710	H	0.578986	0.322297	-0.464028
H711	H	-0.524683	-0.543097	0.328313
C712	C	0.434070	0.237951	-0.515539
C713	C	0.440980	0.196167	-0.526774
C714	C	0.466388	0.194115	-0.579360
C715	C	0.484887	0.233846	-0.620712
C716	C	0.477977	0.275632	-0.609478
C717	C	0.452569	0.277685	-0.556892
H718	H	0.427286	0.166754	-0.496162
H719	H	0.471503	0.163181	-0.587676
H720	H	0.503696	0.232326	-0.659640
H721	H	0.491671	0.305046	-0.640090
H722	H	0.447454	0.308618	-0.548576
C723	C	0.277540	-0.141548	-0.515544
C724	C	0.277077	-0.123931	-0.557882
C725	C	0.331711	-0.096480	-0.610470
C726	C	0.386809	-0.086646	-0.620722
C727	C	0.387275	-0.104263	-0.578383
C728	C	0.332640	-0.131714	-0.525795
H729	H	0.236288	-0.131210	-0.550294
H730	H	0.331367	-0.083438	-0.641812
H731	H	0.427253	-0.066324	-0.659651
H732	H	0.428063	-0.096984	-0.585971
H733	H	0.332985	-0.144756	-0.494453
H734	H	-0.349468	-0.277331	0.146364
C735	C	0.657369	0.081797	-0.363032
C736	C	0.720000	0.104698	-0.384407
C737	C	0.745297	0.132048	-0.357118
C738	C	0.707963	0.136496	-0.308454
C739	C	0.645329	0.113595	-0.287077
C740	C	0.620031	0.086245	-0.314366
H741	H	0.747640	0.101406	-0.420433
H742	H	0.791663	0.149001	-0.372943
H743	H	0.726690	0.156742	-0.288254
H744	H	0.617689	0.116887	-0.251051
H745	H	0.573665	0.069292	-0.298540
C746	C	-0.002340	-0.093545	0.024967
C747	C	0.022502	-0.051133	-0.017832
C748	C	0.047803	0.001454	-0.015783
C749	C	0.048263	0.011629	0.029064
C750	C	0.023420	-0.030784	0.071865
C751	C	-0.001881	-0.083371	0.069817
H752	H	0.022163	-0.058665	-0.051033
H753	H	0.066193	0.032851	-0.047468
H754	H	0.066992	0.050557	0.030580
H755	H	0.023760	-0.023252	0.105066
H756	H	-0.020271	-0.114768	0.101501
C757	C	-0.719094	-0.639795	0.515446
C758	C	-0.718630	-0.621708	0.557782
C759	C	-0.773265	-0.648884	0.610371
C760	C	-0.828363	-0.694147	0.620624
C761	C	-0.828829	-0.712237	0.578287
C762	C	-0.774195	-0.685060	0.525698
H763	H	-0.677842	-0.588199	0.550194
H764	H	-0.772920	-0.635493	0.641712
H765	H	-0.868807	-0.714265	0.659553
H766	H	-0.869618	-0.745745	0.585876
H767	H	-0.774540	-0.698452	0.494357
C768	C	0.041801	0.190988	0.444863
C769	C	0.076232	0.233040	0.458001
C770	C	0.049094	0.232344	0.511535
C771	C	-0.012475	0.189597	0.551931
C772	C	-0.046910	0.147542	0.538795
C773	C	-0.019772	0.148237	0.485261
H774	H	0.121813	0.264687	0.428096
H775	H	0.074585	0.263476	0.521259
H776	H	-0.032565	0.189082	0.591560
H777	H	-0.092490	0.115894	0.568700
H778	H	-0.045263	0.117105	0.475537
H779	H	0.214828	-0.015253	-0.460105
C780	C	-0.098926	-0.294333	-0.139070
C781	C	-0.123768	-0.336748	-0.157024
C782	C	-0.149070	-0.389334	-0.129673
C783	C	-0.149529	-0.399504	-0.084366
C784	C	-0.124686	-0.357088	-0.066409
C785	C	-0.099384	-0.304502	-0.093761
H786	H	-0.123429	-0.329221	-0.190565
H787	H	-0.167460	-0.420733	-0.142966
H788	H	-0.168259	-0.438431	-0.064119
H789	H	-0.125025	-0.364615	-0.032869
H790	H	-0.080993	-0.273103	-0.080468
H791	H	0.214835	-0.015521	0.024441
H792	H	-0.009167	-0.239229	-0.236107
H793	H	0.263321	0.203112	0.146369
H794	H	-0.622080	-0.479793	0.430971
C795	C	0.194225	0.190938	0.292442
C796	C	0.191845	0.148175	0.313624
C797	C	0.244651	0.147433	0.287215
C798	C	0.299838	0.189453	0.239623
C799	C	0.302221	0.232219	0.218437
C800	C	0.249414	0.232961	0.244847
H801	H	0.150990	0.117067	0.348857
H802	H	0.242888	0.115775	0.302898
H803	H	0.338929	0.188903	0.220073
H804	H	0.343075	0.263327	0.183204
H805	H	0.251178	0.264619	0.229164
H806	H	0.567616	-0.015243	-0.328388
C807	C	0.489502	-0.093878	-0.243149
C808	C	0.542525	-0.082633	-0.247475
C809	C	0.597155	-0.030043	-0.274652
C810	C	0.598763	0.011300	-0.297503
C811	C	0.545739	0.000056	-0.293178
C812	C	0.491109	-0.052534	-0.266001
H813	H	0.541336	-0.113239	-0.230559
H814	H	0.636407	-0.021720	-0.277854
H815	H	0.639204	0.050230	-0.317621
H816	H	0.546928	0.030662	-0.310094
H817	H	0.451857	-0.060857	-0.262799
C818	C	0.125052	0.203723	0.515098
C819	C	0.118179	0.245510	0.526418
C820	C	0.092946	0.247573	0.579001
C821	C	0.074586	0.207850	0.620264
C822	C	0.081459	0.166060	0.608946
C823	C	0.106692	0.163997	0.556363
H824	H	0.131770	0.274918	0.495872
H825	H	0.087858	0.278509	0.587380
H826	H	0.055907	0.209378	0.659189
H827	H	0.067868	0.136652	0.639492
H828	H	0.111780	0.133061	0.547984
H829	H	0.343638	-0.543116	-0.024511
H830	H	0.426818	-0.149274	-0.146148
C831	C	-0.098925	0.203707	0.362933
C832	C	-0.161556	0.163981	0.384309
C833	C	-0.186852	0.166030	0.357019
C834	C	-0.149517	0.207805	0.308352
C835	C	-0.086882	0.247534	0.286974
C836	C	-0.061585	0.245485	0.314264
H837	H	-0.189198	0.133053	0.420337
H838	H	-0.233219	0.136619	0.372845
H839	H	-0.168243	0.209322	0.288151
H840	H	-0.059240	0.278461	0.250946
H841	H	-0.015218	0.274895	0.298438
C842	C	-0.098945	-0.294331	0.017138
C843	C	-0.161576	-0.335585	0.056866
C844	C	-0.186874	-0.388171	0.054814
C845	C	-0.149541	-0.399503	0.013034
C846	C	-0.086905	-0.358247	-0.026697
C847	C	-0.061607	-0.305661	-0.024645
H848	H	-0.189216	-0.327198	0.087797
H849	H	-0.233241	-0.418711	0.084226
H850	H	-0.168268	-0.438430	0.011516
H851	H	-0.059266	-0.366635	-0.057628
H852	H	-0.015241	-0.275121	-0.054058
C853	C	0.277181	-0.264025	0.362979
C854	C	0.332203	-0.253855	0.353258
C855	C	0.386841	-0.201270	0.325970
C856	C	0.386456	-0.158855	0.308404
C857	C	0.331432	-0.169024	0.318125
C858	C	0.276794	-0.221609	0.345412
H859	H	0.332489	-0.285254	0.366262
H860	H	0.427573	-0.193742	0.318775
H861	H	0.426902	-0.119928	0.288204
H862	H	0.331146	-0.137624	0.305121
H863	H	0.236062	-0.229137	0.352608
H864	H	0.475667	-0.319074	-0.024528
H865	H	0.263311	-0.148659	0.017698
H866	H	0.426826	-0.149279	-0.501527
H867	H	0.180492	-0.348160	0.299327
C868	C	0.125053	0.203671	0.138962
C869	C	0.106690	0.163933	0.116071
C870	C	0.081454	0.165979	0.088719
C871	C	0.074581	0.207763	0.084259
C872	C	0.092945	0.247504	0.107150
C873	C	0.118180	0.245458	0.134502
H874	H	0.111777	0.132999	0.119373
H875	H	0.067860	0.136560	0.071774
H876	H	0.055900	0.209278	0.064011
H877	H	0.087858	0.278438	0.103848
H878	H	0.131774	0.274877	0.151447
C879	C	0.281247	-0.640155	-0.017230
C880	C	0.226226	-0.685456	0.027621
C881	C	0.171587	-0.712807	0.029674
C882	C	0.171969	-0.694855	-0.013123
C883	C	0.226992	-0.649552	-0.057978
C884	C	0.281631	-0.622202	-0.060031
H885	H	0.225941	-0.698747	0.059305
H886	H	0.130856	-0.746343	0.062879
H887	H	0.131522	-0.715102	-0.011603
H888	H	0.227277	-0.636261	-0.089662
H889	H	0.322363	-0.588665	-0.093236
C890	C	0.277186	-0.264027	0.138992
C891	C	0.330300	-0.252696	0.134537
C892	C	0.384937	-0.200110	0.107188
C893	C	0.386459	-0.158854	0.084294
C894	C	0.333344	-0.170184	0.088748
C895	C	0.278707	-0.222770	0.116096
H896	H	0.329175	-0.283237	0.151486
H897	H	0.424256	-0.191723	0.103892
H898	H	0.426904	-0.119927	0.064049
H899	H	0.334469	-0.139643	0.071799
H900	H	0.239387	-0.231157	0.119393
H901	H	0.048837	-0.210196	0.029697
H902	H	-0.656419	-0.542806	0.460050
C903	C	0.364217	-0.486682	-0.029975
C904	C	0.309019	-0.494301	0.012058
C905	C	0.256210	-0.520714	0.011321
C906	C	0.258600	-0.539507	-0.031450
C907	C	0.313801	-0.531889	-0.073486
C908	C	0.366610	-0.505476	-0.072749
H909	H	0.307248	-0.480388	0.043723
H910	H	0.215347	-0.526353	0.042439
H911	H	0.219508	-0.559060	-0.031996
H912	H	0.315572	-0.545801	-0.105151
H913	H	0.407473	-0.499836	-0.103867
H914	H	0.048839	-0.078529	0.029694
H915	H	-0.524342	-0.319055	0.327978
C916	C	0.124362	-0.416835	0.139327
C917	C	0.063944	-0.434450	0.157406
C918	C	0.038532	-0.461916	0.130233
C919	C	0.073538	-0.471769	0.084981
C920	C	0.133960	-0.454154	0.066900
C921	C	0.159372	-0.426687	0.094072
H922	H	0.038027	-0.427157	0.190906
H923	H	-0.006196	-0.474956	0.143618
H924	H	0.054727	-0.492101	0.064866
H925	H	0.159877	-0.461447	0.033399
H926	H	0.204100	-0.413647	0.080687
H927	H	0.567355	-0.319073	-0.024528
H928	H	-0.573175	-0.633035	0.370052
H929	H	0.567351	0.245258	-0.328072
H930	H	0.475667	0.245239	-0.460144
H931	H	0.082759	-0.451148	0.460071
H932	H	0.475673	-0.542826	-0.024534
H933	H	0.180497	-0.078532	0.029700
H934	H	0.509580	-0.078539	-0.299382
H935	H	0.343643	0.245246	-0.328410
H936	H	0.475316	-0.107542	-0.460078
H937	H	0.048819	-0.479822	0.430995
H938	H	0.048825	-0.479823	0.299329
H939	H	0.082759	-0.451145	0.236317
H940	H	0.048852	-0.210211	-0.299410
H941	H	0.214838	0.196372	0.236297
H942	H	0.214842	0.196391	0.327982
H943	H	0.083119	0.196425	0.459990
H944	H	-0.008904	0.196415	0.460037
H945	H	-0.092076	0.203175	0.501762
H946	H	-0.009175	0.196412	0.328294
