data_functionalizedCrystal
_audit_creation_method	'MofGen! by Chris Wilmer'
_symmetry_space_group_name_H-M	'P1'
_symmetry_Int_Tables_number	1
_symmetry_cell_setting	triclinic
loop_
_symmetry_equiv_pos_as_xyz
  x,y,z
_cell_length_a	12.811438
_cell_length_b	12.811415
_cell_length_c	9.730223
_cell_angle_alpha	84.564740
_cell_angle_beta	95.429385
_cell_angle_gamma	84.560771
loop_
_atom_site_label
_atom_site_type_symbol
_atom_site_fract_x
_atom_site_fract_y
_atom_site_fract_z
O1	O	1.393277	0.141394	0.041771
O2	O	1.087763	0.156763	0.001769
O3	O	1.248206	-0.003680	0.041773
O4	O	1.232834	0.301838	0.001767
O5	O	1.248196	-0.003685	0.270352
O6	O	1.087753	0.156759	0.230348
O7	O	1.393267	0.141390	0.270350
Zn8	Zn	1.240508	0.149074	0.286641
Zn9	Zn	1.240522	0.149079	-0.014522
O10	O	1.232824	0.301833	0.230346
C11	C	1.048650	0.155899	0.111291
C12	C	0.932122	0.153318	0.097085
C13	C	0.767884	0.149682	-0.047519
C14	C	0.877373	0.152106	-0.034184
C15	C	0.877376	0.152101	0.215028
C16	C	0.767888	0.149677	0.201692
C17	C	0.713145	0.148469	0.070414
C18	C	0.603654	0.146052	0.057079
C19	C	0.603660	0.146039	0.306290
C20	C	0.713149	0.148464	0.319626
C21	C	1.247339	-0.042790	0.160828
C22	C	1.244760	-0.159320	0.175026
C23	C	1.239905	-0.378275	-0.047522
C24	C	1.237481	-0.487765	-0.034189
C25	C	1.237481	-0.487791	0.215025
C26	C	1.239905	-0.378301	0.201691
C27	C	1.241118	-0.323547	0.070414
C28	C	1.243549	-0.214056	0.057082
C29	C	1.243542	-0.214083	0.306293
C30	C	1.241118	-0.323573	0.319627
C31	C	1.432380	0.142254	0.160826
C32	C	1.548908	0.144835	0.175022
C33	C	1.233691	0.340943	0.111288
C34	C	1.236270	0.457473	0.097081
N35	N	1.240507	0.149069	0.492178
N36	N	1.240532	0.149076	-0.220057
C37	C	1.311575	0.078055	0.581817
C38	C	1.311585	0.078055	0.725701
C39	C	1.169456	0.220093	0.690293
C40	C	1.169441	0.220087	0.546411
H41	H	0.559080	0.145056	0.402320
H42	H	1.111564	0.277916	0.473420
H43	H	0.921937	0.153094	-0.130217
H44	H	1.111597	0.277916	0.734465
H45	H	0.723310	0.148710	-0.154412
Cl46	Cl	1.245078	-0.145277	0.454566
Cl47	Cl	1.235952	-0.556563	-0.182458
Cl48	Cl	1.400910	-0.011229	0.513643
H49	H	1.244541	-0.169478	-0.049810
H50	H	1.369454	0.020228	0.798683
Cl51	Cl	0.946213	0.153619	0.380049
H52	H	1.240126	-0.368168	0.426509
Cl53	Cl	0.534835	0.144537	-0.107954
Cl54	Cl	0.781978	0.149985	0.484651
H55	H	1.240902	-0.333695	-0.154412
Cl56	Cl	1.235924	-0.556638	0.380041
