data_functionalizedCrystal
_audit_creation_method	'MofGen! by Chris Wilmer'
_symmetry_space_group_name_H-M	'P1'
_symmetry_Int_Tables_number	1
_symmetry_cell_setting	triclinic
loop_
_symmetry_equiv_pos_as_xyz
  x,y,z
_cell_length_a	9.065215
_cell_length_b	7.540329
_cell_length_c	14.971486
_cell_angle_alpha	90.003400
_cell_angle_beta	95.685587
_cell_angle_gamma	89.996713
loop_
_atom_site_label
_atom_site_type_symbol
_atom_site_fract_x
_atom_site_fract_y
_atom_site_fract_z
O1	O	1.957743	-0.147463	-0.131139
O2	O	2.457743	0.352537	0.368861
O3	O	1.528240	-0.147471	-0.141900
O4	O	2.028240	0.352529	0.358100
O5	O	1.754503	-0.147454	-0.006405
O6	O	2.254503	0.352546	0.493595
O7	O	1.731480	-0.147480	-0.266634
O8	O	2.231480	0.352520	0.233366
O9	O	1.754486	0.147511	-0.006405
O10	O	2.254486	0.647511	0.493595
O11	O	1.528223	0.147494	-0.141899
O12	O	2.028223	0.647494	0.358101
O13	O	1.957726	0.147502	-0.131139
O14	O	2.457726	0.647502	0.368861
Cu15	Cu	1.742973	0.174431	-0.136519
Cu16	Cu	2.242973	0.674431	0.363481
Cu17	Cu	1.742993	-0.174400	-0.136520
Cu18	Cu	2.242993	0.325600	0.363480
O19	O	1.731463	0.147485	-0.266633
O20	O	2.231463	0.647485	0.233367
C21	C	1.473265	0.000010	-0.140866
C22	C	1.973265	0.500010	0.359134
C23	C	1.309485	0.000008	-0.137776
C24	C	1.809485	0.500008	0.362224
N25	N	1.742969	0.419779	-0.136518
N26	N	2.242969	0.919779	0.363482
C27	C	2.012700	0.000016	-0.132173
C28	C	2.512700	0.500016	0.367827
C29	C	2.176481	0.000008	-0.135263
C30	C	2.676481	0.500008	0.364737
C31	C	1.753465	0.000028	0.026928
C32	C	2.253465	0.500028	0.526928
C33	C	1.750380	0.000026	0.126248
C34	C	2.250380	0.500026	0.626248
N35	N	1.742995	0.580252	-0.136518
N36	N	2.242995	1.080252	0.363482
C37	C	1.732501	-0.000001	-0.299966
C38	C	2.232501	0.499999	0.200034
C39	C	1.735586	-0.000011	-0.399286
C40	C	2.235586	0.499989	0.100714
C41	C	1.883303	0.000030	0.182483
C42	C	2.383303	0.500030	0.682483
C43	C	1.880395	0.000012	0.275804
C44	C	2.380395	0.500012	0.775804
C45	C	1.744562	0.000003	0.312888
C46	C	2.244562	0.500003	0.812888
C47	C	1.611628	-0.000006	0.256645
C48	C	2.111628	0.499994	0.756645
C49	C	1.614538	-0.000001	0.163326
C50	C	2.114538	0.499999	0.663326
C51	C	1.605573	-0.000013	0.451153
C52	C	2.105573	0.499987	0.951153
C53	C	1.602663	-0.000015	0.544479
C54	C	2.102663	0.499985	1.044479
C55	C	1.871431	0.000000	0.563631
C56	C	2.371431	0.500000	1.063631
C57	C	1.874340	0.000005	0.470312
C58	C	2.374340	0.500005	0.970312
C59	C	1.741406	-0.000000	0.414075
C60	C	2.241406	0.500000	0.914075
H61	H	1.993914	0.000048	0.152297
H62	H	2.493914	0.500048	0.652297
H63	H	1.988635	0.000019	0.321588
H64	H	2.488635	0.500019	0.821588
Br65	Br	2.058687	0.000013	0.419984
Br66	Br	2.558687	0.500013	0.919984
H67	H	1.979671	-0.000001	0.609423
H68	H	2.479671	0.499999	1.109423
Br69	Br	1.434134	-0.000020	0.087004
Br70	Br	1.934134	0.499980	0.587004
H71	H	1.492055	0.000007	0.574669
H72	H	1.992055	0.500007	1.074669
H73	H	1.501030	-0.000025	0.286846
H74	H	2.001030	0.499975	0.786846
Br75	Br	1.425160	-0.000027	0.374832
Br76	Br	1.925160	0.499973	0.874832
