data_functionalizedCrystal
_audit_creation_method	'MofGen! by Chris Wilmer'
_symmetry_space_group_name_H-M	'P1'
_symmetry_Int_Tables_number	1
_symmetry_cell_setting	triclinic
loop_
_symmetry_equiv_pos_as_xyz
  x,y,z
_cell_length_a	18.215407
_cell_length_b	14.909042
_cell_length_c	18.215399
_cell_angle_alpha	93.320692
_cell_angle_beta	90.017813
_cell_angle_gamma	86.713748
loop_
_atom_site_label
_atom_site_type_symbol
_atom_site_fract_x
_atom_site_fract_y
_atom_site_fract_z
Zn1	Zn	1.142024	-0.359295	0.399190
Zn2	Zn	1.642024	0.140705	0.899190
Zn3	Zn	1.149050	-0.510161	0.269033
Zn4	Zn	1.649050	-0.010161	0.769033
Zn5	Zn	1.018957	-0.359309	0.276141
Zn6	Zn	1.518957	0.140691	0.776141
Zn7	Zn	1.026037	-0.510095	0.392066
Zn8	Zn	1.526037	-0.010095	0.892066
O9	O	1.084017	-0.434715	0.334108
O10	O	1.584017	0.065285	0.834108
O11	O	1.245941	-0.379329	0.381931
O12	O	1.745941	0.120671	0.881931
O13	O	1.131770	-0.490183	0.166990
O14	O	1.631770	0.009817	0.666990
O15	O	1.029378	-0.233064	0.298420
O16	O	1.529378	0.266936	0.798420
O17	O	1.251103	-0.490170	0.286306
O18	O	1.751103	0.009830	0.786306
O19	O	1.119795	-0.233054	0.388824
O20	O	1.619795	0.266946	0.888824
O21	O	1.036192	-0.379353	0.172212
O22	O	1.536192	0.120647	0.672212
O23	O	0.916911	-0.379289	0.291512
O24	O	1.416911	0.120711	0.791512
O25	O	1.041445	-0.490058	0.495997
O26	O	1.541445	0.009942	0.995997
O27	O	0.922113	-0.490071	0.376681
O28	O	1.422113	0.009929	0.876681
O29	O	1.126660	-0.379265	0.501231
O30	O	1.626660	0.120735	1.001231
O31	O	1.138636	-0.636395	0.279398
O32	O	1.638636	-0.136395	0.779398
O33	O	1.048259	-0.636347	0.369789
O34	O	1.548259	-0.136347	0.869789
C35	C	0.892809	-0.434675	0.334095
C36	C	1.392809	0.065325	0.834095
C37	C	0.811010	-0.434680	0.334106
C38	C	1.311010	0.065320	0.834106
C39	C	1.094998	-0.669104	0.323065
C40	C	1.594998	-0.169104	0.823065
C41	C	1.099763	-0.769377	0.318366
C42	C	1.599763	-0.269377	0.818366
C43	C	0.543266	-0.377111	0.383970
C44	C	1.043266	0.122889	0.883970
C45	C	0.620124	-0.377097	0.383968
C46	C	1.120124	0.122903	0.883968
C47	C	0.625511	-0.492348	0.284260
C48	C	1.125511	0.007652	0.784260
C49	C	0.548654	-0.492366	0.284266
C50	C	1.048654	0.007634	0.784266
C51	C	0.507534	-0.434743	0.334120
C52	C	1.007534	0.065257	0.834120
C53	C	0.661248	-0.434710	0.334112
C54	C	1.161248	0.065290	0.834112
C55	C	0.744581	-0.434694	0.334110
C56	C	1.244581	0.065306	0.834110
C57	C	0.424195	-0.434759	0.334123
C58	C	0.924195	0.065241	0.834123
C59	C	1.014517	-0.957814	0.403578
C60	C	1.514517	-0.457814	0.903578
C61	C	1.018992	-1.052029	0.399165
C62	C	1.518992	-0.552029	0.899165
C63	C	1.113183	-1.052024	0.305124
C64	C	1.613183	-0.552024	0.805124
C65	C	1.108708	-0.957809	0.309536
C66	C	1.608708	-0.457809	0.809536
C67	C	1.059374	-0.910707	0.358766
C68	C	1.559374	-0.410707	0.858766
C69	C	1.054904	-0.816490	0.363182
C70	C	1.554904	-0.316490	0.863182
C71	C	1.149091	-0.816487	0.269138
C72	C	1.649091	-0.316487	0.769138
C73	C	1.153566	-0.910702	0.264725
C74	C	1.653566	-0.410702	0.764725
C75	C	1.275972	-0.434755	0.334121
C76	C	1.775972	0.065245	0.834121
C77	C	1.357771	-0.434773	0.334126
C78	C	1.857771	0.065227	0.834126
C79	C	1.084059	-0.434653	0.526064
C80	C	1.584059	0.065347	1.026064
C81	C	1.084077	-0.434626	0.607864
C82	C	1.584077	0.065374	1.107864
C83	C	1.073013	-0.199410	0.345209
C84	C	1.573013	0.300590	0.845209
C85	C	1.068324	-0.099137	0.349940
C86	C	1.568324	0.400863	0.849940
C87	C	1.084014	-0.434712	0.142902
C88	C	1.584014	0.065288	0.642902
C89	C	1.084127	-0.434484	0.061114
C90	C	1.584127	0.065516	0.561114
C91	C	1.128462	-0.376883	0.798787
C92	C	1.628462	0.123117	1.298787
C93	C	1.128470	-0.376856	0.875647
C94	C	1.628470	0.123144	1.375647
C95	C	1.039736	-0.492230	0.870185
C96	C	1.539736	0.007770	1.370185
C97	C	1.039725	-0.492251	0.793327
C98	C	1.539725	0.007749	1.293327
C99	C	1.084093	-0.434579	0.757630
C100	C	1.584093	0.065421	1.257630
C101	C	1.084111	-0.434531	0.911348
C102	C	1.584111	0.065469	1.411348
C103	C	1.084119	-0.434503	0.994683
C104	C	1.584119	0.065497	1.494683
C105	C	1.084084	-0.434605	0.674289
C106	C	1.584084	0.065395	1.174289
H107	H	0.649214	-0.330168	0.424561
H108	H	1.149214	0.169832	0.924561
O109	O	0.669860	-0.554485	0.230481
O110	O	1.169860	-0.054485	0.730481
H111	H	0.729307	-0.544782	0.238844
H112	H	1.229307	-0.044782	0.738844
O113	O	0.510105	-0.554522	0.230492
O114	O	1.010105	-0.054522	0.730492
H115	H	0.551609	-0.594576	0.195816
H116	H	1.051609	-0.094576	0.695816
H117	H	1.164599	-0.329873	0.909154
H118	H	1.664599	0.170127	1.409154
H119	H	1.164587	-0.329919	0.769725
H120	H	1.664587	0.170081	1.269725
H121	H	0.509787	-0.330190	0.424564
H122	H	1.009787	0.169810	0.924564
O123	O	1.001687	-0.765681	0.416268
O124	O	1.501687	-0.265681	0.916268
H125	H	0.971239	-0.814270	0.446678
H126	H	1.471239	-0.314270	0.946678
H127	H	1.003616	-0.539187	0.899259
H128	H	1.503616	-0.039187	1.399259
H129	H	0.974352	-0.919463	0.443668
H130	H	1.474352	-0.419463	0.943668
H131	H	0.982466	-1.090380	0.435657
H132	H	1.482466	-0.590380	0.935657
H133	H	1.003589	-0.539234	0.759815
H134	H	1.503589	-0.039234	1.259815
H135	H	1.153342	-1.090390	0.265036
H136	H	1.653342	-0.590390	0.765036
H137	H	1.193730	-0.949065	0.224641
H138	H	1.693730	-0.449065	0.724641
H139	H	1.185620	-0.778122	0.232651
H140	H	1.685620	-0.278122	0.732651
