data_functionalizedCrystal
_audit_creation_method	'MofGen! by Chris Wilmer'
_symmetry_space_group_name_H-M	'P1'
_symmetry_Int_Tables_number	1
_symmetry_cell_setting	triclinic
loop_
_symmetry_equiv_pos_as_xyz
  x,y,z
_cell_length_a	12.645331
_cell_length_b	12.645330
_cell_length_c	12.645323
_cell_angle_alpha	89.976029
_cell_angle_beta	90.015738
_cell_angle_gamma	89.974579
loop_
_atom_site_label
_atom_site_type_symbol
_atom_site_fract_x
_atom_site_fract_y
_atom_site_fract_z
Zn1	Zn	1.620669	0.422053	0.599257
Zn2	Zn	1.620524	0.599341	0.421999
Zn3	Zn	1.443383	0.422089	0.422022
Zn4	Zn	1.443339	0.599272	0.599236
O5	O	1.531979	0.510689	0.510629
O6	O	1.768997	0.445584	0.575742
O7	O	1.596984	0.575872	0.273655
O8	O	1.466980	0.273737	0.445551
O9	O	1.768890	0.575836	0.445512
O10	O	1.597230	0.273710	0.575764
O11	O	1.466839	0.445646	0.273672
O12	O	1.295030	0.445580	0.445531
O13	O	1.466904	0.575720	0.747586
O14	O	1.294997	0.575755	0.575730
O15	O	1.597187	0.445517	0.747601
O16	O	1.596941	0.747679	0.445492
O17	O	1.466764	0.747629	0.575707
C18	C	1.256549	0.510665	0.510631
C19	C	1.138719	0.510680	0.510658
C20	C	0.971170	0.593022	0.592138
C21	C	1.093730	0.592757	0.592479
C22	C	1.094257	0.399025	0.541177
C23	C	0.971659	0.399528	0.541751
C24	C	0.971469	0.539093	0.398399
C25	C	1.094075	0.541535	0.399004
C26	C	1.531860	0.786119	0.510618
C27	C	1.531907	0.903949	0.510649
C28	C	1.450325	1.071525	0.592823
C29	C	1.449926	0.948966	0.592557
C30	C	1.501655	0.948542	0.398932
C31	C	1.501139	1.071141	0.399432
C32	C	1.644183	1.071039	0.539293
C33	C	1.643513	0.948432	0.541734
C34	C	1.808484	0.510714	0.510627
C35	C	1.926314	0.510724	0.510626
C36	C	1.532057	0.510607	0.787134
C37	C	1.532090	0.510572	0.904964
C38	C	1.532089	1.234183	0.510666
C39	C	1.532041	1.116353	0.510693
C40	C	1.531962	0.510694	0.235199
C41	C	1.532134	0.510430	0.117369
C42	C	1.449876	0.592096	1.072519
C43	C	1.450091	0.592500	0.949959
C44	C	1.643785	0.540892	0.949471
C45	C	1.643334	0.541403	1.072069
C46	C	1.503665	0.398272	1.072164
C47	C	1.501173	0.398944	0.949558
H48	H	1.124700	0.485941	0.335013
H49	H	1.420542	0.917930	0.374262
C50	C	1.134354	0.704610	0.566651
C51	C	1.204182	0.763986	0.646799
C52	C	1.244803	0.875845	0.620976
C53	C	1.215594	0.928327	0.515003
C54	C	1.145761	0.868950	0.434847
C55	C	1.105141	0.757092	0.460671
H56	H	1.225808	0.725136	0.725253
H57	H	1.296497	0.919799	0.680313
H58	H	1.245663	1.011131	0.495886
H59	H	1.124136	0.907801	0.356393
H60	H	1.053446	0.713138	0.401333
H61	H	0.943088	0.375465	0.623794
H62	H	0.940381	0.574491	0.674811
C63	C	0.931309	0.705253	0.566598
C64	C	0.965211	0.799189	0.636237
C65	C	0.925342	0.911422	0.610695
C66	C	0.851572	0.929720	0.515512
C67	C	0.817666	0.835781	0.445866
C68	C	0.857535	0.723547	0.471409
H69	H	1.019824	0.785647	0.706703
H70	H	0.950442	0.980962	0.662252
H71	H	0.822059	1.012802	0.496604
H72	H	0.763053	0.849323	0.375401
H73	H	0.832435	0.654007	0.419852
C74	C	0.932279	0.458119	0.316345
C75	C	0.859669	0.366704	0.350934
C76	C	0.820474	0.285726	0.268890
C77	C	0.853889	0.296164	0.152258
C78	C	0.926503	0.387583	0.117663
C79	C	0.965698	0.468561	0.199706
H80	H	0.834930	0.358973	0.437277
H81	H	0.766720	0.218051	0.294500
H82	H	0.824874	0.236219	0.091524
H83	H	0.951242	0.395314	0.031320
H84	H	1.019451	0.536236	0.174096
C85	C	1.674350	0.909057	0.652803
C86	C	1.774994	0.842140	0.667987
C87	C	1.805830	0.802763	0.779058
C88	C	1.736022	0.830304	0.874944
C89	C	1.635371	0.897225	0.859763
C90	C	1.604536	0.936602	0.748692
H91	H	1.826676	0.821750	0.597004
H92	H	1.880338	0.753223	0.790295
H93	H	1.758848	0.801154	0.957165
H94	H	1.583689	0.917615	0.930746
H95	H	1.530027	0.986141	0.737455
C96	C	1.728808	0.463081	0.910108
C97	C	1.697730	0.370884	0.836918
C98	C	1.782750	0.293069	0.797557
C99	C	1.898849	0.307452	0.831387
C100	C	1.929933	0.399654	0.904581
C101	C	1.844913	0.477468	0.943942
H102	H	1.611781	0.360233	0.811871
H103	H	1.759739	0.224815	0.743374
H104	H	1.961786	0.249849	0.802250
H105	H	2.015882	0.410305	0.929628
H106	H	1.867924	0.545722	0.998125
C107	C	1.475007	0.703726	1.114146
C108	C	1.569814	0.720976	1.188614
C109	C	1.594949	0.832605	1.230243
C110	C	1.525277	0.926982	1.197404
C111	C	1.430464	0.909734	1.122932
C112	C	1.405329	0.798106	1.081303
H113	H	1.621395	0.651110	1.212928
H114	H	1.665136	0.845372	1.285373
H115	H	1.543883	1.009616	1.228220
H116	H	1.378883	0.979601	1.098618
H117	H	1.335142	0.785339	1.026174
H118	H	1.123081	0.573982	0.675635
H119	H	1.123399	0.336041	0.483662
H120	H	1.468883	0.675648	0.920644
H121	H	0.940535	0.619123	0.370658
C122	C	1.390395	1.109908	0.366708
C123	C	1.345040	1.079795	0.257781
C124	C	1.234292	1.118556	0.225059
C125	C	1.168899	1.187428	0.301263
C126	C	1.214252	1.217545	0.410197
C127	C	1.325000	1.178784	0.442919
H128	H	1.393449	1.028808	0.201363
H129	H	1.200719	1.096262	0.144418
H130	H	1.086916	1.216121	0.277040
H131	H	1.165843	1.268532	0.466614
H132	H	1.358574	1.201078	0.523559
H133	H	1.124986	0.374524	0.622331
H134	H	0.941988	0.336012	0.485103
H135	H	1.671768	1.101884	0.619373
C136	C	1.390135	0.368036	0.910257
C137	C	1.300985	0.346593	0.990371
C138	C	1.189948	0.315684	0.951063
C139	C	1.168061	0.306218	0.831640
C140	C	1.257214	0.327660	0.751519
C141	C	1.368251	0.358570	0.790827
H142	H	1.317184	0.353600	1.078782
H143	H	1.123951	0.299811	1.010375
H144	H	1.085865	0.283337	0.802542
H145	H	1.241015	0.320653	0.663108
H146	H	1.434248	0.374443	0.731515
C147	C	1.675957	0.652163	1.110712
C148	C	1.609684	0.749512	1.079561
C149	C	1.642319	0.860273	1.118189
C150	C	1.741227	0.873685	1.187968
C151	C	1.807507	0.776333	1.219123
C152	C	1.774871	0.665571	1.180495
H153	H	1.536460	0.739587	1.027903
H154	H	1.593254	0.932340	1.095126
H155	H	1.765386	0.955678	1.216563
H156	H	1.880730	0.786258	1.270781
H157	H	1.823936	0.593505	1.203558
C158	C	1.576201	0.312397	0.908185
C159	C	1.531953	0.219482	0.843131
C160	C	1.606993	0.132939	0.801757
C161	C	1.726280	0.139311	0.825436
C162	C	1.770534	0.232229	0.890493
C163	C	1.695495	0.318772	0.931867
H164	H	1.443644	0.214763	0.825599
H165	H	1.574232	0.064155	0.753598
H166	H	1.781829	0.075246	0.794809
H167	H	1.858843	0.236948	0.908025
H168	H	1.728256	0.387556	0.980027
H169	H	1.123145	0.623697	0.375986
H170	H	1.469071	1.100937	0.675934
C171	C	1.338713	1.113266	0.567557
C172	C	1.287487	1.088849	0.459810
C173	C	1.175877	1.130595	0.434541
C174	C	1.115494	1.196758	0.517019
C175	C	1.166720	1.221178	0.624773
C176	C	1.278329	1.179432	0.650043
H177	H	1.332187	1.039869	0.398748
H178	H	1.137957	1.112518	0.354773
H179	H	1.032874	1.227661	0.498313
H180	H	1.122020	1.270158	0.685835
H181	H	1.316249	1.197509	0.729810
C182	C	1.726437	1.110200	0.458490
C183	C	1.713529	1.083142	0.340468
C184	C	1.795773	1.122308	0.259663
C185	C	1.890923	1.188532	0.296879
C186	C	1.903835	1.215594	0.414907
C187	C	1.821591	1.176428	0.495712
H188	H	1.643089	1.034116	0.312913
H189	H	1.786214	1.102275	0.172291
H190	H	1.951805	1.217525	0.237062
H191	H	1.974275	1.264620	0.442462
H192	H	1.831150	1.196461	0.583085
H193	H	1.468854	0.918812	0.675395
H194	H	1.558074	1.100799	0.336153
H195	H	1.366798	0.919730	0.573609
H196	H	1.559295	0.919385	0.336066
H197	H	1.366804	0.573305	1.102002
H198	H	1.707611	0.917783	0.486269
H199	H	1.367265	0.573526	0.919867
H200	H	1.706700	0.484504	1.101739
H201	H	1.668332	0.622023	0.918781
H202	H	1.423636	0.370634	1.103077
H203	H	1.563578	0.337427	1.101169
