data_functionalizedCrystal
_audit_creation_method	'MofGen! by Chris Wilmer'
_symmetry_space_group_name_H-M	'P1'
_symmetry_Int_Tables_number	1
_symmetry_cell_setting	triclinic
loop_
_symmetry_equiv_pos_as_xyz
  x,y,z
_cell_length_a	6.817900
_cell_length_b	9.582889
_cell_length_c	14.858340
_cell_angle_alpha	92.657508
_cell_angle_beta	104.519754
_cell_angle_gamma	111.207298
loop_
_atom_site_label
_atom_site_type_symbol
_atom_site_fract_x
_atom_site_fract_y
_atom_site_fract_z
V1	V	-4.078396	-0.208010	-0.289789
V2	V	-3.578396	0.291990	0.210211
O3	O	-4.023831	0.009014	-0.284448
O4	O	-3.523831	0.509014	0.215552
O5	O	-4.069084	-0.411503	-0.287639
O6	O	-3.569084	0.088497	0.212361
O7	O	-4.034483	-0.205241	-0.416253
O8	O	-3.534483	0.294759	0.083747
O9	O	-4.058671	-0.198677	-0.154943
O10	O	-3.558671	0.301323	0.345057
V11	V	-4.556377	-0.182000	-0.273681
V12	V	-4.056377	0.318000	0.226319
O13	O	-4.351810	-0.265063	-0.325124
O14	O	-3.851810	0.234937	0.174876
O15	O	-4.733161	-0.124946	-0.238346
O16	O	-4.233161	0.375054	0.261654
O17	O	-4.342483	0.021494	-0.275832
O18	O	-3.842483	0.521494	0.224168
O19	O	-4.728339	-0.399023	-0.279022
O20	O	-4.228339	0.100977	0.220978
O21	O	-4.693499	-0.191333	-0.408527
O22	O	-4.193499	0.308667	0.091473
O23	O	-4.377084	-0.184769	-0.147217
O24	O	-3.877084	0.315231	0.352783
C25	C	-3.923448	-0.461097	-0.283024
C26	C	-3.423448	0.038903	0.216976
C27	C	-3.997151	-0.627459	-0.282108
C28	C	-3.497151	-0.127459	0.217892
C29	C	-3.879310	-0.197987	-0.447083
C30	C	-3.379310	0.302013	0.052917
C31	C	-3.924948	-0.197070	-0.550467
C32	C	-3.424948	0.302930	-0.050467
C33	C	-3.962009	-0.196323	-0.634426
C34	C	-3.462009	0.303677	-0.134426
C35	C	-4.008517	-0.195380	-0.739756
C36	C	-3.508517	0.304620	-0.239756
C37	C	-4.045601	-0.194629	-0.823708
C38	C	-3.545601	0.305371	-0.323708
C39	C	-4.092115	-0.193689	-0.929045
C40	C	-3.592115	0.306311	-0.429045
C41	C	-4.151462	0.071080	-0.280444
C42	C	-3.651462	0.571080	0.219556
C43	C	-4.056998	0.237440	-0.281365
C44	C	-3.556998	0.737440	0.218635
C45	C	-4.195600	-0.192028	-0.116382
C46	C	-3.695600	0.307972	0.383618
C47	C	-4.129198	-0.192937	-0.012998
C48	C	-3.629198	0.307063	0.487002
