data_functionalizedCrystal
_audit_creation_method	'MofGen! by Chris Wilmer'
_symmetry_space_group_name_H-M	'P1'
_symmetry_Int_Tables_number	1
_symmetry_cell_setting	triclinic
loop_
_symmetry_equiv_pos_as_xyz
  x,y,z
_cell_length_a	17.038272
_cell_length_b	19.188937
_cell_length_c	16.098538
_cell_angle_alpha	87.287428
_cell_angle_beta	92.930266
_cell_angle_gamma	87.129493
loop_
_atom_site_label
_atom_site_type_symbol
_atom_site_fract_x
_atom_site_fract_y
_atom_site_fract_z
O1	O	-1.040403	-0.148678	-0.069155
O2	O	-0.707069	0.184656	0.264178
O3	O	-0.373736	0.517989	0.597511
O4	O	-0.812780	-0.146270	-0.069180
O5	O	-0.479447	0.187064	0.264154
O6	O	-0.146114	0.520397	0.597487
O7	O	-0.933157	-0.046226	-0.069159
O8	O	-0.599824	0.287107	0.264174
O9	O	-0.266490	0.620440	0.597508
O10	O	-0.920026	-0.248721	-0.069176
O11	O	-0.586693	0.084613	0.264157
O12	O	-0.253359	0.417946	0.597491
O13	O	-0.926125	-0.052046	0.069353
O14	O	-0.592792	0.281287	0.402686
O15	O	-0.259459	0.614621	0.736019
O16	O	-0.805749	-0.152089	0.069332
O17	O	-0.472415	0.181244	0.402665
O18	O	-0.139082	0.514578	0.735999
O19	O	-1.033371	-0.154497	0.069356
O20	O	-0.700037	0.178836	0.402690
O21	O	-0.366704	0.512170	0.736023
Zn22	Zn	-0.918443	-0.154217	0.091336
Zn23	Zn	-0.585110	0.179116	0.424669
Zn24	Zn	-0.251777	0.512450	0.758003
Zn25	Zn	-0.927708	-0.146550	-0.091159
Zn26	Zn	-0.594375	0.186784	0.242174
Zn27	Zn	-0.261041	0.520117	0.575507
O28	O	-0.912994	-0.254540	0.069336
O29	O	-0.579661	0.078793	0.402669
O30	O	-0.246327	0.412127	0.736002
C31	C	-0.929215	-0.023099	0.000097
C32	C	-0.595882	0.310235	0.333430
C33	C	-0.262548	0.643568	0.666764
C34	C	-0.927936	0.054485	0.000097
C35	C	-0.594603	0.387818	0.333431
C36	C	-0.261269	0.721152	0.666764
C37	C	-0.780143	-0.146990	0.000073
C38	C	-0.446810	0.186343	0.333406
C39	C	-0.113477	0.519677	0.666740
C40	C	-0.693371	-0.140458	0.000064
C41	C	-0.360038	0.192875	0.333397
C42	C	-0.026704	0.526209	0.666731
C43	C	-0.915003	0.605139	0.075587
C44	C	-0.581670	0.938472	0.408920
C45	C	-0.248337	1.271805	0.742253
C46	C	-0.916196	0.532240	0.075591
C47	C	-0.582863	0.865573	0.408924
C48	C	-0.249530	1.198907	0.742257
C49	C	-0.920630	0.498955	0.000088
C50	C	-0.587297	0.832289	0.333422
C51	C	-0.253963	1.165622	0.666755
C52	C	-0.923850	0.538574	-0.075423
C53	C	-0.590517	0.871908	0.257910
C54	C	-0.257183	1.205241	0.591243
C55	C	-0.922649	0.611471	-0.075425
C56	C	-0.589316	0.944805	0.257908
C57	C	-0.255982	1.278138	0.591242
N58	N	-0.969850	0.389411	-0.056106
N59	N	-0.636517	0.722745	0.277228
N60	N	-0.303183	1.056078	0.610561
N61	N	-0.970992	0.320162	-0.056099
N62	N	-0.637659	0.653496	0.277234
N63	N	-0.304326	0.986829	0.610568
C64	C	-0.924247	0.279321	0.000089
C65	C	-0.590914	0.612654	0.333422
C66	C	-0.257581	0.945988	0.666755
N67	N	-0.876326	0.310345	0.056282
N68	N	-0.542992	0.643678	0.389616
N69	N	-0.209659	0.977011	0.722949
N70	N	-0.875187	0.379600	0.056278
N71	N	-0.541853	0.712934	0.389611
N72	N	-0.208520	1.046267	0.722945
C73	C	-0.921932	0.419911	0.000082
C74	C	-0.588599	0.753244	0.333415
C75	C	-0.255266	1.086578	0.666748
C76	C	-0.922315	0.160665	0.075600
C77	C	-0.588982	0.493998	0.408933
C78	C	-0.255649	0.827332	0.742266
C79	C	-0.923504	0.087765	0.075600
C80	C	-0.590171	0.421098	0.408934
C81	C	-0.256837	0.754431	0.742267
C82	C	-0.931166	0.094101	-0.075416
C83	C	-0.597832	0.427434	0.257918
C84	C	-0.264499	0.760768	0.591251
C85	C	-0.929969	0.167000	-0.075414
C86	C	-0.596636	0.500333	0.257919
C87	C	-0.263302	0.833666	0.591253
C88	C	-0.925548	0.200277	0.000096
C89	C	-0.592214	0.533611	0.333429
C90	C	-0.258881	0.866944	0.666763
C91	C	-1.066008	-0.153776	0.000102
C92	C	-0.732675	0.179557	0.333435
C93	C	-0.399341	0.512890	0.666768
C94	C	-1.152781	-0.160308	0.000105
C95	C	-0.819447	0.173025	0.333439
C96	C	-0.486114	0.506359	0.666772
C97	C	-0.643071	-0.200424	0.000060
C98	C	-0.309738	0.132909	0.333393
C99	C	0.023595	0.466242	0.666726
C100	C	-0.561539	-0.194284	0.000072
C101	C	-0.228206	0.139050	0.333405
C102	C	0.105128	0.472383	0.666738
C103	C	-0.530309	-0.128176	0.000082
C104	C	-0.196975	0.205157	0.333415
C105	C	0.136358	0.538491	0.666749
C106	C	-0.580615	-0.068205	0.000089
C107	C	-0.247282	0.265128	0.333422
C108	C	0.086052	0.598461	0.666756
C109	C	-0.662145	-0.074347	0.000083
C110	C	-0.328812	0.258986	0.333416
C111	C	0.004522	0.592320	0.666750
C112	C	-0.284617	-0.106479	0.000106
C113	C	0.048716	0.226854	0.333439
C114	C	0.382050	0.560188	0.666773
C115	C	-0.203080	-0.100342	0.000110
C116	C	0.130253	0.232991	0.333443
C117	C	0.463586	0.566325	0.666776
C118	C	-0.184010	-0.226421	0.000094
C119	C	0.149323	0.106912	0.333427
C120	C	0.482657	0.440246	0.666761
C121	C	-0.265543	-0.232557	0.000083
C122	C	0.067790	0.100777	0.333416
C123	C	0.401124	0.434110	0.666750
C124	C	-0.315842	-0.172586	0.000094
C125	C	0.017492	0.160747	0.333428
C126	C	0.350825	0.494081	0.666761
C127	C	-0.446970	-0.121898	0.000092
C128	C	-0.113637	0.211436	0.333425
C129	C	0.219696	0.544769	0.666758
C130	C	-0.399178	-0.178865	0.000091
C131	C	-0.065845	0.154468	0.333424
C132	C	0.267488	0.487801	0.666757
N133	N	-0.912126	-0.159450	0.215884
N134	N	-0.578793	0.173884	0.549217
N135	N	-0.245459	0.507217	0.882551
C136	C	-0.916939	0.722332	0.000081
C137	C	-0.583606	1.055666	0.333415
C138	C	-0.250273	1.388999	0.666748
C139	C	-0.918228	0.644749	0.000085
C140	C	-0.584894	0.978082	0.333418
C141	C	-0.251561	1.311416	0.666752
N142	N	-0.934031	-0.141312	-0.215707
N143	N	-0.600698	0.192022	0.117626
N144	N	-0.267365	0.525355	0.450959
C145	C	-0.963237	-0.117005	0.259478
C146	C	-0.629904	0.216329	0.592811
C147	C	-0.296571	0.549662	0.926145
C148	C	-0.958826	-0.120672	0.346666
C149	C	-0.625492	0.212661	0.679999
C150	C	-0.292159	0.545994	1.013333
C151	C	-0.903306	-0.166789	0.390259
C152	C	-0.569972	0.166544	0.723592
C153	C	-0.236639	0.499878	1.056926
C154	C	-0.852189	-0.209236	0.346659
C155	C	-0.518856	0.124098	0.679992
C156	C	-0.185522	0.457431	1.013326
C157	C	-0.856598	-0.205564	0.259472
C158	C	-0.523264	0.127769	0.592806
C159	C	-0.189931	0.461103	0.926139
C160	C	-0.887323	-0.180087	0.653506
C161	C	-0.553990	0.153247	0.986839
C162	C	-0.220657	0.486580	1.320173
C163	C	-0.882920	-0.183757	0.740699
C164	C	-0.549587	0.149577	1.074032
C165	C	-0.216253	0.482910	1.407366
C166	C	-0.989556	-0.095192	0.740700
C167	C	-0.656223	0.238141	1.074033
C168	C	-0.322890	0.571475	1.407367
C169	C	-0.993963	-0.091527	0.653512
C170	C	-0.660630	0.241806	0.986845
C171	C	-0.327297	0.575139	1.320178
C172	C	-0.942844	-0.133972	0.609919
C173	C	-0.609510	0.199362	0.943253
C174	C	-0.276177	0.532695	1.276586
C175	C	-0.898796	-0.170540	0.479379
C176	C	-0.565463	0.162793	0.812713
C177	C	-0.232130	0.496126	1.146046
C178	C	-0.947350	-0.130216	0.520801
C179	C	-0.614017	0.203117	0.854134
C180	C	-0.280683	0.536451	1.187467
H181	H	-0.913556	0.499982	0.137075
H182	H	-0.580223	0.833315	0.470408
H183	H	-0.246889	1.166649	0.803742
H184	H	-0.927457	0.511469	-0.136898
H185	H	-0.594124	0.844802	0.196436
H186	H	-0.260790	1.178136	0.529769
H187	H	-0.290965	-0.286388	0.000065
H188	H	0.042369	0.046945	0.333398
H189	H	0.375702	0.380279	0.666732
H190	H	-0.925274	0.643722	-0.136909
H191	H	-0.591940	0.977055	0.196424
H192	H	-0.258607	1.310389	0.529757
H193	H	-0.806979	-0.246782	0.382157
H194	H	-0.473646	0.086551	0.715491
H195	H	-0.140313	0.419884	1.048824
H196	H	-0.555180	-0.014379	0.000109
H197	H	-0.221847	0.318954	0.333443
H198	H	0.111486	0.652287	0.666776
N199	N	-1.044689	-0.049415	0.787716
N200	N	-0.711356	0.283919	1.121050
N201	N	-0.378022	0.617252	1.454383
H202	H	-1.033474	-0.058736	0.849563
H203	H	-0.700141	0.274597	1.182897
H204	H	-0.366807	0.607931	1.516230
H205	H	-1.036600	0.001288	0.772488
H206	H	-0.703267	0.334622	1.105821
H207	H	-0.369933	0.667955	1.439154
N208	N	-0.338861	-0.041800	0.000124
N209	N	-0.005528	0.291533	0.333457
N210	N	0.327806	0.624867	0.666790
H211	H	-0.306703	0.001009	0.000130
H212	H	0.026631	0.334342	0.333463
H213	H	0.359964	0.667676	0.666796
H214	H	-0.375708	-0.039438	-0.051223
H215	H	-0.042375	0.293895	0.282111
H216	H	0.290959	0.627229	0.615444
H217	H	-0.814976	-0.240126	0.223979
H218	H	-0.481643	0.093207	0.557312
H219	H	-0.148310	0.426540	0.890646
H220	H	-0.992552	-0.092665	0.485305
H221	H	-0.659218	0.240668	0.818638
H222	H	-0.325885	0.574002	1.151971
H223	H	-0.911402	0.632229	0.137073
H224	H	-0.578069	0.965562	0.470406
H225	H	-0.244735	1.298895	0.803740
N226	N	-0.920023	0.045038	0.157038
N227	N	-0.586690	0.378371	0.490372
N228	N	-0.253356	0.711705	0.823705
H229	H	-0.917043	0.077184	0.204869
H230	H	-0.583709	0.410517	0.538203
H231	H	-0.250376	0.743851	0.871536
H232	H	-0.968801	0.017435	0.160324
H233	H	-0.635468	0.350768	0.493657
H234	H	-0.302135	0.684101	0.826991
H235	H	-0.932600	0.199251	-0.136896
H236	H	-0.599267	0.532585	0.196437
H237	H	-0.265933	0.865918	0.529771
H238	H	-0.668492	-0.254256	0.000051
H239	H	-0.335159	0.079077	0.333384
H240	H	-0.001825	0.412410	0.666717
H241	H	-0.177656	-0.046506	0.000117
H242	H	0.155677	0.286827	0.333451
H243	H	0.489010	0.620160	0.666784
H244	H	-0.853592	-0.208091	0.514880
H245	H	-0.520259	0.125243	0.848213
H246	H	-0.186925	0.458576	1.181546
H247	H	-0.934766	0.067001	-0.136891
H248	H	-0.601433	0.400334	0.196442
H249	H	-0.268099	0.733668	0.529776
N250	N	-0.917543	0.196564	0.157037
N251	N	-0.584210	0.529897	0.490370
N252	N	-0.250877	0.863231	0.823703
H253	H	-0.915675	0.160406	0.204869
H254	H	-0.582342	0.493739	0.538203
H255	H	-0.249009	0.827072	0.871536
H256	H	-0.868433	0.223893	0.160321
H257	H	-0.535100	0.557227	0.493655
H258	H	-0.201767	0.890560	0.826988
H259	H	-0.520588	-0.243115	0.000067
H260	H	-0.187254	0.090219	0.333401
H261	H	0.146079	0.423552	0.666734
H262	H	-0.421532	-0.068073	0.000124
H263	H	-0.088199	0.265260	0.333457
H264	H	0.245135	0.598593	0.666790
H265	H	-1.039172	-0.053976	0.618020
H266	H	-0.705839	0.279358	0.951353
H267	H	-0.372505	0.612691	1.284687
N268	N	-0.129761	-0.291100	0.000083
N269	N	0.203573	0.042233	0.333417
N270	N	0.536906	0.375566	0.666750
H271	H	-0.073372	-0.277182	0.000089
H272	H	0.259961	0.056152	0.333423
H273	H	0.593294	0.389485	0.666756
H274	H	-0.137249	-0.321859	0.051428
H275	H	0.196084	0.011475	0.384762
H276	H	0.529417	0.344808	0.718095
H277	H	-0.703099	-0.025516	0.000086
H278	H	-0.369766	0.307818	0.333419
H279	H	-0.036433	0.641151	0.666753
N280	N	-0.432852	-0.250168	0.000078
N281	N	-0.099519	0.083166	0.333412
N282	N	0.233814	0.416499	0.666745
H283	H	-0.463656	-0.257686	0.051421
H284	H	-0.130323	0.075648	0.384755
H285	H	0.203011	0.408981	0.718088
H286	H	-0.468817	-0.253316	-0.051305
H287	H	-0.135483	0.080017	0.282028
H288	H	0.197850	0.413351	0.615361
H289	H	-1.008451	-0.079455	0.223990
H290	H	-0.675117	0.253879	0.557324
H291	H	-0.341784	0.587212	0.890657
H292	H	-1.000444	-0.086110	0.382160
H293	H	-0.667110	0.247224	0.715493
H294	H	-0.333777	0.580557	1.048826
H295	H	-0.845701	-0.214648	0.618020
H296	H	-0.512368	0.118685	0.951353
H297	H	-0.179035	0.452019	1.284687
N298	N	-0.823043	-0.233506	0.787720
N299	N	-0.489709	0.099827	1.121053
N300	N	-0.156376	0.433161	1.454387
H301	H	-0.791328	-0.259839	0.746876
H302	H	-0.457995	0.073495	1.080209
H303	H	-0.124662	0.406828	1.413542
H304	H	-0.786752	-0.206238	0.823913
H305	H	-0.453419	0.127095	1.157246
H306	H	-0.120086	0.460428	1.490580
