data_functionalizedCrystal
_audit_creation_method	'MofGen! by Chris Wilmer'
_symmetry_space_group_name_H-M	'P1'
_symmetry_Int_Tables_number	1
_symmetry_cell_setting	triclinic
loop_
_symmetry_equiv_pos_as_xyz
  x,y,z
_cell_length_a	6.817900
_cell_length_b	10.943925
_cell_length_c	10.943567
_cell_angle_alpha	91.773901
_cell_angle_beta	108.837784
_cell_angle_gamma	108.844289
loop_
_atom_site_label
_atom_site_type_symbol
_atom_site_fract_x
_atom_site_fract_y
_atom_site_fract_z
V1	V	-4.115523	-0.178604	-0.402534
O2	O	-4.073193	0.008612	-0.394889
O3	O	-4.093509	-0.354170	-0.399764
O4	O	-4.093481	-0.175844	-0.578101
O5	O	-4.073222	-0.170949	-0.215318
V6	V	-4.592316	-0.156212	-0.380143
O7	O	-4.391543	-0.227722	-0.451649
O8	O	-4.766493	-0.107094	-0.331028
O9	O	-4.391123	0.019354	-0.382914
O10	O	-4.752042	-0.343429	-0.387788
O11	O	-4.752014	-0.163868	-0.567360
O12	O	-4.391151	-0.158973	-0.204577
C13	C	-3.944076	-0.396970	-0.393409
C14	C	-4.007539	-0.540498	-0.392314
C15	C	-3.944038	-0.169495	-0.620894
C16	C	-4.007475	-0.168400	-0.764421
C17	C	-4.274906	-0.717230	-0.397746
C18	C	-4.085576	-0.611239	-0.288089
C19	C	-4.196050	-0.644577	-0.501936
C20	C	-3.931133	-0.690212	-0.280610
C21	C	-4.041688	-0.723573	-0.494553
C22	C	-3.852221	-0.617611	-0.384865
C23	C	-3.890280	-0.160344	-0.927418
C24	C	-3.893107	-0.057428	-0.828271
C25	C	-4.003729	-0.271278	-0.861651
C26	C	-4.123354	-0.063395	-0.920978
C27	C	-4.234003	-0.277341	-0.954380
C28	C	-4.236973	-0.174403	-0.855273
C29	C	-4.203899	0.062147	-0.389265
C30	C	-4.119675	0.205673	-0.390368
C31	C	-4.203935	-0.165326	-0.161776
C32	C	-4.119736	-0.166414	-0.018248
H33	H	-4.454110	-0.760725	-0.403044
H34	H	-4.378655	-0.370308	-1.009150
F35	F	-3.699482	-0.152391	-0.969093
F36	F	-3.703953	0.064084	-0.756730
H37	H	-4.174389	0.024565	-0.947306
H38	H	-3.952456	-0.359124	-0.835127
H39	H	-4.023880	-0.772514	-0.581842
F40	F	-4.427979	-0.182153	-0.813885
H41	H	-4.103469	-0.562328	-0.200807
F42	F	-3.785507	-0.717058	-0.158215
H43	H	-3.672903	-0.574325	-0.379394
F44	F	-4.341631	-0.617496	-0.624199
