data_functionalizedCrystal
_audit_creation_method	'MofGen! by Chris Wilmer'
_symmetry_space_group_name_H-M	'P1'
_symmetry_Int_Tables_number	1
_symmetry_cell_setting	triclinic
loop_
_symmetry_equiv_pos_as_xyz
  x,y,z
_cell_length_a	17.077404
_cell_length_b	17.077402
_cell_length_c	17.077404
_cell_angle_alpha	90.011995
_cell_angle_beta	90.003452
_cell_angle_gamma	90.023108
loop_
_atom_site_label
_atom_site_type_symbol
_atom_site_fract_x
_atom_site_fract_y
_atom_site_fract_z
Zn1	Zn	1.199930	-0.312641	0.443835
Zn2	Zn	1.533264	0.020692	0.777169
Zn3	Zn	1.866597	0.354025	1.110502
Zn4	Zn	1.199874	-0.443875	0.312566
Zn5	Zn	1.533207	-0.110542	0.645900
Zn6	Zn	1.866541	0.222791	0.979233
Zn7	Zn	1.068699	-0.312628	0.312583
Zn8	Zn	1.402032	0.020705	0.645917
Zn9	Zn	1.735366	0.354039	0.979250
Zn10	Zn	1.068630	-0.443870	0.443790
Zn11	Zn	1.401963	-0.110536	0.777123
Zn12	Zn	1.735297	0.222797	1.110457
O13	O	1.134283	-0.378254	0.378194
O14	O	1.467617	-0.044920	0.711527
O15	O	1.800950	0.288413	1.044860
O16	O	1.309770	-0.330058	0.426434
O17	O	1.643103	0.003276	0.759767
O18	O	1.976436	0.336609	1.093101
O19	O	1.182479	-0.426462	0.202722
O20	O	1.515812	-0.093129	0.536055
O21	O	1.849145	0.240205	0.869388
O22	O	1.086159	-0.202783	0.330020
O23	O	1.419493	0.130550	0.663354
O24	O	1.752826	0.463884	0.996687
O25	O	1.309728	-0.426475	0.329991
O26	O	1.643062	-0.093142	0.663325
O27	O	1.976395	0.240192	0.996658
O28	O	1.182574	-0.202793	0.426451
O29	O	1.515908	0.130541	0.759784
O30	O	1.849241	0.463874	1.093117
O31	O	1.086105	-0.330035	0.202734
O32	O	1.419438	0.003298	0.536068
O33	O	1.752772	0.336631	0.869401
O34	O	0.958843	-0.330030	0.329976
O35	O	1.292176	0.003304	0.663310
O36	O	1.625509	0.336637	0.996643
O37	O	1.086042	-0.426465	0.553643
O38	O	1.419375	-0.093132	0.886976
O39	O	1.752709	0.240202	1.220310
O40	O	0.958792	-0.426452	0.426373
O41	O	1.292126	-0.093119	0.759706
O42	O	1.625459	0.240215	1.093040
O43	O	1.182508	-0.330052	0.553676
O44	O	1.515841	0.003281	0.887010
O45	O	1.849174	0.336615	1.220343
O46	O	1.182412	-0.553722	0.329947
O47	O	1.515745	-0.220388	0.663281
O48	O	1.849079	0.112945	0.996614
O49	O	1.085988	-0.553717	0.426357
O50	O	1.419321	-0.220384	0.759690
O51	O	1.752654	0.112949	1.093023
C52	C	0.930335	-0.378239	0.378172
C53	C	1.263669	-0.044906	0.711505
C54	C	1.597002	0.288427	1.044839
C55	C	0.843086	-0.378252	0.378181
C56	C	1.176419	-0.044919	0.711515
C57	C	1.509752	0.288415	1.044848
C58	C	1.134208	-0.582201	0.378162
C59	C	1.467541	-0.248868	0.711496
C60	C	1.800874	0.084465	1.044829
C61	C	1.134247	-0.669451	0.378175
C62	C	1.467580	-0.336118	0.711509
C63	C	1.800914	-0.002785	1.044842
C64	C	0.802090	-0.428535	0.428295
C65	C	1.135423	-0.095202	0.761628
C66	C	1.468756	0.238132	1.094961
C67	C	0.720109	-0.428537	0.428307
C68	C	1.053443	-0.095203	0.761641
C69	C	1.386776	0.238130	1.094974
C70	C	0.679126	-0.378259	0.378202
C71	C	1.012460	-0.044926	0.711535
C72	C	1.345793	0.288408	1.044869
C73	C	0.720128	-0.327970	0.328086
C74	C	1.053461	0.005363	0.661420
C75	C	1.386795	0.338696	0.994753
C76	C	0.802107	-0.327965	0.328078
C77	C	1.135440	0.005368	0.661412
C78	C	1.468774	0.338701	0.994745
C79	C	0.549258	-0.327986	0.328105
C80	C	0.882591	0.005347	0.661439
C81	C	1.215925	0.338681	0.994772
C82	C	0.467273	-0.327992	0.328112
C83	C	0.800607	0.005342	0.661445
C84	C	1.133940	0.338675	0.994779
C85	C	0.467260	-0.428557	0.428334
C86	C	0.800594	-0.095224	0.761668
C87	C	1.133927	0.238109	1.095001
C88	C	0.549239	-0.428552	0.428326
C89	C	0.882573	-0.095219	0.761660
C90	C	1.215906	0.238114	1.094993
C91	C	0.590235	-0.378265	0.378209
C92	C	0.923569	-0.044931	0.711543
C93	C	1.256902	0.288402	1.044876
C94	C	1.184506	-0.710418	0.328029
C95	C	1.517840	-0.377084	0.661362
C96	C	1.851173	-0.043751	0.994695
C97	C	1.184545	-0.792398	0.328049
C98	C	1.517878	-0.459065	0.661382
C99	C	1.851211	-0.125731	0.994716
C100	C	1.134319	-0.833411	0.378212
C101	C	1.467653	-0.500077	0.711545
C102	C	1.800986	-0.166744	1.044879
C103	C	1.084058	-0.792439	0.428364
C104	C	1.417391	-0.459105	0.761697
C105	C	1.750724	-0.125772	1.095031
C106	C	1.084024	-0.710460	0.428347
C107	C	1.417357	-0.377126	0.761681
C108	C	1.750690	-0.043793	1.095014
C109	C	1.084130	-0.963309	0.428394
C110	C	1.417464	-0.629975	0.761727
C111	C	1.750797	-0.296642	1.095060
C112	C	1.084163	-1.045293	0.428410
C113	C	1.417496	-0.711960	0.761743
C114	C	1.750829	-0.378626	1.095076
C115	C	1.184651	-1.045247	0.328095
C116	C	1.517985	-0.711914	0.661429
C117	C	1.851318	-0.378580	0.994762
C118	C	1.184618	-0.963268	0.328079
C119	C	1.517951	-0.629935	0.661412
C120	C	1.851284	-0.296601	0.994745
C121	C	1.134355	-0.922302	0.378230
C122	C	1.467688	-0.588968	0.711563
C123	C	1.801021	-0.255635	1.044896
C124	C	1.339028	-0.378268	0.378216
C125	C	1.672361	-0.044935	0.711549
C126	C	2.005694	0.288398	1.044883
C127	C	1.426277	-0.378275	0.378225
C128	C	1.759611	-0.044941	0.711559
C129	C	2.092944	0.288392	1.044892
C130	C	1.134273	-0.378259	0.582938
C131	C	1.467607	-0.044926	0.916271
C132	C	1.800940	0.288407	1.249605
C133	C	1.134269	-0.378262	0.670188
C134	C	1.467603	-0.044928	1.003521
C135	C	1.800936	0.288405	1.336854
C136	C	1.134381	-0.173509	0.378242
C137	C	1.467714	0.159824	0.711576
C138	C	1.801047	0.493157	1.044909
C139	C	1.134422	-0.086259	0.378263
C140	C	1.467756	0.247074	0.711596
C141	C	1.801089	0.580407	1.044930
C142	C	1.184506	-0.328062	1.046021
C143	C	1.517839	0.005272	1.379354
C144	C	1.851173	0.338605	1.712687
C145	C	1.184507	-0.328065	0.964040
C146	C	1.517841	0.005268	1.297374
C147	C	1.851174	0.338601	1.630707
C148	C	1.134280	-0.378260	0.923037
C149	C	1.467613	-0.044927	1.256370
C150	C	1.800947	0.288406	1.589703
C151	C	1.084054	-0.428461	0.964018
C152	C	1.417387	-0.095127	1.297351
C153	C	1.750720	0.238206	1.630684
C154	C	1.084057	-0.428460	1.045997
C155	C	1.417390	-0.095127	1.379330
C156	C	1.750723	0.238206	1.712663
C157	C	1.084049	-0.428457	0.793148
C158	C	1.417383	-0.095123	1.126481
C159	C	1.750716	0.238210	1.459814
C160	C	1.084045	-0.428456	0.711163
C161	C	1.417378	-0.095123	1.044496
C162	C	1.750712	0.238210	1.377830
C163	C	1.184500	-0.328062	0.711191
C164	C	1.517833	0.005271	1.044525
C165	C	1.851167	0.338605	1.377858
C166	C	1.184503	-0.328061	0.793170
C167	C	1.517836	0.005272	1.126504
C168	C	1.851170	0.338605	1.459837
C169	C	1.134275	-0.378261	0.834146
C170	C	1.467609	-0.044927	1.167479
C171	C	1.800942	0.288406	1.500812
C172	C	1.134285	-0.378264	1.174246
C173	C	1.467618	-0.044930	1.507579
C174	C	1.800952	0.288403	1.840913
C175	C	1.134282	-0.378256	1.086996
C176	C	1.467615	-0.044923	1.420329
C177	C	1.800948	0.288410	1.753663
H178	H	0.835452	-0.469480	0.469094
H179	H	1.168786	-0.136147	0.802427
H180	H	1.502119	0.197187	1.135761
Br181	Br	1.015890	-0.496587	0.908371
Br182	Br	1.349223	-0.163254	1.241704
Br183	Br	1.682557	0.170080	1.575038
Br184	Br	1.252666	-0.654765	0.259939
Br185	Br	1.586000	-0.321432	0.593272
Br186	Br	1.919333	0.011901	0.926606
Br187	Br	1.252674	-0.259943	0.908434
Br188	Br	1.586008	0.073390	1.241767
Br189	Br	1.919341	0.406723	1.575100
Br190	Br	1.252683	-0.259952	0.848818
Br191	Br	1.586016	0.073381	1.182152
Br192	Br	1.919349	0.406715	1.515485
H193	H	1.043203	-0.929956	0.469235
H194	H	1.376537	-0.596623	0.802568
H195	H	1.709870	-0.263290	1.135902
Br196	Br	1.252762	-0.847992	0.259995
Br197	Br	1.586095	-0.514659	0.593328
Br198	Br	1.919429	-0.181326	0.926661
H199	H	0.582605	-0.469497	0.469122
H200	H	0.915939	-0.136164	0.802455
H201	H	1.249272	0.197169	1.135789
Br202	Br	1.252689	-0.259957	0.655583
Br203	Br	1.586023	0.073376	0.988917
Br204	Br	1.919356	0.406710	1.322250
Br205	Br	0.604895	-0.259736	0.260091
Br206	Br	0.938228	0.073597	0.593424
Br207	Br	1.271562	0.406931	0.926757
H208	H	0.433877	-0.469501	0.469143
H209	H	0.767211	-0.136168	0.802477
H210	H	1.100544	0.197166	1.135810
Br211	Br	1.252780	-0.907608	0.259998
Br212	Br	1.586113	-0.574275	0.593331
Br213	Br	1.919447	-0.240941	0.926664
Br214	Br	0.664509	-0.259728	0.260093
Br215	Br	0.997842	0.073606	0.593426
Br216	Br	1.331176	0.406939	0.926759
Br217	Br	1.015900	-0.848098	0.496450
Br218	Br	1.349233	-0.514764	0.829784
Br219	Br	1.682566	-0.181431	1.163117
H220	H	0.835485	-0.287016	0.287275
H221	H	1.168818	0.046318	0.620608
H222	H	1.502151	0.379651	0.953942
H223	H	1.225580	-1.078606	0.287263
H224	H	1.558913	-0.745272	0.620596
H225	H	1.892247	-0.411939	0.953930
H226	H	1.043279	-1.078683	0.469271
H227	H	1.376613	-0.745350	0.802605
H228	H	1.709946	-0.412017	1.135938
H229	H	1.043098	-0.677106	0.469183
H230	H	1.376432	-0.343772	0.802516
H231	H	1.709765	-0.010439	1.135849
Br232	Br	1.252665	-0.259925	1.101661
Br233	Br	1.585998	0.073408	1.434994
Br234	Br	1.919331	0.406742	1.768327
H235	H	1.043127	-0.469312	0.677780
H236	H	1.376461	-0.135978	1.011113
H237	H	1.709794	0.197355	1.344447
Br238	Br	0.411653	-0.259763	0.260105
Br239	Br	0.744987	0.073570	0.593439
Br240	Br	1.078320	0.406904	0.926772
Br241	Br	1.015884	-0.496586	0.848757
Br242	Br	1.349217	-0.163253	1.182090
Br243	Br	1.682550	0.170080	1.515424
H244	H	0.686734	-0.469483	0.469114
H245	H	1.020067	-0.136150	0.802447
H246	H	1.353401	0.197184	1.135781
Br247	Br	1.015897	-0.496588	1.101607
Br248	Br	1.349230	-0.163255	1.434941
Br249	Br	1.682563	0.170078	1.768274
