data_functionalizedCrystal
_audit_creation_method	'MofGen! by Chris Wilmer'
_symmetry_space_group_name_H-M	'P1'
_symmetry_Int_Tables_number	1
_symmetry_cell_setting	triclinic
loop_
_symmetry_equiv_pos_as_xyz
  x,y,z
_cell_length_a	18.101398
_cell_length_b	25.639239
_cell_length_c	18.101390
_cell_angle_alpha	89.965056
_cell_angle_beta	89.975319
_cell_angle_gamma	90.033952
loop_
_atom_site_label
_atom_site_type_symbol
_atom_site_fract_x
_atom_site_fract_y
_atom_site_fract_z
Zn1	Zn	1.132085	-0.208197	-0.418828
Zn2	Zn	1.131963	-0.295640	-0.294982
Zn3	Zn	1.008243	-0.208214	-0.294989
Zn4	Zn	1.008178	-0.295596	-0.418771
O5	O	1.070117	-0.251912	-0.356893
O6	O	1.235701	-0.219808	-0.402421
O7	O	1.115528	-0.284069	-0.191350
O8	O	1.024749	-0.135046	-0.311444
O9	O	1.235612	-0.284052	-0.311432
O10	O	1.115735	-0.135034	-0.402428
O11	O	1.024631	-0.219836	-0.191356
O12	O	0.904601	-0.219793	-0.311388
O13	O	1.024638	-0.283977	-0.522411
O14	O	0.904554	-0.283993	-0.402330
O15	O	1.115672	-0.219765	-0.522454
O16	O	1.115465	-0.368800	-0.311376
O17	O	1.024520	-0.368767	-0.402323
C18	C	0.877707	-0.251890	-0.356854
C19	C	0.795393	-0.251894	-0.356855
C20	C	0.496302	-0.251927	-0.356917
C21	C	0.527632	-0.211332	-0.299978
C22	C	0.613250	-0.211441	-0.299735
C23	C	0.644684	-0.251910	-0.356886
C24	C	0.613555	-0.306988	-0.335559
C25	C	0.527910	-0.306762	-0.335163
C26	C	0.527919	-0.237922	-0.435317
C27	C	0.613570	-0.236696	-0.434890
C28	C	0.728544	-0.251904	-0.356870
C29	C	0.412442	-0.251936	-0.356932
C30	C	1.069993	-0.387754	-0.356859
C31	C	1.070007	-0.445868	-0.356869
C32	C	1.117596	-0.806236	-0.309617
C33	C	1.117624	-0.860840	-0.309627
O34	O	1.157957	-0.889081	-0.269415
N35	N	1.070247	-0.888151	-0.356942
C36	C	1.022844	-0.860854	-0.404255
O37	O	0.982549	-0.889098	-0.444501
C38	C	1.022819	-0.806251	-0.404248
C39	C	1.070194	-0.778943	-0.356925
C40	C	1.164967	-0.778928	-0.262299
C41	C	1.164937	-0.724327	-0.262288
C42	C	1.117536	-0.697035	-0.309596
C43	C	1.070164	-0.724343	-0.356914
C44	C	0.975420	-0.778955	-0.451564
C45	C	0.975400	-0.724348	-0.451554
C46	C	1.022775	-0.697041	-0.404231
C47	C	1.022733	-0.642449	-0.404212
N48	N	1.070110	-0.615139	-0.356897
C49	C	1.117511	-0.642431	-0.309589
C50	C	1.022900	-0.975525	-0.404266
C51	C	1.022920	-1.030127	-0.404270
C52	C	1.117701	-1.030109	-0.309643
C53	C	1.117677	-0.975506	-0.309636
C54	C	1.070277	-0.948214	-0.356952
C55	C	1.117445	-0.527766	-0.309570
C56	C	1.117408	-0.473161	-0.309561
C57	C	1.022630	-0.473184	-0.404190
C58	C	1.022663	-0.527784	-0.404197
C59	C	1.070076	-0.555074	-0.356884
O60	O	0.982424	-0.614174	-0.444406
O61	O	1.157806	-0.614181	-0.269357
C62	C	1.263279	-0.251933	-0.356932
C63	C	1.345593	-0.251943	-0.356949
C64	C	1.070161	-0.251864	-0.550055
C65	C	1.070180	-0.251844	-0.632369
C66	C	1.070262	-0.115539	-0.356943
C67	C	1.070324	-0.057425	-0.356964
C68	C	1.070220	-0.251811	-0.931460
C69	C	1.127684	-0.211553	-0.900161
C70	C	1.127505	-0.211403	-0.814543
C71	C	1.070201	-0.251827	-0.783077
C72	C	0.992187	-0.236853	-0.814145
C73	C	0.992531	-0.236551	-0.899790
C74	C	1.090082	-0.307147	-0.899871
C75	C	1.091794	-0.306865	-0.814221
C76	C	1.070185	-0.251837	-0.699218
C77	C	1.070230	-0.251800	-1.015320
C78	C	1.070116	-0.251921	-0.164482
C79	C	1.070241	-0.251794	-0.082169
H80	H	0.506355	-0.198458	-0.454708
F81	F	1.167833	-0.444101	-0.259191
F82	F	1.110321	-0.157822	-0.787781
F83	F	0.641540	-0.322781	-0.261453
H84	H	0.507069	-0.170365	-0.313200
H85	H	1.048231	-0.337143	-0.920116
H86	H	1.156055	-0.549979	-0.271045
H87	H	0.506081	-0.220486	-0.242223
H88	H	1.203516	-0.702096	-0.223756
H89	H	0.507896	-0.318638	-0.277849
H90	H	0.984335	-1.052357	-0.442798
F91	F	0.500815	-0.347636	-0.387001
H92	H	0.633922	-0.196165	-0.450971
H93	H	0.634971	-0.264108	-0.479587
F94	F	1.041061	-0.348179	-0.786227
H95	H	0.975041	-0.196852	-0.792707
H96	H	0.633914	-0.338044	-0.375733
F97	F	0.640764	-0.158057	-0.317208
H98	H	0.507657	-0.267490	-0.477742
H99	H	0.948210	-0.265272	-0.793760
H100	H	0.984034	-0.450953	-0.442706
F101	F	0.970493	-0.183686	-0.925923
H102	H	0.948260	-0.264597	-0.920492
H103	H	1.145972	-0.320781	-0.921520
H104	H	1.203571	-0.801144	-0.223775
H105	H	1.156254	-0.953275	-0.271102
F106	F	0.972441	-0.946483	-0.454624
F107	F	0.639985	-0.223540	-0.223802
H108	H	1.149206	-0.318156	-0.793916
H109	H	1.156301	-1.052341	-0.271125
H110	H	1.114704	-0.170788	-0.921700
F111	F	0.925003	-0.808007	-0.501939
F112	F	1.203547	-0.223656	-0.927098
H113	H	0.936802	-0.702130	-0.490086
H114	H	0.984089	-0.550019	-0.442733
H115	H	1.185355	-0.220781	-0.793540
