data_functionalizedCrystal
_audit_creation_method	'MofGen! by Chris Wilmer'
_symmetry_space_group_name_H-M	'P1'
_symmetry_Int_Tables_number	1
_symmetry_cell_setting	triclinic
loop_
_symmetry_equiv_pos_as_xyz
  x,y,z
_cell_length_a	27.732064
_cell_length_b	10.654558
_cell_length_c	9.130313
_cell_angle_alpha	89.995286
_cell_angle_beta	90.004236
_cell_angle_gamma	83.568825
loop_
_atom_site_label
_atom_site_type_symbol
_atom_site_fract_x
_atom_site_fract_y
_atom_site_fract_z
O1	O	0.641854	0.149517	-0.121535
O2	O	0.501203	0.172214	-0.121595
O3	O	0.574760	-0.022008	-0.121558
O4	O	0.568297	0.343739	-0.121573
O5	O	0.574756	-0.022018	0.122041
O6	O	0.501198	0.172204	0.122004
O7	O	0.641849	0.149507	0.122063
Cu8	Cu	0.571523	0.160855	0.144276
Cu9	Cu	0.571529	0.160866	-0.143808
O10	O	0.568292	0.343730	0.122026
C11	C	0.483191	0.171730	0.000197
C12	C	0.429528	0.170285	0.000174
C13	C	0.051677	0.045678	0.000262
C14	C	0.253371	0.050993	0.000224
O15	O	0.284020	-0.045699	0.000283
N16	N	0.273217	0.166164	0.000213
C17	C	0.242636	0.280013	0.000221
O18	O	0.264144	0.378094	0.000225
C19	C	0.040944	0.274696	0.000269
C20	C	0.021100	0.159518	0.000266
C21	C	0.031834	-0.069491	0.000261
C22	C	-0.018587	-0.070819	0.000262
C23	C	-0.049163	0.043022	0.000266
C24	C	-0.029320	0.158191	0.000267
C25	C	0.010364	0.388544	0.000288
C26	C	-0.040062	0.387205	0.000304
C27	C	-0.059905	0.272027	0.000300
C28	C	-0.110317	0.270704	0.000273
N29	N	-0.130163	0.155533	0.000284
C30	C	-0.099586	0.041693	0.000280
C31	C	0.348528	0.282796	0.000192
C32	C	0.398951	0.284126	0.000177
C33	C	0.409682	0.055106	0.000183
C34	C	0.359258	0.053777	0.000188
C35	C	0.328682	0.167626	0.000203
C36	C	-0.205473	0.038913	0.000283
C37	C	-0.255898	0.037595	0.000278
C38	C	-0.266625	0.266615	0.000280
C39	C	-0.216205	0.267933	0.000276
C40	C	-0.185629	0.154072	0.000283
O41	O	-0.140995	0.367344	0.000230
O42	O	-0.121104	-0.056375	0.000308
C43	C	0.102098	0.047005	0.000261
C44	C	0.121941	0.162174	0.000263
C45	C	0.091364	0.276014	0.000266
C46	C	0.172364	0.163503	0.000248
C47	C	0.202941	0.049662	0.000244
C48	C	0.183095	-0.065508	0.000256
C49	C	0.132675	-0.066836	0.000257
C50	C	0.111210	0.391185	0.000255
C51	C	0.161631	0.392503	0.000252
C52	C	0.192208	0.278662	0.000248
C53	C	0.574282	-0.068791	0.000240
C54	C	0.572860	-0.208174	0.000235
C55	C	0.659861	0.149992	0.000268
C56	C	0.713525	0.151436	0.000281
C57	C	0.572188	-0.273665	0.133018
C58	C	0.570856	-0.404632	0.133012
C59	C	0.570865	-0.404605	-0.132573
C60	C	0.572201	-0.273642	-0.132565
C61	C	0.572847	-0.208198	0.265818
C62	C	0.572175	-0.273688	0.398612
C63	C	0.570843	-0.404655	0.398606
C64	C	0.570183	-0.470131	0.265805
C65	C	0.568770	0.390513	0.000225
C66	C	0.570192	0.529896	0.000220
N67	N	0.571523	0.160846	0.346899
N68	N	0.571533	0.160865	-0.346431
C69	C	0.541963	0.085221	0.576925
C70	C	0.541959	0.085208	0.423588
C71	C	0.601097	0.236493	0.423554
C72	C	0.601103	0.236499	0.576888
C73	C	0.512393	0.009587	0.653606
C74	C	0.482820	-0.066062	0.576962
C75	C	0.482816	-0.066075	0.423625
C76	C	0.512385	0.009561	0.346933
H77	H	0.434586	-0.037588	0.000175
H78	H	0.512382	0.009537	0.222076
H79	H	-0.200048	0.361721	0.000277
C80	C	0.574314	-0.064132	0.265837
N81	N	0.575419	0.044378	0.265850
H82	H	0.625181	0.298096	0.639293
H83	H	0.572748	-0.220318	-0.240689
C84	C	0.420772	0.410830	0.000169
N85	N	0.437206	0.506269	0.000174
H86	H	0.323636	0.375511	0.000203
C87	C	-0.300269	0.391834	0.000293
N88	N	-0.325611	0.486149	0.000317
C89	C	0.568719	-0.614200	0.265806
N90	N	0.567614	-0.722711	0.265809
C91	C	0.570134	-0.476632	-0.278643
N92	N	0.569581	-0.530882	-0.388666
C93	C	0.450296	-0.149259	0.661326
N94	N	0.425799	-0.211923	0.724867
C95	C	0.633619	0.319690	0.339186
N96	N	0.658115	0.382358	0.275641
C97	C	0.183452	0.519217	0.000261
N98	N	0.199886	0.614655	0.000285
H99	H	0.458739	-0.127681	0.361225
C100	C	0.512395	0.009594	0.822280
N101	N	0.512397	0.009601	0.949325
C102	C	-0.277722	-0.089114	0.000287
N103	N	-0.294158	-0.184550	0.000302
C104	C	0.572901	-0.201662	0.544684
N105	N	0.573448	-0.147414	0.654709
C106	C	-0.073694	0.512451	0.000316
N107	N	-0.099024	0.606787	0.000321
H108	H	0.570300	-0.457976	0.506733
H109	H	-0.034738	-0.164608	0.000265
C110	C	-0.171847	-0.086340	0.000278
N111	N	-0.146521	-0.180682	0.000264
H112	H	0.086319	0.483890	0.000260
H113	H	0.056725	-0.162199	0.000262
H114	H	0.026511	0.482334	0.000284
C115	C	0.337436	-0.072926	0.000201
N116	N	0.321002	-0.168364	0.000217
H117	H	0.116523	-0.160625	0.000255
H118	H	0.208000	-0.158201	0.000244
