data_functionalizedCrystal
_audit_creation_method	'MofGen! by Chris Wilmer'
_symmetry_space_group_name_H-M	'P1'
_symmetry_Int_Tables_number	1
_symmetry_cell_setting	triclinic
loop_
_symmetry_equiv_pos_as_xyz
  x,y,z
_cell_length_a	13.033291
_cell_length_b	13.031981
_cell_length_c	21.395355
_cell_angle_alpha	82.800183
_cell_angle_beta	82.784784
_cell_angle_gamma	103.320130
loop_
_atom_site_label
_atom_site_type_symbol
_atom_site_fract_x
_atom_site_fract_y
_atom_site_fract_z
Zn1	Zn	1.570278	-0.217007	-0.457506
Zn2	Zn	2.070278	0.282993	0.042494
Zn3	Zn	1.547607	-0.394638	-0.337468
Zn4	Zn	2.047607	0.105362	0.162532
Zn5	Zn	1.392634	-0.239544	-0.337476
Zn6	Zn	1.892634	0.260456	0.162524
Zn7	Zn	1.370079	-0.417134	-0.426953
Zn8	Zn	1.870079	0.082866	0.073047
O9	O	1.470150	-0.317081	-0.389851
O10	O	1.970150	0.182919	0.110149
O11	O	1.715912	-0.221724	-0.454366
O12	O	2.215912	0.278276	0.045634
O13	O	1.527001	-0.374082	-0.249786
O14	O	2.027001	0.125918	0.250214
O15	O	1.435125	-0.087894	-0.366188
O16	O	1.935125	0.412106	0.133812
O17	O	1.699256	-0.352229	-0.366174
O18	O	2.199256	0.147771	0.133826
O19	O	1.565640	-0.071336	-0.454374
O20	O	2.065640	0.428664	0.045626
O21	O	1.413142	-0.260135	-0.249792
O22	O	1.913142	0.239865	0.250208
O23	O	1.241001	-0.281948	-0.336562
O24	O	1.741001	0.218052	0.163438
O25	O	1.396685	-0.390569	-0.518689
O26	O	1.896685	0.109431	-0.018689
O27	O	1.224430	-0.412422	-0.402300
O28	O	1.724430	0.087578	0.097700
O29	O	1.543770	-0.243537	-0.541136
O30	O	2.043770	0.256463	-0.041136
O31	O	1.505131	-0.546284	-0.336548
O32	O	2.005131	-0.046284	0.163452
O33	O	1.374702	-0.562811	-0.402293
O34	O	1.874702	-0.062811	0.097707
C35	C	1.194175	-0.352073	-0.366117
C36	C	1.694175	0.147927	0.133883
C37	C	1.076108	-0.367068	-0.355976
C38	C	1.576108	0.132932	0.144024
C39	C	1.435038	-0.593090	-0.366120
C40	C	1.935038	-0.093090	0.133880
C41	C	1.420114	-0.711155	-0.355998
C42	C	1.920114	-0.211155	0.144002
C43	C	0.909675	-0.324770	-0.384666
C44	C	1.409675	0.175230	0.115334
C45	C	1.031702	-0.309274	-0.395146
C46	C	1.531702	0.190726	0.104854
C47	C	1.477995	-0.755522	-0.395151
C48	C	1.977995	-0.255522	0.104849
C49	C	1.462572	-0.877548	-0.384690
C50	C	1.962572	-0.377548	0.115310
C51	C	1.747202	-0.281953	-0.413677
C52	C	2.247202	0.218047	0.086323
C53	C	1.865265	-0.266984	-0.423831
C54	C	2.365265	0.233016	0.076169
C55	C	1.470241	-0.317048	-0.553283
C56	C	1.970241	0.182952	-0.053283
C57	C	1.470279	-0.317034	-0.622929
C58	C	1.970279	0.182966	-0.122929
C59	C	1.505427	-0.039991	-0.413690
C60	C	2.005427	0.460009	0.086310
C61	C	1.520461	0.078089	-0.423849
C62	C	2.020461	0.578089	0.076151
C63	C	1.546864	-0.240472	-0.667331
C64	C	2.046864	0.259528	-0.167331
C65	C	1.546868	-0.240427	-0.732770
C66	C	2.046868	0.259573	-0.232770
C67	C	1.470297	-0.316961	-0.753804
C68	C	1.970297	0.183039	-0.253804
C69	C	1.393698	-0.393529	-0.709392
C70	C	1.893698	0.106471	-0.209392
C71	C	1.393690	-0.393566	-0.643955
C72	C	1.893690	0.106434	-0.143955
C73	C	1.449741	-0.413678	-0.848534
C74	C	1.949741	0.086322	-0.348534
C75	C	1.449757	-0.413642	-0.913971
C76	C	1.949757	0.086358	-0.413971
C77	C	1.470318	-0.316848	-0.955635
C78	C	1.970318	0.183152	-0.455635
C79	C	1.490885	-0.220084	-0.931856
C80	C	1.990885	0.279916	-0.431856
C81	C	1.490876	-0.220120	-0.866419
C82	C	1.990876	0.279880	-0.366419
C83	C	1.470297	-0.316929	-0.824759
C84	C	1.970297	0.183071	-0.324759
C85	C	1.546911	-0.240230	-1.070995
C86	C	2.046911	0.259770	-0.570995
C87	C	1.546908	-0.240184	-1.136435
C88	C	2.046908	0.259816	-0.636435
C89	C	1.393743	-0.393295	-1.113055
C90	C	1.893743	0.106705	-0.613055
C91	C	1.393741	-0.393333	-1.047617
C92	C	1.893741	0.106667	-0.547617
C93	C	1.470331	-0.316801	-1.026591
C94	C	1.970331	0.183199	-0.526591
C95	C	1.470130	-0.317029	-0.227065
C96	C	1.970130	0.182971	0.272935
C97	C	1.470335	-0.316718	-0.157464
C98	C	1.970335	0.183282	0.342536
H99	H	0.857355	-0.385710	-0.343375
H100	H	1.357355	0.114290	0.156625
N101	N	1.100989	-0.228543	-0.449847
N102	N	1.600989	0.271457	0.050153
H103	H	1.178339	-0.228920	-0.449582
H104	H	1.678339	0.271080	0.050418
H105	H	1.079572	-0.247635	-0.491498
H106	H	1.579572	0.252365	0.008502
H107	H	1.023793	-0.428018	-0.314684
H108	H	1.523793	0.071982	0.185316
N109	N	1.339356	-0.780496	-0.301332
N110	N	1.839356	-0.280496	0.198668
H111	H	1.302849	-0.734123	-0.276639
H112	H	1.802849	-0.234123	0.223361
H113	H	1.284396	-0.832784	-0.318661
H114	H	1.784396	-0.332784	0.181339
N115	N	1.629480	-0.157856	-0.780674
N116	N	2.129480	0.342144	-0.280674
H117	H	1.592591	-0.114080	-0.808336
H118	H	2.092591	0.385920	-0.308336
H119	H	1.677974	-0.109452	-0.757379
H120	H	2.177974	0.390548	-0.257379
N121	N	1.629521	-0.157593	-1.184322
N122	N	2.129521	0.342407	-0.684322
H123	H	1.673249	-0.194507	-1.212008
H124	H	2.173249	0.305493	-0.712008
H125	H	1.592555	-0.113832	-1.211934
H126	H	2.092555	0.386168	-0.711934
H127	H	0.917586	-0.206034	-0.465117
H128	H	1.417586	0.293966	0.034883
H129	H	1.401591	-0.929901	-0.343424
H130	H	1.901591	-0.429901	0.156576
N131	N	1.629521	-0.157706	-1.048305
N132	N	2.129521	0.342294	-0.548305
H133	H	1.592635	-0.113964	-1.021654
H134	H	2.092635	0.386036	-0.521654
H135	H	1.673205	-0.194762	-1.021724
H136	H	2.173205	0.305238	-0.521724
N137	N	1.629468	-0.157917	-0.644663
N138	N	2.129468	0.342083	-0.144663
H139	H	1.622632	-0.084103	-0.661153
H140	H	2.122632	0.415897	-0.161153
H141	H	1.617808	-0.169640	-0.596471
H142	H	2.117808	0.330360	-0.096471
N143	N	1.558751	-0.686185	-0.449819
N144	N	2.058751	-0.186185	0.050181
H145	H	1.558318	-0.608842	-0.449545
H146	H	2.058318	-0.108842	0.050455
H147	H	1.632205	-0.695832	-0.444992
H148	H	2.132205	-0.195832	0.055008
N149	N	1.513060	-0.115764	-0.840770
N150	N	2.013060	0.384236	-0.340770
H151	H	1.526090	-0.054435	-0.877089
H152	H	2.026090	0.445565	-0.377089
H153	H	1.449595	-0.114120	-0.808889
H154	H	1.949595	0.385880	-0.308889
N155	N	1.601226	-0.852580	-0.478518
N156	N	2.101226	-0.352580	0.021482
H157	H	1.600796	-0.775236	-0.478245
H158	H	2.100796	-0.275236	0.021755
H159	H	1.674677	-0.862230	-0.473688
H160	H	2.174677	-0.362230	0.026312
H161	H	1.507628	-0.141264	-0.965779
H162	H	2.007628	0.358736	-0.465779
H163	H	1.331387	-0.455602	-1.130180
H164	H	1.831387	0.044398	-0.630180
H165	H	1.331383	-0.455684	-1.011463
H166	H	1.831383	0.044316	-0.511463
H167	H	1.433017	-0.492432	-0.933326
H168	H	1.933017	0.007568	-0.433326
N169	N	1.427578	-0.518083	-0.803599
N170	N	1.927578	-0.018083	-0.303599
H171	H	1.414567	-0.579373	-0.828592
H172	H	1.914567	-0.079373	-0.328592
H173	H	1.491048	-0.519741	-0.781185
H174	H	1.991048	-0.019741	-0.281185
H175	H	1.331350	-0.455841	-0.726522
H176	H	1.831350	0.044159	-0.226522
H177	H	1.331320	-0.455911	-0.607801
H178	H	1.831320	0.044089	-0.107801
