data_functionalizedCrystal
_audit_creation_method	'MofGen! by Chris Wilmer'
_symmetry_space_group_name_H-M	'P1'
_symmetry_Int_Tables_number	1
_symmetry_cell_setting	triclinic
loop_
_symmetry_equiv_pos_as_xyz
  x,y,z
_cell_length_a	6.817900
_cell_length_b	16.305597
_cell_length_c	16.255661
_cell_angle_alpha	95.356929
_cell_angle_beta	103.488922
_cell_angle_gamma	103.455834
loop_
_atom_site_label
_atom_site_type_symbol
_atom_site_fract_x
_atom_site_fract_y
_atom_site_fract_z
V1	V	-4.026545	-0.117398	-0.264163
O2	O	-4.014197	0.004940	-0.258836
O3	O	-3.977933	-0.232107	-0.262643
O4	O	-3.978109	-0.115900	-0.379243
O5	O	-4.014020	-0.112071	-0.141430
V6	V	-4.510205	-0.102729	-0.249448
O7	O	-4.287502	-0.149577	-0.296441
O8	O	-4.699444	-0.070550	-0.217170
O9	O	-4.335610	0.011980	-0.250968
O10	O	-4.639949	-0.225068	-0.254775
O11	O	-4.640126	-0.108056	-0.372182
O12	O	-4.335434	-0.104227	-0.134369
C13	C	-3.822883	-0.260061	-0.258550
C14	C	-3.864424	-0.353838	-0.258075
C15	C	-4.015549	-0.694592	-0.256389
C16	C	-3.779824	-0.653750	-0.251767
C17	C	-3.736286	-0.556151	-0.251926
C18	C	-3.940573	-0.525540	-0.257226
C19	C	-4.023440	-0.550705	-0.178369
C20	C	-4.065244	-0.648235	-0.177786
C21	C	-4.153687	-0.673986	-0.339640
C22	C	-4.106858	-0.576477	-0.341100
C23	C	-3.898210	-0.429999	-0.257696
C24	C	-4.057916	-0.790133	-0.255912
C25	C	-3.823107	-0.111827	-0.407283
C26	C	-3.864787	-0.111361	-0.501363
C27	C	-3.775352	-0.105795	-0.724168
C28	C	-3.931665	-0.177622	-0.793822
C29	C	-3.941173	-0.110487	-0.673609
C30	C	-3.859151	-0.037838	-0.771590
C31	C	-4.014942	-0.109639	-0.839991
C32	C	-4.096968	-0.182378	-0.742034
C33	C	-4.024392	-0.042531	-0.719786
C34	C	-4.180842	-0.114378	-0.789421
C35	C	-3.898671	-0.110976	-0.577761
C36	C	-4.057461	-0.109157	-0.935838
C37	C	-4.154001	0.039929	-0.255059
C38	C	-4.091699	0.133706	-0.255539
C39	C	-4.153778	-0.108304	-0.106324
C40	C	-4.091336	-0.108765	-0.012243
H41	H	-4.326324	-0.700994	-0.343848
O42	O	-3.885069	-0.245687	-0.832222
C43	C	-3.671744	-0.240949	-0.798773
H44	H	-3.582377	-0.171910	-0.771045
H45	H	-3.606141	-0.264729	-0.852064
H46	H	-3.654211	-0.282375	-0.746163
O47	O	-4.216206	-0.255306	-0.726009
C48	C	-4.175113	-0.254887	-0.636828
H49	H	-4.013986	-0.210576	-0.603880
H50	H	-4.179464	-0.322327	-0.622555
H51	H	-4.298656	-0.231422	-0.611936
O52	O	-4.120449	-0.712983	-0.410898
C53	C	-3.971806	-0.759574	-0.386580
H54	H	-3.872101	-0.731973	-0.318618
H55	H	-3.867350	-0.755114	-0.432362
H56	H	-4.055767	-0.829307	-0.389094
O57	O	-3.724873	-0.690162	-0.318686
C58	C	-3.512889	-0.652188	-0.312652
H59	H	-3.463095	-0.586019	-0.272529
H60	H	-3.491437	-0.646332	-0.379534
H61	H	-3.412719	-0.693503	-0.281015
O62	O	-3.740001	0.035060	-0.787710
C63	C	-3.870886	0.080964	-0.832066
H64	H	-4.029724	0.035444	-0.866108
H65	H	-3.796887	0.112309	-0.881254
H66	H	-3.891883	0.132259	-0.784704
O67	O	-4.202351	-0.526932	-0.179496
C68	C	-4.255463	-0.487132	-0.251825
H69	H	-4.109486	-0.460993	-0.273942
H70	H	-4.323928	-0.432508	-0.234388
H71	H	-4.375920	-0.535709	-0.305632
O72	O	-4.036468	-0.557823	-0.410625
C73	C	-3.837696	-0.499015	-0.383592
H74	H	-3.817535	-0.462590	-0.317509
H75	H	-3.823250	-0.452141	-0.431053
H76	H	-3.711571	-0.534757	-0.380353
H77	H	-4.352709	-0.118026	-0.817777
O78	O	-4.070214	0.025700	-0.681322
C79	C	-3.943926	0.101744	-0.695889
H80	H	-3.797314	0.088837	-0.710525
H81	H	-3.897488	0.152149	-0.636360
H82	H	-4.034854	0.125736	-0.752558
H83	H	-3.670123	-0.539380	-0.308275
H84	H	-3.603603	-0.102260	-0.695679
H85	H	-4.259215	-0.556666	-0.349865
H86	H	-3.609411	-0.521563	-0.191710
O87	O	-3.654713	-0.669689	-0.180069
C88	C	-3.779291	-0.717645	-0.134084
H89	H	-3.942800	-0.707393	-0.151800
H90	H	-3.706106	-0.696046	-0.062448
H91	H	-3.789705	-0.788272	-0.150816
O92	O	-3.947167	-0.661657	-0.102987
C93	C	-4.002093	-0.622809	-0.033596
H94	H	-4.075931	-0.569621	-0.054511
H95	H	-3.856059	-0.594903	0.021602
H96	H	-4.118699	-0.672487	-0.011766
O97	O	-4.267954	-0.680354	-0.177611
C98	C	-4.275354	-0.718311	-0.103550
H99	H	-4.123308	-0.736705	-0.078721
H100	H	-4.412279	-0.777878	-0.119872
H101	H	-4.296459	-0.671046	-0.052172
H102	H	-3.905360	-0.514932	-0.116280
