data_functionalizedCrystal
_audit_creation_method	'MofGen! by Chris Wilmer'
_symmetry_space_group_name_H-M	'P1'
_symmetry_Int_Tables_number	1
_symmetry_cell_setting	triclinic
loop_
_symmetry_equiv_pos_as_xyz
  x,y,z
_cell_length_a	16.956995
_cell_length_b	16.992695
_cell_length_c	16.776229
_cell_angle_alpha	89.993412
_cell_angle_beta	89.989150
_cell_angle_gamma	83.361347
loop_
_atom_site_label
_atom_site_type_symbol
_atom_site_fract_x
_atom_site_fract_y
_atom_site_fract_z
O1	O	1.060103	0.032365	-0.066343
O2	O	0.829692	0.059778	-0.066333
O3	O	0.943974	-0.068011	-0.066332
O4	O	0.945821	0.160154	-0.066345
O5	O	0.943956	-0.068017	0.066245
O6	O	0.829675	0.059773	0.066243
O7	O	1.060085	0.032359	0.066233
Zn8	Zn	0.944877	0.046065	0.087288
Zn9	Zn	0.944900	0.046073	-0.087388
O10	O	0.945804	0.160149	0.066232
C11	C	0.800065	0.061179	-0.000044
C12	C	0.711811	0.065352	-0.000040
C13	C	0.941589	-0.097073	-0.000044
C14	C	0.934498	-0.183657	-0.000044
C15	C	0.214500	0.096570	-0.000071
C16	C	0.297425	0.092643	-0.000070
C17	C	0.343815	0.018931	-0.000060
C18	C	0.307278	-0.050860	-0.000059
C19	C	0.224354	-0.046932	-0.000065
C20	C	0.592349	-0.000510	-0.000045
C21	C	0.675278	-0.004433	-0.000036
C22	C	0.665419	0.139071	-0.000049
C23	C	0.582495	0.142992	-0.000051
C24	C	0.545964	0.073202	-0.000054
N25	N	0.428578	0.014915	-0.000057
N26	N	0.461203	0.077218	-0.000063
C27	C	1.002913	-0.238332	-0.000046
C28	C	0.996246	-0.319686	-0.000053
C29	C	0.921163	-0.346365	-0.000052
C30	C	0.852743	-0.291683	-0.000053
C31	C	0.859411	-0.210331	-0.000051
C32	C	0.893527	-0.588171	-0.000062
C33	C	0.886865	-0.669531	-0.000061
C34	C	1.030368	-0.697528	-0.000063
C35	C	1.037029	-0.616172	-0.000057
C36	C	0.968609	-0.561498	-0.000061
N37	N	0.914346	-0.429522	-0.000057
N38	N	0.975427	-0.478343	-0.000062
C39	C	1.089713	0.030958	-0.000058
C40	C	1.177967	0.026785	-0.000067
C41	C	0.948189	0.189210	-0.000058
C42	C	0.955280	0.275795	-0.000064
N43	N	0.944867	0.046059	0.206499
C44	C	0.995488	-0.010506	0.248216
C45	C	0.995492	-0.010506	0.331669
C46	C	0.944878	0.046062	0.373402
C47	C	0.894251	0.102629	0.331678
C48	C	0.894244	0.102625	0.248227
C49	C	0.894278	0.102644	0.668225
C50	C	0.894291	0.102644	0.751682
C51	C	0.995527	-0.010488	0.751667
C52	C	0.995519	-0.010492	0.668216
C53	C	0.944890	0.046073	0.626500
C54	C	0.944885	0.046072	0.536011
C55	C	0.944886	0.046067	0.463888
N56	N	0.944909	0.046076	0.793401
H57	H	0.176733	0.156595	-0.000073
Br58	Br	0.715001	0.233780	-0.000050
H59	H	1.036708	-0.056567	0.214243
Br60	Br	1.089099	-0.393885	-0.000056
Br61	Br	0.370236	-0.150900	-0.000050
H62	H	0.713048	-0.064462	-0.000032
H63	H	0.194611	-0.103758	-0.000064
Br64	Br	1.064239	-0.087257	0.808285
Br65	Br	0.825535	0.179390	0.191610
H66	H	0.853072	0.148710	0.785660
Br67	Br	0.825571	0.179408	0.611615
H68	H	0.791609	-0.313411	-0.000057
Br69	Br	1.064191	-0.087276	0.388288
Br70	Br	0.766559	-0.136128	-0.000055
H71	H	0.327165	0.149470	-0.000081
Br72	Br	0.542782	-0.095226	-0.000073
Br73	Br	1.104816	-0.202134	-0.000035
Br74	Br	1.123218	-0.771731	-0.000057
H75	H	1.036737	-0.056552	0.634239
Br76	Br	0.825552	0.179396	0.388313
Br77	Br	0.800671	-0.513981	-0.000073
Br78	Br	0.519541	0.243034	-0.000068
H79	H	0.825720	-0.691248	-0.000048
Br80	Br	1.138931	-0.579972	-0.000083
