data_functionalizedCrystal
_audit_creation_method	'MofGen! by Chris Wilmer'
_symmetry_space_group_name_H-M	'P1'
_symmetry_Int_Tables_number	1
_symmetry_cell_setting	triclinic
loop_
_symmetry_equiv_pos_as_xyz
  x,y,z
_cell_length_a	27.732048
_cell_length_b	27.732046
_cell_length_c	26.809956
_cell_angle_alpha	89.963902
_cell_angle_beta	89.998605
_cell_angle_gamma	97.357683
loop_
_atom_site_label
_atom_site_type_symbol
_atom_site_fract_x
_atom_site_fract_y
_atom_site_fract_z
O1	O	0.640924	-0.057535	0.041422
O2	O	0.500131	-0.066280	0.041438
O3	O	0.574901	0.008489	0.041418
O4	O	0.566154	-0.132304	0.041442
O5	O	0.574899	0.008527	-0.041541
O6	O	0.500129	-0.066242	-0.041521
O7	O	0.640923	-0.057497	-0.041537
Zn8	Zn	0.570526	-0.061864	-0.054701
Zn9	Zn	0.570528	-0.061914	0.054602
O10	O	0.566153	-0.132266	-0.041517
C11	C	0.482123	-0.066078	-0.000040
C12	C	0.428468	-0.065525	-0.000034
C13	C	0.089653	-0.106229	-0.000049
C14	C	-0.112007	-0.104178	-0.000054
O15	O	-0.143262	-0.141399	-0.000069
N16	N	-0.131130	-0.059843	-0.000060
C17	C	-0.099835	-0.016017	-0.000069
O18	O	-0.120728	0.021740	-0.000079
C19	C	0.101823	-0.018068	-0.000067
C20	C	0.120944	-0.062407	-0.000056
C21	C	0.108774	-0.150563	-0.000038
C22	C	0.159186	-0.151076	-0.000034
C23	C	0.190477	-0.107253	-0.000041
C24	C	0.171356	-0.062919	-0.000052
C25	C	0.133117	0.025757	-0.000080
C26	C	0.183535	0.025240	-0.000081
C27	C	0.202655	-0.019098	-0.000069
C28	C	0.253059	-0.019609	-0.000055
N29	N	0.272182	-0.063944	-0.000049
C30	C	0.240891	-0.107766	-0.000042
C31	C	-0.205709	-0.014943	-0.000068
C32	C	-0.256124	-0.014430	-0.000068
C33	C	-0.268292	-0.102591	-0.000054
C34	C	-0.217876	-0.103104	-0.000051
C35	C	-0.186586	-0.059278	-0.000062
C36	C	0.346760	-0.108839	-0.000033
C37	C	0.397177	-0.109347	-0.000027
C38	C	0.409341	-0.021186	-0.000044
C39	C	0.358928	-0.020678	-0.000047
C40	C	0.327639	-0.064508	-0.000043
O41	O	0.284343	0.017592	-0.000045
O42	O	0.261794	-0.145518	-0.000042
C43	C	0.039241	-0.105717	-0.000053
C44	C	0.020120	-0.061382	-0.000064
C45	C	0.051411	-0.017560	-0.000071
C46	C	-0.030294	-0.060869	-0.000063
C47	C	-0.061585	-0.104691	-0.000056
C48	C	-0.042462	-0.149026	-0.000050
C49	C	0.007950	-0.149539	-0.000046
C50	C	0.032287	0.026775	-0.000077
C51	C	-0.018125	0.027284	-0.000081
C52	C	-0.049416	-0.016538	-0.000074
C53	C	0.574717	0.026515	-0.000063
C54	C	0.574164	0.080170	-0.000068
C55	C	0.614870	0.418985	-0.000056
C56	C	0.612820	0.620645	-0.000053
O57	O	0.650041	0.651901	-0.000037
N58	N	0.568485	0.639769	-0.000049
C59	C	0.524659	0.608474	-0.000043
O60	O	0.486902	0.629367	-0.000034
C61	C	0.526710	0.406815	-0.000041
C62	C	0.571047	0.387695	-0.000050
C63	C	0.659204	0.399864	-0.000064
C64	C	0.659716	0.349452	-0.000067
C65	C	0.615894	0.318161	-0.000062
C66	C	0.571559	0.337283	-0.000054
C67	C	0.482884	0.375522	-0.000031
C68	C	0.483401	0.325104	-0.000029
C69	C	0.527739	0.305984	-0.000038
C70	C	0.528249	0.255580	-0.000052
N71	N	0.572584	0.236456	-0.000056
C72	C	0.616407	0.267747	-0.000061
C73	C	0.523586	0.714348	-0.000044
C74	C	0.523073	0.764763	-0.000045
C75	C	0.611234	0.776930	-0.000055
C76	C	0.611746	0.726515	-0.000058
C77	C	0.567921	0.695225	-0.000048
C78	C	0.617478	0.161878	-0.000068
C79	C	0.617986	0.111461	-0.000074
C80	C	0.529826	0.099298	-0.000061
C81	C	0.529317	0.149710	-0.000058
C82	C	0.573148	0.181000	-0.000060
O83	O	0.491048	0.224296	-0.000063
O84	O	0.654158	0.246844	-0.000059
C85	C	0.614358	0.469397	-0.000052
C86	C	0.570024	0.488519	-0.000044
C87	C	0.526201	0.457228	-0.000039
C88	C	0.569511	0.538933	-0.000045
C89	C	0.613333	0.570224	-0.000050
C90	C	0.657668	0.551100	-0.000054
C91	C	0.658180	0.500688	-0.000058
C92	C	0.481866	0.476352	-0.000034
C93	C	0.481358	0.526764	-0.000032
C94	C	0.525180	0.558055	-0.000037
C95	C	0.658931	-0.057699	-0.000058
C96	C	0.712585	-0.058252	-0.000061
N97	N	0.570528	-0.061829	-0.129297
C98	C	0.566339	0.849708	-0.000041
C99	C	0.566896	0.796054	-0.000051
N100	N	0.570529	-0.061944	0.129198
C101	C	0.599571	-0.091059	0.526088
C102	C	0.599568	-0.091092	0.317211
O103	O	0.624272	-0.115896	0.290216
N104	N	0.570535	-0.061917	0.291076
C105	C	0.541502	-0.032730	0.317164
O106	O	0.516811	-0.007912	0.290143
C107	C	0.541509	-0.032695	0.526041
C108	C	0.570540	-0.061875	0.552173
C109	C	0.628601	-0.120236	0.552220
C110	C	0.628599	-0.120229	0.604436
C111	C	0.599568	-0.091046	0.630521
C112	C	0.570539	-0.061868	0.604389
C113	C	0.512479	-0.003505	0.552129
C114	C	0.512485	-0.003498	0.604351
C115	C	0.541516	-0.032678	0.630483
C116	C	0.541506	-0.032678	0.682690
N117	N	0.570540	-0.061852	0.708824
C118	C	0.599571	-0.091036	0.682740
C119	C	0.541500	-0.032751	0.207501
C120	C	0.541498	-0.032760	0.155282
C121	C	0.599564	-0.091122	0.155332
C122	C	0.599564	-0.091114	0.207552
C123	C	0.570534	-0.061926	0.233636
C124	C	0.599565	-0.091021	0.792398
C125	C	0.599559	-0.091013	0.844619
C126	C	0.541495	-0.032650	0.844564
C127	C	0.541499	-0.032659	0.792348
C128	C	0.570537	-0.061846	0.766266
O129	O	0.516819	-0.007883	0.709717
O130	O	0.624266	-0.115842	0.709770
C131	C	0.599573	-0.091065	0.473872
C132	C	0.570543	-0.061888	0.447740
C133	C	0.541512	-0.032704	0.473825
C134	C	0.570541	-0.061897	0.395521
C135	C	0.599572	-0.091081	0.369437
C136	C	0.628605	-0.120256	0.395571
C137	C	0.628604	-0.120249	0.447787
C138	C	0.512479	-0.003529	0.447691
C139	C	0.512482	-0.003539	0.395474
C140	C	0.541513	-0.032723	0.369390
H141	H	0.057760	0.062462	-0.000084
Br142	Br	-0.282066	0.045745	-0.000068
Br143	Br	0.473075	0.036063	0.360016
Br144	Br	0.422386	0.433893	-0.000025
H145	H	0.494147	0.073812	-0.000059
H146	H	0.652241	-0.144021	0.374324
Br147	Br	-0.310767	-0.162064	-0.000045
H148	H	0.694285	0.485125	-0.000065
Br149	Br	0.668006	-0.159848	0.516829
Br150	Br	0.033891	-0.209715	-0.000029
H151	H	0.653169	0.187348	-0.000068
Br152	Br	0.638975	-0.130631	0.757009
Br153	Br	0.423920	0.282641	-0.000014
H154	H	0.647850	0.710951	-0.000065
Br155	Br	0.638964	-0.130727	0.119921
Br156	Br	-0.084938	-0.208499	-0.000036
Br157	Br	-0.191933	-0.163279	-0.000035
H158	H	-0.033688	0.063392	-0.000086
H159	H	0.488845	0.020272	0.625586
H160	H	0.517859	-0.008981	0.228734
H161	H	0.693350	0.576586	-0.000061
H162	H	0.517853	-0.008905	0.771071
H163	H	0.654093	0.095896	-0.000082
H164	H	0.517858	-0.008891	0.865812
H165	H	0.623200	-0.114777	0.865893
Br166	Br	0.469144	0.175661	-0.000058
Br167	Br	0.421179	0.552707	-0.000023
H168	H	0.695821	0.333889	-0.000073
H169	H	0.209010	0.060929	-0.000090
Br170	Br	0.718686	0.442322	-0.000071
Br171	Br	0.473067	0.036074	0.483083
Br172	Br	0.462898	0.790706	-0.000045
Br173	Br	0.667992	-0.159843	0.639892
H174	H	0.623203	-0.114876	0.228825
Br175	Br	0.502087	0.006833	0.119824
H176	H	0.646916	0.802416	-0.000060
Br177	Br	0.107182	0.085934	-0.000084
H178	H	0.487896	0.688875	-0.000037
H179	H	0.652244	-0.144011	0.469059
Br180	Br	0.423123	-0.169524	-0.000008
Br181	Br	0.304304	-0.168323	-0.000029
H182	H	0.488840	0.020257	0.530861
Br183	Br	0.185127	-0.211252	-0.000021
H184	H	0.343360	0.015426	-0.000049
Br185	Br	-0.163250	0.044540	-0.000084
H186	H	0.446780	0.391081	-0.000020
Br187	Br	0.451816	0.038284	-0.000054
H188	H	0.083301	-0.186251	-0.000034
