data_functionalizedCrystal
_audit_creation_method	'MofGen! by Chris Wilmer'
_symmetry_space_group_name_H-M	'P1'
_symmetry_Int_Tables_number	1
_symmetry_cell_setting	triclinic
loop_
_symmetry_equiv_pos_as_xyz
  x,y,z
_cell_length_a	19.188930
_cell_length_b	17.666332
_cell_length_c	19.188940
_cell_angle_alpha	89.993076
_cell_angle_beta	96.853253
_cell_angle_gamma	90.023234
loop_
_atom_site_label
_atom_site_type_symbol
_atom_site_fract_x
_atom_site_fract_y
_atom_site_fract_z
O1	O	0.926153	0.063192	-0.087168
O2	O	0.722842	0.063141	-0.098903
O3	O	0.830361	0.063162	0.008620
O4	O	0.818634	0.063171	-0.194691
O5	O	0.830342	-0.062735	0.008625
O6	O	0.722823	-0.062756	-0.098897
O7	O	0.926134	-0.062704	-0.087163
Cu8	Cu	0.824477	-0.074226	-0.093029
Cu9	Cu	0.824499	0.074662	-0.093036
O10	O	0.818615	-0.062726	-0.194685
C11	C	0.696821	0.000186	-0.098520
C12	C	0.619317	0.000166	-0.097379
N13	N	0.824466	-0.178945	-0.093024
C14	C	0.574395	0.000180	-0.160470
C15	C	0.501571	0.000188	-0.159398
C16	C	0.473672	0.000197	-0.095232
C17	C	0.518604	0.000179	-0.032133
C18	C	0.591426	0.000163	-0.033207
N19	N	0.365697	0.043074	-0.046187
N20	N	0.296518	0.043091	-0.045172
C21	C	0.254264	0.000244	-0.091994
N22	N	0.283800	-0.042611	-0.139881
N23	N	0.352984	-0.042625	-0.140898
C24	C	0.394710	0.000214	-0.094061
C25	C	0.130377	0.000266	-0.153927
C26	C	0.057553	0.000270	-0.152853
C27	C	0.074587	0.000267	-0.025586
C28	C	0.147410	0.000256	-0.026662
C29	C	0.175301	0.000259	-0.090835
C30	C	0.872091	-0.218545	-0.045437
C31	C	0.872095	-0.297793	-0.045433
C32	C	0.824481	-0.337437	-0.093029
C33	C	0.776847	-0.297828	-0.140621
C34	C	0.776840	-0.218581	-0.140618
N35	N	0.815407	-0.461855	-0.154836
N36	N	0.815418	-0.537135	-0.154837
C37	C	0.824499	-0.576201	-0.093039
N38	N	0.833583	-0.537143	-0.031239
N39	N	0.833575	-0.461856	-0.031240
C40	C	0.824483	-0.423366	-0.093037
C41	C	0.872131	-0.701731	-0.045444
C42	C	0.872130	-0.780980	-0.045440
C43	C	0.776886	-0.781013	-0.140633
C44	C	0.776883	-0.701765	-0.140632
C45	C	0.824510	-0.662129	-0.093038
C46	C	0.952154	0.000252	-0.087546
C47	C	1.029659	0.000277	-0.088686
C48	C	0.829970	0.000214	0.034633
C49	C	0.828827	0.000214	0.112138
N50	N	0.824515	0.179381	-0.093036
C51	C	0.819005	0.000224	-0.220699
C52	C	0.820148	0.000229	-0.298203
C53	C	0.820682	-0.068397	0.665400
C54	C	0.821749	-0.068401	0.592575
C55	C	0.822296	0.000225	0.556153
C56	C	0.821758	0.068860	0.592558
C57	C	0.820684	0.068862	0.665380
N58	N	0.863720	0.051315	0.447127
N59	N	0.864741	0.051308	0.377949
C60	C	0.825530	0.000223	0.336744
N61	N	0.785267	-0.050867	0.367331
N62	N	0.784248	-0.050862	0.436515
C63	C	0.823460	0.000231	0.477189
C64	C	0.827219	-0.068411	0.221382
C65	C	0.828281	-0.068412	0.148555
C66	C	0.828298	0.068850	0.148540
C67	C	0.827228	0.068849	0.221364
C68	C	0.826692	0.000216	0.257781
H69	H	0.597098	0.000184	-0.212724
H70	H	0.020977	0.000277	-0.204231
H71	H	0.495884	0.000196	0.020111
C72	C	0.724472	-0.341432	-0.192979
C73	C	0.724510	-0.428599	-0.193019
C74	C	0.672130	-0.472202	-0.245376
C75	C	0.619711	-0.428638	-0.297694
C76	C	0.619670	-0.341466	-0.297656
C77	C	0.672051	-0.297862	-0.245299
H78	H	0.763315	-0.460853	-0.154288
H79	H	0.672160	-0.536733	-0.245404
H80	H	0.580936	-0.460916	-0.336453
H81	H	0.580865	-0.309212	-0.336387
H82	H	0.672020	-0.233331	-0.245271
H83	H	0.464989	0.000198	-0.210775
C84	C	0.640846	0.000152	0.036197
C85	C	0.693285	0.065518	0.052954
C86	C	0.742707	0.065510	0.122358
C87	C	0.739689	0.000135	0.175005
C88	C	0.687247	-0.065235	0.158248
C89	C	0.637825	-0.065227	0.088845
H90	H	0.695522	0.113916	0.013981
H91	H	0.781528	0.113902	0.134762
H92	H	0.776273	0.000129	0.226382
H93	H	0.685011	-0.113633	0.197222
H94	H	0.599004	-0.113619	0.076441
C95	C	0.820108	-0.143898	0.705447
C96	C	0.759652	-0.200555	0.687329
C97	C	0.759087	-0.276060	0.727373
C98	C	0.818977	-0.294909	0.785537
C99	C	0.879437	-0.238250	0.803659
C100	C	0.880003	-0.162745	0.763614
H101	H	0.715314	-0.186604	0.644270
H102	H	0.714330	-0.318003	0.713958
H103	H	0.818559	-0.350802	0.815181
H104	H	0.923776	-0.252201	0.846717
H105	H	0.924759	-0.120803	0.777029
H106	H	0.822201	0.124735	0.562898
C107	C	0.043909	0.000275	0.044999
C108	C	-0.003846	-0.065090	0.063242
C109	C	-0.034527	-0.065086	0.133830
C110	C	-0.017451	0.000284	0.186175
C111	C	0.030307	0.065655	0.167934
C112	C	0.060987	0.065650	0.097346
H113	H	-0.016489	-0.113485	0.024491
H114	H	-0.069880	-0.113478	0.147333
H115	H	-0.040163	0.000288	0.238429
H116	H	0.042949	0.114050	0.206684
H117	H	0.096341	0.114042	0.083843
C118	C	0.822338	-0.143893	0.552527
C119	C	0.821745	-0.219384	0.592583
C120	C	0.822333	-0.294876	0.552537
C121	C	0.823514	-0.294876	0.472436
C122	C	0.824106	-0.219382	0.432376
C123	C	0.823518	-0.143890	0.472421
H124	H	0.820871	-0.219387	0.651883
H125	H	0.821895	-0.350762	0.582193
H126	H	0.823949	-0.350760	0.442792
H127	H	0.824980	-0.219379	0.373076
H128	H	0.823957	-0.088004	0.442765
H129	H	0.910909	-0.669458	-0.006688
H130	H	0.820249	0.124747	0.695014
C131	C	0.826650	0.144339	0.261408
C132	C	0.827251	0.219828	0.221349
C133	C	0.826670	0.295323	0.261391
C134	C	0.825489	0.295328	0.341493
C135	C	0.824888	0.219836	0.381556
C136	C	0.825468	0.144342	0.341513
H137	H	0.828126	0.219827	0.162049
H138	H	0.827115	0.351207	0.231733
H139	H	0.825059	0.351213	0.371135
H140	H	0.824013	0.219838	0.440856
H141	H	0.825023	0.088458	0.371171
C142	C	0.826604	-0.143899	0.261451
C143	C	0.766116	-0.200517	0.243336
C144	C	0.765492	-0.276002	0.283405
C145	C	0.825357	-0.294869	0.341589
C146	C	0.885850	-0.238249	0.359707
C147	C	0.886473	-0.162764	0.319638
H148	H	0.721796	-0.186552	0.200262
H149	H	0.720711	-0.317915	0.269992
H150	H	0.824895	-0.350747	0.371251
H151	H	0.930169	-0.252214	0.402781
H152	H	0.931254	-0.120851	0.333050
C153	C	0.828871	-0.143907	0.108517
C154	C	0.768112	-0.200553	0.110431
C155	C	0.768703	-0.276050	0.070393
C156	C	0.830054	-0.294900	0.028442
C157	C	0.890817	-0.238253	0.026527
C158	C	0.890226	-0.162756	0.066565
H159	H	0.722693	-0.186600	0.141487
H160	H	0.723722	-0.317984	0.071811
H161	H	0.830491	-0.350787	-0.001196
H162	H	0.936237	-0.252206	-0.004529
H163	H	0.935207	-0.120822	0.065147
C164	C	0.161063	0.000258	-0.224513
C165	C	0.111646	0.000261	-0.293915
C166	C	0.142329	0.000252	-0.364502
C167	C	0.222430	0.000241	-0.365686
C168	C	0.271853	0.000238	-0.296281
C169	C	0.241169	0.000247	-0.225695
H170	H	0.052346	0.000269	-0.293041
H171	H	0.105743	0.000254	-0.415879
H172	H	0.245144	0.000235	-0.417938
H173	H	0.331153	0.000230	-0.297156
H174	H	0.277755	0.000245	-0.174317
C175	C	0.724508	-0.824613	-0.192989
C176	C	0.724560	-0.911781	-0.193039
C177	C	0.672179	-0.955386	-0.245394
C178	C	0.619746	-0.911824	-0.297699
C179	C	0.619692	-0.824651	-0.297652
C180	C	0.672073	-0.781046	-0.245297
H181	H	0.763376	-0.944033	-0.154317
H182	H	0.672219	-1.019917	-0.245429
H183	H	0.580970	-0.944103	-0.336455
H184	H	0.580876	-0.792400	-0.336373
H185	H	0.672033	-0.716515	-0.245262
H186	H	0.910878	-0.330041	-0.006680
C187	C	0.828896	0.144339	0.108483
C188	C	0.768138	0.200937	0.110377
C189	C	0.768731	0.276428	0.070314
C190	C	0.830083	0.295323	0.028357
C191	C	0.890845	0.238724	0.026462
C192	C	0.890252	0.163232	0.066525
H193	H	0.722717	0.186951	0.141437
H194	H	0.723750	0.318326	0.071717
H195	H	0.830522	0.351206	-0.001299
H196	H	0.936266	0.252710	-0.004598
H197	H	0.935232	0.121335	0.065121
C198	C	0.196829	0.000253	0.042739
C199	C	0.166147	0.000264	0.113322
C200	C	0.215566	0.000258	0.182728
C201	C	0.295668	0.000242	0.181550
C202	C	0.326355	0.000231	0.110964
C203	C	0.276935	0.000236	0.041559
H204	H	0.106847	0.000276	0.114197
H205	H	0.192850	0.000267	0.234980
H206	H	0.332252	0.000238	0.232928
H207	H	0.385655	0.000219	0.110090
H208	H	0.299652	0.000228	-0.010693
H209	H	0.910869	-0.186276	-0.006681
H210	H	0.910910	-0.813223	-0.006684
H211	H	0.738057	-0.186338	-0.179370
H212	H	0.738105	-0.669521	-0.179385
