data_functionalizedCrystal
_audit_creation_method	'MofGen! by Chris Wilmer'
_symmetry_space_group_name_H-M	'P1'
_symmetry_Int_Tables_number	1
_symmetry_cell_setting	triclinic
loop_
_symmetry_equiv_pos_as_xyz
  x,y,z
_cell_length_a	11.792254
_cell_length_b	18.266242
_cell_length_c	11.792241
_cell_angle_alpha	89.994757
_cell_angle_beta	95.803993
_cell_angle_gamma	90.008886
loop_
_atom_site_label
_atom_site_type_symbol
_atom_site_fract_x
_atom_site_fract_y
_atom_site_fract_z
O1	O	1.506908	0.060881	-0.155636
O2	O	2.006908	0.560881	0.344364
O3	O	1.176568	0.060882	-0.171654
O4	O	1.676568	0.560882	0.328346
O5	O	1.349754	0.060876	0.001525
O6	O	1.849754	0.560876	0.501525
O7	O	1.333722	0.060887	-0.328815
O8	O	1.833722	0.560887	0.171185
O9	O	1.349725	-0.060886	0.001530
O10	O	1.849725	0.439114	0.501530
O11	O	1.176539	-0.060880	-0.171649
O12	O	1.676539	0.439120	0.328351
O13	O	1.506878	-0.060881	-0.155631
O14	O	2.006878	0.439119	0.344369
Zn15	Zn	1.341703	-0.080213	-0.163639
Zn16	Zn	1.841703	0.419787	0.336361
Zn17	Zn	1.341743	0.080214	-0.163646
Zn18	Zn	1.841743	0.580214	0.336354
O19	O	1.333692	-0.060875	-0.328810
O20	O	1.833692	0.439125	0.171190
C21	C	1.134263	0.000001	-0.170642
C22	C	1.634263	0.500001	0.329358
C23	C	1.008250	0.000002	-0.167622
C24	C	1.508250	0.500002	0.332378
N25	N	1.341685	-0.189700	-0.163634
N26	N	1.841685	0.310300	0.336366
C27	C	0.905913	0.000005	-0.165168
C28	C	1.405913	0.500005	0.334832
C29	C	0.777527	0.000005	-0.162100
C30	C	1.277527	0.500005	0.337900
C31	C	1.410935	-0.228001	-0.232946
C32	C	1.910935	0.271999	0.267054
C33	C	1.410954	-0.304646	-0.232943
C34	C	1.910954	0.195354	0.267057
C35	C	1.341702	-0.342987	-0.163641
C36	C	1.841702	0.157013	0.336359
C37	C	1.272447	-0.304677	-0.094315
C38	C	1.772447	0.195323	0.405685
C39	C	1.272439	-0.228033	-0.094311
C40	C	1.772439	0.271967	0.405689
N41	N	1.242270	-0.463339	-0.159925
N42	N	1.742270	0.036661	0.340075
N43	N	1.242281	-0.536147	-0.159935
N44	N	1.742281	-0.036147	0.340065
C45	C	1.341724	-0.573909	-0.163645
C46	C	1.841724	-0.073909	0.336355
N47	N	1.441157	-0.536113	-0.167368
N48	N	1.941157	-0.036113	0.332632
N49	N	1.441145	-0.463298	-0.167364
N50	N	1.941145	0.036702	0.332636
C51	C	1.341703	-0.426094	-0.163636
C52	C	1.841703	0.073906	0.336364
C53	C	1.411000	-0.695317	-0.232958
C54	C	1.911000	-0.195317	0.267042
C55	C	1.411022	-0.771963	-0.232946
C56	C	1.911022	-0.271963	0.267054
C57	C	1.272504	-0.771993	-0.094325
C58	C	1.772504	-0.271993	0.405675
C59	C	1.272494	-0.695348	-0.094330
C60	C	1.772494	-0.195348	0.405670
C61	C	1.341740	-0.657015	-0.163652
C62	C	1.841740	-0.157015	0.336348
C63	C	1.549183	0.000001	-0.156643
C64	C	2.049183	0.500001	0.343357
C65	C	1.675196	0.000005	-0.159663
C66	C	2.175196	0.500005	0.340337
C67	C	1.348732	-0.000004	0.043819
C68	C	1.848732	0.499996	0.543819
C69	C	1.345718	-0.000004	0.169832
C70	C	1.845718	0.499996	0.669832
N71	N	1.341770	0.189701	-0.163642
N72	N	1.841770	0.689701	0.336358
C73	C	1.334714	0.000007	-0.371104
C74	C	1.834714	0.500007	0.128896
C75	C	1.337728	0.000011	-0.497118
C76	C	1.837728	0.500011	0.002882
C77	C	1.340175	0.000009	0.400545
C78	C	1.840175	0.500009	0.900545
C79	C	1.343255	0.000002	0.272160
C80	C	1.843255	0.500002	0.772160
H81	H	1.467325	-0.196794	-0.289389
H82	H	1.967325	0.303206	0.210611
F83	F	1.484663	-0.345416	-0.306716
F84	F	1.984663	0.154584	0.193284
F85	F	1.198747	-0.345483	-0.020556
F86	F	1.698747	0.154517	0.479444
H87	H	1.216098	-0.664163	-0.037893
H88	H	1.716098	-0.164163	0.462107
F89	F	1.198725	-0.187269	-0.020541
F90	F	1.698725	0.312731	0.479459
H91	H	1.467386	-0.664104	-0.289403
H92	H	1.967386	-0.164104	0.210597
F93	F	1.198811	-0.812793	-0.020557
F94	F	1.698811	-0.312793	0.479443
H95	H	1.467421	-0.803147	-0.289385
H96	H	1.967421	-0.303147	0.210615
