data_functionalizedCrystal
_audit_creation_method	'MofGen! by Chris Wilmer'
_symmetry_space_group_name_H-M	'P1'
_symmetry_Int_Tables_number	1
_symmetry_cell_setting	triclinic
loop_
_symmetry_equiv_pos_as_xyz
  x,y,z
_cell_length_a	23.532407
_cell_length_b	14.044220
_cell_length_c	12.503552
_cell_angle_alpha	86.160109
_cell_angle_beta	86.507167
_cell_angle_gamma	91.981222
loop_
_atom_site_label
_atom_site_type_symbol
_atom_site_fract_x
_atom_site_fract_y
_atom_site_fract_z
O1	O	0.134225	-1.261909	0.089227
O2	O	0.129272	-0.985988	0.089253
O3	O	0.049268	-1.132268	0.089220
O4	O	0.214228	-1.115630	0.089261
O5	O	0.055290	-1.121254	-0.089420
O6	O	0.135293	-0.974975	-0.089387
O7	O	0.140246	-1.250896	-0.089413
Cu8	Cu	0.138320	-1.111930	-0.105711
Cu9	Cu	0.131198	-1.124955	0.105551
O10	O	0.220250	-1.104616	-0.089379
C11	C	0.130115	-0.945188	-0.000063
C12	C	0.123648	-0.840023	-0.000054
C13	C	0.031040	-1.126337	-0.000103
C14	C	-0.032246	-1.125063	-0.000111
N15	N	0.143329	-1.102775	-0.254302
C16	C	-0.427092	-1.203641	-0.000060
C17	C	-0.486556	-1.202458	-0.000051
O18	O	-0.519354	-1.275300	-0.000019
N19	N	-0.513896	-1.115494	-0.000044
C20	C	-0.481769	-1.029708	-0.000034
O21	O	-0.510484	-0.955630	-0.000026
C22	C	-0.422305	-1.030893	-0.000034
C23	C	-0.394968	-1.117862	-0.000053
C24	C	-0.399754	-1.290603	-0.000077
C25	C	-0.340294	-1.291786	-0.000087
C26	C	-0.308170	-1.206006	-0.000080
C27	C	-0.335508	-1.119044	-0.000063
C28	C	-0.390179	-0.945109	-0.000016
C29	C	-0.330712	-0.946301	-0.000016
C30	C	-0.303375	-1.033270	-0.000035
C31	C	-0.243924	-1.034447	-0.000066
N32	N	-0.216584	-1.121411	-0.000074
C33	C	-0.248707	-1.207191	-0.000081
C34	C	-0.606646	-1.027228	-0.000031
C35	C	-0.666108	-1.026042	-0.000038
C36	C	-0.670891	-1.198792	-0.000053
C37	C	-0.611428	-1.199976	-0.000054
C38	C	-0.579306	-1.114192	-0.000038
C39	C	-0.123835	-1.209668	-0.000103
C40	C	-0.064369	-1.210842	-0.000118
C41	C	-0.059591	-1.038093	-0.000097
C42	C	-0.119052	-1.036917	-0.000088
C43	C	-0.151173	-1.122713	-0.000087
O44	O	-0.211090	-0.961644	-0.000095
O45	O	-0.219985	-1.281258	-0.000075
C46	C	0.238478	-1.110547	-0.000054
C47	C	0.301763	-1.111822	-0.000039
C48	C	0.139403	-1.291696	-0.000094
C49	C	0.145869	-1.396861	-0.000096
C50	C	0.111828	-0.647472	-0.000078
C51	C	0.157687	-0.589407	-0.000072
C52	C	0.151110	-0.482265	-0.000085
C53	C	0.118404	-0.754624	-0.000065
C54	C	0.118815	-1.147578	-0.526745
C55	C	0.150697	-1.089317	-0.473408
C56	C	0.146596	-1.096807	-0.351486
C57	C	0.122915	-1.140089	-0.648678
N58	N	0.126185	-1.134116	0.254142
H59	H	-0.042114	-1.281666	-0.000136
Cl60	Cl	0.043590	-0.599990	-0.000097
H61	H	0.181073	-1.033814	-0.519311
H62	H	0.088442	-1.203078	-0.480848
H63	H	-0.318041	-1.362605	-0.000098
Cl64	Cl	-0.164207	-1.317526	-0.000105
H65	H	-0.589174	-1.270794	-0.000068
H66	H	-0.425903	-1.360460	-0.000079
Cl67	Cl	-0.566269	-0.919371	-0.000023
Cl68	Cl	-0.019196	-0.930262	-0.000086
Cl69	Cl	-0.711286	-1.306630	-0.000055
H70	H	-0.412427	-0.874290	0.000005
Cl71	Cl	-0.700466	-0.916703	-0.000035
Cl72	Cl	-0.290334	-0.838449	0.000005
H73	H	-0.141310	-0.966098	-0.000102
H74	H	0.201888	-0.620163	-0.000055
