data_functionalizedCrystal
_audit_creation_method	'MofGen! by Chris Wilmer'
_symmetry_space_group_name_H-M	'P1'
_symmetry_Int_Tables_number	1
_symmetry_cell_setting	triclinic
loop_
_symmetry_equiv_pos_as_xyz
  x,y,z
_cell_length_a	11.026607
_cell_length_b	11.026607
_cell_length_c	9.482900
_cell_angle_alpha	78.613859
_cell_angle_beta	101.381836
_cell_angle_gamma	108.586017
loop_
_atom_site_label
_atom_site_type_symbol
_atom_site_fract_x
_atom_site_fract_y
_atom_site_fract_z
O1	O	-1.711168	-0.549184	0.120893
O2	O	-1.211168	-0.049184	0.620893
O3	O	-1.344588	-0.488420	0.120896
O4	O	-0.844588	0.011580	0.620896
O5	O	-1.497497	-0.335511	0.120889
O6	O	-0.997497	0.164489	0.620889
O7	O	-1.558259	-0.702093	0.120899
O8	O	-1.058259	-0.202093	0.620899
O9	O	-1.528610	-0.304381	-0.120904
O10	O	-1.028610	0.195619	0.379096
O11	O	-1.375701	-0.457290	-0.120898
O12	O	-0.875701	0.042710	0.379102
O13	O	-1.742281	-0.518053	-0.120901
O14	O	-1.242281	-0.018053	0.379099
Cu15	Cu	-1.561832	-0.484829	-0.142977
Cu16	Cu	-1.061832	0.015171	0.357023
Cu17	Cu	-1.525037	-0.521644	0.142972
Cu18	Cu	-1.025037	-0.021644	0.642972
O19	O	-1.589372	-0.670962	-0.120894
O20	O	-1.089372	-0.170962	0.379106
C21	C	-1.312485	-0.461645	-0.000001
C22	C	-0.812485	0.038355	0.499999
C23	C	-1.170471	-0.428228	-0.000000
C24	C	-0.670471	0.071772	0.500000
N25	N	-1.587720	-0.458936	-0.344098
N26	N	-1.087720	0.041064	0.155902
C27	C	-1.774384	-0.544828	-0.000001
C28	C	-1.274384	-0.044828	0.499999
C29	C	-1.916397	-0.578246	0.000008
C30	C	-1.416397	-0.078246	0.500008
C31	C	-1.116821	-0.520498	0.000003
C32	C	-0.616821	-0.020498	0.500003
C33	C	-0.970042	-0.485963	0.000004
C34	C	-0.470042	0.014037	0.500004
C35	C	-1.501843	-0.272287	-0.000006
C36	C	-1.001843	0.227713	0.499994
C37	C	-1.468426	-0.130273	-0.000000
C38	C	-0.968426	0.369727	0.500000
C39	C	-1.585025	-0.734187	0.000004
C40	C	-1.085025	-0.234187	0.500004
C41	C	-1.618442	-0.876202	0.000008
C42	C	-1.118442	-0.376202	0.500008
C43	C	-1.560695	-0.076624	0.000001
C44	C	-1.060695	0.423376	0.500001
C45	C	-1.526159	0.070154	0.000007
C46	C	-1.026159	0.570154	0.500007
N47	N	-1.499157	-0.547529	0.344093
N48	N	-0.999157	-0.047529	0.844093
C49	C	-1.554207	-0.492474	0.416290
C50	C	-1.054207	0.007526	0.916290
C51	C	-1.532662	-0.513999	0.583709
C52	C	-1.032662	-0.013999	1.083709
H53	H	-0.907309	-0.381398	0.000039
H54	H	-0.407309	0.118602	0.500039
H55	H	-0.979125	-0.682816	0.000001
H56	H	-0.479125	-0.182816	0.500001
H57	H	-1.107733	-0.323670	0.000034
H58	H	-0.607733	0.176330	0.500034
H59	H	-1.363862	-0.067541	0.000010
H60	H	-0.863862	0.432459	0.500010
O61	O	-1.699208	-0.159703	-0.000002
O62	O	-1.199208	0.340297	0.499998
H63	H	-1.704599	-0.261950	-0.000014
H64	H	-1.204599	0.238050	0.499986
O65	O	-1.449075	-0.597530	0.665985
O66	O	-0.949075	-0.097530	1.165985
H67	H	-1.445251	-0.601311	0.784570
H68	H	-0.945251	-0.101311	1.284570
O69	O	-1.671282	-0.375379	0.573628
O70	O	-1.171282	0.124621	1.073628
H71	H	-1.675085	-0.371573	0.455043
H72	H	-1.175085	0.128427	0.955043
O73	O	-1.637774	-0.408931	0.334010
O74	O	-1.137774	0.091069	0.834010
H75	H	-1.579467	-0.326381	0.264652
H76	H	-1.079467	0.173619	0.764652
O77	O	-1.415573	-0.631056	0.426375
O78	O	-0.915573	-0.131056	0.926375
H79	H	-1.411750	-0.634837	0.544960
H80	H	-0.911750	-0.134837	1.044960
H81	H	-1.179555	-0.625061	-0.000002
H82	H	-0.679555	-0.125061	0.499998
H83	H	-1.421588	0.132881	0.000017
H84	H	-0.921588	0.632881	0.500017
H85	H	-1.722998	0.061057	0.000117
H86	H	-1.222998	0.561057	0.500117
