data_functionalizedCrystal
_audit_creation_method	'MofGen! by Chris Wilmer'
_symmetry_space_group_name_H-M	'P1'
_symmetry_Int_Tables_number	1
_symmetry_cell_setting	triclinic
loop_
_symmetry_equiv_pos_as_xyz
  x,y,z
_cell_length_a	18.215407
_cell_length_b	19.077068
_cell_length_c	18.215399
_cell_angle_alpha	87.731836
_cell_angle_beta	90.019833
_cell_angle_gamma	92.327501
loop_
_atom_site_label
_atom_site_type_symbol
_atom_site_fract_x
_atom_site_fract_y
_atom_site_fract_z
Zn1	Zn	1.113288	-0.280200	0.427869
Zn2	Zn	1.108246	-0.397902	0.309739
Zn3	Zn	0.990220	-0.280223	0.304817
Zn4	Zn	0.985238	-0.397863	0.432763
O5	O	1.049248	-0.339047	0.368797
O6	O	1.215603	-0.295821	0.412210
O7	O	1.092565	-0.382318	0.206103
O8	O	1.010740	-0.181729	0.317032
O9	O	1.211899	-0.382295	0.325421
O10	O	1.101157	-0.181712	0.407437
O11	O	1.005851	-0.295860	0.202487
O12	O	0.886575	-0.295822	0.321777
O13	O	1.002249	-0.382229	0.535097
O14	O	0.882915	-0.382251	0.415778
O15	O	1.096327	-0.295783	0.531501
O16	O	1.087734	-0.496388	0.330167
O17	O	0.997361	-0.496359	0.420551
C18	C	0.858042	-0.339035	0.368775
C19	C	0.776243	-0.339047	0.368784
C20	C	0.586159	-0.384121	0.417674
C21	C	0.509301	-0.384124	0.417684
C22	C	0.513088	-0.293986	0.319936
C23	C	0.589945	-0.293980	0.319931
C24	C	0.626479	-0.339052	0.368799
C25	C	0.472763	-0.339060	0.368814
C26	C	0.389429	-0.339062	0.368823
C27	C	0.709818	-0.339050	0.368791
C28	C	1.041480	-0.521911	0.376440
C29	C	1.038224	-0.600141	0.379735
C30	C	1.083783	-0.636886	0.334263
C31	C	1.080725	-0.710391	0.337366
C32	C	1.032104	-0.747151	0.385937
C33	C	0.986542	-0.710401	0.431414
C34	C	0.989604	-0.636897	0.428314
C35	C	1.017899	-0.966985	0.400254
C36	C	1.014839	-1.040495	0.403348
C37	C	1.109023	-1.040479	0.309301
C38	C	1.112078	-0.966974	0.306202
C39	C	1.066520	-0.930231	0.351682
N40	N	1.028975	-0.822285	0.389109
N41	N	1.069652	-0.855098	0.348514
C42	C	1.241200	-0.339060	0.368819
C43	C	1.322999	-0.339065	0.368828
C44	C	1.049295	-0.338999	0.560748
C45	C	1.049315	-0.338978	0.642546
C46	C	1.057067	-0.155469	0.361140
C47	C	1.060398	-0.077239	0.357877
C48	C	1.049246	-0.339045	0.177591
C49	C	1.049377	-0.338867	0.095785
C50	C	1.098320	-0.293923	0.828867
C51	C	1.098329	-0.293903	0.905725
C52	C	1.000366	-0.383924	0.909458
C53	C	1.000354	-0.383940	0.832601
C54	C	1.049335	-0.338941	0.792308
C55	C	1.049357	-0.338904	0.946023
C56	C	1.049367	-0.338882	1.029355
C57	C	1.049324	-0.338962	0.708970
H58	H	1.123373	-0.606961	0.294708
O59	O	0.952693	-0.427574	0.797046
C60	C	0.906873	-0.387510	0.750897
H61	H	0.904688	-0.332073	0.771751
H62	H	0.929722	-0.385096	0.692553
C63	C	0.831587	-0.489982	0.725518
C64	C	0.828900	-0.421894	0.751134
H65	H	0.783490	-0.511192	0.725661
H66	H	0.862459	-0.516975	0.756607
H67	H	0.850631	-0.487961	0.676900
H68	H	0.809864	-0.423917	0.799754
H69	H	0.798023	-0.394902	0.720053
H70	H	1.138217	-0.257244	0.935488
H71	H	0.960490	-0.420562	0.942274
H72	H	0.615903	-0.420820	0.457468
H73	H	0.476476	-0.420822	0.457484
O74	O	1.145819	-0.250107	0.789755
C75	C	1.132730	-0.179957	0.805627
H76	H	1.074091	-0.176401	0.826593
H77	H	1.172973	-0.161551	0.849482
C78	C	1.215302	-0.137363	0.709648
C79	C	1.143279	-0.132995	0.735394
H80	H	1.221812	-0.108393	0.666327
H81	H	1.224123	-0.184623	0.698957
H82	H	1.248830	-0.122025	0.746201
H83	H	1.109753	-0.148340	0.698845
H84	H	1.134453	-0.085735	0.746078
O85	O	0.477481	-0.250273	0.272493
C86	C	0.400999	-0.259928	0.282989
H87	H	0.388204	-0.314275	0.309269
H88	H	0.380975	-0.218231	0.320511
C89	C	0.377500	-0.186636	0.175991
C90	C	0.361785	-0.253388	0.208263
H91	H	0.353310	-0.182599	0.129897
H92	H	0.429028	-0.180128	0.168920
H93	H	0.360814	-0.151896	0.207267
H94	H	0.378480	-0.288126	0.176992
H95	H	0.310259	-0.259901	0.215326
H96	H	0.622775	-0.257275	0.280130
H97	H	1.117824	-0.740305	0.300338
H98	H	1.151670	-0.937045	0.266652
O99	O	0.973667	-0.931380	0.444528
C100	C	0.988967	-0.949270	0.518647
H101	H	1.015042	-1.002612	0.522448
H102	H	1.028504	-0.907851	0.541732
C103	C	0.885021	-0.887192	0.558625
C104	C	0.917041	-0.952710	0.563293
H105	H	0.840655	-0.889311	0.586166
H106	H	0.874714	-0.875137	0.508690
H107	H	0.917975	-0.852683	0.577862
H108	H	0.884091	-0.987216	0.544049
H109	H	0.927341	-0.964771	0.613226
H110	H	1.146116	-1.070403	0.272275
H111	H	0.952506	-0.606981	0.465343
H112	H	0.975254	-1.070422	0.442914
H113	H	0.946956	-0.740337	0.470965
