data_functionalizedCrystal
_audit_creation_method	'MofGen! by Chris Wilmer'
_symmetry_space_group_name_H-M	'P1'
_symmetry_Int_Tables_number	1
_symmetry_cell_setting	triclinic
loop_
_symmetry_equiv_pos_as_xyz
  x,y,z
_cell_length_a	14.908783
_cell_length_b	14.908520
_cell_length_c	19.077174
_cell_angle_alpha	95.695642
_cell_angle_beta	84.258137
_cell_angle_gamma	96.791586
loop_
_atom_site_label
_atom_site_type_symbol
_atom_site_fract_x
_atom_site_fract_y
_atom_site_fract_z
Zn1	Zn	1.386092	-0.303716	-0.474112
Zn2	Zn	1.371818	-0.449650	-0.362341
Zn3	Zn	1.228659	-0.306395	-0.349453
Zn4	Zn	1.225949	-0.463759	-0.474056
O5	O	1.303129	-0.380880	-0.414990
O6	O	1.511131	-0.316049	-0.464702
O7	O	1.347988	-0.425864	-0.261708
O8	O	1.256651	-0.179109	-0.360619
O9	O	1.500644	-0.423266	-0.382584
O10	O	1.372316	-0.177140	-0.452206
O11	O	1.242810	-0.320616	-0.252239
O12	O	1.101367	-0.334296	-0.360564
O13	O	1.252031	-0.447312	-0.572987
O14	O	1.099376	-0.449910	-0.452110
O15	O	1.369688	-0.329729	-0.573028
O16	O	1.345360	-0.578453	-0.382530
O17	O	1.238191	-0.588819	-0.464606
C18	C	1.067459	-0.393925	-0.404933
C19	C	0.966638	-0.399529	-0.400648
C20	C	0.788101	-0.298578	-0.478250
C21	C	0.693371	-0.303840	-0.474227
C22	C	0.682446	-0.415309	-0.388573
C23	C	0.777177	-0.410047	-0.392597
C24	C	0.830001	-0.351681	-0.437438
C25	C	0.924732	-0.346424	-0.441465
C26	C	0.913806	-0.457888	-0.355808
C27	C	0.819076	-0.463150	-0.351784
C28	C	1.289958	-0.616547	-0.424977
C29	C	1.284407	-0.717363	-0.429277
C30	C	1.385695	-0.895949	-0.351968
C31	C	1.380482	-0.990674	-0.356005
C32	C	1.268775	-1.001540	-0.441393
C33	C	1.273988	-0.906815	-0.437355
C34	C	1.332448	-0.854022	-0.392640
C35	C	1.337656	-0.759296	-0.388599
C36	C	1.225954	-0.770163	-0.473990
C37	C	1.220741	-0.864888	-0.478028
C38	C	1.539720	-0.367785	-0.425087
C39	C	1.640540	-0.362204	-0.429390
C40	C	1.312149	-0.389795	-0.599374
C41	C	1.315993	-0.393594	-0.677948
C42	C	1.316378	-0.144292	-0.404981
C43	C	1.322024	-0.043473	-0.400716
C44	C	1.263041	-0.340583	-0.709931
C45	C	1.266649	-0.344160	-0.783760
C46	C	1.323214	-0.400745	-0.825603
C47	C	1.376168	-0.453762	-0.793614
C48	C	1.372555	-0.450189	-0.719787
C49	C	1.339888	-0.417312	-1.046931
C50	C	1.343499	-0.420879	-1.120763
C51	C	1.233978	-0.311277	-1.110903
C52	C	1.230373	-0.307705	-1.037075
C53	C	1.283324	-0.360726	-1.005093
N54	N	1.326905	-0.404401	-0.901067
N55	N	1.279627	-0.357075	-0.929630
C56	C	1.294200	-0.371931	-0.231323
C57	C	1.290547	-0.367867	-0.152747
H58	H	0.639421	-0.462817	-0.352057
N59	N	0.845084	-0.235650	-0.526625
H60	H	0.885335	-0.189989	-0.497845
H61	H	0.883871	-0.272062	-0.562556
H62	H	1.182594	-0.736016	-0.507107
H63	H	1.221185	-1.044539	-0.477802
N64	N	1.400707	-0.702348	-0.340377
H65	H	1.383302	-0.717203	-0.289964
H66	H	1.465116	-0.715736	-0.354930
N67	N	1.397008	-0.474486	-1.012443
H68	H	1.439605	-0.433813	-0.982047
H69	H	1.356235	-0.517076	-0.982055
H70	H	1.422220	-0.499840	-0.827689
N71	N	0.958997	-0.515175	-0.311790
H72	H	1.027024	-0.502990	-0.321144
H73	H	0.940751	-0.499445	-0.260013
H74	H	1.216985	-0.294500	-0.675867
H75	H	1.223526	-0.300996	-0.809797
H76	H	0.659260	-0.260596	-0.507459
N77	N	1.169385	-0.246653	-0.991945
H78	H	1.136392	-0.213606	-1.023410
H79	H	1.123835	-0.284397	-0.961074
H80	H	1.415682	-0.493350	-0.693748
H81	H	0.967740	-0.298900	-0.477978
N82	N	0.762100	-0.526091	-0.303416
H83	H	0.695731	-0.521366	-0.307057
H84	H	0.775576	-0.590503	-0.317789
H85	H	1.433290	-0.852965	-0.315554
H86	H	1.190867	-0.268111	-1.136951
H87	H	1.389565	-0.466958	-1.154830
H88	H	1.423843	-1.024807	-0.322887
H89	H	1.173147	-0.907885	-0.514435
