data_functionalizedCrystal
_audit_creation_method	'MofGen! by Chris Wilmer'
_symmetry_space_group_name_H-M	'P1'
_symmetry_Int_Tables_number	1
_symmetry_cell_setting	triclinic
loop_
_symmetry_equiv_pos_as_xyz
  x,y,z
_cell_length_a	16.625546
_cell_length_b	17.639874
_cell_length_c	17.640968
_cell_angle_alpha	87.863041
_cell_angle_beta	78.766516
_cell_angle_gamma	78.754311
loop_
_atom_site_label
_atom_site_type_symbol
_atom_site_fract_x
_atom_site_fract_y
_atom_site_fract_z
Zn1	Zn	-0.023208	-1.247786	-0.195118
Zn2	Zn	-0.189562	-1.222016	-0.068129
Zn3	Zn	-0.075653	-1.095117	-0.093758
Zn4	Zn	-0.178944	-1.120756	-0.220708
O5	O	-0.116842	-1.171419	-0.144428
O6	O	-0.027770	-1.350638	-0.156838
O7	O	-0.200843	-1.183667	0.034746
O8	O	0.044151	-1.115424	-0.107219
O9	O	-0.149989	-1.331704	-0.063539
O10	O	0.082682	-1.227589	-0.181688
O11	O	-0.117155	-1.090435	0.015917
O12	O	-0.106860	-0.992248	-0.132033
O13	O	-0.131894	-1.159122	-0.323588
O14	O	-0.182748	-1.011085	-0.225303
O15	O	-0.017475	-1.252450	-0.304787
O16	O	-0.301000	-1.208528	-0.088353
O17	O	-0.293200	-1.134133	-0.200452
C18	C	-0.149343	-0.974112	-0.184227
C19	C	-0.163263	-0.889707	-0.201270
C20	C	-0.011042	-0.563043	-0.014915
C21	C	-0.024135	-0.483733	-0.030941
C22	C	-0.103340	-0.503368	-0.127896
C23	C	-0.090251	-0.582682	-0.111881
C24	C	-0.044102	-0.612512	-0.055389
C25	C	-0.123310	-0.632151	-0.152355
C26	C	-0.110225	-0.711457	-0.136338
C27	C	-0.064080	-0.741293	-0.079848
C28	C	-0.031016	-0.691817	-0.039373
C29	C	-0.169464	-0.602318	-0.208842
C30	C	-0.202523	-0.651788	-0.249316
C31	C	-0.189433	-0.731096	-0.233304
C32	C	-0.143289	-0.760932	-0.176813
C33	C	-0.222497	-0.780571	-0.273779
C34	C	-0.209412	-0.859876	-0.257762
C35	C	-0.130203	-0.840237	-0.160796
C36	C	-0.326353	-1.171340	-0.144411
C37	C	-0.415964	-1.171381	-0.144415
C38	C	-0.744098	-1.171530	-0.144467
C39	C	-0.652801	-1.171487	-0.144455
C40	C	-0.580034	-1.171455	-0.144441
C41	C	-0.488731	-1.171413	-0.144429
C42	C	0.093494	-1.171521	-0.144458
C43	C	0.183127	-1.171565	-0.144471
C44	C	-0.067650	-1.211521	-0.342514
C45	C	-0.046688	-1.228610	-0.426927
C46	C	-0.084206	-0.369494	-0.104467
C47	C	-0.070277	-0.453898	-0.087418
C48	C	-0.275605	-1.041886	-0.753486
C49	C	-0.255895	-1.057960	-0.832801
C50	C	-0.136761	-1.155135	-0.813215
C51	C	-0.156459	-1.139067	-0.733897
C52	C	-0.225883	-1.082442	-0.704039
C53	C	-0.106736	-1.179622	-0.684450
C54	C	-0.126436	-1.163558	-0.605138
C55	C	-0.195858	-1.106938	-0.575274
C56	C	-0.245582	-1.066378	-0.624728
C57	C	-0.037316	-1.236250	-0.714309
C58	C	0.012406	-1.276806	-0.664862
C59	C	-0.007289	-1.260738	-0.585549
C60	C	-0.076711	-1.204118	-0.555685
C61	C	0.042435	-1.301298	-0.536096
C62	C	0.022736	-1.285234	-0.456784
C63	C	-0.096410	-1.188054	-0.476374
C64	C	-0.165777	-1.131516	0.052896
C65	C	-0.186488	-1.114575	0.137337
H66	H	-0.092609	-0.864529	-0.114807
C67	C	0.018965	-0.724306	0.022023
C68	C	-0.031205	-0.759963	0.079954
C69	C	0.014809	-0.789912	0.136516
H70	H	0.036803	-0.683563	0.043927
H71	H	0.066370	-0.761191	-0.000812
H72	H	-0.078594	-0.723081	0.102786
H73	H	-0.049043	-0.800716	0.058074
H74	H	0.062214	-0.826797	0.113681
H75	H	0.032645	-0.749164	0.158413
H76	H	-0.019222	-0.814115	0.175825
C77	C	0.011681	-0.429894	0.012932
C78	C	-0.009662	-0.354055	-0.013176
C79	C	0.023313	-0.304438	0.027222
H80	H	0.070772	-0.445081	0.004372
H81	H	-0.010579	-0.432487	0.066612
H82	H	0.012601	-0.351465	-0.066843
H83	H	-0.068748	-0.338845	-0.004615
H84	H	0.001054	-0.307030	0.080901
H85	H	0.082403	-0.319631	0.018659
H86	H	0.008830	-0.252974	0.009518
H87	H	-0.140918	-0.479069	-0.173889
C88	C	0.039046	-0.595283	0.046478
C89	C	0.065184	-0.534985	0.078512
C90	C	0.111310	-0.564654	0.135078
H91	H	0.086515	-0.632116	0.023708
H92	H	0.005125	-0.619470	0.085900
H93	H	0.099103	-0.510811	0.039098
H94	H	0.017732	-0.498147	0.101298
H95	H	0.077389	-0.588841	0.174500
H96	H	0.158775	-0.601487	0.112301
H97	H	0.129043	-0.523746	0.156825
C98	C	-0.050046	-0.827395	-0.062445
C99	C	-0.127297	-0.849672	-0.037662
C100	C	-0.114403	-0.928984	-0.021631
H101	H	-0.017874	-0.838170	-0.022987
H102	H	-0.021080	-0.855310	-0.107850
H103	H	-0.156250	-0.821766	0.007737
H104	H	-0.159481	-0.838916	-0.077109
H105	H	-0.085437	-0.956899	-0.067036
H106	H	-0.082229	-0.939752	0.017825
H107	H	-0.166814	-0.944110	-0.004821
H108	H	-0.236331	-0.900156	-0.290721
H109	H	-0.180116	-0.537742	-0.221881
C110	C	-0.252566	-0.619254	-0.310648
C111	C	-0.256934	-0.539216	-0.316026
C112	C	-0.303015	-0.509224	-0.372526
H113	H	-0.307398	-0.629892	-0.296891
H114	H	-0.226016	-0.642558	-0.359092
H115	H	-0.283487	-0.515919	-0.267593
H116	H	-0.202115	-0.528557	-0.329793
H117	H	-0.276465	-0.532528	-0.420970
H118	H	-0.357845	-0.519866	-0.358764
H119	H	-0.305979	-0.454916	-0.376188
C120	C	0.117793	-1.362723	-0.568672
C121	C	0.124409	-1.368102	-0.648715
C122	C	0.193824	-1.424672	-0.678750
H123	H	0.111245	-1.411156	-0.545458
H124	H	0.166946	-1.349005	-0.557974
H125	H	0.075268	-1.381824	-0.659406
H126	H	0.130970	-1.319683	-0.671949
H127	H	0.242978	-1.410954	-0.668052
H128	H	0.187270	-1.473100	-0.655530
H129	H	0.198328	-1.428324	-0.733062
C130	C	-0.171902	-1.126690	-0.443956
C131	C	-0.244172	-1.147117	-0.459881
C132	C	-0.313732	-1.090624	-0.430014
H133	H	-0.165415	-1.078261	-0.467209
H134	H	-0.176560	-1.122952	-0.389630
H135	H	-0.239515	-1.150846	-0.514197
H136	H	-0.250686	-1.195538	-0.436627
H137	H	-0.318390	-1.086886	-0.375688
H138	H	-0.307237	-1.042198	-0.453270
H139	H	-0.362776	-1.104479	-0.440809
C140	C	0.076847	-1.329319	-0.403225
C141	C	0.141875	-1.382330	-0.446351
C142	C	0.191744	-1.422950	-0.397039
H143	H	0.043865	-1.356192	-0.365588
H144	H	0.099561	-1.294037	-0.378165
H145	H	0.119163	-1.417607	-0.471398
H146	H	0.174878	-1.355477	-0.483986
H147	H	0.214458	-1.387668	-0.371979
H148	H	0.158755	-1.449818	-0.359404
H149	H	0.235876	-1.458918	-0.426294
H150	H	-0.021281	-1.249330	-0.778889
C151	C	-0.272504	-0.748296	-0.335214
C152	C	-0.233223	-0.782834	-0.406482
C153	C	-0.279268	-0.753130	-0.463094
H154	H	-0.275589	-0.693989	-0.339058
H155	H	-0.327301	-0.759039	-0.321434
H156	H	-0.178440	-0.772085	-0.420259
H157	H	-0.230137	-0.837140	-0.402664
H158	H	-0.334066	-0.763873	-0.449313
H159	H	-0.282351	-0.698823	-0.466930
H160	H	-0.252627	-0.776564	-0.511453
C161	C	-0.061288	-1.216545	-0.845549
C162	C	0.010979	-1.196144	-0.829589
C163	C	0.080521	-1.252700	-0.859353
H164	H	-0.056557	-1.220356	-0.899868
H165	H	-0.067863	-1.264941	-0.822233
H166	H	0.017553	-1.147761	-0.852908
H167	H	0.006275	-1.192339	-0.775276
H168	H	0.073946	-1.301095	-0.836037
H169	H	0.085244	-1.256506	-0.913671
H170	H	0.129562	-1.238869	-0.848523
C171	C	-0.321031	-1.004914	-0.592442
C172	C	-0.360381	-0.972849	-0.652716
C173	C	-0.429897	-0.916246	-0.622999
H174	H	-0.303439	-0.965501	-0.568183
H175	H	-0.359096	-1.027688	-0.555663
H176	H	-0.322322	-0.950075	-0.689481
H177	H	-0.377992	-1.012242	-0.676980
H178	H	-0.467962	-0.939020	-0.586220
H179	H	-0.412297	-0.876839	-0.598741
H180	H	-0.456609	-0.894488	-0.663889
H181	H	-0.332121	-0.995759	-0.729178
C182	C	-0.309962	-1.013812	-0.886368
C183	C	-0.374963	-0.960774	-0.843243
C184	C	-0.424779	-0.920088	-0.892563
H185	H	-0.332712	-1.049028	-0.911460
H186	H	-0.276910	-0.986960	-0.923981
H187	H	-0.408010	-0.987625	-0.805644
H188	H	-0.352237	-0.925542	-0.818152
H189	H	-0.391727	-0.893236	-0.930175
H190	H	-0.447523	-0.955310	-0.917653
H191	H	-0.468883	-0.884093	-0.863310
H192	H	-0.211898	-1.093862	-0.510692
H193	H	0.068929	-1.322912	-0.689183
