data_functionalizedCrystal
_audit_creation_method	'MofGen! by Chris Wilmer'
_symmetry_space_group_name_H-M	'P1'
_symmetry_Int_Tables_number	1
_symmetry_cell_setting	triclinic
loop_
_symmetry_equiv_pos_as_xyz
  x,y,z
_cell_length_a	19.288840
_cell_length_b	19.288859
_cell_length_c	17.766277
_cell_angle_alpha	90.004964
_cell_angle_beta	89.983379
_cell_angle_gamma	96.870129
loop_
_atom_site_label
_atom_site_type_symbol
_atom_site_fract_x
_atom_site_fract_y
_atom_site_fract_z
O1	O	-0.921362	0.086565	0.062719
O2	O	-0.421362	0.586565	0.562719
O3	O	-0.719099	0.098272	0.062693
O4	O	-0.219099	0.598272	0.562693
O5	O	-0.826077	-0.008713	0.062703
O6	O	-0.326077	0.491287	0.562703
O7	O	-0.814384	0.193550	0.062710
O8	O	-0.314384	0.693550	0.562710
O9	O	-0.826058	-0.008716	-0.062486
O10	O	-0.326058	0.491284	0.437514
O11	O	-0.719080	0.098269	-0.062495
O12	O	-0.219080	0.598269	0.437505
O13	O	-0.921343	0.086562	-0.062469
O14	O	-0.421343	0.586562	0.437531
Cu15	Cu	-0.820210	0.092415	-0.073913
Cu16	Cu	-0.320210	0.592415	0.426087
Cu17	Cu	-0.820232	0.092419	0.074137
Cu18	Cu	-0.320232	0.592419	0.574137
O19	O	-0.814365	0.193547	-0.062478
O20	O	-0.314365	0.693547	0.437522
C21	C	-0.693213	0.097897	0.000096
C22	C	-0.193213	0.597897	0.500096
C23	C	-0.616108	0.096775	0.000086
C24	C	-0.116108	0.596775	0.500086
C25	C	-0.825692	-0.034591	0.000109
C26	C	-0.325692	0.465409	0.500109
C27	C	-0.824565	-0.111694	0.000110
C28	C	-0.324565	0.388306	0.500110
C29	C	-0.947230	0.086937	0.000130
C30	C	-0.447230	0.586937	0.500130
C31	C	-1.024334	0.088059	0.000145
C32	C	-0.524334	0.588059	0.500145
C33	C	-0.579915	0.096237	0.068328
C34	C	-0.079915	0.596237	0.568328
C35	C	-0.507468	0.095175	0.068337
C36	C	-0.007468	0.595175	0.568337
C37	C	-0.471219	0.094636	0.000100
C38	C	0.028781	0.594636	0.500100
C39	C	-0.507420	0.095178	-0.068151
C40	C	-0.007420	0.595178	0.431849
C41	C	-0.579865	0.096247	-0.068158
C42	C	-0.079865	0.596247	0.431842
C43	C	-0.361884	0.052257	-0.052170
C44	C	0.138116	0.552257	0.447830
C45	C	-0.289442	0.051184	-0.052160
C46	C	0.210558	0.551184	0.447840
C47	C	-0.247776	0.091342	0.000120
C48	C	0.252224	0.591342	0.500120
C49	C	-0.278562	0.132565	0.052402
C50	C	0.221438	0.632565	0.552402
C51	C	-0.351007	0.133634	0.052395
C52	C	0.148993	0.633634	0.552395
C53	C	-0.392665	0.093478	0.000100
C54	C	0.107335	0.593478	0.500100
C55	C	-0.133027	0.089654	0.068376
C56	C	0.366973	0.589654	0.568376
C57	C	-0.060578	0.088597	0.068383
C58	C	0.439422	0.588597	0.568383
C59	C	-0.060533	0.088592	-0.068107
C60	C	0.439467	0.588592	0.431893
C61	C	-0.132979	0.089657	-0.068112
C62	C	0.367021	0.589657	0.431888
C63	C	-0.169223	0.090185	0.000132
C64	C	0.330777	0.590185	0.500132
C65	C	-0.879709	-0.675740	0.000137
C66	C	-0.379709	-0.175740	0.500137
C67	C	-0.880774	-0.603294	0.000131
C68	C	-0.380774	-0.103294	0.500131
C69	C	-0.818004	-0.558581	0.000123
C70	C	-0.318004	-0.058581	0.500123
C71	C	-0.754164	-0.586321	0.000102
C72	C	-0.254164	-0.086321	0.500102
C73	C	-0.753101	-0.658766	0.000101
C74	C	-0.253101	-0.158766	0.500101
C75	C	-0.771197	-0.437302	0.043974
C76	C	-0.271197	0.062698	0.543974
C77	C	-0.772264	-0.364859	0.043980
C78	C	-0.272264	0.135141	0.543980
C79	C	-0.821282	-0.335136	0.000122
C80	C	-0.321282	0.164864	0.500122
C81	C	-0.869246	-0.377867	-0.043731
C82	C	-0.369246	0.122133	0.456269
C83	C	-0.868182	-0.450312	-0.043732
C84	C	-0.368182	0.049688	0.456268
C85	C	-0.819150	-0.480026	0.000123
C86	C	-0.319150	0.019974	0.500123
C87	C	-0.886273	-0.228850	0.000130
C88	C	-0.386273	0.271150	0.500130
C89	C	-0.887336	-0.156402	0.000119
C90	C	-0.387336	0.343598	0.500119
C91	C	-0.760724	-0.139430	0.000098
C92	C	-0.260724	0.360570	0.500098
C93	C	-0.759663	-0.211877	0.000102
C94	C	-0.259663	0.288123	0.500102
C95	C	-0.822440	-0.256583	0.000122
C96	C	-0.322440	0.243417	0.500122
C97	C	-0.814750	0.219425	0.000117
C98	C	-0.314750	0.719425	0.500117
C99	C	-0.815877	0.296528	0.000121
C100	C	-0.315877	0.796528	0.500121
N101	N	-0.820199	0.092412	-0.178043
N102	N	-0.320199	0.592412	0.321957
C103	C	-0.862186	0.134432	-0.217416
C104	C	-0.362186	0.634432	0.282584
C105	C	-0.862197	0.134430	-0.296218
C106	C	-0.362197	0.634430	0.203782
C107	C	-0.820208	0.092416	-0.335644
C108	C	-0.320208	0.592416	0.164356
C109	C	-0.778218	0.050388	-0.296261
C110	C	-0.278218	0.550388	0.203739
C111	C	-0.778214	0.050385	-0.217461
C112	C	-0.278214	0.550385	0.282539
C113	C	-0.757595	0.090665	-0.460511
C114	C	-0.257595	0.590665	0.039489
C115	C	-0.757598	0.090672	-0.539310
C116	C	-0.257598	0.590672	-0.039310
C117	C	-0.820222	0.092418	-0.578690
C118	C	-0.320222	0.592418	-0.078690
C119	C	-0.882845	0.094172	-0.539261
C120	C	-0.382845	0.594172	-0.039261
C121	C	-0.882841	0.094170	-0.460461
C122	C	-0.382841	0.594170	0.039539
C123	C	-0.820209	0.092413	-0.421089
C124	C	-0.320209	0.592413	0.078911
C125	C	-0.862225	0.134439	-0.703509
C126	C	-0.362225	0.634439	-0.203509
C127	C	-0.862237	0.134432	-0.782312
C128	C	-0.362237	0.634432	-0.282312
C129	C	-0.778252	0.050393	-0.782354
C130	C	-0.278252	0.550393	-0.282354
C131	C	-0.778246	0.050396	-0.703552
C132	C	-0.278246	0.550396	-0.203552
C133	C	-0.820231	0.092422	-0.664134
C134	C	-0.320231	0.592422	-0.164134
N135	N	-0.820249	0.092416	0.178267
N136	N	-0.320249	0.592416	0.678267
H137	H	-0.477994	0.094739	0.123910
H138	H	0.022006	0.594739	0.623910
H139	H	-0.933839	0.095598	-0.571323
H140	H	-0.433839	0.595598	-0.071323
N141	N	-0.618995	0.096817	0.141936
N142	N	-0.118995	0.596817	0.641936
H143	H	-0.643277	0.140310	0.144980
H144	H	-0.143277	0.640310	0.644980
H145	H	-0.654793	0.054183	0.144935
H146	H	-0.154793	0.554183	0.644935
H147	H	-0.376070	0.167201	0.094963
H148	H	0.123930	0.667201	0.594963
N149	N	-0.732958	0.005075	-0.661079
N150	N	-0.232958	0.505075	-0.161079
H151	H	-0.706359	-0.021542	-0.698010
H152	H	-0.206359	0.478458	-0.198010
H153	H	-0.698905	0.035449	-0.628393
H154	H	-0.198905	0.535449	-0.128393
N155	N	-0.947416	-0.723956	0.000143
N156	N	-0.447416	-0.223956	0.500143
H157	H	-0.937059	-0.774059	0.000139
H158	H	-0.437059	-0.274059	0.500139
H159	H	-0.975252	-0.714997	0.046557
H160	H	-0.475252	-0.214997	0.546557
H161	H	-0.709615	-0.103026	0.000085
H162	H	-0.209615	0.396974	0.500085
H163	H	-0.744022	0.016167	-0.185403
H164	H	-0.244022	0.516167	0.314597
N165	N	-0.953982	-0.277067	0.000137
N166	N	-0.453982	0.222933	0.500137
H167	H	-0.956355	-0.307507	-0.046269
H168	H	-0.456355	0.192493	0.453731
H169	H	-0.956334	-0.307454	0.046576
H170	H	-0.456334	0.192546	0.546576
H171	H	-0.706594	0.089248	-0.428455
H172	H	-0.206594	0.589248	0.071545
H173	H	-0.731272	-0.461495	0.079683
H174	H	-0.231272	0.038505	0.579683
H175	H	-0.932755	-0.580710	0.000144
H176	H	-0.432755	-0.080710	0.500144
N177	N	-0.618906	0.096816	-0.141767
N178	N	-0.118906	0.596816	0.358233
H179	H	-0.670299	0.097572	-0.131416
H180	H	-0.170299	0.597572	0.368584
H181	H	-0.600461	0.139679	-0.171565
H182	H	-0.100461	0.639679	0.328435
H183	H	-0.031111	0.088163	0.123956
H184	H	0.468889	0.588163	0.623956
N185	N	-0.907484	0.179754	-0.338698
N186	N	-0.407484	0.679754	0.161302
H187	H	-0.934081	0.206376	-0.301770
H188	H	-0.434081	0.706376	0.198230
H189	H	-0.877087	0.213786	-0.371398
H190	H	-0.377087	0.713786	0.128602
N191	N	-0.256241	0.006725	-0.108548
N192	N	0.243759	0.506725	0.391452
H193	H	-0.204027	0.012137	-0.100608
H194	H	0.295973	0.512137	0.399392
H195	H	-0.275717	-0.043835	-0.101554
H196	H	0.224283	0.456165	0.398446
N197	N	-0.907480	0.179749	-0.174905
N198	N	-0.407480	0.679749	0.325095
H199	H	-0.901108	0.173372	-0.119009
H200	H	-0.401108	0.673372	0.380991
H201	H	-0.893596	0.230304	-0.188676
H202	H	-0.393596	0.730304	0.311324
H203	H	-0.907235	-0.485101	-0.079441
H204	H	-0.407235	0.014899	0.420559
H205	H	-0.395804	0.019554	-0.094746
H206	H	0.104196	0.519554	0.405254
H207	H	-0.896412	0.168659	-0.671414
H208	H	-0.396412	0.668659	-0.171414
N209	N	-0.233634	0.175881	0.108797
N210	N	0.266366	0.675881	0.608797
H211	H	-0.183069	0.168953	0.100868
H212	H	0.316931	0.668953	0.600868
H213	H	-0.239491	0.226814	0.101797
H214	H	0.260509	0.726814	0.601797
N215	N	-0.468389	0.094152	-0.141749
N216	N	0.031611	0.594152	0.358251
H217	H	-0.417024	0.093241	-0.131389
H218	H	0.082976	0.593241	0.368611
H219	H	-0.487020	0.051144	-0.171210
H220	H	0.012980	0.551144	0.328790
N221	N	-0.907522	0.179761	-0.824781
N222	N	-0.407522	0.679761	-0.324781
H223	H	-0.901158	0.173384	-0.880682
H224	H	-0.401158	0.673384	-0.380682
H225	H	-0.958081	0.165911	-0.810987
H226	H	-0.458081	0.665911	-0.310987
N227	N	-0.172124	0.090227	0.141977
N228	N	0.327876	0.590227	0.641977
H229	H	-0.138199	0.089731	0.185212
H230	H	0.361801	0.589731	0.685212
H231	H	-0.196412	0.133719	0.144947
H232	H	0.303588	0.633719	0.644947
N233	N	-0.686461	-0.538100	0.000078
N234	N	-0.186461	-0.038100	0.500078
H235	H	-0.696820	-0.487998	0.000080
H236	H	-0.196820	0.012002	0.500080
H237	H	-0.658628	-0.547050	0.046477
H238	H	-0.158628	-0.047050	0.546477
N239	N	-0.684251	-0.688681	0.000078
N240	N	-0.184251	-0.188681	0.500078
H241	H	-0.644646	-0.649366	0.000067
H242	H	-0.144646	-0.149366	0.500067
H243	H	-0.681054	-0.718366	0.046486
H244	H	-0.181054	-0.218366	0.546486
N245	N	-0.732969	0.005070	-0.824865
N246	N	-0.232969	0.505070	-0.324865
H247	H	-0.739344	0.011445	-0.880760
H248	H	-0.239344	0.511445	-0.380760
H249	H	-0.682408	0.018925	-0.811111
H250	H	-0.182408	0.518925	-0.311111
H251	H	-0.162449	0.090090	-0.123682
H252	H	0.337551	0.590090	0.376318
N253	N	-0.950377	0.096048	-0.417930
N254	N	-0.450377	0.596048	0.082070
H255	H	-0.946840	0.139160	-0.385229
H256	H	-0.446840	0.639160	0.114771
H257	H	-0.990019	0.097126	-0.454874
H258	H	-0.490019	0.597126	0.045126
N259	N	-0.690059	0.088767	-0.581829
N260	N	-0.190059	0.588767	-0.081829
H261	H	-0.656339	0.131029	-0.568123
H262	H	-0.156339	0.631029	-0.068123
H263	H	-0.669088	0.044929	-0.568104
H264	H	-0.169088	0.544929	-0.068104
H265	H	-0.744031	0.016179	-0.328366
H266	H	-0.244031	0.516179	0.171634
H267	H	-0.031019	0.088158	-0.123667
H268	H	0.468981	0.588158	0.376333
H269	H	-0.939317	-0.133825	0.000128
H270	H	-0.439317	0.366175	0.500128
H271	H	-0.909157	-0.353668	-0.079450
H272	H	-0.409157	0.146332	0.420550
H273	H	-0.707684	-0.234455	0.000094
H274	H	-0.207684	0.265545	0.500094
N275	N	-0.720539	-0.318774	0.091281
N276	N	-0.220539	0.181226	0.591281
H277	H	-0.689319	-0.348594	0.119058
H278	H	-0.189319	0.151406	0.619058
H279	H	-0.691196	-0.284723	0.057634
H280	H	-0.191196	0.215277	0.557634
