data_functionalizedCrystal
_audit_creation_method	'MofGen! by Chris Wilmer'
_symmetry_space_group_name_H-M	'P1'
_symmetry_Int_Tables_number	1
_symmetry_cell_setting	triclinic
loop_
_symmetry_equiv_pos_as_xyz
  x,y,z
_cell_length_a	6.817900
_cell_length_b	9.582860
_cell_length_c	11.168152
_cell_angle_alpha	91.014144
_cell_angle_beta	108.508980
_cell_angle_gamma	111.206767
loop_
_atom_site_label
_atom_site_type_symbol
_atom_site_fract_x
_atom_site_fract_y
_atom_site_fract_z
V1	V	-4.124190	-0.207078	-0.393468
O2	O	-4.068784	0.009928	-0.386216
O3	O	-4.114535	-0.410579	-0.390548
O4	O	-4.100263	-0.203903	-0.565177
O5	O	-4.083155	-0.198179	-0.210378
V6	V	-4.599626	-0.181121	-0.371597
O7	O	-4.403187	-0.264018	-0.441444
O8	O	-4.770827	-0.124180	-0.323620
O9	O	-4.386075	0.022380	-0.374517
O10	O	-4.772429	-0.398126	-0.378849
O11	O	-4.758058	-0.190020	-0.554687
O12	O	-4.400347	-0.184296	-0.199887
C13	C	-3.968169	-0.460188	-0.384282
C14	C	-4.041725	-0.626552	-0.383039
C15	C	-3.949962	-0.196550	-0.607037
C16	C	-4.011939	-0.195301	-0.747409
C17	C	-4.278948	-0.200550	-0.961168
C18	C	-4.214896	-0.201842	-0.816086
C19	C	-4.195783	0.071981	-0.380779
C20	C	-4.101467	0.238344	-0.382031
C21	C	-4.213990	-0.191653	-0.158021
C22	C	-4.131250	-0.192895	-0.017648
H23	H	-4.341239	-0.208396	-0.767492
O24	O	-3.861274	-0.187280	-0.805479
C25	C	-3.818235	-0.055926	-0.864381
H26	H	-3.965194	-0.018825	-0.883925
H27	H	-3.658600	0.038490	-0.798551
C28	C	-3.607849	-0.135668	-0.967241
C29	C	-3.788356	-0.090107	-0.991256
H30	H	-3.589407	-0.156748	-1.045501
H31	H	-3.636836	-0.224161	-0.927555
H32	H	-3.474839	-0.056980	-0.912379
H33	H	-3.921365	-0.168802	-1.046103
H34	H	-3.759390	-0.001628	-1.030955
H35	H	-4.452821	-0.206156	-1.020223
O36	O	-3.923999	-0.186455	-0.947118
C37	C	-3.945266	-0.316944	-0.887478
H38	H	-4.118754	-0.366990	-0.879074
H39	H	-3.922657	-0.403990	-0.946986
C40	C	-3.551602	-0.212823	-0.763618
C41	C	-3.764677	-0.274284	-0.753287
H42	H	-3.440201	-0.186513	-0.680845
H43	H	-3.537271	-0.124913	-0.803802
H44	H	-3.532793	-0.285372	-0.813213
H45	H	-3.783493	-0.201729	-0.703707
H46	H	-3.779007	-0.362182	-0.713092
