data_functionalizedCrystal
_audit_creation_method	'MofGen! by Chris Wilmer'
_symmetry_space_group_name_H-M	'P1'
_symmetry_Int_Tables_number	1
_symmetry_cell_setting	triclinic
loop_
_symmetry_equiv_pos_as_xyz
  x,y,z
_cell_length_a	11.792241
_cell_length_b	27.732048
_cell_length_c	10.868271
_cell_angle_alpha	89.989927
_cell_angle_beta	89.999893
_cell_angle_gamma	83.418036
loop_
_atom_site_label
_atom_site_type_symbol
_atom_site_fract_x
_atom_site_fract_y
_atom_site_fract_z
O1	O	1.504789	0.066248	-0.102217
O2	O	1.174230	0.073076	-0.102248
O3	O	1.349776	-0.000675	-0.102208
O4	O	1.329243	0.139999	-0.102257
O5	O	1.349762	-0.000678	0.102437
O6	O	1.174215	0.073073	0.102397
O7	O	1.504775	0.066245	0.102427
Zn8	Zn	1.339493	0.069659	0.134904
Zn9	Zn	1.339512	0.069662	-0.134724
O10	O	1.329229	0.139996	0.102388
C11	C	1.131945	0.072645	0.000071
C12	C	1.005973	0.071362	0.000061
C13	C	0.775336	0.069001	0.000097
C14	C	0.903679	0.070313	0.000077
C15	C	1.349338	-0.018686	0.000118
C16	C	1.348040	-0.072348	0.000128
C17	C	1.443606	-0.410609	0.000073
C18	C	1.438790	-0.612297	0.000055
O19	O	1.526178	-0.643045	0.000010
N20	N	1.334698	-0.632024	0.000047
C21	C	1.231803	-0.601327	0.000035
O22	O	1.143157	-0.622734	0.000015
C23	C	1.236620	-0.399640	0.000044
C24	C	1.340718	-0.379915	0.000065
C25	C	1.547695	-0.390884	0.000093
C26	C	1.548898	-0.340465	0.000104
C27	C	1.446011	-0.309771	0.000095
C28	C	1.341921	-0.329496	0.000076
C29	C	1.133726	-0.368943	0.000023
C30	C	1.134940	-0.318519	0.000022
C31	C	1.239038	-0.298794	0.000043
C32	C	1.240237	-0.248384	0.000079
N33	N	1.344328	-0.228656	0.000087
C34	C	1.447215	-0.259350	0.000095
C35	C	1.229282	-0.707215	0.000033
C36	C	1.228077	-0.757637	0.000033
C37	C	1.435065	-0.768603	0.000051
C38	C	1.436268	-0.718181	0.000060
C39	C	1.333374	-0.687488	0.000041
C40	C	1.449733	-0.153466	0.000120
C41	C	1.450927	-0.103042	0.000136
C42	C	1.243941	-0.092080	0.000111
C43	C	1.242746	-0.142500	0.000102
C44	C	1.345652	-0.173192	0.000102
O45	O	1.152896	-0.217607	0.000111
O46	O	1.535849	-0.237933	0.000088
C47	C	1.442403	-0.461028	0.000062
C48	C	1.338313	-0.480753	0.000043
C49	C	1.235426	-0.450060	0.000034
C50	C	1.337108	-0.531175	0.000043
C51	C	1.439996	-0.561868	0.000051
C52	C	1.544087	-0.542141	0.000059
C53	C	1.545290	-0.491722	0.000070
C54	C	1.131334	-0.469787	0.000026
C55	C	1.130140	-0.520207	0.000016
C56	C	1.233027	-0.550900	0.000024
C57	C	1.547059	0.066676	0.000106
C58	C	1.673032	0.067959	0.000108
C59	C	1.329667	0.158007	0.000059
C60	C	1.330965	0.211669	0.000041
N61	N	1.339488	0.069656	0.318918
N62	N	1.339525	0.069662	-0.318738
C63	C	1.339506	0.069661	0.569924
C64	C	1.339492	0.069660	0.430246
H65	H	1.535700	-0.086985	0.000156
O66	O	1.549768	-0.183227	-0.000038
C67	C	1.613019	-0.174237	-0.106028
H68	H	1.584456	-0.136067	-0.141364
H69	H	1.598018	-0.201851	-0.180250
C70	C	1.776043	-0.225559	-0.030408
C71	C	1.740968	-0.178676	-0.073803
H72	H	1.854968	-0.228300	-0.010534
H73	H	1.733429	-0.231617	0.040997
H74	H	1.763532	-0.248565	-0.092268
H75	H	1.753465	-0.155672	-0.011939
H76	H	1.783587	-0.172615	-0.145198
O77	O	1.644107	-0.571912	-0.000100
C78	C	1.707354	-0.562930	-0.106098
H79	H	1.678815	-0.524756	-0.141426
H80	H	1.692318	-0.590538	-0.180322
C81	C	1.870352	-0.614276	-0.030510
C82	C	1.835308	-0.567389	-0.073894
H83	H	1.949281	-0.617029	-0.010648
H84	H	1.827742	-0.620329	0.040901
H85	H	1.857813	-0.637278	-0.092370
H86	H	1.847834	-0.544389	-0.012029
H87	H	1.877924	-0.561332	-0.145295
H88	H	1.631483	-0.415870	0.000095
O89	O	1.031459	-0.439925	0.000186
C90	C	1.025938	-0.410451	0.106196
H91	H	1.115970	-0.407658	0.141537
H92	H	0.974407	-0.427188	0.180405
C93	C	0.857318	-0.362850	0.030604
C94	C	0.967898	-0.359416	0.074005
H95	H	0.821512	-0.331369	0.010751
H96	H	0.861035	-0.382708	-0.040815
H97	H	0.814390	-0.376799	0.092453
H98	H	1.010828	-0.345472	0.012152
H99	H	0.964188	-0.339554	0.145413
H100	H	1.143310	-0.773692	0.000037
H101	H	1.633666	-0.324410	0.000116
H102	H	1.045364	-0.536261	0.000010
O103	O	1.537488	-0.699102	0.000013
C104	C	1.628032	-0.737012	0.000055
H105	H	1.596826	-0.771342	-0.038684
H106	H	1.659720	-0.744066	0.098236
C107	C	1.764617	-0.680352	-0.032616
C108	C	1.726290	-0.722516	-0.080206
H109	H	1.825229	-0.671410	-0.082119
H110	H	1.703616	-0.654811	-0.032639
H111	H	1.791015	-0.686236	0.049201
H112	H	1.699879	-0.716630	-0.162015
H113	H	1.787289	-0.748055	-0.080198
H114	H	1.518839	-0.793603	0.000058
H115	H	1.145488	-0.682229	0.000018
H116	H	1.048958	-0.384994	-0.000001
H117	H	1.051148	-0.293530	0.000005
O118	O	1.141528	-0.161583	0.000031
C119	C	1.050976	-0.123677	0.000062
H120	H	1.082183	-0.089338	-0.038655
H121	H	1.019268	-0.116642	0.098237
C122	C	0.914412	-0.180337	-0.032669
C123	C	0.952738	-0.138162	-0.080232
H124	H	0.853811	-0.189272	-0.082193
H125	H	0.975417	-0.205875	-0.032685
H126	H	0.887997	-0.174469	0.049143
H127	H	0.979166	-0.144032	-0.162036
H128	H	0.891735	-0.112624	-0.080231
H129	H	1.160173	-0.067080	0.000109
H130	H	1.630058	-0.475667	0.000087
