data_functionalizedCrystal
_audit_creation_method	'MofGen! by Chris Wilmer'
_symmetry_space_group_name_H-M	'P1'
_symmetry_Int_Tables_number	1
_symmetry_cell_setting	triclinic
loop_
_symmetry_equiv_pos_as_xyz
  x,y,z
_cell_length_a	19.805407
_cell_length_b	16.959453
_cell_length_c	19.805399
_cell_angle_alpha	89.972778
_cell_angle_beta	89.975799
_cell_angle_gamma	90.021973
loop_
_atom_site_label
_atom_site_type_symbol
_atom_site_fract_x
_atom_site_fract_y
_atom_site_fract_z
Zn1	Zn	1.034753	-0.314716	-0.382805
Zn2	Zn	1.368086	0.018618	-0.049472
Zn3	Zn	1.701420	0.351951	0.283862
Zn4	Zn	1.034675	-0.446898	-0.269617
Zn5	Zn	1.368008	-0.113565	0.063716
Zn6	Zn	1.701342	0.219769	0.397049
Zn7	Zn	0.921568	-0.314736	-0.269620
Zn8	Zn	1.254901	0.018598	0.063713
Zn9	Zn	1.588234	0.351931	0.397046
Zn10	Zn	0.921538	-0.446854	-0.382755
Zn11	Zn	1.254872	-0.113521	-0.049422
Zn12	Zn	1.588205	0.219812	0.283912
O13	O	0.978134	-0.380801	-0.326199
O14	O	1.311467	-0.047468	0.007134
O15	O	1.644800	0.285866	0.340467
O16	O	1.129459	-0.332260	-0.367810
O17	O	1.462793	0.001073	-0.034477
O18	O	1.796126	0.334407	0.298857
O19	O	1.019651	-0.429393	-0.174901
O20	O	1.352984	-0.096060	0.158432
O21	O	1.686318	0.237273	0.491766
O22	O	0.936627	-0.204122	-0.284657
O23	O	1.269960	0.129211	0.048677
O24	O	1.603293	0.462544	0.382010
O25	O	1.129402	-0.429374	-0.284652
O26	O	1.462735	-0.096040	0.048682
O27	O	1.796069	0.237293	0.382015
O28	O	1.019784	-0.204107	-0.367813
O29	O	1.353117	0.129226	-0.034480
O30	O	1.686450	0.462559	0.298854
O31	O	0.936551	-0.332294	-0.174903
O32	O	1.269885	0.001039	0.158430
O33	O	1.603218	0.334373	0.491763
O34	O	0.826847	-0.332252	-0.284608
O35	O	1.160181	0.001082	0.048725
O36	O	1.493514	0.334415	0.382058
O37	O	0.936577	-0.429299	-0.477478
O38	O	1.269910	-0.095966	-0.144145
O39	O	1.603244	0.237367	0.189188
O40	O	0.826826	-0.429319	-0.367728
O41	O	1.160159	-0.095985	-0.034394
O42	O	1.493492	0.237348	0.298939
O43	O	1.019755	-0.332217	-0.477515
O44	O	1.353089	0.001116	-0.144182
O45	O	1.686422	0.334449	0.189152
O46	O	1.019623	-0.557503	-0.284603
O47	O	1.352956	-0.224170	0.048730
O48	O	1.686289	0.109163	0.382064
O49	O	0.936501	-0.557471	-0.367725
O50	O	1.269835	-0.224138	-0.034392
O51	O	1.603168	0.109196	0.298942
C52	C	0.802278	-0.380783	-0.326163
C53	C	1.135611	-0.047450	0.007170
C54	C	1.468944	0.285883	0.340503
C55	C	0.727046	-0.380795	-0.326164
C56	C	1.060379	-0.047461	0.007169
C57	C	1.393712	0.285872	0.340503
C58	C	0.265261	-0.431439	-0.369455
C59	C	0.598594	-0.098105	-0.036122
C60	C	0.931928	0.235228	0.297212
C61	C	0.335950	-0.431437	-0.369441
C62	C	0.669283	-0.098104	-0.036107
C63	C	1.002616	0.235229	0.297226
C64	C	0.371284	-0.380820	-0.326226
C65	C	0.704617	-0.047487	0.007107
C66	C	1.037951	0.285847	0.340441
C67	C	0.335926	-0.330206	-0.283018
C68	C	0.669259	0.003127	0.050316
C69	C	1.002593	0.336460	0.383649
C70	C	0.265239	-0.330212	-0.283029
C71	C	0.598572	0.003121	0.050304
C72	C	0.931906	0.336454	0.383638
C73	C	0.620999	-0.330182	-0.282970
C74	C	0.954333	0.003151	0.050363
C75	C	1.287666	0.336484	0.383697
C76	C	0.691691	-0.330179	-0.282963
C77	C	1.025025	0.003155	0.050370
C78	C	1.358358	0.336488	0.383703
C79	C	0.691710	-0.431407	-0.369382
C80	C	1.025043	-0.098074	-0.036048
C81	C	1.358377	0.235259	0.297285
C82	C	0.621023	-0.431413	-0.369393
C83	C	0.954356	-0.098080	-0.036060
C84	C	1.287690	0.235253	0.297273
C85	C	0.585671	-0.380803	-0.326183
C86	C	0.919005	-0.047470	0.007151
C87	C	1.252338	0.285864	0.340484
C88	C	0.509023	-0.380806	-0.326198
C89	C	0.842356	-0.047473	0.007135
C90	C	1.175689	0.285861	0.340469
C91	C	0.447931	-0.380812	-0.326214
C92	C	0.781264	-0.047479	0.007120
C93	C	1.114598	0.285854	0.340453
C94	C	0.978069	-0.586167	-0.326173
C95	C	1.311402	-0.252834	0.007160
C96	C	1.644735	0.080499	0.340494
C97	C	0.978103	-0.674024	-0.326184
C98	C	1.311436	-0.340691	0.007149
C99	C	1.644770	-0.007357	0.340482
C100	C	0.934860	-0.715374	-0.282858
C101	C	1.268193	-0.382040	0.050475
C102	C	1.601526	-0.048707	0.383809
C103	C	1.021375	-0.715228	-0.369526
C104	C	1.354708	-0.381894	-0.036192
C105	C	1.688042	-0.048561	0.297141
C106	C	1.021407	-0.797773	-0.369540
C107	C	1.354740	-0.464440	-0.036207
C108	C	1.688073	-0.131107	0.297126
C109	C	0.978163	-0.839123	-0.326214
C110	C	1.311497	-0.505790	0.007119
C111	C	1.644830	-0.172457	0.340453
C112	C	0.934888	-0.797927	-0.282873
C113	C	1.268222	-0.464594	0.050460
C114	C	1.601555	-0.131261	0.383794
C115	C	1.064676	-0.838976	-0.412885
C116	C	1.398009	-0.505642	-0.079552
C117	C	1.731343	-0.172309	0.253781
C118	C	1.064709	-0.921526	-0.412902
C119	C	1.398042	-0.588193	-0.079569
C120	C	1.731376	-0.254860	0.253764
C121	C	1.021468	-0.962878	-0.369572
C122	C	1.354802	-0.629545	-0.036239
C123	C	1.688135	-0.296211	0.297095
C124	C	0.978192	-0.921677	-0.326229
C125	C	1.311526	-0.588343	0.007105
C126	C	1.644859	-0.255010	0.340438
C127	C	0.934949	-0.963027	-0.282902
C128	C	1.268282	-0.629693	0.050431
C129	C	1.601616	-0.296360	0.383764
C130	C	0.891676	-0.921827	-0.239555
C131	C	1.225009	-0.588494	0.093778
C132	C	1.558342	-0.255160	0.427112
C133	C	0.891648	-0.839279	-0.239543
C134	C	1.224981	-0.505945	0.093791
C135	C	1.558315	-0.172612	0.427124
C136	C	1.021496	-1.045426	-0.369585
C137	C	1.354829	-0.712093	-0.036251
C138	C	1.688163	-0.378760	0.297082
C139	C	0.934978	-1.045580	-0.282917
C140	C	1.268311	-0.712247	0.050416
C141	C	1.601644	-0.378913	0.383749
C142	C	1.154676	-0.380819	-0.326236
C143	C	1.488010	-0.047486	0.007097
C144	C	1.821343	0.285847	0.340431
C145	C	1.229908	-0.380827	-0.326252
C146	C	1.563242	-0.047494	0.007082
C147	C	1.896575	0.285839	0.340415
C148	C	0.978172	-0.380751	-0.502742
C149	C	1.311505	-0.047418	-0.169409
C150	C	1.644838	0.285915	0.163924
C151	C	0.978188	-0.380730	-0.577974
C152	C	1.311521	-0.047397	-0.244641
C153	C	1.644854	0.285937	0.088692
C154	C	0.978217	-0.174633	-0.326241
C155	C	1.311550	0.158701	0.007093
C156	C	1.644884	0.492034	0.340426
C157	C	0.978253	-0.086776	-0.326258
C158	C	1.311586	0.246557	0.007075
C159	C	1.644919	0.579891	0.340408
C160	C	1.021500	-0.330177	-0.613339
C161	C	1.354833	0.003156	-0.280005
C162	C	1.688166	0.336490	0.053328
C163	C	1.021507	-0.330154	-0.684027
C164	C	1.354840	0.003179	-0.350694
C165	C	1.688173	0.336513	-0.017360
C166	C	0.978205	-0.380689	-0.719350
C167	C	1.311538	-0.047355	-0.386017
C168	C	1.644871	0.285978	-0.052683
C169	C	0.934888	-0.431244	-0.683981
C170	C	1.268221	-0.097911	-0.350647
C171	C	1.601555	0.235423	-0.017314
C172	C	0.934878	-0.431262	-0.613293
C173	C	1.268211	-0.097929	-0.279960
C174	C	1.601545	0.235404	0.053373
C175	C	0.934926	-0.431170	-0.969054
C176	C	1.268259	-0.097837	-0.635721
C177	C	1.601593	0.235496	-0.302387
C178	C	0.934941	-0.431150	-1.039746
C179	C	1.268274	-0.097816	-0.706413
C180	C	1.601607	0.235517	-0.373080
C181	C	1.021555	-0.330062	-1.039788
C182	C	1.354888	0.003271	-0.706454
C183	C	1.688221	0.336605	-0.373121
C184	C	1.021545	-0.330080	-0.969101
C185	C	1.354878	0.003253	-0.635767
C186	C	1.688211	0.336586	-0.302434
C187	C	0.978226	-0.380632	-0.933737
C188	C	1.311559	-0.047299	-0.600404
C189	C	1.644893	0.286034	-0.267071
C190	C	0.978218	-0.380656	-0.857089
C191	C	1.311551	-0.047322	-0.523756
C192	C	1.644885	0.286011	-0.190422
C193	C	0.978215	-0.380670	-0.795997
C194	C	1.311549	-0.047337	-0.462664
C195	C	1.644882	0.285997	-0.129330
C196	C	0.978135	-0.380794	-0.150343
C197	C	1.311468	-0.047460	0.182990
C198	C	1.644801	0.285873	0.516323
C199	C	0.978250	-0.380592	-0.075112
C200	C	1.311583	-0.047259	0.258222
C201	C	1.644916	0.286075	0.591555
H202	H	0.592257	-0.472628	-0.404586
H203	H	0.925590	-0.139295	-0.071252
H204	H	1.258924	0.194038	0.262081
H205	H	0.899765	-1.079241	-0.247633
H206	H	1.233099	-0.745908	0.085700
H207	H	1.566432	-0.412575	0.419034
H208	H	1.056763	-0.289028	-0.584584
H209	H	1.390097	0.044305	-0.251250
H210	H	1.723430	0.377638	0.082083
C211	C	0.887284	-0.486779	-0.930160
C212	C	1.220617	-0.153446	-0.596827
C213	C	1.553950	0.179888	-0.263494
H214	H	0.893471	-0.479550	-0.883002
H215	H	1.226805	-0.146217	-0.549669
H216	H	1.560138	0.187116	-0.216335
H217	H	0.897170	-0.539885	-0.941737
H218	H	1.230503	-0.206552	-0.608404
H219	H	1.563837	0.126782	-0.275070
H220	H	0.841811	-0.475198	-0.941738
H221	H	1.175144	-0.141865	-0.608404
H222	H	1.508478	0.191469	-0.275071
H223	H	0.236456	-0.288997	-0.247850
H224	H	0.569789	0.044336	0.085483
H225	H	0.903122	0.377670	0.418817
C226	C	0.844110	-0.967317	-0.191900
C227	C	1.177444	-0.633984	0.141434
C228	C	1.510777	-0.300651	0.474767
H229	H	0.850330	-1.022380	-0.198119
H230	H	1.183663	-0.689046	0.135215
H231	H	1.516996	-0.355713	0.468548
H232	H	0.798621	-0.953823	-0.201749
H233	H	1.131955	-0.620490	0.131585
H234	H	1.465288	-0.287156	0.464918
H235	H	0.854048	-0.953823	-0.146427
H236	H	1.187381	-0.620490	0.186906
H237	H	1.520714	-0.287157	0.520240
C238	C	1.069087	-1.090746	-0.417260
C239	C	1.402420	-0.757413	-0.083927
C240	C	1.735754	-0.424079	0.249406
H241	H	1.062909	-1.145831	-0.411067
H242	H	1.396243	-0.812498	-0.077734
H243	H	1.729576	-0.479165	0.255600
H244	H	1.114567	-1.077182	-0.407408
H245	H	1.447900	-0.743849	-0.074075
H246	H	1.781234	-0.410516	0.259258
H247	H	1.059136	-1.077192	-0.462726
H248	H	1.392470	-0.743858	-0.129393
H249	H	1.725803	-0.410525	0.203941
C250	C	0.730595	-0.487086	-0.416910
C251	C	1.063929	-0.153753	-0.083576
C252	C	1.397262	0.179581	0.249757
H253	H	0.699427	-0.517225	-0.442653
H254	H	1.032760	-0.183892	-0.109320
H255	H	1.366093	0.149442	0.224014
H256	H	0.758146	-0.521488	-0.390965
H257	H	1.091479	-0.188154	-0.057631
H258	H	1.424813	0.145179	0.275702
H259	H	0.758195	-0.456887	-0.446444
H260	H	1.091528	-0.123553	-0.113111
H261	H	1.424862	0.209780	0.220222
H262	H	0.592225	-0.288975	-0.247783
H263	H	0.925558	0.044358	0.085551
H264	H	1.258891	0.377692	0.418884
H265	H	0.856416	-0.805729	-0.204251
H266	H	1.189749	-0.472396	0.129082
H267	H	1.523082	-0.139062	0.462415
H268	H	0.899628	-0.472387	-0.712746
H269	H	1.232961	-0.139054	-0.379413
H270	H	1.566295	0.194279	-0.046079
H271	H	0.899602	-0.472420	-0.584501
H272	H	1.232936	-0.139086	-0.251167
H273	H	1.566269	0.194247	0.082166
C274	C	0.887261	-0.670060	-0.235182
C275	C	1.220594	-0.336726	0.098151
C276	C	1.553927	-0.003393	0.431485
H277	H	0.893432	-0.614974	-0.241378
H278	H	1.226765	-0.281640	0.091955
H279	H	1.560098	0.051693	0.425289
H280	H	0.897199	-0.683619	-0.189719
H281	H	1.230532	-0.350285	0.143615
H282	H	1.563866	-0.016952	0.476948
H283	H	0.841780	-0.683622	-0.245047
H284	H	1.175113	-0.350289	0.088286
H285	H	1.508446	-0.016956	0.421619
H286	H	0.236497	-0.472653	-0.404649
H287	H	0.569830	-0.139320	-0.071316
H288	H	0.903164	0.194013	0.262017
C289	C	1.112312	-0.966839	-0.460575
C290	C	1.445646	-0.633506	-0.127242
C291	C	1.778979	-0.300172	0.206091
H292	H	1.138065	-0.930389	-0.486373
H293	H	1.471398	-0.597055	-0.153039
H294	H	1.804732	-0.263722	0.180294
H295	H	1.086417	-0.999047	-0.490044
H296	H	1.419751	-0.665714	-0.156711
H297	H	1.753084	-0.332380	0.176623
H298	H	1.141835	-0.999029	-0.434714
H299	H	1.475169	-0.665695	-0.101380
H300	H	1.808502	-0.332362	0.231953
C301	C	0.374838	-0.487133	-0.416942
C302	C	0.708171	-0.153800	-0.083609
C303	C	1.041505	0.179534	0.249724
H304	H	0.421997	-0.479896	-0.410735
H305	H	0.755331	-0.146563	-0.077402
H306	H	1.088664	0.186770	0.255931
H307	H	0.363296	-0.475658	-0.462446
H308	H	0.696630	-0.142325	-0.129113
H309	H	1.029963	0.191009	0.204220
H310	H	0.363219	-0.540221	-0.406934
H311	H	0.696552	-0.206888	-0.073601
H312	H	1.029886	0.126446	0.259733
C313	C	0.730558	-0.274501	-0.235421
C314	C	1.063892	0.058832	0.097912
C315	C	1.397225	0.392166	0.431245
H316	H	0.699381	-0.244365	-0.209684
H317	H	1.032714	0.088969	0.123650
H318	H	1.366047	0.422302	0.456983
H319	H	0.758157	-0.240097	-0.261360
H320	H	1.091490	0.093237	0.071973
H321	H	1.424824	0.426570	0.405307
H322	H	0.758109	-0.304700	-0.205882
H323	H	1.091442	0.028634	0.127451
H324	H	1.424775	0.361967	0.460785
H325	H	1.056777	-0.288991	-0.712818
H326	H	1.390110	0.044343	-0.379484
H327	H	1.723444	0.377676	-0.046151
C328	C	1.069174	-0.274493	-0.930246
C329	C	1.402508	0.058840	-0.596912
C330	C	1.735841	0.392174	-0.263579
H331	H	1.062968	-0.281749	-0.883082
H332	H	1.396302	0.051585	-0.549749
H333	H	1.729635	0.384918	-0.216415
H334	H	1.059292	-0.221381	-0.941839
H335	H	1.392625	0.111953	-0.608506
H336	H	1.725958	0.445286	-0.275172
H337	H	1.114652	-0.286066	-0.941839
H338	H	1.447985	0.047267	-0.608506
H339	H	1.781318	0.380600	-0.275173
H340	H	1.056825	-0.288897	-1.068589
H341	H	1.390158	0.044436	-0.735256
H342	H	1.723491	0.377769	-0.401922
C343	C	0.887301	-0.486735	-1.078600
C344	C	1.220635	-0.153401	-0.745267
C345	C	1.553968	0.179932	-0.411934
H346	H	0.861496	-0.516839	-1.047416
H347	H	1.194829	-0.183505	-0.714083
H348	H	1.528162	0.149828	-0.380749
H349	H	0.913180	-0.521172	-1.106175
H350	H	1.246514	-0.187839	-0.772842
H351	H	1.579847	0.145494	-0.439509
H352	H	0.857829	-0.456476	-1.106173
H353	H	1.191162	-0.123143	-0.772840
H354	H	1.524496	0.210190	-0.439507
H355	H	0.364701	-0.288996	-0.247828
H356	H	0.698034	0.044337	0.085505
H357	H	1.031368	0.377670	0.418838
C358	C	1.068939	-0.669745	-0.417180
C359	C	1.402272	-0.336412	-0.083847
C360	C	1.735606	-0.003079	0.249487
H361	H	1.062726	-0.614682	-0.410961
H362	H	1.396060	-0.281348	-0.077628
H363	H	1.729393	0.051985	0.255706
H364	H	1.059012	-0.683247	-0.462649
H365	H	1.392346	-0.349914	-0.129316
H366	H	1.725679	-0.016580	0.204017
H367	H	1.114430	-0.683237	-0.407318
H368	H	1.447763	-0.349904	-0.073985
H369	H	1.781096	-0.016570	0.259348
H370	H	1.099880	-0.805306	-0.448164
H371	H	1.433214	-0.471973	-0.114831
H372	H	1.766547	-0.138639	0.218503
