data_functionalizedCrystal
_audit_creation_method	'MofGen! by Chris Wilmer'
_symmetry_space_group_name_H-M	'P1'
_symmetry_Int_Tables_number	1
_symmetry_cell_setting	triclinic
loop_
_symmetry_equiv_pos_as_xyz
  x,y,z
_cell_length_a	12.645331
_cell_length_b	25.639239
_cell_length_c	12.645318
_cell_angle_alpha	89.935323
_cell_angle_beta	89.957054
_cell_angle_gamma	90.037665
loop_
_atom_site_label
_atom_site_type_symbol
_atom_site_fract_x
_atom_site_fract_y
_atom_site_fract_z
Zn1	Zn	1.620789	-0.207992	-0.599395
Zn2	Zn	2.120789	0.292008	-0.099395
Zn3	Zn	1.620543	-0.295480	-0.422113
Zn4	Zn	2.120543	0.204520	0.077887
Zn5	Zn	1.443441	-0.208059	-0.422139
Zn6	Zn	1.943441	0.291941	0.077861
Zn7	Zn	1.443420	-0.295396	-0.599329
Zn8	Zn	1.943420	0.204604	-0.099329
O9	O	1.532048	-0.251732	-0.510744
O10	O	2.032048	0.248268	-0.010744
O11	O	1.769103	-0.219604	-0.575895
O12	O	2.269103	0.280396	-0.075895
O13	O	1.596955	-0.283947	-0.273769
O14	O	2.096955	0.216053	0.226231
O15	O	1.467078	-0.134885	-0.445691
O16	O	1.967078	0.365115	0.054309
O17	O	1.768923	-0.283882	-0.445647
O18	O	2.268923	0.216118	0.054353
O19	O	1.597375	-0.134835	-0.575920
O20	O	2.097375	0.365165	-0.075920
O21	O	1.466839	-0.219720	-0.273788
O22	O	1.966839	0.280280	0.226212
O23	O	1.295091	-0.219638	-0.445627
O24	O	1.795091	0.280362	0.054373
O25	O	1.467043	-0.283738	-0.747685
O26	O	1.967043	0.216262	-0.247685
O27	O	1.295076	-0.283804	-0.575808
O28	O	1.795076	0.216196	-0.075808
O29	O	1.597355	-0.219522	-0.747734
O30	O	2.097355	0.280478	-0.247734
O31	O	1.596936	-0.368635	-0.445583
O32	O	2.096936	0.131365	0.054417
O33	O	1.466804	-0.368573	-0.575782
O34	O	1.966804	0.131427	-0.075782
C35	C	1.256618	-0.251720	-0.510714
C36	C	1.756618	0.248280	-0.010714
C37	C	1.138788	-0.251727	-0.510726
C38	C	1.638788	0.248273	-0.010726
C39	C	0.971199	-0.211174	-0.429281
C40	C	1.471199	0.288826	0.070719
C41	C	1.093758	-0.211279	-0.428922
C42	C	1.593758	0.288721	0.071078
C43	C	1.094216	-0.306813	-0.480197
C44	C	1.594216	0.193187	0.019803
C45	C	0.971618	-0.306592	-0.479641
C46	C	1.471618	0.193408	0.020359
C47	C	0.971689	-0.237717	-0.623013
C48	C	1.471689	0.262283	-0.123013
C49	C	1.094296	-0.236487	-0.622390
C50	C	1.594296	0.263513	-0.122390
C51	C	1.531870	-0.387575	-0.510696
C52	C	2.031870	0.112425	-0.010696
C53	C	1.531891	-0.445689	-0.510710
C54	C	2.031891	0.054311	-0.010710
C55	C	1.599984	-0.806071	-0.443065
C56	C	2.099984	-0.306071	0.056935
C57	C	1.600025	-0.860675	-0.443079
C58	C	2.100025	-0.360675	0.056921
O59	O	1.657736	-0.888929	-0.385511
O60	O	2.157736	-0.388929	0.114489
N61	N	1.532234	-0.887971	-0.510815
N62	N	2.032234	-0.387971	-0.010815
C63	C	1.464406	-0.860659	-0.578548
C64	C	1.964406	-0.360659	-0.078548
O65	O	1.406749	-0.888890	-0.636164
O66	O	1.906749	-0.388890	-0.136164
C67	C	1.464371	-0.806056	-0.578538
C68	C	1.964371	-0.306056	-0.078538
C69	C	1.532158	-0.778763	-0.510791
C70	C	2.032158	-0.278763	-0.010791
C71	C	1.667768	-0.778778	-0.375324
C72	C	2.167768	-0.278778	0.124676
C73	C	1.667725	-0.724178	-0.375309
C74	C	2.167725	-0.224178	0.124691
C75	C	1.599899	-0.696870	-0.443034
C76	C	2.099899	-0.196870	0.056966
C77	C	1.532116	-0.724163	-0.510775
C78	C	2.032116	-0.224163	-0.010775
C79	C	1.396548	-0.778745	-0.646276
C80	C	1.896548	-0.278745	-0.146276
C81	C	1.396519	-0.724138	-0.646261
C82	C	1.896519	-0.224138	-0.146261
C83	C	1.464307	-0.696846	-0.578514
C84	C	1.964307	-0.196846	-0.078514
C85	C	1.464247	-0.642254	-0.578486
C86	C	1.964247	-0.142254	-0.078486
N87	N	1.532038	-0.614959	-0.510751
N88	N	2.032038	-0.114959	-0.010751
C89	C	1.599864	-0.642267	-0.443025
C90	C	2.099864	-0.142267	0.056975
C91	C	1.464485	-0.975330	-0.578564
C92	C	1.964485	-0.475330	-0.078564
C93	C	1.464514	-1.029932	-0.578569
C94	C	1.964514	-0.529932	-0.078569
C95	C	1.600136	-1.029945	-0.443102
C96	C	2.100136	-0.529945	0.056898
C97	C	1.600101	-0.975341	-0.443092
C98	C	2.100101	-0.475341	0.056908
C99	C	1.532276	-0.948034	-0.510829
C100	C	2.032276	-0.448034	-0.010829
C101	C	1.599768	-0.527602	-0.442997
C102	C	2.099768	-0.027602	0.057003
C103	C	1.599716	-0.472996	-0.442985
C104	C	2.099716	0.027004	0.057015
C105	C	1.464099	-0.472989	-0.578456
C106	C	1.964099	0.027011	-0.078456
C107	C	1.464147	-0.527589	-0.578465
C108	C	1.964147	-0.027589	-0.078465
C109	C	1.531990	-0.554894	-0.510732
C110	C	2.031990	-0.054894	-0.010732
O111	O	1.406569	-0.613966	-0.636028
O112	O	1.906569	-0.113966	-0.136028
O113	O	1.657521	-0.614029	-0.385428
O114	O	2.157521	-0.114029	0.114572
C115	C	1.808553	-0.251745	-0.510776
C116	C	2.308553	0.248255	-0.010776
C117	C	1.926383	-0.251750	-0.510789
C118	C	2.426383	0.248250	-0.010789
C119	C	1.532224	-0.251613	-0.787250
C120	C	2.032224	0.248387	-0.287250
C121	C	1.532299	-0.251563	-0.905080
C122	C	2.032299	0.248437	-0.405080
C123	C	1.532256	-0.115359	-0.510816
C124	C	2.032256	0.384641	-0.010816
C125	C	1.532345	-0.057245	-0.510847
C126	C	2.032345	0.442755	-0.010847
C127	C	1.531934	-0.251812	-0.235314
C128	C	2.031934	0.248188	0.264686
C129	C	1.532064	-0.251715	-0.117485
C130	C	2.032064	0.248285	0.382515
C131	C	1.449658	-0.211568	-0.072677
C132	C	1.949658	0.288432	0.427323
C133	C	1.449474	-0.211601	0.049884
C134	C	1.949474	0.288399	0.549884
C135	C	1.503022	-0.306842	0.050772
C136	C	2.003022	0.193158	0.550772
C137	C	1.502288	-0.306698	-0.071826
C138	C	2.002288	0.193302	0.428174
C139	C	1.644011	-0.237032	-0.072593
C140	C	2.144011	0.262968	0.427407
C141	C	1.643531	-0.235731	0.050007
C142	C	2.143531	0.264269	0.550007
H143	H	0.940315	-0.220349	-0.346608
H144	H	1.440315	0.279651	0.153392
H145	H	1.420494	-0.319068	-0.100197
H146	H	1.920494	0.180932	0.399803
O147	O	1.740851	-0.694748	-0.302243
O148	O	2.240851	-0.194748	0.197757
H149	H	1.729437	-0.652189	-0.313596
H150	H	2.229437	-0.152189	0.186404
H151	H	1.123438	-0.195949	-0.645410
H152	H	1.623438	0.304051	-0.145410
O153	O	1.391018	-0.557033	-0.651511
O154	O	1.891018	-0.057033	-0.151511
H155	H	1.438471	-0.581856	-0.705495
H156	H	1.938471	-0.081856	-0.205495
O157	O	1.134866	-0.272785	-0.707141
O158	O	1.634866	0.227215	-0.207141
H159	H	1.187608	-0.302388	-0.670836
H160	H	1.687608	0.197612	-0.170836
O161	O	1.132508	-0.223544	-0.318757
O162	O	1.632508	0.276456	0.181243
H163	H	1.063680	-0.229432	-0.265534
H164	H	1.563680	0.270568	0.234466
H165	H	0.942934	-0.318489	-0.397599
H166	H	1.442934	0.181511	0.102401
H167	H	1.723005	-0.801007	-0.320173
H168	H	2.223005	-0.301007	0.179827
H169	H	1.708202	-0.262749	0.080647
H170	H	2.208202	0.237251	0.580647
H171	H	0.942710	-0.267271	-0.683744
H172	H	1.442710	0.232729	-0.183744
O173	O	1.673224	-0.945905	-0.370034
O174	O	2.173224	-0.445905	0.129966
H175	H	1.720395	-0.974072	-0.322951
H176	H	2.220395	-0.474072	0.177049
O177	O	1.672840	-0.443558	-0.369920
O178	O	2.172840	0.056442	0.130080
H179	H	1.720019	-0.471724	-0.322840
H180	H	2.220019	0.028276	0.177160
H181	H	1.559763	-0.337657	-0.101450
H182	H	2.059763	0.162343	0.398550
H183	H	1.561301	-0.337544	0.079959
H184	H	2.061301	0.162456	0.579959
H185	H	1.124834	-0.318914	-0.399036
H186	H	1.624834	0.181086	0.100964
O187	O	1.323352	-0.694691	-0.719320
O188	O	1.823352	-0.194691	-0.219320
H189	H	1.370766	-0.669759	-0.773303
H190	H	1.870766	-0.169759	-0.273303
H191	H	1.655015	-0.549827	-0.387845
H192	H	2.155015	-0.049827	0.112155
H193	H	1.422196	-0.319374	0.081699
H194	H	1.922196	0.180626	0.581699
H195	H	0.941970	-0.337849	-0.536419
H196	H	1.441970	0.162151	-0.036419
O197	O	1.672820	-0.181849	0.088203
O198	O	2.172820	0.318151	0.588203
H199	H	1.608433	-0.166406	0.138967
H200	H	2.108433	0.333594	0.638967
H201	H	1.670789	-0.197431	-0.103774
H202	H	2.170789	0.302569	0.396226
H203	H	1.705402	-0.266263	-0.101573
H204	H	2.205402	0.233737	0.398427
H205	H	1.123896	-0.170431	-0.448059
H206	H	1.623896	0.329569	0.051941
H207	H	1.655367	-1.052189	-0.387959
H208	H	2.155367	-0.552189	0.112041
O209	O	0.932225	-0.156896	-0.454310
O210	O	1.432225	0.343104	0.045690
H211	H	0.886754	-0.141605	-0.385946
H212	H	1.386754	0.358395	0.114054
H213	H	1.123383	-0.337855	-0.537700
H214	H	1.623383	0.162145	-0.037700
H215	H	0.940832	-0.198248	-0.650775
H216	H	1.440832	0.301752	-0.150775
O217	O	1.390950	-0.443531	-0.651507
O218	O	1.890950	0.056469	-0.151507
H219	H	1.402326	-0.400978	-0.640118
H220	H	1.902326	0.099022	-0.140118
O221	O	1.473595	-0.157335	0.089416
O222	O	1.973595	0.342665	0.589416
H223	H	1.485490	-0.130831	0.020964
H224	H	1.985490	0.369169	0.520964
O225	O	1.473375	-0.157183	-0.112050
O226	O	1.973375	0.342817	0.387950
H227	H	1.544144	-0.158184	-0.163984
H228	H	2.044144	0.341816	0.336016
O229	O	1.340385	-0.224370	-0.113169
O230	O	1.840385	0.275630	0.386831
H231	H	1.340132	-0.222432	-0.200860
H232	H	1.840132	0.277568	0.299140
O233	O	1.391394	-1.059368	-0.651632
O234	O	1.891394	-0.559368	-0.151632
H235	H	1.344233	-1.031200	-0.698724
H236	H	1.844233	-0.531200	-0.198724
O237	O	1.391302	-0.945878	-0.651601
O238	O	1.891302	-0.445878	-0.151601
H239	H	1.344162	-0.974035	-0.698686
H240	H	1.844162	-0.474035	-0.198686
H241	H	1.341343	-0.800958	-0.701438
H242	H	1.841343	-0.300958	-0.201438
O243	O	1.339667	-0.224465	0.089031
O244	O	1.839667	0.275535	0.589031
H245	H	1.286493	-0.230694	0.020395
H246	H	1.786493	0.269306	0.520395
