data_functionalizedCrystal
_audit_creation_method	'MofGen! by Chris Wilmer'
_symmetry_space_group_name_H-M	'P1'
_symmetry_Int_Tables_number	1
_symmetry_cell_setting	triclinic
loop_
_symmetry_equiv_pos_as_xyz
  x,y,z
_cell_length_a	6.817900
_cell_length_b	9.514063
_cell_length_c	10.943881
_cell_angle_alpha	88.512611
_cell_angle_beta	108.843448
_cell_angle_gamma	118.843314
loop_
_atom_site_label
_atom_site_type_symbol
_atom_site_fract_x
_atom_site_fract_y
_atom_site_fract_z
V1	V	-4.173082	-0.222160	-0.403572
O2	O	-4.070480	0.010723	-0.394840
O3	O	-4.207590	-0.440551	-0.401820
O4	O	-4.150178	-0.218722	-0.579123
O5	O	-4.128289	-0.212642	-0.216310
V6	V	-4.642664	-0.194307	-0.381051
O7	O	-4.464923	-0.283258	-0.452972
O8	O	-4.801020	-0.133209	-0.331651
O9	O	-4.384950	0.024084	-0.382802
O10	O	-4.862663	-0.427190	-0.389782
O11	O	-4.804854	-0.203825	-0.568312
O12	O	-4.442361	-0.197745	-0.205500
C13	C	-4.071935	-0.493791	-0.395714
C14	C	-4.181605	-0.672329	-0.395452
C15	C	-3.998698	-0.210824	-0.621879
C16	C	-4.061803	-0.209458	-0.765400
C17	C	-4.293205	-0.217021	-0.856318
C18	C	-4.143999	-0.078969	-0.921421
C19	C	-4.323366	-0.344979	-0.956012
C20	C	-3.911691	-0.071315	-0.828599
C21	C	-4.091164	-0.337445	-0.863198
C22	C	-3.941776	-0.199354	-0.928253
C23	C	-4.183950	0.077315	-0.388905
C24	C	-4.053519	0.255851	-0.389175
C25	C	-4.257184	-0.205648	-0.162736
C26	C	-4.173314	-0.207006	-0.019215
H27	H	-4.375157	-0.747424	-0.400610
N28	N	-3.810696	-0.649949	-0.382711
N29	N	-3.749267	-0.680812	-0.469858
H30	H	-3.577775	-0.614284	-0.465294
H31	H	-4.441008	-0.224335	-0.824483
N32	N	-4.172762	0.058141	-0.954064
N33	N	-4.329155	0.073641	-0.930054
H34	H	-4.349482	0.170471	-0.953103
N35	N	-3.692673	0.073893	-0.759428
N36	N	-3.608615	0.096279	-0.637299
H37	H	-3.453936	0.198830	-0.588443
N38	N	-3.755872	-0.189908	-0.967843
N39	N	-3.548487	-0.070773	-0.920978
H40	H	-3.417187	-0.064093	-0.948938
H41	H	-4.068305	-0.446751	-0.837145
N42	N	-4.542491	-0.490030	-1.025357
N43	N	-4.730838	-0.521902	-1.007502
H44	H	-4.885605	-0.624337	-1.056475
