data_functionalizedCrystal
_audit_creation_method	'MofGen! by Chris Wilmer'
_symmetry_space_group_name_H-M	'P1'
_symmetry_Int_Tables_number	1
_symmetry_cell_setting	triclinic
loop_
_symmetry_equiv_pos_as_xyz
  x,y,z
_cell_length_a	12.827893
_cell_length_b	12.827892
_cell_length_c	12.827885
_cell_angle_alpha	89.970214
_cell_angle_beta	89.980728
_cell_angle_gamma	90.015362
loop_
_atom_site_label
_atom_site_type_symbol
_atom_site_fract_x
_atom_site_fract_y
_atom_site_fract_z
Zn1	Zn	1.597670	-0.415983	-0.590849
Zn2	Zn	1.597564	-0.590761	-0.416109
Zn3	Zn	1.422911	-0.416034	-0.416122
Zn4	Zn	1.422896	-0.590683	-0.590809
O5	O	1.510260	-0.503365	-0.503472
O6	O	1.743892	-0.439179	-0.567680
O7	O	1.574357	-0.567637	-0.269875
O8	O	1.446144	-0.269791	-0.439322
O9	O	1.743814	-0.567587	-0.439300
O10	O	1.574538	-0.269754	-0.567693
O11	O	1.446041	-0.439266	-0.269884
O12	O	1.276673	-0.439190	-0.439284
O13	O	1.446118	-0.567455	-0.737050
O14	O	1.276662	-0.567504	-0.567625
O15	O	1.574524	-0.439104	-0.737080
O16	O	1.574343	-0.736986	-0.439261
O17	O	1.446016	-0.736929	-0.567612
C18	C	1.238750	-0.503345	-0.503452
C19	C	1.122597	-0.503362	-0.503469
C20	C	1.070835	-0.566954	-0.566878
C21	C	0.950784	-0.566973	-0.566896
C22	C	1.510195	-0.774875	-0.503454
C23	C	1.510262	-0.891028	-0.503481
C24	C	1.573838	-0.942807	-0.440039
C25	C	1.573910	-1.062857	-0.440066
C26	C	1.782830	-0.503386	-0.503493
C27	C	1.898983	-0.503395	-0.503502
C28	C	1.510331	-0.503265	-0.776043
C29	C	1.510362	-0.503222	-0.892196
C30	C	1.510354	-0.230795	-0.503514
C31	C	1.510394	-0.114642	-0.503531
C32	C	1.573907	-0.439697	-0.943995
C33	C	1.573940	-0.439652	-1.064045
C34	C	1.510249	-0.503390	-0.231962
C35	C	1.510422	-0.503138	-0.115810
H36	H	0.943491	-0.448952	-0.449208
H37	H	1.455975	-0.557567	-0.936725
H38	H	1.455957	-1.070121	-0.557845
C39	C	1.193782	-0.581507	-0.707285
C40	C	1.130983	-0.640437	-0.640149
H41	H	1.230918	-0.626876	-0.752515
H42	H	1.151225	-0.536082	-0.747380
H43	H	1.241807	-0.541609	-0.667488
H44	H	1.082953	-0.680330	-0.679945
H45	H	1.173544	-0.685881	-0.600050
H46	H	1.628283	-0.385342	-0.899465
H47	H	0.906270	-0.621420	-0.621181
C48	C	0.999674	-0.488825	-0.363041
C49	C	1.062462	-0.429885	-0.430181
H50	H	0.962559	-0.443462	-0.317788
H51	H	0.951641	-0.528706	-0.402827
H52	H	1.042245	-0.534267	-0.322963
H53	H	1.019890	-0.384448	-0.470265
H54	H	1.110500	-0.389987	-0.390391
H55	H	1.628348	-0.385270	-1.108591
H56	H	1.628336	-1.107385	-0.385748
C57	C	1.750767	-0.908880	-0.389310
C58	C	1.647249	-0.882682	-0.366682
H59	H	1.796087	-0.871758	-0.344023
H60	H	1.760438	-0.981659	-0.379701
H61	H	1.765986	-0.890971	-0.459551
H62	H	1.632028	-0.900598	-0.296443
H63	H	1.637574	-0.809886	-0.376282
C64	C	1.495853	-1.013814	-0.643948
C65	C	1.436852	-0.951156	-0.576835
H66	H	1.450529	-1.050937	-0.689230
H67	H	1.541286	-0.971163	-0.683988
H68	H	1.535746	-1.061850	-0.604137
H69	H	1.396965	-0.903115	-0.616646
H70	H	1.391402	-0.993812	-0.536791
C71	C	1.378260	-0.635272	-1.126517
C72	C	1.436980	-0.576575	-1.055691
H73	H	1.332928	-0.680615	-1.089395
H74	H	1.338269	-0.589763	-1.169085
H75	H	1.423763	-0.675260	-1.169095
H76	H	1.391476	-0.536581	-1.013119
H77	H	1.476974	-0.622090	-1.013106
