data_functionalizedCrystal
_audit_creation_method	'MofGen! by Chris Wilmer'
_symmetry_space_group_name_H-M	'P1'
_symmetry_Int_Tables_number	1
_symmetry_cell_setting	triclinic
loop_
_symmetry_equiv_pos_as_xyz
  x,y,z
_cell_length_a	17.640112
_cell_length_b	12.594516
_cell_length_c	17.639309
_cell_angle_alpha	78.761500
_cell_angle_beta	114.276544
_cell_angle_gamma	101.240082
loop_
_atom_site_label
_atom_site_type_symbol
_atom_site_fract_x
_atom_site_fract_y
_atom_site_fract_z
Zn1	Zn	1.165549	-0.048455	-0.211680
Zn2	Zn	1.193322	-0.256409	-0.073904
Zn3	Zn	1.055610	-0.108403	-0.101706
Zn4	Zn	1.027745	-0.256379	-0.239468
O5	O	1.110557	-0.167412	-0.156689
O6	O	1.284538	-0.050965	-0.170139
O7	O	1.198339	-0.261877	0.037722
O8	O	1.070232	0.048507	-0.116300
O9	O	1.304943	-0.203748	-0.068916
O10	O	1.151004	0.092550	-0.197097
O11	O	1.097163	-0.153137	0.017296
O12	O	0.936609	-0.153108	-0.143245
O13	O	1.022740	-0.203697	-0.351096
O14	O	0.916136	-0.261826	-0.244458
O15	O	1.123984	-0.050936	-0.330680
O16	O	1.171320	-0.405363	-0.095861
O17	O	1.049671	-0.405341	-0.217500
C18	C	0.896475	-0.213970	-0.199884
C19	C	0.804886	-0.233909	-0.218382
C20	C	0.556760	-0.015917	-0.016166
C21	C	0.470696	-0.034671	-0.033560
C22	C	0.449470	-0.148106	-0.138771
C23	C	0.535533	-0.129356	-0.121390
C24	C	0.589172	-0.063261	-0.060086
C25	C	0.567945	-0.176701	-0.165309
C26	C	0.654001	-0.157957	-0.147926
C27	C	0.707646	-0.091868	-0.086623
C28	C	0.675228	-0.044518	-0.042702
C29	C	0.514305	-0.242801	-0.226609
C30	C	0.546717	-0.290146	-0.270528
C31	C	0.632774	-0.271397	-0.253149
C32	C	0.686418	-0.205308	-0.191846
C33	C	0.665191	-0.318747	-0.297070
C34	C	0.751247	-0.300003	-0.279686
C35	C	0.772475	-0.186564	-0.174463
C36	C	1.110504	-0.443966	-0.156692
C37	C	1.110552	-0.562255	-0.156706
C38	C	1.044389	-0.631545	-0.222828
C39	C	1.039515	-0.723108	-0.151684
C40	C	1.115498	-0.681471	-0.227847
C41	C	1.105646	-0.652278	-0.085531
C42	C	1.181653	-0.610616	-0.161737
C43	C	1.176819	-0.702153	-0.090536
C44	C	1.325474	-0.120673	-0.113327
C45	C	1.417059	-0.100755	-0.094848
C46	C	1.067156	-0.120626	-0.371623
C47	C	1.048661	-0.100689	-0.463215
C48	C	1.110628	0.110231	-0.156700
C49	C	1.110658	0.228546	-0.156705
C50	C	0.969920	-0.015980	-0.602945
C51	C	0.987305	-0.034720	-0.516879
C52	C	1.092653	-0.147949	-0.495603
C53	C	1.075274	-0.129222	-0.581670
C54	C	1.013907	-0.063236	-0.635334
C55	C	1.119261	-0.176478	-0.614059
C56	C	1.101886	-0.157748	-0.700117
C57	C	1.040524	-0.091762	-0.753786
C58	C	0.996532	-0.044506	-0.721392
C59	C	1.180632	-0.242458	-0.560392
C60	C	1.224619	-0.289714	-0.592781
C61	C	1.207240	-0.270990	-0.678842
C62	C	1.145878	-0.205005	-0.732511
C63	C	1.251232	-0.318247	-0.711236
C64	C	1.233857	-0.299517	-0.797294
C65	C	1.128503	-0.186275	-0.818569
C66	C	1.153836	-0.213928	0.057418
C67	C	1.172490	-0.233531	0.149041
H68	H	0.777718	-0.076611	-0.072469
H69	H	1.119640	-0.694986	-0.288011
O70	O	1.068792	-0.122277	-0.870642
C71	C	0.990901	-0.167989	-0.866207
H72	H	1.001792	-0.222875	-0.804064
H73	H	0.954564	-0.099840	-0.870733
H74	H	0.953362	-0.218215	-0.920237
O75	O	1.253275	-0.552291	-0.166807
C76	C	1.252529	-0.440787	-0.165979
H77	H	1.208776	-0.432315	-0.135249
H78	H	1.318645	-0.402169	-0.128962
H79	H	1.229563	-0.397711	-0.233056
O80	O	1.023795	-0.073520	-0.837354
C81	C	1.096962	-0.022727	-0.850172
H82	H	1.154432	-0.041396	-0.791003
H83	H	1.099968	-0.055014	-0.904794
H84	H	1.095652	0.069300	-0.865084
O85	O	1.276713	-0.345364	-0.828652
C86	C	1.363088	-0.308806	-0.791071
H87	H	1.377428	-0.281119	-0.728241
H88	H	1.400604	-0.378238	-0.780674
H89	H	1.381075	-0.237500	-0.833908
O90	O	0.824689	-0.122493	-0.114856
C91	C	0.885200	-0.183763	-0.051495
H92	H	0.892237	-0.255376	-0.077850
H93	H	0.947937	-0.129605	-0.028290
H94	H	0.864359	-0.215849	0.002889
O95	O	0.608881	0.048439	0.043273
C96	C	0.649201	0.138151	0.006332
H97	H	0.610178	0.153079	-0.063814
H98	H	0.656171	0.213871	0.036225
H99	H	0.713856	0.120047	0.016712
H100	H	0.919947	0.037749	-0.646643
H101	H	1.101434	-0.638911	-0.025365
O102	O	0.397419	-0.212461	-0.198231
C103	C	0.422113	-0.317873	-0.175865
H104	H	0.459042	-0.332316	-0.105252
H105	H	0.364098	-0.381264	-0.194341
H106	H	0.463166	-0.325277	-0.209915
O107	O	0.439182	0.011159	0.009171
C108	C	0.400121	-0.071768	0.052394
H109	H	0.427104	-0.151074	0.062849
H110	H	0.411911	-0.047138	0.115551
H111	H	0.329766	-0.084148	0.013734
O112	O	1.243565	-0.738918	-0.023674
C113	C	1.238085	-0.724578	0.051137
H114	H	1.170041	-0.720131	0.038966
H115	H	1.261495	-0.796390	0.101031
H116	H	1.278286	-0.645619	0.073907
O117	O	0.430694	-0.260834	-0.243573
C118	C	0.397642	-0.160497	-0.270662
H119	H	0.439976	-0.097924	-0.296624
H120	H	0.332106	-0.172151	-0.321795
H121	H	0.394118	-0.130283	-0.215474
O122	O	0.936821	0.019492	-0.773464
C123	C	0.858930	-0.026220	-0.769030
H124	H	0.869821	-0.081106	-0.706887
H125	H	0.822593	0.041929	-0.773556
H126	H	0.821391	-0.076446	-0.823060
H127	H	0.503033	-0.343964	-0.320439
O128	O	0.613025	-0.382787	-0.356710
C129	C	0.552481	-0.321540	-0.420047
H130	H	0.577369	-0.230939	-0.420008
H131	H	0.538714	-0.346579	-0.483610
H132	H	0.492403	-0.337575	-0.407740
O133	O	0.944462	0.011224	-0.485561
C134	C	0.886589	0.073499	-0.551381
H135	H	0.871343	0.042634	-0.613300
H136	H	0.826689	0.065321	-0.539621
H137	H	0.914935	0.162898	-0.554446
H138	H	0.777637	-0.338555	-0.315451
O139	O	1.197642	-0.260726	-0.476768
C140	C	1.261227	-0.329113	-0.436350
H141	H	1.299351	-0.322754	-0.476230
H142	H	1.304126	-0.302722	-0.372470
H143	H	1.231621	-0.417161	-0.427668
O144	O	1.152209	-0.212057	-0.443360
C145	C	1.158130	-0.218432	-0.360453
H146	H	1.096927	-0.199947	-0.361532
H147	H	1.170297	-0.304070	-0.326614
H148	H	1.211955	-0.156438	-0.326173
O149	O	1.284164	-0.353953	-0.540747
C150	C	1.261859	-0.459392	-0.565393
H151	H	1.217570	-0.454880	-0.634269
H152	H	1.320714	-0.493566	-0.556331
H153	H	1.229258	-0.514988	-0.525507
H154	H	1.301202	-0.371964	-0.667529
O155	O	0.977468	-0.594671	-0.289405
C156	C	0.902705	-0.652792	-0.283779
H157	H	0.915019	-0.687874	-0.215729
H158	H	0.852888	-0.595363	-0.306972
H159	H	0.879754	-0.722136	-0.324088
H160	H	0.718903	0.009322	0.007205
H161	H	0.979434	-0.771857	-0.147434
