data_functionalizedCrystal
_audit_creation_method	'MofGen! by Chris Wilmer'
_symmetry_space_group_name_H-M	'P1'
_symmetry_Int_Tables_number	1
_symmetry_cell_setting	triclinic
loop_
_symmetry_equiv_pos_as_xyz
  x,y,z
_cell_length_a	13.032831
_cell_length_b	13.897448
_cell_length_c	13.033454
_cell_angle_alpha	82.782824
_cell_angle_beta	89.091650
_cell_angle_gamma	82.822399
loop_
_atom_site_label
_atom_site_type_symbol
_atom_site_fract_x
_atom_site_fract_y
_atom_site_fract_z
Zn1	Zn	1.498553	-0.468317	-0.780866
Zn2	Zn	1.520281	-0.652363	-0.608872
Zn3	Zn	1.348394	-0.473459	-0.587096
Zn4	Zn	1.326542	-0.611943	-0.759006
O5	O	1.423442	-0.551521	-0.683960
O6	O	1.645358	-0.507496	-0.776312
O7	O	1.515718	-0.647699	-0.462058
O8	O	1.368365	-0.337798	-0.612835
O9	O	1.661321	-0.642713	-0.649949
O10	O	1.478686	-0.334020	-0.755197
O11	O	1.389433	-0.516259	-0.446060
O12	O	1.201573	-0.477065	-0.591639
O13	O	1.331122	-0.573823	-0.905831
O14	O	1.185519	-0.578809	-0.717941
O15	O	1.457498	-0.468302	-0.921891
O16	O	1.494529	-0.781981	-0.628752
O17	O	1.352190	-0.752284	-0.739056
C18	C	1.156228	-0.524109	-0.650055
C19	C	1.041910	-0.512403	-0.635575
C20	C	0.983039	-0.557631	-0.691517
C21	C	0.864885	-0.545532	-0.676553
C22	C	1.423371	-0.802131	-0.683921
C23	C	1.423430	-0.909349	-0.683950
C24	C	1.423530	-1.105646	-0.684029
C25	C	1.423471	-0.996412	-0.683988
C26	C	1.691700	-0.579040	-0.717998
C27	C	1.806016	-0.590767	-0.732503
C28	C	1.389449	-0.515980	-0.952223
C29	C	1.374962	-0.500835	-1.066541
C30	C	1.423539	-0.299931	-0.684026
C31	C	1.423580	-0.192719	-0.684054
C32	C	1.430987	-0.559116	-1.125423
C33	C	1.416016	-0.543464	-1.243576
C34	C	1.457363	-0.586860	-0.416748
C35	C	1.472049	-0.601754	-0.302457
H36	H	0.827817	-0.497847	-0.617580
H37	H	1.315919	-0.439346	-1.103602
H38	H	1.490039	-0.620597	-1.088362
H39	H	0.843081	-0.638442	-0.791486
C40	C	1.336242	-0.460395	-1.293623
H41	H	1.303039	-0.425855	-1.241360
H42	H	1.286145	-0.487181	-1.329842
H43	H	1.370338	-0.416888	-1.340534
C44	C	1.033109	-0.622040	-0.771187
H45	H	1.105955	-0.621726	-0.770789
H46	H	1.006809	-0.597084	-0.838112
H47	H	1.017464	-0.687057	-0.753798
C48	C	0.991839	-0.447988	-0.555910
H49	H	0.918994	-0.448311	-0.556301
H50	H	1.007489	-0.382978	-0.573293
H51	H	1.018134	-0.472951	-0.488979
H52	H	1.531105	-0.663239	-1.265402
