data_functionalizedCrystal
_audit_creation_method	'MofGen! by Chris Wilmer'
_symmetry_space_group_name_H-M	'P1'
_symmetry_Int_Tables_number	1
_symmetry_cell_setting	triclinic
loop_
_symmetry_equiv_pos_as_xyz
  x,y,z
_cell_length_a	16.974829
_cell_length_b	15.500215
_cell_length_c	16.974755
_cell_angle_alpha	96.838510
_cell_angle_beta	83.158103
_cell_angle_gamma	96.836845
loop_
_atom_site_label
_atom_site_type_symbol
_atom_site_fract_x
_atom_site_fract_y
_atom_site_fract_z
O1	O	1.056014	0.153430	0.107793
O2	O	1.556014	0.653430	0.607793
O3	O	0.825095	0.138114	0.119926
O4	O	1.325095	0.638114	0.619926
O5	O	0.946631	0.138104	-0.001602
O6	O	1.446631	0.638104	0.498398
O7	O	0.934477	0.153439	0.229320
O8	O	1.434477	0.653439	0.729320
O9	O	0.940029	-0.006709	-0.008197
O10	O	1.440029	0.493291	0.491803
O11	O	0.818492	-0.006700	0.113330
O12	O	1.318492	0.493300	0.613330
O13	O	1.049411	0.008616	0.101197
O14	O	1.549411	0.508616	0.601197
Cu15	Cu	0.933349	-0.012265	0.106661
Cu16	Cu	1.433349	0.487735	0.606661
Cu17	Cu	0.941157	0.158995	0.114462
Cu18	Cu	1.441157	0.658995	0.614462
O19	O	0.927874	0.008626	0.222725
O20	O	1.427874	0.508626	0.722725
C21	C	0.792240	0.063597	0.116043
C22	C	1.292240	0.563597	0.616043
C23	C	0.704179	0.057309	0.114290
C24	C	1.204179	0.557309	0.614290
N25	N	0.927862	-0.132719	0.101175
N26	N	1.427862	0.367281	0.601175
C27	C	0.208098	0.013444	0.104062
C28	C	0.708098	0.513444	0.604062
C29	C	0.290841	0.019354	0.105709
C30	C	0.790841	0.519354	0.605709
C31	C	0.335812	0.101248	0.110122
C32	C	0.835812	0.601248	0.610122
C33	C	0.298036	0.177238	0.112896
C34	C	0.798036	0.677238	0.612896
C35	C	0.215294	0.171327	0.111255
C36	C	0.715294	0.671327	0.611255
C37	C	0.583660	0.127389	0.115422
C38	C	1.083660	0.627389	0.615422
C39	C	0.666408	0.133293	0.117061
C40	C	1.166408	0.633293	0.617061
C41	C	0.659207	-0.024591	0.109875
C42	C	1.159207	0.475409	0.609875
C43	C	0.576464	-0.030494	0.108229
C44	C	1.076464	0.469506	0.608229
C45	C	0.538695	0.045496	0.111008
C46	C	1.038695	0.545496	0.611008
N47	N	0.420389	0.107290	0.111804
N48	N	0.920389	0.607290	0.611804
N49	N	0.454119	0.039453	0.109332
N50	N	0.954119	0.539453	0.609332
C51	C	0.973992	-0.171526	0.147343
C52	C	1.473992	0.328474	0.647343
C53	C	0.969854	-0.262680	0.143189
C54	C	1.469854	0.237320	0.643189
C55	C	0.919580	-0.315025	0.092869
C56	C	1.419580	0.184975	0.592869
C57	C	0.873448	-0.276212	0.046695
C58	C	1.373448	0.223788	0.546695
C59	C	0.877592	-0.185059	0.050846
C60	C	1.377592	0.314941	0.550846
C61	C	0.904662	-0.590586	0.077919
C62	C	1.404662	-0.090586	0.577919
C63	C	0.900520	-0.681744	0.073773
C64	C	1.400520	-0.181744	0.573773
C65	C	0.996927	-0.668206	0.170266
C66	C	1.496927	-0.168206	0.670266
C67	C	1.001062	-0.577052	0.174416
C68	C	1.501062	-0.077052	0.674416
C69	C	0.954934	-0.538247	0.128239
C70	C	1.454934	-0.038247	0.628239
C71	C	0.915346	-0.408200	0.088623
C72	C	1.415346	0.091800	0.588623
C73	C	0.959172	-0.445074	0.132481
C74	C	1.459172	0.054926	0.632481
C75	C	1.082266	0.083135	0.105080
C76	C	1.582266	0.583135	0.605080
C77	C	1.170327	0.089428	0.106834
C78	C	1.670327	0.589428	0.606834
C79	C	0.942748	0.063587	-0.034454
C80	C	1.442748	0.563587	0.465546
C81	C	0.941003	0.057298	-0.122517
C82	C	1.441003	0.557298	0.377483
N83	N	0.946650	0.279449	0.119942
N84	N	1.446650	0.779449	0.619942
C85	C	0.930727	0.013453	-0.618594
C86	C	1.430727	0.513453	-0.118594
C87	C	0.932373	0.019359	-0.535851
C88	C	1.432373	0.519359	-0.035851
C89	C	0.936802	0.101252	-0.490876
C90	C	1.436802	0.601252	0.009124
C91	C	0.939576	0.177244	-0.528647
C92	C	1.439576	0.677244	-0.028647
C93	C	0.937924	0.171337	-0.611388
C94	C	1.437924	0.671337	-0.111388
C95	C	0.942125	0.127383	-0.243029
C96	C	1.442125	0.627383	0.256971
C97	C	0.943780	0.133284	-0.160283
C98	C	1.443780	0.633284	0.339717
C99	C	0.936575	-0.024602	-0.167492
C100	C	1.436575	0.475398	0.332508
C101	C	0.934928	-0.030501	-0.250235
C102	C	1.434928	0.469499	0.249765
C103	C	0.937698	0.045490	-0.287998
C104	C	1.437698	0.545490	0.212002
N105	N	0.938488	0.107291	-0.406299
N106	N	1.438488	0.607291	0.093701
N107	N	0.936006	0.039451	-0.372573
N108	N	1.436006	0.539451	0.127427
C109	C	0.931758	0.083145	0.255577
C110	C	1.431758	0.583145	0.755577
C111	C	0.933503	0.089440	0.343640
C112	C	1.433503	0.589440	0.843640
H113	H	0.171487	-0.053242	0.100472
H114	H	0.671487	0.446758	0.600472
H115	H	0.943178	0.243923	-0.492021
H116	H	1.443178	0.743923	0.007979
H117	H	1.000107	-0.402451	0.173448
H118	H	1.500107	0.097549	0.673448
H119	H	1.014926	-0.128912	0.188324
H120	H	1.514926	0.371088	0.688324
H121	H	0.321590	-0.042520	0.103450
H122	H	0.821590	0.457480	0.603450
H123	H	0.931325	-0.097187	-0.286849
H124	H	1.431325	0.402813	0.213151
H125	H	0.539856	-0.097182	0.104619
H126	H	1.039856	0.402818	0.604619
H127	H	0.940180	0.233213	-0.642135
H128	H	1.440180	0.733213	-0.142135
H129	H	0.184542	0.233202	0.113514
H130	H	0.684542	0.733202	0.613514
H131	H	0.689968	-0.086457	0.107615
H132	H	1.189968	0.413543	0.607615
H133	H	0.703022	0.199985	0.120661
H134	H	1.203022	0.699985	0.620661
H135	H	0.934319	-0.086470	-0.136736
H136	H	1.434319	0.413530	0.363264
H137	H	1.007419	-0.294272	0.180783
H138	H	1.507419	0.205728	0.680783
H139	H	0.927124	-0.053233	-0.655207
H140	H	1.427124	0.446767	-0.155207
H141	H	0.930124	-0.042516	-0.505107
H142	H	1.430124	0.457484	-0.005107
H143	H	0.552919	0.189265	0.117682
H144	H	1.052919	0.689265	0.617682
H145	H	0.947385	0.199975	-0.123666
H146	H	1.447385	0.699975	0.376334
H147	H	0.334658	0.243918	0.116495
H148	H	0.834658	0.743918	0.616495
H149	H	0.944387	0.189261	-0.273767
H150	H	1.444387	0.689261	0.226233
H151	H	0.874413	-0.450829	0.047653
H152	H	1.374413	0.049171	0.547653
H153	H	1.042003	-0.534438	0.215389
H154	H	1.542003	-0.034438	0.715389
H155	H	1.034483	-0.699811	0.207860
H156	H	1.534483	-0.199811	0.707860
H157	H	0.867101	-0.559002	0.040318
H158	H	1.367101	-0.059002	0.540318
H159	H	0.832518	-0.318839	0.005720
H160	H	1.332518	0.181161	0.505720
H161	H	0.859577	-0.724362	0.032797
H162	H	1.359577	-0.224362	0.532797
H163	H	0.840027	-0.153464	0.013251
H164	H	1.340027	0.346536	0.513251
