data_functionalizedCrystal
_audit_creation_method	'MofGen! by Chris Wilmer'
_symmetry_space_group_name_H-M	'P1'
_symmetry_Int_Tables_number	1
_symmetry_cell_setting	triclinic
loop_
_symmetry_equiv_pos_as_xyz
  x,y,z
_cell_length_a	15.944551
_cell_length_b	11.792254
_cell_length_c	10.868271
_cell_angle_alpha	90.005308
_cell_angle_beta	89.999827
_cell_angle_gamma	83.848668
loop_
_atom_site_label
_atom_site_type_symbol
_atom_site_fract_x
_atom_site_fract_y
_atom_site_fract_z
O1	O	1.115189	0.146380	0.102194
O2	O	0.870722	0.164427	0.102225
O3	O	0.998883	-0.009815	0.102200
O4	O	0.987029	0.320621	0.102219
O5	O	0.998872	-0.009822	-0.102444
O6	O	0.870711	0.164420	-0.102420
O7	O	1.115179	0.146373	-0.102450
Zn8	Zn	0.992943	0.155395	-0.134927
Zn9	Zn	0.992957	0.155404	0.134702
O10	O	0.987018	0.320615	-0.102425
C11	C	0.839419	0.163674	-0.000093
C12	C	0.746163	0.161428	-0.000082
C13	C	0.998131	-0.052103	-0.000122
C14	C	0.995895	-0.178098	-0.000120
C15	C	0.994079	-0.280420	-0.000116
C16	C	0.991809	-0.408787	-0.000104
C17	C	0.530791	0.048056	-0.000112
C18	C	0.470015	0.100705	0.100791
C19	C	0.575418	0.157364	-0.000097
C20	C	0.470027	0.100725	-0.100972
C21	C	0.410488	0.153431	-0.000116
C22	C	0.515871	0.210044	0.100890
C23	C	0.515889	0.210048	-0.100964
C24	C	0.455132	0.262777	-0.000036
C25	C	0.670431	0.159627	-0.000084
C26	C	0.315477	0.151177	-0.000120
C27	C	1.146481	0.147125	-0.000129
C28	C	1.239738	0.149371	-0.000132
C29	C	0.987770	0.362903	-0.000101
C30	C	0.990005	0.488897	-0.000094
N31	N	0.992940	0.155388	-0.318941
C32	C	0.992953	0.155402	-0.569947
C33	C	0.992943	0.155398	-0.430269
N34	N	0.992967	0.155402	0.318716
H35	H	0.563711	-0.042661	0.000007
C36	C	0.442600	0.038249	-0.216213
H37	H	0.405154	0.088822	-0.263729
H38	H	0.490866	0.012919	-0.264040
H39	H	0.414844	-0.025536	-0.191953
H40	H	0.536073	0.256245	0.186290
C41	C	0.410886	0.385446	0.000038
H42	H	0.377000	0.397247	-0.071670
H43	H	0.376284	0.396793	0.071066
H44	H	0.452083	0.437979	0.000744
C45	C	0.442561	0.038256	0.216020
H46	H	0.468714	-0.038021	0.215895
H47	H	0.459018	0.076353	0.287676
H48	H	0.383010	0.037887	0.215558
C49	C	0.543374	0.272445	-0.216200
H50	H	0.527852	0.233494	-0.287830
H51	H	0.516423	0.348294	-0.216922
H52	H	0.602814	0.274014	-0.214958
