data_functionalizedCrystal
_audit_creation_method	'MofGen! by Chris Wilmer'
_symmetry_space_group_name_H-M	'P1'
_symmetry_Int_Tables_number	1
_symmetry_cell_setting	triclinic
loop_
_symmetry_equiv_pos_as_xyz
  x,y,z
_cell_length_a	18.215407
_cell_length_b	21.295417
_cell_length_c	18.215399
_cell_angle_alpha	90.032152
_cell_angle_beta	90.019833
_cell_angle_gamma	90.030955
loop_
_atom_site_label
_atom_site_type_symbol
_atom_site_fract_x
_atom_site_fract_y
_atom_site_fract_z
Zn1	Zn	1.125043	-0.250608	0.416094
Zn2	Zn	1.375043	-0.000608	0.666094
Zn3	Zn	1.625043	0.249392	0.916094
Zn4	Zn	1.875043	0.499392	1.166094
Zn5	Zn	1.124940	-0.355879	0.293019
Zn6	Zn	1.374940	-0.105879	0.543019
Zn7	Zn	1.624940	0.144121	0.793019
Zn8	Zn	1.874940	0.394121	1.043019
Zn9	Zn	1.001976	-0.250629	0.293042
Zn10	Zn	1.251976	-0.000629	0.543042
Zn11	Zn	1.501976	0.249371	0.793042
Zn12	Zn	1.751976	0.499371	1.043042
Zn13	Zn	1.001930	-0.355844	0.416044
Zn14	Zn	1.251930	-0.105844	0.666044
Zn15	Zn	1.501930	0.144156	0.916044
Zn16	Zn	1.751930	0.394156	1.166044
O17	O	1.063472	-0.303240	0.354550
O18	O	1.313472	-0.053240	0.604550
O19	O	1.563472	0.196760	0.854550
O20	O	1.813472	0.446760	1.104550
O21	O	1.228014	-0.264579	0.399780
O22	O	1.478014	-0.014579	0.649780
O23	O	1.728014	0.235421	0.899780
O24	O	1.978014	0.485421	1.149780
O25	O	1.108604	-0.341941	0.190038
O26	O	1.358604	-0.091941	0.440038
O27	O	1.608604	0.158059	0.690038
O28	O	1.858604	0.408059	0.940038
O29	O	1.018364	-0.162537	0.309396
O30	O	1.268364	0.087463	0.559396
O31	O	1.518364	0.337463	0.809396
O32	O	1.768364	0.587463	1.059396
O33	O	1.227938	-0.341921	0.309357
O34	O	1.477938	-0.091921	0.559357
O35	O	1.727938	0.158079	0.809357
O36	O	1.977938	0.408079	1.059357
O37	O	1.108781	-0.162521	0.399802
O38	O	1.358781	0.087479	0.649802
O39	O	1.608781	0.337479	0.899802
O40	O	1.858781	0.587479	1.149802
O41	O	1.018263	-0.264614	0.190054
O42	O	1.268263	-0.014614	0.440054
O43	O	1.518263	0.235386	0.690054
O44	O	1.768263	0.485386	0.940054
O45	O	0.898985	-0.264580	0.309347
O46	O	1.148985	-0.014580	0.559347
O47	O	1.398985	0.235420	0.809347
O48	O	1.648985	0.485420	1.059347
O49	O	1.018285	-0.341861	0.519035
O50	O	1.268285	-0.091861	0.769035
O51	O	1.518285	0.158139	1.019035
O52	O	1.768285	0.408139	1.269035
O53	O	0.898951	-0.341881	0.399716
O54	O	1.148951	-0.091881	0.649716
O55	O	1.398951	0.158119	0.899716
O56	O	1.648951	0.408119	1.149716
O57	O	1.108736	-0.264545	0.519072
O58	O	1.358736	-0.014545	0.769072
O59	O	1.608736	0.235455	1.019072
O60	O	1.858736	0.485455	1.269072
O61	O	1.108559	-0.443964	0.309308
O62	O	1.358559	-0.193964	0.559308
O63	O	1.608559	0.056036	0.809308
O64	O	1.858559	0.306036	1.059308
O65	O	1.018184	-0.443938	0.399694
O66	O	1.268184	-0.193938	0.649694
O67	O	1.518184	0.056062	0.899694
O68	O	1.768184	0.306062	1.149694
C69	C	0.872266	-0.303229	0.354529
C70	C	1.122266	-0.053229	0.604529
C71	C	1.372266	0.196771	0.854529
C72	C	1.622266	0.446771	1.104529
C73	C	0.790467	-0.303240	0.354537
C74	C	1.040467	-0.053240	0.604537
C75	C	1.290467	0.196760	0.854537
C76	C	1.540467	0.446760	1.104537
C77	C	0.602275	-0.343554	0.401533
C78	C	0.852275	-0.093554	0.651533
C79	C	1.102275	0.156446	0.901533
C80	C	1.352275	0.406446	1.151533
C81	C	0.525416	-0.343556	0.401542
C82	C	0.775416	-0.093556	0.651542
C83	C	1.025416	0.156444	0.901542
C84	C	1.275416	0.406444	1.151542
C85	C	0.525422	-0.262938	0.307582
C86	C	0.775422	-0.012938	0.557582
C87	C	1.025422	0.237062	0.807582
C88	C	1.275422	0.487062	1.057582
C89	C	0.602279	-0.262933	0.307577
C90	C	0.852279	-0.012933	0.557577
C91	C	1.102279	0.237067	0.807577
C92	C	1.352279	0.487067	1.057577
C93	C	0.640703	-0.303245	0.354552
C94	C	0.890703	-0.053245	0.604552
C95	C	1.140703	0.196755	0.854552
C96	C	1.390703	0.446755	1.104552
C97	C	0.486987	-0.303251	0.354566
C98	C	0.736987	-0.053251	0.604566
C99	C	0.986987	0.196749	0.854566
C100	C	1.236987	0.446749	1.104566
C101	C	0.403654	-0.303253	0.354575
C102	C	0.653654	-0.053253	0.604575
C103	C	0.903654	0.196747	0.854575
C104	C	1.153654	0.446747	1.104575
C105	C	0.724042	-0.303242	0.354543
C106	C	0.974042	-0.053242	0.604543
C107	C	1.224042	0.196758	0.854543
C108	C	1.474042	0.446758	1.104543
C109	C	1.063376	-0.466792	0.354509
C110	C	1.313376	-0.216792	0.604509
C111	C	1.563376	0.033208	0.854509
C112	C	1.813376	0.283208	1.104509
C113	C	1.063402	-0.536760	0.354516
C114	C	1.313402	-0.286760	0.604516
C115	C	1.563402	-0.036760	0.854516
C116	C	1.813402	0.213240	1.104516
C117	C	1.110502	-0.569619	0.307500
C118	C	1.360502	-0.319619	0.557500
C119	C	1.610502	-0.069619	0.807500
C120	C	1.860502	0.180381	1.057500
C121	C	1.110536	-0.635361	0.307517
C122	C	1.360536	-0.385361	0.557517
C123	C	1.610536	-0.135361	0.807517
C124	C	1.860536	0.114639	1.057517
C125	C	1.063457	-0.668242	0.354542
C126	C	1.313457	-0.418242	0.604542
C127	C	1.563457	-0.168242	0.854542
C128	C	1.813457	0.081758	1.104542
C129	C	1.016354	-0.635375	0.401566
C130	C	1.266354	-0.385375	0.651566
C131	C	1.516354	-0.135375	0.901566
C132	C	1.766354	0.114625	1.151566
C133	C	1.016326	-0.569634	0.401554
C134	C	1.266326	-0.319634	0.651554
C135	C	1.516326	-0.069634	0.901554
C136	C	1.766326	0.180366	1.151554
N137	N	0.999079	-0.771508	0.360145
N138	N	1.249079	-0.521508	0.610145
N139	N	1.499079	-0.271508	0.860145
N140	N	1.749079	-0.021508	1.110145
N141	N	0.999107	-0.833960	0.360153
N142	N	1.249107	-0.583960	0.610153
N143	N	1.499107	-0.333960	0.860153
N144	N	1.749107	-0.083960	1.110153
C145	C	1.063540	-0.866317	0.354584
C146	C	1.313540	-0.616317	0.604584
C147	C	1.563540	-0.366317	0.854584
C148	C	1.813540	-0.116317	1.104584
N149	N	1.127944	-0.833863	0.348993
N150	N	1.377944	-0.583863	0.598993
N151	N	1.627944	-0.333863	0.848993
N152	N	1.877944	-0.083863	1.098993
N153	N	1.127915	-0.771406	0.348981
N154	N	1.377915	-0.521406	0.598981
N155	N	1.627915	-0.271406	0.848981
N156	N	1.877915	-0.021406	1.098981
C157	C	1.063483	-0.739528	0.354561
C158	C	1.313483	-0.489528	0.604561
C159	C	1.563483	-0.239528	0.854561
C160	C	1.813483	0.010472	1.104561
C161	C	1.110681	-0.970462	0.307584
C162	C	1.360681	-0.720462	0.557584
C163	C	1.610681	-0.470462	0.807584
C164	C	1.860681	-0.220462	1.057584
C165	C	1.110717	-1.036205	0.307605
C166	C	1.360717	-0.786205	0.557605
C167	C	1.610717	-0.536205	0.807605
C168	C	1.860717	-0.286205	1.057605
C169	C	1.016528	-1.036218	0.401651
C170	C	1.266528	-0.786218	0.651651
C171	C	1.516528	-0.536218	0.901651
C172	C	1.766528	-0.286218	1.151651
C173	C	1.016499	-0.970475	0.401633
C174	C	1.266499	-0.720475	0.651633
C175	C	1.516499	-0.470475	0.901633
C176	C	1.766499	-0.220475	1.151633
C177	C	1.063575	-0.937601	0.354595
C178	C	1.313575	-0.687601	0.604595
C179	C	1.563575	-0.437601	0.854595
C180	C	1.813575	-0.187601	1.104595
C181	C	1.255425	-0.303251	0.354571
C182	C	1.505425	-0.053251	0.604571
C183	C	1.755425	0.196749	0.854571
C184	C	2.005425	0.446749	1.104571
C185	C	1.337224	-0.303256	0.354581
C186	C	1.587224	-0.053256	0.604581
C187	C	1.837224	0.196744	0.854581
C188	C	2.087224	0.446744	1.104581
C189	C	1.063517	-0.303197	0.546503
C190	C	1.313517	-0.053197	0.796503
C191	C	1.563517	0.196803	1.046503
C192	C	1.813517	0.446803	1.296503
C193	C	1.063536	-0.303178	0.628302
C194	C	1.313536	-0.053178	0.878302
C195	C	1.563536	0.196822	1.128302
C196	C	1.813536	0.446822	1.378302
C197	C	1.063589	-0.139050	0.354607
C198	C	1.313589	0.110950	0.604607
C199	C	1.563589	0.360950	0.854607
C200	C	1.813589	0.610950	1.104607
C201	C	1.063639	-0.069082	0.354631
C202	C	1.313639	0.180918	0.604631
C203	C	1.563639	0.430918	0.854631
C204	C	1.813639	0.680918	1.104631
C205	C	1.063470	-0.303238	0.163344
C206	C	1.313470	-0.053238	0.413344
C207	C	1.563470	0.196762	0.663344
C208	C	1.813470	0.446762	0.913344
C209	C	1.063593	-0.303079	0.081545
C210	C	1.313593	-0.053079	0.331545
C211	C	1.563593	0.196921	0.581545
C212	C	1.813593	0.446921	0.831545
C213	C	1.110651	-0.262882	0.816516
C214	C	1.360651	-0.012882	1.066516
C215	C	1.610651	0.237118	1.316516
C216	C	1.860651	0.487118	1.566516
C217	C	1.110660	-0.262863	0.893375
C218	C	1.360660	-0.012863	1.143375
C219	C	1.610660	0.237137	1.393375
C220	C	1.860660	0.487137	1.643375
C221	C	1.016473	-0.343377	0.893325
C222	C	1.266473	-0.093377	1.143325
C223	C	1.516473	0.156623	1.393325
C224	C	1.766473	0.406623	1.643325
C225	C	1.016461	-0.343392	0.816468
C226	C	1.266461	-0.093392	1.066468
C227	C	1.516461	0.156608	1.316468
C228	C	1.766461	0.406608	1.566468
C229	C	1.063554	-0.303145	0.778065
C230	C	1.313554	-0.053145	1.028065
C231	C	1.563554	0.196855	1.278065
C232	C	1.813554	0.446855	1.528065
C233	C	1.063575	-0.303112	0.931781
C234	C	1.313575	-0.053112	1.181781
C235	C	1.563575	0.196888	1.431781
C236	C	1.813575	0.446888	1.681781
C237	C	1.063584	-0.303093	1.015115
C238	C	1.313584	-0.053093	1.265115
C239	C	1.563584	0.196907	1.515115
C240	C	1.813584	0.446907	1.765115
C241	C	1.063544	-0.303164	0.694726
C242	C	1.313544	-0.053164	0.944726
C243	C	1.563544	0.196836	1.194726
C244	C	1.813544	0.446836	1.444726
H245	H	0.633557	-0.376377	0.439785
H246	H	0.883557	-0.126377	0.689785
H247	H	1.133557	0.123623	0.939785
H248	H	1.383557	0.373623	1.189785
F249	F	0.643180	-0.220025	0.257574
F250	F	0.893180	0.029975	0.507574
F251	F	1.143180	0.279975	0.757574
F252	F	1.393180	0.529975	1.007574
H253	H	0.494130	-0.376379	0.439801
H254	H	0.744130	-0.126379	0.689801
H255	H	0.994130	0.123621	0.939801
H256	H	1.244130	0.373621	1.189801
H257	H	1.148835	-0.542855	0.269202
H258	H	1.398835	-0.292855	0.519202
H259	H	1.648835	-0.042855	0.769202
H260	H	1.898835	0.207145	1.019202
H261	H	1.148893	-0.662121	0.269231
H262	H	1.398893	-0.412121	0.519231
H263	H	1.648893	-0.162121	0.769231
H264	H	1.898893	0.087879	1.019231
H265	H	0.978024	-0.662151	0.439855
H266	H	1.228024	-0.412151	0.689855
H267	H	1.478024	-0.162151	0.939855
H268	H	1.728024	0.087849	1.189855
H269	H	0.978133	-0.376146	0.924602
H270	H	1.228133	-0.126146	1.174602
H271	H	1.478133	0.123854	1.424602
H272	H	1.728133	0.373854	1.674602
F273	F	0.484521	-0.220038	0.257591
F274	F	0.734521	0.029962	0.507591
F275	F	0.984521	0.279962	0.757591
F276	F	1.234521	0.529962	1.007591
F277	F	0.966329	-0.386245	0.775543
F278	F	1.216329	-0.136245	1.025543
F279	F	1.466329	0.113755	1.275543
F280	F	1.716329	0.363755	1.525543
F281	F	0.966194	-0.534662	0.451597
F282	F	1.216194	-0.284662	0.701597
F283	F	1.466194	-0.034662	0.951597
F284	F	1.716194	0.215338	1.201597
F285	F	1.160855	-1.071176	0.257567
F286	F	1.410855	-0.821176	0.507567
F287	F	1.660855	-0.571176	0.757567
F288	F	1.910855	-0.321176	1.007567
H289	H	1.149015	-0.943694	0.269285
H290	H	1.399015	-0.693694	0.519285
H291	H	1.649015	-0.443694	0.769285
H292	H	1.899015	-0.193694	1.019285
F293	F	0.966428	-1.071208	0.451703
F294	F	1.216428	-0.821208	0.701703
F295	F	1.466428	-0.571208	0.951703
F296	F	1.716428	-0.321208	1.201703
F297	F	0.966365	-0.935503	0.451671
F298	F	1.216365	-0.685503	0.701671
F299	F	1.466365	-0.435503	0.951671
F300	F	1.716365	-0.185503	1.201671
H301	H	1.148995	-0.230109	0.785251
H302	H	1.398995	0.019891	1.035251
H303	H	1.648995	0.269891	1.285251
H304	H	1.898995	0.519891	1.535251
F305	F	1.160791	-0.220014	0.934294
F306	F	1.410791	0.029986	1.184294
F307	F	1.660791	0.279986	1.434294
F308	F	1.910791	0.529986	1.684294
