data_functionalizedCrystal
_audit_creation_method	'MofGen! by Chris Wilmer'
_symmetry_space_group_name_H-M	'P1'
_symmetry_Int_Tables_number	1
_symmetry_cell_setting	triclinic
loop_
_symmetry_equiv_pos_as_xyz
  x,y,z
_cell_length_a	11.792254
_cell_length_b	9.482900
_cell_length_c	11.026607
_cell_angle_alpha	101.386141
_cell_angle_beta	83.607693
_cell_angle_gamma	99.375122
loop_
_atom_site_label
_atom_site_type_symbol
_atom_site_fract_x
_atom_site_fract_y
_atom_site_fract_z
O1	O	-1.526100	0.120934	0.185500
O2	O	-1.026100	0.620934	0.685500
O3	O	-1.199166	0.120928	0.202648
O4	O	-0.699166	0.620928	0.702648
O5	O	-1.335538	0.120925	0.017241
O6	O	-0.835538	0.620925	0.517241
O7	O	-1.389728	0.120937	0.370908
O8	O	-0.889728	0.620937	0.870908
O9	O	-1.363285	-0.120868	-0.020503
O10	O	-0.863285	0.379132	0.479497
O11	O	-1.226914	-0.120865	0.164905
O12	O	-0.726914	0.379135	0.664905
O13	O	-1.553847	-0.120859	0.147757
O14	O	-1.053847	0.379141	0.647757
Cu15	Cu	-1.392914	-0.142940	0.152885
Cu16	Cu	-0.892914	0.357060	0.652885
Cu17	Cu	-1.360099	0.143008	0.197520
Cu18	Cu	-0.860099	0.643008	0.697520
O19	O	-1.417476	-0.120856	0.333164
O20	O	-0.917476	0.379144	0.833164
C21	C	-1.170535	0.000030	0.182696
C22	C	-0.670535	0.500030	0.682696
C23	C	-1.043880	0.000028	0.179462
C24	C	-0.543880	0.500028	0.679462
N25	N	-1.337018	0.344129	0.228906
N26	N	-0.837018	0.844129	0.728906
C27	C	-1.339414	0.000030	-0.046908
C28	C	-0.839414	0.500030	0.453092
C29	C	-1.309610	0.000035	-0.181819
C30	C	-0.809610	0.500035	0.318181
C31	C	-0.941022	0.000031	0.176836
C32	C	-0.441022	0.500031	0.676836
C33	C	-0.811983	0.000028	0.173550
C34	C	-0.311983	0.500028	0.673550
C35	C	-0.582479	0.000035	0.167708
C36	C	-0.082479	0.500035	0.667708
C37	C	-0.709135	0.000026	0.170940
C38	C	-0.209135	0.500026	0.670940
N39	N	-1.416003	-0.344060	0.121490
N40	N	-0.916003	0.155940	0.621490
C41	C	-1.386114	0.416327	0.162150
C42	C	-0.886114	0.916327	0.662150
C43	C	-1.366899	0.583745	0.188255
C44	C	-0.866899	1.083745	0.688255
C45	C	-1.391901	0.000038	-0.255078
C46	C	-0.891901	0.500038	0.244922
C47	C	-1.361099	0.000043	-0.394516
C48	C	-0.861099	0.500043	0.105484
C49	C	-1.413599	0.000042	0.397313
C50	C	-0.913599	0.500042	0.897313
C51	C	-1.443402	0.000047	0.532226
C52	C	-0.943402	0.500047	1.032226
H53	H	-1.442378	0.354198	0.085677
H54	H	-0.942378	0.854198	0.585677
H55	H	-1.485156	0.000031	-0.214570
H56	H	-0.985156	0.500031	0.285430
H57	H	-1.267838	0.000051	-0.435019
H58	H	-0.767838	0.500051	0.064981
Cl59	Cl	-1.165627	0.000047	-0.244349
Cl60	Cl	-0.665627	0.500047	0.255651
Cl61	Cl	-1.280042	0.679655	0.306345
Cl62	Cl	-0.780042	1.179655	0.806345
Cl63	Cl	-1.250164	0.440045	0.346991
Cl64	Cl	-0.750164	0.940045	0.846991
Cl65	Cl	-1.502874	0.560030	0.003412
Cl66	Cl	-1.002874	1.060030	0.503412
H67	H	-1.536650	0.000158	-0.427255
H68	H	-1.036650	0.500158	0.072745
