data_functionalizedCrystal
_audit_creation_method	'MofGen! by Chris Wilmer'
_symmetry_space_group_name_H-M	'P1'
_symmetry_Int_Tables_number	1
_symmetry_cell_setting	triclinic
loop_
_symmetry_equiv_pos_as_xyz
  x,y,z
_cell_length_a	19.188930
_cell_length_b	18.266242
_cell_length_c	19.188940
_cell_angle_alpha	89.993204
_cell_angle_beta	96.853253
_cell_angle_gamma	90.022918
loop_
_atom_site_label
_atom_site_type_symbol
_atom_site_fract_x
_atom_site_fract_y
_atom_site_fract_z
O1	O	0.926152	0.061117	-0.087168
O2	O	0.722841	0.061067	-0.098903
O3	O	0.830360	0.061088	0.008620
O4	O	0.818633	0.061096	-0.194691
O5	O	0.830342	-0.060674	0.008625
O6	O	0.722823	-0.060695	-0.098897
O7	O	0.926134	-0.060645	-0.087163
Zn8	Zn	0.824476	-0.080002	-0.093029
Zn9	Zn	0.824500	0.080424	-0.093036
O10	O	0.818615	-0.060666	-0.194685
C11	C	0.696821	0.000179	-0.098520
C12	C	0.619317	0.000160	-0.097379
N13	N	0.824465	-0.189489	-0.093024
C14	C	0.574395	0.000174	-0.160470
C15	C	0.501571	0.000182	-0.159398
C16	C	0.473672	0.000191	-0.095232
C17	C	0.518604	0.000173	-0.032133
C18	C	0.591426	0.000157	-0.033207
N19	N	0.365697	0.041659	-0.046187
N20	N	0.296518	0.041675	-0.045172
C21	C	0.254264	0.000236	-0.091994
N22	N	0.283800	-0.041212	-0.139881
N23	N	0.352985	-0.041225	-0.140898
C24	C	0.394710	0.000207	-0.094061
C25	C	0.130377	0.000257	-0.153927
C26	C	0.057553	0.000261	-0.152853
C27	C	0.074587	0.000259	-0.025586
C28	C	0.147410	0.000248	-0.026662
C29	C	0.175301	0.000251	-0.090835
C30	C	0.872090	-0.227789	-0.045436
C31	C	0.872094	-0.304434	-0.045433
C32	C	0.824480	-0.342776	-0.093029
C33	C	0.776846	-0.304467	-0.140620
C34	C	0.776838	-0.227824	-0.140618
N35	N	0.815407	-0.463107	-0.154836
N36	N	0.815418	-0.535916	-0.154837
C37	C	0.824500	-0.573699	-0.093039
N38	N	0.833583	-0.535923	-0.031239
N39	N	0.833575	-0.463108	-0.031240
C40	C	0.824483	-0.425883	-0.093037
C41	C	0.872132	-0.695105	-0.045444
C42	C	0.872132	-0.771752	-0.045440
C43	C	0.776887	-0.771784	-0.140634
C44	C	0.776884	-0.695139	-0.140632
C45	C	0.824510	-0.656804	-0.093038
C46	C	0.952154	0.000244	-0.087546
C47	C	1.029659	0.000268	-0.088686
C48	C	0.829970	0.000207	0.034633
C49	C	0.828827	0.000207	0.112138
N50	N	0.824517	0.189911	-0.093036
C51	C	0.819005	0.000217	-0.220699
C52	C	0.820148	0.000221	-0.298203
C53	C	0.820683	-0.066150	0.665400
C54	C	0.821749	-0.066154	0.592575
C55	C	0.822296	0.000218	0.556153
C56	C	0.821758	0.066598	0.592558
C57	C	0.820684	0.066600	0.665380
N58	N	0.863719	0.049630	0.447127
N59	N	0.864741	0.049623	0.377949
C60	C	0.825530	0.000216	0.336744
N61	N	0.785267	-0.049196	0.367331
N62	N	0.784248	-0.049192	0.436515
C63	C	0.823460	0.000223	0.477189
C64	C	0.827219	-0.066164	0.221382
C65	C	0.828282	-0.066166	0.148555
C66	C	0.828297	0.066589	0.148541
C67	C	0.827228	0.066588	0.221365
C68	C	0.826692	0.000209	0.257781
H69	H	0.597098	0.000178	-0.212724
F70	F	0.726148	-0.187061	-0.191269
F71	F	0.044900	0.000261	0.042704
F72	F	0.639237	0.000142	0.033946
F73	F	0.822323	-0.136799	0.553831
H74	H	0.738106	-0.663953	-0.179385
H75	H	0.020977	0.000268	-0.204231
H76	H	0.910868	-0.196579	-0.006681
H77	H	0.910910	-0.663892	-0.006688
F78	F	0.488911	0.000178	0.036156
F79	F	0.922819	-0.812515	0.005215
H80	H	0.910877	-0.335623	-0.006680
H81	H	0.183987	0.000240	0.024713
F82	F	0.826665	0.137231	0.260104
H83	H	0.828734	0.120630	0.118885
H84	H	0.820246	-0.120201	0.695046
F85	F	0.453753	0.000195	-0.226550
F86	F	0.726209	-0.812587	-0.191285
F87	F	0.160063	0.000255	-0.222224
F88	F	0.726170	-0.345274	-0.191274
H89	H	0.822200	0.120638	0.562898
F90	F	0.820116	0.137245	0.704118
F91	F	0.826646	-0.136809	0.260141
H92	H	0.828715	-0.120216	0.118922
