data_functionalizedCrystal
_audit_creation_method	'MofGen! by Chris Wilmer'
_symmetry_space_group_name_H-M	'P1'
_symmetry_Int_Tables_number	1
_symmetry_cell_setting	triclinic
loop_
_symmetry_equiv_pos_as_xyz
  x,y,z
_cell_length_a	10.654550
_cell_length_b	16.098538
_cell_length_c	10.654550
_cell_angle_alpha	87.250518
_cell_angle_beta	84.484931
_cell_angle_gamma	92.761859
loop_
_atom_site_label
_atom_site_type_symbol
_atom_site_fract_x
_atom_site_fract_y
_atom_site_fract_z
O1	O	1.673411	0.069194	0.170840
O2	O	2.173411	0.569194	0.670840
O3	O	1.307934	0.069209	0.187645
O4	O	1.807934	0.569209	0.687645
O5	O	1.499075	0.069196	-0.003496
O6	O	1.999075	0.569196	0.496504
O7	O	1.482270	0.069207	0.361982
O8	O	1.982270	0.569207	0.861982
O9	O	1.487909	-0.069316	0.007625
O10	O	1.987909	0.430684	0.507625
O11	O	1.296768	-0.069303	0.198767
O12	O	1.796768	0.430697	0.698767
O13	O	1.662245	-0.069319	0.181962
O14	O	2.162245	0.430681	0.681962
Zn15	Zn	1.477733	-0.091303	0.192130
Zn16	Zn	1.977733	0.408697	0.692130
Zn17	Zn	1.492445	0.091193	0.177477
Zn18	Zn	1.992445	0.591193	0.677477
O19	O	1.471104	-0.069305	0.373103
O20	O	1.971104	0.430695	0.873103
C21	C	1.255553	-0.000045	0.191972
C22	C	1.755553	0.499955	0.691972
C23	C	1.116110	-0.000040	0.188279
C24	C	1.616110	0.499960	0.688279
N25	N	1.467702	-0.215851	0.202129
N26	N	1.967702	0.284149	0.702129
C27	C	1.036624	-0.000038	0.300821
C28	C	1.536624	0.499962	0.800821
C29	C	0.905602	-0.000053	0.297345
C30	C	1.405602	0.499947	0.797345
C31	C	0.933565	-0.000066	0.068777
C32	C	1.433565	0.499934	0.568777
C33	C	1.064584	-0.000058	0.072254
C34	C	1.564584	0.499942	0.572254
C35	C	1.548860	-0.259442	0.121031
C36	C	2.048860	0.240558	0.621031
C37	C	1.541855	-0.346630	0.128038
C38	C	2.041855	0.153370	0.628038
C39	C	1.453697	-0.390227	0.216151
C40	C	1.953697	0.109773	0.716151
C41	C	1.372530	-0.346630	0.297253
C42	C	1.872530	0.153370	0.797253
C43	C	1.379530	-0.259443	0.290239
C44	C	1.879530	0.240557	0.790239
C45	C	1.428319	-0.653475	0.241556
C46	C	1.928319	-0.153475	0.741556
C47	C	1.421328	-0.740668	0.248566
C48	C	1.921328	-0.240668	0.748566
C49	C	1.590652	-0.740662	0.079349
C50	C	2.090652	-0.240662	0.579349
C51	C	1.597650	-0.653474	0.072348
C52	C	2.097650	-0.153474	0.572348
C53	C	1.516479	-0.609885	0.153445
C54	C	2.016479	-0.109885	0.653445
C55	C	1.446536	-0.479347	0.223318
C56	C	1.946536	0.020653	0.723318
C57	C	1.523634	-0.520766	0.146271
C58	C	2.023634	-0.020766	0.646271
C59	C	1.714626	-0.000063	0.177635
C60	C	2.214626	0.499937	0.677635
C61	C	1.854069	-0.000063	0.181327
C62	C	2.354069	0.499937	0.681327
C63	C	1.492258	-0.000060	-0.044733
C64	C	1.992258	0.499940	0.455267
C65	C	1.488566	-0.000058	-0.184177
C66	C	1.988566	0.499942	0.315823
N67	N	1.502486	0.215742	0.167468
N68	N	2.002486	0.715742	0.667468
C69	C	1.601107	-0.000063	-0.263662
C70	C	2.101107	0.499937	0.236338
C71	C	1.597632	-0.000053	-0.394684
C72	C	2.097632	0.499947	0.105316
C73	C	1.369063	-0.000037	-0.366722
C74	C	1.869063	0.499963	0.133278
C75	C	1.372541	-0.000041	-0.235703
C76	C	1.872541	0.499959	0.264297
C77	C	1.477921	-0.000048	0.414340
C78	C	1.977921	0.499952	0.914340
C79	C	1.481613	-0.000044	0.553783
C80	C	1.981613	0.499956	1.053783
H81	H	0.840890	-0.000054	0.388988
H82	H	1.340890	0.499946	0.888988
O83	O	1.326226	-0.787684	0.343606
O84	O	1.826226	-0.287684	0.843606
H85	H	1.376429	-0.827385	0.408348
H86	H	1.876429	-0.327385	0.908348
H87	H	1.274599	-0.000025	-0.408691
H88	H	1.774599	0.499975	0.091309
H89	H	1.280891	-0.000035	-0.170983
H90	H	1.780891	0.499965	0.329017
O91	O	1.092192	-0.000033	0.425963
O92	O	1.592192	0.499967	0.925963
H93	H	1.155744	0.056429	0.428496
H94	H	1.655744	0.556429	0.928496
H95	H	1.669435	-0.617979	0.000599
H96	H	2.169435	-0.117979	0.500599
O97	O	1.277455	-0.393649	0.392302
O98	O	1.777455	0.106351	0.892302
H99	H	1.180752	-0.376937	0.374046
H100	H	1.680752	0.123063	0.874046
O101	O	0.877992	-0.000080	-0.056362
O102	O	1.377992	0.499920	0.443638
H103	H	0.773533	-0.000078	-0.039876
H104	H	1.273533	0.499922	0.460124
O105	O	1.678189	-0.787674	-0.008129
O106	O	2.178189	-0.287674	0.491871
H107	H	1.658507	-0.855625	0.011539
H108	H	2.158507	-0.355625	0.511539
O109	O	1.150324	-0.000066	-0.049138
O110	O	1.650324	0.499934	0.450862
H111	H	1.215236	0.056386	-0.057555
H112	H	1.715236	0.556386	0.442445
H113	H	1.313441	-0.223952	0.356276
H114	H	1.813441	0.276048	0.856276
H115	H	1.595408	-0.485267	0.074525
H116	H	2.095408	0.014733	0.574525
O117	O	1.726248	-0.000073	-0.208092
O118	O	2.226248	0.499927	0.291908
H119	H	1.709763	-0.000083	-0.103631
H120	H	2.209763	0.499917	0.396369
O121	O	1.643941	-0.212421	0.025989
O122	O	2.143941	0.287579	0.525989
H123	H	1.699188	-0.257384	-0.029235
H124	H	2.199188	0.242616	0.470765
O125	O	1.629412	-0.393649	0.040591
O126	O	2.129412	0.106351	0.540591
H127	H	1.691908	-0.348687	-0.021838
H128	H	2.191908	0.151313	0.478162
O129	O	1.340787	-0.606465	0.329032
O130	O	1.840787	-0.106465	0.829032
H131	H	1.278323	-0.651430	0.391489
H132	H	1.778323	-0.151430	0.891489
H133	H	1.374758	-0.514850	0.295063
H134	H	1.874758	-0.014850	0.795063
H135	H	1.689274	-0.000054	-0.459396
H136	H	2.189274	0.499946	0.040604
