data_functionalizedCrystal
_audit_creation_method	'MofGen! by Chris Wilmer'
_symmetry_space_group_name_H-M	'P1'
_symmetry_Int_Tables_number	1
_symmetry_cell_setting	triclinic
loop_
_symmetry_equiv_pos_as_xyz
  x,y,z
_cell_length_a	12.759401
_cell_length_b	18.050589
_cell_length_c	12.759393
_cell_angle_alpha	89.969379
_cell_angle_beta	89.981504
_cell_angle_gamma	90.028382
loop_
_atom_site_label
_atom_site_type_symbol
_atom_site_fract_x
_atom_site_fract_y
_atom_site_fract_z
Zn1	Zn	1.606157	-0.295612	-0.593988
Zn2	Zn	1.606010	-0.419823	-0.418311
Zn3	Zn	1.430459	-0.295651	-0.418328
Zn4	Zn	1.430406	-0.419766	-0.593953
O5	O	1.518258	-0.357713	-0.506145
O6	O	1.753158	-0.312097	-0.570692
O7	O	1.582683	-0.403391	-0.271292
O8	O	1.453849	-0.191722	-0.441651
O9	O	1.753050	-0.403354	-0.441623
O10	O	1.582934	-0.191693	-0.570708
O11	O	1.453706	-0.312163	-0.271304
O12	O	1.283431	-0.312108	-0.441617
O13	O	1.453759	-0.403256	-0.740979
O14	O	1.283392	-0.403294	-0.570648
O15	O	1.582882	-0.312041	-0.741005
O16	O	1.582632	-0.523740	-0.441589
O17	O	1.453616	-0.523698	-0.570632
C18	C	1.245290	-0.357699	-0.506131
C19	C	1.128514	-0.357711	-0.506149
C20	C	1.073659	-0.405268	-0.573225
C21	C	0.963935	-0.405277	-0.573236
C22	C	0.963930	-0.310171	-0.439088
C23	C	1.073652	-0.310159	-0.439083
C24	C	1.128521	-0.452820	-0.640292
C25	C	1.073666	-0.500382	-0.707372
C26	C	0.963942	-0.500391	-0.707383
C27	C	0.909072	-0.452839	-0.640314
C28	C	1.518131	-0.550665	-0.506127
C29	C	1.518173	-0.633211	-0.506155
C30	C	1.448083	-0.832666	-0.576304
C31	C	1.422469	-0.882114	-0.480436
C32	C	1.518276	-0.784341	-0.506169
C33	C	1.543942	-0.881974	-0.602048
C34	C	1.518374	-0.930326	-0.506191
C35	C	1.492611	-0.832703	-0.410250
C36	C	1.614129	-0.832558	-0.531927
C37	C	1.588551	-0.881985	-0.435992
C38	C	1.518217	-0.700243	-0.506158
C39	C	1.518433	-1.014423	-0.506191
C40	C	1.792291	-0.357727	-0.506160
C41	C	1.909068	-0.357733	-0.506166
C42	C	1.518331	-0.357638	-0.780178
C43	C	1.518363	-0.357606	-0.896955
C44	C	1.518414	-0.164007	-0.506185
C45	C	1.518480	-0.081462	-0.506203
C46	C	1.585606	-0.310106	-0.951832
C47	C	1.585631	-0.310079	-1.061557
C48	C	1.451166	-0.405059	-1.061516
C49	C	1.451136	-0.405081	-0.951794
C50	C	1.652833	-0.262631	-0.896993
C51	C	1.720083	-0.215128	-0.951871
C52	C	1.720108	-0.215101	-1.061595
C53	C	1.652883	-0.262577	-1.116442
C54	C	1.518245	-0.357734	-0.233178
C55	C	1.518417	-0.357557	-0.116401
H56	H	1.388636	-0.811010	-0.635531
H57	H	1.647952	-0.903503	-0.376622
H58	H	1.695124	-0.810777	-0.553739
H59	H	1.118316	-0.271429	-0.384472
H60	H	1.565611	-0.903618	-0.683124
C61	C	1.794025	-0.162904	-0.891545
C62	C	1.794005	-0.162931	-0.770855
C63	C	1.867949	-0.110706	-0.710532
C64	C	1.941912	-0.058454	-0.770899
C65	C	1.941935	-0.058424	-0.891596
C66	C	1.867991	-0.110650	-0.951919
H67	H	1.739250	-0.201614	-0.726162
H68	H	1.867931	-0.110728	-0.621184
H69	H	1.996650	-0.019793	-0.726244
H70	H	1.996690	-0.019742	-0.936289
H71	H	1.868009	-0.110627	-1.041267
H72	H	1.341455	-0.903898	-0.458669
C73	C	1.134016	-0.552683	-0.781148
C74	C	1.254706	-0.552677	-0.781140
C75	C	1.315054	-0.604980	-0.854919
C76	C	1.254712	-0.657288	-0.928707
C77	C	1.134015	-0.657296	-0.928718
C78	C	1.073667	-0.604993	-0.854938
H79	H	1.299381	-0.513954	-0.726515
H80	H	1.404402	-0.604973	-0.854910
H81	H	1.299385	-0.696005	-0.983323
H82	H	1.089340	-0.696019	-0.983342
H83	H	0.984319	-0.605000	-0.854947
H84	H	1.217863	-0.452820	-0.640288
C85	C	1.463209	-0.803589	-0.300692
C86	C	1.356490	-0.823827	-0.252056
C87	C	1.327086	-0.794710	-0.142503
C88	C	1.404400	-0.745354	-0.081584
C89	C	1.511125	-0.725113	-0.130219
C90	C	1.540529	-0.754230	-0.239772
H91	H	1.299252	-0.860366	-0.297153
H92	H	1.248080	-0.809694	-0.106501
H93	H	1.382633	-0.723800	-0.000486
H94	H	1.568363	-0.688574	-0.085123
H95	H	1.619535	-0.739246	-0.275775
H96	H	1.652822	-0.262649	-0.807650
C97	C	1.794076	-0.162847	-1.121961
C98	C	1.913502	-0.168923	-1.106882
C99	C	1.987477	-0.116670	-1.167245
C100	C	1.942024	-0.058339	-1.242687
C101	C	1.822591	-0.052260	-1.257768
C102	C	1.748617	-0.104514	-1.197406
H103	H	1.947155	-0.212105	-1.051033
H104	H	2.075889	-0.121170	-1.156080
H105	H	1.996784	-0.019658	-1.287371
H106	H	1.788939	-0.009078	-1.313618
H107	H	1.660204	-0.100013	-1.208571
C108	C	1.377230	-0.457286	-1.121845
C109	C	1.377266	-0.457265	-1.242535
C110	C	1.303332	-0.509495	-1.302861
C111	C	1.229362	-0.561745	-1.242498
C112	C	1.229324	-0.561768	-1.121801
C113	C	1.303258	-0.509538	-1.061475
H114	H	1.432024	-0.418584	-1.287225
H115	H	1.303360	-0.509477	-1.392209
H116	H	1.174632	-0.600409	-1.287156
H117	H	1.174566	-0.600449	-1.077111
H118	H	1.303230	-0.509555	-0.972126
H119	H	1.396364	-0.443749	-0.907112
H120	H	1.652896	-0.262543	-1.205786
H121	H	0.819728	-0.452844	-0.640338
C122	C	0.903601	-0.552703	-0.781171
C123	C	0.918641	-0.637120	-0.772383
C124	C	0.858303	-0.689437	-0.846169
C125	C	0.782924	-0.657338	-0.928745
C126	C	0.767881	-0.572917	-0.937536
C127	C	0.828219	-0.520600	-0.863749
H128	H	0.974444	-0.660886	-0.711252
H129	H	0.869440	-0.751931	-0.839661
H130	H	0.738258	-0.696067	-0.983366
H131	H	0.712078	-0.549152	-0.998666
H132	H	0.817082	-0.458106	-0.870258
H133	H	0.919247	-0.271458	-0.384483
