data_functionalizedCrystal
_audit_creation_method	'MofGen! by Chris Wilmer'
_symmetry_space_group_name_H-M	'P1'
_symmetry_Int_Tables_number	1
_symmetry_cell_setting	triclinic
loop_
_symmetry_equiv_pos_as_xyz
  x,y,z
_cell_length_a	11.169417
_cell_length_b	12.759394
_cell_length_c	11.169409
_cell_angle_alpha	89.967170
_cell_angle_beta	89.980487
_cell_angle_gamma	90.015105
loop_
_atom_site_label
_atom_site_type_symbol
_atom_site_fract_x
_atom_site_fract_y
_atom_site_fract_z
Zn1	Zn	1.834933	-0.418146	-0.678529
Zn2	Zn	1.834810	-0.593872	-0.477844
Zn3	Zn	1.634219	-0.418212	-0.477864
Zn4	Zn	1.634214	-0.593788	-0.678490
O5	O	1.734544	-0.506004	-0.578182
O6	O	2.002866	-0.441465	-0.651915
O7	O	1.808152	-0.570633	-0.309897
O8	O	1.660898	-0.271182	-0.504507
O9	O	2.002776	-0.570570	-0.504473
O10	O	1.808361	-0.271134	-0.651935
O11	O	1.660778	-0.441576	-0.309912
O12	O	1.466269	-0.441494	-0.504470
O13	O	1.660889	-0.570426	-0.846445
O14	O	1.466265	-0.570489	-0.651869
O15	O	1.808357	-0.441383	-0.846473
O16	O	1.808147	-0.740882	-0.504435
O17	O	1.660770	-0.740820	-0.651849
C18	C	1.422719	-0.505990	-0.578168
C19	C	1.289319	-0.506010	-0.578190
C20	C	1.734477	-0.778972	-0.578162
C21	C	1.734559	-0.895749	-0.578193
C22	C	1.887998	-0.895541	-0.731825
C23	C	1.964755	-0.950297	-0.808649
C24	C	1.964826	-1.060019	-0.808675
C25	C	1.888129	-1.114986	-0.731871
C26	C	1.811372	-1.060230	-0.655046
C27	C	1.811312	-0.950505	-0.655026
C28	C	1.657929	-1.060438	-0.501423
C29	C	1.657862	-0.950716	-0.501389
C30	C	1.581232	-1.115405	-0.424618
C31	C	1.504479	-1.060648	-0.347786
C32	C	1.504412	-0.950920	-0.347762
C33	C	1.581104	-0.895959	-0.424564
C34	C	2.047586	-0.506019	-0.578196
C35	C	2.180986	-0.506026	-0.578202
C36	C	1.734636	-0.505888	-0.891224
C37	C	1.734675	-0.505838	-1.024624
C38	C	1.734644	-0.231971	-0.578228
C39	C	1.734686	-0.115194	-0.578247
C40	C	1.734521	-0.506045	-0.266357
C41	C	1.734714	-0.505799	-0.132957
H42	H	1.887959	-0.806200	-0.731800
H43	H	1.581291	-1.204746	-0.424649
N44	N	2.047473	-0.891001	-0.891477
H45	H	2.133245	-0.910048	-0.872906
H46	H	2.028709	-0.910071	-0.977188
H47	H	1.441902	-0.906343	-0.285207
N48	N	2.047596	-1.119086	-0.891548
H49	H	2.096167	-1.067620	-0.940205
H50	H	2.103187	-1.164608	-0.842753
N51	N	1.581042	-0.777618	-0.424528
H52	H	1.641275	-0.751109	-0.484837
H53	H	1.498647	-0.751309	-0.446486
H54	H	1.888184	-1.204327	-0.731909
H55	H	1.442033	-1.105411	-0.285264
