data_functionalizedCrystal
_audit_creation_method	'MofGen! by Chris Wilmer'
_symmetry_space_group_name_H-M	'P1'
_symmetry_Int_Tables_number	1
_symmetry_cell_setting	triclinic
loop_
_symmetry_equiv_pos_as_xyz
  x,y,z
_cell_length_a	17.019383
_cell_length_b	11.026607
_cell_length_c	9.482900
_cell_angle_alpha	78.599815
_cell_angle_beta	76.912931
_cell_angle_gamma	84.035808
loop_
_atom_site_label
_atom_site_type_symbol
_atom_site_fract_x
_atom_site_fract_y
_atom_site_fract_z
O1	O	1.089031	-0.114215	-0.257095
O2	O	1.589031	0.385785	0.242905
O3	O	0.859890	-0.138413	-0.228439
O4	O	1.359890	0.361587	0.271561
O5	O	0.955469	0.049934	-0.240387
O6	O	1.455469	0.549934	0.259613
O7	O	0.993452	-0.302561	-0.245148
O8	O	1.493452	0.197439	0.254852
O9	O	0.936077	0.011525	0.003830
O10	O	1.436077	0.511525	0.503830
O11	O	0.840498	-0.176821	0.015777
O12	O	1.340498	0.323179	0.515777
O13	O	1.069638	-0.152624	-0.012879
O14	O	1.569638	0.347376	0.487121
Cu15	Cu	0.953297	-0.168230	0.023748
Cu16	Cu	1.453297	0.331770	0.523748
Cu17	Cu	0.976231	-0.122807	-0.265066
Cu18	Cu	1.476231	0.377193	0.234934
O19	O	0.974059	-0.340970	-0.000931
O20	O	1.474059	0.159030	0.499069
C21	C	0.820403	-0.157453	-0.102606
C22	C	1.320403	0.342547	0.397394
C23	C	0.731634	-0.156950	-0.091504
C24	C	1.231634	0.343050	0.408496
C25	C	0.700493	-0.135782	-0.219400
C26	C	1.200493	0.364218	0.280600
C27	C	0.617084	-0.135333	-0.208948
C28	C	1.117084	0.364667	0.291052
C29	C	0.564817	-0.156043	-0.070598
C30	C	1.064817	0.343957	0.429402
C31	C	0.595963	-0.177216	0.057307
C32	C	1.095963	0.322784	0.557307
C33	C	0.679371	-0.177674	0.046854
C34	C	1.179371	0.322326	0.546854
C35	C	0.312450	-0.155715	-0.032375
C36	C	0.812450	0.344285	0.467625
C37	C	0.229037	-0.155252	-0.021931
C38	C	0.729037	0.344748	0.478069
C39	C	0.250164	-0.113371	-0.288188
C40	C	0.750164	0.386629	0.211812
C41	C	0.333572	-0.113823	-0.298629
C42	C	0.833572	0.386177	0.201371
C43	C	0.364711	-0.135003	-0.170723
C44	C	0.864711	0.364997	0.329277
C45	C	0.479559	-0.155580	-0.059911
C46	C	0.979559	0.344420	0.440089
C47	C	0.449968	-0.135474	-0.181412
C48	C	0.949968	0.364526	0.318588
C49	C	0.938766	0.075791	-0.117404
C50	C	1.438766	0.575791	0.382596
C51	C	0.917878	0.210061	-0.114797
C52	C	1.417878	0.710061	0.385203
C53	C	1.109126	-0.133583	-0.138716
C54	C	1.609126	0.366417	0.361284
C55	C	1.197896	-0.134084	-0.149827
C56	C	1.697896	0.365916	0.350173
C57	C	0.990763	-0.366827	-0.123917
C58	C	1.490763	0.133173	0.376083
C59	C	1.011651	-0.501095	-0.126534
C60	C	1.511651	-0.001095	0.373466
N61	N	0.937173	-0.200177	0.226884
N62	N	1.437173	0.299823	0.726884
C63	C	0.975554	0.285096	-0.122012
C64	C	1.475554	0.785096	0.377988
C65	C	0.953967	0.423871	-0.119318
C66	C	1.453967	0.923871	0.380682
N67	N	0.992361	-0.090850	-0.468203
N68	N	1.492361	0.409150	0.031797
C69	C	0.971469	-0.132223	0.294796
C70	C	1.471469	0.367777	0.794796
C71	C	0.958060	-0.158813	0.463890
C72	C	1.458060	0.341187	0.963890
H73	H	0.591733	-0.118095	-0.313095
H74	H	1.091733	0.381905	0.186905
F75	F	0.712513	-0.200209	0.182979
F76	F	1.212513	0.299791	0.682979
F77	F	1.060987	0.234783	-0.132705
F78	F	1.560987	0.734783	0.367295
H79	H	1.031649	-0.012978	0.464762
H80	H	1.531649	0.487022	0.964762
H81	H	0.888604	0.462366	-0.111153
H82	H	1.388604	0.962366	0.388847
H83	H	1.077024	0.460431	-0.134818
H84	H	1.577024	0.960431	0.365182
F85	F	0.832448	0.260377	-0.104127
F86	F	1.332448	0.760377	0.395873
H87	H	0.897880	-0.278035	0.293926
H88	H	1.397880	0.221965	0.793926
H89	H	1.010754	-0.054356	0.227757
H90	H	1.510754	0.445644	0.727757
H91	H	0.743044	-0.118914	-0.332060
H92	H	1.243044	0.381086	0.167940
F93	F	0.217015	-0.090820	-0.424304
F94	F	0.717015	0.409180	0.075696
F95	F	0.389193	-0.091775	-0.445880
F96	F	0.889193	0.408225	0.054120
H97	H	0.918765	-0.236677	0.530926
H98	H	1.418765	0.263323	1.030926
F99	F	0.505596	-0.113438	-0.328649
F100	F	1.005596	0.386562	0.171351
F101	F	0.173410	-0.177276	0.125327
F102	F	0.673410	0.322724	0.625327
H103	H	0.436994	-0.172439	0.052734
H104	H	0.936994	0.327561	0.552734
F105	F	0.345580	-0.178256	0.103755
F106	F	0.845580	0.321744	0.603755
F107	F	0.540335	-0.199267	0.204551
F108	F	1.040335	0.300733	0.704551
