data_functionalizedCrystal
_audit_creation_method	'MofGen! by Chris Wilmer'
_symmetry_space_group_name_H-M	'P1'
_symmetry_Int_Tables_number	1
_symmetry_cell_setting	triclinic
loop_
_symmetry_equiv_pos_as_xyz
  x,y,z
_cell_length_a	18.215407
_cell_length_b	18.215405
_cell_length_c	18.215399
_cell_angle_alpha	90.030551
_cell_angle_beta	90.017368
_cell_angle_gamma	90.022329
loop_
_atom_site_label
_atom_site_type_symbol
_atom_site_fract_x
_atom_site_fract_y
_atom_site_fract_z
Zn1	Zn	1.125072	-0.293042	0.416054
Zn2	Zn	1.458405	0.040291	0.749387
Zn3	Zn	1.791739	0.373625	1.082721
Zn4	Zn	1.124980	-0.416113	0.292982
Zn5	Zn	1.458314	-0.082780	0.626316
Zn6	Zn	1.791647	0.250553	0.959649
Zn7	Zn	1.002004	-0.293060	0.293007
Zn8	Zn	1.335338	0.040274	0.626340
Zn9	Zn	1.668671	0.373607	0.959673
Zn10	Zn	1.001970	-0.416066	0.416012
Zn11	Zn	1.335304	-0.082733	0.749346
Zn12	Zn	1.668637	0.250601	1.082679
O13	O	1.063507	-0.354570	0.354514
O14	O	1.396840	-0.021237	0.687847
O15	O	1.730173	0.312096	1.021181
O16	O	1.228044	-0.309380	0.399736
O17	O	1.561377	0.023953	0.733069
O18	O	1.894711	0.357286	1.066402
O19	O	1.108643	-0.399817	0.190001
O20	O	1.441977	-0.066484	0.523335
O21	O	1.775310	0.266849	0.856668
O22	O	1.018382	-0.190073	0.309357
O23	O	1.351716	0.143260	0.642690
O24	O	1.685049	0.476594	0.976024
O25	O	1.227977	-0.399800	0.309315
O26	O	1.561310	-0.066467	0.642649
O27	O	1.894643	0.266867	0.975982
O28	O	1.108799	-0.190060	0.399759
O29	O	1.442133	0.143273	0.733093
O30	O	1.775466	0.476607	1.066426
O31	O	1.018293	-0.309410	0.190019
O32	O	1.351627	0.023923	0.523353
O33	O	1.684960	0.357256	0.856686
O34	O	0.899016	-0.309364	0.309317
O35	O	1.232349	0.023969	0.642650
O36	O	1.565682	0.357302	0.975983
O37	O	1.018324	-0.399719	0.519002
O38	O	1.351657	-0.066386	0.852336
O39	O	1.684991	0.266947	1.185669
O40	O	0.898991	-0.399736	0.399688
O41	O	1.232324	-0.066403	0.733022
O42	O	1.565657	0.266930	1.066355
O43	O	1.108766	-0.309334	0.519033
O44	O	1.442100	0.023999	0.852366
O45	O	1.775433	0.357332	1.185700
O46	O	1.108610	-0.519091	0.309275
O47	O	1.441943	-0.185758	0.642608
O48	O	1.775277	0.147575	0.975941
O49	O	1.018235	-0.519056	0.399665
O50	O	1.351569	-0.185723	0.732998
O51	O	1.684902	0.147610	1.066331
C52	C	0.872301	-0.354548	0.354501
C53	C	1.205634	-0.021214	0.687834
C54	C	1.538967	0.312119	1.021168
C55	C	0.790502	-0.354556	0.354513
C56	C	1.123835	-0.021222	0.687846
C57	C	1.457168	0.312111	1.021180
C58	C	1.063429	-0.545777	0.354479
C59	C	1.396762	-0.212443	0.687812
C60	C	1.730096	0.120890	1.021145
C61	C	1.063463	-0.627575	0.354488
C62	C	1.396796	-0.294242	0.687821
C63	C	1.730130	0.039091	1.021155
C64	C	0.602342	-0.307571	0.401669
C65	C	0.935675	0.025762	0.735003
C66	C	1.269008	0.359096	1.068336
C67	C	0.525483	-0.307577	0.401672
C68	C	0.858816	0.025756	0.735005
C69	C	1.192150	0.359089	1.068338
C70	C	0.525424	-0.401590	0.307372
C71	C	0.858757	-0.068257	0.640705
C72	C	1.192090	0.265076	0.974038
C73	C	0.602281	-0.401580	0.307366
C74	C	0.935615	-0.068246	0.640699
C75	C	1.268948	0.265087	0.974033
C76	C	0.640738	-0.354571	0.354519
C77	C	0.974071	-0.021238	0.687852
C78	C	1.307405	0.312096	1.021186
C79	C	0.487022	-0.354588	0.354527
C80	C	0.820355	-0.021255	0.687860
C81	C	1.153689	0.312079	1.021194
C82	C	0.403688	-0.354595	0.354529
C83	C	0.737022	-0.021262	0.687863
C84	C	1.070355	0.312072	1.021196
C85	C	0.724077	-0.354563	0.354516
C86	C	1.057410	-0.021229	0.687849
C87	C	1.390744	0.312104	1.021182
C88	C	1.110632	-0.815763	0.307509
C89	C	1.443965	-0.482430	0.640842
C90	C	1.777298	-0.149096	0.974175
C91	C	1.110665	-0.892622	0.307526
C92	C	1.443998	-0.559288	0.640860
C93	C	1.777331	-0.225955	0.974193
C94	C	1.016476	-0.892625	0.401572
C95	C	1.349809	-0.559292	0.734905
C96	C	1.683143	-0.225959	1.068239
C97	C	1.016447	-0.815768	0.401557
C98	C	1.349781	-0.482435	0.734891
C99	C	1.683114	-0.149101	1.068224
C100	C	1.063524	-0.777339	0.354522
C101	C	1.396857	-0.444006	0.687855
C102	C	1.730191	-0.110672	1.021188
C103	C	1.063586	-0.931055	0.354554
C104	C	1.396919	-0.597722	0.687887
C105	C	1.730252	-0.264388	1.021221
C106	C	1.063621	-1.014389	0.354574
C107	C	1.396954	-0.681055	0.687907
C108	C	1.730288	-0.347722	1.021240
C109	C	1.063490	-0.694000	0.354503
C110	C	1.396823	-0.360667	0.687836
C111	C	1.730157	-0.027333	1.021169
C112	C	1.255460	-0.354593	0.354527
C113	C	1.588793	-0.021260	0.687861
C114	C	1.922126	0.312073	1.021194
C115	C	1.337259	-0.354603	0.354533
C116	C	1.670592	-0.021270	0.687866
C117	C	2.003925	0.312063	1.021200
C118	C	1.063552	-0.354520	0.546467
C119	C	1.396885	-0.021186	0.879800
C120	C	1.730218	0.312147	1.213134
C121	C	1.063571	-0.354498	0.628266
C122	C	1.396904	-0.021165	0.961599
C123	C	1.730237	0.312169	1.294933
C124	C	1.063605	-0.162617	0.354566
C125	C	1.396938	0.170716	0.687899
C126	C	1.730271	0.504049	1.021232
C127	C	1.063647	-0.080818	0.354588
C128	C	1.396980	0.252515	0.687921
C129	C	1.730313	0.585848	1.021254
C130	C	1.063504	-0.354568	0.163308
C131	C	1.396838	-0.021234	0.496641
C132	C	1.730171	0.312099	0.829974
C133	C	1.063628	-0.354382	0.081509
C134	C	1.396961	-0.021049	0.414843
C135	C	1.730295	0.312285	0.748176
C136	C	1.110681	-0.307390	0.816477
C137	C	1.444014	0.025943	1.149810
C138	C	1.777348	0.359276	1.483144
C139	C	1.110690	-0.307369	0.893336
C140	C	1.444023	0.025964	1.226669
C141	C	1.777356	0.359298	1.560002
C142	C	1.016513	-0.401492	0.893293
C143	C	1.349846	-0.068158	1.226626
C144	C	1.683179	0.265175	1.559959
C145	C	1.016501	-0.401509	0.816435
C146	C	1.349834	-0.068175	1.149769
C147	C	1.683167	0.265158	1.483102
C148	C	1.063589	-0.354459	0.778029
C149	C	1.396922	-0.021126	1.111363
C150	C	1.730256	0.312207	1.444696
C151	C	1.063610	-0.354421	0.931746
C152	C	1.396943	-0.021087	1.265079
C153	C	1.730276	0.312246	1.598412
C154	C	1.063619	-0.354398	1.015079
C155	C	1.396952	-0.021064	1.348413
C156	C	1.730286	0.312269	1.681746
C157	C	1.063579	-0.354481	0.694690
C158	C	1.396912	-0.021148	1.028024
C159	C	1.730246	0.312186	1.361357
H160	H	0.633651	-0.269291	0.440062
H161	H	0.966984	0.064042	0.773395
H162	H	1.300318	0.397375	1.106729
H163	H	0.494224	-0.269304	0.440065
H164	H	0.827557	0.064030	0.773398
H165	H	1.160891	0.397363	1.106732
O166	O	0.488031	-0.447335	0.261680
O167	O	0.821365	-0.114002	0.595013
O168	O	1.154698	0.219332	0.928347
C169	C	0.401196	-0.546665	0.251612
C170	C	0.734529	-0.213332	0.584946
C171	C	1.067862	0.120001	0.918279
C172	C	0.443508	-0.494914	0.303440
C173	C	0.776841	-0.161581	0.636774
C174	C	1.110174	0.171752	0.970107
H175	H	0.365176	-0.585136	0.285354
H176	H	0.698510	-0.251803	0.618687
H177	H	1.031843	0.081531	0.952020
H178	H	0.441809	-0.580310	0.217922
H179	H	0.775142	-0.246977	0.551256
H180	H	1.108476	0.086357	0.884589
H181	H	0.365238	-0.512820	0.213180
H182	H	0.698571	-0.179487	0.546514
H183	H	1.031905	0.153846	0.879847
H184	H	0.479466	-0.528703	0.341917
H185	H	0.812800	-0.195369	0.675250
H186	H	1.146133	0.137964	1.008583
H187	H	0.402854	-0.461267	0.337078
H188	H	0.736188	-0.127934	0.670412
H189	H	1.069521	0.205399	1.003745
H190	H	0.978086	-0.784481	0.439845
H191	H	1.311420	-0.451148	0.773178
H192	H	1.644753	-0.117814	1.106511
H193	H	1.149021	-0.269078	0.785209
H194	H	1.482355	0.064256	1.118543
H195	H	1.815688	0.397589	1.451876
H196	H	0.633544	-0.439854	0.268967
H197	H	0.966878	-0.106520	0.602300
H198	H	1.300211	0.226813	0.935633
H199	H	1.148966	-0.784476	0.269210
H200	H	1.482299	-0.451142	0.602544
H201	H	1.815632	-0.117809	0.935877
O202	O	1.156506	-0.261624	0.930570
O203	O	1.489839	0.071709	1.263903
O204	O	1.823173	0.405042	1.597236
C205	C	1.249887	-0.168241	0.922496
C206	C	1.583220	0.165092	1.255830
C207	C	1.916553	0.498426	1.589163
C208	C	1.198048	-0.220025	0.880239
C209	C	1.531382	0.113309	1.213572
C210	C	1.864715	0.446642	1.546905
H211	H	1.283476	-0.134583	0.881822
H212	H	1.616810	0.198750	1.215155
H213	H	1.950143	0.532084	1.548489
H214	H	1.288405	-0.201988	0.958456
H215	H	1.621738	0.131345	1.291790
H216	H	1.955071	0.464679	1.625123
H217	H	1.216112	-0.129778	0.958504
H218	H	1.549445	0.203555	1.291837
H219	H	1.882778	0.536889	1.625170
H220	H	1.231764	-0.258498	0.844191
H221	H	1.565097	0.074835	1.177525
H222	H	1.898431	0.408169	1.510858
H223	H	1.159528	-0.186232	0.844325
H224	H	1.492862	0.147101	1.177658
H225	H	1.826195	0.480435	1.510992
O226	O	1.156447	-0.929833	0.261787
O227	O	1.489780	-0.596500	0.595120
O228	O	1.823114	-0.263166	0.928454
C229	C	1.249895	-0.921713	0.168534
C230	C	1.583228	-0.588380	0.501867
C231	C	1.916561	-0.255046	0.835200
C232	C	1.198068	-0.879481	0.220285
C233	C	1.531402	-0.546148	0.553618
C234	C	1.864735	-0.212814	0.886952
H235	H	1.283570	-0.881022	0.134977
H236	H	1.616903	-0.547689	0.468310
H237	H	1.950237	-0.214355	0.801644
H238	H	1.216180	-0.957731	0.129981
H239	H	1.549514	-0.624398	0.463314
H240	H	1.882847	-0.291065	0.796648
H241	H	1.288339	-0.957660	0.202375
H242	H	1.621673	-0.624326	0.535708
H243	H	1.955006	-0.290993	0.869041
H244	H	1.159613	-0.843495	0.186503
H245	H	1.492947	-0.510161	0.519837
H246	H	1.826280	-0.176828	0.853170
H247	H	1.231829	-0.843509	0.258840
H248	H	1.565162	-0.510176	0.592173
H249	H	1.898495	-0.176842	0.925507
H250	H	0.978146	-0.923924	0.439866
H251	H	1.311480	-0.590590	0.773199
H252	H	1.644813	-0.257257	1.106533
O253	O	0.970846	-0.447173	0.930715
O254	O	1.304180	-0.113840	1.264049
O255	O	1.637513	0.219494	1.597382
C256	C	0.929095	-0.488831	1.049099
C257	C	1.262429	-0.155498	1.382432
C258	C	1.595762	0.177836	1.715765
C259	C	0.980861	-0.437070	1.006812
C260	C	1.314195	-0.103736	1.340145
C261	C	1.647528	0.229597	1.673479
H262	H	0.937163	-0.480669	1.110630
H263	H	1.270497	-0.147336	1.443963
H264	H	1.603830	0.185997	1.777297
H265	H	0.941988	-0.548193	1.034025
H266	H	1.275322	-0.214860	1.367358
H267	H	1.608655	0.118474	1.700692
H268	H	0.869766	-0.475913	1.033939
H269	H	1.203099	-0.142580	1.367272
H270	H	1.536432	0.190754	1.700605
H271	H	1.040208	-0.449921	1.021949
H272	H	1.373541	-0.116588	1.355283
H273	H	1.706875	0.216745	1.688616
H274	H	0.967905	-0.377723	1.021889
H275	H	1.301238	-0.044390	1.355223
H276	H	1.634571	0.288944	1.688556
O277	O	0.970731	-0.447305	0.779196
O278	O	1.304064	-0.113972	1.112529
O279	O	1.637397	0.219361	1.445863
C280	C	0.877291	-0.540630	0.787257
C281	C	1.210624	-0.207297	1.120591
C282	C	1.543957	0.126036	1.453924
C283	C	0.929098	-0.488822	0.829522
C284	C	1.262431	-0.155488	1.162855
C285	C	1.595765	0.177845	1.496189
H286	H	0.843606	-0.574199	0.827927
H287	H	1.176940	-0.240865	1.161261
H288	H	1.510273	0.092468	1.494594
H289	H	0.911020	-0.579170	0.751287
H290	H	1.244353	-0.245836	1.084621
H291	H	1.577687	0.087497	1.417954
H292	H	0.838853	-0.506834	0.751260
H293	H	1.172187	-0.173500	1.084593
H294	H	1.505520	0.159833	1.417926
H295	H	0.967546	-0.522559	0.865559
H296	H	1.300879	-0.189226	1.198893
H297	H	1.634212	0.144108	1.532226
H298	H	0.895323	-0.450280	0.865446
H299	H	1.228656	-0.116947	1.198779
H300	H	1.561989	0.216386	1.532113
