data_functionalizedCrystal
_audit_creation_method	'MofGen! by Chris Wilmer'
_symmetry_space_group_name_H-M	'P1'
_symmetry_Int_Tables_number	1
_symmetry_cell_setting	triclinic
loop_
_symmetry_equiv_pos_as_xyz
  x,y,z
_cell_length_a	14.853567
_cell_length_b	23.532407
_cell_length_c	13.930277
_cell_angle_alpha	89.990782
_cell_angle_beta	89.995755
_cell_angle_gamma	83.241804
loop_
_atom_site_label
_atom_site_type_symbol
_atom_site_fract_x
_atom_site_fract_y
_atom_site_fract_z
O1	O	1.195555	0.074353	-0.079775
O2	O	0.932999	0.083210	-0.079793
O3	O	1.072194	-0.004116	-0.079766
O4	O	1.056360	0.161678	-0.079802
O5	O	1.072175	-0.004118	0.079896
O6	O	0.932980	0.083208	0.079869
O7	O	1.195536	0.074351	0.079887
Zn8	Zn	1.064255	0.078779	0.105228
Zn9	Zn	1.064280	0.078782	-0.105133
O10	O	1.056340	0.161677	0.079860
C11	C	0.899405	0.082808	0.000036
C12	C	0.799334	0.081605	0.000030
C13	C	0.387423	0.024648	0.000064
C14	C	0.365008	0.128393	0.000041
C15	C	0.459029	0.129524	0.000037
C16	C	0.517252	0.078216	0.000046
C17	C	0.481454	0.025777	0.000058
C18	C	0.494835	0.181961	0.000016
C19	C	0.588861	0.183094	0.000011
C20	C	0.647086	0.131786	0.000027
C21	C	0.611283	0.079345	0.000040
C22	C	0.669506	0.028037	0.000049
C23	C	0.633704	-0.024404	0.000069
C24	C	0.539679	-0.025531	0.000074
C25	C	0.741111	0.132913	0.000022
C26	C	0.763536	0.029166	0.000042
C27	C	1.071782	-0.025335	0.000068
C28	C	1.070569	-0.088557	0.000075
C29	C	1.145338	-0.487334	0.000027
C30	C	1.144212	-0.546739	0.000020
O31	O	1.213524	-0.583181	-0.000011
N32	N	1.061460	-0.569726	0.000015
C33	C	0.979829	-0.533305	0.000008
O34	O	0.909339	-0.558312	0.000002
C35	C	0.980957	-0.473901	0.000008
C36	C	1.063714	-0.450917	0.000023
C37	C	1.228089	-0.464349	0.000041
C38	C	1.229214	-0.404948	0.000050
C39	C	1.147590	-0.368531	0.000046
C40	C	1.064839	-0.391516	0.000032
C41	C	0.899327	-0.437481	-0.000006
C42	C	0.900461	-0.378073	-0.000006
C43	C	0.983218	-0.355089	0.000009
C44	C	0.984341	-0.295698	0.000037
N45	N	1.067092	-0.272711	0.000042
C46	C	1.148717	-0.309128	0.000046
C47	C	0.977469	-0.658058	0.000005
C48	C	0.976340	-0.717461	0.000012
C49	C	1.140723	-0.730890	0.000022
C50	C	1.141851	-0.671486	0.000022
C51	C	1.060220	-0.635070	0.000010
C52	C	1.151075	-0.184380	0.000066
C53	C	1.152194	-0.124974	0.000079
C54	C	0.987811	-0.111549	0.000064
C55	C	0.986692	-0.170951	0.000056
C56	C	1.068331	-0.207365	0.000054
O57	O	0.915065	-0.259221	0.000064
O58	O	1.219196	-0.284112	0.000039
C59	C	1.229130	0.074753	0.000056
C60	C	1.329200	0.075956	0.000056
C61	C	1.056753	0.182895	0.000025
C62	C	1.057966	0.246118	0.000011
N63	N	1.064244	0.078777	0.248794
N64	N	1.064298	0.078779	-0.248700
C65	C	1.002642	0.117434	0.701051
C66	C	1.125943	0.040125	0.701045
C67	C	1.125932	0.040123	0.600549
C68	C	1.064276	0.078778	0.550300
C69	C	1.002631	0.117435	0.600546
C70	C	1.187582	0.001470	0.550295
C71	C	1.187575	0.001467	0.449793
C72	C	1.125914	0.040120	0.399542
C73	C	1.064266	0.078778	0.449795
C74	C	1.002610	0.117433	0.399546
C75	C	0.940956	0.156089	0.449797
C76	C	0.940970	0.156088	0.550295
C77	C	1.125900	0.040122	0.299043
C78	C	1.002599	0.117434	0.299041
H79	H	0.447423	0.223733	-0.000001
H80	H	0.833986	-0.348425	-0.000017
C81	C	1.238496	-0.612471	-0.082047
C82	C	1.232817	-0.646223	0.000029
H83	H	1.294656	-0.596875	-0.082040
H84	H	1.234647	-0.635363	-0.137713
H85	H	1.190044	-0.582280	-0.082042
H86	H	1.281265	-0.676418	0.000020
H87	H	1.236675	-0.623330	0.055709
H88	H	0.831937	-0.456183	-0.000023
H89	H	1.176101	0.008652	0.258133
H90	H	1.237775	-0.030008	0.408885
H91	H	1.176146	0.008655	0.741961
H92	H	0.890775	0.187560	0.591216
H93	H	0.681121	-0.066179	0.000069
H94	H	0.510520	-0.068226	0.000113
H95	H	1.237785	-0.029999	0.591211
C96	C	0.879853	0.129648	0.814088
C97	C	0.934877	0.159923	0.756286
H98	H	0.838022	0.155880	0.848191
H99	H	0.847640	0.105911	0.774891
H100	H	0.916582	0.106628	0.858393
H101	H	0.898148	0.182940	0.711975
H102	H	0.967092	0.183670	0.795486
H103	H	0.908951	-0.736168	0.000016
C104	C	0.316952	0.216472	0.082093
C105	C	0.301016	0.184790	0.000026
H106	H	0.277447	0.251293	0.082079
H107	H	0.306138	0.194974	0.137765
H108	H	0.378077	0.224644	0.082081
H109	H	0.239893	0.176615	0.000041
H110	H	0.311823	0.206293	-0.055660
H111	H	0.952388	0.148910	0.258134
C112	C	0.253251	-0.023155	0.000087
C113	C	0.348075	-0.032994	0.000082
H114	H	0.228961	-0.058742	0.000092
H115	H	0.233242	-0.002032	0.055759
H116	H	0.233242	-0.002026	-0.055597
H117	H	0.368085	-0.054120	0.055770
H118	H	0.368092	-0.054126	-0.055595
H119	H	1.207187	-0.760552	0.000022
H120	H	0.618003	0.225795	-0.000005
C121	C	0.776248	-0.073497	0.000063
C122	C	0.827532	-0.027234	0.000047
H123	H	0.815759	-0.108316	0.000059
H124	H	0.739115	-0.071781	0.055743
H125	H	0.739102	-0.071775	-0.055613
H126	H	0.864674	-0.028955	0.055728
H127	H	0.864681	-0.028952	-0.055638
C128	C	0.709505	0.235346	-0.000011
C129	C	0.780466	0.190550	0.000001
H130	H	0.733802	0.270930	-0.000017
H131	H	0.673304	0.232746	-0.055684
H132	H	0.673294	0.232745	0.055672
H133	H	0.816674	0.193149	-0.055686
H134	H	0.816682	0.193151	0.055679
C135	C	0.814869	-0.650759	0.000011
C136	C	0.887732	-0.618031	0.000010
H137	H	0.759471	-0.626049	0.000019
H138	H	0.817856	-0.674200	-0.055665
H139	H	0.817858	-0.674217	0.055690
H140	H	0.884746	-0.594576	-0.055673
H141	H	0.884743	-0.594580	0.055692
H142	H	1.219587	-0.106264	0.000094
C143	C	1.313675	-0.191672	0.000091
C144	C	1.240814	-0.224402	0.000072
H145	H	1.369074	-0.216381	0.000105
H146	H	1.310700	-0.168219	-0.055582
H147	H	1.310670	-0.168227	0.055774
H148	H	1.243814	-0.247844	-0.055614
H149	H	1.243790	-0.247865	0.055751
H150	H	1.296604	-0.386241	0.000058
C151	C	1.390680	-0.471641	0.000069
C152	C	1.317821	-0.504373	0.000054
H153	H	1.446080	-0.496348	0.000089
H154	H	1.387706	-0.448191	-0.055609
H155	H	1.387672	-0.448192	0.055747
H156	H	1.320826	-0.527818	-0.055628
H157	H	1.320797	-0.527832	0.055737
H158	H	0.919305	-0.189665	0.000071
C159	C	0.886204	0.190413	0.295734
C160	C	0.873185	0.198578	0.394555
H161	H	0.844362	0.216642	0.261630
H162	H	0.946306	0.196671	0.279265
H163	H	0.876759	0.152391	0.279287
H164	H	0.882637	0.236600	0.411004
H165	H	0.813069	0.192325	0.411031
C166	C	0.916567	-0.014519	0.000055
C167	C	0.898092	-0.071512	0.000053
H168	H	0.861177	0.010197	0.000037
H169	H	0.950504	-0.007554	0.055737
H170	H	0.950539	-0.007548	-0.055619
H171	H	0.864126	-0.078484	0.055731
H172	H	0.864141	-0.078480	-0.055634
