data_functionalizedCrystal
_audit_creation_method	'MofGen! by Chris Wilmer'
_symmetry_space_group_name_H-M	'P1'
_symmetry_Int_Tables_number	1
_symmetry_cell_setting	triclinic
loop_
_symmetry_equiv_pos_as_xyz
  x,y,z
_cell_length_a	12.784890
_cell_length_b	23.532409
_cell_length_c	11.892095
_cell_angle_alpha	93.867696
_cell_angle_beta	86.513306
_cell_angle_gamma	77.978059
loop_
_atom_site_label
_atom_site_type_symbol
_atom_site_fract_x
_atom_site_fract_y
_atom_site_fract_z
O1	O	1.417116	-0.000413	-0.093968
O2	O	1.917116	0.499587	0.406032
O3	O	1.107404	0.023990	-0.093976
O4	O	1.607404	0.523990	0.406024
O5	O	1.271598	-0.071578	-0.093973
O6	O	1.771598	0.428422	0.406027
O7	O	1.252922	0.095154	-0.093971
O8	O	1.752922	0.595154	0.406029
O9	O	1.257908	-0.063621	0.094034
O10	O	1.757908	0.436379	0.594034
O11	O	1.093714	0.031947	0.094032
O12	O	1.593714	0.531947	0.594032
O13	O	1.403426	0.007544	0.094039
O14	O	1.903426	0.507544	0.594039
Zn15	Zn	1.246396	0.021008	0.123885
Zn16	Zn	1.746396	0.521008	0.623885
Zn17	Zn	1.264434	0.010525	-0.123822
Zn18	Zn	1.764434	0.510525	0.376178
O19	O	1.239232	0.103111	0.094036
O20	O	1.739232	0.603111	0.594036
C21	C	1.060943	0.029555	0.000027
C22	C	1.560943	0.529555	0.500027
C23	C	0.942899	0.034278	0.000024
C24	C	1.442899	0.534278	0.500024
C25	C	0.763299	0.093463	0.000023
C26	C	1.263299	0.593463	0.500023
C27	C	0.874210	0.089030	0.000023
C28	C	1.374210	0.589030	0.500023
C29	C	0.900669	-0.016045	0.000021
C30	C	1.400669	0.483955	0.500021
C31	C	0.789758	-0.011611	0.000021
C32	C	1.289758	0.488389	0.500021
C33	C	0.721076	0.043144	0.000024
C34	C	1.221076	0.543144	0.500024
C35	C	0.610161	0.047578	0.000032
C36	C	1.110161	0.547578	0.500032
C37	C	0.636623	-0.057497	0.000022
C38	C	1.136623	0.442503	0.500022
C39	C	0.747535	-0.061930	0.000022
C40	C	1.247535	0.438070	0.500022
C41	C	1.264278	-0.088793	0.000028
C42	C	1.764278	0.411207	0.500028
C43	C	1.262847	-0.151944	0.000019
C44	C	1.762847	0.348056	0.500019
C45	C	1.264225	-0.429244	-0.102469
C46	C	1.764225	0.070756	0.397531
C47	C	1.265553	-0.369905	-0.102469
C48	C	1.765553	0.130095	0.397531
O49	O	1.272624	-0.342903	-0.189623
O50	O	1.772624	0.157097	0.310377
N51	N	1.258749	-0.335896	0.000016
N52	N	1.758749	0.164104	0.500016
C53	C	1.250625	-0.361230	0.102507
C54	C	1.750625	0.138770	0.602507
O55	O	1.244960	-0.326854	0.189678
O56	O	1.744960	0.173146	0.689678
C57	C	1.249304	-0.420568	0.102506
C58	C	1.749304	0.079432	0.602506
C59	C	1.256099	-0.454573	0.000015
C60	C	1.756099	0.045427	0.500015
C61	C	1.271020	-0.463248	-0.204951
C62	C	1.771020	0.036752	0.295049
C63	C	1.269689	-0.522582	-0.204951
C64	C	1.769689	-0.022582	0.295049
C65	C	1.261563	-0.547912	-0.102467
C66	C	1.761563	-0.047912	0.397533
C67	C	1.254768	-0.513907	0.000015
C68	C	1.754768	-0.013907	0.500015
C69	C	1.241188	-0.445902	0.204996
C70	C	1.741188	0.054098	0.704996
C71	C	1.239869	-0.505244	0.204986
C72	C	1.739869	-0.005244	0.704986
C73	C	1.246663	-0.539249	0.102495
C74	C	1.746663	-0.039249	0.602495
C75	C	1.245311	-0.598570	0.102500
C76	C	1.745311	-0.098570	0.602500
N77	N	1.252116	-0.632579	0.000015
N78	N	1.752116	-0.132579	0.500015
C79	C	1.260242	-0.607250	-0.102468
C80	C	1.760242	-0.107250	0.397532
C81	C	1.253402	-0.236616	0.102501
C82	C	1.753402	0.263384	0.602501
C83	C	1.254715	-0.177278	0.102503
C84	C	1.754715	0.322722	0.602503
C85	C	1.269646	-0.185958	-0.102473
C86	C	1.769646	0.314042	0.397527
C87	C	1.268325	-0.245296	-0.102474
C88	C	1.768325	0.254704	0.397526
C89	C	1.260207	-0.270625	0.000017
C90	C	1.760207	0.229375	0.500017
C91	C	1.257446	-0.731855	-0.102459
C92	C	1.757446	-0.231855	0.397541
C93	C	1.256110	-0.791194	-0.102450
C94	C	1.756110	-0.291194	0.397550
C95	C	1.241185	-0.782510	0.102526
C96	C	1.741185	-0.282510	0.602526
C97	C	1.242515	-0.723176	0.102517
C98	C	1.742515	-0.223176	0.602517
C99	C	1.250650	-0.697851	0.000015
C100	C	1.750650	-0.197851	0.500015
O101	O	1.238247	-0.625613	0.189609
O102	O	1.738247	-0.125613	0.689609
O103	O	1.265920	-0.641634	-0.189625
O104	O	1.765920	-0.141634	0.310375
C105	C	1.449888	0.001978	0.000034
C106	C	1.949888	0.501978	0.500034
C107	C	1.567932	-0.002745	0.000029
C108	C	2.067932	0.497255	0.500029
C109	C	1.246553	0.120326	0.000033
C110	C	1.746553	0.620326	0.500033
C111	C	1.247984	0.183477	0.000034
C112	C	1.747984	0.683477	0.500034
N113	N	1.234094	0.028163	0.292939
N114	N	1.734094	0.528163	0.792939
N115	N	1.276744	0.003366	-0.292876
N116	N	1.776744	0.503366	0.207124
C117	C	1.362349	-0.046448	0.529589
C118	C	1.862349	0.453552	1.029589
C119	C	1.353758	-0.041444	0.647931
C120	C	1.853758	0.458556	1.147931
C121	C	1.208315	0.043173	0.647967
C122	C	1.708315	0.543173	1.147967
C123	C	1.216907	0.038168	0.529625
C124	C	1.716907	0.538168	1.029625
C125	C	1.293927	-0.006643	0.470440
C126	C	1.793927	0.493357	0.970440
C127	C	1.302523	-0.011645	0.352096
C128	C	1.802523	0.488355	0.852096
C129	C	1.157076	0.072969	0.352134
C130	C	1.657076	0.572969	0.852134
C131	C	1.148485	0.077974	0.470476
C132	C	1.648485	0.577974	0.970476
H133	H	0.908583	0.130004	0.000024
H134	H	1.408583	0.630004	0.500024
H135	H	0.956609	-0.060625	0.000010
H136	H	1.456609	0.439375	0.500010
Br137	Br	0.670081	0.167773	0.000053
Br138	Br	1.170081	0.667773	0.500053
Br139	Br	1.278922	-0.568724	-0.344054
Br140	Br	1.778922	-0.068724	0.155946
Br141	Br	1.231949	-0.399765	0.344101
Br142	Br	1.731949	0.100235	0.844101
H143	H	1.425069	-0.082932	0.481400
H144	H	1.925069	0.417068	0.981400
H145	H	1.246782	-0.257233	0.185967
H146	H	1.746782	0.242767	0.685967
Br147	Br	1.103779	0.103978	0.728299
Br148	Br	1.603779	0.603978	1.228299
H149	H	0.803470	-0.106511	0.000016
H150	H	1.303470	0.393489	0.500016
H151	H	0.602241	-0.098474	-0.000067
H152	H	1.102241	0.401526	0.499933
H153	H	1.234565	-0.803143	0.185965
H154	H	1.734565	-0.303143	0.685965
H155	H	1.277641	-0.442633	-0.288410
H156	H	1.777641	0.057367	0.211590
H157	H	1.101366	0.105383	0.303962
H158	H	1.601366	0.605383	0.803962
Br159	Br	1.265326	-0.837340	-0.241554
Br160	Br	1.765326	-0.337340	0.258446
H161	H	1.249162	-0.149593	0.185962
H162	H	1.749162	0.350407	0.685962
Br163	Br	1.268485	-0.697495	-0.241570
Br164	Br	1.768485	-0.197495	0.258430
Br165	Br	1.043957	0.138785	0.550805
Br166	Br	1.543957	0.638785	1.050805
H167	H	1.365240	-0.048131	0.303909
H168	H	1.865240	0.451869	0.803909
Br169	Br	1.228859	-0.539617	0.344089
Br170	Br	1.728859	-0.039617	0.844089
H171	H	0.554241	0.092163	0.000040
H172	H	1.054241	0.592163	0.500040
Br173	Br	1.277546	-0.291439	-0.241573
Br174	Br	1.777546	0.208561	0.258427
H175	H	1.236940	-0.695482	0.185974
H176	H	1.736940	-0.195482	0.685974
Br177	Br	1.280646	-0.151567	-0.241559
Br178	Br	1.780646	0.348433	0.258441
H179	H	1.409472	-0.073858	0.696086
H180	H	1.909472	0.426142	1.196086
