data_functionalizedCrystal
_audit_creation_method	'MofGen! by Chris Wilmer'
_symmetry_space_group_name_H-M	'P1'
_symmetry_Int_Tables_number	1
_symmetry_cell_setting	triclinic
loop_
_symmetry_equiv_pos_as_xyz
  x,y,z
_cell_length_a	29.839133
_cell_length_b	29.839134
_cell_length_c	16.120297
_cell_angle_alpha	87.135127
_cell_angle_beta	92.878609
_cell_angle_gamma	89.978030
loop_
_atom_site_label
_atom_site_type_symbol
_atom_site_fract_x
_atom_site_fract_y
_atom_site_fract_z
Zn1	Zn	-0.191844	-0.673899	-0.471728
Zn2	Zn	-0.263163	-0.677646	-0.332335
Zn3	Zn	-0.188037	-0.602582	-0.332299
Zn4	Zn	-0.266936	-0.598746	-0.471666
O5	O	-0.227495	-0.638218	-0.402007
O6	O	-0.201319	-0.737262	-0.453278
O7	O	-0.250025	-0.670862	-0.215668
O8	O	-0.125675	-0.612079	-0.350806
O9	O	-0.253717	-0.740015	-0.350867
O10	O	-0.128472	-0.664475	-0.453244
O11	O	-0.194830	-0.615713	-0.215642
O12	O	-0.198489	-0.539207	-0.350746
O13	O	-0.260147	-0.605542	-0.588337
O14	O	-0.256456	-0.536389	-0.453138
O15	O	-0.204977	-0.660756	-0.588382
O16	O	-0.326530	-0.667143	-0.350806
O17	O	-0.329302	-0.609176	-0.453172
C18	C	-0.227469	-0.521498	-0.401932
C19	C	-0.227469	-0.471564	-0.401919
C20	C	-0.197268	-0.116427	-0.348771
C21	C	-0.197255	-0.304101	-0.348731
O22	O	-0.171540	-0.329600	-0.303483
N23	N	-0.227476	-0.326117	-0.401953
C24	C	-0.257700	-0.301213	-0.455193
O25	O	-0.283402	-0.324245	-0.500466
C26	C	-0.257710	-0.113539	-0.455236
C27	C	-0.227491	-0.091525	-0.402005
C28	C	-0.167050	-0.094412	-0.295545
C29	C	-0.167055	-0.047497	-0.295552
C30	C	-0.197278	-0.022595	-0.348786
C31	C	-0.227496	-0.044610	-0.402012
C32	C	-0.287932	-0.088635	-0.508480
C33	C	-0.287931	-0.041714	-0.508487
C34	C	-0.257711	-0.019700	-0.455256
C35	C	-0.257723	0.027208	-0.455253
N36	N	-0.227503	0.049224	-0.402031
C37	C	-0.197280	0.024323	-0.348798
C38	C	-0.257693	-0.399744	-0.455165
C39	C	-0.257692	-0.446662	-0.455153
C40	C	-0.197246	-0.449547	-0.348692
C41	C	-0.197250	-0.402628	-0.348700
C42	C	-0.227473	-0.377727	-0.401943
C43	C	-0.197293	0.122849	-0.348817
C44	C	-0.197302	0.169769	-0.348826
C45	C	-0.257746	0.172650	-0.455290
C46	C	-0.257739	0.125734	-0.455277
C47	C	-0.227509	0.100835	-0.402038
O48	O	-0.283422	0.052735	-0.500484
O49	O	-0.171576	0.047364	-0.303544
C50	C	-0.197263	-0.163342	-0.348764
C51	C	-0.227480	-0.185356	-0.401990
C52	C	-0.257703	-0.160455	-0.455224
C53	C	-0.227479	-0.232275	-0.401978
C54	C	-0.197256	-0.257176	-0.348745
C55	C	-0.167035	-0.235159	-0.295523
C56	C	-0.167040	-0.188244	-0.295530
C57	C	-0.287924	-0.182472	-0.508446
C58	C	-0.287917	-0.229388	-0.508434
C59	C	-0.257694	-0.254289	-0.455200
C60	C	-0.344217	-0.638161	-0.402005
C61	C	-0.394153	-0.638177	-0.402032
C62	C	-0.752162	-0.665516	-0.455408
C63	C	-0.564489	-0.665473	-0.455407
O64	O	-0.541434	-0.688660	-0.500777
N65	N	-0.539598	-0.638213	-0.402030
C66	C	-0.561627	-0.610963	-0.348645
O67	O	-0.536149	-0.587779	-0.303239
C68	C	-0.749299	-0.611008	-0.348643
C69	C	-0.774189	-0.638267	-0.402029
C70	C	-0.777051	-0.692773	-0.508789
C71	C	-0.823967	-0.692781	-0.508792
C72	C	-0.845993	-0.665533	-0.455414
C73	C	-0.821104	-0.638276	-0.402032
C74	C	-0.771328	-0.583761	-0.295255
C75	C	-0.818249	-0.583776	-0.295257
C76	C	-0.843138	-0.611035	-0.348644
C77	C	-0.890046	-0.611036	-0.348656
N78	N	-0.914937	-0.638296	-0.402033
C79	C	-0.892911	-0.665545	-0.455412
C80	C	-0.463097	-0.610941	-0.348652
C81	C	-0.416179	-0.610929	-0.348653
C82	C	-0.419044	-0.665439	-0.455414
C83	C	-0.465963	-0.665449	-0.455416
C84	C	-0.487988	-0.638201	-0.402029
C85	C	-0.991437	-0.665560	-0.455415
C86	C	-1.038357	-0.665565	-0.455415
C87	C	-1.035487	-0.611056	-0.348652
C88	C	-0.988572	-0.611049	-0.348654
C89	C	-0.966548	-0.638305	-0.402038
O90	O	-0.913131	-0.587865	-0.303304
O91	O	-0.918397	-0.688733	-0.500799
C92	C	-0.705247	-0.665507	-0.455405
C93	C	-0.680357	-0.638250	-0.402023
C94	C	-0.702384	-0.611002	-0.348645
C95	C	-0.633440	-0.638238	-0.402025
C96	C	-0.611413	-0.665487	-0.455403
C97	C	-0.636305	-0.692747	-0.508781
C98	C	-0.683220	-0.692756	-0.508783
C99	C	-0.677492	-0.583741	-0.295268
C100	C	-0.630577	-0.583734	-0.295270
C101	C	-0.608551	-0.610983	-0.348648
C102	C	-0.110317	-0.638287	-0.402028
C103	C	-0.060383	-0.638316	-0.402037
C104	C	-0.233408	-0.632303	-0.619454
C105	C	-0.235928	-0.629783	-0.712117
C106	C	-0.227520	0.244605	-0.402069
C107	C	-0.227525	0.194671	-0.402060
C108	C	-0.240518	-0.625164	-0.881774
C109	C	-0.214337	-0.651360	-0.923092
C110	C	-0.216891	-0.648791	-1.017495
C111	C	-0.237964	-0.627734	-0.787363
C112	C	-0.221573	-0.644136	-0.185406
C113	C	-0.218926	-0.646743	-0.092743
H114	H	-0.172693	0.187691	-0.305476
Br115	Br	-0.606403	-0.729724	-0.581227
Br116	Br	-0.156266	0.089065	-0.276562
Br117	Br	-0.126036	-0.017628	-0.223314
Br118	Br	-0.848137	-0.546797	-0.222795
Br119	Br	-0.126026	-0.128199	-0.223292
Br120	Br	-0.328947	-0.118499	-0.580727
H121	H	-0.968307	-0.588848	-0.305190
H122	H	-0.481025	-0.588751	-0.305175
Br123	Br	-0.328948	-0.007922	-0.580753
H124	H	-0.264849	-0.600810	-0.917296
Br125	Br	-0.173792	-0.691968	-0.863887
Br126	Br	-0.156237	-0.372757	-0.276455
Br127	Br	-0.857738	-0.729776	-0.581253
Br128	Br	-0.156230	-0.483351	-0.276445
H129	H	-0.282304	-0.464582	-0.498490
H130	H	-0.282306	-0.379474	-0.498523
H131	H	-0.759122	-0.714964	-0.552256
H132	H	-0.282349	0.107809	-0.498616
H133	H	-1.058620	-0.687762	-0.498894
H134	H	-0.486225	-0.687643	-0.498891
H135	H	-0.401103	-0.687626	-0.498878
Br136	Br	-0.737561	-0.546760	-0.222805
H137	H	-0.395917	-0.588727	-0.305190
Br138	Br	-0.596804	-0.546732	-0.222818
H139	H	-0.282354	0.192933	-0.498628
H140	H	-1.053430	-0.588870	-0.305194
H141	H	-0.703481	-0.714952	-0.552257
H142	H	-0.142432	-0.170324	-0.252184
H143	H	-0.142428	-0.255442	-0.252175
H144	H	-0.312529	-0.247307	-0.551780
H145	H	-0.312535	-0.162202	-0.551797
H146	H	-0.973511	-0.687755	-0.498884
H147	H	-0.695421	-0.561552	-0.251798
