data_functionalizedCrystal
_audit_creation_method	'MofGen! by Chris Wilmer'
_symmetry_space_group_name_H-M	'P1'
_symmetry_Int_Tables_number	1
_symmetry_cell_setting	triclinic
loop_
_symmetry_equiv_pos_as_xyz
  x,y,z
_cell_length_a	14.853569
_cell_length_b	14.853567
_cell_length_c	13.330367
_cell_angle_alpha	89.999156
_cell_angle_beta	89.994419
_cell_angle_gamma	83.635248
loop_
_atom_site_label
_atom_site_type_symbol
_atom_site_fract_x
_atom_site_fract_y
_atom_site_fract_z
O1	O	1.196368	0.117710	-0.083369
O2	O	0.933909	0.131730	-0.083380
O3	O	1.072149	-0.006509	-0.083377
O4	O	1.058128	0.255950	-0.083372
O5	O	1.072129	-0.006513	0.083470
O6	O	0.933889	0.131727	0.083467
O7	O	1.196348	0.117707	0.083478
Cu8	Cu	1.065116	0.124717	0.098707
Cu9	Cu	1.065140	0.124720	-0.098609
O10	O	1.058108	0.255947	0.083475
C11	C	0.900310	0.131093	0.000042
C12	C	0.800226	0.129189	0.000037
C13	C	0.763850	0.046178	0.000032
C14	C	0.742560	0.210410	0.000047
C15	C	0.648526	0.208624	0.000048
C16	C	0.612150	0.125613	0.000043
C17	C	0.669807	0.044389	0.000036
C18	C	0.590862	0.289847	0.000065
C19	C	0.496821	0.288064	0.000067
C20	C	0.460443	0.205052	0.000054
C21	C	0.518107	0.123824	0.000047
C22	C	0.481730	0.040813	0.000042
C23	C	0.539393	-0.040415	0.000027
C24	C	0.633429	-0.038623	0.000024
C25	C	0.366407	0.203259	0.000057
C26	C	0.387688	0.039024	0.000046
C27	C	1.071504	-0.040100	0.000043
C28	C	1.069600	-0.140183	0.000035
C29	C	0.979434	-0.552718	0.000050
C30	C	1.143667	-0.573998	0.000057
C31	C	1.145457	-0.479964	0.000051
C32	C	1.064234	-0.422303	0.000046
C33	C	0.981222	-0.458675	0.000047
C34	C	1.228468	-0.443585	0.000060
C35	C	1.230262	-0.349545	0.000055
C36	C	1.149038	-0.291882	0.000043
C37	C	1.066022	-0.328260	0.000043
C38	C	0.984800	-0.270599	0.000038
C39	C	0.901783	-0.306974	0.000031
C40	C	0.899998	-0.401012	0.000035
C41	C	1.150822	-0.197845	0.000039
C42	C	0.986587	-0.176556	0.000036
C43	C	1.229947	0.118344	0.000054
C44	C	1.330030	0.120249	0.000052
C45	C	1.058753	0.289537	0.000053
C46	C	1.060657	0.389621	0.000055
N47	N	1.065106	0.124714	0.237489
N48	N	1.065157	0.124717	-0.237390
C49	C	1.003925	0.185909	0.710110
C50	C	1.126380	0.063525	0.710081
C51	C	1.126370	0.063522	0.605062
C52	C	1.065137	0.124715	0.552563
C53	C	1.003914	0.185910	0.605082
C54	C	1.187597	0.002334	0.552536
C55	C	1.187590	0.002330	0.447511
C56	C	1.126352	0.063519	0.395010
C57	C	1.065127	0.124716	0.447535
C58	C	1.003894	0.185908	0.395036
C59	C	0.942663	0.247101	0.447559
C60	C	0.942677	0.247099	0.552581
C61	C	1.126339	0.063521	0.289988
C62	C	1.003884	0.185909	0.290008
H63	H	0.509763	-0.108003	0.000016
N64	N	1.240351	-0.158612	0.000057
H65	H	1.229161	-0.090290	0.000056
H66	H	1.275876	-0.179696	0.061920
N67	N	0.876625	0.313105	0.390932
H68	H	0.885917	0.303819	0.316432
H69	H	0.812660	0.302571	0.409294
H70	H	0.772184	0.277994	0.000058
N71	N	1.253618	-0.063680	0.390868
H72	H	1.244319	-0.054399	0.316370
H73	H	1.317586	-0.053150	0.409205
N74	N	0.937888	0.251914	0.766747
H75	H	0.873893	0.241411	0.748479
H76	H	0.947257	0.242600	0.841228
N77	N	1.192364	-0.002466	0.233321
H78	H	1.256362	0.008034	0.251572
H79	H	1.181832	-0.066445	0.251620
H80	H	1.294595	-0.490539	0.000073
N81	N	1.192421	-0.002464	0.766710
H82	H	1.157925	-0.042441	0.810295
H83	H	1.231190	-0.041172	0.717444
N84	N	1.319800	-0.310324	0.000050
H85	H	1.324209	-0.271788	-0.061805
H86	H	1.324148	-0.271822	0.061937
H87	H	0.620487	0.357430	0.000075
N88	N	1.231265	-0.636187	0.000053
H89	H	1.284124	-0.598874	0.000050
H90	H	1.234096	-0.675665	0.061908
N91	N	0.695616	-0.126229	0.000020
H92	H	0.735116	-0.129144	-0.061828
H93	H	0.735039	-0.129094	0.061914
N94	N	0.937830	0.251908	0.233394
H95	H	0.948286	0.315914	0.251670
H96	H	0.947143	0.242550	0.158910
N97	N	0.898979	-0.114369	0.000050
H98	H	0.912705	-0.049276	0.000056
H99	H	0.862810	-0.126153	-0.061802
H100	H	0.911844	-0.582339	0.000040
N101	N	0.434661	0.375687	0.000086
H102	H	0.395170	0.378634	-0.061760
H103	H	0.395228	0.378559	0.061981
N104	N	1.253632	-0.063654	0.609173
H105	H	1.219130	-0.103631	0.652751
H106	H	1.292411	-0.102362	0.559915
H107	H	0.358078	-0.028574	0.000036
N108	N	0.826030	-0.041433	0.000019
H109	H	0.865522	-0.044350	-0.061835
H110	H	0.865461	-0.044306	0.061907
N111	N	0.304215	0.290858	0.000088
H112	H	0.341528	0.343716	0.000098
H113	H	0.264735	0.293706	-0.061761
H114	H	0.835651	-0.260014	0.000034
H115	H	0.832410	-0.430638	0.000030
N116	N	0.876640	0.313095	0.609229
H117	H	0.885942	0.303810	0.683726
H118	H	0.887127	0.377071	0.590867
