data_functionalizedCrystal
_audit_creation_method	'MofGen! by Chris Wilmer'
_symmetry_space_group_name_H-M	'P1'
_symmetry_Int_Tables_number	1
_symmetry_cell_setting	triclinic
loop_
_symmetry_equiv_pos_as_xyz
  x,y,z
_cell_length_a	18.101398
_cell_length_b	18.101395
_cell_length_c	18.101389
_cell_angle_alpha	89.983159
_cell_angle_beta	90.024327
_cell_angle_gamma	89.973629
loop_
_atom_site_label
_atom_site_type_symbol
_atom_site_fract_x
_atom_site_fract_y
_atom_site_fract_z
Zn1	Zn	1.132121	0.295001	0.418847
Zn2	Zn	1.632121	0.795001	0.918847
Zn3	Zn	1.132017	0.418826	0.295009
Zn4	Zn	1.632017	0.918826	0.795009
Zn5	Zn	1.008280	0.294993	0.295008
Zn6	Zn	1.508280	0.794993	0.795008
Zn7	Zn	1.008231	0.418795	0.418797
Zn8	Zn	1.508231	0.918795	0.918797
O9	O	1.070162	0.356904	0.356915
O10	O	1.570162	0.856904	0.856915
O11	O	1.235740	0.311443	0.402440
O12	O	1.735740	0.811443	0.902440
O13	O	1.115580	0.402410	0.191376
O14	O	1.615580	0.902410	0.691376
O15	O	1.024772	0.191361	0.311456
O16	O	1.524772	0.691361	0.811456
O17	O	1.235664	0.402417	0.311457
O18	O	1.735664	0.902417	0.811457
O19	O	1.115757	0.191367	0.402440
O20	O	1.615757	0.691367	0.902440
O21	O	1.024671	0.311430	0.191375
O22	O	1.524671	0.811430	0.691375
O23	O	0.904641	0.311399	0.311408
O24	O	1.404641	0.811399	0.811408
O25	O	1.024688	0.402363	0.522437
O26	O	1.524688	0.902363	1.022437
O27	O	0.904604	0.402356	0.402355
O28	O	1.404604	0.902356	0.902355
O29	O	1.115710	0.311412	0.522473
O30	O	1.615710	0.811412	1.022473
O31	O	1.115532	0.522455	0.311409
O32	O	1.615532	1.022455	0.811409
O33	O	1.024587	0.522432	0.402356
O34	O	1.524587	1.022432	0.902356
C35	C	0.877752	0.356874	0.356877
C36	C	1.377752	0.856874	0.856877
C37	C	0.795437	0.356879	0.356878
C38	C	1.295437	0.856879	0.856878
C39	C	1.070063	0.549314	0.356893
C40	C	1.570063	1.049314	0.856893
C41	C	1.070088	0.631628	0.356909
C42	C	1.570088	1.131628	0.856909
C43	C	0.496347	0.356925	0.356940
C44	C	0.996347	0.856925	0.856940
C45	C	0.527670	0.299412	0.299997
C46	C	1.027670	0.799412	0.799997
C47	C	0.613288	0.299566	0.299754
C48	C	1.113288	0.799566	0.799754
C49	C	0.644729	0.356901	0.356909
C50	C	1.144729	0.856901	0.856909
C51	C	0.613611	0.434909	0.335587
C52	C	1.113611	0.934909	0.835587
C53	C	0.527966	0.434590	0.335191
C54	C	1.027966	0.934590	0.835191
C55	C	0.527961	0.337109	0.435339
C56	C	1.027961	0.837109	0.935339
C57	C	0.613612	0.335371	0.434911
C58	C	1.113612	0.835371	0.934911
C59	C	0.728589	0.356893	0.356893
C60	C	1.228589	0.856893	0.856893
C61	C	0.412487	0.356939	0.356954
C62	C	0.912487	0.856939	0.856954
C63	C	1.070205	0.356885	0.550077
C64	C	1.570205	0.856885	1.050077
C65	C	1.070223	0.356877	0.632391
C66	C	1.570223	0.856877	1.132391
C67	C	1.263324	0.356934	0.356954
C68	C	1.763324	0.856934	0.856954
C69	C	1.345638	0.356948	0.356971
C70	C	1.845638	0.856948	0.856971
C71	C	1.070282	0.163742	0.356953
C72	C	1.570282	0.663742	0.856953
C73	C	1.070333	0.081428	0.356970
C74	C	1.570333	0.581428	0.856970
C75	C	1.070251	0.930719	0.356949
C76	C	1.570251	1.430719	0.856949
C77	C	1.013163	0.899410	0.414312
C78	C	1.513163	1.399410	0.914312
C79	C	1.012892	0.813792	0.414133
C80	C	1.512892	1.313792	0.914133
C81	C	1.070170	0.782337	0.356930
C82	C	1.570170	1.282337	0.856930
C83	C	1.049041	0.813472	0.278878
C84	C	1.549041	1.313472	0.778878
C85	C	1.048673	0.899117	0.279221
C86	C	1.548673	1.399117	0.779221
C87	C	1.148593	0.899073	0.376950
C88	C	1.648593	1.399073	0.876950
C89	C	1.148132	0.813422	0.378661
C90	C	1.648132	1.313422	0.878661
C91	C	1.070126	0.698477	0.356914
C92	C	1.570126	1.198477	0.856914
C93	C	1.070293	1.014579	0.356959
C94	C	1.570293	1.514579	0.856959
C95	C	1.070162	0.356869	0.164505
C96	C	1.570162	0.856869	0.664505
C97	C	1.070287	0.356668	0.082191
C98	C	1.570287	0.856668	0.582191
C99	C	1.070266	0.356738	0.931482
C100	C	1.570266	0.856738	1.431482
C101	C	1.012801	0.413780	0.900134
C102	C	1.512801	0.913780	1.400134
C103	C	1.012956	0.414045	0.814516
C104	C	1.512956	0.914045	1.314516
C105	C	1.070244	0.356807	0.783100
C106	C	1.570244	0.856807	1.283100
C107	C	1.148270	0.377998	0.814206
C108	C	1.648270	0.877998	1.314206
C109	C	1.147949	0.378372	0.899851
C110	C	1.647949	0.878372	1.399851
C111	C	1.050385	0.278379	0.899905
C112	C	1.550385	0.778379	1.399905
C113	C	1.048649	0.278832	0.814254
C114	C	1.548649	0.778832	1.314254
C115	C	1.070237	0.356845	0.699240
C116	C	1.570237	0.856845	1.199240
C117	C	1.070279	0.356702	1.015342
C118	C	1.570279	0.856702	1.515342
H119	H	0.507099	0.241388	0.313215
H120	H	1.007099	0.741388	0.813215
H121	H	0.955097	0.400784	0.793483
H122	H	1.455097	0.900784	1.293483
H123	H	1.165415	0.434671	0.792765
H124	H	1.665415	0.934671	1.292765
N125	N	1.100045	0.219543	0.785935
N126	N	1.600045	0.719543	1.285935
H127	H	1.070749	0.181540	0.757478
H128	H	1.570749	0.681540	1.257478
H129	H	1.138216	0.242552	0.752393
H130	H	1.638216	0.742552	1.252393
H131	H	1.088449	0.919830	0.235023
H132	H	1.588449	1.419830	0.735023
H133	H	1.089313	0.793097	0.234972
H134	H	1.589313	1.293097	0.734972
H135	H	0.635017	0.374209	0.479611
H136	H	1.135017	0.874209	0.979611
H137	H	0.506389	0.281216	0.454725
H138	H	1.006389	0.781216	0.954725
N139	N	0.973990	0.785139	0.256026
N140	N	1.473990	1.285139	0.756026
H141	H	0.953569	0.752143	0.296113
H142	H	1.453569	1.252143	0.796113
H143	H	0.939487	0.828266	0.248002
H144	H	1.439487	1.328266	0.748002
N145	N	1.206596	0.325743	0.927327
N146	N	1.706596	0.825743	1.427327
H147	H	1.243688	0.353673	0.958260
H148	H	1.743688	0.853673	1.458260
H149	H	1.182792	0.285909	0.958293
H150	H	1.682792	0.785909	1.458293
N151	N	0.935922	0.396406	0.927392
N152	N	1.435922	0.896406	1.427392
H153	H	0.902531	0.386348	0.883828
H154	H	1.402531	0.886348	1.383828
H155	H	0.937654	0.351402	0.960340
H156	H	1.437654	0.851402	1.460340
N157	N	0.641971	0.457565	0.260489
N158	N	1.141971	0.957565	0.760489
H159	H	0.674969	0.417418	0.240173
H160	H	1.174969	0.917418	0.740173
H161	H	0.598855	0.465514	0.225956
H162	H	1.098855	0.965514	0.725956
N163	N	1.030373	0.490979	0.787400
N164	N	1.530373	0.990979	1.287400
H165	H	1.076833	0.489765	0.756543
H166	H	1.576833	0.989765	1.256543
H167	H	0.987936	0.509843	0.756440
H168	H	1.487936	1.009843	1.256440
H169	H	1.026111	0.792740	0.472007
H170	H	1.526111	1.292740	0.972007
N171	N	0.972595	0.257655	0.787315
N172	N	1.472595	0.757655	1.287315
H173	H	0.959012	0.207457	0.807530
H174	H	1.459012	0.707457	1.307530
H175	H	0.935482	0.295464	0.804824
H176	H	1.435482	0.795464	1.304824
H177	H	0.633741	0.312665	0.241661
H178	H	1.133741	0.812665	0.741661
H179	H	1.025796	0.471508	0.921661
H180	H	1.525796	0.971508	1.421661
N181	N	1.170274	0.454245	0.926331
N182	N	1.670274	0.954245	1.426331
H183	H	1.180229	0.487134	0.882369
H184	H	1.680229	0.987134	1.382369
H185	H	1.129076	0.476099	0.956951
H186	H	1.629076	0.976099	1.456951
H187	H	1.167856	0.920633	0.432895
H188	H	1.667856	1.420633	0.932895
H189	H	1.092240	0.235880	0.920179
H190	H	1.592240	0.735880	1.420179
H191	H	1.164065	0.793071	0.436103
H192	H	1.664065	1.293071	0.936103
N193	N	0.641166	0.222943	0.317451
N194	N	1.141166	0.722943	0.817451
H195	H	0.597820	0.188761	0.325479
H196	H	1.097820	0.688761	0.825479
H197	H	0.672064	0.204158	0.274972
H198	H	1.172064	0.704158	0.774972
N199	N	0.501135	0.392594	0.491543
N200	N	1.001135	0.892594	0.991543
H201	H	0.468662	0.430387	0.466386
H202	H	0.968662	0.930387	0.966386
H203	H	0.471891	0.366290	0.531101
H204	H	0.971891	0.866290	1.031101
N205	N	1.206512	0.324692	0.787270
N206	N	1.706512	0.824692	1.287270
H207	H	1.182822	0.286203	0.754563
H208	H	1.682822	0.786203	1.254563
H209	H	1.245159	0.352541	0.758247
H210	H	1.745159	0.852541	1.258247
H211	H	0.633956	0.277966	0.450989
H212	H	1.133956	0.777966	0.950989
N213	N	0.640593	0.493197	0.388794
N214	N	1.140593	0.993197	0.888794
H215	H	0.619914	0.542889	0.374029
H216	H	1.119914	1.042889	0.874029
H217	H	0.623597	0.480534	0.440400
H218	H	1.123597	0.980534	0.940400
N219	N	0.976330	0.252802	0.928492
N220	N	1.476330	0.752802	1.428492
H221	H	0.954918	0.291756	0.962207
H222	H	1.454918	0.791756	1.462207
H223	H	0.941749	0.244340	0.885523
H224	H	1.441749	0.744340	1.385523
H225	H	0.506120	0.312363	0.242242
H226	H	1.006120	0.812363	0.742242
N227	N	0.935978	0.786724	0.396572
N228	N	1.435978	1.286724	0.896572
H229	H	0.935481	0.730930	0.396383
H230	H	1.435481	1.230930	0.896383
H231	H	0.900402	0.805535	0.435205
H232	H	1.400402	1.305535	0.935205
H233	H	0.991406	0.919153	0.262279
H234	H	1.491406	1.419153	0.762279
N235	N	0.936709	0.927984	0.396982
N236	N	1.436709	1.427984	0.896982
H237	H	0.900377	0.907608	0.434086
H238	H	1.400377	1.407608	0.934086
H239	H	0.936668	0.983718	0.399556
H240	H	1.436668	1.483718	0.899556
H241	H	0.507954	0.451397	0.277877
H242	H	1.007954	0.951397	0.777877
H243	H	0.507244	0.478892	0.374857
H244	H	1.007244	0.978892	0.874857
H245	H	1.192915	0.792007	0.339927
H246	H	1.692915	1.292007	0.839927
N247	N	1.030489	0.926645	0.491224
N248	N	1.530489	1.426645	0.991224
H249	H	1.075511	0.959544	0.489633
H250	H	1.575511	1.459544	0.989633
H251	H	0.987002	0.955538	0.510901
H252	H	1.487002	1.455538	1.010901
H253	H	1.191125	0.919319	0.335170
H254	H	1.691125	1.419319	0.835170
