data_functionalizedCrystal
_audit_creation_method	'MofGen! by Chris Wilmer'
_symmetry_space_group_name_H-M	'P1'
_symmetry_Int_Tables_number	1
_symmetry_cell_setting	triclinic
loop_
_symmetry_equiv_pos_as_xyz
  x,y,z
_cell_length_a	10.967874
_cell_length_b	10.967829
_cell_length_c	14.586319
_cell_angle_alpha	77.868327
_cell_angle_beta	77.867796
_cell_angle_gamma	82.165976
loop_
_atom_site_label
_atom_site_type_symbol
_atom_site_fract_x
_atom_site_fract_y
_atom_site_fract_z
O1	O	1.657207	0.175028	-0.365707
O2	O	1.294050	0.191781	-0.310982
O3	O	1.484003	0.001826	-0.310977
O4	O	1.467254	0.364983	-0.365712
O5	O	1.483990	0.001823	-0.158493
O6	O	1.294037	0.191778	-0.158498
O7	O	1.657193	0.175025	-0.213224
Cu8	Cu	1.475614	0.183401	-0.171938
Cu9	Cu	1.475630	0.183405	-0.352267
O10	O	1.467240	0.364980	-0.213229
C11	C	1.247544	0.190561	-0.227201
C12	C	1.108988	0.186913	-0.204736
C13	C	1.047223	0.185288	-0.273711
C14	C	0.904018	0.181518	-0.250493
C15	C	1.482777	-0.044675	-0.227197
C16	C	1.479128	-0.183231	-0.204733
C17	C	1.477508	-0.244996	-0.273710
C18	C	1.473736	-0.388201	-0.250494
C19	C	1.703700	0.176246	-0.297006
C20	C	1.842256	0.179893	-0.319478
C21	C	1.468467	0.411482	-0.297011
C22	C	1.472116	0.550038	-0.319481
N23	N	1.475612	0.183398	-0.045106
N24	N	1.475641	0.183398	-0.479100
C25	C	1.559751	0.099315	0.189894
C26	C	1.559755	0.099312	0.285875
C27	C	1.391493	0.267486	0.285894
C28	C	1.391484	0.267482	0.189917
C29	C	1.475621	0.183398	0.141918
C30	C	1.475633	0.183399	0.333876
C31	C	1.475636	0.183396	0.437944
C32	C	1.475616	0.183398	0.037845
H33	H	1.055848	0.185520	-0.128496
H34	H	1.478907	-0.191856	-0.349950
H35	H	1.628260	0.030843	0.324935
H36	H	0.895387	0.181302	-0.395725
H37	H	1.322993	0.335947	0.324984
C38	C	1.579741	-0.441661	-0.117129
C39	C	1.471834	-0.459920	-0.147562
H40	H	1.578559	-0.485935	-0.053583
H41	H	1.651815	-0.471833	-0.157920
H42	H	1.582016	-0.354832	-0.119229
H43	H	1.469564	-0.546750	-0.145469
H44	H	1.399741	-0.429755	-0.106760
H45	H	1.473507	-0.396828	-0.395725
H46	H	1.477714	-0.236370	-0.128491
C47	C	1.726059	-0.066927	0.199523
C48	C	1.652220	0.006880	0.137137
H49	H	1.783139	-0.124001	0.166955
H50	H	1.771394	-0.014572	0.221514
H51	H	1.673717	-0.112280	0.252403
H52	H	1.704562	0.052240	0.084259
H53	H	1.606882	-0.045482	0.115131
C54	C	1.225168	0.433731	0.199566
C55	C	1.299004	0.359917	0.137173
H56	H	1.168081	0.490795	0.167000
H57	H	1.179840	0.381380	0.252439
H58	H	1.277510	0.479095	0.221558
H59	H	1.246662	0.314545	0.115185
H60	H	1.344335	0.412274	0.084282
H61	H	1.100361	0.186695	-0.349952
H62	H	0.850883	0.180125	-0.174248
