data_functionalizedCrystal
_audit_creation_method	'MofGen! by Chris Wilmer'
_symmetry_space_group_name_H-M	'P1'
_symmetry_Int_Tables_number	1
_symmetry_cell_setting	triclinic
loop_
_symmetry_equiv_pos_as_xyz
  x,y,z
_cell_length_a	11.792254
_cell_length_b	11.792254
_cell_length_c	15.186229
_cell_angle_alpha	89.996078
_cell_angle_beta	89.996693
_cell_angle_gamma	84.198598
loop_
_atom_site_label
_atom_site_type_symbol
_atom_site_fract_x
_atom_site_fract_y
_atom_site_fract_z
O1	O	1.506906	0.155634	-0.073228
O2	O	1.840239	0.488967	0.260105
O3	O	2.173572	0.822301	0.593438
O4	O	1.176567	0.171652	-0.073230
O5	O	1.509900	0.504985	0.260103
O6	O	1.843234	0.838318	0.593436
O7	O	1.349745	-0.001526	-0.073223
O8	O	1.683079	0.331807	0.260110
O9	O	2.016412	0.665140	0.593444
O10	O	1.333727	0.328812	-0.073236
O11	O	1.667061	0.662145	0.260098
O12	O	2.000394	0.995479	0.593431
O13	O	1.349734	-0.001529	0.073234
O14	O	1.683067	0.331804	0.406568
O15	O	2.016400	0.665138	0.739901
O16	O	1.176555	0.171649	0.073227
O17	O	1.509889	0.504983	0.406560
O18	O	1.843222	0.838316	0.739894
O19	O	1.506894	0.155631	0.073229
O20	O	1.840227	0.488965	0.406562
O21	O	2.173561	0.822298	0.739896
Zn22	Zn	1.341723	0.163640	0.096481
Zn23	Zn	1.675056	0.496973	0.429815
Zn24	Zn	2.008389	0.830307	0.763148
Zn25	Zn	1.341738	0.163643	-0.096483
Zn26	Zn	1.675071	0.496977	0.236851
Zn27	Zn	2.008405	0.830310	0.570184
O28	O	1.333716	0.328810	0.073222
O29	O	1.667049	0.662143	0.406555
O30	O	2.000382	0.995476	0.739888
C31	C	1.134271	0.170642	-0.000002
C32	C	1.467604	0.503975	0.333332
C33	C	1.800937	0.837308	0.666665
C34	C	1.008257	0.167621	-0.000002
C35	C	1.341591	0.500955	0.333331
C36	C	1.674924	0.834288	0.666664
C37	C	1.348730	-0.043818	0.000005
C38	C	1.682064	0.289515	0.333339
C39	C	2.015397	0.622848	0.666672
C40	C	1.345710	-0.169832	0.000005
C41	C	1.679044	0.163502	0.333338
C42	C	2.012377	0.496835	0.666671
C43	C	0.905921	0.165168	-0.000006
C44	C	1.239254	0.498501	0.333327
C45	C	1.572587	0.831834	0.666661
C46	C	0.777534	0.162099	-0.000007
C47	C	1.110867	0.495432	0.333327
C48	C	1.444201	0.828766	0.666660
C49	C	1.343256	-0.272168	0.000001
C50	C	1.676590	0.061165	0.333335
C51	C	2.009923	0.394498	0.666668
C52	C	1.340188	-0.400555	-0.000007
C53	C	1.673521	-0.067222	0.333327
C54	C	2.006855	0.266112	0.666660
C55	C	1.549190	0.156642	-0.000001
C56	C	1.882524	0.489975	0.333332
C57	C	2.215857	0.823308	0.666665
C58	C	1.675204	0.159662	-0.000007
C59	C	2.008537	0.492995	0.333327
C60	C	2.341870	0.826329	0.666660
C61	C	1.334731	0.371102	-0.000009
C62	C	1.668064	0.704435	0.333325
C63	C	2.001397	1.037768	0.666658
C64	C	1.337751	0.497115	-0.000014
C65	C	1.671084	0.830448	0.333320
C66	C	2.004417	1.163781	0.666653
N67	N	1.341721	0.163637	0.228174
N68	N	1.675054	0.496970	0.561507
N69	N	2.008387	0.830304	0.894841
N70	N	1.341749	0.163637	-0.228175
N71	N	1.675083	0.496971	0.105158
N72	N	2.008416	0.830304	0.438491
C73	C	1.418430	0.086980	0.453900
C74	C	1.751764	0.420313	0.787233
C75	C	2.085097	0.753647	1.120567
C76	C	1.418434	0.086977	0.546090
C77	C	1.751767	0.420311	0.879423
C78	C	2.085101	0.753644	1.212756
C79	C	1.265031	0.240298	0.546092
C80	C	1.598365	0.573631	0.879426
C81	C	1.931698	0.906965	1.212759
C82	C	1.265023	0.240294	0.453904
C83	C	1.598357	0.573628	0.787238
C84	C	1.931690	0.906961	1.120571
C85	C	1.341729	0.163637	0.407811
C86	C	1.675062	0.496970	0.741144
C87	C	2.008396	0.830303	1.074477
C88	C	1.341741	0.163638	0.592188
C89	C	1.675074	0.496971	0.925522
C90	C	2.008407	0.830304	1.258855
C91	C	1.341744	0.163635	0.692144
C92	C	1.675077	0.496969	1.025478
C93	C	2.008411	0.830302	1.358811
C94	C	1.341725	0.163637	0.307848
C95	C	1.675058	0.496970	0.641181
C96	C	2.008391	0.830304	0.974515
H97	H	1.480887	0.024559	0.416373
H98	H	1.814221	0.357892	0.749706
H99	H	2.147554	0.691226	1.083039
N100	N	1.182319	0.322989	0.595811
N101	N	1.515653	0.656322	0.929144
N102	N	1.848986	0.989656	1.262478
H103	H	1.133727	0.371550	0.552622
H104	H	1.467060	0.704883	0.885955
H105	H	1.800394	1.038216	1.219289
H106	H	1.131878	0.279203	0.634072
H107	H	1.465212	0.612537	0.967405
H108	H	1.798545	0.945870	1.300739
N109	N	1.182281	0.322976	0.404193
N110	N	1.515614	0.656309	0.737527
N111	N	1.848947	0.989642	1.070860
H112	H	1.195846	0.403624	0.420225
H113	H	1.529180	0.736957	0.753558
H114	H	1.862513	1.070290	1.086891
H115	H	1.193949	0.311240	0.338814
H116	H	1.527282	0.644573	0.672148
H117	H	1.860616	0.977906	1.005481
H118	H	1.480889	0.024555	0.583613
H119	H	1.814223	0.357888	0.916947
H120	H	2.147556	0.691222	1.250280
