data_functionalizedCrystal
_audit_creation_method	'MofGen! by Chris Wilmer'
_symmetry_space_group_name_H-M	'P1'
_symmetry_Int_Tables_number	1
_symmetry_cell_setting	triclinic
loop_
_symmetry_equiv_pos_as_xyz
  x,y,z
_cell_length_a	21.395362
_cell_length_b	18.050589
_cell_length_c	18.050583
_cell_angle_alpha	89.971909
_cell_angle_beta	89.962387
_cell_angle_gamma	90.044101
loop_
_atom_site_label
_atom_site_type_symbol
_atom_site_fract_x
_atom_site_fract_y
_atom_site_fract_z
Zn1	Zn	0.957831	-0.295319	-0.420319
Zn2	Zn	0.957750	-0.419524	-0.296139
Zn3	Zn	0.853058	-0.295387	-0.296101
Zn4	Zn	0.853020	-0.419506	-0.420245
O5	O	0.905415	-0.357434	-0.358201
O6	O	1.045498	-0.311774	-0.403893
O7	O	0.943844	-0.403093	-0.192209
O8	O	0.867006	-0.191453	-0.312594
O9	O	1.045439	-0.403027	-0.312658
O10	O	0.943983	-0.191404	-0.403857
O11	O	0.866927	-0.311890	-0.192182
O12	O	0.765375	-0.311872	-0.312523
O13	O	0.866942	-0.402997	-0.524180
O14	O	0.765347	-0.403063	-0.403731
O15	O	0.943946	-0.311757	-0.524234
O16	O	0.943807	-0.523446	-0.312586
O17	O	0.866863	-0.523433	-0.403767
C18	C	0.742627	-0.357473	-0.358115
C19	C	0.672986	-0.357508	-0.358096
C20	C	0.640275	-0.405054	-0.405517
C21	C	0.574839	-0.405036	-0.405550
C22	C	0.542117	-0.357480	-0.358149
C23	C	0.574837	-0.309925	-0.310724
C24	C	0.640271	-0.309939	-0.310698
C25	C	0.438399	-0.351515	-0.291291
C26	C	0.372966	-0.351505	-0.291316
C27	C	0.340297	-0.357431	-0.358231
C28	C	0.373069	-0.363381	-0.425122
C29	C	0.438503	-0.363396	-0.425096
C30	C	0.471165	-0.357458	-0.358172
C31	C	0.236633	-0.404960	-0.405691
C32	C	0.171196	-0.404936	-0.405726
C33	C	0.171195	-0.309829	-0.310894
C34	C	0.236630	-0.309849	-0.310866
C35	C	0.269345	-0.357418	-0.358264
C36	C	0.905339	-0.550386	-0.358189
C37	C	0.905364	-0.632932	-0.358208
C38	C	0.863563	-0.832403	-0.407775
C39	C	0.848291	-0.881853	-0.340002
C40	C	0.905426	-0.784062	-0.358218
C41	C	0.920728	-0.881693	-0.425999
C42	C	0.905484	-0.930047	-0.358233
C43	C	0.890124	-0.832426	-0.290409
C44	C	0.962588	-0.832262	-0.376452
C45	C	0.947337	-0.881690	-0.308632
C46	C	0.905390	-0.699964	-0.358210
C47	C	0.905519	-1.014144	-0.358234
C48	C	1.068838	-0.357395	-0.358288
C49	C	1.138479	-0.357379	-0.358325
C50	C	0.905449	-0.357368	-0.551907
C51	C	0.905463	-0.357340	-0.634453
C52	C	0.905508	-0.163729	-0.358230
C53	C	0.905547	-0.081183	-0.358242
C54	C	0.947377	-0.307673	-0.883308
C55	C	0.962666	-0.375432	-0.833905
C56	C	0.905504	-0.357292	-0.931573
C57	C	0.890224	-0.289561	-0.833894
C58	C	0.905485	-0.357312	-0.785588
C59	C	0.920822	-0.425086	-0.883258
C60	C	0.848354	-0.339170	-0.883251
C61	C	0.863621	-0.406975	-0.833871
C62	C	0.905516	-0.357280	-1.015672
C63	C	0.905473	-0.357332	-0.701491
C64	C	0.905417	-0.357447	-0.165249
C65	C	0.905524	-0.357266	-0.082704
H66	H	0.548201	-0.443753	-0.444168
O67	O	0.936285	-0.493502	-0.908886
C68	C	0.947101	-0.541364	-0.848496
H69	H	0.921734	-0.519440	-0.797469
H70	H	0.999397	-0.544270	-0.836795
C71	C	0.953693	-0.646263	-0.929938
C72	C	0.922533	-0.619339	-0.867267
H73	H	0.938542	-0.694362	-0.941517
H74	H	0.946409	-0.614017	-0.970625
H75	H	0.997272	-0.648678	-0.920179
H76	H	0.878957	-0.616915	-0.877030
H77	H	0.929810	-0.651586	-0.826583
H78	H	0.144564	-0.443652	-0.444346
O79	O	0.989708	-0.257658	-0.909084
C80	C	1.019734	-0.223056	-0.848798
H81	H	1.016497	-0.260300	-0.797916
H82	H	0.996030	-0.167840	-0.836623
C83	C	1.092900	-0.163791	-0.930622
C84	C	1.088928	-0.209537	-0.868128
H85	H	1.135581	-0.155449	-0.942546
H86	H	1.072670	-0.187101	-0.971238
H87	H	1.073143	-0.117783	-0.920468
H88	H	1.108677	-0.255547	-0.878286
H89	H	1.109163	-0.186235	-0.827514
H90	H	0.877310	-0.232274	-0.812208
H91	H	0.666907	-0.443787	-0.444113
H92	H	0.828109	-0.810760	-0.449624
O93	O	1.020240	-0.806377	-0.394915
C94	C	1.060587	-0.866584	-0.408508
H95	H	1.031822	-0.917500	-0.423830
H96	H	1.089094	-0.878759	-0.356578
C97	C	1.140341	-0.784590	-0.453987
C98	C	1.105011	-0.847125	-0.472813
H99	H	1.167746	-0.772587	-0.493651
H100	H	1.113160	-0.744027	-0.444827
H101	H	1.164091	-0.794744	-0.410711
H102	H	1.081256	-0.836967	-0.516082
H103	H	1.132190	-0.887686	-0.481982
H104	H	1.010988	-0.390771	-0.812227
H105	H	0.346471	-0.368205	-0.479610
O106	O	0.470241	-0.369141	-0.490137
C107	C	0.427382	-0.374389	-0.549206
H108	H	0.380741	-0.349405	-0.531689
H109	H	0.420390	-0.435094	-0.564531
C110	C	0.510299	-0.362551	-0.638209
C111	C	0.453015	-0.331860	-0.616695
H112	H	0.526111	-0.336321	-0.679841
H113	H	0.539174	-0.359018	-0.598413
H114	H	0.504464	-0.413138	-0.650974
H115	H	0.458852	-0.281277	-0.603922
H116	H	0.424141	-0.335383	-0.656490
O117	O	0.268320	-0.451182	-0.451808
C118	C	0.225413	-0.493151	-0.493666
H119	H	0.178796	-0.462724	-0.496307
H120	H	0.218384	-0.549522	-0.466381
C121	C	0.308265	-0.541322	-0.569433
C122	C	0.251011	-0.503948	-0.572683
H123	H	0.324056	-0.547986	-0.618174
H124	H	0.337173	-0.513049	-0.541232
H125	H	0.302400	-0.588294	-0.546693
H126	H	0.256879	-0.456974	-0.595414
H127	H	0.222105	-0.532214	-0.600890
O128	O	0.470105	-0.345894	-0.226256
C129	C	0.454015	-0.405839	-0.179891
H130	H	0.436013	-0.453731	-0.215084
H131	H	0.416018	-0.387761	-0.139467
C132	C	0.534197	-0.372227	-0.093084
C133	C	0.512092	-0.431051	-0.136310
H134	H	0.570020	-0.387777	-0.066199
H135	H	0.545036	-0.331839	-0.124319
H136	H	0.502527	-0.357167	-0.059404
H137	H	0.543759	-0.446103	-0.169995
H138	H	0.501260	-0.471442	-0.105079
H139	H	0.800046	-0.323809	-0.904944
H140	H	0.548190	-0.271203	-0.272132
O141	O	0.821360	-0.457154	-0.808256
C142	C	0.792192	-0.492582	-0.868653
H143	H	0.823663	-0.488676	-0.919493
H144	H	0.745643	-0.464406	-0.880816
C145	C	0.742045	-0.579417	-0.787080
C146	C	0.780701	-0.574625	-0.849521
H147	H	0.734953	-0.630025	-0.775278
H148	H	0.761693	-0.555547	-0.746388
H149	H	0.703258	-0.555933	-0.797223
H150	H	0.819489	-0.598101	-0.839373
H151	H	0.761058	-0.598502	-0.890210
O152	O	0.139320	-0.263720	-0.264854
C153	C	0.074551	-0.273896	-0.275050
H154	H	0.065593	-0.331227	-0.299303
H155	H	0.056039	-0.229874	-0.314656
C156	C	0.051912	-0.196619	-0.170135
C157	C	0.040908	-0.267036	-0.199918
H158	H	0.031158	-0.192385	-0.123791
H159	H	0.095548	-0.189761	-0.163266
H160	H	0.036485	-0.159942	-0.203147
H161	H	0.056342	-0.303711	-0.166910
H162	H	-0.002726	-0.273901	-0.206779
O163	O	0.936182	-0.907388	-0.494410
C164	C	0.946396	-0.847045	-0.542557
H165	H	0.958825	-0.795772	-0.508772
H166	H	0.902157	-0.835924	-0.575917
C167	C	0.985255	-0.928388	-0.637218
C168	C	1.000526	-0.865415	-0.595723
H169	H	1.018643	-0.939719	-0.670016
H170	H	0.978371	-0.969043	-0.604782
H171	H	0.948388	-0.919112	-0.665011
H172	H	1.037387	-0.874695	-0.567923
H173	H	1.007417	-0.824762	-0.628156
O174	O	0.268381	-0.263747	-0.264688
C175	C	0.252303	-0.279872	-0.190651
H176	H	0.234265	-0.339193	-0.186808
H177	H	0.214337	-0.240024	-0.171322
C178	C	0.332551	-0.198324	-0.145797
C179	C	0.310400	-0.271185	-0.141076
H180	H	0.368386	-0.192962	-0.115216
H181	H	0.343381	-0.187458	-0.195677
H182	H	0.300907	-0.165126	-0.129691
H183	H	0.342041	-0.304381	-0.157191
H184	H	0.299576	-0.282057	-0.091197
O185	O	0.671953	-0.263731	-0.264557
C186	C	0.629044	-0.221735	-0.222740
H187	H	0.582371	-0.252136	-0.220138
H188	H	0.622158	-0.165363	-0.250035
C189	C	0.711846	-0.173605	-0.146903
C190	C	0.654524	-0.210947	-0.143702
H191	H	0.727564	-0.166947	-0.098149
H192	H	0.740755	-0.201896	-0.175077
H193	H	0.706100	-0.126632	-0.169652
H194	H	0.660272	-0.257923	-0.120962
H195	H	0.625616	-0.182664	-0.115522
H196	H	0.877148	-0.810874	-0.233077
H197	H	0.799978	-0.903652	-0.324593
O198	O	0.989531	-0.907318	-0.258488
C199	C	0.973205	-0.882064	-0.187156
H200	H	0.921217	-0.868353	-0.185665
H201	H	1.001434	-0.830281	-0.173400
C202	C	1.051316	-0.959792	-0.131665
C203	C	0.987462	-0.942957	-0.129832
H204	H	1.060113	-0.997352	-0.096304
H205	H	1.062317	-0.976804	-0.179723
H206	H	1.074832	-0.916634	-0.120204
H207	H	0.963947	-0.986112	-0.141302
H208	H	0.976457	-0.925954	-0.081775
H209	H	0.346288	-0.346665	-0.236849
