data_functionalizedCrystal
_audit_creation_method	'MofGen! by Chris Wilmer'
_symmetry_space_group_name_H-M	'P1'
_symmetry_Int_Tables_number	1
_symmetry_cell_setting	triclinic
loop_
_symmetry_equiv_pos_as_xyz
  x,y,z
_cell_length_a	19.121215
_cell_length_b	19.121063
_cell_length_c	14.908308
_cell_angle_alpha	84.445373
_cell_angle_beta	89.306701
_cell_angle_gamma	95.002544
loop_
_atom_site_label
_atom_site_type_symbol
_atom_site_fract_x
_atom_site_fract_y
_atom_site_fract_z
Zn1	Zn	1.036454	-0.261605	0.581341
Zn2	Zn	1.038135	-0.372493	0.436642
Zn3	Zn	0.926158	-0.259273	0.424313
Zn4	Zn	0.913733	-0.384239	0.581258
O5	O	0.978620	-0.319402	0.505889
O6	O	1.134899	-0.272375	0.567341
O7	O	1.029184	-0.351582	0.308768
O8	O	0.945285	-0.160876	0.440018
O9	O	1.136134	-0.353844	0.461032
O10	O	1.026319	-0.162589	0.555386
O11	O	0.946915	-0.268400	0.299709
O12	O	0.826287	-0.279789	0.439937
O13	O	0.924109	-0.373863	0.707508
O14	O	0.817159	-0.371602	0.555244
O15	O	1.014271	-0.283765	0.707569
O16	O	1.017137	-0.472757	0.460951
O17	O	0.925739	-0.481387	0.567200
C18	C	0.796255	-0.326718	0.496244
C19	C	0.718237	-0.329865	0.492140
C20	C	0.277013	-0.349791	0.466180
C21	C	0.350320	-0.346830	0.470028
C22	C	0.386325	-0.303011	0.527400
C23	C	0.349019	-0.262145	0.580920
C24	C	0.275714	-0.265103	0.577066
C25	C	0.607627	-0.291957	0.541806
C26	C	0.680937	-0.289004	0.545658
C27	C	0.682233	-0.373688	0.434765
C28	C	0.608926	-0.376646	0.430920
C29	C	0.571627	-0.335777	0.484436
C30	C	0.461256	-0.299984	0.531338
C31	C	0.496698	-0.338800	0.480493
C32	C	0.970290	-0.502666	0.515425
C33	C	0.966789	-0.581065	0.519538
C34	C	1.012763	-0.613382	0.466203
C35	C	1.009475	-0.687047	0.470077
C36	C	0.960208	-0.728394	0.527282
C37	C	0.914232	-0.696073	0.580624
C38	C	0.917525	-0.622409	0.576754
C39	C	0.947888	-0.951037	0.541737
C40	C	0.944598	-1.024706	0.545601
C41	C	1.039841	-1.015676	0.435054
C42	C	1.043127	-0.942011	0.431185
C43	C	0.997153	-0.909696	0.484530
C44	C	0.956844	-0.803692	0.531242
C45	C	1.000521	-0.834399	0.480575
C46	C	1.161696	-0.312059	0.515571
C47	C	1.239713	-0.308930	0.519697
C48	C	0.967617	-0.330384	0.741187
C49	C	0.962928	-0.335064	0.841456
C50	C	0.987000	-0.135424	0.496336
C51	C	0.990572	-0.057023	0.492265
C52	C	0.989623	-0.308411	0.271506
C53	C	0.994457	-0.303527	0.171233
C54	C	1.048001	-0.250022	1.029939
C55	C	1.043598	-0.254416	1.124151
C56	C	0.949715	-0.348244	1.124095
C57	C	0.954118	-0.343850	1.029883
C58	C	1.003264	-0.294737	0.982808
C59	C	1.007670	-0.290347	0.888594
C60	C	0.913784	-0.384171	0.888540
C61	C	0.909380	-0.388565	0.982752
H62	H	0.710250	-0.253316	0.592376
H63	H	0.577266	-0.258683	0.585388
H64	H	0.904487	-1.058370	0.592201
O65	O	1.054163	-0.718326	0.418174
C66	C	1.098360	-0.666036	0.366865
H67	H	1.072103	-0.614560	0.359436
H68	H	1.108261	-0.683719	0.297312
H69	H	1.150455	-0.657547	0.402354
H70	H	0.467380	-0.374475	0.433779
H71	H	1.077271	-1.041995	0.391624
O72	O	1.087131	-0.210950	1.169798
C73	C	1.131437	-0.166650	1.108040
H74	H	1.135692	-0.192311	1.042512
H75	H	1.185810	-0.158173	1.137791
H76	H	1.108638	-0.113644	1.093878
H77	H	0.247703	-0.385477	0.419466
O78	O	0.901878	-0.395872	1.169776
C79	C	0.833703	-0.382200	1.142231
H80	H	0.833939	-0.324785	1.113212
H81	H	0.795849	-0.392554	1.202667
H82	H	0.816193	-0.418204	1.088541
O83	O	1.090958	-0.901925	0.375497
C84	C	1.079067	-0.916372	0.285707
H85	H	1.049780	-0.970874	0.285191
H86	H	1.131528	-0.914947	0.248125
H87	H	1.046277	-0.874981	0.251198
H88	H	0.378340	-0.226463	0.627630
O89	O	1.055314	-0.242603	0.842758
C90	C	1.019967	-0.196099	0.783801
H91	H	0.966305	-0.222460	0.768166
H92	H	1.052084	-0.182402	0.718571
H93	H	1.012929	-0.145834	0.816990
O94	O	1.095650	-0.202286	0.984098
C95	C	1.060312	-0.155778	0.925137
H96	H	1.006644	-0.182128	0.909507
H97	H	1.092429	-0.142093	0.859905
H98	H	1.053288	-0.105507	0.958319
H99	H	0.869366	-0.428549	1.021093
H100	H	0.877356	-0.420583	0.850156
O101	O	0.239583	-0.225390	0.629147
C102	C	0.287080	-0.186068	0.680596
H103	H	0.337882	-0.212997	0.687910
H104	H	0.262925	-0.182805	0.750189
H105	H	0.298841	-0.130605	0.645297
H106	H	0.380687	-0.380102	0.426447
H107	H	0.579616	-0.412327	0.384200
O108	O	0.718576	-0.413311	0.382808
C109	C	0.790996	-0.401320	0.398525
H110	H	0.802094	-0.347904	0.425885
H111	H	0.821789	-0.401740	0.332649
H112	H	0.807666	-0.444619	0.449746
H113	H	1.052878	-0.579722	0.419615
O114	O	1.048343	-0.794311	0.424882
C115	C	1.036442	-0.808754	0.335092
H116	H	1.007163	-0.863260	0.334576
H117	H	1.088899	-0.807316	0.297497
H118	H	1.003640	-0.767367	0.300597
H119	H	0.490579	-0.264308	0.578052
H120	H	0.874122	-0.729744	0.627207
O121	O	0.903149	-0.919766	0.593571
C122	C	0.858968	-0.972058	0.644899
H123	H	0.855952	-1.022955	0.610577
H124	H	0.804159	-0.953491	0.650410
H125	H	0.881066	-0.982014	0.715211
O126	O	0.872795	-0.591127	0.628598
C127	C	0.828618	-0.643416	0.679939
H128	H	0.825585	-0.694311	0.645614
H129	H	0.773814	-0.624840	0.685474
H130	H	0.850731	-0.653377	0.750241
H131	H	0.916730	-0.837365	0.577817
