data_functionalizedCrystal
_audit_creation_method	'MofGen! by Chris Wilmer'
_symmetry_space_group_name_H-M	'P1'
_symmetry_Int_Tables_number	1
_symmetry_cell_setting	triclinic
loop_
_symmetry_equiv_pos_as_xyz
  x,y,z
_cell_length_a	13.635800
_cell_length_b	27.923496
_cell_length_c	18.757379
_cell_angle_alpha	87.061348
_cell_angle_beta	58.374836
_cell_angle_gamma	98.963946
loop_
_atom_site_label
_atom_site_type_symbol
_atom_site_fract_x
_atom_site_fract_y
_atom_site_fract_z
V1	V	-2.117442	-0.067509	0.261682
O2	O	-2.120356	0.002850	0.256156
O3	O	-2.081778	-0.133480	0.260416
O4	O	-2.143514	-0.066643	0.375571
O5	O	-2.058192	-0.064449	0.140203
V6	V	-2.354228	-0.059073	0.247088
O7	O	-2.258987	-0.086014	0.293694
O8	O	-2.437782	-0.040567	0.215076
O9	O	-2.278290	0.006899	0.248354
O10	O	-2.410013	-0.129432	0.252615
O11	O	-2.472177	-0.062132	0.368567
O12	O	-2.216553	-0.059938	0.133199
V13	V	-1.617442	-0.067509	0.261682
O14	O	-1.620356	0.002850	0.256156
O15	O	-1.581778	-0.133480	0.260416
O16	O	-1.643514	-0.066643	0.375571
O17	O	-1.558192	-0.064449	0.140203
V18	V	-1.854228	-0.059073	0.247088
O19	O	-1.758987	-0.086014	0.293694
O20	O	-1.937782	-0.040567	0.215076
O21	O	-1.778290	0.006899	0.248354
O22	O	-1.910013	-0.129432	0.252615
O23	O	-1.972177	-0.062132	0.368567
O24	O	-1.716553	-0.059938	0.133199
C25	C	-1.999862	-0.149557	0.256423
C26	C	-2.011681	-0.203490	0.256147
C27	C	-2.177634	-0.540422	0.258728
C28	C	-2.222133	-0.743129	0.257731
O29	O	-2.306575	-0.771450	0.261210
N30	N	-2.135197	-0.765998	0.253404
C31	C	-2.037132	-0.738187	0.249331
O32	O	-1.964214	-0.762290	0.245636
C33	C	-1.992639	-0.535481	0.250334
C34	C	-2.079576	-0.512614	0.254653
C35	C	-2.264565	-0.517555	0.263047
C36	C	-2.253436	-0.466881	0.263292
C37	C	-2.155378	-0.439073	0.259217
C38	C	-2.068448	-0.461940	0.254897
C39	C	-1.894580	-0.507671	0.246267
C40	C	-1.883465	-0.456992	0.246521
C41	C	-1.970402	-0.434125	0.250840
C42	C	-1.959261	-0.383458	0.251067
N43	N	-2.046198	-0.360589	0.255394
C44	C	-2.144256	-0.388397	0.259469
C45	C	-2.060497	-0.844610	0.248803
C46	C	-2.071619	-0.895286	0.248551
C47	C	-2.256621	-0.900226	0.256952
C48	C	-2.245493	-0.849548	0.257199
C49	C	-2.147434	-0.821742	0.253130
C50	C	-2.120879	-0.281977	0.259982
C51	C	-2.109739	-0.231298	0.260222
C52	C	-1.924742	-0.226363	0.251825
C53	C	-1.935877	-0.277038	0.251580
C54	C	-2.033955	-0.304844	0.255662
O55	O	-1.874860	-0.355108	0.247600
O56	O	-2.217173	-0.364287	0.263182
C57	C	-2.188762	-0.591096	0.258483
C58	C	-2.101832	-0.613963	0.254164
C59	C	-2.003774	-0.586155	0.250089
C60	C	-2.112954	-0.664639	0.253912
C61	C	-2.211013	-0.692447	0.257986
C62	C	-2.297949	-0.669578	0.262314
C63	C	-2.286821	-0.618904	0.262558
C64	C	-1.916837	-0.609024	0.245762
C65	C	-1.927972	-0.659698	0.245517
C66	C	-2.026031	-0.687506	0.249591
C67	C	-2.078612	-0.064299	0.403314
C68	C	-2.140494	-0.064028	0.496422
C69	C	-2.191874	0.022973	0.252345
C70	C	-2.169678	0.076906	0.252626
C71	C	-2.375385	-0.065823	0.714919
C72	C	-2.433521	-0.065564	0.802403
C73	C	-2.248419	-0.060711	0.793822
C74	C	-2.190285	-0.060966	0.706339
C75	C	-2.253773	-0.063525	0.666890
C76	C	-2.370043	-0.063010	0.841857
C77	C	-2.433075	-0.062729	0.936711
C78	C	-2.190737	-0.063805	0.572030
C79	C	-2.113124	-0.062284	0.105452
C80	C	-2.040861	-0.062553	0.012342
C81	C	-1.721906	-0.065838	-0.285090
C82	C	-1.789798	-0.065589	-0.197602
C83	C	-1.959452	-0.060744	-0.206151
C84	C	-1.891562	-0.060996	-0.293636
C85	C	-1.772787	-0.063541	-0.333104
C86	C	-1.908569	-0.063040	-0.158131
C87	C	-1.982181	-0.062770	-0.063273
C88	C	-1.699170	-0.063812	-0.427968
C89	C	-1.578612	-0.064299	0.403314
C90	C	-1.640494	-0.064028	0.496422
C91	C	-1.499862	-0.149557	0.256423
C92	C	-1.511681	-0.203490	0.256147
C93	C	-1.691874	0.022973	0.252345
C94	C	-1.669678	0.076906	0.252626
C95	C	-1.613124	-0.062284	0.105452
C96	C	-1.540861	-0.062553	0.012342
C97	C	-1.609739	-0.231298	0.260222
C98	C	-1.620866	-0.281975	0.259976
C99	C	-1.533930	-0.304844	0.255649
C100	C	-1.435865	-0.277033	0.251576
C101	C	-1.424743	-0.226357	0.251829
C102	C	-1.744114	0.104713	0.248553
C103	C	-1.723260	0.155390	0.248803
C104	C	-1.627974	0.178259	0.253132
C105	C	-1.553531	0.150448	0.257203
C106	C	-1.574380	0.099772	0.256947
H107	H	-2.180536	-0.212682	0.263736
H108	H	-1.611010	0.219523	0.253340
H109	H	-1.365086	-0.295660	0.248053
H110	H	-2.427085	-0.067905	0.682803
H111	H	-2.091250	-0.059092	0.667231
H112	H	-1.625194	-0.067907	-0.317222
H113	H	-1.475948	0.169075	0.260727
H114	H	-2.357615	-0.600291	0.266075
H115	H	-2.532544	-0.067434	0.841504
H116	H	-2.196738	-0.058629	0.825952
H117	H	-1.680535	-0.212685	0.263741
H118	H	-2.324235	-0.448268	0.266815
H119	H	-1.844900	-0.203713	0.248504
H120	H	-2.056163	-0.058671	-0.174007
H121	H	-1.803616	-0.434355	0.243212
H122	H	-1.748360	-0.067460	-0.158512
H123	H	-1.700721	-0.304612	0.263290
H124	H	-1.821707	0.086101	0.245029
H125	H	-1.344889	-0.203719	0.248506
H126	H	-1.823779	-0.526279	0.242744
H127	H	-1.933004	-0.059127	-0.332731
H128	H	-1.543001	-0.346108	0.255444
H129	H	-1.513766	0.077134	0.260270
H130	H	-2.200742	-0.304611	0.263306
H131	H	-2.316285	-0.830934	0.260713
H132	H	-2.336459	-0.922875	0.260261
H133	H	-2.344420	-0.540192	0.266369
H134	H	-2.000817	-0.913899	0.245023
H135	H	-1.980642	-0.821975	0.245489
H136	H	-1.783888	0.178027	0.245490
H137	H	-1.836987	-0.586388	0.242444
H138	H	-1.865089	-0.295657	0.248069
H139	H	-2.377788	-0.692227	0.265624
H140	H	-1.857167	-0.678311	0.241994
