data_functionalizedCrystal
_audit_creation_method	'MofGen! by Chris Wilmer'
_symmetry_space_group_name_H-M	'P1'
_symmetry_Int_Tables_number	1
_symmetry_cell_setting	triclinic
loop_
_symmetry_equiv_pos_as_xyz
  x,y,z
_cell_length_a	21.295419
_cell_length_b	21.295419
_cell_length_c	21.395355
_cell_angle_alpha	89.975456
_cell_angle_beta	90.005030
_cell_angle_gamma	89.983482
loop_
_atom_site_label
_atom_site_type_symbol
_atom_site_fract_x
_atom_site_fract_y
_atom_site_fract_z
Zn1	Zn	0.250433	0.962481	-0.354320
Zn2	Zn	0.750433	1.462481	0.145680
Zn3	Zn	0.355685	0.962437	-0.249567
Zn4	Zn	0.855685	1.462437	0.250433
Zn5	Zn	0.250461	0.857205	-0.249557
Zn6	Zn	0.750461	1.357205	0.250443
Zn7	Zn	0.355696	0.857227	-0.354307
Zn8	Zn	0.855696	1.357227	0.145693
O9	O	0.303069	0.909837	-0.301938
O10	O	0.803069	1.409837	0.198062
O11	O	0.264379	1.050565	-0.340434
O12	O	0.764379	1.550565	0.159566
O13	O	0.341734	0.948449	-0.161888
O14	O	0.841734	1.448449	0.338112
O15	O	0.162368	0.871179	-0.263455
O16	O	0.662368	1.371179	0.236545
O17	O	0.341707	1.050532	-0.263473
O18	O	0.841707	1.550532	0.236527
O19	O	0.162348	0.948526	-0.340424
O20	O	0.662348	1.448526	0.159576
O21	O	0.264426	0.871136	-0.161880
O22	O	0.764426	1.371136	0.338120
O23	O	0.264436	0.769118	-0.263443
O24	O	0.764436	1.269118	0.236557
O25	O	0.341726	0.871217	-0.441987
O26	O	0.841726	1.371217	0.058013
O27	O	0.341752	0.769135	-0.340402
O28	O	0.841752	1.269135	0.159598
O29	O	0.264390	0.948547	-0.441996
O30	O	0.764390	1.448547	0.058004
O31	O	0.443776	0.948471	-0.263460
O32	O	0.943776	1.448471	0.236540
O33	O	0.443784	0.871174	-0.340413
O34	O	0.943784	1.371174	0.159587
C35	C	0.303099	0.746286	-0.301920
C36	C	0.803099	1.246286	0.198080
C37	C	0.303127	0.676318	-0.301928
C38	C	0.803127	1.176318	0.198072
C39	C	0.262928	0.643491	-0.342063
C40	C	0.762928	1.143491	0.157937
C41	C	0.262911	0.577748	-0.342066
C42	C	0.762911	1.077748	0.157934
C43	C	0.303104	0.544835	-0.301939
C44	C	0.803104	1.044835	0.198061
C45	C	0.343306	0.577670	-0.261796
C46	C	0.843306	1.077670	0.238204
C47	C	0.343317	0.643411	-0.261790
C48	C	0.843317	1.143411	0.238210
N49	N	0.358182	0.441587	-0.297058
N50	N	0.858182	0.941587	0.202942
N51	N	0.358169	0.379136	-0.297067
N52	N	0.858169	0.879136	0.202933
C53	C	0.303072	0.346760	-0.301953
C54	C	0.803072	0.846760	0.198047
N55	N	0.247986	0.379196	-0.306842
N56	N	0.747986	0.879196	0.193158
N57	N	0.248000	0.441653	-0.306836
N58	N	0.748000	0.941653	0.193164
C59	C	0.303096	0.473550	-0.301941
C60	C	0.803096	0.973550	0.198059
C61	C	0.262851	0.242648	-0.342093
C62	C	0.762851	0.742648	0.157907
C63	C	0.262833	0.176904	-0.342091
C64	C	0.762833	0.676904	0.157909
C65	C	0.343234	0.176827	-0.261824
C66	C	0.843234	0.676827	0.238176
C67	C	0.343246	0.242570	-0.261823
C68	C	0.843246	0.742570	0.238177
C69	C	0.303056	0.275476	-0.301961
C70	C	0.803056	0.775476	0.198039
C71	C	0.138878	0.909855	-0.301940
C72	C	0.638878	1.409855	0.198060
C73	C	0.068910	0.909862	-0.301940
C74	C	0.568910	1.409862	0.198060
C75	C	0.036052	0.869618	-0.342002
C76	C	0.536052	1.369618	0.157998
C77	C	-0.029690	0.869624	-0.342011
C78	C	0.470310	1.369624	0.157989
C79	C	-0.062572	0.909868	-0.301947
C80	C	0.437428	1.409868	0.198053
C81	C	-0.029706	0.950120	-0.261882
C82	C	0.470294	1.450120	0.238118
C83	C	0.036035	0.950117	-0.261879
C84	C	0.536035	1.450117	0.238121
N85	N	-0.165791	0.914681	-0.247108
N86	N	0.334209	1.414681	0.252892
N87	N	-0.228243	0.914680	-0.247113
N88	N	0.271757	1.414680	0.252887
C89	C	-0.260647	0.909879	-0.301955
C90	C	0.239353	1.409879	0.198045
N91	N	-0.228241	0.905067	-0.356794
N92	N	0.271759	1.405067	0.143206
N93	N	-0.165783	0.905065	-0.356788
N94	N	0.334217	1.405065	0.143212
C95	C	-0.133858	0.909875	-0.301946
C96	C	0.366142	1.409875	0.198054
C97	C	-0.364790	0.869639	-0.342030
C98	C	0.135210	1.369639	0.157970
C99	C	-0.430534	0.869650	-0.342040
C100	C	0.069466	1.369650	0.157960
C101	C	-0.430549	0.950142	-0.261906
C102	C	0.069451	1.450142	0.238094
C103	C	-0.364807	0.950135	-0.261901
C104	C	0.135193	1.450135	0.238099
C105	C	-0.331931	0.909880	-0.301962
C106	C	0.168069	1.409880	0.198038
C107	C	0.466620	0.909837	-0.301950
C108	C	0.966620	1.409837	0.198050
C109	C	0.536588	0.909895	-0.301976
C110	C	1.036588	1.409895	0.198024
C111	C	0.303056	0.909890	-0.465361
C112	C	0.803056	1.409890	0.034639
C113	C	0.303051	0.909912	-0.535003
C114	C	0.803051	1.409912	-0.035003
C115	C	0.303039	1.074028	-0.301956
C116	C	0.803039	1.574028	0.198044
C117	C	0.303026	1.143996	-0.301964
C118	C	0.803026	1.643996	0.198036
C119	C	0.262780	0.950176	-0.567721
C120	C	0.762780	1.450176	-0.067721
C121	C	0.262753	0.950175	-0.633157
C122	C	0.762753	1.450175	-0.133157
C123	C	0.303008	0.909917	-0.665871
C124	C	0.803008	1.409917	-0.165871
C125	C	0.343281	0.869645	-0.633144
C126	C	0.843281	1.369645	-0.133144
C127	C	0.343302	0.869643	-0.567710
C128	C	0.843302	1.369643	-0.067710
C129	C	0.359689	0.904946	-0.769550
C130	C	0.859689	1.404946	-0.269550
C131	C	0.359669	0.904953	-0.834983
C132	C	0.859669	1.404953	-0.334983
C133	C	0.302941	0.909921	-0.867692
C134	C	0.802941	1.409921	-0.367692
C135	C	0.246232	0.914895	-0.834960
C136	C	0.746232	1.414895	-0.334960
C137	C	0.246254	0.914892	-0.769526
C138	C	0.746254	1.414892	-0.269526
C139	C	0.302989	0.909915	-0.736823
C140	C	0.802989	1.409915	-0.236823
C141	C	0.262638	0.950186	-0.971363
C142	C	0.762638	1.450186	-0.471363
C143	C	0.262610	0.950181	-1.036800
C144	C	0.762610	1.450181	-0.536800
C145	C	0.343143	0.869654	-1.036786
C146	C	0.843143	1.369654	-0.536786
C147	C	0.343166	0.869656	-0.971350
C148	C	0.843166	1.369656	-0.471350
C149	C	0.302914	0.909925	-0.938643
C150	C	0.802914	1.409925	-0.438643
C151	C	0.303036	0.909822	-0.139150
C152	C	0.803036	1.409822	0.360850
C153	C	0.302864	0.909921	-0.069509
C154	C	0.802864	1.409921	0.430491
H155	H	0.375960	0.150030	-0.229152
H156	H	0.875960	0.650030	0.270848
H157	H	0.230122	0.269442	-0.374772
H158	H	0.730122	0.769442	0.125228
H159	H	-0.338022	0.836870	-0.374658
H160	H	0.161978	1.336870	0.125342
H161	H	0.376031	0.550868	-0.229124
H162	H	0.876031	1.050868	0.270876
N163	N	0.384314	0.276096	-0.220822
N164	N	0.884314	0.776096	0.279178
N165	N	0.420197	0.246705	-0.184995
N166	N	0.920197	0.746705	0.315005
H167	H	0.449202	0.270382	-0.156034
H168	H	0.949202	0.770382	0.343966
H169	H	0.230095	0.150177	-0.374774
H170	H	0.730095	0.650177	0.125226
N171	N	0.069623	0.828497	-0.382927
N172	N	0.569623	1.328497	0.117073
N173	N	0.040272	0.792568	-0.418695
N174	N	0.540272	1.292568	0.081305
H175	H	0.063982	0.763526	-0.447600
H176	H	0.563982	1.263526	0.052400
H177	H	0.375913	0.836868	-1.063421
H178	H	0.875913	1.336868	-0.563421
N179	N	0.221864	0.544210	-0.383084
N180	N	0.721864	1.044210	0.116916
N181	N	0.226149	0.551582	-0.440890
N182	N	0.726149	1.051582	0.059110
H183	H	0.197165	0.527895	-0.469863
H184	H	0.697165	1.027895	0.030137
N185	N	0.384298	0.828521	-0.937927
N186	N	0.884298	1.328521	-0.437927
N187	N	0.380128	0.770436	-0.945212
N188	N	0.880128	1.270436	-0.445212
H189	H	0.409177	0.741380	-0.921608
H190	H	0.909177	1.241380	-0.421608
N191	N	0.384393	0.676947	-0.220802
N192	N	0.884393	1.176947	0.279198
N193	N	0.424547	0.713620	-0.242784
N194	N	0.924547	1.213620	0.257216
H195	H	0.453560	0.737305	-0.213837
H196	H	0.953560	1.237305	0.286163
N197	N	0.188279	0.919954	-0.868360
N198	N	0.688279	1.419954	-0.368360
N199	N	0.146478	0.879421	-0.861019
N200	N	0.646478	1.379421	-0.361019
H201	H	0.105549	0.882994	-0.884610
H202	H	0.605549	1.382994	-0.384610
N203	N	-0.063253	0.828512	-0.382941
N204	N	0.436747	1.328512	0.117059
N205	N	-0.033893	0.792577	-0.418708
N206	N	0.466107	1.292577	0.081292
H207	H	-0.057595	0.763542	-0.447615
H208	H	0.442405	1.263542	0.052385
H209	H	-0.056482	0.982888	-0.229263
H210	H	0.443518	1.482888	0.270737
H211	H	0.230202	0.670279	-0.374746
H212	H	0.730202	1.170279	0.125254
N213	N	0.069592	0.991233	-0.220952
N214	N	0.569592	1.491233	0.279048
N215	N	0.040230	1.027167	-0.185186
N216	N	0.540230	1.527167	0.314814
H217	H	0.063930	1.056205	-0.156280
H218	H	0.563930	1.556205	0.343720
N219	N	-0.464090	0.828540	-0.382973
N220	N	0.035910	1.328540	0.117027
N221	N	-0.434726	0.792605	-0.418738
N222	N	0.065274	1.292605	0.081262
H223	H	-0.458425	0.763571	-0.447649
H224	H	0.041575	1.263571	0.052351
H225	H	0.405844	0.900907	-0.861628
H226	H	0.905844	1.400907	-0.361628
N227	N	0.417633	0.899866	-0.736131
N228	N	0.917633	1.399866	-0.236131
N229	N	0.451784	0.852686	-0.743415
N230	N	0.951784	1.352686	-0.243415
H231	H	0.492704	0.849099	-0.719810
H232	H	0.992704	1.349099	-0.219810
N233	N	-0.464139	0.991241	-0.220979
N234	N	0.035861	1.491241	0.279021
N235	N	-0.522836	0.991235	-0.220982
N236	N	-0.022836	1.491235	0.279018
H237	H	-0.546562	1.020260	-0.192074
H238	H	-0.046562	1.520260	0.307926
N239	N	-0.331249	0.991249	-0.220975
N240	N	0.168751	1.491249	0.279025
N241	N	-0.360613	1.027182	-0.185209
N242	N	0.139387	1.527182	0.314791
H243	H	-0.336913	1.056224	-0.156305
H244	H	0.163087	1.556224	0.343695
H245	H	0.230003	0.982966	-0.541095
H246	H	0.730003	1.482966	-0.041095
H247	H	0.229956	0.982962	-0.659802
H248	H	0.729956	1.482962	-0.159802
H249	H	0.200079	0.918941	-0.742878
H250	H	0.700079	1.418941	-0.242878
N251	N	0.384442	0.828506	-0.534295
N252	N	0.884442	1.328506	-0.034295
N253	N	0.420377	0.792558	-0.563507
N254	N	0.920377	1.292558	-0.063507
H255	H	0.449433	0.763505	-0.539907
H256	H	0.949433	1.263505	-0.039907
H257	H	0.229859	0.982972	-0.944732
H258	H	0.729859	1.482972	-0.444732
N259	N	0.221463	0.991311	-1.070214
N260	N	0.721463	1.491311	-0.570214
N261	N	0.185529	1.027259	-1.041000
N262	N	0.685529	1.527259	-0.541000
H263	H	0.156468	1.056309	-1.064599
H264	H	0.656468	1.556309	-0.564599
N265	N	0.384392	0.828522	-0.666567
N266	N	0.884392	1.328522	-0.166567
N267	N	0.384368	0.828529	-0.724990
N268	N	0.884368	1.328529	-0.224990
H269	H	0.413402	0.799483	-0.748595
H270	H	0.913402	1.299483	-0.248595
