data_functionalizedCrystal
_audit_creation_method	'MofGen! by Chris Wilmer'
_symmetry_space_group_name_H-M	'P1'
_symmetry_Int_Tables_number	1
_symmetry_cell_setting	triclinic
loop_
_symmetry_equiv_pos_as_xyz
  x,y,z
_cell_length_a	14.044191
_cell_length_b	14.044220
_cell_length_c	9.130313
_cell_angle_alpha	89.997493
_cell_angle_beta	90.001968
_cell_angle_gamma	93.190327
loop_
_atom_site_label
_atom_site_type_symbol
_atom_site_fract_x
_atom_site_fract_y
_atom_site_fract_z
O1	O	1.277167	0.230195	-0.121735
O2	O	1.000494	0.221883	-0.121753
O3	O	1.134678	0.087703	-0.121730
O4	O	1.142983	0.364375	-0.121758
O5	O	1.134676	0.087707	0.121869
O6	O	1.000493	0.221886	0.121845
O7	O	1.277165	0.230199	0.121864
Cu8	Cu	1.138829	0.226043	0.144097
Cu9	Cu	1.138831	0.226038	-0.143987
O10	O	1.142982	0.364378	0.121840
C11	C	0.964872	0.218248	0.000044
C12	C	0.858728	0.207401	0.000037
C13	C	0.613270	0.264501	0.000046
C14	C	0.664395	0.187585	0.000051
C15	C	0.772532	0.198613	0.000044
C16	C	0.505123	0.253474	0.000054
C17	C	1.131041	0.052083	0.000070
C18	C	1.120197	-0.054060	0.000071
C19	C	1.100370	-0.248398	0.000048
C20	C	1.177285	-0.299526	0.000049
C21	C	1.166253	-0.407663	0.000037
C22	C	1.111400	-0.140252	0.000061
C23	C	1.312788	0.233834	0.000063
C24	C	1.418931	0.244681	0.000060
C25	C	1.146618	0.399998	0.000037
C26	C	1.157463	0.506142	0.000027
N27	N	1.138835	0.226046	0.346720
N28	N	1.138832	0.226028	-0.346609
C29	C	1.198269	0.166655	0.423382
C30	C	1.198266	0.166643	0.576719
C31	C	1.079390	0.285422	0.576718
C32	C	1.079390	0.285428	0.423384
C33	C	1.266904	0.098081	0.423384
C34	C	1.266901	0.098070	0.576721
H35	H	0.650711	0.338628	0.000034
H36	H	1.341458	0.119983	0.618340
N37	N	0.614799	0.089389	0.000050
H38	H	0.633854	0.053530	-0.090254
H39	H	0.633874	0.053598	0.090410
N40	N	1.275487	-0.249942	0.000063
H41	H	1.269553	-0.178601	0.000073
H42	H	1.311291	-0.269082	0.090374
H43	H	1.026242	-0.285837	0.000040
N44	N	1.015267	0.349467	0.340694
H45	H	0.977611	0.387081	0.412531
H46	H	1.055370	0.394797	0.277071
H47	H	1.337937	0.126577	0.375828
H48	H	1.030991	0.333769	0.639154
H49	H	1.245049	0.023512	0.381770
N50	N	1.229261	0.003941	0.639728
H51	H	1.211073	-0.041531	0.557392
H52	H	1.280223	-0.023933	0.702010
