data_functionalizedCrystal
_audit_creation_method	'MofGen! by Chris Wilmer'
_symmetry_space_group_name_H-M	'P1'
_symmetry_Int_Tables_number	1
_symmetry_cell_setting	triclinic
loop_
_symmetry_equiv_pos_as_xyz
  x,y,z
_cell_length_a	11.169417
_cell_length_b	16.959453
_cell_length_c	16.959447
_cell_angle_alpha	90.027499
_cell_angle_beta	90.014959
_cell_angle_gamma	90.021237
loop_
_atom_site_label
_atom_site_type_symbol
_atom_site_fract_x
_atom_site_fract_y
_atom_site_fract_z
Zn1	Zn	1.834828	-0.314667	0.446851
Zn2	Zn	1.834699	-0.446852	0.314671
Zn3	Zn	1.634130	-0.314694	0.314695
Zn4	Zn	1.634087	-0.446811	0.446815
O5	O	1.734436	-0.380756	0.380758
O6	O	2.002761	-0.332208	0.429322
O7	O	1.808057	-0.429349	0.204063
O8	O	1.660824	-0.204080	0.332250
O9	O	2.002666	-0.429323	0.332210
O10	O	1.808276	-0.204060	0.429345
O11	O	1.660700	-0.332253	0.204080
O12	O	1.466174	-0.332213	0.332216
O13	O	1.660752	-0.429253	0.557431
O14	O	1.466143	-0.429279	0.429284
O15	O	1.808235	-0.332168	0.557457
O16	O	1.808016	-0.557457	0.332175
O17	O	1.660628	-0.557427	0.429261
C18	C	1.422611	-0.380745	0.380749
C19	C	1.289211	-0.380760	0.380764
C20	C	1.734336	-0.586122	0.380729
C21	C	1.734403	-0.673979	0.380743
C22	C	1.811313	-1.045386	0.431411
C23	C	1.657895	-1.045523	0.330223
C24	C	1.657850	-0.962977	0.330204
C25	C	1.734537	-0.921632	0.380791
C26	C	1.811268	-0.962832	0.431396
C27	C	1.581112	-0.921770	0.279606
C28	C	1.581063	-0.839220	0.279587
C29	C	1.657757	-0.797873	0.330170
C30	C	1.734492	-0.839078	0.380776
C31	C	1.811179	-0.797733	0.431363
C32	C	1.887921	-0.838937	0.481966
C33	C	1.887962	-0.921485	0.481979
C34	C	1.657716	-0.715324	0.330157
C35	C	1.811134	-0.715179	0.431348
C36	C	2.047478	-0.380767	0.380768
C37	C	2.180878	-0.380772	0.380772
C38	C	1.734503	-0.380703	0.586926
C39	C	1.734532	-0.380681	0.674783
C40	C	1.734569	-0.174588	0.380804
C41	C	1.734626	-0.086731	0.380824
C42	C	1.734438	-0.380751	0.175392
C43	C	1.734642	-0.380551	0.087536
C44	C	1.657759	-0.431219	0.716045
C45	C	1.811325	-0.330117	0.716075
C46	C	1.811350	-0.330091	0.798621
C47	C	1.734577	-0.380629	0.839882
C48	C	1.657779	-0.431193	0.798598
C49	C	1.888137	-0.279522	0.839911
C50	C	1.888164	-0.279494	0.922462
C51	C	1.811397	-0.330036	0.963725
C52	C	1.734597	-0.380603	0.922436
C53	C	1.657824	-0.431141	0.963698
C54	C	1.581030	-0.481712	0.922410
C55	C	1.581012	-0.481736	0.839862
C56	C	1.811415	-0.330013	1.046274
C57	C	1.657844	-0.431115	1.046252
H58	H	1.950355	-0.805264	0.523157
O59	O	1.962417	-0.961430	0.531252
C60	C	2.020452	-0.986620	0.665756
C61	C	1.936093	-0.941312	0.610038
H62	H	1.999182	-0.970384	0.729467
H63	H	2.117264	-0.970356	0.652010
H64	H	2.007306	-1.052715	0.657035
H65	H	1.949132	-0.875206	0.618728
H66	H	1.839312	-0.957642	0.623797
H67	H	1.873930	-0.288833	1.079887
H68	H	1.873587	-0.681521	0.472539
H69	H	1.873798	-1.078938	0.472608
H70	H	1.950697	-0.238317	0.956071
H71	H	1.595455	-1.079191	0.289041
H72	H	1.950637	-0.238374	0.806310
H73	H	1.518675	-0.955440	0.238424
H74	H	1.518578	-0.805676	0.238383
O75	O	1.583009	-0.675384	0.281051
C76	C	1.378868	-0.650207	0.242612
C77	C	1.463344	-0.695502	0.298263
H78	H	1.282100	-0.666443	0.256520
H79	H	1.399897	-0.666484	0.178876
H80	H	1.392074	-0.584109	0.251278
H81	H	1.450185	-0.761610	0.289668
H82	H	1.442294	-0.679160	0.361980
O83	O	1.583153	-0.480235	1.086208
C84	C	1.430891	-0.580557	1.077466
C85	C	1.515396	-0.524957	1.032118
H86	H	1.376106	-0.616741	1.033754
H87	H	1.368079	-0.544294	1.116091
H88	H	1.485999	-0.621838	1.116135
H89	H	1.460385	-0.483664	0.993407
H90	H	1.578212	-0.561268	0.993543
H91	H	1.518515	-0.522856	0.956016
O92	O	1.506590	-0.530890	0.799660
C93	C	1.490396	-0.637652	0.706455
C94	C	1.574808	-0.582026	0.751929
H95	H	1.545517	-0.679020	0.667867
H96	H	1.427677	-0.601413	0.667757
H97	H	1.435494	-0.673742	0.750128
H98	H	1.629788	-0.545924	0.708314
H99	H	1.637447	-0.618311	0.790640
H100	H	1.595238	-0.472395	0.682425
O101	O	1.885867	-0.281107	0.675874
C102	C	1.953857	-0.236319	0.548713
C103	C	1.869386	-0.291873	0.594145
H104	H	1.940544	-0.244992	0.482627
H105	H	2.050652	-0.250206	0.564889
H106	H	1.932851	-0.172583	0.564997
H107	H	1.890284	-0.355627	0.577885
H108	H	1.772616	-0.277918	0.577965
