data_functionalizedCrystal
_audit_creation_method	'MofGen! by Chris Wilmer'
_symmetry_space_group_name_H-M	'P1'
_symmetry_Int_Tables_number	1
_symmetry_cell_setting	triclinic
loop_
_symmetry_equiv_pos_as_xyz
  x,y,z
_cell_length_a	12.811445
_cell_length_b	12.811415
_cell_length_c	11.892095
_cell_angle_alpha	88.492960
_cell_angle_beta	80.666316
_cell_angle_gamma	83.528277
loop_
_atom_site_label
_atom_site_type_symbol
_atom_site_fract_x
_atom_site_fract_y
_atom_site_fract_z
O1	O	1.411156	0.123548	-0.251319
O2	O	1.103525	0.141027	-0.221579
O3	O	1.263969	-0.019414	-0.221572
O4	O	1.250712	0.283989	-0.251326
O5	O	1.250591	-0.006057	-0.033563
O6	O	1.090147	0.154384	-0.033570
O7	O	1.397778	0.136905	-0.063310
Zn8	Zn	1.241839	0.147765	-0.018589
Zn9	Zn	1.259465	0.130167	-0.266299
O10	O	1.237335	0.297346	-0.063317
C11	C	1.057437	0.147134	-0.123477
C12	C	0.940040	0.145419	-0.111268
C13	C	0.734020	0.127654	-0.293317
C14	C	0.623716	0.126043	-0.281850
C15	C	0.609124	0.140594	-0.076871
C16	C	0.719428	0.142205	-0.088337
C17	C	0.781873	0.135733	-0.196564
C18	C	0.892181	0.137337	-0.208028
C19	C	0.877586	0.151895	-0.003050
C20	C	0.767281	0.150284	0.008416
C21	C	1.256127	-0.051553	-0.123471
C22	C	1.252680	-0.167215	-0.111265
C23	C	1.260768	-0.399108	-0.293316
C24	C	1.257529	-0.507783	-0.281852
C25	C	1.242955	-0.493242	-0.076873
C26	C	1.246194	-0.384566	-0.088337
C27	C	1.255103	-0.337504	-0.196562
C28	C	1.258349	-0.228828	-0.208026
C29	C	1.243767	-0.214287	-0.003047
C30	C	1.240528	-0.322962	0.008417
C31	C	1.443867	0.130797	-0.161414
C32	C	1.561264	0.132511	-0.173631
C33	C	1.245176	0.329484	-0.161420
C34	C	1.248625	0.445146	-0.173634
N35	N	1.229818	0.159774	0.150465
N36	N	1.271494	0.118149	-0.435354
C37	C	1.355144	0.034521	0.387111
C38	C	1.346749	0.042923	0.505452
C39	C	1.204628	0.184975	0.505491
C40	C	1.213023	0.176573	0.387150
C41	C	1.288285	0.101345	0.327964
C42	C	1.296684	0.092948	0.209620
C43	C	1.154559	0.234994	0.209662
C44	C	1.146163	0.243397	0.328003
H45	H	0.716423	0.155557	0.096531
N46	N	0.572100	0.117331	-0.386204
H47	H	0.628400	0.113476	-0.456500
H48	H	0.534463	0.051769	-0.380094
N49	N	1.436309	-0.046604	0.323248
H50	H	1.510031	-0.033324	0.334896
H51	H	1.421713	-0.119032	0.352784
H52	H	0.784865	0.122380	-0.381438
H53	H	1.143345	0.246217	0.553697
N54	N	0.541766	0.147590	0.039851
H55	H	0.464464	0.146798	0.032308
H56	H	0.564699	0.085696	0.087923
N57	N	1.267963	-0.178063	-0.324748
H58	H	1.271058	-0.233583	-0.384300
H59	H	1.204221	-0.124652	-0.328146
H60	H	1.084884	0.304644	0.376206
N61	N	1.418869	-0.029141	0.569247
H62	H	1.467821	-0.078067	0.513791
H63	H	1.462593	0.014134	0.609411
N64	N	1.270392	-0.348341	-0.410037
H65	H	1.273496	-0.403859	-0.469593
H66	H	1.206652	-0.294930	-0.413443
H67	H	0.916559	0.158472	0.075734
H68	H	1.235694	-0.531578	0.011239
N69	N	1.082447	0.307082	0.145868
H70	H	1.099185	0.290350	0.061917
H71	H	1.005832	0.296698	0.175484
N72	N	0.959539	0.130365	-0.324750
H73	H	1.013438	0.066134	-0.328263
H74	H	0.912409	0.125050	-0.384237
H75	H	1.262139	-0.557937	-0.360639
N76	N	1.230934	-0.373727	0.125138
H77	H	1.229747	-0.451921	0.117721
H78	H	1.293733	-0.360189	0.162047
N79	N	1.237665	-0.147845	0.101317
H80	H	1.241072	-0.071857	0.077636
H81	H	1.168514	-0.155025	0.153902
N82	N	1.377858	0.011817	0.145778
H83	H	1.418937	-0.029241	0.201210
H84	H	1.340322	-0.037634	0.105603
