data_functionalizedCrystal
_audit_creation_method	'MofGen! by Chris Wilmer'
_symmetry_space_group_name_H-M	'P1'
_symmetry_Int_Tables_number	1
_symmetry_cell_setting	triclinic
loop_
_symmetry_equiv_pos_as_xyz
  x,y,z
_cell_length_a	10.654541
_cell_length_b	14.519709
_cell_length_c	9.130307
_cell_angle_alpha	89.995756
_cell_angle_beta	89.999822
_cell_angle_gamma	84.082037
loop_
_atom_site_label
_atom_site_type_symbol
_atom_site_fract_x
_atom_site_fract_y
_atom_site_fract_z
O1	O	1.666593	0.129520	-0.121758
O2	O	1.300996	0.141863	-0.121771
O3	O	1.493488	0.001504	-0.121751
O4	O	1.474101	0.269880	-0.121778
O5	O	1.493481	0.001502	0.121848
O6	O	1.300989	0.141862	0.121828
O7	O	1.666587	0.129519	0.121841
Cu8	Cu	1.483788	0.135690	0.144077
Cu9	Cu	1.483795	0.135692	-0.144007
O10	O	1.474095	0.269879	0.121821
C11	C	1.254203	0.140957	0.000027
C12	C	1.114786	0.138247	0.000022
C13	C	1.492581	-0.032862	0.000049
C14	C	1.489874	-0.135257	0.000049
C15	C	1.085201	0.306085	-0.000013
C16	C	1.004912	0.388727	-0.000036
C17	C	0.873919	0.386175	-0.000038
C18	C	0.823213	0.300972	-0.000011
C19	C	0.903502	0.218330	0.000012
C20	C	1.034496	0.220891	0.000009
C21	C	0.933086	0.050493	0.000058
C22	C	1.064080	0.053043	0.000049
C23	C	0.882380	-0.034710	0.000085
C24	C	0.962669	-0.117354	0.000098
C25	C	1.093670	-0.114798	0.000097
C26	C	1.144369	-0.029599	0.000072
C27	C	1.479906	-0.510204	0.000011
C28	C	1.482674	-0.405882	0.000022
C29	C	1.484890	-0.322734	0.000032
C30	C	1.487658	-0.218405	0.000040
C31	C	1.713380	0.130425	0.000040
C32	C	1.852797	0.133135	0.000035
C33	C	1.475002	0.304244	0.000018
C34	C	1.477709	0.406639	0.000008
N35	N	1.483792	0.135689	0.346700
N36	N	1.483801	0.135686	-0.346630
C37	C	1.654313	0.011436	0.346708
C38	C	1.739582	-0.050687	0.423378
C39	C	1.739594	-0.050688	0.576712
C40	C	1.654326	0.011440	0.653378
C41	C	1.569057	0.073564	0.576707
C42	C	1.569056	0.073559	0.423370
C43	C	1.398532	0.197810	0.576700
C44	C	1.398524	0.197816	0.423366
C45	C	1.313264	0.259937	0.653366
C46	C	1.227999	0.322067	0.576695
C47	C	1.227991	0.322066	0.423352
C48	C	1.313255	0.259940	0.346695
H49	H	1.191861	0.308172	-0.000044
H50	H	0.716550	0.298901	0.000006
C51	C	1.815399	-0.105784	0.188327
C52	C	1.833376	-0.118924	0.339104
H53	H	1.873328	-0.147894	0.136307
H54	H	1.731608	-0.116433	0.163170
H55	H	1.829092	-0.044115	0.163247
H56	H	1.819674	-0.180591	0.364186
H57	H	1.917187	-0.108282	0.364272
C58	C	1.908151	-0.173513	0.561334
C59	C	1.833315	-0.118978	0.660997
H60	H	1.966011	-0.215669	0.613372
H61	H	1.855808	-0.207044	0.501539
H62	H	1.953403	-0.134807	0.501518
H63	H	1.788055	-0.157683	0.720807
H64	H	1.885665	-0.085444	0.720818
H65	H	1.046212	0.458098	-0.000054
H66	H	1.654331	0.011428	0.778230
C67	C	0.832513	-0.217598	-0.125094
C68	C	0.906933	-0.211002	0.000124
H69	H	0.798108	-0.275416	-0.125081
H70	H	0.765959	-0.168750	-0.125086
H71	H	0.883009	-0.213117	-0.210038
H72	H	0.856435	-0.215476	0.085069
H73	H	0.973496	-0.259864	0.000130
C74	C	1.109744	-0.280959	0.000135
C75	C	1.181920	-0.205644	0.000115
H76	H	1.164225	-0.337043	0.000136
H77	H	1.058043	-0.278459	0.085082
H78	H	1.058028	-0.278461	-0.084816
H79	H	1.233629	-0.208139	0.085072
H80	H	1.233642	-0.208145	-0.084840
C81	C	0.659974	0.456773	-0.000053
C82	C	0.785656	0.477014	-0.000060
H83	H	0.605487	0.512854	-0.000058
H84	H	0.644597	0.421875	-0.084989
H85	H	0.644599	0.421875	0.084909
H86	H	0.801033	0.511906	-0.085028
H87	H	0.801039	0.511927	0.084884
C88	C	1.340076	-0.071631	-0.125142
C89	C	1.288357	-0.026786	0.000069
H90	H	1.428967	-0.069886	-0.125143
H91	H	1.321377	-0.134192	-0.125110
H92	H	1.304970	-0.041215	-0.210091
H93	H	1.323457	-0.057206	0.085018
H94	H	1.307067	0.035787	0.000051
C95	C	1.194927	0.240509	0.873030
C96	C	1.313274	0.259935	0.821912
H97	H	1.194939	0.240505	0.977084
H98	H	1.131955	0.286397	0.838346
H99	H	1.177637	0.181442	0.838344
H100	H	1.330561	0.319006	0.856590
H101	H	1.376266	0.214045	0.856611
H102	H	0.775717	-0.036782	0.000092
C103	C	1.154571	0.481214	0.623895
C104	C	1.134273	0.390350	0.660959
H105	H	1.096700	0.523367	0.675914
H106	H	1.238389	0.491802	0.649035
H107	H	1.142367	0.490098	0.521600
H108	H	1.146486	0.381464	0.763253
H109	H	1.050435	0.379758	0.635830
H110	H	1.158550	0.372650	0.360935
C111	C	1.338759	0.347004	0.127024
C112	C	1.313252	0.259937	0.178149
H113	H	1.338766	0.346995	0.022970
H114	H	1.275775	0.392883	0.161697
H115	H	1.419047	0.360172	0.161716
H116	H	1.232959	0.246771	0.143466
H117	H	1.376239	0.214043	0.143461
H118	H	1.654322	0.011438	0.221855
