data_functionalizedCrystal
_audit_creation_method	'MofGen! by Chris Wilmer'
_symmetry_space_group_name_H-M	'P1'
_symmetry_Int_Tables_number	1
_symmetry_cell_setting	triclinic
loop_
_symmetry_equiv_pos_as_xyz
  x,y,z
_cell_length_a	13.339070
_cell_length_b	14.971486
_cell_length_c	14.048226
_cell_angle_alpha	90.006640
_cell_angle_beta	89.996358
_cell_angle_gamma	80.378288
loop_
_atom_site_label
_atom_site_type_symbol
_atom_site_fract_x
_atom_site_fract_y
_atom_site_fract_z
O1	O	1.342828	-0.448553	-0.079140
O2	O	1.048230	-0.389678	-0.079147
O3	O	1.203425	-0.290867	-0.079137
O4	O	1.187633	-0.547363	-0.079151
O5	O	1.203406	-0.290855	0.079185
O6	O	1.048211	-0.389665	0.079174
O7	O	1.342809	-0.448540	0.079181
Zn8	Zn	1.195507	-0.419100	0.104315
Zn9	Zn	1.195532	-0.419117	-0.104281
O10	O	1.187614	-0.547350	0.079171
C11	C	1.010519	-0.379726	0.000013
C12	C	0.898181	-0.350082	0.000011
C13	C	1.202709	-0.257362	0.000024
C14	C	1.200593	-0.157541	0.000023
C15	C	1.380520	-0.458491	0.000019
C16	C	1.492857	-0.488136	0.000015
C17	C	1.857372	-0.257639	0.000014
C18	C	1.751825	-0.229784	0.000011
C19	C	1.687078	-0.294370	0.000013
C20	C	1.727888	-0.386815	0.000016
C21	C	1.833444	-0.414672	0.000011
C22	C	1.663151	-0.451403	0.000010
C23	C	1.703961	-0.543848	0.000013
C24	C	1.809507	-0.571701	0.000009
C25	C	1.874254	-0.507115	0.000008
C26	C	1.557594	-0.423545	0.000014
C27	C	1.533667	-0.580579	0.000011
C28	C	1.639214	-0.608433	0.000014
C29	C	1.188330	-0.580856	0.000008
C30	C	1.190446	-0.680676	0.000003
N31	N	1.195498	-0.419090	0.246675
C32	C	1.291766	-0.122857	0.000025
C33	C	1.289771	-0.029064	0.000016
C34	C	1.196602	0.030042	0.000010
C35	C	1.105422	-0.004648	0.000005
C36	C	1.107418	-0.098439	0.000008
C37	C	1.101269	0.190841	0.000001
C38	C	1.099273	0.284639	0.000000
C39	C	1.283622	0.260216	0.000009
C40	C	1.285618	0.166425	0.000012
C41	C	1.194437	0.131741	0.000008
N42	N	1.195549	-0.419122	-0.246641
C43	C	1.264240	-0.375368	0.296498
C44	C	1.264247	-0.375369	0.396155
C45	C	1.195515	-0.419099	0.445989
C46	C	1.126766	-0.462823	0.396159
C47	C	1.126755	-0.462815	0.296503
C48	C	1.126795	-0.462836	0.603873
C49	C	1.126807	-0.462845	0.703536
C50	C	1.264287	-0.375390	0.703525
C51	C	1.264276	-0.375382	0.603870
C52	C	1.195527	-0.419108	0.554047
H53	H	1.524378	-0.348276	0.000011
O54	O	1.338443	-0.328224	0.757247
H55	H	1.295812	-0.274136	0.802658
O56	O	1.052642	-0.509997	0.449909
H57	H	1.004836	-0.540395	0.398518
O58	O	1.338400	-0.328211	0.550117
H59	H	1.417299	-0.359221	0.569226
O60	O	1.707807	-0.130084	0.000008
H61	H	1.660278	-0.113634	0.064534
O62	O	1.853531	-0.671407	0.000001
H63	H	1.901053	-0.687842	0.064524
O64	O	1.009083	-0.135856	0.000015
H65	H	0.943961	-0.079001	0.000022
H66	H	1.070777	-0.498418	0.255939
H67	H	1.029563	0.043484	-0.000006
O68	O	1.392261	-0.186598	0.000026
H69	H	1.397584	-0.229900	0.064559
O70	O	1.573237	-0.264333	0.000027
H71	H	1.555737	-0.189201	0.000037
O72	O	1.388106	0.008350	0.000017
H73	H	1.391589	0.050517	0.064539
O74	O	1.988097	-0.537164	0.000032
H75	H	2.026258	-0.476721	0.000038
O76	O	1.683232	-0.708141	0.000010
H77	H	1.767504	-0.716655	-0.000000
H78	H	1.480950	-0.633170	0.000012
O79	O	1.386103	0.102669	0.000007
H80	H	1.449172	0.142542	-0.000005
H81	H	1.910097	-0.205064	0.000006
H82	H	1.357865	0.288460	0.000009
O83	O	0.998780	0.348383	-0.000011
H84	H	0.993444	0.391700	0.064524
H85	H	1.027020	0.162606	-0.000004
O86	O	1.338368	-0.328197	0.242750
H87	H	1.386161	-0.297785	0.294141
H88	H	1.320221	-0.339766	0.436721
O89	O	1.052658	-0.509986	0.757291
H90	H	1.004835	-0.540372	0.705906
H91	H	1.070810	-0.498439	0.563311
