data_functionalizedCrystal
_audit_creation_method	'MofGen! by Chris Wilmer'
_symmetry_space_group_name_H-M	'P1'
_symmetry_Int_Tables_number	1
_symmetry_cell_setting	triclinic
loop_
_symmetry_equiv_pos_as_xyz
  x,y,z
_cell_length_a	19.077142
_cell_length_b	8.497374
_cell_length_c	19.076919
_cell_angle_alpha	87.716621
_cell_angle_beta	90.074357
_cell_angle_gamma	92.308618
loop_
_atom_site_label
_atom_site_type_symbol
_atom_site_fract_x
_atom_site_fract_y
_atom_site_fract_z
Zn1	Zn	-1.058439	-0.763264	0.440522
Zn2	Zn	-1.063135	-1.016925	0.323038
Zn3	Zn	-0.945652	-0.742126	0.318310
Zn4	Zn	-0.940957	-1.015969	0.435787
O5	O	-1.002046	-0.884571	0.379414
O6	O	-1.157395	-0.806159	0.428898
O7	O	-1.051481	-0.972026	0.224079
O8	O	-0.960613	-0.524168	0.334524
O9	O	-1.160846	-0.992523	0.342583
O10	O	-1.043477	-0.539698	0.424313
O11	O	-0.965167	-0.770133	0.220605
O12	O	-0.846696	-0.769206	0.329933
O13	O	-0.952611	-0.990894	0.534747
O14	O	-0.843246	-0.970397	0.416242
O15	O	-1.038924	-0.805233	0.538226
O16	O	-1.046928	-1.237560	0.337992
O17	O	-0.957164	-1.236858	0.420827
C18	C	-0.819474	-0.867405	0.372061
C19	C	-0.741368	-0.860101	0.368932
C20	C	-0.702899	-0.961565	0.412328
C21	C	-0.629510	-0.954681	0.409391
C22	C	-0.594592	-0.846340	0.363054
C23	C	-0.633066	-0.744865	0.319656
C24	C	-0.706454	-0.751742	0.322597
C25	C	-0.375298	-0.814516	0.349452
C26	C	-0.301906	-0.807650	0.346513
C27	C	-0.298355	-1.017465	0.436249
C28	C	-0.371744	-1.024339	0.439183
C29	C	-0.410211	-0.922858	0.395787
N30	N	-0.519577	-0.839305	0.360050
N31	N	-0.485225	-0.929887	0.398796
C32	C	-0.185331	-0.901797	0.386788
C33	C	-0.263437	-0.909114	0.389909
C34	C	-1.002040	-0.473091	0.379417
C35	C	-1.002040	-0.294447	0.379419
C36	C	-0.994720	-0.900314	0.562695
C37	C	-0.991598	-0.907023	0.640799
C38	C	-1.009384	-0.868779	0.196847
C39	C	-1.012641	-0.861639	0.118750
C40	C	-1.035068	-0.813516	0.679305
C41	C	-1.032126	-0.819812	0.752691
C42	C	-0.985717	-0.919626	0.787570
C43	C	-0.942243	-1.013137	0.749059
C44	C	-0.945181	-1.006831	0.675674
C45	C	-0.972106	-0.948844	1.006854
C46	C	-0.969172	-0.955147	1.080244
C47	C	-1.059054	-0.761819	1.083870
C48	C	-1.061992	-0.755528	1.010484
C49	C	-1.018515	-0.849033	0.971979
N50	N	-0.982711	-0.926069	0.862583
N51	N	-1.021518	-0.842581	0.896968
H52	H	-0.598192	-1.037305	0.444729
H53	H	-1.099785	-0.674254	0.982090
O54	O	-0.740561	-1.078393	0.462318
H55	H	-0.775255	-1.158990	0.432161
H56	H	-0.400169	-1.112565	0.476914
H57	H	-0.936714	-1.025006	0.975512
O58	O	-0.256867	-1.126899	0.483061
H59	H	-0.199969	-1.103911	0.473239
H60	H	-0.737774	-0.669112	0.287263
O61	O	-0.264239	-0.690781	0.296538
H62	H	-0.303316	-0.621357	0.266862
H63	H	-1.072861	-0.732241	0.650911
H64	H	-1.067525	-0.743673	0.784039
O65	O	-0.416786	-0.705116	0.302627
H66	H	-0.380174	-0.628655	0.269901
O67	O	-1.105926	-0.660921	1.125397
H68	H	-1.096078	-0.682047	1.182286
H69	H	-0.604630	-0.656645	0.281931
O70	O	-0.892186	-1.120793	0.786678
H71	H	-0.837600	-1.087322	0.770371
O72	O	-0.919110	-1.062796	1.117868
H73	H	-0.889365	-1.126745	1.078765
O74	O	-0.898287	-1.107662	0.634137
H75	H	-0.865523	-1.178131	0.670718
