data_functionalizedCrystal
_audit_creation_method	'MofGen! by Chris Wilmer'
_symmetry_space_group_name_H-M	'P1'
_symmetry_Int_Tables_number	1
_symmetry_cell_setting	triclinic
loop_
_symmetry_equiv_pos_as_xyz
  x,y,z
_cell_length_a	20.875641
_cell_length_b	20.875650
_cell_length_c	23.196401
_cell_angle_alpha	57.607568
_cell_angle_beta	90.012211
_cell_angle_gamma	60.097266
loop_
_atom_site_label
_atom_site_type_symbol
_atom_site_fract_x
_atom_site_fract_y
_atom_site_fract_z
Zr1	Zr	0.666536	0.652996	-0.075034
O2	O	0.565607	0.794181	-0.175029
O3	O	0.693924	0.517208	-0.041472
O4	O	0.699013	0.650615	-0.165937
O5	O	0.560544	0.660770	0.044308
O6	O	0.808287	0.642598	-0.162073
O7	O	0.560518	0.660774	-0.050564
O8	O	0.799182	0.403957	0.060572
O9	O	0.569648	0.899411	-0.178337
O10	O	0.791446	0.565078	-0.027788
O11	O	0.709915	0.571058	0.040130
O12	O	0.715908	0.728128	-0.106411
O13	O	0.634377	0.734108	-0.038492
Zr14	Zr	0.840856	0.640204	0.082440
Zr15	Zr	0.840815	0.640210	-0.068871
Zr16	Zr	0.666578	0.652990	0.076277
Zr17	Zr	0.672981	0.820826	-0.080309
Zr18	Zr	0.834412	0.472374	0.087715
O19	O	0.813469	0.775992	0.048878
O20	O	0.813409	0.776000	-0.166266
O21	O	0.565667	0.794173	0.040115
O22	O	0.941785	0.499019	0.182435
O23	O	0.941726	0.499027	-0.032709
O24	O	0.693983	0.517200	0.173672
O25	O	0.946848	0.632430	-0.036902
O26	O	0.808379	0.642585	0.173343
O27	O	0.699105	0.650602	0.169479
O28	O	0.946874	0.632426	0.057970
O29	O	0.708177	0.889248	-0.173438
O30	O	0.799216	0.403952	0.180843
O31	O	0.937744	0.393789	0.185742
O32	O	0.937711	0.393793	0.065470
O33	O	0.569681	0.899407	-0.058065
O34	O	0.708210	0.889243	-0.053166
O35	O	0.791484	0.565072	0.113816
O36	O	0.873015	0.559092	0.045898
O37	O	0.797477	0.722142	-0.032725
O38	O	0.715947	0.728122	0.035194
C39	C	0.745635	0.436670	0.010301
C40	C	0.742899	0.365422	0.012541
C41	C	0.723200	-0.035602	0.029243
C42	C	0.725730	0.031391	0.027093
C43	C	0.769549	0.061767	-0.009440
C44	C	0.810847	0.025140	-0.043819
C45	C	0.808321	-0.041856	-0.041664
C46	C	0.781671	0.261799	-0.019683
C47	C	0.784192	0.328802	-0.021837
C48	C	0.699076	0.335046	0.049076
C49	C	0.696550	0.268053	0.051224
C50	C	0.737851	0.231428	0.016848
N51	N	0.772134	0.130247	-0.011641
N52	N	0.735270	0.162945	0.019054
C53	C	0.535700	0.662594	-0.004006
C54	C	0.461714	0.668022	-0.006623
C55	C	0.466383	0.585464	0.033185
C56	C	0.396863	0.590570	0.030725
C57	C	0.322675	0.678235	-0.011547
C58	C	0.318007	0.760799	-0.051356
C59	C	0.387527	0.755692	-0.048891
C60	C	0.110530	0.702635	-0.023316
C61	C	0.041009	0.707736	-0.025779
C62	C	0.119870	0.537506	0.056303
C63	C	0.189387	0.532407	0.058760
C64	C	0.184714	0.614971	0.018955
N65	N	0.251613	0.683456	-0.014065
N66	N	0.255775	0.609749	0.021477
C67	C	0.971692	0.630606	0.011412
C68	C	1.045678	0.625178	0.014028
C69	C	0.753644	0.646607	-0.185564
C70	C	0.753626	0.646609	-0.249799
C71	C	0.761757	0.856530	-0.002896
C72	C	0.764493	0.927778	-0.005135
C73	C	0.714200	0.731717	-0.321012
C74	C	0.714221	0.731717	-0.381367
C75	C	0.753657	0.646605	-0.370504
C76	C	0.793092	0.561486	-0.299278
C77	C	0.793076	0.561488	-0.238926
C78	C	0.745198	0.584235	-0.436061
C79	C	0.745207	0.584236	-0.496414
C80	C	0.753708	0.646594	-0.556650
C81	C	0.762183	0.708967	-0.556532
C82	C	0.762168	0.708969	-0.496180
C83	C	0.753678	0.646593	-0.435942
C84	C	0.714302	0.731707	-0.693309
C85	C	0.714329	0.731703	-0.753663
C86	C	0.793194	0.561470	-0.671572
C87	C	0.793173	0.561476	-0.611220
C88	C	0.753723	0.646598	-0.622094
C89	C	0.753748	0.646593	0.192969
C90	C	0.753766	0.646590	0.257204
C91	C	0.963631	0.420676	0.018010
C92	C	1.034881	0.344000	0.022866
C93	C	0.745687	0.436663	0.199568
C94	C	0.742969	0.365412	0.266042
C95	C	0.963683	0.420669	0.207277
C96	C	1.034951	0.343990	0.276368
C97	C	0.543709	0.872531	-0.199871
C98	C	0.472442	0.949210	-0.268962
C99	C	0.543761	0.872524	-0.010605
C100	C	0.472511	0.949200	-0.015460
C101	C	0.761705	0.856537	-0.192162
C102	C	0.764424	0.927788	-0.258637
C103	C	1.025762	0.311116	-0.013323
C104	C	1.092703	0.239080	-0.008775
C105	C	1.168761	0.199924	0.031966
C106	C	1.177878	0.232815	0.068157
C107	C	1.110939	0.304854	0.063604
C108	C	0.784270	0.328828	0.335729
C109	C	0.781713	0.261890	0.398195
C110	C	0.737859	0.231533	0.390972
C111	C	0.696552	0.268124	0.321277
C112	C	0.699105	0.335066	0.258813
C113	C	1.110984	0.304859	0.273361
C114	C	1.177954	0.232819	0.338274
C115	C	1.168890	0.199909	0.406192
C116	C	1.092849	0.239047	0.409197
C117	C	1.025880	0.311090	0.344285
C118	C	0.396409	0.988349	-0.265956
C119	C	0.329439	1.060409	-0.330869
C120	C	0.338504	1.093324	-0.398788
C121	C	0.414545	1.054181	-0.401792
C122	C	0.481513	0.982127	-0.336880
C123	C	0.481630	0.982091	0.020722
C124	C	0.414690	1.054145	0.016157
C125	C	0.338632	1.093303	-0.024587
C126	C	0.329515	1.060410	-0.060774
C127	C	0.396454	0.988361	-0.056213
C128	C	0.808285	0.958123	-0.251390
C129	C	0.810855	1.025060	-0.313844
C130	C	0.769558	1.061666	-0.383543
C131	C	0.725694	1.031325	-0.390788
C132	C	0.723130	0.964383	-0.328335
H133	H	0.665452	0.364872	0.077063
H134	H	1.223427	0.141247	0.459042
H135	H	0.815354	0.232104	0.454937
H136	H	0.400672	0.523343	0.063141
C137	C	1.082888	0.202830	0.483910
H138	H	1.133665	0.154313	0.522133
H139	H	1.055851	0.252995	0.486688
H140	H	1.053012	0.178817	0.489007
H141	H	0.735787	0.177024	0.441840
H142	H	0.682180	0.801018	-0.702163
C143	C	0.859098	1.058434	-0.305866
H144	H	0.854723	1.103537	-0.353039
H145	H	0.839077	1.086094	-0.282355
H146	H	0.913265	1.006255	-0.277288
C147	C	0.424505	1.090386	-0.476505
H148	H	0.373728	1.138895	-0.514728
H149	H	0.454391	1.114386	-0.481612
H150	H	0.451531	1.040207	-0.479271
C151	C	0.832501	0.362221	0.343688
H152	H	0.856719	0.330848	0.394141
H153	H	0.872363	0.348297	0.323455
H154	H	0.798166	0.428125	0.318390
H155	H	-0.019400	0.779127	-0.060206
H156	H	0.963972	0.342942	0.346743
H157	H	0.106714	0.769865	-0.055741
H158	H	0.389018	0.961585	-0.085676
C159	C	0.386422	0.952166	-0.191255
H160	H	0.331544	0.985814	-0.198772
H161	H	0.409343	0.887104	-0.163284
H162	H	0.412204	0.961284	-0.165628
H163	H	0.660847	0.243398	0.315407
H164	H	1.223261	0.141265	0.035668
H165	H	0.267529	1.092268	-0.328408
C166	C	0.270990	0.435975	0.105260
H167	H	0.263814	0.387536	0.128620
H168	H	0.299739	0.430450	0.074488
H169	H	0.299756	0.430443	0.141369
H170	H	0.692110	0.061199	0.055092
C171	C	0.125005	0.446694	0.100093
H172	H	0.072978	0.462287	0.092578
H173	H	0.152593	0.410882	0.083927
H174	H	0.152605	0.410891	0.150800
H175	H	0.257597	0.832178	-0.085771
H176	H	0.769101	0.759748	-0.605579
C177	C	1.261589	0.189771	0.334956
H178	H	1.257389	0.219682	0.285208
H179	H	1.290912	0.198626	0.357629
H180	H	1.288056	0.124444	0.359973
C181	C	0.245849	1.103484	-0.105583
H182	H	0.207294	1.151094	-0.103105
H183	H	0.240724	1.130054	-0.155246
H184	H	0.237906	1.055870	-0.086027
C185	C	0.565145	0.939070	-0.340195
H186	H	0.560944	0.968990	-0.389943
H187	H	0.594477	0.947908	-0.317512
H188	H	0.591603	0.873746	-0.315188
H189	H	0.841915	0.928328	-0.194643
C190	C	0.772378	1.135307	-0.452235
H191	H	0.804411	1.148133	-0.437931
H192	H	0.794319	1.111704	-0.478050
H193	H	0.720139	1.191528	-0.483097
H194	H	1.118374	0.331618	0.093079
C195	C	0.653676	0.375296	0.182162
H196	H	0.627201	0.347618	0.186814
H197	H	0.615810	0.441455	0.153659
H198	H	0.689996	0.361613	0.158729
C199	C	0.680264	1.071605	-0.467460
H200	H	0.688070	1.115825	-0.503611
H201	H	0.699427	1.022019	-0.470516
H202	H	0.625256	1.101846	-0.475558
C203	C	0.382395	0.846503	-0.092649
H204	H	0.434423	0.830907	-0.085112
H205	H	0.354793	0.882348	-0.143359
H206	H	0.354811	0.882275	-0.076447
C207	C	0.264834	1.172570	-0.470184
H208	H	0.218255	1.191152	-0.458660
H209	H	0.266813	1.224813	-0.499140
H210	H	0.263976	1.150619	-0.496793
C211	C	0.670818	0.825343	-0.332969
H212	H	0.676451	0.813159	-0.286827
H213	H	0.693131	0.857489	-0.358350
H214	H	0.616102	0.863139	-0.361099
H215	H	0.543554	0.950214	0.053905
C216	C	0.853741	-0.082135	-0.079482
H217	H	0.880194	-0.054444	-0.101554
H218	H	0.891625	-0.148288	-0.044153
H219	H	0.817419	-0.068507	-0.116082
C220	C	0.424733	1.090306	0.055974
H221	H	0.479618	1.056651	0.080902
H222	H	0.401815	1.155367	0.021199
H223	H	0.398971	1.081189	0.090399
C224	C	0.648318	0.234677	0.091380
H225	H	0.624081	0.266088	0.111541
H226	H	0.608470	0.248581	0.057708
H227	H	0.682642	0.168779	0.129665
C228	C	0.670842	0.825339	-0.459710
H229	H	0.647340	0.876034	-0.457541
H230	H	0.707714	0.826061	-0.483591
H231	H	0.630695	0.831688	-0.486325
H232	H	0.769071	0.759753	-0.496087
H233	H	0.687514	-0.060325	0.058988
C234	C	0.735918	0.515604	-0.496526
H235	H	0.730878	0.478446	-0.452000
H236	H	0.689861	0.550140	-0.536744
H237	H	0.781307	0.475859	-0.500885
C238	C	0.265006	1.172552	-0.029596
H239	H	0.281337	1.186521	-0.002203
H240	H	0.235546	1.227099	-0.079434
H241	H	0.232720	1.152914	-0.010222
H242	H	0.819876	0.353532	-0.051589
C243	C	1.120971	0.341050	0.198660
H244	H	1.175849	0.307426	0.206176
H245	H	1.095199	0.331936	0.173025
H246	H	1.098039	0.406118	0.170698
H247	H	0.682226	0.801011	-0.811650
H248	H	0.815298	0.231986	-0.047675
C249	C	0.859045	0.058555	-0.084006
H250	H	0.854629	0.103708	-0.080374
H251	H	0.913218	0.006407	-0.062261
H252	H	0.839008	0.086183	-0.134188
H253	H	1.085264	0.212310	-0.038247
H254	H	0.526787	0.514078	0.067610
C255	C	0.836572	0.467849	-0.659617
H256	H	0.830931	0.480035	-0.705760
H257	H	0.891283	0.430050	-0.631484
H258	H	0.814250	0.435707	-0.634241
C259	C	0.735860	0.515628	-0.369798
H260	H	0.737077	0.524551	-0.333833
H261	H	0.686660	0.527155	-0.385260
H262	H	0.778102	0.452841	-0.349411
C263	C	1.261542	0.189726	0.112984
H264	H	1.257394	0.219623	0.133888
H265	H	1.287997	0.124403	0.150956
H266	H	1.290847	0.198579	0.081760
H267	H	0.687409	0.939692	-0.334245
H268	H	0.825201	0.492187	-0.290437
C269	C	0.836504	0.467862	-0.532884
H270	H	0.830844	0.480053	-0.498496
H271	H	0.814177	0.435741	-0.527309
H272	H	0.891229	0.430041	-0.524513
H273	H	0.825183	0.492181	-0.180938
H274	H	0.963838	0.342996	-0.046508
