data_functionalizedCrystal
_audit_creation_method	'MofGen! by Chris Wilmer'
_symmetry_space_group_name_H-M	'P1'
_symmetry_Int_Tables_number	1
_symmetry_cell_setting	triclinic
loop_
_symmetry_equiv_pos_as_xyz
  x,y,z
_cell_length_a	15.944545
_cell_length_b	15.021413
_cell_length_c	15.944493
_cell_angle_alpha	89.990110
_cell_angle_beta	83.485608
_cell_angle_gamma	90.004532
loop_
_atom_site_label
_atom_site_type_symbol
_atom_site_fract_x
_atom_site_fract_y
_atom_site_fract_z
O1	O	1.114510	0.073963	0.108299
O2	O	1.614510	0.573963	0.608299
O3	O	0.869956	0.073976	0.121661
O4	O	1.369956	0.573976	0.621661
O5	O	0.998937	0.073976	-0.007299
O6	O	1.498937	0.573976	0.492701
O7	O	0.985529	0.073962	0.237258
O8	O	1.485529	0.573962	0.737258
O9	O	0.998916	-0.074088	-0.007280
O10	O	1.498916	0.425912	0.492720
O11	O	0.869936	-0.074089	0.121679
O12	O	1.369936	0.425911	0.621679
O13	O	1.114489	-0.074102	0.108317
O14	O	1.614489	0.425898	0.608317
Zn15	Zn	0.992209	-0.097603	0.115001
Zn16	Zn	1.492209	0.402397	0.615001
Zn17	Zn	0.992236	0.097478	0.114977
Zn18	Zn	1.492236	0.597478	0.614977
O19	O	0.985509	-0.074102	0.237276
O20	O	1.485509	0.425898	0.737276
C21	C	0.838652	-0.000055	0.121116
C22	C	1.338652	0.499945	0.621116
C23	C	0.745406	-0.000049	0.119456
C24	C	1.245406	0.499951	0.619456
N25	N	0.992197	-0.230741	0.115017
N26	N	1.492197	0.269259	0.615017
C27	C	0.474791	-0.000054	0.034560
C28	C	0.974791	0.499946	0.534560
C29	C	0.525354	-0.073061	0.075499
C30	C	1.025354	0.426939	0.575499
C31	C	0.409764	-0.000064	0.113535
C32	C	0.909764	0.499936	0.613535
C33	C	0.525355	0.072918	0.075502
C34	C	1.025355	0.572918	0.575502
C35	C	0.574677	-0.000055	0.116440
C36	C	1.074677	0.499945	0.616440
C37	C	0.459098	-0.073132	0.154453
C38	C	0.959098	0.426868	0.654453
C39	C	0.459096	0.072913	0.154445
C40	C	0.959096	0.572913	0.654445
C41	C	0.509626	-0.000113	0.195442
C42	C	1.009626	0.499887	0.695442
C43	C	0.314762	-0.000070	0.111860
C44	C	0.814762	0.499930	0.611860
C45	C	0.669676	-0.000056	0.118122
C46	C	1.169676	0.499944	0.618122
C47	C	0.932547	-0.470425	0.174620
C48	C	1.432547	0.029575	0.674620
C49	C	1.008445	-0.529764	0.190926
C50	C	1.508445	-0.029764	0.690926
C51	C	0.992218	-0.412348	0.114996
C52	C	1.492218	0.087652	0.614996
C53	C	0.916342	-0.529750	0.098709
C54	C	1.416342	-0.029750	0.598709
C55	C	0.992232	-0.587772	0.114978
C56	C	1.492232	-0.087772	0.614978
C57	C	1.068154	-0.470381	0.131340
C58	C	1.568154	0.029619	0.631340
C59	C	0.976001	-0.470362	0.039090
C60	C	1.476001	0.029638	0.539090
C61	C	1.051953	-0.529675	0.055364
C62	C	1.551953	-0.029675	0.555364
C63	C	0.992209	-0.311291	0.115009
C64	C	1.492209	0.188709	0.615009
C65	C	0.992250	-0.688827	0.114964
C66	C	1.492250	-0.188827	0.614964
C67	C	1.145793	-0.000069	0.108862
C68	C	1.645793	0.499931	0.608862
C69	C	1.239039	-0.000069	0.110522
C70	C	1.739039	0.499931	0.610522
C71	C	0.998378	-0.000052	-0.038584
C72	C	1.498378	0.499948	0.461416
C73	C	0.996735	-0.000041	-0.131833
C74	C	1.496735	0.499959	0.368167
N75	N	0.992255	0.230615	0.114954
N76	N	1.492255	0.730615	0.614954
C77	C	1.072656	-0.000062	-0.367594
C78	C	1.572656	0.499938	0.132406
C79	C	1.031725	0.072944	-0.418171
C80	C	1.531725	0.572944	0.081829
C81	C	0.993691	-0.000051	-0.302554
C82	C	1.493691	0.499949	0.197446
C83	C	1.031687	-0.073036	-0.418128
C84	C	1.531687	0.426964	0.081872
C85	C	0.990757	-0.000066	-0.467463
C86	C	1.490757	0.499934	0.032537
C87	C	0.952782	0.073014	-0.351902
C88	C	1.452782	0.573014	0.148098
C89	C	0.952755	-0.073031	-0.351856
C90	C	1.452755	0.426969	0.148144
C91	C	0.911766	-0.000008	-0.402400
C92	C	1.411766	0.499992	0.097600
C93	C	0.995384	-0.000042	-0.207554
C94	C	1.495384	0.499958	0.292446
C95	C	0.989058	-0.000068	-0.562460
C96	C	1.489058	0.499932	-0.062460
C97	C	0.986067	-0.000072	0.268562
C98	C	1.486067	0.499928	0.768562
C99	C	0.987710	-0.000077	0.361811
C100	C	1.487710	0.499923	0.861811
H101	H	0.459152	-0.000121	-0.033454
H102	H	0.959152	0.499879	0.466546
H103	H	0.554288	0.134637	0.042128
H104	H	1.054288	0.634637	0.542128
F105	F	0.866657	-0.436416	0.240576
F106	F	1.366657	0.063584	0.740576
H107	H	1.022174	-0.555856	0.255110
H108	H	1.522174	-0.055856	0.755110
F109	F	0.563166	-0.153733	0.031916
F110	F	1.063166	0.346267	0.531916
H111	H	0.430273	-0.134921	0.187789
H112	H	0.930273	0.365079	0.687789
F113	F	0.909232	0.153775	-0.314245
F114	F	1.409232	0.653775	0.185755
H115	H	0.843695	0.000035	-0.417864
H116	H	1.343695	0.500035	0.082136
H117	H	0.525104	-0.000159	0.263508
H118	H	1.025104	0.499841	0.763508
F119	F	0.909206	-0.153705	-0.313974
F120	F	1.409206	0.346295	0.186026
H121	H	0.430151	0.134634	0.187761
H122	H	0.930151	0.634634	0.687761
F123	F	1.117988	-0.563470	-0.010555
F124	F	1.617988	-0.063470	0.489445
F125	F	1.161559	0.000027	-0.347167
F126	F	1.661559	0.500027	0.152833
H127	H	1.132341	-0.444413	0.145184
H128	H	1.632341	0.055587	0.645184
F129	F	0.958026	-0.436228	-0.044777
F130	F	1.458026	0.063772	0.455223
F131	F	1.075283	-0.153705	-0.455933
F132	F	1.575283	0.346295	0.044067
H133	H	0.852169	-0.555830	0.084942
H134	H	1.352169	-0.055830	0.584942
F135	F	1.075323	0.153612	-0.456018
F136	F	1.575323	0.653612	0.043982
