data_functionalizedCrystal
_audit_creation_method	'MofGen! by Chris Wilmer'
_symmetry_space_group_name_H-M	'P1'
_symmetry_Int_Tables_number	1
_symmetry_cell_setting	triclinic
loop_
_symmetry_equiv_pos_as_xyz
  x,y,z
_cell_length_a	10.723024
_cell_length_b	13.339070
_cell_length_c	9.198806
_cell_angle_alpha	89.999439
_cell_angle_beta	89.996352
_cell_angle_gamma	100.048582
loop_
_atom_site_label
_atom_site_type_symbol
_atom_site_fract_x
_atom_site_fract_y
_atom_site_fract_z
O1	O	1.704931	0.142225	-0.120877
O2	O	1.346349	0.155839	-0.120882
O3	O	1.484486	0.001483	-0.120876
O4	O	1.566793	0.296581	-0.120883
O5	O	1.484471	0.001483	0.120909
O6	O	1.346333	0.155839	0.120903
O7	O	1.704916	0.142225	0.120908
Cu8	Cu	1.525623	0.149032	0.142982
Cu9	Cu	1.525641	0.149032	-0.142957
O10	O	1.566778	0.296581	0.120902
C11	C	1.299509	0.154848	0.000010
C12	C	1.159959	0.151884	0.000008
C13	C	1.113970	0.238253	0.000005
C14	C	0.969739	0.235192	0.000003
C15	C	1.470575	-0.036303	0.000015
C16	C	1.429133	-0.148892	0.000008
C17	C	1.751368	-0.511449	0.000013
C18	C	1.790309	-0.405666	0.000027
C19	C	1.700018	-0.341468	0.000022
C20	C	1.570779	-0.383062	0.000003
C21	C	1.531834	-0.488855	0.000001
C22	C	1.480485	-0.318874	0.000010
C23	C	1.351246	-0.360469	-0.000009
C24	C	1.312308	-0.466252	-0.000013
C25	C	1.402598	-0.530450	-0.000007
C26	C	1.519430	-0.213081	0.000012
C27	C	1.299897	-0.190487	0.000000
C28	C	1.260956	-0.296270	-0.000014
C29	C	1.751755	0.143216	0.000013
C30	C	1.891305	0.146180	0.000005
C31	C	1.580689	0.334367	0.000008
C32	C	1.622132	0.446956	0.000005
N33	N	1.525619	0.149031	0.344096
N34	N	1.525652	0.149025	-0.344070
C35	C	1.583523	0.083935	0.416296
C36	C	1.583541	0.083932	0.583708
H37	H	1.731732	-0.255335	0.000034
O38	O	1.202505	-0.121252	0.000005
H39	H	1.106096	-0.167946	0.000020
O40	O	0.917287	0.333142	0.000013
H41	H	0.812234	0.315367	0.000026
H42	H	1.633079	0.028203	0.354172
O43	O	1.360590	-0.644549	-0.000004
H44	H	1.445090	-0.682196	0.000010
O45	O	1.649214	0.010111	0.665951
H46	H	1.751220	0.023521	0.636806
H47	H	0.930908	0.072237	-0.000002
H48	H	1.476053	0.204755	0.406222
O49	O	1.172918	-0.511121	-0.000014
H50	H	1.116673	-0.448712	-0.000027
H51	H	1.824868	-0.563728	0.000029
H52	H	1.181375	0.314464	0.000011
O53	O	1.070692	0.050925	0.000020
H54	H	1.010151	0.045296	-0.098531
O55	O	1.658816	-0.168232	0.000013
H56	H	1.681813	-0.120584	0.098566
O57	O	1.929690	-0.360801	0.000015
H58	H	1.985933	-0.423211	-0.000004
H59	H	1.155727	-0.330152	-0.000028
O60	O	1.459961	0.222838	0.573697
H61	H	1.529844	0.272333	0.504319
