data_functionalizedCrystal
_audit_creation_method	'MofGen! by Chris Wilmer'
_symmetry_space_group_name_H-M	'P1'
_symmetry_Int_Tables_number	1
_symmetry_cell_setting	triclinic
loop_
_symmetry_equiv_pos_as_xyz
  x,y,z
_cell_length_a	21.295420
_cell_length_b	21.295417
_cell_length_c	18.101390
_cell_angle_alpha	89.962939
_cell_angle_beta	89.980592
_cell_angle_gamma	90.026289
loop_
_atom_site_label
_atom_site_type_symbol
_atom_site_fract_x
_atom_site_fract_y
_atom_site_fract_z
Zn1	Zn	0.962323	-0.250656	-0.418713
Zn2	Zn	1.462323	0.249344	0.081287
Zn3	Zn	0.962235	-0.355936	-0.294863
Zn4	Zn	1.462235	0.144064	0.205137
Zn5	Zn	0.857056	-0.250677	-0.294886
Zn6	Zn	1.357056	0.249323	0.205114
Zn7	Zn	0.857016	-0.355884	-0.418663
Zn8	Zn	1.357016	0.144116	0.081337
O9	O	0.909657	-0.303288	-0.356781
O10	O	1.409657	0.196712	0.143219
O11	O	1.050401	-0.264635	-0.402296
O12	O	1.550401	0.235365	0.097704
O13	O	0.948263	-0.342004	-0.191233
O14	O	1.448263	0.157996	0.308767
O15	O	0.871073	-0.162585	-0.311343
O16	O	1.371073	0.337415	0.188657
O17	O	1.050336	-0.341984	-0.311303
O18	O	1.550336	0.158016	0.188697
O19	O	0.948413	-0.162569	-0.402318
O20	O	1.448413	0.337431	0.097682
O21	O	0.870988	-0.264671	-0.191250
O22	O	1.370988	0.235329	0.308750
O23	O	0.768961	-0.264620	-0.311294
O24	O	1.268961	0.235380	0.188706
O25	O	0.871005	-0.341894	-0.522302
O26	O	1.371005	0.158106	-0.022302
O27	O	0.768932	-0.341914	-0.402232
O28	O	1.268932	0.158086	0.097768
O29	O	0.948374	-0.264584	-0.522339
O30	O	1.448374	0.235416	-0.022339
O31	O	0.948224	-0.444019	-0.311254
O32	O	1.448224	0.055981	0.188746
O33	O	0.870920	-0.443980	-0.402210
O34	O	1.370920	0.056020	0.097790
C35	C	0.746106	-0.303264	-0.356760
C36	C	1.246106	0.196736	0.143240
C37	C	0.676138	-0.303269	-0.356769
C38	C	1.176138	0.196731	0.143231
C39	C	0.176713	-0.263108	-0.404249
C40	C	0.676713	0.236892	0.095751
C41	C	0.242455	-0.263103	-0.404249
C42	C	0.742455	0.236897	0.095751
C43	C	0.275298	-0.303307	-0.356798
C44	C	0.775298	0.196693	0.143202
C45	C	0.242393	-0.343531	-0.309358
C46	C	0.742393	0.156469	0.190642
C47	C	0.176652	-0.343539	-0.309364
C48	C	0.676652	0.156461	0.190636
N49	N	0.378493	-0.308058	-0.291953
N50	N	0.878493	0.191942	0.208047
N51	N	0.440945	-0.308047	-0.291948
N52	N	0.940945	0.191953	0.208052
C53	C	0.473373	-0.303287	-0.356777
C54	C	0.973373	0.196713	0.143223
N55	N	0.440991	-0.298526	-0.421610
N56	N	0.940991	0.201474	0.078390
N57	N	0.378534	-0.298534	-0.421614
N58	N	0.878534	0.201466	0.078386
C59	C	0.346584	-0.303303	-0.356786
C60	C	0.846584	0.196697	0.143214
C61	C	0.577556	-0.263064	-0.404218
C62	C	1.077556	0.236936	0.095782
C63	C	0.643299	-0.263063	-0.404219
C64	C	1.143299	0.236937	0.095781
C65	C	0.643236	-0.343488	-0.309321
C66	C	1.143236	0.156512	0.190679
C67	C	0.577494	-0.343492	-0.309327
C68	C	1.077494	0.156508	0.190673
C69	C	0.544657	-0.303276	-0.356774
C70	C	1.044657	0.196724	0.143226
C71	C	0.909575	-0.466840	-0.356740
C72	C	1.409575	0.033160	0.143260
C73	C	0.909597	-0.536808	-0.356747
C74	C	1.409597	-0.036808	0.143253
C75	C	0.949885	-0.569674	-0.309435
C76	C	1.449885	-0.069674	0.190565
C77	C	0.949915	-0.635416	-0.309452
C78	C	1.449915	-0.135416	0.190548
C79	C	0.909645	-0.668290	-0.356773
C80	C	1.409645	-0.168290	0.143227
C81	C	0.869354	-0.635417	-0.404094
C82	C	1.369354	-0.135417	0.095906
C83	C	0.869330	-0.569675	-0.404081
C84	C	1.369330	-0.069675	0.095919
N85	N	0.854578	-0.771552	-0.362411
N86	N	1.354578	-0.271552	0.137589
N87	N	0.854602	-0.834003	-0.362419
N88	N	1.354602	-0.334003	0.137581
C89	C	0.909716	-0.866365	-0.356815
C90	C	1.409716	-0.366365	0.143185
N91	N	0.964805	-0.833916	-0.351189
N92	N	1.464805	-0.333916	0.148811
N93	N	0.964780	-0.771459	-0.351177
N94	N	1.464780	-0.271459	0.148823
C95	C	0.909667	-0.739576	-0.356792
C96	C	1.409667	-0.239576	0.143208
C97	C	0.950039	-0.970517	-0.309519
C98	C	1.450039	-0.470517	0.190481
C99	C	0.950070	-1.036260	-0.309541
C100	C	1.450070	-0.536260	0.190459
C101	C	0.869503	-1.036259	-0.404179
C102	C	1.369503	-0.536259	0.095821
C103	C	0.869478	-0.970517	-0.404161
C104	C	1.369478	-0.470517	0.095839
C105	C	0.909745	-0.937649	-0.356827
C106	C	1.409745	-0.437649	0.143173
C107	C	1.073848	-0.303313	-0.356803
C108	C	1.573848	0.196687	0.143197
C109	C	1.143816	-0.303323	-0.356812
C110	C	1.643816	0.196677	0.143188
C111	C	0.909695	-0.303231	-0.549943
C112	C	1.409695	0.196769	-0.049943
C113	C	0.909711	-0.303206	-0.632257
C114	C	1.409711	0.196794	-0.132257
C115	C	0.909757	-0.139098	-0.356838
C116	C	1.409757	0.360902	0.143162
C117	C	0.909800	-0.069130	-0.356863
C118	C	1.409800	0.430870	0.143137
C119	C	0.909745	-0.303167	-0.931348
C120	C	1.409745	0.196833	-0.431348
C121	C	0.958583	-0.254697	-0.900046
C122	C	1.458583	0.245303	-0.400046
C123	C	0.958431	-0.254517	-0.814428
C124	C	1.458431	0.245483	-0.314428
C125	C	0.909728	-0.303186	-0.782966
C126	C	1.409728	0.196814	-0.282966
C127	C	0.843413	-0.285159	-0.814041
C128	C	1.343413	0.214841	-0.314041
C129	C	0.843705	-0.284795	-0.899686
C130	C	1.343705	0.215205	-0.399686
C131	C	0.926638	-0.369790	-0.899755
C132	C	1.426638	0.130210	-0.399755
C133	C	0.928093	-0.369450	-0.814105
C134	C	1.428093	0.130550	-0.314105
C135	C	0.909715	-0.303199	-0.699106
C136	C	1.409715	0.196801	-0.199106
C137	C	0.909754	-0.303153	-1.015208
C138	C	1.409754	0.196847	-0.515208
C139	C	0.909656	-0.303300	-0.164371
C140	C	1.409656	0.196700	0.335629
C141	C	0.909762	-0.303147	-0.082057
C142	C	1.409762	0.196853	0.417943
H143	H	0.269245	-0.230352	-0.442877
H144	H	0.769245	0.269648	0.057123
H145	H	0.806079	-0.318563	-0.920391
H146	H	1.306079	0.181437	-0.420391
F147	F	0.141770	-0.220310	-0.454751
F148	F	0.641770	0.279690	0.045249
F149	F	1.023070	-0.269268	-0.926976
F150	F	1.523070	0.230732	-0.426976
H151	H	0.149868	-0.376289	-0.270734
H152	H	0.649868	0.123711	0.229266
H153	H	0.947249	-0.205161	-0.793960
H154	H	1.447249	0.294839	-0.293960
H155	H	0.550819	-0.230318	-0.442852
H156	H	1.050819	0.269682	0.057148
F157	F	0.678311	-0.220262	-0.454716
F158	F	1.178311	0.279738	0.045284
H159	H	0.982675	-0.542915	-0.270895
H160	H	1.482675	-0.042915	0.229105
F161	F	1.022707	-0.269266	-0.786965
F162	F	1.522707	0.230734	-0.286965
H163	H	0.982881	-1.063018	-0.271015
H164	H	1.482881	-0.563018	0.228985
H165	H	0.829385	-0.236094	-0.919681
H166	H	1.329385	0.263906	-0.419681
F167	F	0.542481	-0.386288	-0.258827
F168	F	1.042481	0.113712	0.241173
F169	F	0.826595	-0.935537	-0.454514
F170	F	1.326595	-0.435537	0.045486
H171	H	0.806037	-0.319375	-0.793659
H172	H	1.306037	0.180625	-0.293659
H173	H	0.828832	-0.236999	-0.792607
H174	H	1.328832	0.263001	-0.292607
H175	H	0.669976	-0.376228	-0.270692
H176	H	1.169976	0.123772	0.229308
F177	F	0.944156	-0.190545	-0.928203
F178	F	1.444156	0.309455	-0.428203
F179	F	0.988760	-0.391222	-0.927993
F180	F	1.488760	0.108778	-0.427993
H181	H	0.891069	-0.405906	-0.920002
H182	H	1.391069	0.094094	-0.420002
F183	F	0.991883	-0.387218	-0.787563
F184	F	1.491883	0.112782	-0.287563
F185	F	0.884976	-0.419192	-0.786113
F186	F	1.384976	0.080808	-0.286113
F187	F	0.826499	-0.670404	-0.454459
F188	F	1.326499	-0.170404	0.045541
H189	H	0.836522	-0.542915	-0.442609
H190	H	1.336522	-0.042915	0.057391
H191	H	0.982724	-0.662181	-0.270925
H192	H	1.482724	-0.162181	0.229075
F193	F	0.992894	-0.935534	-0.259142
F194	F	1.492894	-0.435534	0.240858
F195	F	0.277348	-0.386321	-0.258860
F196	F	0.777348	0.113679	0.241140
H197	H	0.836718	-1.063025	-0.442712
H198	H	1.336718	-0.563025	0.057288
