data_functionalizedCrystal
_audit_creation_method	'MofGen! by Chris Wilmer'
_symmetry_space_group_name_H-M	'P1'
_symmetry_Int_Tables_number	1
_symmetry_cell_setting	triclinic
loop_
_symmetry_equiv_pos_as_xyz
  x,y,z
_cell_length_a	15.944564
_cell_length_b	14.421503
_cell_length_c	9.065218
_cell_angle_alpha	90.006200
_cell_angle_beta	84.259910
_cell_angle_gamma	89.996857
loop_
_atom_site_label
_atom_site_type_symbol
_atom_site_fract_x
_atom_site_fract_y
_atom_site_fract_z
O1	O	-1.115965	0.077011	-0.190341
O2	O	-0.871594	0.077034	-0.213780
O3	O	-0.998830	0.077020	0.012700
O4	O	-0.988728	0.077025	-0.416820
O5	O	-0.998809	-0.077203	0.012666
O6	O	-0.871573	-0.077190	-0.213814
O7	O	-1.115943	-0.077212	-0.190375
Cu8	Cu	-0.993756	-0.091283	-0.202097
Cu9	Cu	-0.993781	0.091104	-0.202057
O10	O	-0.988707	-0.077199	-0.416854
C11	C	-0.840282	-0.000075	-0.212820
C12	C	-0.747015	-0.000066	-0.209893
N13	N	-0.993745	-0.219564	-0.202124
C14	C	-0.531043	-0.000086	-0.062508
C15	C	-0.470552	0.075955	-0.130919
C16	C	-0.576250	-0.000077	-0.204598
C17	C	-0.470553	-0.076097	-0.130986
C18	C	-0.411299	-0.000092	-0.199472
C19	C	-0.516987	0.076026	-0.273048
C20	C	-0.516995	-0.076094	-0.273095
C21	C	-0.456523	-0.000034	-0.341609
C22	C	-0.671274	-0.000068	-0.207546
C23	C	-0.316276	-0.000095	-0.196534
C24	C	-0.934900	-0.469211	-0.306801
C25	C	-1.011016	-0.531021	-0.335449
C26	C	-0.993765	-0.408726	-0.202089
C27	C	-0.917668	-0.531010	-0.173476
C28	C	-0.993778	-0.591447	-0.202058
C29	C	-1.069920	-0.469174	-0.230803
C30	C	-0.976522	-0.469158	-0.068772
C31	C	-1.052693	-0.530939	-0.097363
C32	C	-0.993756	-0.303464	-0.202110
C33	C	-0.993795	-0.696706	-0.202036
C34	C	-0.147257	-0.000101	-0.191314
C35	C	-0.240528	-0.000104	-0.194181
C36	C	-0.997849	-0.000090	0.067647
C37	C	-0.994946	-0.000085	0.231422
N38	N	-0.993799	0.219385	-0.202018
C39	C	-0.989689	-0.000086	-0.471801
C40	C	-0.992592	-0.000085	-0.635577
H41	H	-0.563482	0.000007	0.055409
H42	H	-0.853309	-0.558174	-0.149289
Br43	Br	-0.551295	-0.183248	-0.373207
H44	H	-0.961902	-0.441964	0.043922
Br45	Br	-0.436301	-0.183243	-0.030804
Br46	Br	-0.402743	0.000033	-0.538344
H47	H	-0.885171	-0.442108	-0.395424
H48	H	-0.449995	0.140241	-0.070807
Br49	Br	-0.551067	0.183293	-0.373120
Br50	Br	-1.035349	-0.576310	-0.523336
H51	H	-1.134294	-0.442126	-0.255126
Br52	Br	-1.135760	-0.575837	0.050261
