data_functionalizedCrystal
_audit_creation_method	'MofGen! by Chris Wilmer'
_symmetry_space_group_name_H-M	'P1'
_symmetry_Int_Tables_number	1
_symmetry_cell_setting	triclinic
loop_
_symmetry_equiv_pos_as_xyz
  x,y,z
_cell_length_a	19.188905
_cell_length_b	22.010155
_cell_length_c	19.188930
_cell_angle_alpha	90.005815
_cell_angle_beta	96.860332
_cell_angle_gamma	90.008914
loop_
_atom_site_label
_atom_site_type_symbol
_atom_site_fract_x
_atom_site_fract_y
_atom_site_fract_z
O1	O	0.926155	0.050632	-0.087069
O2	O	0.722841	0.050612	-0.098821
O3	O	0.830365	0.050611	0.008711
O4	O	0.818631	0.050633	-0.194601
O5	O	0.830358	-0.050440	0.008683
O6	O	0.722834	-0.050438	-0.098849
O7	O	0.926148	-0.050418	-0.087097
Cu8	Cu	0.824490	-0.059655	-0.092976
Cu9	Cu	0.824499	0.059849	-0.092942
O10	O	0.818623	-0.050417	-0.194629
C11	C	0.696826	0.000084	-0.098458
C12	C	0.619321	0.000076	-0.097324
C13	C	0.582933	0.055160	-0.096764
C14	C	0.510109	0.055168	-0.095691
C15	C	0.473678	0.000088	-0.095164
C16	C	0.510074	-0.055003	-0.095728
C17	C	0.582895	-0.055009	-0.096808
N18	N	0.364655	-0.040907	-0.053747
N19	N	0.295478	-0.040898	-0.052719
C20	C	0.254272	0.000102	-0.091911
N21	N	0.284857	0.041102	-0.132161
N22	N	0.354040	0.041094	-0.133185
C23	C	0.394716	0.000088	-0.093993
C24	C	0.138920	0.055198	-0.090189
C25	C	0.066094	0.055203	-0.089120
C26	C	0.066061	-0.054969	-0.089150
C27	C	0.138885	-0.054973	-0.090226
C28	C	0.175310	0.000113	-0.090742
N29	N	0.824489	-0.143707	-0.092999
C30	C	0.776861	-0.436319	-0.140559
C31	C	0.776859	-0.372711	-0.140565
O32	O	0.736344	-0.339819	-0.181031
N33	N	0.824483	-0.340892	-0.092972
C34	C	0.872108	-0.372683	-0.045365
O35	O	0.912615	-0.339777	-0.004884
C36	C	0.872106	-0.436289	-0.045356
C37	C	0.824483	-0.468106	-0.092957
C38	C	0.729242	-0.468135	-0.188155
C39	C	0.729245	-0.531738	-0.188149
C40	C	0.776867	-0.563525	-0.140547
C41	C	0.824486	-0.531709	-0.092951
C42	C	0.919726	-0.468080	0.002253
C43	C	0.919720	-0.531690	0.002258
C44	C	0.872097	-0.563507	-0.045342
C45	C	0.872111	-0.627099	-0.045344
N46	N	0.824487	-0.658919	-0.092937
C47	C	0.776865	-0.627132	-0.140538
C48	C	0.872108	-0.239105	-0.045387
C49	C	0.872114	-0.175500	-0.045399
C50	C	0.776864	-0.175532	-0.140598
C51	C	0.776862	-0.239139	-0.140589
C52	C	0.824484	-0.270925	-0.092980
C53	C	0.776875	-0.760703	-0.140523
C54	C	0.776884	-0.824312	-0.140515
C55	C	0.872130	-0.824274	-0.045315
C56	C	0.872124	-0.760670	-0.045325
C57	C	0.824490	-0.728887	-0.092932
O58	O	0.912604	-0.660031	-0.004897
O59	O	0.736358	-0.660045	-0.181006
C60	C	0.952163	0.000111	-0.087460
C61	C	1.029668	0.000123	-0.088594
C62	C	0.829982	0.000084	0.034708
C63	C	0.828841	0.000078	0.112213
N64	N	0.824506	0.143901	-0.092914
C65	C	0.819007	0.000111	-0.220626
C66	C	0.820148	0.000121	-0.298131
C67	C	0.891933	0.000082	0.157142
C68	C	0.890861	0.000091	0.229966
C69	C	0.826694	0.000086	0.257857
C70	C	0.763594	0.000086	0.212917
C71	C	0.764668	0.000082	0.140095
N72	N	0.777643	-0.034309	0.365848
N73	N	0.776628	-0.034307	0.435026
C74	C	0.823456	0.000098	0.477265
N75	N	0.871348	0.034492	0.447713
N76	N	0.872366	0.034487	0.378529
C77	C	0.825523	0.000090	0.336819
C78	C	0.885390	0.000112	0.601159
C79	C	0.884315	0.000125	0.673984
C80	C	0.757047	0.000114	0.656933
C81	C	0.758123	0.000106	0.584110
C82	C	0.822296	0.000103	0.556228
H83	H	0.612522	-0.099867	-0.097264
H84	H	0.706747	0.000100	0.547527
H85	H	0.738083	-0.265040	-0.179349
C86	C	0.131639	0.164099	-0.090069
C87	C	0.178962	0.115746	-0.090774
H88	H	0.156358	0.201478	-0.090437
H89	H	0.108694	0.161812	-0.048944
H90	H	0.097776	0.161804	-0.130357
H91	H	0.212822	0.118039	-0.050483
H92	H	0.201918	0.118035	-0.131904
C93	C	0.637906	0.000080	0.188751
C94	C	0.693060	0.000081	0.243571
H95	H	0.594360	0.000084	0.207677
H96	H	0.640966	-0.035157	0.160702
H97	H	0.640983	0.035320	0.160705
H98	H	0.689986	-0.035161	0.271615
H99	H	0.689999	0.035322	0.271632
H100	H	0.704801	0.000112	0.679641
C101	C	0.963494	0.052038	0.321762
C102	C	0.960215	0.000091	0.279365
H103	H	1.006313	0.052038	0.352254
H104	H	0.925127	0.052035	0.348787
H105	H	0.961278	0.087272	0.292996
H106	H	0.962426	-0.035143	0.308131
H107	H	0.998593	0.000089	0.252338
C108	C	0.960434	-0.051834	0.529160
C109	C	0.955928	0.000116	0.570508
H110	H	1.003985	-0.051832	0.510244
H111	H	0.923018	-0.051838	0.491978
H112	H	0.957367	-0.087066	0.557222
H113	H	0.958990	0.035348	0.542444
H114	H	0.993355	0.000125	0.607695
H115	H	0.480477	0.100025	-0.095236
H116	H	0.935694	0.000131	0.710566
C117	C	0.913483	-0.843839	0.075664
C118	C	0.924467	-0.859224	0.007014
H119	H	0.945793	-0.865416	0.107972
H120	H	0.866911	-0.854263	0.083112
H121	H	0.920310	-0.801405	0.082468
H122	H	0.917635	-0.901658	0.000209
H123	H	0.971050	-0.848805	-0.000436
C124	C	0.634166	-0.396624	-0.203583
C125	C	0.676894	-0.433201	-0.240488
H126	H	0.601848	-0.375064	-0.235899
H127	H	0.662522	-0.368567	-0.175250
H128	H	0.609143	-0.421438	-0.174581
H129	H	0.701921	-0.408387	-0.269487
H130	H	0.648534	-0.461261	-0.268834
H131	H	0.036399	-0.099816	-0.088725
H132	H	0.168513	-0.099828	-0.090677
H133	H	0.612586	0.100015	-0.097184
H134	H	0.958504	-0.442184	0.041014
H135	H	0.738103	-0.850215	-0.179280
C136	C	0.761419	-0.689201	-0.235601
C137	C	0.724520	-0.725771	-0.192856
H138	H	0.729099	-0.667633	-0.267907
H139	H	0.790401	-0.714015	-0.260631
H140	H	0.789772	-0.661145	-0.207250
H141	H	0.696171	-0.753830	-0.221207
H142	H	0.695525	-0.700954	-0.167824
C143	C	0.735481	-0.155963	-0.261577
C144	C	0.724512	-0.140585	-0.192922
H145	H	0.703165	-0.134384	-0.293877
H146	H	0.728659	-0.198392	-0.268384
H147	H	0.782055	-0.145533	-0.269035
H148	H	0.677939	-0.151019	-0.185463
H149	H	0.731328	-0.098146	-0.186112
C150	C	-0.023812	0.119138	-0.147896
C151	C	0.026096	0.115758	-0.088508
H152	H	-0.048502	0.156525	-0.147519
H153	H	-0.055927	0.086340	-0.147429
H154	H	-0.000849	0.116852	-0.189018
H155	H	0.003132	0.118040	-0.047386
H156	H	0.058216	0.148565	-0.088968
H157	H	0.690464	-0.557639	-0.226907
C158	C	0.966261	-0.181873	0.048700
C159	C	0.924466	-0.140532	0.006921
H160	H	0.998577	-0.160285	0.081006
H161	H	0.991282	-0.206680	0.019700
H162	H	0.937268	-0.206683	0.073739
H163	H	0.953459	-0.115724	-0.018122
H164	H	0.899444	-0.115714	0.035925
H165	H	0.480407	-0.099850	-0.095300
H166	H	0.910893	-0.264982	-0.006620
H167	H	0.958498	-0.557567	0.041030
C168	C	0.950093	0.000083	0.053086
C169	C	0.962471	0.000086	0.126493
H170	H	0.993641	0.000083	0.034165
H171	H	0.924131	0.035316	0.037658
H172	H	0.924121	-0.035161	0.037652
H173	H	0.988438	0.035332	0.141928
H174	H	0.988444	-0.035151	0.141928
H175	H	0.713289	0.000079	0.103513
C176	C	0.887703	-0.689011	0.049636
C177	C	0.924527	-0.725641	0.006889
H178	H	0.920068	-0.667372	0.081840
H179	H	0.858789	-0.713794	0.074784
H180	H	0.859287	-0.661019	0.021274
H181	H	0.952939	-0.753637	0.035251
H182	H	0.953453	-0.700857	-0.018260
