data_functionalizedCrystal
_audit_creation_method	'MofGen! by Chris Wilmer'
_symmetry_space_group_name_H-M	'P1'
_symmetry_Int_Tables_number	1
_symmetry_cell_setting	triclinic
loop_
_symmetry_equiv_pos_as_xyz
  x,y,z
_cell_length_a	25.639239
_cell_length_b	25.639242
_cell_length_c	12.759393
_cell_angle_alpha	90.032150
_cell_angle_beta	89.964658
_cell_angle_gamma	89.966656
loop_
_atom_site_label
_atom_site_type_symbol
_atom_site_fract_x
_atom_site_fract_y
_atom_site_fract_z
Zn1	Zn	-0.208203	-0.799271	-0.594308
Zn2	Zn	-0.295647	-0.799181	-0.418611
Zn3	Zn	-0.208220	-0.711834	-0.418607
Zn4	Zn	-0.295601	-0.711792	-0.594212
O5	O	-0.251918	-0.755519	-0.506434
O6	O	-0.219815	-0.872424	-0.571043
O7	O	-0.284076	-0.787574	-0.271589
O8	O	-0.135052	-0.723487	-0.441952
O9	O	-0.284060	-0.872358	-0.441959
O10	O	-0.135040	-0.787727	-0.571039
O11	O	-0.219843	-0.723400	-0.271586
O12	O	-0.219799	-0.638663	-0.441860
O13	O	-0.283982	-0.723417	-0.741246
O14	O	-0.283998	-0.638633	-0.570876
O15	O	-0.219771	-0.787687	-0.741316
O16	O	-0.368806	-0.787534	-0.441867
O17	O	-0.368773	-0.723330	-0.570880
C18	C	-0.251895	-0.619677	-0.506358
C19	C	-0.251898	-0.561563	-0.506350
C20	C	-0.218432	-0.310376	-0.439345
C21	C	-0.218427	-0.364981	-0.439335
O22	O	-0.189943	-0.393223	-0.382320
N23	N	-0.251904	-0.392289	-0.506393
C24	C	-0.285384	-0.364990	-0.573473
O25	O	-0.313857	-0.393232	-0.630510
C26	C	-0.285385	-0.310387	-0.573487
C27	C	-0.251910	-0.283081	-0.506418
C28	C	-0.184959	-0.283071	-0.372282
C29	C	-0.184964	-0.228470	-0.372291
C30	C	-0.218443	-0.201175	-0.439363
C31	C	-0.251915	-0.228481	-0.506427
C32	C	-0.318862	-0.283089	-0.640572
C33	C	-0.318860	-0.228482	-0.640581
C34	C	-0.285385	-0.201176	-0.573511
C35	C	-0.285399	-0.146585	-0.573508
N36	N	-0.251922	-0.119277	-0.506450
C37	C	-0.218444	-0.146572	-0.439378
C38	C	-0.285377	-0.479661	-0.573438
C39	C	-0.285379	-0.534263	-0.573419
C40	C	-0.218421	-0.534250	-0.439283
C41	C	-0.218423	-0.479647	-0.439297
C42	C	-0.251900	-0.452352	-0.506380
C43	C	-0.218458	-0.031907	-0.439401
C44	C	-0.218468	0.022698	-0.439413
C45	C	-0.285423	0.022681	-0.573553
C46	C	-0.285416	-0.031920	-0.573538
C47	C	-0.251929	-0.059212	-0.506458
O48	O	-0.313867	-0.118308	-0.630497
O49	O	-0.189970	-0.118324	-0.382359
C50	C	-0.387760	-0.755431	-0.506386
C51	C	-0.445874	-0.755442	-0.506401
C52	C	-0.806243	-0.789038	-0.439372
C53	C	-0.860847	-0.789058	-0.439386
O54	O	-0.889088	-0.817531	-0.382342
N55	N	-0.888157	-0.755611	-0.506504
C56	C	-0.860860	-0.722146	-0.573620
O57	O	-0.889103	-0.693699	-0.630712
C58	C	-0.806256	-0.722129	-0.573611
C59	C	-0.778949	-0.755574	-0.506481
C60	C	-0.778935	-0.822480	-0.372248
C61	C	-0.724335	-0.822459	-0.372232
C62	C	-0.697041	-0.788995	-0.439341
C63	C	-0.724349	-0.755553	-0.506465
C64	C	-0.778960	-0.688666	-0.640732
C65	C	-0.724353	-0.688652	-0.640717
C66	C	-0.697046	-0.722097	-0.573587
C67	C	-0.642455	-0.722068	-0.573559
N68	N	-0.615145	-0.755514	-0.506441
C69	C	-0.642438	-0.788978	-0.439332
C70	C	-0.975530	-0.722185	-0.573637
C71	C	-1.030133	-0.722200	-0.573642
C72	C	-1.030116	-0.789112	-0.439408
C73	C	-0.975513	-0.789095	-0.439398
C74	C	-0.948220	-0.755632	-0.506518
C75	C	-0.527773	-0.788931	-0.439304
C76	C	-0.473168	-0.788906	-0.439292
C77	C	-0.473189	-0.721995	-0.573529
C78	C	-0.527790	-0.722018	-0.573538
C79	C	-0.555080	-0.755491	-0.506422
O80	O	-0.614179	-0.693611	-0.630576
O81	O	-0.614188	-0.817425	-0.382260
C82	C	-0.115545	-0.755622	-0.506506
C83	C	-0.057431	-0.755666	-0.506536
C84	C	-0.251869	-0.755557	-0.780468
C85	C	-0.251848	-0.755574	-0.897245
C86	C	-0.251940	0.108108	-0.506497
C87	C	-0.251947	0.049994	-0.506485
C88	C	-0.285256	-0.789003	-1.061844
C89	C	-0.285280	-0.788990	-0.952120
C90	C	-0.218393	-0.722164	-0.952100
C91	C	-0.218372	-0.722175	-1.061822
C92	C	-0.346975	-0.807609	-0.802156
C93	C	-0.380424	-0.841023	-0.747305
C94	C	-0.388454	-0.892037	-0.782950
C95	C	-0.363027	-0.909647	-0.873444
C96	C	-0.329574	-0.876236	-0.928290
C97	C	-0.321554	-0.825215	-0.892646
C98	C	-0.156676	-0.703561	-1.211788
C99	C	-0.123220	-0.670152	-1.266635
C100	C	-0.115185	-0.619137	-1.230992
C101	C	-0.140603	-0.601529	-1.140494
C102	C	-0.174059	-0.634938	-1.085647
C103	C	-0.182095	-0.685952	-1.121297
C104	C	-0.251929	-0.755512	-0.233467
C105	C	-0.251802	-0.755597	-0.116691
H106	H	-0.346121	-0.206262	-0.695213
Cl107	Cl	-0.073120	-0.577140	-1.299938
Cl108	Cl	-0.327284	-0.831017	-1.130818
Cl109	Cl	-0.941226	-0.680109	-0.658016
H110	H	-0.702104	-0.849695	-0.317572
H111	H	-0.312678	-0.054153	-0.628143
H112	H	-0.801152	-0.849734	-0.317599
Cl113	Cl	-1.064438	-0.831181	-0.355040
H114	H	-0.953282	-0.816329	-0.384736
Cl115	Cl	-0.438868	-0.679931	-0.657896
H116	H	-0.450936	-0.816140	-0.384623
Cl117	Cl	-0.327515	0.057005	-0.657855
Cl118	Cl	-0.690046	-0.646582	-0.725103
H119	H	-0.194756	-0.620597	-1.011959
H120	H	-0.550025	-0.694786	-0.628204
H121	H	-0.163212	-0.745103	-1.240811
H122	H	-1.052362	-0.694960	-0.628296
Cl123	Cl	-0.176333	-0.568574	-0.354963
Cl124	Cl	-0.813276	-0.646624	-0.725142
Cl125	Cl	-0.176337	-0.445326	-0.354980
Cl126	Cl	-0.430501	-0.934043	-0.713988
Cl127	Cl	-0.297610	-0.898369	-1.042046
Cl128	Cl	-0.373117	-0.973785	-0.918242
Cl129	Cl	-0.091259	-0.692291	-1.380396
Cl130	Cl	-0.412388	-0.818885	-0.633545
Cl131	Cl	-0.142865	-0.317375	-0.287952
H132	H	-0.340446	-0.766068	-0.773132
Cl133	Cl	-0.327472	-0.445353	-0.657771
Cl134	Cl	-0.176382	0.057022	-0.355090
Cl135	Cl	-0.176361	-0.066209	-0.355069
H136	H	-0.191175	-0.694954	-0.907412
Cl137	Cl	-0.130500	-0.537396	-1.095676
Cl138	Cl	-0.142873	-0.194152	-0.287982
H139	H	-0.346121	-0.305311	-0.695187
H140	H	-0.312643	-0.556490	-0.628023
H141	H	-0.549987	-0.816189	-0.384654
