data_functionalizedCrystal
_audit_creation_method	'MofGen! by Chris Wilmer'
_symmetry_space_group_name_H-M	'P1'
_symmetry_Int_Tables_number	1
_symmetry_cell_setting	triclinic
loop_
_symmetry_equiv_pos_as_xyz
  x,y,z
_cell_length_a	12.594517
_cell_length_b	16.959454
_cell_length_c	16.959447
_cell_angle_alpha	90.026818
_cell_angle_beta	89.980732
_cell_angle_gamma	89.980493
loop_
_atom_site_label
_atom_site_type_symbol
_atom_site_fract_x
_atom_site_fract_y
_atom_site_fract_z
Zn1	Zn	1.627206	0.314677	-0.446977
Zn2	Zn	1.627094	0.446870	-0.314807
Zn3	Zn	1.449219	0.314708	-0.314810
Zn4	Zn	1.449180	0.446816	-0.446940
O5	O	1.538175	0.380768	-0.380884
O6	O	1.776137	0.332222	-0.429459
O7	O	1.603468	0.429374	-0.204197
O8	O	1.472893	0.204093	-0.332358
O9	O	1.776054	0.429344	-0.332354
O10	O	1.603660	0.204070	-0.429462
O11	O	1.472784	0.332275	-0.204198
O12	O	1.300268	0.332223	-0.332322
O13	O	1.472826	0.429253	-0.557556
O14	O	1.300239	0.429282	-0.429398
O15	O	1.603621	0.332171	-0.557583
O16	O	1.603430	0.557474	-0.332318
O17	O	1.472717	0.557434	-0.429396
C18	C	1.261634	0.380751	-0.380857
C19	C	1.143328	0.380762	-0.380865
C20	C	1.003297	0.327914	-0.328186
C21	C	1.074152	0.308656	-0.400314
C22	C	1.074045	0.399984	-0.308744
C23	C	1.003398	0.361499	-0.453089
C24	C	1.003285	0.452860	-0.361471
C25	C	1.074108	0.433630	-0.433648
C26	C	1.538086	0.586134	-0.380870
C27	C	1.538145	0.673991	-0.380891
C28	C	1.538232	0.380702	-0.587052
C29	C	1.538256	0.380674	-0.674909
C30	C	1.815796	0.380786	-0.380911
C31	C	1.934101	0.380793	-0.380922
C32	C	1.538293	0.174600	-0.380914
C33	C	1.538344	0.086743	-0.380928
C34	C	1.470212	1.045476	-0.431427
C35	C	1.606435	1.045457	-0.330421
C36	C	1.606397	0.962911	-0.330414
C37	C	1.538265	0.921644	-0.380913
C38	C	1.470170	0.962922	-0.431419
C39	C	1.674484	0.921626	-0.279903
C40	C	1.674448	0.839075	-0.279893
C41	C	1.606321	0.797806	-0.330397
C42	C	1.538224	0.839090	-0.380906
C43	C	1.470091	0.797823	-0.431405
C44	C	1.401999	0.839105	-0.481918
C45	C	1.402042	0.921653	-0.481923
C46	C	1.606277	0.715258	-0.330392
C47	C	1.470050	0.715269	-0.431397
C48	C	1.470309	0.330036	-1.046392
C49	C	1.606391	0.431146	-1.046377
C50	C	1.606372	0.431164	-0.963831
C51	C	1.538320	0.380619	-0.922562
C52	C	1.470286	0.330055	-0.963838
C53	C	1.674397	0.481733	-0.922549
C54	C	1.674381	0.481754	-0.839998
C55	C	1.606333	0.431204	-0.798727
C56	C	1.538297	0.380637	-0.840008
C57	C	1.470245	0.330091	-0.798738
C58	C	1.402214	0.279520	-0.840018
C59	C	1.402238	0.279504	-0.922567
C60	C	1.606308	0.431220	-0.716178
C61	C	1.470222	0.330110	-0.716185
C62	C	1.538179	0.380776	-0.175517
C63	C	1.538361	0.380582	-0.087661
H64	H	1.414572	0.681674	-0.472523
H65	H	1.729775	0.522933	-0.806395
H66	H	1.105002	0.478336	-0.478273
H67	H	0.972208	0.283175	-0.283668
H68	H	1.729945	0.955232	-0.238784
H69	H	1.346604	0.955273	-0.523047
N70	N	1.675819	0.673102	-0.278788
N71	N	1.736637	0.709957	-0.233698
H72	H	1.785756	0.680185	-0.197249
N73	N	1.113228	0.232195	-0.420938
N74	N	1.170050	0.223646	-0.480779
H75	H	1.197646	0.169644	-0.495342
N76	N	0.964622	0.341044	-0.529655
N77	N	0.866892	0.337735	-0.542031
H78	H	0.839503	0.323290	-0.596105
H79	H	1.729893	0.805468	-0.238763
N80	N	1.332407	0.796960	-0.533511
N81	N	1.271620	0.833820	-0.578611
H82	H	1.222471	0.804054	-0.615049
N83	N	1.112991	0.420348	-0.232201
N84	N	1.090281	0.378327	-0.174064
H85	H	1.117790	0.392699	-0.120004
H86	H	0.972134	0.513802	-0.345017
N87	N	1.400674	1.087651	-0.483023
N88	N	1.400722	1.161355	-0.483031
H89	H	1.351612	1.191143	-0.519473
H90	H	1.414810	0.288945	-0.682589
N91	N	1.676034	1.087602	-0.278843
N92	N	1.774241	1.078333	-0.284149
H93	H	1.823398	1.108099	-0.247718
N94	N	1.332699	0.227902	-0.797846
N95	N	1.332688	0.227938	-0.724143
H96	H	1.283593	0.191485	-0.694355
H97	H	1.346850	0.238333	-0.956184
N98	N	1.400833	0.278381	-1.088564
N99	N	1.400864	0.278363	-1.162268
H100	H	1.351797	0.241881	-1.192055
H101	H	1.661788	0.472304	-1.079984
N102	N	1.743889	0.533364	-0.964715
N103	N	1.743897	0.533336	-1.038419
H104	H	1.792978	0.569802	-1.068204
H105	H	1.661706	0.472389	-0.682572
