data_functionalizedCrystal
_audit_creation_method	'MofGen! by Chris Wilmer'
_symmetry_space_group_name_H-M	'P1'
_symmetry_Int_Tables_number	1
_symmetry_cell_setting	triclinic
loop_
_symmetry_equiv_pos_as_xyz
  x,y,z
_cell_length_a	17.639054
_cell_length_b	13.897448
_cell_length_c	17.640968
_cell_angle_alpha	78.768361
_cell_angle_beta	70.330395
_cell_angle_gamma	101.206058
loop_
_atom_site_label
_atom_site_type_symbol
_atom_site_fract_x
_atom_site_fract_y
_atom_site_fract_z
Zn1	Zn	1.354482	0.127717	-0.721365
Zn2	Zn	1.326524	-0.074496	-0.583519
Zn3	Zn	1.188764	0.045956	-0.555621
Zn4	Zn	1.216605	-0.074413	-0.693392
O5	O	1.271594	0.006191	-0.638474
O6	O	1.466128	0.135076	-0.726461
O7	O	1.284897	-0.092770	-0.464471
O8	O	1.210796	0.191803	-0.577639
O9	O	1.445588	-0.013489	-0.625187
O10	O	1.332548	0.251873	-0.699410
O11	O	1.183686	-0.004275	-0.443975
O12	O	1.077102	-0.004194	-0.550514
O13	O	1.258247	-0.013347	-0.812449
O14	O	1.097556	-0.092628	-0.651734
O15	O	1.359544	0.135157	-0.833001
O16	O	1.311894	-0.209486	-0.598062
O17	O	1.231137	-0.209425	-0.678785
C18	C	1.057419	-0.057275	-0.595062
C19	C	0.965798	-0.084443	-0.576509
C20	C	0.825952	-0.200007	-0.497556
C21	C	0.912045	-0.174469	-0.514995
C22	C	0.933474	-0.019921	-0.620613
C23	C	0.847381	-0.045449	-0.603186
C24	C	0.793626	-0.135493	-0.541656
C25	C	0.815056	0.019066	-0.647286
C26	C	0.728971	-0.006457	-0.629857
C27	C	0.675210	-0.096495	-0.568328
C28	C	0.707541	-0.161016	-0.524227
C29	C	0.868812	0.109113	-0.708811
C30	C	0.836487	0.173628	-0.752911
C31	C	0.750400	0.148101	-0.735486
C32	C	0.696640	0.058063	-0.673958
C33	C	0.718070	0.212622	-0.779587
C34	C	0.631984	0.187099	-0.762158
C35	C	0.610555	0.032540	-0.656529
C36	C	1.271529	-0.244448	-0.638438
C37	C	1.271582	-0.351642	-0.638465
C38	C	1.271679	-0.547896	-0.638535
C39	C	1.271623	-0.438686	-0.638498
C40	C	1.486605	0.069904	-0.682056
C41	C	1.578230	0.097055	-0.700628
C42	C	1.315120	0.070034	-0.853469
C43	C	1.333668	0.097240	-0.945087
C44	C	1.271685	0.257821	-0.638533
C45	C	1.271724	0.365051	-0.638558
C46	C	1.131001	-0.199872	-1.192913
C47	C	1.148447	-0.174290	-1.279006
C48	C	1.253919	-0.019666	-1.300394
C49	C	1.236479	-0.045232	-1.214301
C50	C	1.175020	-0.135337	-1.160567
C51	C	1.280498	0.019302	-1.181955
C52	C	1.263062	-0.006265	-1.095870
C53	C	1.201607	-0.096367	-1.042131
C54	C	1.157583	-0.160904	-1.074482
C55	C	1.341961	0.109403	-1.235691
C56	C	1.385980	0.173938	-1.203345
C57	C	1.368540	0.148375	-1.117258
C58	C	1.307085	0.058273	-1.063519
C59	C	1.412564	0.212912	-1.084907
C60	C	1.395128	0.187345	-0.998821
C61	C	1.289649	0.032705	-0.977434
C62	C	1.228284	-0.057320	-0.424325
C63	C	1.209896	-0.084207	-0.332739
H64	H	0.605112	-0.117264	-0.554126
H65	H	0.938359	-0.227012	-0.479079
C66	C	1.063391	-0.298991	-1.133800
N67	N	1.012472	-0.373647	-1.089277
H68	H	1.239583	-0.040649	-0.933676
C69	C	0.777210	0.311672	-0.847262
N70	N	0.821754	0.386279	-0.898235
H71	H	1.107517	-0.234259	-1.030724
H72	H	0.782182	-0.273336	-0.447459
H73	H	1.303962	0.053695	-1.344156
C74	C	0.648406	-0.260074	-0.456546
N75	N	0.603867	-0.334681	-0.405571
C76	C	1.100015	-0.245289	-1.314582
N77	N	1.063538	-0.298765	-1.341377
H78	H	0.605665	0.239636	-0.798066
C79	C	0.963509	0.137185	-0.727984
N80	N	1.034835	0.158327	-0.742425
C81	C	0.895626	0.272674	-0.820591
N82	N	0.940169	0.347276	-0.871571
C83	C	1.182426	-0.124490	-0.947434
N84	N	1.167978	-0.145672	-0.876107
C85	C	1.361139	0.137526	-1.330387
N86	N	1.375581	0.158709	-1.401712
C87	C	1.453577	0.273056	-1.262460
N88	N	1.504487	0.347718	-1.306984
H89	H	1.462610	0.286270	-1.128670
C90	C	1.443549	0.258338	-0.963238
N91	N	1.480023	0.311810	-0.936437
H92	H	0.977252	0.053394	-0.670708
C93	C	0.551420	-0.066518	-0.588848
N94	N	0.506880	-0.141125	-0.537872
