data_functionalizedCrystal
_audit_creation_method	'MofGen! by Chris Wilmer'
_symmetry_space_group_name_H-M	'P1'
_symmetry_Int_Tables_number	1
_symmetry_cell_setting	triclinic
loop_
_symmetry_equiv_pos_as_xyz
  x,y,z
_cell_length_a	17.038272
_cell_length_b	14.853559
_cell_length_c	13.930277
_cell_angle_alpha	89.993167
_cell_angle_beta	89.998460
_cell_angle_gamma	92.628495
loop_
_atom_site_label
_atom_site_type_symbol
_atom_site_fract_x
_atom_site_fract_y
_atom_site_fract_z
O1	O	1.037622	-0.195777	-0.079703
O2	O	0.809988	-0.192668	-0.079731
O3	O	0.929889	-0.063450	-0.079716
O4	O	0.917721	-0.324995	-0.079719
O5	O	0.929871	-0.063470	0.079946
O6	O	0.809970	-0.192688	0.079930
O7	O	1.037605	-0.195797	0.079959
Zn8	Zn	0.923785	-0.194245	0.105294
Zn9	Zn	0.923808	-0.194219	-0.105067
O10	O	0.917703	-0.325015	0.079943
C11	C	0.780847	-0.189850	0.000096
C12	C	0.694043	-0.181414	0.000085
N13	N	0.923774	-0.194263	0.248860
C14	C	0.929330	-0.029829	0.000114
C15	C	0.927681	0.070379	0.000108
C16	C	0.644029	-0.258867	0.000085
C17	C	0.562468	-0.250935	0.000098
C18	C	0.530923	-0.165549	0.000105
C19	C	0.580944	-0.088090	0.000108
C20	C	0.662503	-0.096023	0.000101
C21	C	0.285129	-0.137524	0.000131
C22	C	0.203564	-0.129597	0.000134
C23	C	0.185093	-0.292443	0.000126
C24	C	0.266655	-0.300368	0.000114
C25	C	0.316668	-0.222909	0.000122
C26	C	0.447555	-0.157439	0.000115
C27	C	0.400035	-0.231020	0.000118
C28	C	1.066745	-0.198614	0.000129
C29	C	1.153549	-0.207050	0.000134
C30	C	0.918262	-0.358635	0.000112
C31	C	0.919911	-0.458843	0.000111
C32	C	0.920697	0.494091	-0.086925
C33	C	0.920678	0.494064	0.087145
C34	C	0.922233	0.399914	0.087146
C35	C	0.923020	0.352847	0.000110
C36	C	0.922250	0.399932	-0.086926
C37	C	0.922995	0.352822	0.174181
C38	C	0.924549	0.258666	0.174185
C39	C	0.925341	0.211598	0.087149
C40	C	0.924573	0.258688	0.000109
C41	C	0.925359	0.211622	-0.086927
C42	C	0.924596	0.258711	-0.173968
C43	C	0.923042	0.352864	-0.173963
C44	C	0.926895	0.117445	0.087144
C45	C	0.926912	0.117463	-0.086929
N46	N	0.923824	-0.194195	-0.248633
C47	C	0.971297	-0.252556	0.701125
C48	C	0.876343	-0.135847	0.701104
C49	C	0.876331	-0.135861	0.600608
C50	C	0.923804	-0.194222	0.550366
C51	C	0.971288	-0.252570	0.600620
C52	C	0.828854	-0.077508	0.550347
C53	C	0.828840	-0.077519	0.449845
C54	C	0.876309	-0.135885	0.399601
C55	C	0.923795	-0.194236	0.449861
C56	C	0.971268	-0.252597	0.399619
C57	C	1.018750	-0.310953	0.449878
C58	C	1.018757	-0.310936	0.550376
C59	C	0.876302	-0.135902	0.299102
C60	C	0.971259	-0.252610	0.299114
H61	H	0.669705	-0.328398	0.000078
C62	C	0.923155	0.343429	-0.346030
C63	C	0.922153	0.404621	-0.269633
H64	H	0.922596	0.375385	-0.405090
H65	H	0.878218	0.303303	-0.342382
H66	H	0.969340	0.310109	-0.342436
H67	H	0.875965	0.437936	-0.273222
H68	H	0.967094	0.444762	-0.273283
C69	C	0.552403	-0.412695	0.000076
C70	C	0.507492	-0.336075	0.000093
H71	H	0.518461	-0.465258	0.000068
H72	H	0.584599	-0.412413	0.055746
H73	H	0.584598	-0.412384	-0.055610
H74	H	0.475301	-0.336383	0.055783
H75	H	0.475282	-0.336358	-0.055583
C76	C	0.786646	-0.025726	0.704392
C77	C	0.776672	-0.013359	0.605566
H78	H	0.754424	0.013876	0.738481
H79	H	0.840117	-0.013144	0.720892
H80	H	0.772149	-0.086295	0.720826
H81	H	0.791175	0.047209	0.589130
H82	H	0.723190	-0.025934	0.589059
H83	H	0.421863	-0.087917	0.000148
C84	C	0.764938	-0.010481	0.082175
C85	C	0.717481	-0.010882	0.000100
H86	H	0.798874	0.042086	0.082178
H87	H	0.795394	-0.062462	0.082164
H88	H	0.732728	-0.010781	0.137847
H89	H	0.749691	-0.010590	-0.055573
H90	H	0.687022	0.041112	0.000102
H91	H	0.144364	-0.355506	0.000121
C92	C	0.771133	-0.122140	0.186091
C93	C	0.824119	-0.071763	0.243854
H94	H	0.738919	-0.082540	0.151980
H95	H	0.739138	-0.161135	0.225315
H96	H	0.799410	-0.156901	0.141791
H97	H	0.795842	-0.037007	0.288159
H98	H	0.856117	-0.032753	0.204627
C99	C	0.230010	0.030581	0.000152
C100	C	0.168889	-0.035733	0.000144
H101	H	0.208600	0.088524	0.000161
H102	H	0.261438	0.024113	-0.055521
H103	H	0.261435	0.024088	0.055834
H104	H	0.137466	-0.029244	-0.055542
H105	H	0.137447	-0.029262	0.055823
H106	H	0.790177	-0.030002	0.408933
C107	C	0.918327	0.638427	-0.164224
C108	C	0.919855	0.545845	-0.182598
H109	H	0.917802	0.670376	-0.223291
H110	H	0.963628	0.657230	-0.128466
H111	H	0.872505	0.650465	-0.128468
H112	H	0.965680	0.533807	-0.218348
H113	H	0.874550	0.527036	-0.218371
H114	H	0.927499	0.079108	0.158011
H115	H	0.325841	-0.074451	0.000138
H116	H	1.009913	-0.300140	0.258214
H117	H	0.920033	0.532390	0.158005
C118	C	0.499945	0.015314	-0.081963
C119	C	0.546273	0.005769	0.000113
H120	H	0.478547	0.073263	-0.081963
H121	H	0.458489	-0.029673	-0.081955
H122	H	0.531388	0.008841	-0.137635
H123	H	0.514829	0.012236	0.055785
H124	H	0.587735	0.050770	0.000114
C125	C	0.240201	-0.460539	0.000123
C126	C	0.301326	-0.394228	0.000116
H127	H	0.261608	-0.518483	0.000128
H128	H	0.208776	-0.454053	-0.055549
H129	H	0.208774	-0.454058	0.055806
H130	H	0.332750	-0.400705	-0.055572
H131	H	0.332765	-0.400716	0.055794
C132	C	0.920653	0.497145	0.251463
C133	C	0.922158	0.404559	0.269845
H134	H	0.920151	0.529088	0.310526
H135	H	0.874837	0.509205	0.215723
H136	H	0.965961	0.515936	0.215686
H137	H	0.876847	0.385767	0.305617
H138	H	0.967979	0.392493	0.305601
H139	H	0.425722	-0.300541	0.000118
H140	H	0.927556	0.079148	-0.157805
C141	C	0.924388	0.268108	0.346250
C142	C	0.925402	0.206911	0.269858
H143	H	0.924923	0.236154	0.405313
H144	H	0.878220	0.301440	0.342631
H145	H	0.969342	0.308223	0.342621
H146	H	0.880445	0.166800	0.273483
H147	H	0.971575	0.173564	0.273479
C148	C	1.102314	-0.298097	0.732051
C149	C	1.023490	-0.316697	0.756361
H150	H	1.134535	-0.337700	0.766148
H151	H	1.116774	-0.237537	0.748512
H152	H	1.109092	-0.306455	0.665004
H153	H	1.016711	-0.308333	0.823407
H154	H	1.009026	-0.377272	0.739907
C155	C	1.060892	-0.362784	0.295822
C156	C	1.070929	-0.375104	0.394644
H157	H	1.093101	-0.402392	0.261723
H158	H	1.075360	-0.302226	0.279347
H159	H	1.007407	-0.375395	0.279374
H160	H	1.124413	-0.362486	0.411093
H161	H	1.056466	-0.435676	0.411126
H162	H	1.057416	-0.358444	0.591306
H163	H	0.925231	0.220377	-0.244832
H164	H	0.837698	-0.088326	0.742017
