data_functionalizedCrystal
_audit_creation_method	'MofGen! by Chris Wilmer'
_symmetry_space_group_name_H-M	'P1'
_symmetry_Int_Tables_number	1
_symmetry_cell_setting	triclinic
loop_
_symmetry_equiv_pos_as_xyz
  x,y,z
_cell_length_a	16.625546
_cell_length_b	13.897449
_cell_length_c	13.897441
_cell_angle_alpha	89.973931
_cell_angle_beta	90.033447
_cell_angle_gamma	89.977604
loop_
_atom_site_label
_atom_site_type_symbol
_atom_site_fract_x
_atom_site_fract_y
_atom_site_fract_z
Zn1	Zn	-0.320977	-1.474671	0.545499
Zn2	Zn	-0.070977	-1.224671	0.795499
Zn3	Zn	0.179023	-0.974671	1.045499
Zn4	Zn	0.429023	-0.724671	1.295499
Zn5	Zn	-0.455828	-1.474551	0.384193
Zn6	Zn	-0.205828	-1.224551	0.634193
Zn7	Zn	0.044172	-0.974551	0.884193
Zn8	Zn	0.294172	-0.724551	1.134193
Zn9	Zn	-0.321013	-1.313360	0.384203
Zn10	Zn	-0.071013	-1.063360	0.634203
Zn11	Zn	0.178987	-0.813360	0.884203
Zn12	Zn	0.428987	-0.563360	1.134203
Zn13	Zn	-0.455772	-1.313328	0.545430
Zn14	Zn	-0.205772	-1.063328	0.795430
Zn15	Zn	0.044228	-0.813328	1.045430
Zn16	Zn	0.294228	-0.563328	1.295430
O17	O	-0.388397	-1.393977	0.464831
O18	O	-0.138397	-1.143977	0.714831
O19	O	0.111603	-0.893977	0.964831
O20	O	0.361603	-0.643977	1.214831
O21	O	-0.338874	-1.609636	0.524126
O22	O	-0.088874	-1.359636	0.774126
O23	O	0.161126	-1.109636	1.024126
O24	O	0.411126	-0.859636	1.274126
O25	O	-0.437982	-1.453132	0.249212
O26	O	-0.187982	-1.203132	0.499212
O27	O	0.062018	-0.953132	0.749212
O28	O	0.312018	-0.703132	0.999212
O29	O	-0.208176	-1.334821	0.405632
O30	O	0.041824	-1.084821	0.655632
O31	O	0.291824	-0.834821	0.905632
O32	O	0.541824	-0.584821	1.155632
O33	O	-0.437948	-1.609549	0.405615
O34	O	-0.187948	-1.359549	0.655615
O35	O	0.062052	-1.109549	0.905615
O36	O	0.312052	-0.859549	1.155615
O37	O	-0.208150	-1.453336	0.524136
O38	O	0.041850	-1.203336	0.774136
O39	O	0.291850	-0.953336	1.024136
O40	O	0.541850	-0.703336	1.274136
O41	O	-0.338934	-1.334705	0.249220
O42	O	-0.088934	-1.084705	0.499220
O43	O	0.161066	-0.834705	0.749220
O44	O	0.411066	-0.584705	0.999220
O45	O	-0.338880	-1.178374	0.405565
O46	O	-0.088880	-0.928374	0.655565
O47	O	0.161120	-0.678374	0.905565
O48	O	0.411120	-0.428374	1.155565
O49	O	-0.437853	-1.334767	0.680421
O50	O	-0.187853	-1.084767	0.930421
O51	O	0.062147	-0.834767	1.180421
O52	O	0.312147	-0.584767	1.430421
O53	O	-0.437887	-1.178351	0.524018
O54	O	-0.187887	-0.928351	0.774018
O55	O	0.062113	-0.678351	1.024018
O56	O	0.312113	-0.428351	1.274018
O57	O	-0.338820	-1.453305	0.680472
O58	O	-0.088820	-1.203305	0.930472
O59	O	0.161180	-0.953305	1.180472
O60	O	0.411180	-0.703305	1.430472
O61	O	-0.568653	-1.453101	0.405548
O62	O	-0.318653	-1.203101	0.655548
O63	O	-0.068653	-0.953101	0.905548
O64	O	0.181347	-0.703101	1.155548
O65	O	-0.568611	-1.334651	0.524009
O66	O	-0.318611	-1.084651	0.774009
O67	O	-0.068611	-0.834651	1.024009
O68	O	0.181389	-0.584651	1.274009
C69	C	-0.388382	-1.143363	0.464786
C70	C	-0.138382	-0.893363	0.714786
C71	C	0.111618	-0.643363	0.964786
C72	C	0.361618	-0.393363	1.214786
C73	C	-0.388394	-1.036149	0.464789
C74	C	-0.138394	-0.786149	0.714789
C75	C	0.111606	-0.536149	0.964789
C76	C	0.361606	-0.286149	1.214789
C77	C	-0.388396	-0.949079	0.464801
C78	C	-0.138396	-0.699079	0.714801
C79	C	0.111604	-0.449079	0.964801
C80	C	0.361604	-0.199079	1.214801
C81	C	-0.388400	-0.839847	0.464826
C82	C	-0.138400	-0.589847	0.714826
C83	C	0.111600	-0.339847	0.964826
C84	C	0.361600	-0.089847	1.214826
C85	C	-0.597888	-1.393886	0.464791
C86	C	-0.347888	-1.143886	0.714791
C87	C	-0.097888	-0.893886	0.964791
C88	C	0.152112	-0.643886	1.214791
C89	C	-0.687509	-1.393935	0.464806
C90	C	-0.437509	-1.143935	0.714806
C91	C	-0.187509	-0.893935	0.964806
C92	C	0.062491	-0.643935	1.214806
C93	C	-1.015685	-1.394104	0.464906
C94	C	-0.765685	-1.144104	0.714906
C95	C	-0.515685	-0.894104	0.964906
C96	C	-0.265685	-0.644104	1.214906
C97	C	-0.924376	-1.394054	0.464881
C98	C	-0.674376	-1.144054	0.714881
C99	C	-0.424376	-0.894054	0.964881
C100	C	-0.174376	-0.644054	1.214881
C101	C	-0.851600	-1.394019	0.464856
C102	C	-0.601600	-1.144019	0.714856
C103	C	-0.351600	-0.894019	0.964856
C104	C	-0.101600	-0.644019	1.214856
C105	C	-0.760286	-1.393970	0.464831
C106	C	-0.510286	-1.143970	0.714831
C107	C	-0.260286	-0.893970	0.964831
C108	C	-0.010286	-0.643970	1.214831
C109	C	-0.178088	-1.394095	0.464893
C110	C	0.071912	-1.144095	0.714893
C111	C	0.321912	-0.894095	0.964893
C112	C	0.571912	-0.644095	1.214893
C113	C	-0.088467	-1.394146	0.464919
C114	C	0.161533	-1.144146	0.714919
C115	C	0.411533	-0.894146	0.964919
C116	C	0.661533	-0.644146	1.214919
C117	C	-0.388326	-1.394046	0.716424
C118	C	-0.138326	-1.144046	0.966424
C119	C	0.111674	-0.894046	1.216424
C120	C	0.361674	-0.644046	1.466424
C121	C	-0.388296	-1.394075	0.823638
C122	C	-0.138296	-1.144075	1.073638
C123	C	0.111704	-0.894075	1.323638
C124	C	0.361704	-0.644075	1.573638
C125	C	-0.388410	-0.645570	0.464866
C126	C	-0.138410	-0.395570	0.714866
C127	C	0.111590	-0.145570	0.964866
C128	C	0.361590	0.104430	1.214866
C129	C	-0.388408	-0.752784	0.464850
C130	C	-0.138408	-0.502784	0.714850
C131	C	0.111592	-0.252784	0.964850
C132	C	0.361592	-0.002784	1.214850
C133	C	-0.388410	-1.393965	0.214217
C134	C	-0.138410	-1.143965	0.464217
C135	C	0.111590	-0.893965	0.714217
C136	C	0.361590	-0.643965	0.964217
C137	C	-0.388213	-1.394122	0.107004
C138	C	-0.138213	-1.144122	0.357004
C139	C	0.111787	-0.894122	0.607004
C140	C	0.361787	-0.644122	0.857004
C141	C	-0.388241	-1.394101	1.019934
C142	C	-0.138241	-1.144101	1.269934
C143	C	0.111759	-0.894101	1.519934
C144	C	0.361759	-0.644101	1.769934
C145	C	-0.388274	-1.394084	0.910701
C146	C	-0.138274	-1.144084	1.160701
C147	C	0.111726	-0.894084	1.410701
C148	C	0.361726	-0.644084	1.660701
