data_functionalizedCrystal
_audit_creation_method	'MofGen! by Chris Wilmer'
_symmetry_space_group_name_H-M	'P1'
_symmetry_Int_Tables_number	1
_symmetry_cell_setting	triclinic
loop_
_symmetry_equiv_pos_as_xyz
  x,y,z
_cell_length_a	15.995300
_cell_length_b	14.853568
_cell_length_c	13.330367
_cell_angle_alpha	90.002939
_cell_angle_beta	90.006615
_cell_angle_gamma	96.446503
loop_
_atom_site_label
_atom_site_type_symbol
_atom_site_fract_x
_atom_site_fract_y
_atom_site_fract_z
O1	O	1.111148	-0.115986	0.083450
O2	O	1.611148	0.384014	0.583450
O3	O	0.867384	-0.130383	0.083443
O4	O	1.367384	0.369617	0.583443
O5	O	0.995777	0.008055	0.083452
O6	O	1.495777	0.508055	0.583452
O7	O	0.982755	-0.254425	0.083441
O8	O	1.482755	0.245575	0.583441
O9	O	0.995764	0.008051	-0.083396
O10	O	1.495764	0.508051	0.416604
O11	O	0.867370	-0.130388	-0.083405
O12	O	1.367370	0.369612	0.416595
O13	O	1.111135	-0.115990	-0.083397
O14	O	1.611135	0.384010	0.416603
Cu15	Cu	0.989251	-0.123189	-0.098635
Cu16	Cu	1.489251	0.376811	0.401365
Cu17	Cu	0.989267	-0.123184	0.098681
Cu18	Cu	1.489267	0.376816	0.598681
O19	O	0.982742	-0.254429	-0.083406
O20	O	1.482742	0.245571	0.416594
C21	C	0.836181	-0.129798	0.000018
C22	C	1.336181	0.370202	0.500018
C23	C	0.743226	-0.128038	0.000016
C24	C	1.243226	0.371962	0.500016
C25	C	0.573039	-0.124787	0.000024
C26	C	1.073039	0.375213	0.500024
C27	C	0.525688	-0.223358	0.000018
C28	C	1.025688	0.276642	0.500018
C29	C	0.428999	-0.221560	0.000399
C30	C	0.928999	0.278440	0.500399
C31	C	0.405479	-0.121587	0.000030
C32	C	0.905479	0.378413	0.500030
C33	C	0.446562	-0.072680	0.095122
C34	C	0.946562	0.427320	0.595122
C35	C	0.543199	-0.075174	0.095199
C36	C	1.043199	0.424826	0.595199
C37	C	0.543461	-0.073720	-0.094543
C38	C	1.043461	0.426280	0.405457
C39	C	0.446517	-0.073729	-0.095791
C40	C	0.946517	0.426271	0.404209
C41	C	0.310782	-0.119773	0.000037
C42	C	0.810782	0.380227	0.500037
C43	C	0.667737	-0.126597	0.000024
C44	C	1.167737	0.373403	0.500024
C45	C	0.995180	0.041641	0.000031
C46	C	1.495180	0.541641	0.500031
C47	C	0.993412	0.141722	0.000042
C48	C	1.493412	0.641722	0.500042
C49	C	1.142338	-0.116575	0.000029
C50	C	1.642338	0.383425	0.500029
C51	C	1.235292	-0.118336	0.000038
C52	C	1.735292	0.381664	0.500038
N53	N	0.989246	-0.123192	-0.237417
N54	N	1.489246	0.376808	0.262583
C55	C	0.909668	0.554126	0.000026
C56	C	1.409668	1.054126	0.500026
C57	C	1.062202	0.575642	0.000031
C58	C	1.562202	1.075642	0.500031
C59	C	1.063865	0.481611	0.000036
C60	C	1.563865	0.981611	0.500036
C61	C	0.988428	0.423833	0.000034
C62	C	1.488428	0.923833	0.500034
C63	C	0.911328	0.460086	0.000028
C64	C	1.411328	0.960086	0.500028
C65	C	1.140963	0.445351	0.000032
C66	C	1.640963	0.945351	0.500032
C67	C	1.142629	0.351315	0.000035
C68	C	1.642629	0.851315	0.500035
C69	C	1.067191	0.293535	0.000041
C70	C	1.567191	0.793535	0.500041
C71	C	0.990088	0.329793	0.000036
C72	C	1.490088	0.829793	0.500036
C73	C	0.914652	0.272015	0.000034
C74	C	1.414652	0.772015	0.500034
C75	C	0.837548	0.308271	0.000036
C76	C	1.337548	0.808271	0.500036
C77	C	0.835890	0.402306	0.000033
C78	C	1.335890	0.902306	0.500033
C79	C	1.068849	0.199500	0.000043
C80	C	1.568849	0.699500	0.500043
C81	C	0.916312	0.177975	0.000035
C82	C	1.416312	0.677975	0.500035
C83	C	0.983338	0.711986	0.000020
C84	C	1.483338	1.211986	0.500020
C85	C	0.985105	0.611904	0.000028
C86	C	1.485105	1.111904	0.500028
C87	C	0.932386	-0.184474	-0.289946
C88	C	1.432386	0.315526	0.210054
C89	C	1.046112	-0.061907	-0.289916
C90	C	1.546112	0.438093	0.210084
C91	C	1.046120	-0.061903	-0.394934
C92	C	1.546120	0.438097	0.105066
C93	C	0.989260	-0.123185	-0.447463
C94	C	1.489260	0.376815	0.052537
C95	C	0.932391	-0.184470	-0.394974
C96	C	1.432391	0.315530	0.105026
C97	C	1.102982	-0.000613	-0.447431
C98	C	1.602982	0.499387	0.052569
C99	C	1.102993	-0.000606	-0.552456
C100	C	1.602993	0.499394	-0.052456
C101	C	1.046136	-0.061893	-0.604987
C102	C	1.546136	0.438107	-0.104987
C103	C	0.989265	-0.123181	-0.552491
C104	C	1.489265	0.376819	-0.052491
C105	C	0.932405	-0.184463	-0.605021
C106	C	1.432405	0.315537	-0.105021
C107	C	0.875538	-0.245757	-0.552527
C108	C	1.375538	0.254243	-0.052527
C109	C	0.875534	-0.245757	-0.447505
C110	C	1.375534	0.254243	0.052495
C111	C	1.046139	-0.061893	-0.710009
C112	C	1.546139	0.438107	-0.210009
C113	C	0.932410	-0.184460	-0.710049
C114	C	1.432410	0.315540	-0.210049
N115	N	0.989279	-0.123174	0.237462
N116	N	1.489279	0.376826	0.737462
H117	H	0.561564	-0.110418	0.166549
H118	H	1.061564	0.389582	0.666549
H119	H	1.149273	0.049286	-0.404658
H120	H	1.649273	0.549286	0.095342
H121	H	0.776127	0.261216	0.000028
H122	H	1.276127	0.761216	0.500028
H123	H	0.773117	0.431835	0.000034
H124	H	1.273117	0.931835	0.500034
H125	H	0.418222	-0.106206	0.166153
H126	H	0.918222	0.393794	0.666153
H127	H	0.886110	-0.234366	-0.752812
H128	H	1.386110	0.265634	-0.252812
H129	H	0.419213	-0.109443	-0.166141
H130	H	0.919213	0.390557	0.333859
H131	H	1.202380	0.492400	0.000024
H132	H	1.702380	0.992400	0.500024
Cl133	Cl	1.239557	0.305744	0.000049
Cl134	Cl	1.739557	0.805744	0.500049
Cl135	Cl	0.812742	0.599703	0.000039
Cl136	Cl	1.312742	1.099703	0.500039
Cl137	Cl	0.804053	-0.322788	-0.618575
Cl138	Cl	1.304053	0.177212	-0.118575
Cl139	Cl	1.165770	0.153923	0.000022
Cl140	Cl	1.665770	0.653923	0.500022
Cl141	Cl	0.804047	-0.322803	-0.381511
Cl142	Cl	1.304047	0.177197	0.118489
Cl143	Cl	0.385109	-0.280900	-0.104814
Cl144	Cl	0.885109	0.219100	0.395186
Cl145	Cl	0.860902	-0.261529	-0.223960
Cl146	Cl	1.360902	0.238471	0.276040
H147	H	1.123619	0.622691	0.000025
H148	H	1.623619	1.122691	0.500025
H149	H	1.092402	-0.012008	-0.247143
H150	H	1.592402	0.487992	0.252857
H151	H	1.149297	0.049301	-0.595190
H152	H	1.649297	0.549301	-0.095190
H153	H	1.092436	-0.011984	-0.752744
H154	H	1.592436	0.488016	-0.252744
H155	H	0.544220	-0.262972	-0.068163
H156	H	1.044220	0.237028	0.431837
H157	H	0.545348	-0.262379	0.068103
H158	H	1.045348	0.237621	0.568103
H159	H	0.575388	-0.002793	0.099265
H160	H	1.075388	0.497207	0.599265
Cl161	Cl	0.424663	0.040734	0.100181
Cl162	Cl	0.924663	0.540734	0.600181
Cl163	Cl	0.386075	-0.280627	0.106254
Cl164	Cl	0.886075	0.219373	0.606254
H165	H	0.563993	-0.106174	-0.166641
H166	H	1.063993	0.393826	0.333359
Cl167	Cl	0.422700	0.038804	-0.105093
Cl168	Cl	0.922700	0.538804	0.394907
Cl169	Cl	0.592413	0.038477	-0.095967
Cl170	Cl	1.092413	0.538477	0.404033
Cl171	Cl	0.821471	0.105346	0.000041
Cl172	Cl	1.321471	0.605346	0.500041
