data_functionalizedCrystal
_audit_creation_method	'MofGen! by Chris Wilmer'
_symmetry_space_group_name_H-M	'P1'
_symmetry_Int_Tables_number	1
_symmetry_cell_setting	triclinic
loop_
_symmetry_equiv_pos_as_xyz
  x,y,z
_cell_length_a	21.606444
_cell_length_b	14.560438
_cell_length_c	14.560438
_cell_angle_alpha	60.000905
_cell_angle_beta	90.000130
_cell_angle_gamma	60.000721
loop_
_atom_site_label
_atom_site_type_symbol
_atom_site_fract_x
_atom_site_fract_y
_atom_site_fract_z
Zr1	Zr	0.596220	1.005315	-0.120539
O2	O	0.497396	1.196912	-0.267179
O3	O	0.626515	0.813715	-0.075589
O4	O	0.626512	1.005319	-0.267189
O5	O	0.497401	1.005305	0.075563
O6	O	0.728362	1.005326	-0.267195
O7	O	0.497399	1.005308	-0.075578
O8	O	0.728367	0.662581	0.075544
O9	O	0.497396	1.348050	-0.267176
O10	O	0.715445	0.892529	-0.056419
O11	O	0.639438	0.892522	0.056380
O12	O	0.639434	1.118111	-0.169205
O13	O	0.563427	1.118104	-0.056407
Zr14	Zr	0.758663	1.005321	0.120504
Zr15	Zr	0.758659	1.005325	-0.120548
Zr16	Zr	0.596225	1.005311	0.120513
Zr17	Zr	0.596221	1.246362	-0.120535
Zr18	Zr	0.758663	0.764274	0.120500
O19	O	0.728368	1.196921	0.075554
O20	O	0.728362	1.196926	-0.267191
O21	O	0.497401	1.196906	0.075566
O22	O	0.857488	0.813724	0.267144
O23	O	0.857482	0.813730	-0.075601
O24	O	0.626521	0.813710	0.267156
O25	O	0.857482	1.005331	-0.075598
O26	O	0.728371	1.005317	0.267154
O27	O	0.626521	1.005310	0.267160
O28	O	0.857485	1.005328	0.075543
O29	O	0.626513	1.348058	-0.267183
O30	O	0.728371	0.662578	0.267148
O31	O	0.857488	0.662586	0.267141
O32	O	0.857484	0.662590	0.075537
O33	O	0.497399	1.348046	-0.075572
O34	O	0.626516	1.348055	-0.075579
O35	O	0.715449	0.892525	0.169170
O36	O	0.791457	0.892532	0.056372
O37	O	0.715446	1.118114	-0.056415
O38	O	0.639438	1.118107	0.056384
C39	C	0.677441	0.703804	-0.000023
C40	C	0.677441	0.601473	-0.000025
C41	C	0.717115	0.553401	-0.058905
C42	C	0.717118	0.457241	-0.058895
C43	C	0.637768	0.457239	0.058877
C44	C	0.637769	0.553390	0.058873
C45	C	0.474256	1.005305	-0.000007
C46	C	0.405296	1.005301	-0.000003
C47	C	0.412574	0.887550	0.058866
C48	C	0.347777	0.887554	0.058867
C49	C	0.275703	1.005309	-0.000008
C50	C	0.268426	1.123069	-0.058879
C51	C	0.333223	1.123064	-0.058873
C52	C	0.007108	1.123092	-0.058904
C53	C	-0.057690	1.123087	-0.058909
C54	C	0.021662	0.887581	0.058836
C55	C	0.086459	0.887576	0.058842
C56	C	0.079177	1.005335	-0.000023
C57	C	0.149438	1.005330	-0.000022
C58	C	0.205442	1.005316	-0.000017
C59	C	0.880628	1.005331	-0.000028
C60	C	0.949587	1.005335	-0.000032
C61	C	0.677437	1.005323	-0.301537
C62	C	0.677435	1.005325	-0.403870
C63	C	0.677442	1.306832	-0.000012
C64	C	0.677442	1.409163	-0.000010
C65	C	0.637759	1.123074	-0.510819
C66	C	0.637768	1.123068	-0.606968
C67	C	0.717130	0.887553	-0.489204
C68	C	0.717125	0.887560	-0.393058
C69	C	0.677447	1.005313	0.301502
C70	C	0.677449	1.005311	0.403835
C71	C	0.880627	0.703817	-0.000034
C72	C	0.949587	0.601491	-0.000040
C73	C	0.677447	0.703799	0.301496
C74	C	0.677448	0.601466	0.403827
C75	C	0.880632	0.703812	0.301485
C76	C	0.949593	0.601484	0.403813
C77	C	0.474251	1.306824	-0.301520
C78	C	0.405290	1.409152	-0.403848
C79	C	0.474256	1.306819	-0.000001
C80	C	0.405297	1.409145	0.000005
C81	C	0.677437	1.306837	-0.301531
C82	C	0.677435	1.409170	-0.403862
C83	C	0.942293	0.553435	-0.058928
C84	C	1.007082	0.457302	-0.058956
C85	C	1.079163	0.409219	-0.000088
C86	C	1.086454	0.457284	0.058802
C87	C	1.021666	0.553422	0.058822
C88	C	1.021660	0.553433	0.392987
C89	C	1.086463	0.457298	0.489125
C90	C	1.079197	0.409209	0.596088
C91	C	1.007122	0.457269	0.606912
C92	C	0.942322	0.553409	0.510774
C93	C	0.333223	1.457215	-0.393022
C94	C	0.268421	1.553380	-0.489160
C95	C	0.275687	1.601474	-0.596123
C96	C	0.347761	1.553407	-0.606947
C97	C	0.412562	1.457250	-0.510810
C98	C	0.412590	1.457211	0.058883
C99	C	0.347802	1.553371	0.058884
C100	C	0.275721	1.601457	0.000013
C101	C	0.268429	1.553388	-0.058872
C102	C	0.333217	1.457236	-0.058880
C103	C	0.717125	0.553390	0.510778
C104	C	0.717118	0.457246	0.606925
C105	C	0.637756	0.457261	0.489157
C106	C	0.637759	0.553409	0.393012
H107	H	0.605467	0.418080	0.106828
C108	C	0.491873	1.404340	0.123644
N109	N	0.551587	1.364530	0.172420
H110	H	0.605441	1.218966	-0.519629
C111	C	0.863049	0.606252	0.522702
N112	N	0.803342	0.646050	0.531694
H113	H	0.749443	0.791673	-0.480415
H114	H	0.327268	1.418104	-0.106822
H115	H	0.605460	1.218952	-0.694048
H116	H	0.222973	1.679750	0.000028
C117	C	0.594105	0.404380	0.477273
N118	N	0.561229	0.364548	0.468319
H119	H	0.209733	1.592555	-0.106804
H120	H	0.605462	0.592530	0.106825
H121	H	-0.116378	1.218984	-0.106854
H122	H	0.605445	0.592557	0.305922
H123	H	0.471257	0.791659	0.106815
H124	H	0.749419	0.592545	-0.106861
C125	C	0.760770	0.404360	0.724572
N126	N	0.793652	0.364526	0.813185
H127	H	0.749425	0.418102	-0.106838
H128	H	0.353709	0.791669	0.106807
H129	H	1.145143	0.418177	0.480292
H130	H	0.145142	0.791687	0.106781
C131	C	0.204396	1.707239	-0.701867
N132	N	0.150697	1.786896	-0.781509
C133	C	-0.000911	1.252630	-0.123679
N134	N	-0.006951	1.350205	-0.172477
C135	C	0.760773	0.758020	-0.275402
N136	N	0.793648	0.660454	-0.186786
H137	H	0.353753	1.592492	0.106840
H138	H	0.883608	0.592584	-0.106879
H139	H	0.209738	1.218948	-0.106810
H140	H	0.027585	0.791696	0.106770
C141	C	0.325214	1.252599	-0.123637
N142	N	0.319180	1.350169	-0.172418
H143	H	1.001130	0.418179	-0.106911
C144	C	1.150424	0.303455	-0.000113
N145	N	1.204096	0.223788	-0.000132
C146	C	0.189146	1.606233	-0.477229
N147	N	0.129439	1.646039	-0.468239
H148	H	1.145151	0.418120	0.106730
C149	C	0.355741	1.606313	-0.724617
N150	N	0.361749	1.646156	-0.813249
H151	H	1.131968	0.330926	0.674360
C152	C	1.029702	0.606259	0.123621
N153	N	1.035760	0.646050	0.172432
H154	H	1.027591	0.592573	0.305901
H155	H	1.001218	0.418101	0.694014
H156	H	0.327293	1.418062	-0.305936
H157	H	0.471240	1.418119	-0.519637
H158	H	0.749440	0.592520	0.519590
