data_functionalizedCrystal
_audit_creation_method	'MofGen! by Chris Wilmer'
_symmetry_space_group_name_H-M	'P1'
_symmetry_Int_Tables_number	1
_symmetry_cell_setting	triclinic
loop_
_symmetry_equiv_pos_as_xyz
  x,y,z
_cell_length_a	14.519709
_cell_length_b	14.519709
_cell_length_c	13.448316
_cell_angle_alpha	90.007547
_cell_angle_beta	90.001142
_cell_angle_gamma	83.680145
loop_
_atom_site_label
_atom_site_type_symbol
_atom_site_fract_x
_atom_site_fract_y
_atom_site_fract_z
O1	O	1.223870	0.120893	0.082565
O2	O	1.723870	0.620893	0.582565
O3	O	0.955393	0.135130	0.082595
O4	O	1.455393	0.635130	0.582595
O5	O	1.096750	-0.006227	0.082570
O6	O	1.596750	0.493773	0.582570
O7	O	1.082514	0.262250	0.082590
O8	O	1.582514	0.762250	0.582590
O9	O	1.096732	-0.006236	-0.082814
O10	O	1.596732	0.493764	0.417186
O11	O	0.955376	0.135121	-0.082789
O12	O	1.455376	0.635121	0.417211
O13	O	1.223852	0.120885	-0.082819
O14	O	1.723852	0.620885	0.417181
Cu15	Cu	1.089612	0.128002	-0.097905
Cu16	Cu	1.589612	0.628002	0.402095
Cu17	Cu	1.089633	0.128012	0.097681
Cu18	Cu	1.589633	0.628012	0.597681
O19	O	1.082496	0.262241	-0.082794
O20	O	1.582496	0.762241	0.417206
C21	C	0.921025	0.134462	-0.000093
C22	C	1.421025	0.634462	0.499907
C23	C	0.818643	0.132474	-0.000081
C24	C	1.318643	0.632474	0.499919
C25	C	0.443748	0.125154	-0.000127
C26	C	0.943748	0.625154	0.499873
C27	C	0.548056	0.127187	-0.000114
C28	C	1.048056	0.627187	0.499886
C29	C	0.631192	0.128814	-0.000103
C30	C	1.131192	0.628814	0.499897
C31	C	0.735507	0.130847	-0.000092
C32	C	1.235507	0.630847	0.499908
C33	C	1.096078	-0.040591	-0.000122
C34	C	1.596078	0.459409	0.499878
C35	C	1.094090	-0.142972	-0.000122
C36	C	1.594090	0.357028	0.499878
C37	C	1.086770	-0.517868	-0.000096
C38	C	1.586770	-0.017868	0.499904
C39	C	1.088803	-0.413560	-0.000103
C40	C	1.588803	0.086440	0.499897
C41	C	1.090430	-0.330423	-0.000110
C42	C	1.590430	0.169577	0.499890
C43	C	1.092463	-0.226109	-0.000116
C44	C	1.592463	0.273891	0.499884
C45	C	1.258221	0.121553	-0.000129
C46	C	1.758221	0.621553	0.499871
C47	C	1.360602	0.123541	-0.000134
C48	C	1.860602	0.623541	0.499866
C49	C	1.083168	0.296605	-0.000100
C50	C	1.583168	0.796605	0.499900
C51	C	1.085156	0.398987	-0.000093
C52	C	1.585156	0.898987	0.499907
N53	N	1.089604	0.127994	-0.235469
N54	N	1.589604	0.627994	0.264531
C55	C	1.152217	0.065427	-0.287521
C56	C	1.652217	0.565427	0.212479
C57	C	1.152222	0.065427	-0.391624
C58	C	1.652222	0.565427	0.108376
C59	C	1.089620	0.127998	-0.443674
C60	C	1.589620	0.627998	0.056326
C61	C	1.027001	0.190568	-0.391615
C62	C	1.527001	0.690568	0.108385
C63	C	1.026991	0.190563	-0.287514
C64	C	1.526991	0.690563	0.212486
C65	C	1.027026	0.190574	-0.608595
C66	C	1.527026	0.690574	-0.108595
C67	C	1.027037	0.190580	-0.712704
C68	C	1.527037	0.690580	-0.212704
C69	C	1.152257	0.065437	-0.712705
C70	C	1.652257	0.565437	-0.212705
C71	C	1.152248	0.065433	-0.608604
C72	C	1.652248	0.565433	-0.108604
C73	C	1.089630	0.128004	-0.556552
C74	C	1.589630	0.628004	-0.056552
N75	N	1.089649	0.128013	0.235245
N76	N	1.589649	0.628013	0.735245
H77	H	1.203199	0.014478	-0.245148
H78	H	1.703199	0.514478	0.254852
H79	H	1.203243	0.014490	-0.755092
H80	H	1.703243	0.514490	-0.255092
H81	H	1.203228	0.014487	-0.566225
H82	H	1.703228	0.514487	-0.066225
H83	H	1.203205	0.014479	-0.434004
H84	H	1.703205	0.514479	0.065996
H85	H	0.976058	0.241531	-0.755077
H86	H	1.476058	0.741531	-0.255077
H87	H	0.976033	0.241524	-0.566218
H88	H	1.476033	0.741524	-0.066218
H89	H	0.976024	0.241512	-0.434000
H90	H	1.476024	0.741512	0.066000
H91	H	0.976005	0.241511	-0.245134
H92	H	1.476005	0.741511	0.254866
