data_functionalizedCrystal
_audit_creation_method	'MofGen! by Chris Wilmer'
_symmetry_space_group_name_H-M	'P1'
_symmetry_Int_Tables_number	1
_symmetry_cell_setting	triclinic
loop_
_symmetry_equiv_pos_as_xyz
  x,y,z
_cell_length_a	8.597366
_cell_length_b	15.944493
_cell_length_c	7.681481
_cell_angle_alpha	84.264607
_cell_angle_beta	103.474720
_cell_angle_gamma	84.408914
loop_
_atom_site_label
_atom_site_type_symbol
_atom_site_fract_x
_atom_site_fract_y
_atom_site_fract_z
O1	O	2.099809	0.116155	0.172170
O2	O	1.635746	0.129541	0.101763
O3	O	1.880497	0.000570	0.138882
O4	O	1.855059	0.245126	0.135052
O5	O	1.910622	-0.015340	0.436308
O6	O	1.665871	0.113631	0.399190
O7	O	2.129934	0.100245	0.469596
Zn8	Zn	1.902685	0.104412	0.481616
Zn9	Zn	1.862995	0.125374	0.089744
O10	O	1.885183	0.229216	0.432478
C11	C	1.591425	0.121035	0.241467
C12	C	1.414482	0.119384	0.214620
C13	C	1.894519	-0.038679	0.287430
C14	C	1.891399	-0.131927	0.286934
C15	C	2.035469	-0.367697	0.308825
C16	C	1.942926	-0.410416	0.150392
C17	C	1.885625	-0.302649	0.286079
C18	C	1.972592	-0.426078	0.443626
C19	C	1.880059	-0.467559	0.285263
C20	C	1.793110	-0.344133	0.127532
C21	C	1.822811	-0.359798	0.420901
C22	C	1.730155	-0.402482	0.262415
C23	C	1.888835	-0.207648	0.286548
C24	C	1.876836	-0.562557	0.284780
C25	C	2.174255	0.108751	0.329889
C26	C	2.351197	0.110403	0.356724
C27	C	1.871161	0.268466	0.283926
C28	C	1.874280	0.361713	0.284410
N29	N	1.929785	0.090105	0.749060
N30	N	1.835908	0.139674	-0.177698
H31	H	1.993650	-0.432734	0.036013
H32	H	1.333297	0.125803	0.072410
C33	C	1.412709	0.168262	0.638157
C34	C	1.460788	0.101731	0.548724
H35	H	1.480361	0.162903	0.756690
H36	H	1.420977	0.221025	0.573792
H37	H	1.304184	0.165968	0.644666
H38	H	1.569310	0.104029	0.542203
H39	H	1.452535	0.048954	0.613105
C40	C	2.304306	-0.389623	0.499033
C41	C	2.209679	-0.346590	0.335022
H42	H	2.411851	-0.376593	0.515176
H43	H	2.261894	-0.372373	0.595297
H44	H	2.303366	-0.449091	0.497840
H45	H	2.210609	-0.287121	0.336219
H46	H	2.252103	-0.363835	0.238733
H47	H	1.772142	-0.337466	0.535292
C48	C	1.736804	0.288187	0.750204
C49	C	1.706533	0.207976	0.701177
H50	H	1.656936	0.330354	0.675410
H51	H	1.733860	0.289738	0.872693
H52	H	1.840139	0.298872	0.735729
H53	H	1.603202	0.197288	0.715666
H54	H	1.709460	0.206423	0.578659
H55	H	1.717295	-0.308670	-0.006174
C56	C	2.028895	-0.058411	0.821157
C57	C	2.059167	0.021799	0.870191
H58	H	2.108774	-0.100578	0.895933
H59	H	1.925579	-0.069099	0.835639
H60	H	2.031829	-0.059956	0.698648
H61	H	2.056221	0.023347	0.992697
H62	H	2.162511	0.032490	0.855725
C63	C	1.492215	-0.396533	0.375989
C64	C	1.555775	-0.423354	0.235862
H65	H	1.384559	-0.409416	0.359581
H66	H	1.555754	-0.425019	0.488251
H67	H	1.493205	-0.336971	0.375146
H68	H	1.554796	-0.482917	0.236713
H69	H	1.492219	-0.394870	0.123571
C70	C	2.069770	-0.561507	0.622230
C71	C	2.074999	-0.474088	0.623956
H72	H	2.133008	-0.591143	0.733550
H73	H	1.961409	-0.573156	0.605986
H74	H	2.111374	-0.579510	0.525997
H75	H	2.033384	-0.456083	0.720182
H76	H	2.183382	-0.462432	0.640221
