data_functionalizedCrystal
_audit_creation_method	'MofGen! by Chris Wilmer'
_symmetry_space_group_name_H-M	'P1'
_symmetry_Int_Tables_number	1
_symmetry_cell_setting	triclinic
loop_
_symmetry_equiv_pos_as_xyz
  x,y,z
_cell_length_a	21.395362
_cell_length_b	19.077068
_cell_length_c	21.395356
_cell_angle_alpha	92.269849
_cell_angle_beta	89.957023
_cell_angle_gamma	92.343691
loop_
_atom_site_label
_atom_site_type_symbol
_atom_site_fract_x
_atom_site_fract_y
_atom_site_fract_z
Zn1	Zn	0.947857	-0.279924	-0.364584
Zn2	Zn	1.281190	0.053409	-0.031251
Zn3	Zn	1.614524	0.386742	0.302083
Zn4	Zn	0.943558	-0.397624	-0.264010
Zn5	Zn	1.276891	-0.064291	0.069323
Zn6	Zn	1.610224	0.269042	0.402656
Zn7	Zn	0.843072	-0.279976	-0.259787
Zn8	Zn	1.176405	0.053357	0.073546
Zn9	Zn	1.509738	0.386691	0.406880
Zn10	Zn	0.838838	-0.397620	-0.368715
Zn11	Zn	1.172171	-0.064287	-0.035382
Zn12	Zn	1.505505	0.269047	0.297952
O13	O	0.893331	-0.338786	-0.314274
O14	O	1.226664	-0.005453	0.019059
O15	O	1.559998	0.327880	0.352393
O16	O	1.034965	-0.295518	-0.351281
O17	O	1.368299	0.037816	-0.017948
O18	O	1.701632	0.371149	0.315385
O19	O	0.930201	-0.382041	-0.175773
O20	O	1.263534	-0.048708	0.157560
O21	O	1.596868	0.284625	0.490894
O22	O	0.860543	-0.181477	-0.270192
O23	O	1.193876	0.151857	0.063141
O24	O	1.527209	0.485190	0.396474
O25	O	1.031807	-0.381991	-0.277390
O26	O	1.365140	-0.048658	0.055943
O27	O	1.698473	0.284675	0.389276
O28	O	0.937528	-0.181439	-0.347186
O29	O	1.270861	0.151894	-0.013853
O30	O	1.604195	0.485228	0.319481
O31	O	0.856374	-0.295606	-0.172670
O32	O	1.189707	0.037728	0.160663
O33	O	1.523041	0.371061	0.493997
O34	O	0.754831	-0.295601	-0.274198
O35	O	1.088165	0.037732	0.059135
O36	O	1.421498	0.371065	0.392469
O37	O	0.853327	-0.381984	-0.455844
O38	O	1.186660	-0.048651	-0.122511
O39	O	1.519993	0.284683	0.210823
O40	O	0.751721	-0.382034	-0.354227
O41	O	1.085054	-0.048701	-0.020893
O42	O	1.418388	0.284633	0.312440
O43	O	0.933423	-0.295514	-0.452809
O44	O	1.266756	0.037820	-0.119476
O45	O	1.600089	0.371153	0.213858
O46	O	0.926095	-0.496116	-0.281396
O47	O	1.259429	-0.162783	0.051937
O48	O	1.592762	0.170551	0.385271
O49	O	0.849158	-0.496113	-0.358322
O50	O	1.182491	-0.162780	-0.024989
O51	O	1.515825	0.170554	0.308345
C52	C	0.730542	-0.338823	-0.314203
C53	C	1.063875	-0.005490	0.019131
C54	C	1.397209	0.327843	0.352464
C55	C	0.660900	-0.338856	-0.314188
C56	C	0.994233	-0.005523	0.019146
C57	C	1.327566	0.327810	0.352479
C58	C	0.626581	-0.383921	-0.355801
C59	C	0.959914	-0.050588	-0.022467
C60	C	1.293248	0.282745	0.310866
C61	C	0.561146	-0.383904	-0.355828
C62	C	0.894480	-0.050571	-0.022495
C63	C	1.227813	0.282763	0.310839
C64	C	0.530032	-0.338829	-0.314231
C65	C	0.863366	-0.005496	0.019102
C66	C	1.196699	0.327837	0.352435
C67	C	0.564359	-0.293755	-0.272615
C68	C	0.897692	0.039578	0.060718
C69	C	1.231026	0.372911	0.394052
C70	C	0.629793	-0.293769	-0.272593
C71	C	0.963126	0.039564	0.060740
C72	C	1.296459	0.372898	0.394073
C73	C	0.426511	-0.333169	-0.257624
C74	C	0.759844	0.000164	0.075709
C75	C	1.093177	0.333497	0.409043
C76	C	0.361078	-0.333161	-0.257645
C77	C	0.694411	0.000173	0.075688
C78	C	1.027745	0.333506	0.409022
C79	C	0.328213	-0.338783	-0.314299
C80	C	0.661547	-0.005450	0.019034
C81	C	0.994880	0.327883	0.352368
C82	C	0.360789	-0.344429	-0.370934
C83	C	0.694122	-0.011096	-0.037601
C84	C	1.027455	0.322237	0.295733
C85	C	0.426222	-0.344443	-0.370912
C86	C	0.759556	-0.011109	-0.037579
C87	C	1.092889	0.322224	0.295754
C88	C	0.459081	-0.338809	-0.314251
C89	C	0.792414	-0.005476	0.019083
C90	C	1.125747	0.327858	0.352416
C91	C	0.222943	-0.383832	-0.355945
C92	C	0.556276	-0.050499	-0.022612
C93	C	0.889609	0.282835	0.310722
C94	C	0.157507	-0.383810	-0.355973
C95	C	0.490840	-0.050477	-0.022640
C96	C	0.824174	0.282857	0.310693
C97	C	0.160721	-0.293665	-0.272755
C98	C	0.494054	0.039669	0.060579
C99	C	0.827388	0.373002	0.393912
C100	C	0.226156	-0.293683	-0.272732
C101	C	0.559489	0.039650	0.060601
C102	C	0.892822	0.372983	0.393935
C103	C	0.257262	-0.338771	-0.314326
C104	C	0.590596	-0.005437	0.019007
C105	C	0.923929	0.327896	0.352340
C106	C	0.886718	-0.521652	-0.320779
C107	C	1.220051	-0.188319	0.012554
C108	C	1.553385	0.145014	0.345887
C109	C	0.883946	-0.599883	-0.323583
C110	C	1.217279	-0.266550	0.009750
C111	C	1.550613	0.066783	0.343083
C112	C	0.922732	-0.636615	-0.284883
C113	C	1.256065	-0.303281	0.048451
C114	C	1.589399	0.030052	0.381784
C115	C	0.920129	-0.710121	-0.287523
C116	C	1.253462	-0.376788	0.045810
C117	C	1.586795	-0.043454	0.379143
C118	C	0.878736	-0.746895	-0.328862
C119	C	1.212069	-0.413561	0.004471
C120	C	1.545402	-0.080228	0.337804
C121	C	0.839948	-0.710158	-0.367567
C122	C	1.173281	-0.376825	-0.034234
C123	C	1.506615	-0.043492	0.299099
C124	C	0.842555	-0.636653	-0.364929
C125	C	1.175888	-0.303320	-0.031596
C126	C	1.509222	0.030013	0.301738
C127	C	0.866643	-0.966733	-0.341047
C128	C	1.199976	-0.633400	-0.007713
C129	C	1.533310	-0.300067	0.325620
C130	C	0.864038	-1.040243	-0.343681
C131	C	1.197371	-0.706910	-0.010347
C132	C	1.530704	-0.373577	0.322986
C133	C	0.944219	-1.040201	-0.263637
C134	C	1.277553	-0.706868	0.069696
C135	C	1.610886	-0.373535	0.403029
C136	C	0.946820	-0.966695	-0.261000
C137	C	1.280153	-0.633362	0.072333
C138	C	1.613487	-0.300028	0.405666
C139	C	0.908035	-0.929965	-0.299707
C140	C	1.241368	-0.596631	0.033626
C141	C	1.574701	-0.263298	0.366959
N142	N	0.876072	-0.822030	-0.331561
N143	N	1.209406	-0.488697	0.001772
N144	N	1.542739	-0.155363	0.335105
N145	N	0.910702	-0.854831	-0.297011
N146	N	1.244035	-0.521498	0.036322
N147	N	1.577368	-0.188164	0.369656
C148	C	1.056756	-0.338749	-0.314346
C149	C	1.390089	-0.005416	0.018987
C150	C	1.723422	0.327917	0.352321
C151	C	1.126398	-0.338734	-0.314377
C152	C	1.459731	-0.005400	0.018957
C153	C	1.793064	0.327933	0.352290
C154	C	0.893382	-0.338743	-0.477696
C155	C	1.226715	-0.005409	-0.144363
C156	C	1.560049	0.327924	0.188971
C157	C	0.893404	-0.338724	-0.547337
C158	C	1.226737	-0.005391	-0.214003
C159	C	1.560070	0.327943	0.119330
C160	C	0.899987	-0.155206	-0.307757
C161	C	1.233321	0.178128	0.025576
C162	C	1.566654	0.511461	0.358909
C163	C	0.902824	-0.076975	-0.304980
C164	C	1.236157	0.256359	0.028353
C165	C	1.569490	0.589692	0.361687
C166	C	0.854973	-0.293712	-0.578424
C167	C	1.188306	0.039622	-0.245091
C168	C	1.521640	0.372955	0.088243
C169	C	0.854971	-0.293699	-0.643859
C170	C	1.188305	0.039635	-0.310526
C171	C	1.521638	0.372968	0.022808
C172	C	0.893412	-0.338690	-0.678204
C173	C	1.226745	-0.005357	-0.344870
C174	C	1.560078	0.327976	-0.011537
C175	C	0.931845	-0.383711	-0.647109
C176	C	1.265178	-0.050378	-0.313775
C177	C	1.598512	0.282955	0.019558
C178	C	0.931841	-0.383728	-0.581675
C179	C	1.265174	-0.050395	-0.248342
C180	C	1.598507	0.282939	0.084992
C181	C	0.949667	-0.344206	-0.782106
C182	C	1.283000	-0.010873	-0.448773
C183	C	1.616333	0.322460	-0.115439
C184	C	0.949672	-0.344185	-0.847538
C185	C	1.283005	-0.010851	-0.514205
C186	C	1.616339	0.322482	-0.180872
C187	C	0.893424	-0.338643	-0.880023
C188	C	1.226757	-0.005310	-0.546690
C189	C	1.560090	0.328024	-0.213356
C190	C	0.837169	-0.333108	-0.847067
C191	C	1.170502	0.000225	-0.513733
C192	C	1.503836	0.333559	-0.180400
C193	C	0.837165	-0.333125	-0.781633
C194	C	1.170498	0.000209	-0.448300
C195	C	1.503832	0.333542	-0.114966
C196	C	0.893420	-0.338678	-0.749156
C197	C	1.226753	-0.005344	-0.415822
C198	C	1.560087	0.327989	-0.082489
C199	C	0.854988	-0.293614	-0.982062
C200	C	1.188321	0.039719	-0.648729
C201	C	1.521655	0.373052	-0.315396
C202	C	0.854985	-0.293606	-1.047499
C203	C	1.188318	0.039727	-0.714165
C204	C	1.521652	0.373061	-0.380832
C205	C	0.931864	-0.383615	-1.050747
C206	C	1.265198	-0.050282	-0.717414
C207	C	1.598531	0.283052	-0.384080
C208	C	0.931862	-0.383627	-0.985312
C209	C	1.265195	-0.050294	-0.651979
C210	C	1.598528	0.283040	-0.318645
C211	C	0.893424	-0.338623	-0.950973
C212	C	1.226758	-0.005289	-0.617640
C213	C	1.560091	0.328044	-0.284307
C214	C	0.893318	-0.338779	-0.151486
C215	C	1.226652	-0.005446	0.181847
C216	C	1.559985	0.327888	0.515180
C217	C	0.893425	-0.338599	-0.081839
C218	C	1.226758	-0.005266	0.251494
C219	C	1.560092	0.328068	0.584828
H220	H	0.254098	-0.256990	-0.238843
H221	H	0.587431	0.076344	0.094490
H222	H	0.920765	0.409677	0.427824
H223	H	0.963158	-0.420279	-0.960001
H224	H	1.296491	-0.086946	-0.626667
H225	H	1.629824	0.246388	-0.293334
H226	H	0.334032	-0.349006	-0.417067
H227	H	0.667365	-0.015673	-0.083734
H228	H	1.000698	0.317660	0.249599
Cl229	Cl	0.811989	-1.086472	-0.395646
Cl230	Cl	1.145322	-0.753139	-0.062312
Cl231	Cl	1.478655	-0.419806	0.271021
Cl232	Cl	0.766448	-0.326172	-0.740205
Cl233	Cl	1.099781	0.007161	-0.406871
Cl234	Cl	1.433115	0.340495	-0.073538
H235	H	0.835061	-0.936833	-0.372563
H236	H	1.168395	-0.603500	-0.039229
H237	H	1.501728	-0.270167	0.294104
H238	H	0.248271	-0.420541	-0.389817
H239	H	0.581605	-0.087208	-0.056484
H240	H	0.914938	0.246125	0.276850
H241	H	0.452743	-0.349038	-0.417027
H242	H	0.786076	-0.015705	-0.083693
H243	H	1.119409	0.317629	0.249640
Cl244	Cl	0.968893	-0.756295	-0.238871
Cl245	Cl	1.302226	-0.422961	0.094463
Cl246	Cl	1.635559	-0.089628	0.427796
Cl247	Cl	0.787914	-0.756388	-0.419540
Cl248	Cl	1.121248	-0.423055	-0.086207
Cl249	Cl	1.454581	-0.089721	0.247126
Cl250	Cl	0.467819	-0.326103	-0.186394
Cl251	Cl	0.801153	0.007230	0.146939
Cl252	Cl	1.134486	0.340564	0.480272
H253	H	0.791367	-0.328591	-0.873514
H254	H	1.124700	0.004743	-0.540180
H255	H	1.458033	0.338076	-0.206847
Cl256	Cl	0.992979	-1.086380	-0.214984
Cl257	Cl	1.326312	-0.753047	0.118349
Cl258	Cl	1.659645	-0.419714	0.451682
H259	H	0.539022	-0.257054	-0.238748
H260	H	0.872355	0.076280	0.094586
H261	H	1.205689	0.409613	0.427919
Cl262	Cl	0.806669	-0.237092	-0.682948
Cl263	Cl	1.140002	0.096241	-0.349615
Cl264	Cl	1.473336	0.429575	-0.016282
H265	H	0.810972	-0.606747	-0.396444
H266	H	1.144306	-0.273414	-0.063111
H267	H	1.477639	0.059919	0.270223
H268	H	0.651904	-0.420634	-0.389671
H269	H	0.985237	-0.087301	-0.056338
H270	H	1.318571	0.246033	0.276995
H271	H	0.995475	-0.348713	-0.755662
H272	H	1.328808	-0.015380	-0.422329
H273	H	1.662142	0.317953	-0.088996
H274	H	0.980525	-0.936755	-0.227339
H275	H	1.313859	-0.603422	0.105995
H276	H	1.647192	-0.270089	0.439328
Cl277	Cl	0.806664	-0.237043	-0.938891
Cl278	Cl	1.139998	0.096290	-0.605558
Cl279	Cl	1.473331	0.429624	-0.272224
H280	H	0.995478	-0.348688	-0.874366
H281	H	1.328812	-0.015355	-0.541033
H282	H	1.662145	0.317978	-0.207700
H283	H	0.963143	-0.420344	-0.675076
H284	H	1.296477	-0.087011	-0.341743
H285	H	1.629810	0.246323	-0.008410
H286	H	0.963138	-0.420382	-0.556364
H287	H	1.296472	-0.087048	-0.223031
H288	H	1.629805	0.246285	0.110302
H289	H	0.956436	-0.606679	-0.251217
H290	H	1.289769	-0.273345	0.082116
H291	H	1.623102	0.059988	0.415449
H292	H	0.135389	-0.256961	-0.238889
H293	H	0.468722	0.076373	0.094445
H294	H	0.802055	0.409706	0.427778
H295	H	0.823686	-0.256954	-1.072809
H296	H	1.157019	0.076379	-0.739475
H297	H	1.490352	0.409713	-0.406142
Cl298	Cl	0.806649	-0.237139	-0.535259
Cl299	Cl	1.139982	0.096195	-0.201926
Cl300	Cl	1.473315	0.429528	0.131408
H301	H	0.533199	-0.420601	-0.389717
H302	H	0.866532	-0.087268	-0.056384
H303	H	1.199865	0.246065	0.276950
Cl304	Cl	0.672938	-0.237111	-0.220275
Cl305	Cl	1.006272	0.096222	0.113058
Cl306	Cl	1.339605	0.429556	0.446392
Cl307	Cl	0.114363	-0.440465	-0.408296
Cl308	Cl	0.447696	-0.107131	-0.074962
Cl309	Cl	0.781030	0.226202	0.258371
H310	H	0.334560	-0.328568	-0.211529
H311	H	0.667893	0.004766	0.121804
H312	H	1.001227	0.338099	0.455138
Cl313	Cl	0.980186	-0.440182	-1.093917
Cl314	Cl	1.313519	-0.106848	-0.760584
Cl315	Cl	1.646853	0.226485	-0.427251
