data_functionalizedCrystal
_audit_creation_method	'MofGen! by Chris Wilmer'
_symmetry_space_group_name_H-M	'P1'
_symmetry_Int_Tables_number	1
_symmetry_cell_setting	triclinic
loop_
_symmetry_equiv_pos_as_xyz
  x,y,z
_cell_length_a	10.654550
_cell_length_b	14.750779
_cell_length_c	10.654551
_cell_angle_alpha	102.764234
_cell_angle_beta	84.485132
_cell_angle_gamma	77.237079
loop_
_atom_site_label
_atom_site_type_symbol
_atom_site_fract_x
_atom_site_fract_y
_atom_site_fract_z
O1	O	1.640793	0.079896	0.203433
O2	O	1.275320	0.079880	0.220234
O3	O	1.466458	0.079889	0.029095
O4	O	1.449654	0.079887	0.394573
O5	O	1.520491	-0.079759	-0.024932
O6	O	1.329352	-0.079768	0.166207
O7	O	1.694825	-0.079752	0.149407
Zn8	Zn	1.520668	-0.105107	0.149229
Zn9	Zn	1.449477	0.105236	0.220412
O10	O	1.503687	-0.079760	0.340546
C11	C	1.255539	0.000054	0.191986
C12	C	1.116097	0.000049	0.188292
N13	N	1.569262	-0.248661	0.100648
C14	C	1.036608	0.000062	0.300838
C15	C	0.905581	0.000079	0.297367
C16	C	0.933546	0.000072	0.068796
C17	C	1.064572	0.000049	0.072266
C18	C	1.088133	0.000062	0.416865
C19	C	1.008642	0.000076	0.529420
C20	C	0.877615	0.000093	0.525949
C21	C	0.826080	0.000095	0.409923
C22	C	1.265174	-0.600493	0.404607
C23	C	1.299235	-0.700990	0.370573
C24	C	1.468524	-0.700945	0.201382
C25	C	1.434473	-0.600446	0.235398
C26	C	1.332798	-0.550227	0.337012
C27	C	1.502097	-0.550180	0.167803
C28	C	1.468052	-0.449689	0.201821
C29	C	1.366384	-0.399464	0.303434
C30	C	1.298754	-0.449737	0.371030
C31	C	1.603778	-0.600400	0.066196
C32	C	1.671402	-0.550135	-0.001399
C33	C	1.637351	-0.449642	0.032612
C34	C	1.535683	-0.399417	0.134225
C35	C	1.704982	-0.399370	-0.034984
C36	C	1.670937	-0.298879	-0.000966
C37	C	1.501638	-0.298926	0.168243
C38	C	1.714606	0.000076	0.177655
C39	C	1.854045	0.000089	0.181351
C40	C	1.492240	0.000067	-0.044716
C41	C	1.488545	0.000074	-0.184157
N42	N	1.400893	0.248789	0.268983
C43	C	1.457360	0.087096	-0.220219
C44	C	1.453882	0.087091	-0.351241
C45	C	1.512781	-0.086965	-0.410130
C46	C	1.516250	-0.086960	-0.279109
C47	C	1.429656	0.174129	-0.125267
C48	C	1.398470	0.261159	-0.161328
C49	C	1.394991	0.261154	-0.292350
C50	C	1.422698	0.174120	-0.387311
C51	C	1.477905	0.000064	0.414357
C52	C	1.481597	0.000064	0.553800
H53	H	1.050613	0.000066	0.623882
O54	O	1.546692	-0.171435	-0.243943
C55	C	1.659057	-0.176661	-0.183221
H56	H	1.670215	-0.101103	-0.142446
H57	H	1.649533	-0.213495	-0.100569
H58	H	1.748283	-0.219610	-0.257544
H59	H	1.194818	0.000053	0.419705
O60	O	1.364663	0.345603	-0.327598
C61	C	1.367567	0.326941	-0.463604
H62	H	1.352706	0.252149	-0.501950
H63	H	1.286575	0.382521	-0.487146
H64	H	1.465764	0.331063	-0.511693
O65	O	1.402858	-0.249987	0.266874
C66	C	1.387339	-0.150513	0.282420
H67	H	1.428771	-0.136780	0.187656
H68	H	1.279424	-0.112340	0.308418
H69	H	1.441271	-0.121983	0.363757
O70	O	0.800564	0.000145	0.635409
C71	C	0.874153	0.000114	0.738545
H72	H	0.961432	0.030323	0.717738
H73	H	0.810847	0.046473	0.833154
H74	H	0.909686	-0.076478	0.748141
H75	H	0.719393	0.000094	0.407101
O76	O	1.539509	-0.171444	-0.502466
C77	C	1.430676	-0.176668	-0.566717
H78	H	1.368386	-0.101110	-0.556355
H79	H	1.465121	-0.213504	-0.674299
H80	H	1.370516	-0.219615	-0.521457
H81	H	0.891570	0.000090	-0.025662
O82	O	1.637058	-0.698017	0.033019
C83	C	1.741283	-0.731563	-0.071174
H84	H	1.796278	-0.673632	-0.072769
H85	H	1.810117	-0.798782	-0.058118
H86	H	1.701736	-0.749401	-0.166885
H87	H	1.338670	-0.317638	0.331134
H88	H	1.215951	-0.408847	0.453766
O89	O	1.803652	-0.448055	-0.133825
C90	C	1.773819	-0.423526	-0.250039
H91	H	1.700701	-0.350573	-0.225644
H92	H	1.866508	-0.420071	-0.309853
H93	H	1.730128	-0.480097	-0.308596
O94	O	1.371618	0.345613	-0.068929
C95	C	1.381331	0.326960	0.054453
H96	H	1.446827	0.252177	0.042194
H97	H	1.424680	0.382555	0.115621
H98	H	1.280343	0.331065	0.105314
O99	O	1.770065	-0.598819	-0.100248
C100	C	1.740216	-0.574281	-0.216453
H101	H	1.667100	-0.501326	-0.192044
H102	H	1.832899	-0.570825	-0.276276
H103	H	1.696515	-0.630848	-0.275006
O104	O	1.141599	0.000086	-0.037160
C105	C	1.068033	0.000079	-0.140316
H106	H	0.960314	0.030318	-0.099064
H107	H	1.100001	0.046425	-0.203551
H108	H	1.084295	-0.076509	-0.201748
O109	O	1.166406	-0.551851	0.503384
C110	C	1.113985	-0.617762	0.555729
H111	H	1.189743	-0.689387	0.533387
H112	H	1.085858	-0.588732	0.665677
H113	H	1.023965	-0.628465	0.510455
O114	O	1.419509	0.174005	-0.514643
C115	C	1.543081	0.126299	-0.587868
H116	H	1.598496	0.075476	-0.534009
H117	H	1.530799	0.083525	-0.687012
H118	H	1.599870	0.181318	-0.601796
O119	O	1.233521	-0.749928	0.436024
C120	C	1.175132	-0.808053	0.348364
H121	H	1.229391	-0.823086	0.245460
H122	H	1.179667	-0.878727	0.376672
H123	H	1.069127	-0.769347	0.352076
H124	H	1.551313	-0.741844	0.118650
H125	H	1.432488	0.174143	-0.018580
O126	O	1.736607	-0.249896	-0.066373
C127	C	1.684779	-0.150432	-0.014530
H128	H	1.633956	-0.136750	0.089480
H129	H	1.766857	-0.112250	-0.014543
H130	H	1.611617	-0.121867	-0.076603
