data_functionalizedCrystal
_audit_creation_method	'MofGen! by Chris Wilmer'
_symmetry_space_group_name_H-M	'P1'
_symmetry_Int_Tables_number	1
_symmetry_cell_setting	triclinic
loop_
_symmetry_equiv_pos_as_xyz
  x,y,z
_cell_length_a	16.992695
_cell_length_b	19.288867
_cell_length_c	18.366186
_cell_angle_alpha	89.992441
_cell_angle_beta	89.993794
_cell_angle_gamma	86.902646
loop_
_atom_site_label
_atom_site_type_symbol
_atom_site_fract_x
_atom_site_fract_y
_atom_site_fract_z
O1	O	0.097803	0.927052	-0.060525
O2	O	0.110993	0.725560	-0.060532
O3	O	-0.009742	0.825498	-0.060523
O4	O	0.218538	0.827114	-0.060534
O5	O	-0.009748	0.825480	0.060577
O6	O	0.110988	0.725542	0.060567
O7	O	0.097797	0.927033	0.060575
Zn8	Zn	0.104391	0.826285	0.079798
Zn9	Zn	0.104399	0.826309	-0.079756
O10	O	0.218532	0.827095	0.060565
C11	C	0.110566	0.699650	0.000017
C12	C	0.109291	0.622472	0.000014
C13	C	-0.038950	0.823411	0.000027
C14	C	-0.125972	0.817210	0.000026
C15	C	0.100111	0.066381	-0.065988
C16	C	0.101304	0.138898	-0.065991
C17	C	0.101901	0.175152	0.000020
C18	C	0.101285	0.138884	0.066039
C19	C	0.100084	0.066368	0.066040
C20	C	0.149717	0.287258	0.050591
C21	C	0.150923	0.359772	0.050587
C22	C	0.105602	0.398813	0.000020
C23	C	0.059086	0.365331	-0.050555
C24	C	0.057885	0.292816	-0.050555
C25	C	0.103203	0.253783	0.000027
C26	C	0.107507	0.513705	-0.065997
C27	C	0.108695	0.586223	-0.065997
C28	C	0.108684	0.586207	0.066034
C29	C	0.107488	0.513690	0.066032
C30	C	0.106903	0.477443	0.000015
C31	C	-0.176423	0.877038	0.000029
C32	C	-0.258190	0.871208	0.000022
C33	C	-0.289503	0.805549	0.000017
C34	C	-0.239045	0.745716	0.000012
C35	C	-0.157280	0.751547	0.000014
C36	C	-0.533015	0.781382	0.000007
C37	C	-0.614786	0.775555	0.000007
C38	C	-0.633925	0.901048	0.000015
C39	C	-0.552158	0.906873	0.000022
C40	C	-0.501708	0.847040	0.000013
N41	N	-0.373081	0.799588	0.000012
N42	N	-0.418131	0.853002	0.000012
C43	C	0.247740	0.829183	0.000014
C44	C	0.334763	0.835383	0.000010
C45	C	0.098224	0.952944	0.000024
C46	C	0.099499	1.030122	0.000022
N47	N	0.104385	0.826273	0.188689
N48	N	0.104399	0.826326	-0.188647
C49	C	0.050950	0.870543	0.226794
C50	C	0.050947	0.870547	0.303022
C51	C	0.104392	0.826289	0.341142
C52	C	0.157831	0.782011	0.303028
C53	C	0.157828	0.782003	0.226802
C54	C	0.175821	0.821154	0.461899
C55	C	0.175825	0.821166	0.538123
C56	C	0.104402	0.826309	0.576250
C57	C	0.032971	0.831454	0.538141
C58	C	0.032967	0.831446	0.461915
C59	C	0.104401	0.826292	0.423797
C60	C	0.050958	0.870586	0.697009
C61	C	0.050954	0.870585	0.773238
C62	C	0.157845	0.782052	0.773243
C63	C	0.157843	0.782049	0.697016
C64	C	0.104400	0.826320	0.658903
H65	H	0.099632	0.036874	-0.119745
H66	H	-0.025194	0.835633	0.430890
C67	C	-0.007813	0.919255	0.184870
H68	H	-0.000153	0.912922	0.134014
H69	H	-0.060123	0.908837	0.197362
H70	H	0.000602	0.966069	0.197362
C71	C	-0.313683	0.937019	0.000033
H72	H	-0.283323	0.976958	0.000047
H73	H	-0.345973	0.937367	-0.042197
H74	H	-0.345980	0.937341	0.042268
H75	H	0.233989	0.816982	0.569145
C76	C	0.109369	0.626109	-0.138612
H77	H	0.108856	0.594133	-0.177927
H78	H	0.064132	0.657158	-0.141362
H79	H	0.155548	0.651637	-0.141352
H80	H	-0.150935	0.930505	0.000038
C81	C	-0.649233	0.703329	0.000002
H82	H	-0.705155	0.708428	0.000011
H83	H	-0.631901	0.678508	-0.042230
H84	H	-0.631904	0.678497	0.042235
C85	C	-0.477530	0.715568	0.000010
H86	H	-0.507892	0.675631	0.000017
H87	H	-0.445228	0.715234	-0.042218
H88	H	-0.445245	0.715230	0.042247
C89	C	0.199566	0.244317	0.106221
H90	H	0.192182	0.196335	0.098984
H91	H	0.253647	0.252944	0.099858
H92	H	0.183606	0.257174	0.154144
C93	C	0.106855	0.473827	-0.138610
H94	H	0.106063	0.425446	-0.129156
H95	H	0.061348	0.488473	-0.165734
H96	H	0.152764	0.482956	-0.165734
H97	H	0.101807	0.168427	-0.119746
C98	C	-0.517719	0.979098	0.000017
H99	H	-0.559478	1.013895	0.000011
H100	H	-0.486224	0.983977	0.042246
H101	H	-0.486218	0.983982	-0.042219
C102	C	0.107094	0.473782	0.138642
H103	H	0.106370	0.425398	0.129189
H104	H	0.153076	0.482986	0.165605
H105	H	0.061658	0.488331	0.165926
C106	C	0.006719	0.255985	-0.106177
H107	H	0.012501	0.207207	-0.098935
H108	H	-0.046968	0.271122	-0.099812
H109	H	0.023069	0.266897	-0.154104
H110	H	0.201346	0.745974	0.334070
H111	H	0.109167	0.615724	0.119782
H112	H	-0.025189	0.835641	0.569182
H113	H	0.188818	0.387026	0.091754
C114	C	0.101945	0.178759	0.138649
H115	H	0.102757	0.227140	0.129195
H116	H	0.056041	0.169635	0.165775
H117	H	0.147457	0.164109	0.165770
H118	H	0.099589	0.036846	0.119795
C119	C	-0.689421	0.966857	0.000015
H120	H	-0.742602	0.953983	0.000006
H121	H	-0.679961	0.993590	0.042244
H122	H	-0.679945	0.993595	-0.042222
C123	C	-0.273487	0.673493	0.000009
H124	H	-0.329409	0.678587	0.000017
H125	H	-0.256151	0.648672	-0.042221
H126	H	-0.256158	0.648664	0.042245
H127	H	0.233987	0.816954	0.430863
C128	C	-0.101784	0.685736	0.000013
H129	H	-0.132142	0.645797	0.000016
H130	H	-0.069485	0.685410	-0.042217
H131	H	-0.069496	0.685395	0.042249
H132	H	0.007431	0.906597	0.334052
C133	C	-0.007833	0.919272	0.655082
H134	H	-0.039667	0.945631	0.688696
H135	H	0.020282	0.949742	0.625335
H136	H	-0.040397	0.892473	0.625357
H137	H	0.007436	0.906632	0.804263
H138	H	0.022184	0.397117	-0.091734
C139	C	0.216634	0.733369	0.815167
H140	H	0.208986	0.739716	0.866022
H141	H	0.208254	0.686549	0.802686
H142	H	0.268936	0.743817	0.802665
H143	H	0.201358	0.746004	0.665989
H144	H	0.201342	0.745952	0.195777
