data_functionalizedCrystal
_audit_creation_method	'MofGen! by Chris Wilmer'
_symmetry_space_group_name_H-M	'P1'
_symmetry_Int_Tables_number	1
_symmetry_cell_setting	triclinic
loop_
_symmetry_equiv_pos_as_xyz
  x,y,z
_cell_length_a	12.477989
_cell_length_b	23.096457
_cell_length_c	12.477989
_cell_angle_alpha	89.998350
_cell_angle_beta	60.281621
_cell_angle_gamma	55.725385
loop_
_atom_site_label
_atom_site_type_symbol
_atom_site_fract_x
_atom_site_fract_y
_atom_site_fract_z
Zr1	Zr	1.187009	0.513499	-0.067892
O2	O	1.433395	0.406483	-0.234510
O3	O	0.957193	0.551366	-0.027643
O4	O	1.210909	0.534569	-0.250132
O5	O	1.155047	0.430774	0.175800
O6	O	1.210913	0.629849	-0.250139
O7	O	1.179678	0.423280	-0.012020
O8	O	0.757061	0.659896	0.147854
O9	O	1.608899	0.400726	-0.222193
O10	O	1.045585	0.632508	0.002600
O11	O	1.027200	0.566995	0.142773
O12	O	1.325918	0.547218	-0.119180
O13	O	1.307533	0.481704	0.020993
Zr14	Zr	1.147730	0.677412	0.231648
Zr15	Zr	1.187015	0.665460	-0.067903
Zr16	Zr	1.147724	0.525451	0.231659
Zr17	Zr	1.466917	0.504319	-0.048249
Zr18	Zr	0.867821	0.686593	0.212005
O19	O	1.377546	0.639545	0.191399
O20	O	1.433403	0.622551	-0.234525
O21	O	1.377537	0.423477	0.191414
O22	O	0.901344	0.784429	0.398266
O23	O	0.957202	0.767435	-0.027658
O24	O	0.901335	0.568360	0.398281
O25	O	1.179692	0.760137	-0.012044
O26	O	1.123829	0.656343	0.413888
O27	O	1.123826	0.561063	0.413895
O28	O	1.155060	0.767631	0.175776
O29	O	1.608904	0.521515	-0.222201
O30	O	0.725835	0.669397	0.385958
O31	O	0.725840	0.790185	0.385949
O32	O	0.757066	0.780685	0.147846
O33	O	1.577673	0.410227	0.015911
O34	O	1.577678	0.531015	0.015902
O35	O	1.008820	0.643694	0.282936
O36	O	1.027206	0.709207	0.142763
O37	O	1.307539	0.623917	0.020983
O38	O	1.289154	0.558403	0.161156
C39	C	0.817246	0.606939	0.057307
C40	C	0.698417	0.610837	0.048968
C41	C	1.167362	0.405376	0.081891
C42	C	1.167359	0.340865	0.081896
C43	C	1.021034	0.355079	0.145451
C44	C	1.021031	0.294464	0.145456
C45	C	1.167364	0.219634	0.081881
C46	C	1.313708	0.205421	0.018324
C47	C	1.313705	0.266036	0.018332
N48	N	1.284763	0.088748	-0.030059
N49	N	1.284756	0.031169	-0.030064
C50	C	1.167381	0.036999	0.081857
N51	N	1.049991	0.102592	0.193780
N52	N	1.049994	0.160177	0.193782
C53	C	1.167384	0.153901	0.081867
C54	C	1.021043	-0.014509	0.145424
C55	C	1.021045	-0.075127	0.145434
C56	C	1.313728	-0.164171	0.018289
C57	C	1.313720	-0.103552	0.018292
C58	C	1.167373	-0.028724	0.081856
C59	C	1.517493	0.583972	0.106449
C60	C	1.636321	0.580075	0.114788
C61	C	1.216508	0.580506	-0.292815
C62	C	1.233186	0.575432	-0.419982
C63	C	1.167377	0.785535	0.081865
C64	C	1.167380	0.850047	0.081860
C65	C	1.118230	0.610406	0.456571
C66	C	1.101553	0.615480	0.583739
C67	C	0.817254	0.797019	0.057294
C68	C	0.698428	0.865427	0.048950
C69	C	0.768107	0.621889	0.432000
C70	C	0.632601	0.630861	0.550828
C71	C	0.768115	0.811969	0.431987
C72	C	0.632611	0.885451	0.550810
C73	C	1.566624	0.378943	-0.268231
C74	C	1.702127	0.305460	-0.387054
C75	C	1.517485	0.393893	0.106463
C76	C	1.636311	0.325484	0.114806
C77	C	1.566632	0.569022	-0.268244
C78	C	1.702138	0.560051	-0.387072
C79	C	0.652221	0.857516	-0.028145
C80	C	0.540590	0.921786	-0.036011
C81	C	0.475160	0.993967	0.033225
C82	C	0.521377	1.001876	0.110323
C83	C	0.633014	0.937607	0.118181
C84	C	0.578574	0.954164	0.533442
C85	C	0.451271	1.023213	0.645080
C86	C	0.378000	1.023549	0.774083
C87	C	0.432048	0.954830	0.791449
C88	C	0.559357	0.885781	0.679814
C89	C	1.756178	0.236747	-0.369685
C90	C	1.883515	0.167697	-0.481320
C91	C	1.956793	0.167361	-0.610323
C92	C	1.902737	0.236080	-0.627690
C93	C	1.775409	0.305129	-0.516056
C94	C	1.682531	0.333394	0.191889
C95	C	1.794197	0.269122	0.199725
C96	C	1.859632	0.196941	0.130485
C97	C	1.813409	0.189032	0.053392
C98	C	1.701754	0.253303	0.045550
H99	H	0.674076	0.550751	0.177512
H100	H	0.976089	0.653649	-0.315779
Br101	Br	0.677995	0.953728	0.358380
H102	H	0.660673	0.640155	-0.013772
Br103	Br	0.822439	-0.055831	0.231717
Br104	Br	0.741001	0.759564	-0.122126
H105	H	1.432876	-0.225098	-0.033476
Br106	Br	2.002199	0.235611	-0.802776
H107	H	1.358641	0.537257	-0.520455
Br108	Br	1.593754	0.431346	0.285868
Br109	Br	0.822422	0.456629	0.231722
H110	H	1.950547	0.144614	0.136882
Br111	Br	1.702065	0.398379	-0.539653
H112	H	0.274339	1.079778	0.864972
Br113	Br	1.856899	0.279874	0.304359
Br114	Br	0.477888	0.911034	-0.140646
H115	H	1.696522	0.237007	-0.264655
H116	H	0.501982	0.679590	0.590840
H117	H	1.432854	0.144490	-0.033438
Br118	Br	0.822433	0.313750	0.231711
Br119	Br	0.881748	0.500736	0.543566
H120	H	1.866703	0.130254	-0.002980
H121	H	1.927505	0.111750	-0.467154
H122	H	0.407280	1.079161	0.630916
H123	H	1.432864	0.254456	-0.033418
H124	H	2.060469	0.111131	-0.701211
H125	H	0.603336	0.829836	0.693973
Br126	Br	1.639034	0.242554	-0.059065
Br127	Br	0.432557	1.099842	0.204283
H128	H	0.901875	0.046422	0.197211
H129	H	1.432875	-0.115131	-0.033471
H130	H	0.670619	0.944059	0.180967
Br131	Br	0.332592	0.955299	0.966535
H132	H	0.384257	1.046293	0.026816
