data_functionalizedCrystal
_audit_creation_method	'MofGen! by Chris Wilmer'
_symmetry_space_group_name_H-M	'P1'
_symmetry_Int_Tables_number	1
_symmetry_cell_setting	triclinic
loop_
_symmetry_equiv_pos_as_xyz
  x,y,z
_cell_length_a	18.266242
_cell_length_b	19.188930
_cell_length_c	19.188930
_cell_angle_alpha	83.144779
_cell_angle_beta	89.988525
_cell_angle_gamma	89.977082
loop_
_atom_site_label
_atom_site_type_symbol
_atom_site_fract_x
_atom_site_fract_y
_atom_site_fract_z
O1	O	0.061124	-0.926149	-0.087169
O2	O	0.061075	-0.722838	-0.098903
O3	O	0.061087	-0.830361	0.008620
O4	O	0.061113	-0.818627	-0.194691
O5	O	-0.060675	-0.830343	0.008625
O6	O	-0.060687	-0.722820	-0.098897
O7	O	-0.060638	-0.926131	-0.087163
Zn8	Zn	-0.079994	-0.824473	-0.093029
Zn9	Zn	0.080432	-0.824497	-0.093037
O10	O	-0.060649	-0.818608	-0.194686
C11	C	0.000188	-0.696818	-0.098520
C12	C	0.000169	-0.619313	-0.097380
N13	N	-0.189481	-0.824461	-0.093024
C14	C	0.000204	-0.829972	0.034634
C15	C	0.000197	-0.828831	0.112138
C16	C	-0.227785	-0.872088	-0.045436
C17	C	-0.304430	-0.872092	-0.045433
C18	C	-0.342768	-0.824477	-0.093030
C19	C	-0.304455	-0.776841	-0.140621
C20	C	-0.227812	-0.776834	-0.140618
N21	N	-0.463094	-0.815401	-0.154837
N22	N	-0.535902	-0.815413	-0.154838
C23	C	-0.573691	-0.824496	-0.093040
N24	N	-0.535920	-0.833582	-0.031239
N25	N	-0.463106	-0.833574	-0.031240
C26	C	-0.425875	-0.824480	-0.093038
C27	C	-0.695101	-0.872131	-0.045444
C28	C	-0.771748	-0.872130	-0.045440
C29	C	-0.771772	-0.776882	-0.140634
C30	C	-0.695127	-0.776879	-0.140632
C31	C	-0.656796	-0.824507	-0.093038
N32	N	0.189919	-0.824513	-0.093037
C33	C	0.000252	-0.952151	-0.087546
C34	C	0.000276	-1.029656	-0.088687
C35	C	0.000188	-0.574389	-0.160470
C36	C	0.000196	-0.501566	-0.159399
C37	C	0.000199	-0.473669	-0.095233
C38	C	0.000175	-0.518603	-0.032133
C39	C	0.000160	-0.591425	-0.033207
N40	N	0.041663	-0.365695	-0.046188
N41	N	0.041679	-0.296516	-0.045172
C42	C	0.000243	-0.254260	-0.091994
N43	N	-0.041200	-0.283795	-0.139881
N44	N	-0.041213	-0.352980	-0.140899
C45	C	0.000215	-0.394707	-0.094062
C46	C	0.000270	-0.130372	-0.153928
C47	C	0.000274	-0.057547	-0.152853
C48	C	0.000261	-0.074586	-0.025586
C49	C	0.000250	-0.147409	-0.026662
C50	C	0.000258	-0.175298	-0.090835
C51	C	0.000236	-0.818997	-0.220700
C52	C	0.000247	-0.820138	-0.298204
C53	C	0.000209	-0.891922	0.157062
C54	C	0.000220	-0.890850	0.229886
C55	C	0.000206	-0.826684	0.257782
C56	C	0.000198	-0.763585	0.212849
C57	C	0.000194	-0.764658	0.140026
N58	N	-0.041244	-0.777631	0.365789
N59	N	-0.041242	-0.776615	0.434968
C60	C	0.000220	-0.823446	0.477191
N61	N	0.041669	-0.871341	0.447624
N62	N	0.041664	-0.872359	0.378439
C63	C	0.000210	-0.825513	0.336745
C64	C	0.000245	-0.885379	0.601079
C65	C	0.000261	-0.884305	0.673904
C66	C	0.000231	-0.757038	0.656865
C67	C	0.000222	-0.758114	0.584042
C68	C	0.000226	-0.822287	0.556154
H69	H	-0.196579	-0.910868	-0.006681
H70	H	0.000267	-0.153080	-0.206181
H71	H	0.000208	-0.706738	0.547464
H72	H	0.000214	-0.944176	0.134360
H73	H	-0.196624	-0.738049	-0.179371
O74	O	0.000191	-0.604465	-0.229685
H75	H	0.000183	-0.662651	-0.219835
O76	O	-0.345752	-0.923468	0.005895
H77	H	-0.405486	-0.915469	-0.002102
O78	O	0.000167	-0.696606	0.091569
H79	H	0.049785	-0.665889	0.101449
O80	O	-0.345805	-0.725497	-0.191968
H81	H	-0.306290	-0.692376	-0.225061
O82	O	-0.653750	-0.923488	0.005894
H83	H	-0.693265	-0.956599	0.038996
H84	H	-0.802935	-0.910911	-0.006685
H85	H	0.000251	-0.937632	0.578372
O86	O	-0.813109	-0.725524	-0.191975
H87	H	-0.872841	-0.733533	-0.183986
O88	O	0.000266	-0.952358	0.722360
H89	H	0.049892	-0.983095	0.712451
O90	O	-0.653806	-0.725519	-0.191967
H91	H	-0.693338	-0.692412	-0.225069
O92	O	0.000225	-0.453098	-0.227448
H93	H	0.000233	-0.484725	-0.272251
O94	O	0.000179	-0.488521	0.037077
H95	H	0.000200	-0.430335	0.027225
H96	H	0.000233	-0.942228	0.266470
O97	O	0.000143	-0.639886	0.034843
H98	H	0.000148	-0.608257	0.079644
H99	H	0.000222	-0.704792	0.679578
H100	H	0.000285	-0.020970	-0.204232
H101	H	0.000309	-0.051874	0.026659
O102	O	0.000173	-0.694375	0.242930
H103	H	0.000168	-0.704227	0.301116
H104	H	0.000238	-0.183988	0.024713
