data_functionalizedCrystal
_audit_creation_method	'MofGen! by Chris Wilmer'
_symmetry_space_group_name_H-M	'P1'
_symmetry_Int_Tables_number	1
_symmetry_cell_setting	triclinic
loop_
_symmetry_equiv_pos_as_xyz
  x,y,z
_cell_length_a	14.853567
_cell_length_b	27.732048
_cell_length_c	13.930277
_cell_angle_alpha	89.990485
_cell_angle_beta	89.995755
_cell_angle_gamma	83.138793
loop_
_atom_site_label
_atom_site_type_symbol
_atom_site_fract_x
_atom_site_fract_y
_atom_site_fract_z
O1	O	1.195342	0.063107	-0.079776
O2	O	1.695342	0.563107	0.420224
O3	O	0.932760	0.070624	-0.079793
O4	O	1.432760	0.570624	0.420207
O5	O	1.072206	-0.003493	-0.079766
O6	O	1.572206	0.496507	0.420234
O7	O	1.055896	0.137224	-0.079803
O8	O	1.555896	0.637224	0.420197
O9	O	1.072187	-0.003495	0.079896
O10	O	1.572187	0.496505	0.579896
O11	O	0.932741	0.070622	0.079869
O12	O	1.432741	0.570622	0.579869
O13	O	1.195323	0.063105	0.079886
O14	O	1.695323	0.563105	0.579886
Zn15	Zn	1.064029	0.066863	0.105227
Zn16	Zn	1.564029	0.566863	0.605227
Zn17	Zn	1.064054	0.066866	-0.105134
Zn18	Zn	1.564054	0.566866	0.394866
O19	O	1.055877	0.137222	0.079859
O20	O	1.555877	0.637222	0.579859
C21	C	0.899167	0.070283	0.000036
C22	C	1.399167	0.570283	0.500036
C23	C	0.799100	0.069262	0.000030
C24	C	1.299100	0.569262	0.500030
C25	C	0.387353	0.020920	0.000064
C26	C	0.887353	0.520920	0.500064
C27	C	0.364639	0.108973	0.000040
C28	C	0.864639	0.608973	0.500040
C29	C	0.458657	0.109933	0.000036
C30	C	0.958657	0.609933	0.500036
C31	C	0.517028	0.066385	0.000045
C32	C	1.017028	0.566385	0.500045
C33	C	0.481380	0.021878	0.000058
C34	C	0.981380	0.521878	0.500058
C35	C	0.494313	0.154439	0.000014
C36	C	0.994313	0.654439	0.500014
C37	C	0.588336	0.155401	0.000010
C38	C	1.088336	0.655401	0.500010
C39	C	0.646708	0.111853	0.000026
C40	C	1.146708	0.611853	0.500026
C41	C	0.611055	0.067344	0.000039
C42	C	1.111055	0.567344	0.500039
C43	C	0.669425	0.023796	0.000048
C44	C	1.169425	0.523796	0.500048
C45	C	0.633774	-0.020713	0.000069
C46	C	1.133774	0.479287	0.500069
C47	C	0.539752	-0.021670	0.000074
C48	C	1.039752	0.478330	0.500074
C49	C	0.740730	0.112809	0.000021
C50	C	1.240730	0.612809	0.500021
C51	C	0.763452	0.024755	0.000042
C52	C	1.263452	0.524755	0.500042
C53	C	1.071854	-0.021503	0.000068
C54	C	1.571854	0.478497	0.500068
C55	C	1.070823	-0.075162	0.000076
C56	C	1.570823	0.424838	0.500076
C57	C	1.146736	-0.413622	0.000032
C58	C	1.646736	0.086378	0.500032
C59	C	1.142911	-0.615300	0.000018
C60	C	1.642911	-0.115300	0.500018
O61	O	1.212328	-0.646231	-0.000019
O62	O	1.712328	-0.146231	0.499981
N63	N	1.060225	-0.634810	0.000013
N64	N	1.560225	-0.134810	0.500013
C65	C	0.978490	-0.603898	0.000006
C66	C	1.478490	-0.103898	0.500006
O67	O	0.908073	-0.625120	-0.000008
O68	O	1.408073	-0.125120	0.499992
C69	C	0.982316	-0.402221	0.000013
C70	C	1.482316	0.097779	0.500013
C71	C	1.065007	-0.382714	0.000027
C72	C	1.565007	0.117286	0.500027
C73	C	1.229421	-0.394114	0.000045
C74	C	1.729421	0.105886	0.500045
C75	C	1.230376	-0.343698	0.000054
C76	C	1.730376	0.156302	0.500054
C77	C	1.148647	-0.312790	0.000049
C78	C	1.648647	0.187210	0.500049
C79	C	1.065963	-0.332298	0.000036
C80	C	1.565963	0.167702	0.500036
C81	C	0.900582	-0.371310	-0.000002
C82	C	1.400582	0.128690	0.499998
C83	C	0.901546	-0.320888	-0.000003
C84	C	1.401546	0.179112	0.499997
C85	C	0.984237	-0.301381	0.000012
C86	C	1.484237	0.198619	0.500012
C87	C	0.985189	-0.250973	0.000040
C88	C	1.485189	0.249027	0.500040
N89	N	1.067875	-0.231462	0.000044
N90	N	1.567875	0.268538	0.500044
C91	C	1.149604	-0.262371	0.000049
C92	C	1.649604	0.237629	0.500049
C93	C	0.976487	-0.709781	0.000004
C94	C	1.476487	-0.209781	0.500004
C95	C	0.975530	-0.760200	0.000004
C96	C	1.475530	-0.260200	0.500004
C97	C	1.139952	-0.771599	0.000015
C98	C	1.639952	-0.271599	0.500015
C99	C	1.140908	-0.721179	0.000021
C100	C	1.640908	-0.221179	0.500021
C101	C	1.059173	-0.690271	0.000009
C102	C	1.559173	-0.190271	0.500009
C103	C	1.151604	-0.156492	0.000068
C104	C	1.651604	0.343508	0.500068
C105	C	1.152552	-0.106071	0.000081
C106	C	1.652552	0.393929	0.500081
C107	C	0.988131	-0.094677	0.000065
C108	C	1.488131	0.405323	0.500065
C109	C	0.987183	-0.145094	0.000057
C110	C	1.487183	0.354906	0.500057
C111	C	1.068926	-0.176001	0.000056
C112	C	1.568926	0.323999	0.500056
O113	O	0.915809	-0.220013	0.000066
O114	O	1.415809	0.279987	0.500066
O115	O	1.220011	-0.241139	0.000042
O116	O	1.720011	0.258861	0.500042
C117	C	1.145781	-0.464039	0.000023
C118	C	1.645781	0.035961	0.500023
C119	C	1.063097	-0.483547	0.000010
C120	C	1.563097	0.016453	0.500010
C121	C	0.981367	-0.452638	0.000005
C122	C	1.481367	0.047362	0.500005
C123	C	1.062140	-0.533966	0.000010
C124	C	1.562140	-0.033966	0.500010
C125	C	1.143869	-0.564874	0.000014
C126	C	1.643869	-0.064874	0.500014
C127	C	1.226555	-0.545364	0.000019
C128	C	1.726555	-0.045364	0.500019
C129	C	1.227510	-0.494947	0.000028
C130	C	1.727510	0.005053	0.500028
C131	C	0.898682	-0.472149	0.000000
C132	C	1.398682	0.027851	0.500000
C133	C	0.897733	-0.522566	-0.000007
C134	C	1.397733	-0.022566	0.499993
C135	C	0.979462	-0.553474	-0.000003
C136	C	1.479462	-0.053474	0.499997
C137	C	1.228915	0.063446	0.000055
C138	C	1.728915	0.563446	0.500055
C139	C	1.328982	0.064467	0.000055
C140	C	1.828982	0.564467	0.500055
C141	C	1.056228	0.155232	0.000023
C142	C	1.556228	0.655232	0.500023
C143	C	1.057259	0.208891	0.000009
C144	C	1.557259	0.708891	0.500009
N145	N	1.064018	0.066862	0.248793
N146	N	1.564018	0.566862	0.748793
N147	N	1.064072	0.066863	-0.248700
N148	N	1.564072	0.566863	0.251300
C149	C	1.002305	0.099672	0.701050
C150	C	1.502305	0.599672	1.201050
C151	C	1.125828	0.034056	0.701044
C152	C	1.625828	0.534056	1.201044
C153	C	1.125817	0.034054	0.600549
C154	C	1.625817	0.534054	1.100549
C155	C	1.064050	0.066862	0.550299
C156	C	1.564050	0.566862	1.050299
C157	C	1.002294	0.099672	0.600545
C158	C	1.502294	0.599672	1.100545
C159	C	1.187578	0.001248	0.550295
C160	C	1.687578	0.501248	1.050295
C161	C	1.187571	0.001246	0.449793
C162	C	1.687571	0.501246	0.949793
C163	C	1.125799	0.034052	0.399542
C164	C	1.625799	0.534052	0.899542
C165	C	1.064040	0.066863	0.449794
C166	C	1.564040	0.566863	0.949794
C167	C	1.002273	0.099671	0.399545
C168	C	1.502273	0.599671	0.899545
C169	C	0.940508	0.132480	0.449795
C170	C	1.440508	0.632480	0.949795
C171	C	0.940522	0.132479	0.550294
C172	C	1.440522	0.632479	1.050294
C173	C	1.125785	0.034053	0.299043
C174	C	1.625785	0.534053	0.799043
C175	C	1.002262	0.099672	0.299040
C176	C	1.502262	0.599672	0.799040
H177	H	0.810972	-0.010707	0.000053
H178	H	1.310972	0.489293	0.500053
H179	H	0.681311	-0.056169	0.000070
H180	H	1.181311	0.443831	0.500070
H181	H	0.890237	0.159191	0.591214
H182	H	1.390237	0.659191	1.091214
Cl183	Cl	0.420931	0.209180	-0.000013
Cl184	Cl	0.920931	0.709180	0.499987
H185	H	0.317109	0.144427	0.000024
H186	H	0.817109	0.644427	0.500024
H187	H	0.358321	-0.015319	0.000085
H188	H	0.858321	0.484681	0.500085
H189	H	1.237871	-0.025461	0.591211
H190	H	1.737871	0.474539	1.091211
Cl191	Cl	1.244866	-0.696661	0.000038
Cl192	Cl	1.744866	-0.196661	0.500038
Cl193	Cl	0.924659	0.140914	0.764217
Cl194	Cl	1.424659	0.640914	1.264217
Cl195	Cl	0.924603	0.140917	0.235877
Cl196	Cl	1.424603	0.640917	0.735877
Cl197	Cl	0.862868	0.173727	0.386614
Cl198	Cl	1.362868	0.673727	0.886614
H199	H	1.206499	-0.796773	0.000019
H200	H	1.706499	-0.296773	0.500019
H201	H	0.617355	0.191643	-0.000007
H202	H	1.117355	0.691643	0.499993
H203	H	0.834986	-0.295725	-0.000014
H204	H	1.334986	0.204275	0.499986
H205	H	1.176076	0.007343	0.258133
H206	H	1.676076	0.507343	0.758133
Cl207	Cl	1.203480	-0.007185	0.764212
Cl208	Cl	1.703480	0.492815	1.264212
Cl209	Cl	1.265211	-0.040000	0.386627
Cl210	Cl	1.765211	0.460000	0.886627
H211	H	0.908195	-0.776078	0.000009
H212	H	1.408195	-0.276078	0.500009
Cl213	Cl	0.795925	-0.433299	-0.000007
Cl214	Cl	1.295925	0.066701	0.499993
Cl215	Cl	0.785546	0.168759	-0.000012
Cl216	Cl	1.285546	0.668759	0.499988
H217	H	1.218168	-0.181651	0.000063
H218	H	1.718168	0.318349	0.500063
Cl219	Cl	0.494927	-0.077619	0.000094
Cl220	Cl	0.994927	0.422381	0.500094
H221	H	1.219892	-0.090191	0.000095
H222	H	1.719892	0.409809	0.500095
H223	H	1.297712	-0.327820	0.000061
H224	H	1.797712	0.172180	0.500061
H225	H	1.295978	-0.419276	0.000045
H226	H	1.795978	0.080724	0.500045
Cl227	Cl	0.873724	-0.670932	-0.000011
Cl228	Cl	1.373724	-0.170932	0.499989
H229	H	0.833246	-0.387184	-0.000019
H230	H	1.333246	0.112816	0.499981
Cl231	Cl	0.883227	-0.169618	0.000057
Cl232	Cl	1.383227	0.330382	0.500057
H233	H	0.921590	-0.069502	0.000065
H234	H	1.421590	0.430498	0.500065
H235	H	1.294846	-0.479069	0.000039
H236	H	1.794846	0.020931	0.500039
Cl237	Cl	0.793767	-0.547082	-0.000021
Cl238	Cl	1.293767	-0.047082	0.499979
Cl239	Cl	1.329298	-0.584230	0.000029
Cl240	Cl	1.829298	-0.084230	0.500029
