data_functionalizedCrystal
_audit_creation_method	'MofGen! by Chris Wilmer'
_symmetry_space_group_name_H-M	'P1'
_symmetry_Int_Tables_number	1
_symmetry_cell_setting	triclinic
loop_
_symmetry_equiv_pos_as_xyz
  x,y,z
_cell_length_a	17.639044
_cell_length_b	17.640280
_cell_length_c	19.076919
_cell_angle_alpha	81.491119
_cell_angle_beta	103.912539
_cell_angle_gamma	70.392877
loop_
_atom_site_label
_atom_site_type_symbol
_atom_site_fract_x
_atom_site_fract_y
_atom_site_fract_z
Zn1	Zn	1.324079	-0.584527	-0.054009
Zn2	Zn	1.357405	-0.716778	0.093474
Zn3	Zn	1.189588	-0.553425	0.033820
Zn4	Zn	1.214122	-0.694454	-0.054041
O5	O	1.271299	-0.637296	0.004811
O6	O	1.444749	-0.624430	-0.009465
O7	O	1.338824	-0.691436	0.184053
O8	O	1.183214	-0.443183	-0.002783
O9	O	1.469234	-0.721594	0.098890
O10	O	1.282024	-0.466033	-0.067310
O11	O	1.215529	-0.571421	0.140225
O12	O	1.076594	-0.549774	-0.002814
O13	O	1.225029	-0.683545	-0.152529
O14	O	1.094619	-0.653387	-0.067366
O15	O	1.305814	-0.602783	-0.152505
O16	O	1.362613	-0.828186	0.098858
O17	O	1.257344	-0.811784	-0.009521
C18	C	1.055464	-0.595783	-0.041567
C19	C	0.963133	-0.578044	-0.061420
C20	C	1.316279	-0.849644	0.051127
C21	C	1.335597	-0.940503	0.070935
C22	C	0.820262	-0.502541	-0.145864
C23	C	0.907023	-0.519216	-0.127202
C24	C	0.932496	-0.620218	-0.014272
C25	C	0.845735	-0.603549	-0.032922
C26	C	0.789624	-0.544710	-0.098719
C27	C	0.815097	-0.645718	0.014222
C28	C	0.728344	-0.629053	-0.004429
C29	C	0.672229	-0.570219	-0.070224
C30	C	0.702871	-0.528046	-0.117370
C31	C	0.871210	-0.704561	0.080016
C32	C	0.840573	-0.746730	0.127161
C33	C	0.753818	-0.730061	0.108513
C34	C	0.697702	-0.671227	0.042717
C35	C	0.723175	-0.772235	0.155659
C36	C	0.636422	-0.755570	0.137008
C37	C	0.610949	-0.654562	0.024066
C38	C	1.124874	-1.196713	-0.145845
C39	C	1.143029	-1.282088	-0.127210
C40	C	1.252708	-1.299117	-0.014432
C41	C	1.234566	-1.213743	-0.033059
C42	C	1.170647	-1.162546	-0.098766
C43	C	1.280339	-1.179577	0.014020
C44	C	1.262194	-1.094209	-0.004604
C45	C	1.198277	-1.043007	-0.070306
C46	C	1.152503	-1.077178	-0.117390
C47	C	1.344253	-1.230773	0.079730
C48	C	1.390026	-1.196607	0.126808
C49	C	1.371886	-1.111239	0.108182
C50	C	1.307968	-1.060037	0.042480
C51	C	1.417660	-1.077067	0.155265
C52	C	1.399516	-0.991699	0.136642
C53	C	1.289824	-0.974669	0.023856
C54	C	1.487976	-0.678972	0.051370
C55	C	1.580312	-0.696732	0.071211
C56	C	1.264440	-0.644143	-0.178769
C57	C	1.261518	-0.647061	-0.257000
C58	C	1.226165	-0.424124	-0.041697
C59	C	1.206932	-0.333283	-0.061516
C60	C	1.302203	-0.606385	-0.293742
C61	C	1.299446	-0.609122	-0.367251
C62	C	1.256009	-0.652540	-0.404016
C63	C	1.215319	-0.693217	-0.367270
C64	C	1.218071	-0.690475	-0.293763
C65	C	1.243262	-0.665244	-0.623858
C66	C	1.240515	-0.667985	-0.697369
C67	C	1.324642	-0.583888	-0.697346
C68	C	1.327395	-0.581155	-0.623837
C69	C	1.286701	-0.621828	-0.587099
N70	N	1.253192	-0.655340	-0.479153
N71	N	1.289513	-0.619022	-0.511964
C72	C	1.278166	-0.630426	0.187675
C73	C	1.281200	-0.627309	0.265890
H74	H	0.565258	-0.606640	-0.029506
Cl75	Cl	1.166918	-0.741610	-0.247575
Cl76	Cl	0.911119	-0.820698	0.209873
H77	H	1.332579	-0.576001	-0.397162
H78	H	0.601590	-0.556654	-0.085410
H79	H	1.072831	-1.155027	-0.199354
H80	H	1.304748	-1.340812	0.039068
Cl81	Cl	1.185899	-0.722566	-0.743588
H82	H	1.359026	-1.300286	0.094889
Cl83	Cl	1.470380	-1.260976	0.209407
H84	H	0.657180	-0.480124	-0.170943
H85	H	1.362769	-0.545802	-0.593907
Cl86	Cl	1.209475	-0.910303	-0.058754
Cl87	Cl	0.945535	-0.466196	-0.186477
H88	H	1.100460	-1.035493	-0.170899
H89	H	1.179947	-0.728565	-0.397210
H90	H	0.774571	-0.454619	-0.199437
Cl91	Cl	1.003042	-0.694186	0.068440
H92	H	0.941847	-0.718115	0.095208
Cl93	Cl	0.793725	-0.846209	0.238366
H94	H	1.337577	-0.571032	-0.263813
H95	H	0.611478	-0.789910	0.175397
H96	H	1.357771	-0.550773	-0.727267
Cl97	Cl	1.498006	-1.141436	0.237868
Cl98	Cl	1.192104	-0.716377	-0.577682
Cl99	Cl	1.175650	-0.935728	-0.093842
H100	H	1.105760	-1.309903	-0.165559
H101	H	1.436788	-0.963881	0.174979
