data_functionalizedCrystal
_audit_creation_method	'MofGen! by Chris Wilmer'
_symmetry_space_group_name_H-M	'P1'
_symmetry_Int_Tables_number	1
_symmetry_cell_setting	triclinic
loop_
_symmetry_equiv_pos_as_xyz
  x,y,z
_cell_length_a	14.519709
_cell_length_b	15.455313
_cell_length_c	16.974829
_cell_angle_alpha	89.024636
_cell_angle_beta	96.461193
_cell_angle_gamma	92.679852
loop_
_atom_site_label
_atom_site_type_symbol
_atom_site_fract_x
_atom_site_fract_y
_atom_site_fract_z
O1	O	0.125710	0.145299	-1.042329
O2	O	0.139773	0.129198	-0.812917
O3	O	-0.001493	0.137667	-0.933706
O4	O	0.266976	0.136829	-0.921540
O5	O	-0.009547	-0.006111	-0.940606
O6	O	0.131719	-0.014581	-0.819817
O7	O	0.117656	0.001521	-1.049228
Cu8	Cu	0.123952	-0.019658	-0.935153
Cu9	Cu	0.133477	0.150376	-0.926993
O10	O	0.258922	-0.006949	-0.928440
C11	C	-0.039880	0.065738	-0.936589
C12	C	-0.142263	0.065619	-0.934890
C13	C	0.135060	0.055248	-0.787007
C14	C	0.133005	0.049107	-0.699523
N15	N	0.140169	0.269970	-0.921255
C16	C	-0.517162	0.065202	-0.928634
C17	C	-0.412853	0.065318	-0.930372
C18	C	-0.329716	0.065410	-0.931762
C19	C	-0.225400	0.065527	-0.933499
C20	C	0.297309	0.064982	-0.925557
C21	C	0.399692	0.065107	-0.927255
N22	N	0.117253	-0.139251	-0.940897
C23	C	0.080271	0.318969	-0.972668
C24	C	0.085330	0.409472	-0.968326
C25	C	0.150284	0.450975	-0.912567
C26	C	0.210188	0.401969	-0.861152
C27	C	0.205133	0.311467	-0.865498
C28	C	0.172102	0.721242	-0.893828
C29	C	0.177151	0.811750	-0.889484
C30	C	0.052293	0.819247	-0.996660
C31	C	0.047240	0.728744	-1.000998
C32	C	0.107147	0.679746	-0.949585
N33	N	0.155455	0.543483	-0.908127
N34	N	0.101980	0.587239	-0.954030
C35	C	0.122369	0.075473	-1.075138
C36	C	0.124424	0.081619	-1.162622
C37	C	0.121000	0.006130	-0.207482
C38	C	0.122930	0.011901	-0.289682
C39	C	0.128279	0.093162	-0.327022
C40	C	0.131706	0.168656	-0.282156
C41	C	0.129782	0.162884	-0.199957
C42	C	0.134509	0.118829	-0.572458
C43	C	0.136430	0.124596	-0.654664
C44	C	0.127655	-0.032160	-0.662184
C45	C	0.125726	-0.037925	-0.579983
C46	C	0.129159	0.037569	-0.535124
N47	N	0.130249	0.099063	-0.411044
N48	N	0.127195	0.031667	-0.451102
H49	H	0.027375	0.285184	-1.018069
H50	H	0.137301	0.180302	-0.535944
H51	H	0.220880	0.681355	-0.851964
H52	H	0.036557	0.449368	-1.010191
H53	H	0.121351	-0.104095	-0.549589
C54	C	0.119158	-0.071142	-0.339024
N55	N	0.116315	-0.133695	-0.376189
C56	C	0.123918	-0.115198	-0.711531
N57	N	0.121118	-0.177745	-0.748698
H58	H	0.140793	0.190771	-0.685062
C59	C	0.271024	0.257568	-0.808937
N60	N	0.320657	0.216972	-0.766335
C61	C	0.137588	0.258044	-0.323233
N62	N	0.142013	0.325373	-0.354172
H63	H	0.132573	0.224355	-0.163432
C64	C	-0.024242	0.683097	-1.062314
N65	N	-0.078095	0.648715	-1.108487
C66	C	-0.013605	0.873152	-1.053207
N67	N	-0.063243	0.913753	-1.095799
C68	C	0.248549	0.857396	-0.828092
N69	N	0.302300	0.891776	-0.781834
H70	H	0.116648	-0.060041	-0.177085
C71	C	0.281638	0.447624	-0.799816
N72	N	0.335453	0.482011	-0.753614
