data_functionalizedCrystal
_audit_creation_method	'MofGen! by Chris Wilmer'
_symmetry_space_group_name_H-M	'P1'
_symmetry_Int_Tables_number	1
_symmetry_cell_setting	triclinic
loop_
_symmetry_equiv_pos_as_xyz
  x,y,z
_cell_length_a	10.967926
_cell_length_b	19.188924
_cell_length_c	9.482900
_cell_angle_alpha	99.300357
_cell_angle_beta	92.549900
_cell_angle_gamma	83.944562
loop_
_atom_site_label
_atom_site_type_symbol
_atom_site_fract_x
_atom_site_fract_y
_atom_site_fract_z
O1	O	1.609558	0.123228	0.282342
O2	O	2.109558	0.623228	0.782342
O3	O	1.260336	0.124759	0.194848
O4	O	1.760336	0.624759	0.694848
O5	O	1.445026	0.022634	0.241137
O6	O	1.945026	0.522634	0.741137
O7	O	1.424867	0.225354	0.236052
O8	O	1.924867	0.725354	0.736052
O9	O	1.407511	0.043465	0.473527
O10	O	1.907511	0.543465	0.973527
O11	O	1.222821	0.145590	0.427238
O12	O	1.722821	0.645590	0.927238
O13	O	1.572042	0.144060	0.514732
O14	O	2.072042	0.644060	1.014732
Cu15	Cu	1.394006	0.146727	0.492204
Cu16	Cu	1.894006	0.646727	0.992204
Cu17	Cu	1.438372	0.122092	0.217376
Cu18	Cu	1.938372	0.622092	0.717376
O19	O	1.387352	0.246185	0.468442
O20	O	1.887352	0.746185	0.968442
C21	C	1.196900	0.133489	0.299849
C22	C	1.696900	0.633489	0.799849
C23	C	1.063773	0.128459	0.266496
C24	C	1.563773	0.628459	0.766496
C25	C	0.984987	0.137008	0.372011
C26	C	1.484987	0.637008	0.872011
C27	C	0.847393	0.131809	0.337541
C28	C	1.347393	0.631809	0.837541
C29	C	1.425617	0.007020	0.357170
C30	C	1.925617	0.507020	0.857170
C31	C	1.423660	-0.070542	0.356684
C32	C	1.923660	0.429458	0.856684
C33	C	1.443197	-0.118323	0.229779
C34	C	1.943197	0.381677	0.729779
C35	C	1.441344	-0.191201	0.229304
C36	C	1.941344	0.308799	0.729304
C37	C	1.419977	-0.216296	0.355747
C38	C	1.919977	0.283704	0.855747
C39	C	1.400431	-0.168504	0.482666
C40	C	1.900431	0.331496	0.982666
C41	C	1.402272	-0.095627	0.483135
C42	C	1.902272	0.404373	0.983135
N43	N	1.470110	-0.325598	0.466400
N44	N	1.970110	0.174402	0.966400
N45	N	1.468365	-0.394829	0.465946
N46	N	1.968365	0.105171	0.965946
C47	C	1.414424	-0.435868	0.354341
C48	C	1.914424	0.064132	0.854341
N49	N	1.362313	-0.405064	0.243189
N50	N	1.862313	0.094936	0.743189
N51	N	1.364065	-0.335828	0.243640
N52	N	1.864065	0.164172	0.743640
C53	C	1.417977	-0.295317	0.355252
C54	C	1.917977	0.204683	0.855252
C55	C	1.431951	-0.562672	0.226912
C56	C	1.931951	-0.062672	0.726912
C57	C	1.430089	-0.635550	0.226440
C58	C	1.930089	-0.135550	0.726440
C59	C	1.389188	-0.612853	0.479809
C60	C	1.889188	-0.112853	0.979809
C61	C	1.391038	-0.539976	0.480274
C62	C	1.891038	-0.039976	0.980274
C63	C	1.412426	-0.514890	0.353823
C64	C	1.912426	-0.014890	0.853823
C65	C	1.635479	0.135329	0.409727
C66	C	2.135479	0.635329	0.909727
C67	C	1.768607	0.140359	0.443071
C68	C	2.268607	0.640359	0.943071
C69	C	1.406762	0.261799	0.352406
C70	C	1.906762	0.761799	0.852406
C71	C	1.408720	0.339360	0.352883
C72	C	1.908720	0.839360	0.852883
N73	N	1.362810	0.164054	0.685505
N74	N	1.862810	0.664054	1.185505
N75	N	1.469578	0.104759	0.024077
N76	N	1.969578	0.604759	0.524077
C77	C	1.429162	0.127199	0.774335
C78	C	1.929162	0.627199	1.274335
C79	C	1.403216	0.141621	0.935249
C80	C	1.903216	0.641621	1.435249
H81	H	0.803013	0.151525	0.558934
H82	H	1.303013	0.651525	1.058934
H83	H	1.029361	0.117290	0.150642
H84	H	1.529361	0.617290	0.650642
Cl85	Cl	1.366475	-0.479905	0.639821
Cl86	Cl	1.866475	0.020095	1.139821
Cl87	Cl	1.546259	0.061832	0.707770
Cl88	Cl	2.046259	0.561832	1.207770
H89	H	1.019401	0.148171	0.487865
H90	H	1.519401	0.648171	0.987865
Cl91	Cl	1.587205	0.039709	0.957654
Cl92	Cl	2.087205	0.539709	1.457654
H93	H	1.327190	0.183851	0.978319
H94	H	1.827190	0.683851	1.478319
H95	H	1.286790	0.206282	0.728582
H96	H	1.786790	0.706282	1.228582
Cl97	Cl	1.470076	-0.086790	0.070810
Cl98	Cl	1.970076	0.413210	0.570810
Cl99	Cl	0.794281	0.114560	0.158658
Cl100	Cl	1.294281	0.614560	0.658658
H101	H	1.457246	-0.230111	0.125958
H102	H	1.957246	0.269889	0.625958
H103	H	1.371781	-0.633284	0.582759
H104	H	1.871781	-0.133284	1.082759
H105	H	1.383030	-0.188941	0.585616
H106	H	1.883030	0.311059	1.085616
H107	H	1.445993	-0.674454	0.123093
H108	H	1.945993	-0.174454	0.623093
H109	H	1.449359	-0.542246	0.123946
H110	H	1.949359	-0.042246	0.623946
Cl111	Cl	1.377708	-0.035556	0.642686
Cl112	Cl	1.877708	0.464444	1.142686
