data_functionalizedCrystal
_audit_creation_method	'MofGen! by Chris Wilmer'
_symmetry_space_group_name_H-M	'P1'
_symmetry_Int_Tables_number	1
_symmetry_cell_setting	triclinic
loop_
_symmetry_equiv_pos_as_xyz
  x,y,z
_cell_length_a	14.044220
_cell_length_b	15.995350
_cell_length_c	13.101039
_cell_angle_alpha	93.364563
_cell_angle_beta	86.340132
_cell_angle_gamma	88.340626
loop_
_atom_site_label
_atom_site_type_symbol
_atom_site_fract_x
_atom_site_fract_y
_atom_site_fract_z
O1	O	1.262914	0.197637	-0.085096
O2	O	1.596247	0.530971	0.248237
O3	O	1.929581	0.864304	0.581571
O4	O	0.986946	0.190352	-0.085122
O5	O	1.320280	0.523685	0.248211
O6	O	1.653613	0.857018	0.581544
O7	O	1.132474	0.072670	-0.085107
O8	O	1.465807	0.406004	0.248226
O9	O	1.799140	0.739337	0.581559
O10	O	1.117386	0.315319	-0.085111
O11	O	1.450720	0.648652	0.248223
O12	O	1.784053	0.981985	0.581556
O13	O	1.122032	0.081129	0.085321
O14	O	1.455366	0.414462	0.418655
O15	O	1.788699	0.747796	0.751988
O16	O	0.976505	0.198810	0.085307
O17	O	1.309838	0.532144	0.418640
O18	O	1.643172	0.865477	0.751973
O19	O	1.252472	0.206096	0.085333
O20	O	1.585806	0.539429	0.418666
O21	O	1.919139	0.872763	0.751999
Zn22	Zn	1.112831	0.203796	0.112379
Zn23	Zn	1.446164	0.537130	0.445712
Zn24	Zn	1.779498	0.870463	0.779046
Zn25	Zn	1.126588	0.192651	-0.112168
Zn26	Zn	1.459921	0.525985	0.221165
Zn27	Zn	1.793255	0.859318	0.554498
O28	O	1.106945	0.323777	0.085318
O29	O	1.440278	0.657111	0.418651
O30	O	1.773612	0.990444	0.751985
C31	C	0.946411	0.191392	0.000089
C32	C	1.279745	0.524726	0.333422
C33	C	1.613078	0.858059	0.666755
C34	C	0.841186	0.181881	0.000079
C35	C	1.174520	0.515214	0.333412
C36	C	1.507853	0.848547	0.666745
C37	C	0.648524	0.164494	0.000099
C38	C	0.981857	0.497827	0.333432
C39	C	1.315190	0.831160	0.666766
C40	C	0.590890	0.231950	0.000102
C41	C	0.924224	0.565283	0.333436
C42	C	1.257557	0.898616	0.666769
C43	C	0.483686	0.222275	0.000114
C44	C	0.817019	0.555609	0.333447
C45	C	1.150353	0.888942	0.666781
C46	C	0.755738	0.174167	0.000088
C47	C	1.089071	0.507500	0.333421
C48	C	1.422404	0.840833	0.666754
C49	C	1.126629	0.045658	0.000105
C50	C	1.459963	0.378992	0.333438
C51	C	1.793296	0.712325	0.666772
C52	C	1.124760	-0.047432	0.000099
C53	C	1.458093	0.285901	0.333432
C54	C	1.791427	0.619235	0.666766
C55	C	1.118044	-0.385681	0.000102
C56	C	1.451377	-0.052348	0.333435
C57	C	1.784711	0.280986	0.666768
C58	C	1.014425	-0.346007	-0.000290
C59	C	1.347759	-0.012674	0.333043
C60	C	1.681092	0.320659	0.666376
C61	C	1.016272	-0.249158	0.000094
C62	C	1.349606	0.084175	0.333427
C63	C	1.682939	0.417508	0.666761
C64	C	1.121375	-0.217872	0.000100
C65	C	1.454709	0.115462	0.333433
C66	C	1.788042	0.448795	0.666766
C67	C	1.166533	-0.250301	0.097426
C68	C	1.499866	0.083033	0.430759
C69	C	1.833199	0.416366	0.764093
C70	C	1.163924	-0.347127	0.097507
C71	C	1.497258	-0.013794	0.430841
C72	C	1.830591	0.319540	0.764174
C73	C	1.177939	-0.356944	-0.096302
C74	C	1.511272	-0.023611	0.237031
C75	C	1.844606	0.309722	0.570365
C76	C	1.177993	-0.260065	-0.097588
C77	C	1.511327	0.073269	0.235745
C78	C	1.844660	0.406602	0.569079
C79	C	1.123263	-0.123033	0.000102
C80	C	1.456597	0.210300	0.333435
C81	C	1.789930	0.543633	0.666769
C82	C	1.116159	-0.480519	0.000106
C83	C	1.449492	-0.147186	0.333440
C84	C	1.782825	0.186147	0.666773
C85	C	1.293008	0.205055	0.000120
C86	C	1.626341	0.538389	0.333453
C87	C	1.959674	0.871722	0.666786
C88	C	1.398233	0.214566	0.000123
C89	C	1.731566	0.547900	0.333456
C90	C	2.064900	0.881233	0.666790
C91	C	1.112789	0.350789	0.000103
C92	C	1.446123	0.684123	0.333437
C93	C	1.779456	1.017456	0.666770
C94	C	1.114659	0.443879	0.000103
C95	C	1.447993	0.777213	0.333436
C96	C	1.781326	1.110546	0.666769
N97	N	1.103449	0.211402	0.265626
N98	N	1.436782	0.544736	0.598960
N99	N	1.770116	0.878069	0.932293
N100	N	1.135977	0.185039	-0.265416
N101	N	1.469311	0.518373	0.067917
N102	N	1.802644	0.851706	0.401251
C103	C	1.090685	0.221758	0.474668
C104	C	1.424018	0.555091	0.808001
C105	C	1.757351	0.888425	1.141334
C106	C	1.148739	0.174686	0.525549
C107	C	1.482072	0.508019	0.858883
C108	C	1.815405	0.841353	1.192216
C109	C	1.141636	0.180448	0.641867
C110	C	1.474970	0.513781	0.975200
C111	C	1.808303	0.847115	1.308534
C112	C	1.097786	0.215997	0.358340
C113	C	1.431119	0.549330	0.691673
C114	C	1.764452	0.882664	1.025006
H115	H	0.980363	-0.227200	-0.069674
H116	H	1.313696	0.106133	0.263660
H117	H	1.647029	0.439466	0.596993
H118	H	1.145029	-0.239181	-0.169587
H119	H	1.478362	0.094152	0.163746
H120	H	1.811695	0.427486	0.497079
H121	H	0.977276	-0.371097	-0.070085
H122	H	1.310610	-0.037764	0.263248
H123	H	1.643943	0.295569	0.596582
H124	H	1.254394	-0.383030	-0.096952
H125	H	1.587727	-0.049697	0.236382
H126	H	1.921061	0.283637	0.569715
C127	C	0.607629	0.358917	-0.087536
C128	C	0.940963	0.692250	0.245798
C129	C	1.274296	1.025583	0.579131
C130	C	0.632952	0.319726	0.000080
C131	C	0.966286	0.653060	0.333413
C132	C	1.299619	0.986393	0.666746
H133	H	0.633593	0.413106	-0.087549
H134	H	0.966927	0.746439	0.245784
H135	H	1.300260	1.079773	0.579118
H136	H	0.632059	0.326404	-0.146952
H137	H	0.965393	0.659737	0.186381
H138	H	1.298726	0.993071	0.519715
H139	H	0.540058	0.363830	-0.087514
H140	H	0.873391	0.697163	0.245819
H141	H	1.206724	1.030496	0.579152
H142	H	0.700524	0.314807	0.000054
H143	H	1.033857	0.648141	0.333388
H144	H	1.367191	0.981474	0.666721
H145	H	0.608526	0.352247	0.059512
H146	H	0.941860	0.685580	0.392845
H147	H	1.275193	1.018913	0.726178
H148	H	1.254999	-0.239269	-0.103460
H149	H	1.588332	0.094064	0.229873
H150	H	1.921665	0.427397	0.563207
C151	C	1.324429	-0.256268	0.014905
C152	C	1.657762	0.077065	0.348238
C153	C	1.991096	0.410399	0.681572
C154	C	1.270471	-0.223201	0.102328
C155	C	1.603805	0.110132	0.435661
C156	C	1.937138	0.443466	0.768994
H157	H	1.388594	-0.239531	0.017929
H158	H	1.721927	0.093802	0.351262
H159	H	2.055261	0.427135	0.684596
H160	H	1.322801	-0.315679	0.011997
H161	H	1.656135	0.017655	0.345330
H162	H	1.989468	0.350988	0.678664
H163	H	1.298492	-0.236006	-0.044500
H164	H	1.631825	0.097327	0.288833
H165	H	1.965158	0.430660	0.622166
H166	H	1.296404	-0.243467	0.161733
H167	H	1.629738	0.089866	0.495067
H168	H	1.963071	0.423199	0.828400
H169	H	1.272104	-0.163778	0.105246
H170	H	1.605437	0.169556	0.438579
H171	H	1.938770	0.502889	0.771912
H172	H	1.203775	0.130059	0.481753
H173	H	1.537108	0.463393	0.815086
H174	H	1.870442	0.796726	1.148419
H175	H	1.035653	0.266383	0.518459
H176	H	1.368986	0.599716	0.851793
H177	H	1.702320	0.933050	1.185126
H178	H	0.617354	0.099482	0.000106
H179	H	0.950687	0.432815	0.333439
H180	H	1.284021	0.766149	0.666772
C181	C	1.209154	-0.443063	-0.251879
C182	C	1.542487	-0.109729	0.081455
C183	C	1.875820	0.223604	0.414788
C184	C	1.138297	-0.393028	-0.195887
C185	C	1.471630	-0.059694	0.137446
C186	C	1.804963	0.273639	0.470779
H187	H	1.184668	-0.465342	-0.313350
H188	H	1.518002	-0.132009	0.019983
H189	H	1.851335	0.201324	0.353316
H190	H	1.262602	-0.410118	-0.268129
H191	H	1.595935	-0.076784	0.065205
H192	H	1.929269	0.256549	0.398538
H193	H	1.228232	-0.487671	-0.212133
H194	H	1.561566	-0.154337	0.121201
H195	H	1.894899	0.178996	0.454534
H196	H	1.119223	-0.348416	-0.235631
H197	H	1.452556	-0.015083	0.097703
H198	H	1.785890	0.318251	0.431036
H199	H	1.084831	-0.425975	-0.179639
H200	H	1.418165	-0.092641	0.153694
H201	H	1.751498	0.240692	0.487027
H202	H	0.968933	-0.365237	0.069108
H203	H	1.302266	-0.031904	0.402441
H204	H	1.635599	0.301429	0.735775
H205	H	0.971537	-0.220847	0.069973
H206	H	1.304870	0.112486	0.403306
H207	H	1.638204	0.445820	0.736640
H208	H	1.122190	-0.364602	0.170256
H209	H	1.455524	-0.031268	0.503589
H210	H	1.788857	0.302065	0.836923
H211	H	1.239746	-0.373472	0.101927
H212	H	1.573080	-0.040139	0.435261
H213	H	1.906413	0.293194	0.768594
H214	H	1.126590	-0.220977	0.169849
H215	H	1.459924	0.112357	0.503182
H216	H	1.793257	0.445690	0.836515
