data_functionalizedCrystal
_audit_creation_method	'MofGen! by Chris Wilmer'
_symmetry_space_group_name_H-M	'P1'
_symmetry_Int_Tables_number	1
_symmetry_cell_setting	triclinic
loop_
_symmetry_equiv_pos_as_xyz
  x,y,z
_cell_length_a	10.908937
_cell_length_b	9.016244
_cell_length_c	11.026607
_cell_angle_alpha	90.000600
_cell_angle_beta	95.664014
_cell_angle_gamma	90.008636
loop_
_atom_site_label
_atom_site_type_symbol
_atom_site_fract_x
_atom_site_fract_y
_atom_site_fract_z
O1	O	1.662453	0.123386	0.179065
O2	O	1.309520	0.123378	0.088528
O3	O	1.456736	0.123376	0.304547
O4	O	1.515237	0.123388	-0.036954
O5	O	1.456709	-0.123305	0.304537
O6	O	1.309494	-0.123303	0.088518
O7	O	1.662426	-0.123295	0.179055
Cu8	Cu	1.485958	-0.145823	0.133786
Cu9	Cu	1.485989	0.145906	0.133797
O10	O	1.515211	-0.123293	-0.036964
C11	C	1.263622	0.000036	0.080062
C12	C	1.126895	0.000033	0.054865
C13	C	0.915317	0.000057	0.120775
C14	C	1.056631	0.000038	0.146820
N15	N	1.485944	-0.351009	0.133780
C16	C	1.406818	-0.586041	0.018477
C17	C	1.407117	-0.414150	0.018171
C18	C	1.620070	-0.413344	0.133189
C19	C	1.619672	-0.585288	0.132407
C20	C	1.432148	-0.585558	0.250251
C21	C	1.429386	-0.413604	0.248841
C22	C	1.708325	0.000050	0.187521
C23	C	1.845052	0.000062	0.212718
C24	C	1.445930	0.000037	0.347575
C25	C	1.413757	0.000041	0.475796
N26	N	1.486010	0.351092	0.133814
C27	C	1.526016	0.000049	-0.079992
C28	C	1.558189	0.000054	-0.208213
C29	C	1.502592	0.000045	0.567529
C30	C	1.469342	0.000050	0.700053
H31	H	0.889514	0.000062	0.310715
H32	H	1.681927	-0.626871	0.214482
H33	H	1.603262	0.000039	0.547952
H34	H	0.870855	0.000076	0.022779
H35	H	1.368665	0.000058	0.719623
C36	C	1.279499	0.000349	0.501812
C37	C	1.221313	0.127277	0.450654
C38	C	1.097635	0.127622	0.474603
H39	H	1.239634	-0.085575	0.467173
H40	H	1.274939	0.000434	0.587410
H41	H	1.225864	0.127178	0.365072
H42	H	1.261140	0.213221	0.485283
H43	H	1.093076	0.127707	0.560202
H44	H	1.057783	0.041692	0.439963
H45	H	1.058144	0.213747	0.439907
C46	C	1.067794	-0.000183	-0.075875
C47	C	1.104865	-0.127078	-0.135692
C48	C	1.050458	-0.127318	-0.256132
H49	H	0.980690	-0.000247	-0.076186
H50	H	1.092869	0.085794	-0.116698
H51	H	1.079782	-0.213033	-0.094880
H52	H	1.191961	-0.127042	-0.135414
H53	H	1.075533	-0.041341	-0.296954
H54	H	0.963355	-0.127377	-0.256430
H55	H	1.075611	-0.213407	-0.296735
C56	C	1.275294	-0.358238	0.013476
C57	C	1.194658	-0.479276	0.010902
C58	C	1.073208	-0.427837	0.006553
H59	H	1.265972	-0.299537	0.083509
H60	H	1.256924	-0.299956	-0.057780
H61	H	1.213022	-0.537534	0.082151
H62	H	1.203941	-0.537989	-0.059126
H63	H	1.054837	-0.369554	-0.064703
H64	H	1.063898	-0.369135	0.076587
H65	H	1.018480	-0.509952	0.004795
C66	C	1.692383	0.000287	0.765534
C67	C	1.716000	0.127179	0.698431
C68	C	1.839598	0.127435	0.674212
H69	H	1.743936	0.000366	0.840174
H70	H	1.708646	-0.085692	0.719958
H71	H	1.699750	0.213136	0.744007
H72	H	1.664478	0.127127	0.623778
H73	H	1.855862	0.041456	0.628636
H74	H	1.891140	0.127510	0.748858
H75	H	1.855636	0.213522	0.628671
C76	C	1.455891	-0.643814	-0.096881
C77	C	1.363455	-0.724459	-0.165027
C78	C	1.408626	-0.777720	-0.271290
H79	H	1.480369	-0.562689	-0.143892
H80	H	1.524751	-0.706392	-0.075721
H81	H	1.294617	-0.661884	-0.186189
H82	H	1.338968	-0.805604	-0.118053
H83	H	1.477487	-0.840299	-0.250131
H84	H	1.433104	-0.696587	-0.318291
H85	H	1.345921	-0.832455	-0.317535
H86	H	1.681562	-0.372440	0.216036
H87	H	1.101088	0.000037	0.244824
C88	C	1.297688	-0.359205	0.250500
C89	C	1.287695	-0.277112	0.356857
C90	C	1.166392	-0.226981	0.358429
H91	H	1.276376	-0.298256	0.181361
H92	H	1.243492	-0.441848	0.248580
H93	H	1.341874	-0.194480	0.358765
H94	H	1.308982	-0.338030	0.426013
H95	H	1.112195	-0.309624	0.356509
H96	H	1.145091	-0.166038	0.289286
H97	H	1.159593	-0.171287	0.430596
H98	H	1.444415	-0.372999	-0.068776
H99	H	1.307779	-0.627437	0.014701
C100	C	1.678155	-0.356212	0.022454
C101	C	1.709145	-0.476356	-0.048955
C102	C	1.762664	-0.423790	-0.150969
H103	H	1.621266	-0.293979	-0.024258
H104	H	1.750348	-0.301303	0.048408
H105	H	1.636963	-0.531240	-0.074911
H106	H	1.766046	-0.538600	-0.002280
H107	H	1.834856	-0.368881	-0.125014
H108	H	1.705768	-0.361557	-0.197670
H109	H	1.783707	-0.505299	-0.199426
C110	C	1.498622	-0.356219	0.365847
C111	C	1.594204	-0.262800	0.337293
C112	C	1.658035	-0.209933	0.445047
H113	H	1.443742	-0.302446	0.411163
H114	H	1.531986	-0.437510	0.412988
H115	H	1.560840	-0.181522	0.290171
H116	H	1.649111	-0.316540	0.291993
H117	H	1.691399	-0.291224	0.492188
H118	H	1.603146	-0.156167	0.490355
H119	H	1.722901	-0.146554	0.425688
C120	C	1.302547	-0.643334	0.259789
C121	C	1.257456	-0.584851	0.364314
C122	C	1.138077	-0.638057	0.373133
H123	H	1.250474	-0.613930	0.189786
H124	H	1.304231	-0.748512	0.264894
H125	H	1.255764	-0.479695	0.359199
H126	H	1.309494	-0.614250	0.434335
H127	H	1.139762	-0.743236	0.378238
H128	H	1.086016	-0.608650	0.303125
H129	H	1.107473	-0.598396	0.444058
H130	H	1.662863	-0.625374	0.048279
H131	H	1.489572	-0.626211	0.335776
