data_functionalizedCrystal
_audit_creation_method	'MofGen! by Chris Wilmer'
_symmetry_space_group_name_H-M	'P1'
_symmetry_Int_Tables_number	1
_symmetry_cell_setting	triclinic
loop_
_symmetry_equiv_pos_as_xyz
  x,y,z
_cell_length_a	14.853569
_cell_length_b	13.339070
_cell_length_c	11.804365
_cell_angle_alpha	74.895281
_cell_angle_beta	101.862841
_cell_angle_gamma	99.632562
loop_
_atom_site_label
_atom_site_type_symbol
_atom_site_fract_x
_atom_site_fract_y
_atom_site_fract_z
O1	O	-1.242370	-0.111737	-0.098973
O2	O	-0.983832	-0.127470	-0.098992
O3	O	-1.083425	0.027696	-0.098957
O4	O	-1.142776	-0.266904	-0.099007
O5	O	-1.057196	-0.013112	0.099090
O6	O	-0.957602	-0.168279	0.099055
O7	O	-1.216140	-0.152546	0.099074
Cu8	Cu	-1.084476	-0.164138	0.117148
Cu9	Cu	-1.115496	-0.115878	-0.117066
O10	O	-1.116547	-0.307713	0.099040
C11	C	-0.936951	-0.147161	0.000030
C12	C	-0.836336	-0.145022	0.000024
C13	C	-1.060286	0.044995	0.000070
C14	C	-1.030404	0.157337	0.000081
N15	N	-1.062665	-0.198082	0.281881
C16	C	-0.776753	-0.051844	0.000035
C17	C	-0.801375	-0.236191	0.000017
C18	C	-0.706841	-0.234186	0.000018
C19	C	-0.647259	-0.141009	0.000029
C20	C	-0.682210	-0.049836	0.000040
C21	C	-0.671880	-0.325359	0.000020
C22	C	-0.577341	-0.323358	0.000022
C23	C	-0.517758	-0.230177	0.000025
C24	C	-0.552715	-0.139001	0.000034
C25	C	-0.493133	-0.045823	0.000045
C26	C	-0.528089	0.045356	0.000045
C27	C	-0.622627	0.043344	0.000042
C28	C	-0.423221	-0.228166	0.000028
C29	C	-0.398590	-0.043816	0.000049
C30	C	-0.263022	-0.132854	0.000048
C31	C	-0.363638	-0.134988	0.000039
C32	C	-1.262728	0.521786	0.000153
C33	C	-1.290805	0.416235	0.000149
C34	C	-1.225707	0.351505	0.000132
C35	C	-1.132527	0.392337	0.000118
C36	C	-1.104446	0.497897	0.000131
C37	C	-1.067425	0.327616	0.000110
C38	C	-0.974245	0.368449	0.000097
C39	C	-0.946169	0.473999	0.000109
C40	C	-1.011266	0.538728	0.000127
C41	C	-1.095507	0.222056	0.000097
C42	C	-0.937224	0.198167	0.000076
C43	C	-0.909147	0.303719	0.000080
C44	C	-1.139681	0.674981	0.000050
C45	C	-1.169549	0.562617	0.000148
N46	N	-1.137312	-0.081927	-0.281799
C47	C	-1.189683	-0.000397	0.655873
C48	C	-1.206181	0.025285	0.531217
C49	C	-1.170303	-0.030554	0.468877
C50	C	-1.117925	-0.112080	0.531205
C51	C	-1.101432	-0.137771	0.655873
C52	C	-1.082052	-0.167928	0.468877
C53	C	-1.029674	-0.249454	0.531205
C54	C	-1.013183	-0.275140	0.655861
C55	C	-1.049061	-0.219300	0.718202
C56	C	-1.098545	-0.142237	0.344209
C57	C	-1.010294	-0.279611	0.344209
C58	C	-0.993796	-0.305293	0.468865
H59	H	-0.479566	0.121223	0.000047
H60	H	-1.248827	0.091662	0.480474
H61	H	-0.988411	0.624679	0.000125
H62	H	-0.951149	-0.371675	0.519628
H63	H	-1.218896	0.045055	0.706639
H64	H	-0.350084	0.032063	0.000052
H65	H	-0.651097	0.117576	0.000045
N66	N	-0.845665	0.518036	0.000129
H67	H	-0.808685	0.461016	0.000120
H68	H	-0.840283	0.576441	-0.073279
N69	N	-0.865628	-0.336688	0.000008
H70	H	-0.895680	-0.356755	0.073423
H71	H	-0.915068	-0.326433	-0.073458
N72	N	-1.255987	0.237662	0.000120
H73	H	-1.324894	0.221617	0.000126
H74	H	-1.241346	0.222754	-0.073312
H75	H	-0.548889	-0.397601	0.000020
H76	H	-1.183738	-0.009640	0.367376
H77	H	-0.970543	-0.341531	0.706609
H78	H	-0.720397	-0.401221	0.000019
N79	N	-1.155026	-0.054308	0.276977
H80	H	-1.219088	-0.070561	0.298654
H81	H	-1.123729	0.013027	0.298714
N82	N	-1.391297	0.372194	0.000169
H83	H	-1.428276	0.429213	0.000181
H84	H	-1.416124	0.344042	-0.073251
H85	H	-1.315719	0.574495	0.000177
N86	N	-1.031264	-0.247003	0.852656
H87	H	-1.061938	-0.199253	0.882684
H88	H	-1.057603	-0.321989	0.882575
H89	H	-0.394762	-0.302404	0.000038
N90	N	-0.971597	-0.339850	0.276988
H91	H	-0.989990	-0.311203	0.188558
H92	H	-0.901803	-0.332520	0.298792
H93	H	-0.805220	0.022393	0.000031
N94	N	-1.196002	0.178027	0.000104
H95	H	-1.203918	0.101337	0.000097
H96	H	-1.215920	0.186572	0.073532
N97	N	-0.808646	0.347756	0.000074
H98	H	-0.803195	0.406144	-0.073337
H99	H	-0.783804	0.375832	0.073543
H100	H	-0.884215	0.145463	0.000068
