data_functionalizedCrystal
_audit_creation_method	'MofGen! by Chris Wilmer'
_symmetry_space_group_name_H-M	'P1'
_symmetry_Int_Tables_number	1
_symmetry_cell_setting	triclinic
loop_
_symmetry_equiv_pos_as_xyz
  x,y,z
_cell_length_a	13.262390
_cell_length_b	11.792254
_cell_length_c	12.376457
_cell_angle_alpha	101.355083
_cell_angle_beta	63.168449
_cell_angle_gamma	84.320360
loop_
_atom_site_label
_atom_site_type_symbol
_atom_site_fract_x
_atom_site_fract_y
_atom_site_fract_z
O1	O	1.512549	0.024069	-0.559053
O2	O	2.012549	0.524069	-0.059053
O3	O	1.185667	0.063847	-0.458552
O4	O	1.685667	0.563847	0.041448
O5	O	1.357031	-0.121785	-0.511230
O6	O	1.857031	0.378215	-0.011230
O7	O	1.341185	0.209701	-0.506374
O8	O	1.841185	0.709701	-0.006374
O9	O	1.314205	-0.075437	-0.310053
O10	O	1.814205	0.424563	0.189947
O11	O	1.142841	0.110195	-0.257375
O12	O	1.642841	0.610195	0.242625
O13	O	1.469723	0.070417	-0.357875
O14	O	1.969723	0.570417	0.142125
Zn15	Zn	1.299482	0.097665	-0.275684
Zn16	Zn	1.799482	0.597665	0.224316
Zn17	Zn	1.355908	0.036599	-0.540743
Zn18	Zn	1.855908	0.536599	-0.040743
O19	O	1.298359	0.256049	-0.305197
O20	O	1.798359	0.756049	0.194803
C21	C	1.122406	0.089054	-0.345097
C22	C	1.622406	0.589054	0.154903
C23	C	0.997711	0.095098	-0.306759
C24	C	1.497711	0.595098	0.193241
C25	C	0.739608	0.011057	-0.637356
C26	C	1.239608	0.511057	-0.137356
C27	C	0.856766	0.005373	-0.673379
C28	C	1.356766	0.505373	-0.173379
C29	C	0.892008	0.027804	-0.581727
C30	C	1.392008	0.527804	-0.081727
C31	C	0.810080	0.055920	-0.454047
C32	C	1.310080	0.555920	0.045953
C33	C	0.692912	0.061595	-0.418021
C34	C	1.192912	0.561595	0.081979
C35	C	0.845312	0.078342	-0.362391
C36	C	1.345312	0.578342	0.137609
C37	C	0.763385	0.106458	-0.234711
C38	C	1.263385	0.606458	0.265289
C39	C	0.646228	0.112133	-0.198692
C40	C	1.146228	0.612133	0.301308
C41	C	0.610986	0.089702	-0.290343
C42	C	1.110986	0.589702	0.209657
C43	C	0.962481	0.072666	-0.398417
C44	C	1.462481	0.572666	0.101583
C45	C	0.915785	0.123204	-0.179082
C46	C	1.415785	0.623204	0.320918
C47	C	0.798627	0.128889	-0.143059
C48	C	1.298627	0.628889	0.356941
C49	C	1.334620	-0.140830	-0.410335
C50	C	1.834620	0.359170	0.089665
C51	C	1.331632	-0.266626	-0.409417
C52	C	1.831632	0.233374	0.090583
C53	C	1.329204	-0.368787	-0.408675
C54	C	1.829204	0.131213	0.091325
C55	C	1.326170	-0.496955	-0.407753
C56	C	1.826170	0.003045	0.092247
C57	C	1.532985	0.045210	-0.471333
C58	C	2.032985	0.545210	0.028667
C59	C	1.657682	0.039164	-0.509679
C60	C	2.157682	0.539164	-0.009679
C61	C	1.320771	0.275093	-0.406095
C62	C	1.820771	0.775093	0.093905
C63	C	1.323761	0.400887	-0.407021
C64	C	1.823761	0.900887	0.092979
N65	N	1.260982	0.139339	-0.094790
N66	N	1.760982	0.639339	0.405210
N67	N	1.394417	-0.005084	-0.721640
N68	N	1.894417	0.494916	-0.221640
C69	C	1.483789	-0.101846	0.191703
C70	C	1.983789	0.398154	0.691703
C71	C	1.510729	-0.131013	0.065081
C72	C	2.010729	0.368987	0.565081
C73	C	1.448295	-0.063428	0.025107
C74	C	1.948295	0.436572	0.525107
C75	C	1.358915	0.033330	0.111767
C76	C	1.858915	0.533330	0.611767
C77	C	1.331978	0.062506	0.238399
C78	C	1.831978	0.562506	0.738399
C79	C	1.296484	0.100924	0.071803
C80	C	1.796484	0.600924	0.571803
C81	C	1.207105	0.197682	0.158463
C82	C	1.707105	0.697682	0.658463
C83	C	1.180171	0.226853	0.285082
C84	C	1.680171	0.726853	0.785082
C85	C	1.242606	0.159268	0.325057
C86	C	1.742606	0.659268	0.825057
C87	C	1.323421	0.071748	-0.054829
C88	C	1.823421	0.571748	0.445171
C89	C	1.171610	0.236100	-0.008133
C90	C	1.671610	0.736100	0.491867
C91	C	1.144670	0.265268	0.118489
C92	C	1.644670	0.765268	0.618489
H93	H	0.731906	0.151780	-0.039100
H94	H	1.231906	0.651780	0.460900
F95	F	1.605849	-0.233984	-0.027144
F96	F	2.105849	0.266016	0.472856
H97	H	0.987404	0.023175	-0.611064
H98	H	1.487404	0.523175	-0.111064
H99	H	1.470233	-0.087181	-0.077995
H100	H	1.970233	0.412819	0.422005
F101	F	1.418541	-0.031226	-0.147044
F102	F	1.918541	0.468774	0.352956
F103	F	1.550236	-0.173757	0.234250
F104	F	2.050236	0.326243	0.734250
F105	F	1.085058	0.329842	0.377309
F106	F	1.585058	0.829842	0.877309
H107	H	0.944477	0.141468	-0.104451
H108	H	1.444477	0.641468	0.395549
H109	H	1.220669	0.183012	0.428162
H110	H	1.720669	0.683012	0.928162
H111	H	1.071895	0.344051	0.189063
H112	H	1.571895	0.844051	0.689063
H113	H	0.515588	0.094333	-0.261020
H114	H	1.015588	0.594333	0.238980
H115	H	1.120772	0.291136	-0.040678
H116	H	1.620772	0.791136	0.459322
H117	H	1.029175	0.049777	-0.502375
H118	H	1.529175	0.549777	-0.002375
H119	H	0.710902	-0.007214	-0.711966
H120	H	1.210902	0.492786	-0.211966
F121	F	0.559038	0.142050	-0.062803
F122	F	1.059038	0.642050	0.437197
F123	F	0.943950	-0.024553	-0.809260
F124	F	1.443950	0.475447	-0.309260
