data_functionalizedCrystal
_audit_creation_method	'MofGen! by Chris Wilmer'
_symmetry_space_group_name_H-M	'P1'
_symmetry_Int_Tables_number	1
_symmetry_cell_setting	triclinic
loop_
_symmetry_equiv_pos_as_xyz
  x,y,z
_cell_length_a	17.699083
_cell_length_b	9.065218
_cell_length_c	7.540329
_cell_angle_alpha	90.003038
_cell_angle_beta	89.995522
_cell_angle_gamma	95.850550
loop_
_atom_site_label
_atom_site_type_symbol
_atom_site_fract_x
_atom_site_fract_y
_atom_site_fract_z
O1	O	0.110973	-1.957110	-0.147491
O2	O	0.444306	-1.623776	0.185842
O3	O	0.777639	-1.290443	0.519175
O4	O	0.120075	-1.527555	-0.147494
O5	O	0.453409	-1.194222	0.185839
O6	O	0.786742	-0.860888	0.519173
O7	O	0.005430	-1.754468	-0.147477
O8	O	0.338763	-1.421135	0.185856
O9	O	0.672096	-1.087802	0.519190
O10	O	0.225619	-1.730196	-0.147508
O11	O	0.558952	-1.396863	0.185825
O12	O	0.892285	-1.063530	0.519158
O13	O	0.005428	-1.754455	0.147488
O14	O	0.338761	-1.421122	0.480821
O15	O	0.672095	-1.087788	0.814155
O16	O	0.120074	-1.527542	0.147471
O17	O	0.453407	-1.194208	0.480804
O18	O	0.786741	-0.860875	0.814138
O19	O	0.110971	-1.957096	0.147474
O20	O	0.444305	-1.623763	0.480807
O21	O	0.777638	-1.290430	0.814140
Cu22	Cu	0.115522	-1.742318	0.174405
Cu23	Cu	0.448856	-1.408984	0.507738
Cu24	Cu	0.782189	-1.075651	0.841072
Cu25	Cu	0.115524	-1.742334	-0.174425
Cu26	Cu	0.448858	-1.409000	0.158908
Cu27	Cu	0.782191	-1.075667	0.492241
O28	O	0.225617	-1.730183	0.147457
O29	O	0.558950	-1.396850	0.480790
O30	O	0.892284	-1.063516	0.814123
C31	C	0.119200	-1.472588	-0.000012
C32	C	0.452533	-1.139254	0.333322
C33	C	0.785866	-0.805921	0.666655
C34	C	0.116584	-1.308822	-0.000012
C35	C	0.449917	-0.975489	0.333321
C36	C	0.783251	-0.642156	0.666654
C37	C	-0.022775	-1.753592	0.000006
C38	C	0.310558	-1.420259	0.333339
C39	C	0.643892	-1.086925	0.666672
C40	C	-0.106813	-1.750983	0.000007
C41	C	0.226520	-1.417649	0.333340
C42	C	0.559853	-1.084316	0.666673
C43	C	0.111847	-2.012064	-0.000012
C44	C	0.445180	-1.678730	0.333321
C45	C	0.778514	-1.345397	0.666654
C46	C	0.114463	-2.175829	-0.000023
C47	C	0.447796	-1.842496	0.333310
C48	C	0.781129	-1.509162	0.666643
C49	C	-0.154396	-1.884176	0.000010
C50	C	0.178938	-1.550843	0.333343
C51	C	0.512271	-1.217509	0.666677
C52	C	-0.233358	-1.881716	-0.000006
C53	C	0.099975	-1.548382	0.333328
C54	C	0.433308	-1.215049	0.666661
C55	C	-0.264737	-1.746060	-0.000012
C56	C	0.068596	-1.412727	0.333321
C57	C	0.401930	-1.079394	0.666654
C58	C	-0.217149	-1.612857	-0.000021
C59	C	0.116185	-1.279524	0.333312
C60	C	0.449518	-0.946190	0.666646
C61	C	-0.138188	-1.615319	-0.000018
C62	C	0.195146	-1.281986	0.333315
C63	C	0.528479	-0.948652	0.666649
C64	C	-0.535589	-1.602925	-0.000035
C65	C	-0.202256	-1.269592	0.333298
C66	C	0.131078	-0.936259	0.666631
C67	C	-0.614556	-1.600474	-0.000033
C68	C	-0.281223	-1.267140	0.333300
C69	C	0.052111	-0.933807	0.666634
C70	C	-0.630760	-1.869322	-0.000023
C71	C	-0.297426	-1.535989	0.333310
C72	C	0.035907	-1.202656	0.666643
C73	C	-0.551799	-1.871784	-0.000020
C74	C	-0.218465	-1.538451	0.333313
C75	C	0.114868	-1.205118	0.666646
C76	C	-0.504217	-1.738581	-0.000038
C77	C	-0.170884	-1.405248	0.333295
C78	C	0.162449	-1.071915	0.666628
C79	C	-0.418597	-1.741251	-0.000025
C80	C	-0.085264	-1.407918	0.333309
C81	C	0.248069	-1.074584	0.666642
C82	C	-0.350355	-1.743390	-0.000013
C83	C	-0.017022	-1.410056	0.333320
C84	C	0.316311	-1.076723	0.666654
C85	C	0.253822	-1.731059	-0.000030
C86	C	0.587155	-1.397726	0.333303
C87	C	0.920488	-1.064393	0.666637
C88	C	0.337860	-1.733669	-0.000042
C89	C	0.671193	-1.400335	0.333291
C90	C	1.004527	-1.067002	0.666624
N91	N	0.115521	-1.742317	0.419754
N92	N	0.448854	-1.408984	0.753087
N93	N	0.782187	-1.075651	1.086420
N94	N	0.115520	-1.742346	-0.419774
N95	N	0.448853	-1.409012	-0.086440
N96	N	0.782187	-1.075679	0.246893
H97	H	-0.128854	-1.994642	0.000026
H98	H	0.204480	-1.661309	0.333359
H99	H	0.537813	-1.327976	0.666693
C100	C	-0.649070	-1.451235	-0.000055
C101	C	-0.315737	-1.117902	0.333279
C102	C	0.017597	-0.784569	0.666612
N103	N	-0.675066	-1.338835	-0.000072
N104	N	-0.341733	-1.005502	0.333261
N105	N	-0.008400	-0.672168	0.666595
C106	C	-0.517287	-2.021015	-0.000013
C107	C	-0.183954	-1.687681	0.333320
C108	C	0.149380	-1.354348	0.666653
N109	N	-0.491294	-2.133419	-0.000016
N110	N	-0.157961	-1.800086	0.333317
N111	N	0.175372	-1.466752	0.666651
H112	H	-0.669510	-1.977782	-0.000018
H113	H	-0.336177	-1.644449	0.333316
H114	H	-0.002844	-1.311116	0.666649
C115	C	-0.251668	-1.463634	-0.000013
C116	C	0.081665	-1.130301	0.333320
C117	C	0.414999	-0.796968	0.666654
N118	N	-0.277667	-1.351237	0.000006
N119	N	0.055666	-1.017903	0.333339
N120	N	0.389000	-0.684570	0.666673
H121	H	-0.099446	-1.506859	-0.000021
H122	H	0.233887	-1.173526	0.333312
H123	H	0.567220	-0.840192	0.666646
C124	C	-0.285696	-2.028239	0.000027
C125	C	0.047638	-1.694906	0.333360
C126	C	0.380971	-1.361573	0.666693
N127	N	-0.325116	-2.138608	0.000060
N128	N	0.008217	-1.805274	0.333393
N129	N	0.341550	-1.471941	0.666727
C130	C	-0.483259	-1.456398	-0.000065
C131	C	-0.149926	-1.123065	0.333268
C132	C	0.183407	-0.789731	0.666602
N133	N	-0.443842	-1.346026	-0.000092
N134	N	-0.110508	-1.012693	0.333241
N135	N	0.222825	-0.679359	0.666574
