data_functionalizedCrystal
_audit_creation_method	'MofGen! by Chris Wilmer'
_symmetry_space_group_name_H-M	'P1'
_symmetry_Int_Tables_number	1
_symmetry_cell_setting	triclinic
loop_
_symmetry_equiv_pos_as_xyz
  x,y,z
_cell_length_a	11.169417
_cell_length_b	15.296363
_cell_length_c	11.169409
_cell_angle_alpha	99.718493
_cell_angle_beta	90.019824
_cell_angle_gamma	99.691600
loop_
_atom_site_label
_atom_site_type_symbol
_atom_site_fract_x
_atom_site_fract_y
_atom_site_fract_z
Zn1	Zn	1.752224	-0.359163	0.595752
Zn2	Zn	1.717343	-0.510098	0.360278
Zn3	Zn	1.551497	-0.359218	0.395074
Zn4	Zn	1.516764	-0.510024	0.560939
O5	O	1.634457	-0.434626	0.478011
O6	O	1.915544	-0.379193	0.564523
O7	O	1.695281	-0.490137	0.196931
O8	O	1.607257	-0.232932	0.450826
O9	O	1.889918	-0.490084	0.391521
O10	O	1.754730	-0.232891	0.598264
O11	O	1.573435	-0.379286	0.222496
O12	O	1.378941	-0.379215	0.417070
O13	O	1.548060	-0.489958	0.733520
O14	O	1.353423	-0.490012	0.538930
O15	O	1.721051	-0.379121	0.759097
O16	O	1.661602	-0.636367	0.357764
O17	O	1.514238	-0.636313	0.505189
C18	C	1.322635	-0.434612	0.477999
C19	C	1.189232	-0.434628	0.478017
C20	C	1.580398	-0.669083	0.423949
C21	C	1.557382	-0.769385	0.400862
C22	C	1.799453	-1.051736	0.643139
C23	C	1.821087	-0.957498	0.664830
C24	C	1.755162	-0.910465	0.598840
C25	C	1.667601	-0.957680	0.511155
C26	C	1.645971	-1.051928	0.489454
C27	C	1.601681	-0.910656	0.445156
C28	C	1.514119	-0.957871	0.357470
C29	C	1.492493	-1.052110	0.335775
C30	C	1.558418	-1.099142	0.401764
C31	C	1.623310	-0.816408	0.466856
C32	C	1.469828	-0.816600	0.313172
C33	C	1.448195	-0.910838	0.291480
C34	C	1.947496	-0.434640	0.478024
C35	C	2.080894	-0.434646	0.478029
C36	C	1.634572	-0.434526	0.791077
C37	C	1.634621	-0.434483	0.924487
C38	C	1.688759	-0.199253	0.532310
C39	C	1.711899	-0.098951	0.555449
C40	C	1.634426	-0.434660	0.166178
C41	C	1.634668	-0.434449	0.032828
H42	H	1.694603	-0.777974	0.538250
C43	C	1.915987	-0.906289	0.760216
C44	C	1.884533	-0.929143	0.873683
C45	C	1.971924	-0.881979	0.961589
H46	H	1.993149	-0.921658	0.739336
H47	H	1.919426	-0.843417	0.763773
H48	H	1.881108	-0.992001	0.870124
H49	H	1.807386	-0.913772	0.894601
H50	H	1.975363	-0.819107	0.965145
H51	H	2.049080	-0.897352	0.940697
H52	H	1.950589	-0.897473	1.038587
H53	H	1.853126	-1.090039	0.696852
C54	C	1.534709	-1.201463	0.378079
C55	C	1.443904	-1.232749	0.287180
C56	C	1.422022	-1.327001	0.265344
H57	H	1.607186	-1.222862	0.352425
H58	H	1.508961	-1.222778	0.450585
H59	H	1.469657	-1.211443	0.214688
H60	H	1.371409	-1.211375	0.312808
H61	H	1.396273	-1.348317	0.337850
H62	H	1.494505	-1.348391	0.239695
H63	H	1.360401	-1.348241	0.203676
C64	C	1.353230	-0.962268	0.196283
C65	C	1.348425	-1.054866	0.191390
C66	C	1.260970	-1.102271	0.103699
H67	H	1.276041	-0.946976	0.217223
H68	H	1.374369	-0.946914	0.119166
H69	H	1.327278	-1.070214	0.268491
H70	H	1.425591	-1.070185	0.170436
H71	H	1.282110	-1.086917	0.026582
H72	H	1.183788	-1.086971	0.124647
H73	H	1.257706	-1.165103	0.100360
H74	H	1.772782	-0.833732	0.616507
C75	C	1.398325	-0.765383	0.241689
C76	C	1.435981	-0.672745	0.279486
C77	C	1.370137	-0.625530	0.213679
H78	H	1.412325	-0.780752	0.157476
H79	H	1.314109	-0.780818	0.255645
H80	H	1.520178	-0.657316	0.265520
H81	H	1.421979	-0.657349	0.363689
H82	H	1.285921	-0.640965	0.227634
H83	H	1.384142	-0.640906	0.129469
H84	H	1.395670	-0.562671	0.239322
H85	H	1.421205	-1.090549	0.264365
