data_functionalizedCrystal
_audit_creation_method	'MofGen! by Chris Wilmer'
_symmetry_space_group_name_H-M	'P1'
_symmetry_Int_Tables_number	1
_symmetry_cell_setting	triclinic
loop_
_symmetry_equiv_pos_as_xyz
  x,y,z
_cell_length_a	12.811457
_cell_length_b	11.792254
_cell_length_c	11.892095
_cell_angle_alpha	93.915908
_cell_angle_beta	91.498327
_cell_angle_gamma	84.120767
loop_
_atom_site_label
_atom_site_type_symbol
_atom_site_fract_x
_atom_site_fract_y
_atom_site_fract_z
O1	O	1.390093	0.156590	0.048503
O2	O	1.086814	0.170826	0.017410
O3	O	1.245806	-0.001417	0.033718
O4	O	1.231101	0.328834	0.032195
O5	O	1.232549	0.012922	0.220366
O6	O	1.073557	0.185165	0.204058
O7	O	1.376837	0.170929	0.235151
Zn8	Zn	1.223092	0.180324	0.249239
Zn9	Zn	1.240558	0.161432	0.003322
O10	O	1.217845	0.343173	0.218842
C11	C	1.041359	0.176759	0.106753
C12	C	0.925668	0.173059	0.094892
C13	C	0.693819	0.181719	0.276111
C14	C	0.585117	0.178243	0.264972
C15	C	0.599560	0.162622	0.061477
C16	C	0.708262	0.166098	0.072616
C17	C	0.755388	0.175648	0.179936
C18	C	0.864091	0.179133	0.191074
C19	C	0.878533	0.163504	-0.012420
C20	C	0.769831	0.160028	-0.023558
C21	C	1.238251	-0.036544	0.126947
C22	C	1.235479	-0.162573	0.126662
C23	C	1.233226	-0.264924	0.126427
C24	C	1.230410	-0.393328	0.126127
C25	C	1.422292	0.164997	0.145805
C26	C	1.537983	0.168696	0.157659
C27	C	1.225400	0.378299	0.125611
C28	C	1.228173	0.504328	0.125889
N29	N	1.211180	0.193217	0.417071
N30	N	1.252479	0.148530	-0.164509
C31	C	1.335372	0.058751	0.666458
C32	C	1.327053	0.067771	0.783946
C33	C	1.186218	0.220271	0.769538
C34	C	1.194537	0.211251	0.652050
C35	C	1.269118	0.130489	0.600514
C36	C	1.277441	0.121475	0.483024
C37	C	1.136602	0.273969	0.468617
C38	C	1.128283	0.282990	0.586106
H39	H	0.534991	0.183192	0.343287
H40	H	0.732188	0.189510	0.363495
N41	N	1.398523	-0.009593	0.855072
H42	H	1.354974	-0.056637	0.899721
H43	H	1.447016	-0.062045	0.804517
N44	N	0.548726	0.152297	-0.054266
H45	H	0.470522	0.151007	-0.046723
H46	H	0.562821	0.219702	-0.097587
H47	H	1.338171	0.055718	0.441065
N48	N	1.105787	0.307384	0.825122
H49	H	1.033204	0.291773	0.797102
H50	H	1.110658	0.302175	0.909546
N51	N	0.718994	0.149741	-0.139304
H52	H	0.774495	0.146427	-0.198540
H53	H	0.682255	0.077746	-0.147540
H54	H	0.928673	0.158568	-0.090732
H55	H	1.396105	-0.007001	0.624497
N56	N	1.047846	0.370086	0.641703
H57	H	1.084502	0.424607	0.694551
H58	H	1.007158	0.414085	0.582031
N59	N	0.914924	0.189442	0.306819
H60	H	0.859421	0.192757	0.366054
H61	H	0.967759	0.121013	0.316698
N62	N	1.065143	0.351359	0.397494
H63	H	1.081730	0.333396	0.315244
H64	H	0.989691	0.338854	0.410457
