data_functionalizedCrystal
_audit_creation_method	'MofGen! by Chris Wilmer'
_symmetry_space_group_name_H-M	'P1'
_symmetry_Int_Tables_number	1
_symmetry_cell_setting	triclinic
loop_
_symmetry_equiv_pos_as_xyz
  x,y,z
_cell_length_a	15.944545
_cell_length_b	17.038272
_cell_length_c	15.021413
_cell_angle_alpha	90.004029
_cell_angle_beta	89.995468
_cell_angle_gamma	87.303864
loop_
_atom_site_label
_atom_site_type_symbol
_atom_site_fract_x
_atom_site_fract_y
_atom_site_fract_z
O1	O	1.121729	0.100804	-0.073975
O2	O	0.878067	0.113241	-0.073990
O3	O	0.998450	-0.006793	-0.073975
O4	O	1.001346	0.220838	-0.073989
O5	O	0.998431	-0.006776	0.074089
O6	O	0.878048	0.113258	0.074075
O7	O	1.121710	0.100821	0.074089
Zn8	Zn	0.999876	0.107042	0.097590
Zn9	Zn	0.999901	0.107020	-0.097491
O10	O	1.001327	0.220855	0.074075
C11	C	0.846727	0.112734	0.000041
C12	C	0.753370	0.111189	0.000035
C13	C	0.477095	0.032168	0.000050
C14	C	0.530387	0.070274	0.073053
C15	C	0.417333	0.105678	0.000051
C16	C	0.530388	0.070277	-0.072927
C17	C	0.582439	0.108381	0.000042
C18	C	0.469395	0.143764	0.073114
C19	C	0.469392	0.143756	-0.072931
C20	C	0.522655	0.181916	0.000090
C21	C	0.322219	0.104118	0.000057
C22	C	0.677550	0.109947	0.000042
C23	C	0.995806	-0.035914	0.000056
C24	C	0.987947	-0.122709	0.000056
C25	C	1.060104	-0.172803	0.000061
C26	C	1.052715	-0.254356	0.000052
C27	C	0.973167	-0.285812	0.000044
C28	C	0.901004	-0.235712	0.000036
C29	C	0.908394	-0.154161	0.000039
C30	C	0.947058	-0.531578	0.000031
C31	C	0.939673	-0.613135	0.000031
C32	C	1.091385	-0.631773	0.000045
C33	C	1.098768	-0.550220	0.000053
C34	C	1.026605	-0.500127	0.000040
C35	C	0.965611	-0.369172	0.000038
C36	C	1.034161	-0.416768	0.000040
C37	C	1.153051	0.101328	0.000057
C38	C	1.246407	0.102873	0.000056
C39	C	1.003971	0.249976	0.000041
C40	C	1.011830	0.336771	0.000036
N41	N	0.999865	0.107057	0.230728
N42	N	0.999919	0.106998	-0.230628
C43	C	0.944188	0.162535	0.470405
C44	C	1.021173	0.177712	0.529743
C45	C	0.999885	0.107038	0.412335
C46	C	0.922922	0.091878	0.529739
C47	C	0.999897	0.107020	0.587759
C48	C	1.076910	0.122250	0.470366
C49	C	0.978607	0.036385	0.470357
C50	C	1.055644	0.051532	0.529668
C51	C	0.999876	0.107049	0.311277
C52	C	0.999914	0.107008	0.688814
H53	H	0.542671	0.245272	0.000129
C54	C	0.954246	-0.044297	0.435084
N55	N	0.935888	-0.105066	0.408513
H56	H	0.849635	-0.113374	0.000035
H57	H	0.557096	0.039212	-0.134642
C58	C	0.433282	0.185646	-0.156319
N59	N	0.406081	0.217192	-0.219134
H60	H	1.142020	0.135136	0.444396
H61	H	0.888297	-0.490801	0.000021
H62	H	0.857831	0.079063	0.555821
C63	C	1.147614	-0.138209	0.000070
N64	N	1.213529	-0.112156	0.000072
H65	H	1.039181	0.237454	0.555827
C66	C	0.449834	-0.053354	0.000152
N67	N	0.429297	-0.117767	0.000235
H68	H	1.111474	-0.295140	0.000058
H69	H	1.163544	-0.524615	0.000059
H70	H	0.897142	0.209505	0.444383
H71	H	0.836234	-0.261330	0.000025
C72	C	1.170758	-0.686882	0.000050
N73	N	1.230546	-0.728391	0.000050
C74	C	1.119356	-0.011878	0.564617
N75	N	1.167347	-0.059633	0.590946
C76	C	0.852160	-0.647735	0.000016
N77	N	0.786249	-0.673795	0.000004
H78	H	0.442793	0.174793	0.134899
C79	C	0.566470	0.028343	0.156435
N80	N	0.593645	-0.003244	0.219236
H81	H	0.900843	-0.394793	0.000034
C82	C	1.121662	-0.382163	0.000053
N83	N	1.187567	-0.356092	0.000069
