data_functionalizedCrystal
_audit_creation_method	'MofGen! by Chris Wilmer'
_symmetry_space_group_name_H-M	'P1'
_symmetry_Int_Tables_number	1
_symmetry_cell_setting	triclinic
loop_
_symmetry_equiv_pos_as_xyz
  x,y,z
_cell_length_a	10.654550
_cell_length_b	10.268362
_cell_length_c	10.654550
_cell_angle_alpha	90.005126
_cell_angle_beta	84.484931
_cell_angle_gamma	90.001331
loop_
_atom_site_label
_atom_site_type_symbol
_atom_site_fract_x
_atom_site_fract_y
_atom_site_fract_z
O1	O	1.667841	0.108203	0.176400
O2	O	2.167841	0.608203	0.676400
O3	O	1.302363	0.108227	0.193206
O4	O	1.802363	0.608227	0.693206
O5	O	1.493505	0.108206	0.002064
O6	O	1.993505	0.608206	0.502064
O7	O	1.476699	0.108223	0.367542
O8	O	1.976699	0.608223	0.867542
O9	O	1.493488	-0.108395	0.002056
O10	O	1.993488	0.391605	0.502056
O11	O	1.302346	-0.108374	0.193198
O12	O	1.802346	0.391626	0.693198
O13	O	1.667824	-0.108398	0.176392
O14	O	2.167824	0.391602	0.676392
Cu15	Cu	1.485084	-0.128163	0.184794
Cu16	Cu	1.985084	0.371837	0.684794
Cu17	Cu	1.485104	0.127992	0.184804
Cu18	Cu	1.985104	0.627992	0.684804
O19	O	1.476682	-0.108377	0.367534
O20	O	1.976682	0.391623	0.867534
C21	C	1.255556	-0.000071	0.191968
C22	C	1.755556	0.499929	0.691968
C23	C	1.116113	-0.000062	0.188276
C24	C	1.616113	0.499938	0.688276
N25	N	1.485079	-0.308329	0.184787
N26	N	1.985079	0.191671	0.684787
C27	C	1.036628	-0.000060	0.300818
C28	C	1.536628	0.499940	0.800818
C29	C	0.905607	-0.000083	0.297341
C30	C	1.405607	0.499917	0.797341
C31	C	0.933570	-0.000104	0.068772
C32	C	1.433570	0.499896	0.568772
C33	C	1.064588	-0.000090	0.072250
C34	C	1.564588	0.499910	0.572250
C35	C	1.485097	-0.574000	0.184801
C36	C	1.985097	-0.074000	0.684801
C37	C	1.485083	-0.426162	0.184797
C38	C	1.985083	0.073838	0.684797
C39	C	1.714631	-0.000098	0.177630
C40	C	2.214631	0.499902	0.677630
C41	C	1.854074	-0.000098	0.181322
C42	C	2.354074	0.499902	0.681322
C43	C	1.492263	-0.000094	-0.044738
C44	C	1.992263	0.499906	0.455262
C45	C	1.488571	-0.000091	-0.184181
C46	C	1.988571	0.499909	0.315819
N47	N	1.485118	0.308158	0.184801
N48	N	1.985118	0.808158	0.684801
C49	C	1.601112	-0.000098	-0.263667
C50	C	2.101112	0.499902	0.236333
C51	C	1.597636	-0.000082	-0.394688
C52	C	2.097636	0.499918	0.105312
C53	C	1.369066	-0.000058	-0.366725
C54	C	1.869066	0.499942	0.133275
C55	C	1.372544	-0.000065	-0.235706
C56	C	1.872544	0.499935	0.264294
C57	C	1.477925	-0.000075	0.414336
C58	C	1.977925	0.499925	0.914336
C59	C	1.481616	-0.000069	0.553779
C60	C	1.981616	0.499931	1.053779
H61	H	1.078574	-0.000047	0.395294
H62	H	1.578574	0.499953	0.895294
C63	C	1.146254	-0.000053	-0.221215
C64	C	1.646254	0.499947	0.278785
C65	C	1.248828	-0.000062	-0.148325
C66	C	1.748828	0.499938	0.351675
H67	H	1.069883	-0.000056	-0.167266
H68	H	1.569883	0.499944	0.332734
H69	H	1.149656	0.075477	-0.272886
H70	H	1.649656	0.575477	0.227114
H71	H	1.149650	-0.075591	-0.272910
H72	H	1.649650	0.424409	0.227090
H73	H	1.245438	0.075481	-0.096636
H74	H	1.745438	0.575481	0.403364
H75	H	1.245425	-0.075600	-0.096631
H76	H	1.745425	0.424400	0.403369
H77	H	0.840894	-0.000084	0.388984
H78	H	1.340894	0.499916	0.888984
C79	C	0.745143	-0.000120	-0.038050
C80	C	1.245143	0.499880	0.461950
C81	C	0.876928	-0.000118	-0.058760
C82	C	1.376928	0.499882	0.441240
H83	H	0.710180	-0.000118	-0.116787
H84	H	1.210180	0.499882	0.383213
H85	H	0.717938	-0.075648	0.008324
H86	H	1.217938	0.424352	0.508324
H87	H	0.717937	0.075419	0.008341
H88	H	1.217937	0.575419	0.508341
H89	H	0.904135	-0.075663	-0.105144
H90	H	1.404135	0.424337	0.394856
H91	H	0.904145	0.075418	-0.105155
H92	H	1.404145	0.575418	0.394845
H93	H	1.129309	-0.000095	-0.019401
H94	H	1.629309	0.499905	0.480599
H95	H	1.695588	-0.000117	-0.221720
H96	H	2.195588	0.499883	0.278280
H97	H	1.689279	-0.000085	-0.459401
H98	H	2.189279	0.499915	0.040599
C99	C	1.262244	-0.000053	-0.555151
C100	C	1.762244	0.499947	-0.055151
C101	C	1.241534	-0.000048	-0.423366
C102	C	1.741534	0.499952	0.076634
H103	H	1.183508	-0.000058	-0.590114
H104	H	1.683508	0.499942	-0.090114
H105	H	1.308626	0.075474	-0.582353
H106	H	1.808626	0.575474	-0.082353
H107	H	1.308629	-0.075594	-0.582361
H108	H	1.808629	0.424406	-0.082361
H109	H	1.195158	0.075499	-0.396156
H110	H	1.695158	0.575499	0.103844
H111	H	1.195133	-0.075582	-0.396153
H112	H	1.695133	0.424418	0.103847
