data_functionalizedCrystal
_audit_creation_method	'MofGen! by Chris Wilmer'
_symmetry_space_group_name_H-M	'P1'
_symmetry_Int_Tables_number	1
_symmetry_cell_setting	triclinic
loop_
_symmetry_equiv_pos_as_xyz
  x,y,z
_cell_length_a	14.560438
_cell_length_b	20.016444
_cell_length_c	20.016444
_cell_angle_alpha	90.002879
_cell_angle_beta	60.001956
_cell_angle_gamma	60.003253
loop_
_atom_site_label
_atom_site_type_symbol
_atom_site_fract_x
_atom_site_fract_y
_atom_site_fract_z
Zr1	Zr	1.005316	-0.087661	0.643578
O2	O	1.196903	-0.194331	0.536905
O3	O	0.813719	-0.054962	0.676279
O4	O	1.005311	-0.194333	0.676278
O5	O	1.005318	0.054980	0.536906
O6	O	1.005318	-0.194333	0.786218
O7	O	1.005311	-0.054960	0.536906
O8	O	0.662594	0.054976	0.786220
O9	O	1.348042	-0.194330	0.536905
O10	O	0.892534	-0.041015	0.772272
O11	O	0.892534	0.041032	0.690226
O12	O	1.118110	-0.123060	0.690225
O13	O	1.118110	-0.041013	0.608178
Zr14	Zr	1.005339	0.087680	0.818920
Zr15	Zr	1.005327	-0.087661	0.818919
Zr16	Zr	1.005327	0.087680	0.643579
Zr17	Zr	1.246365	-0.087659	0.643577
Zr18	Zr	0.764290	0.087678	0.818920
O19	O	1.196936	0.054981	0.786219
O20	O	1.196920	-0.194331	0.786218
O21	O	1.196920	0.054982	0.536906
O22	O	0.813751	0.194350	0.925593
O23	O	0.813735	-0.054963	0.925592
O24	O	0.813735	0.194351	0.676280
O25	O	1.005337	-0.054961	0.925592
O26	O	1.005344	0.194352	0.786220
O27	O	1.005337	0.194353	0.676280
O28	O	1.005344	0.054979	0.925592
O29	O	1.348051	-0.194330	0.676278
O30	O	0.662604	0.194349	0.786220
O31	O	0.662613	0.194349	0.925593
O32	O	0.662604	0.054976	0.925593
O33	O	1.348051	-0.054957	0.536905
O34	O	1.348060	-0.054957	0.676278
O35	O	0.892545	0.123079	0.772273
O36	O	0.892545	0.041032	0.854320
O37	O	1.118120	-0.041013	0.772272
O38	O	1.118120	0.041034	0.690225
C39	C	0.703812	0.000006	0.731250
C40	C	0.601481	0.000005	0.731250
C41	C	1.005313	0.000010	0.511924
C42	C	1.005308	0.000010	0.437487
C43	C	1.005342	0.219335	0.731250
C44	C	1.005347	0.293772	0.731250
C45	C	0.553406	-0.042824	0.774074
C46	C	0.457249	-0.042817	0.774076
C47	C	0.457252	0.042848	0.688422
C48	C	0.553402	0.042846	0.688426
C49	C	0.601485	-0.085664	0.816898
C50	C	0.553412	-0.128498	0.859725
C51	C	0.457254	-0.128491	0.859727
C52	C	0.409170	-0.085652	0.816902
C53	C	1.306843	0.000013	0.731248
C54	C	1.409174	0.000014	0.731248
C55	C	1.005313	-0.219316	0.731248
C56	C	1.005308	-0.293753	0.731248
C57	C	1.123080	0.422213	0.688419
C58	C	1.123074	0.492158	0.688416
C59	C	0.887566	0.577805	0.774080
C60	C	0.887573	0.507860	0.774077
C61	C	1.005334	0.430065	0.731249
C62	C	1.005321	0.569954	0.731249
C63	C	1.005314	0.645792	0.731247
C64	C	1.005341	0.354222	0.731250
C65	C	0.887575	0.042838	0.309047
C66	C	0.887581	0.042840	0.239102
C67	C	1.123089	-0.042820	0.153452
C68	C	1.123082	-0.042817	0.223396
C69	C	1.005321	0.000010	0.301194
C70	C	1.005334	0.000009	0.161304
C71	C	1.005340	0.000011	0.085466
C72	C	1.005314	0.000010	0.377037
C73	C	1.005342	0.000009	0.950574
C74	C	1.005347	0.000009	1.025011
C75	C	0.703827	0.000006	0.950575
C76	C	0.601500	0.000005	1.025012
C77	C	0.703827	0.219332	0.731250
C78	C	0.601500	0.293768	0.731251
C79	C	0.703841	0.219331	0.950576
C80	C	0.601519	0.293767	1.025013
C81	C	1.306814	-0.219312	0.511922
C82	C	1.409135	-0.293748	0.437485
C83	C	1.306828	0.000013	0.511923
C84	C	1.409155	0.000014	0.437486
C85	C	1.306828	-0.219313	0.731248
C86	C	1.409155	-0.293749	0.731247
C87	C	0.553441	-0.042831	1.017141
C88	C	0.457307	-0.042848	1.087076
C89	C	0.409228	-0.000025	1.164881
C90	C	0.457297	0.042812	1.172751
C91	C	0.553435	0.042824	1.102817
C92	C	0.553452	0.371559	0.774079
C93	C	0.457319	0.441506	0.774076
C94	C	0.409229	0.433660	0.731250
C95	C	0.457286	0.355861	0.688417
C96	C	0.553424	0.285916	0.688415
C97	C	0.553468	0.285896	1.102805
C98	C	0.457339	0.355829	1.172753
C99	C	0.409257	0.433634	1.164909
C100	C	0.457318	0.441504	1.087109
C101	C	0.553451	0.371571	1.017162
C102	C	1.457198	-0.285876	0.359693
C103	C	1.553357	-0.355810	0.289745
C104	C	1.601444	-0.433615	0.297589
C105	C	1.553377	-0.441485	0.375389
C106	C	1.457227	-0.371552	0.445336
C107	C	1.457224	0.042842	0.445357
C108	C	1.553384	0.042840	0.375422
C109	C	1.601466	0.000015	0.297617
C110	C	1.553393	-0.042819	0.289747
C111	C	1.457241	-0.042821	0.359681
C112	C	1.457214	-0.285877	0.774082
C113	C	1.553348	-0.355811	0.774097
C114	C	1.601427	-0.433615	0.731273
C115	C	1.553358	-0.441485	0.688437
C116	C	1.457220	-0.371552	0.688427
H117	H	0.679784	-0.085676	0.816900
Cl118	Cl	1.271118	-0.096658	0.213522
Cl119	Cl	1.396765	-0.188073	0.349810
H120	H	0.418117	0.349485	0.653548
Cl121	Cl	0.396856	0.539322	1.077261
Cl122	Cl	0.613839	0.381482	0.919370
H123	H	0.791687	0.077720	0.372391
Cl124	Cl	0.613848	-0.182342	0.913567
H125	H	0.330979	0.490571	1.221871
Cl126	Cl	1.613759	-0.345897	0.191950
H127	H	0.791700	0.077716	0.245504
H128	H	0.330947	0.490621	0.731258
H129	H	0.592532	0.222578	0.653542
Cl130	Cl	1.722318	-0.521524	0.209647
Cl131	Cl	1.722342	0.000028	0.209706
Cl132	Cl	1.613839	-0.539303	0.385237
Cl133	Cl	1.396790	-0.188074	0.827926
H134	H	0.791684	0.514260	0.808954
H135	H	1.218955	0.485757	0.653539
Cl136	Cl	0.396818	-0.182335	0.913569
Cl137	Cl	1.722294	-0.521524	0.731291
H138	H	1.592556	-0.077686	0.226388
H139	H	1.218965	-0.077690	0.090103
H140	H	0.592602	0.222549	1.109207
Cl141	Cl	1.396807	-0.381463	0.543128
H142	H	0.592586	-0.077712	0.953794
H143	H	1.418083	0.077722	0.508704
Cl144	Cl	1.613793	0.096697	0.385334
H145	H	1.418106	-0.077695	0.353261
H146	H	0.330867	-0.085646	0.816911
H147	H	1.592476	-0.349387	0.808978
H148	H	0.418181	-0.077731	1.080652
Cl149	Cl	0.396803	0.096699	0.634589
Cl150	Cl	1.396826	-0.381463	0.634562
Cl151	Cl	1.613827	-0.539304	0.634595
Cl152	Cl	0.739532	0.675607	0.827922
Cl153	Cl	0.396835	0.096647	1.270570
Cl154	Cl	0.613843	0.096689	0.634588
H155	H	1.218968	0.358871	0.653543
Cl156	Cl	0.288364	-0.000046	1.252792
H157	H	0.592553	0.077711	1.109237
H158	H	0.592596	0.377962	0.808953
Cl159	Cl	0.396934	0.345916	1.270548
Cl160	Cl	0.396919	0.539300	0.827931
