data_functionalizedCrystal
_audit_creation_method	'MofGen! by Chris Wilmer'
_symmetry_space_group_name_H-M	'P1'
_symmetry_Int_Tables_number	1
_symmetry_cell_setting	triclinic
loop_
_symmetry_equiv_pos_as_xyz
  x,y,z
_cell_length_a	15.538191
_cell_length_b	27.732048
_cell_length_c	14.750779
_cell_angle_alpha	77.459753
_cell_angle_beta	97.572172
_cell_angle_gamma	64.957374
loop_
_atom_site_label
_atom_site_type_symbol
_atom_site_fract_x
_atom_site_fract_y
_atom_site_fract_z
O1	O	1.231553	-0.143284	-0.079812
O2	O	0.956477	-0.087327	-0.079821
O3	O	1.102563	-0.187172	-0.079798
O4	O	1.085467	-0.043439	-0.079835
O5	O	1.143860	-0.215394	0.079859
O6	O	0.997774	-0.115550	0.079836
O7	O	1.272849	-0.171506	0.079845
Zn8	Zn	1.141868	-0.148009	0.105189
Zn9	Zn	1.087458	-0.110825	-0.105165
O10	O	1.126764	-0.071662	0.079822
C11	C	0.941944	-0.095584	0.000007
C12	C	0.837116	-0.078145	0.000004
C13	C	1.122853	-0.219229	0.000033
C14	C	1.121775	-0.272700	0.000041
C15	C	0.551855	-0.251395	0.000034
C16	C	0.453349	-0.234996	0.000029
C17	C	0.429558	-0.142756	0.000005
C18	C	0.528065	-0.159148	0.000015
C19	C	0.589206	-0.213468	0.000028
C20	C	0.565415	-0.121222	0.000009
C21	C	0.663912	-0.137612	0.000014
C22	C	0.725059	-0.191928	0.000024
C23	C	0.687703	-0.229858	0.000032
C24	C	0.504271	-0.066901	-0.000011
C25	C	0.541621	-0.028974	-0.000017
C26	C	0.640122	-0.045365	-0.000005
C27	C	0.701268	-0.099682	0.000005
C28	C	0.677478	-0.007436	-0.000014
C29	C	0.775975	-0.023826	-0.000009
C30	C	0.799765	-0.116072	0.000010
C31	C	1.201288	-0.625155	-0.000006
C32	C	1.197277	-0.826125	-0.000019
O33	O	1.269986	-0.869854	-0.000059
N34	N	1.110657	-0.830382	-0.000021
C35	C	1.025032	-0.784391	-0.000026
O36	O	0.951262	-0.792622	-0.000038
C37	C	1.029042	-0.583422	-0.000019
C38	C	1.115670	-0.579170	-0.000008
C39	C	1.287908	-0.620901	0.000005
C40	C	1.288911	-0.570663	0.000014
C41	C	1.203294	-0.524678	0.000012
C42	C	1.116673	-0.528931	0.000001
C43	C	0.943416	-0.537431	-0.000031
C44	C	0.944426	-0.487187	-0.000032
C45	C	1.031054	-0.482935	-0.000020
C46	C	1.032059	-0.432708	0.000008
N47	N	1.118679	-0.428450	0.000010
C48	C	1.204296	-0.474435	0.000012
C49	C	1.022934	-0.889905	-0.000028
C50	C	1.021931	-0.940147	-0.000028
C51	C	1.194176	-0.981877	-0.000022
C52	C	1.195179	-0.931635	-0.000016
C53	C	1.109554	-0.885648	-0.000026
C54	C	1.206396	-0.368929	0.000031
C55	C	1.207393	-0.318685	0.000043
C56	C	1.035147	-0.276959	0.000033
C57	C	1.034152	-0.327199	0.000025
C58	C	1.119783	-0.373185	0.000021
O59	O	0.959386	-0.388955	0.000036
O60	O	1.278050	-0.466189	0.000002
C61	C	1.200285	-0.675394	-0.000014
C62	C	1.113664	-0.679647	-0.000025
C63	C	1.028046	-0.633662	-0.000027
C64	C	1.112662	-0.729890	-0.000025
C65	C	1.198279	-0.775875	-0.000023
C66	C	1.284899	-0.771617	-0.000021
C67	C	1.285902	-0.721379	-0.000012
C68	C	0.941427	-0.637920	-0.000029
C69	C	0.940431	-0.688160	-0.000036
C70	C	1.026048	-0.734145	-0.000034
C71	C	1.287382	-0.163249	0.000015
C72	C	1.392208	-0.180687	0.000012
C73	C	1.106473	-0.039604	-0.000011
C74	C	1.107549	0.013868	-0.000025
N75	N	1.179009	-0.173388	0.248751
N76	N	1.050325	-0.085451	-0.248727
C77	C	0.946598	-0.014593	0.600532
C78	C	0.972630	-0.032375	0.701036
C79	C	1.102015	-0.120767	0.701019
C80	C	1.075991	-0.102994	0.600514
C81	C	0.998282	-0.049906	0.550278
C82	C	1.127675	-0.138307	0.550259
C83	C	1.101655	-0.120534	0.449763
C84	C	1.023951	-0.067447	0.399521
C85	C	0.972262	-0.032133	0.449782
C86	C	1.205388	-0.191393	0.600497
C87	C	1.257072	-0.226706	0.550242
C88	C	1.231048	-0.208935	0.449744
C89	C	1.153344	-0.155848	0.399502
C90	C	1.282737	-0.244249	0.399483
C91	C	1.256717	-0.226476	0.298986
C92	C	1.127325	-0.138075	0.299005
H93	H	0.849552	-0.160306	0.000026
O94	O	0.995882	-0.048278	0.291127
H95	H	1.003598	-0.010036	0.264616
O96	O	0.753653	-0.288449	0.000055
H97	H	0.815921	-0.309623	0.065137
H98	H	1.226573	-0.205861	0.682327
O99	O	0.617814	-0.309983	0.000050
H100	H	0.575296	-0.333605	0.000051
O101	O	1.300826	-0.314096	0.000041
H102	H	1.360187	-0.354513	0.000026
H103	H	1.320346	-0.269930	0.591155
O104	O	0.475680	0.029609	-0.000017
H105	H	0.400915	0.034634	-0.000010
O106	O	0.831301	-0.209615	0.000042
H107	H	0.835321	-0.182524	-0.065028
H108	H	1.165289	-0.163991	0.741932
H109	H	0.908977	0.011095	0.408878
H110	H	0.422944	-0.265884	0.000032
O111	O	0.862781	0.042667	0.546336
H112	H	0.831211	0.064240	0.598162
H113	H	0.953203	-0.852463	-0.000035
O114	O	1.382348	-0.566084	0.000008
H115	H	1.403782	-0.555709	0.065085
H116	H	0.379763	-0.098528	-0.000010
O117	O	0.916877	0.005713	0.755243
H118	H	0.858468	0.045611	0.703424
O119	O	0.846991	-0.692744	-0.000047
H120	H	0.787628	-0.652321	-0.000056
H121	H	1.276125	-0.406366	0.000023
H122	H	1.298805	-0.255232	0.258069
H123	H	0.627680	0.036793	-0.000034
O124	O	0.398035	-0.049222	-0.000006
H125	H	0.360365	-0.053314	-0.065067
O126	O	1.043481	-0.080823	0.244817
H127	H	1.034064	-0.074404	0.166493
O128	O	0.940717	-0.331785	0.000024
H129	H	0.952966	-0.365184	0.065096
H130	H	0.806388	0.007056	-0.000005
H131	H	1.346015	-0.287472	0.440398
H132	H	0.871704	-0.600480	-0.000033
H133	H	0.872873	-0.540881	-0.000046
O134	O	1.380264	-0.670500	0.000021
H135	H	1.440658	-0.659093	0.000038
H136	H	1.265719	-0.928178	-0.000007
O137	O	1.286523	-1.031478	-0.000027
H138	H	1.271262	-1.067125	-0.000037
H139	H	0.951395	-0.943606	-0.000020
H140	H	0.965441	-0.239510	0.000035
O141	O	0.852074	-0.437587	-0.000031
H142	H	0.791678	-0.448991	-0.000030
H143	H	1.356444	-0.717924	-0.000003
H144	H	1.354613	-0.809069	-0.000015
