data_functionalizedCrystal
_audit_creation_method	'MofGen! by Chris Wilmer'
_symmetry_space_group_name_H-M	'P1'
_symmetry_Int_Tables_number	1
_symmetry_cell_setting	triclinic
loop_
_symmetry_equiv_pos_as_xyz
  x,y,z
_cell_length_a	19.188930
_cell_length_b	14.044190
_cell_length_c	12.503552
_cell_angle_alpha	86.163821
_cell_angle_beta	93.525087
_cell_angle_gamma	88.168277
loop_
_atom_site_label
_atom_site_type_symbol
_atom_site_fract_x
_atom_site_fract_y
_atom_site_fract_z
O1	O	0.937485	0.112791	0.089682
O2	O	1.270818	0.446125	0.423015
O3	O	1.604152	0.779458	0.756348
O4	O	0.735199	0.128722	0.089610
O5	O	1.068532	0.462056	0.422944
O6	O	1.401865	0.795389	0.756277
O7	O	0.833302	-0.017214	0.089624
O8	O	1.166635	0.316119	0.422957
O9	O	1.499969	0.649453	0.756290
O10	O	0.839382	0.258728	0.089668
O11	O	1.172715	0.592061	0.423002
O12	O	1.506048	0.925394	0.756335
O13	O	0.825915	-0.006229	-0.089020
O14	O	1.159249	0.327104	0.244314
O15	O	1.492582	0.660438	0.577647
O16	O	0.727812	0.139707	-0.089033
O17	O	1.061145	0.473040	0.244300
O18	O	1.394479	0.806374	0.577633
O19	O	0.930098	0.123776	-0.088962
O20	O	1.263432	0.457110	0.244372
O21	O	1.596765	0.790443	0.577705
Cu22	Cu	0.828281	0.132745	-0.105309
Cu23	Cu	1.161614	0.466078	0.228024
Cu24	Cu	1.494947	0.799411	0.561358
Cu25	Cu	0.837016	0.119754	0.105958
Cu26	Cu	1.170350	0.453087	0.439291
Cu27	Cu	1.503683	0.786421	0.772624
O28	O	0.831995	0.269713	-0.088975
O29	O	1.165328	0.603046	0.244358
O30	O	1.498662	0.936379	0.577691
C31	C	0.826950	-0.047025	0.000298
C32	C	1.160283	0.286309	0.333631
C33	C	1.493616	0.619642	0.666965
C34	C	0.819018	-0.152217	0.000286
C35	C	1.152352	0.181116	0.333619
C36	C	1.485685	0.514450	0.666952
C37	C	0.705461	0.133699	0.000279
C38	C	1.038794	0.467033	0.333612
C39	C	1.372127	0.800366	0.666946
C40	C	0.627855	0.132153	0.000250
C41	C	0.961188	0.465486	0.333584
C42	C	1.294522	0.798820	0.666917
C43	C	0.860769	-0.402680	0.000343
C44	C	1.194102	-0.069347	0.333676
C45	C	1.527435	0.263987	0.667009
C46	C	0.804532	-0.344816	0.000315
C47	C	1.137865	-0.011483	0.333649
C48	C	1.471198	0.321850	0.666982
C49	C	0.812594	-0.237644	0.000299
C50	C	1.145927	0.095689	0.333632
C51	C	1.479261	0.429022	0.666965
C52	C	0.852707	-0.509862	0.000359
C53	C	1.186041	-0.176529	0.333692
C54	C	1.519374	0.156805	0.667026
C55	C	0.588460	0.217781	0.000281
C56	C	0.921793	0.551115	0.333614
C57	C	1.255126	0.884448	0.666948
C58	C	0.515543	0.216326	0.000293
C59	C	0.848876	0.549659	0.333626
C60	C	1.182209	0.882993	0.666959
C61	C	0.482024	0.129236	0.000295
C62	C	0.815358	0.462570	0.333628
C63	C	1.148691	0.795903	0.666962
C64	C	0.521429	0.043597	0.000258
C65	C	0.854762	0.376931	0.333592
C66	C	1.188095	0.710264	0.666925
C67	C	0.594344	0.045056	0.000236
C68	C	0.927677	0.378389	0.333569
C69	C	1.261011	0.711722	0.666903
N70	N	0.372263	0.058927	0.061128
N71	N	0.705596	0.392260	0.394461
N72	N	1.038929	0.725593	0.727795
N73	N	0.302996	0.057547	0.061151
N74	N	0.636329	0.390880	0.394485
N75	N	0.969663	0.724214	0.727818
C76	C	0.262335	0.124837	0.000360
C77	C	0.595668	0.458171	0.333693
C78	C	0.929002	0.791504	0.667027
N79	N	0.293557	0.193573	-0.060442
N80	N	0.626890	0.526907	0.272891
N81	N	0.960224	0.860240	0.606225
N82	N	0.362830	0.194955	-0.060461
N83	N	0.696163	0.528289	0.272873
N84	N	1.029497	0.861622	0.606206
C85	C	0.402960	0.127645	0.000319
C86	C	0.736294	0.460979	0.333652
C87	C	1.069627	0.794312	0.666985
C88	C	0.143874	0.208894	0.000402
C89	C	0.477207	0.542227	0.333735
C90	C	0.810541	0.875560	0.667068
C91	C	0.070955	0.207435	0.000407
C92	C	0.404289	0.540769	0.333740
C93	C	0.737622	0.874102	0.667073
C94	C	0.076844	0.034703	0.000383
C95	C	0.410177	0.368037	0.333717
C96	C	0.743510	0.701370	0.667050
C97	C	0.149760	0.036165	0.000368
C98	C	0.483094	0.369498	0.333701
C99	C	0.816427	0.702832	0.667034
C100	C	0.183271	0.123262	0.000382
C101	C	0.516605	0.456596	0.333715
C102	C	0.849938	0.789929	0.667049
C103	C	0.959836	0.118799	0.000372
C104	C	1.293170	0.452132	0.333705
C105	C	1.626503	0.785466	0.667039
C106	C	1.037442	0.120345	0.000407
C107	C	1.370776	0.453678	0.333741
C108	C	1.704109	0.787012	0.667074
C109	C	0.838347	0.299523	0.000353
C110	C	1.171681	0.632857	0.333686
C111	C	1.505014	0.966190	0.667020
C112	C	0.846279	0.404715	0.000372
C113	C	1.179612	0.738048	0.333705
C114	C	1.512946	1.071382	0.667039
N115	N	0.822142	0.141881	-0.253903
N116	N	1.155475	0.475215	0.079431
N117	N	1.488808	0.808548	0.412764
C118	C	0.852187	0.097167	-0.526332
C119	C	1.185521	0.430500	-0.192998
C120	C	1.518854	0.763833	0.140335
C121	C	0.813117	0.155321	-0.473013
C122	C	1.146450	0.488655	-0.139680
C123	C	1.479783	0.821988	0.193654
C124	C	0.818139	0.147841	-0.351089
C125	C	1.151473	0.481175	-0.017755
C126	C	1.484806	0.814508	0.315578
C127	C	0.847165	0.104645	-0.648267
C128	C	1.180499	0.437979	-0.314934
C129	C	1.513832	0.771312	0.018400
N130	N	0.843160	0.110610	0.254551
N131	N	1.176494	0.443943	0.587884
N132	N	1.509827	0.777276	0.921218
H133	H	0.750331	-0.375766	0.000302
H134	H	1.083664	-0.042433	0.333636
H135	H	1.416997	0.290900	0.666969
H136	H	0.889407	0.041766	-0.480416
H137	H	1.222740	0.375099	-0.147083
H138	H	1.556074	0.708432	0.186250
Br139	Br	0.751079	0.247669	-0.549547
Br140	Br	1.084412	0.581002	-0.216214
Br141	Br	1.417746	0.914336	0.117119
H142	H	0.914965	-0.371732	0.000351
H143	H	1.248299	-0.038398	0.333684
H144	H	1.581632	0.294935	0.667017
Br145	Br	0.017488	0.323656	0.000439
Br146	Br	0.350821	0.656990	0.333772
Br147	Br	0.684154	0.990323	0.667105
H148	H	0.615740	0.288703	0.000295
H149	H	0.949073	0.622036	0.333628
H150	H	1.282406	0.955369	0.666961
H151	H	0.483460	0.286057	0.000315
H152	H	0.816794	0.619390	0.333648
H153	H	1.150127	0.952724	0.666981
H154	H	0.171160	0.279815	0.000398
H155	H	0.504493	0.613148	0.333731
H156	H	0.837826	0.946481	0.667064
Br157	Br	0.475942	-0.074596	0.000251
Br158	Br	0.809275	0.258737	0.333584
Br159	Br	1.142608	0.592070	0.666917
H160	H	0.049557	-0.036211	0.000452
H161	H	0.382890	0.297123	0.333785
H162	H	0.716223	0.630456	0.667119
Br163	Br	0.647813	-0.071163	0.000192
Br164	Br	0.981146	0.262170	0.333525
Br165	Br	1.314480	0.595503	0.666859
Br166	Br	0.203229	-0.080052	0.000329
Br167	Br	0.536563	0.253282	0.333662
Br168	Br	0.869896	0.586615	0.666995
