data_functionalizedCrystal
_audit_creation_method	'MofGen! by Chris Wilmer'
_symmetry_space_group_name_H-M	'P1'
_symmetry_Int_Tables_number	1
_symmetry_cell_setting	triclinic
loop_
_symmetry_equiv_pos_as_xyz
  x,y,z
_cell_length_a	14.044220
_cell_length_b	8.965430
_cell_length_c	14.044220
_cell_angle_alpha	89.999476
_cell_angle_beta	86.811122
_cell_angle_gamma	89.999271
loop_
_atom_site_label
_atom_site_type_symbol
_atom_site_fract_x
_atom_site_fract_y
_atom_site_fract_z
O1	O	1.277167	0.123887	-0.230160
O2	O	1.610501	0.457220	0.103173
O3	O	1.943834	0.790553	0.436506
O4	O	1.000496	0.123924	-0.221855
O5	O	1.333829	0.457258	0.111479
O6	O	1.667162	0.790591	0.444812
O7	O	1.134679	0.123891	-0.087672
O8	O	1.468012	0.457225	0.245662
O9	O	1.801345	0.790558	0.578995
O10	O	1.142984	0.123920	-0.364343
O11	O	1.476318	0.457253	-0.031010
O12	O	1.809651	0.790586	0.302323
O13	O	1.134667	-0.124188	-0.087680
O14	O	1.468000	0.209146	0.245653
O15	O	1.801334	0.542479	0.578986
O16	O	1.000484	-0.124155	-0.221863
O17	O	1.333818	0.209179	0.111470
O18	O	1.667151	0.542512	0.444803
O19	O	1.277156	-0.124192	-0.230169
O20	O	1.610489	0.209141	0.103164
O21	O	1.943822	0.542474	0.436498
Cu22	Cu	1.138819	-0.146825	-0.226017
Cu23	Cu	1.472152	0.186508	0.107316
Cu24	Cu	1.805486	0.519842	0.440650
Cu25	Cu	1.138833	0.146557	-0.226007
Cu26	Cu	1.472166	0.479890	0.107327
Cu27	Cu	1.805499	0.813224	0.440660
O28	O	1.142973	-0.124159	-0.364352
O29	O	1.476306	0.209174	-0.031019
O30	O	1.809639	0.542507	0.302315
C31	C	0.964868	-0.000111	-0.218223
C32	C	1.298201	0.333223	0.115110
C33	C	1.631535	0.666556	0.448443
C34	C	0.858725	-0.000097	-0.207379
C35	C	1.192059	0.333237	0.125955
C36	C	1.525392	0.666570	0.459288
N37	N	1.138816	-0.353174	-0.226024
N38	N	1.472150	-0.019841	0.107309
N39	N	1.805483	0.313493	0.440642
C40	C	0.664388	-0.000128	-0.187553
C41	C	0.997721	0.333205	0.145781
C42	C	1.331054	0.666538	0.479114
C43	C	0.613258	-0.000127	-0.264467
C44	C	0.946591	0.333207	0.068866
C45	C	1.279924	0.666540	0.402200
C46	C	0.505122	-0.000144	-0.253435
C47	C	0.838455	0.333189	0.079898
C48	C	1.171788	0.666522	0.413231
C49	C	0.772534	-0.000111	-0.198583
C50	C	1.105867	0.333223	0.134751
C51	C	1.439200	0.666556	0.468084
C52	C	1.076738	-0.450465	-0.288055
C53	C	1.410072	-0.117131	0.045278
C54	C	1.743405	0.216202	0.378611
C55	C	1.164577	-0.549888	-0.313875
C56	C	1.497910	-0.216555	0.019458
C57	C	1.831243	0.116778	0.352791
C58	C	1.051015	-0.549878	-0.200216
C59	C	1.384348	-0.216545	0.133118
C60	C	1.717682	0.116788	0.466451
C61	C	1.226701	-0.450409	-0.251891
C62	C	1.560035	-0.117075	0.081443
C63	C	1.893368	0.216258	0.414776
C64	C	1.113080	-0.450390	-0.138189
C65	C	1.446413	-0.117057	0.195145
C66	C	1.779747	0.216277	0.528478
C67	C	1.200977	-0.549768	-0.163977
C68	C	1.534311	-0.216435	0.169356
C69	C	1.867644	0.116898	0.502690
C70	C	1.312783	-0.000154	-0.233800
C71	C	1.646117	0.333179	0.099533
C72	C	1.979450	0.666512	0.432866
C73	C	1.418926	-0.000158	-0.244645
C74	C	1.752259	0.333175	0.088688
C75	C	2.085593	0.666508	0.422022
C76	C	1.131037	-0.000148	-0.052054
C77	C	1.464371	0.333185	0.281279
C78	C	1.797704	0.666518	0.614612
C79	C	1.120193	-0.000149	0.054088
C80	C	1.453526	0.333185	0.387422
C81	C	1.786859	0.666518	0.720755
N82	N	1.138842	0.352906	-0.225993
N83	N	1.472175	0.686239	0.107341
N84	N	1.805509	1.019573	0.440674
C85	C	1.146614	-0.000116	-0.399969
C86	C	1.479948	0.333217	-0.066636
C87	C	1.813281	0.666550	0.266697
C88	C	1.157459	-0.000106	-0.506112
C89	C	1.490792	0.333227	-0.172779
C90	C	1.824125	0.666560	0.160554
C91	C	1.100366	-0.000125	0.248426
C92	C	1.433700	0.333209	0.581759
C93	C	1.767033	0.666542	0.915093
C94	C	1.177281	-0.000130	0.299556
C95	C	1.510614	0.333203	0.632889
C96	C	1.843947	0.666536	0.966223
C97	C	1.166249	-0.000117	0.407692
C98	C	1.499583	0.333216	0.741026
C99	C	1.832916	0.666550	1.074359
C100	C	1.111397	-0.000138	0.140280
C101	C	1.444730	0.333195	0.473613
C102	C	1.778063	0.666529	0.806947
H103	H	0.650697	-0.000112	-0.338600
H104	H	0.984030	0.333221	-0.005267
H105	H	1.317364	0.666555	0.328066
Cl106	Cl	1.282139	-0.616677	-0.082969
Cl107	Cl	1.615472	-0.283344	0.250364
Cl108	Cl	1.948805	0.049989	0.583697
H109	H	1.251414	-0.000040	0.262117
H110	H	1.584748	0.333293	0.595450
H111	H	1.918081	0.666626	0.928783
H112	H	1.026239	-0.000111	0.285863
H113	H	1.359572	0.333222	0.619196
H114	H	1.692906	0.666556	0.952530
H115	H	0.976752	-0.593575	-0.178401
H116	H	1.310086	-0.260242	0.154932
H117	H	1.643419	0.073091	0.488265
H118	H	0.626951	-0.000144	-0.113425
H119	H	0.960284	0.333189	0.219908
H120	H	1.293617	0.666523	0.553242
H121	H	1.186362	-0.593592	-0.388143
H122	H	1.519696	-0.260258	-0.054810
H123	H	1.853029	0.073075	0.278524
Cl124	Cl	0.995776	-0.383135	-0.369129
Cl125	Cl	1.329109	-0.049802	-0.035796
Cl126	Cl	1.662442	0.283531	0.297538
H127	H	1.300988	-0.406899	-0.273794
H128	H	1.634321	-0.073566	0.059539
H129	H	1.967654	0.259767	0.392873
Cl130	Cl	1.079406	-0.382854	-0.023557
Cl131	Cl	1.412739	-0.049520	0.309776
Cl132	Cl	1.746073	0.283813	0.643110
