data_functionalizedCrystal
_audit_creation_method	'MofGen! by Chris Wilmer'
_symmetry_space_group_name_H-M	'P1'
_symmetry_Int_Tables_number	1
_symmetry_cell_setting	triclinic
loop_
_symmetry_equiv_pos_as_xyz
  x,y,z
_cell_length_a	19.121112
_cell_length_b	19.121063
_cell_length_c	19.120904
_cell_angle_alpha	94.741613
_cell_angle_beta	89.911155
_cell_angle_gamma	89.873133
loop_
_atom_site_label
_atom_site_type_symbol
_atom_site_fract_x
_atom_site_fract_y
_atom_site_fract_z
Zn1	Zn	1.039579	0.343505	0.456027
Zn2	Zn	1.372912	0.676839	0.789361
Zn3	Zn	1.706245	1.010172	1.122694
Zn4	Zn	1.039492	0.456148	0.343374
Zn5	Zn	1.372825	0.789482	0.676708
Zn6	Zn	1.706159	1.122815	1.010041
Zn7	Zn	0.927792	0.333517	0.333406
Zn8	Zn	1.261125	0.666851	0.666739
Zn9	Zn	1.594458	1.000184	1.000073
Zn10	Zn	0.917325	0.455676	0.455559
Zn11	Zn	1.250658	0.789010	0.788892
Zn12	Zn	1.583991	1.122343	1.122225
O13	O	0.981047	0.397212	0.397092
O14	O	1.314380	0.730545	0.730425
O15	O	1.647713	1.063879	1.063758
O16	O	1.137478	0.362825	0.445451
O17	O	1.470811	0.696159	0.778785
O18	O	1.804145	1.029492	1.112118
O19	O	1.029019	0.435899	0.243785
O20	O	1.362352	0.769232	0.577118
O21	O	1.695686	1.102565	0.910452
O22	O	0.947037	0.236577	0.345696
O23	O	1.280371	0.569910	0.679030
O24	O	1.613704	0.903243	1.012363
O25	O	1.137414	0.445584	0.362686
O26	O	1.470748	0.778917	0.696019
O27	O	1.804081	1.112250	1.029352
O28	O	1.029167	0.243915	0.435786
O29	O	1.362500	0.577248	0.769119
O30	O	1.695833	0.910581	1.102452
O31	O	0.946953	0.345802	0.236461
O32	O	1.280287	0.679135	0.569795
O33	O	1.613620	1.012469	0.903128
O34	O	0.828492	0.345344	0.345242
O35	O	1.161826	0.678678	0.678575
O36	O	1.495159	1.012011	1.011909
O37	O	0.929198	0.444779	0.553888
O38	O	1.262531	0.778113	0.887221
O39	O	1.595864	1.111446	1.220555
O40	O	0.820802	0.435094	0.434987
O41	O	1.154136	0.768428	0.768321
O42	O	1.487469	1.101761	1.101654
O43	O	1.019017	0.362368	0.554232
O44	O	1.352351	0.695701	0.887566
O45	O	1.685684	1.029034	1.220899
O46	O	1.018870	0.554351	0.362231
O47	O	1.352203	0.887685	0.695565
O48	O	1.685536	1.221018	1.028898
O49	O	0.929114	0.554005	0.444653
O50	O	1.262447	0.887338	0.777986
O51	O	1.595780	1.220671	1.111320
C52	C	0.799260	0.389085	0.388983
C53	C	1.132593	0.722418	0.722316
C54	C	1.465927	1.055751	1.055649
C55	C	0.721489	0.385625	0.385531
C56	C	1.054823	0.718959	0.718864
C57	C	1.388156	1.052292	1.052198
C58	C	0.281836	0.363681	0.363667
C59	C	0.615169	0.697014	0.697000
C60	C	0.948502	1.030347	1.030334
C61	C	0.354909	0.366935	0.366914
C62	C	0.688242	0.700268	0.700248
C63	C	1.021576	1.033602	1.033581
C64	C	0.387458	0.415361	0.415193
C65	C	0.720791	0.748694	0.748527
C66	C	1.054125	1.082028	1.081860
C67	C	0.346929	0.460531	0.460233
C68	C	0.680263	0.793864	0.793566
C69	C	1.013596	1.127197	1.126900
C70	C	0.273857	0.457272	0.456989
C71	C	0.607191	0.790606	0.790322
C72	C	0.940524	1.123939	1.123656
C73	C	0.607889	0.427537	0.427326
C74	C	0.941222	0.760870	0.760660
C75	C	1.274556	1.094204	1.093993
C76	C	0.680966	0.430793	0.430566
C77	C	1.014300	0.764127	0.763899
C78	C	1.347633	1.097460	1.097232
C79	C	0.688941	0.337196	0.337247
C80	C	1.022274	0.670529	0.670581
C81	C	1.355608	1.003863	1.003914
C82	C	0.615867	0.333945	0.334005
C83	C	0.949201	0.667278	0.667338
C84	C	1.282534	1.000612	1.000671
C85	C	0.575345	0.379112	0.379047
C86	C	0.908678	0.712446	0.712380
C87	C	1.242012	1.045779	1.045713
C88	C	0.462151	0.418690	0.418512
C89	C	0.795484	0.752023	0.751846
C90	C	1.128817	1.085357	1.085179
C91	C	0.500654	0.375779	0.375731
C92	C	0.833987	0.709112	0.709064
C93	C	1.167320	1.042446	1.042397
C94	C	0.972865	0.579659	0.404489
C95	C	1.306198	0.912992	0.737822
C96	C	1.639531	1.246325	1.071156
C97	C	0.969427	0.657714	0.407680
C98	C	1.302761	0.991047	0.741013
C99	C	1.636094	1.324381	1.074347
C100	C	0.972950	0.404635	0.580252
C101	C	1.306283	0.737968	0.913585
C102	C	1.639616	1.071302	1.246919
C103	C	0.969499	0.407798	0.658304
C104	C	1.302832	0.741131	0.991637
C105	C	1.636166	1.074465	1.324971
C106	C	1.163543	0.405371	0.405233
C107	C	1.496877	0.738705	0.738566
C108	C	1.830210	1.072038	1.071899
C109	C	1.241312	0.408848	0.408702
C110	C	1.574646	0.742182	0.742035
C111	C	1.907979	1.075515	1.075369
C112	C	0.989279	0.214054	0.389681
C113	C	1.322613	0.547387	0.723015
C114	C	1.655946	0.880721	1.056348
C115	C	0.992787	0.136003	0.386524
C116	C	1.326121	0.469336	0.719857
C117	C	1.659454	0.802670	1.053190
C118	C	1.014577	0.694545	0.366305
C119	C	1.347910	1.027878	0.699639
C120	C	1.681243	1.361212	1.032972
C121	C	1.011348	0.767887	0.369311
C122	C	1.344681	1.101220	0.702644
C123	C	1.678015	1.434553	1.035978
C124	C	0.962966	0.804396	0.413688
C125	C	1.296299	1.137729	0.747021
C126	C	1.629633	1.471062	1.080354
C127	C	0.917815	0.767560	0.455067
C128	C	1.251148	1.100893	0.788400
C129	C	1.584481	1.434226	1.121734
C130	C	0.921047	0.694220	0.452065
C131	C	1.254381	1.027553	0.785398
C132	C	1.587714	1.360886	1.118731
C133	C	0.950869	1.025827	0.424901
C134	C	1.284202	1.359161	0.758234
C135	C	1.617535	1.692494	1.091567
C136	C	0.947638	1.099172	0.427898
C137	C	1.280971	1.432506	0.761232
C138	C	1.614305	1.765839	1.094565
C139	C	1.041173	1.099494	0.342143
C140	C	1.374506	1.432827	0.675476
C141	C	1.707839	1.766161	1.008810
C142	C	1.044398	1.026152	0.339142
C143	C	1.377732	1.359486	0.672475
C144	C	1.711065	1.692819	1.005808
C145	C	0.999249	0.989323	0.380523
C146	C	1.332583	1.322656	0.713857
C147	C	1.665916	1.655990	1.047190
C148	C	0.959663	0.879362	0.416759
C149	C	1.292996	1.212696	0.750093
C150	C	1.626330	1.546029	1.083426
C151	C	1.002556	0.914358	0.377455
C152	C	1.335890	1.247691	0.710789
C153	C	1.669223	1.581025	1.044122
C154	C	0.989155	0.389769	0.214643
C155	C	1.322488	0.723102	0.547977
C156	C	1.655822	1.056435	0.881310
C157	C	0.992750	0.386414	0.136590
C158	C	1.326083	0.719747	0.469923
C159	C	1.659417	1.053080	0.803257
C160	C	1.014640	0.366379	0.695153
C161	C	1.347973	0.699712	1.028487
C162	C	1.681306	1.033046	1.361820
C163	C	1.011389	0.369348	0.768491
C164	C	1.344723	0.702681	1.101824
C165	C	1.678056	1.036015	1.435158
C166	C	0.963001	0.413741	0.804978
C167	C	1.296334	0.747074	1.138312
C168	C	1.629667	1.080407	1.471645
C169	C	0.917855	0.455161	0.768124
C170	C	1.251188	0.788495	1.101457
C171	C	1.584522	1.121828	1.434790
C172	C	0.921103	0.452188	0.694787
C173	C	1.254436	0.785521	1.028120
C174	C	1.587770	1.118855	1.361454
C175	C	0.950852	0.424861	1.026399
C176	C	1.284185	0.758195	1.359732
C177	C	1.617519	1.091528	1.693065
C178	C	0.947609	0.427833	1.099740
C179	C	1.280943	0.761166	1.433074
C180	C	1.614276	1.094500	1.766407
C181	C	1.041143	0.342018	1.100103
C182	C	1.374476	0.675352	1.433436
C183	C	1.707809	1.008685	1.766769
C184	C	1.044389	0.339052	1.026765
C185	C	1.377722	0.672385	1.360098
C186	C	1.711056	1.005719	1.693431
C187	C	0.999241	0.380470	0.989916
C188	C	1.332574	0.713803	1.323250
C189	C	1.665908	1.047137	1.656583
C190	C	0.959678	0.416778	0.879942
C191	C	1.293012	0.750112	1.213275
C192	C	1.626345	1.083445	1.546608
C193	C	1.002560	0.377428	0.914954
C194	C	1.335894	0.710762	1.248288
C195	C	1.669227	1.044095	1.581621
H196	H	0.373436	0.499957	0.499546
H197	H	0.706770	0.833291	0.832879
H198	H	1.040103	1.166624	1.166213
F199	F	0.715605	0.482338	0.481953
F200	F	1.048939	0.815671	0.815286
F201	F	1.382272	1.149004	1.148620
H202	H	1.083794	0.302905	0.997062
H203	H	1.417127	0.636238	1.330395
H204	H	1.750461	0.969571	1.663729
F205	F	0.873056	0.496271	0.655570
F206	F	1.206389	0.829604	0.988903
F207	F	1.539723	1.162937	1.322236
F208	F	0.564771	0.475611	0.475262
F209	F	0.898105	0.808944	0.808595
F210	F	1.231438	1.142278	1.141929
F211	F	1.054049	0.875501	0.330231
F212	F	1.387383	1.208835	0.663564
F213	F	1.720716	1.542168	0.996897
H214	H	1.077899	0.308297	1.130112
H215	H	1.411232	0.641630	1.463446
H216	H	1.744566	0.974964	1.796779
H217	H	1.077931	1.129488	0.308453
H218	H	1.411265	1.462822	0.641787
H219	H	1.744598	1.796155	0.975120
F220	F	0.866326	0.806418	0.502300
F221	F	1.199660	1.139751	0.835634
F222	F	1.532993	1.473084	1.168967
H223	H	1.083795	0.996428	0.303006
H224	H	1.417128	1.329761	0.636340
H225	H	1.750461	1.663095	0.969673
H226	H	1.048113	0.797871	0.335619
H227	H	1.381446	1.131204	0.668952
H228	H	1.714780	1.464538	1.002285
H229	H	0.884283	0.664233	0.485757
H230	H	1.217616	0.997566	0.819091
H231	H	1.550949	1.330899	1.152424
F232	F	1.054051	0.330177	0.876120
F233	F	1.387385	0.663511	1.209453
F234	F	1.720718	0.996844	1.542787
F235	F	0.902816	0.986640	0.468943
F236	F	1.236149	1.319973	0.802276
F237	F	1.569483	1.653307	1.135609
F238	F	0.908172	0.918224	0.463986
F239	F	1.241505	1.251558	0.797320
F240	F	1.574839	1.584891	1.130653
H241	H	1.054045	0.330232	0.665451
H242	H	1.387378	0.663565	0.998784
H243	H	1.720712	0.996898	1.332118
H244	H	0.908247	1.128897	0.464048
H245	H	1.241581	1.462230	0.797381
H246	H	1.574914	1.795563	1.130714
H247	H	0.255340	0.324247	0.324352
H248	H	0.588673	0.657581	0.657686
H249	H	0.922007	0.990914	0.991019
H250	H	0.908203	0.463984	1.129446
H251	H	1.241537	0.797318	1.462780
H252	H	1.574870	1.130651	1.796113
F253	F	1.059457	0.325289	0.807708
F254	F	1.392791	0.658622	1.141041
F255	F	1.726124	0.991956	1.474375
H256	H	0.920283	0.452926	0.909658
H257	H	1.253617	0.786260	1.242991
H258	H	1.586950	1.119593	1.576325
F259	F	0.230730	0.505344	0.504923
F260	F	0.564063	0.838677	0.838257
F261	F	0.897396	1.172011	1.171590
F262	F	1.066068	0.655695	0.319069
F263	F	1.399401	0.989029	0.652402
F264	F	1.732735	1.322362	0.985735
F265	F	0.902801	0.468943	0.987191
F266	F	1.236134	0.802276	1.320524
F267	F	1.569468	1.135609	1.653858
H268	H	0.878454	0.491304	0.797837
H269	H	1.211787	0.824638	1.131171
H270	H	1.545120	1.157971	1.464504
F271	F	0.732072	0.289127	0.289316
F272	F	1.065406	0.622461	0.622649
F273	F	1.398739	0.955794	0.955982
H274	H	0.589371	0.294516	0.294686
H275	H	0.922705	0.627850	0.628019
H276	H	1.256038	0.961183	0.961352
F277	F	0.398034	0.318857	0.318986
F278	F	0.731367	0.652190	0.652319
F279	F	1.064701	0.985523	0.985652
H280	H	0.488660	0.458121	0.457819
H281	H	0.821993	0.791454	0.791153
H282	H	1.155327	1.124787	1.124486
F283	F	0.466011	0.324239	0.324353
F284	F	0.799345	0.657573	0.657687
F285	F	1.132678	0.990906	0.991020
