data_functionalizedCrystal
_audit_creation_method	'MofGen! by Chris Wilmer'
_symmetry_space_group_name_H-M	'P1'
_symmetry_Int_Tables_number	1
_symmetry_cell_setting	triclinic
loop_
_symmetry_equiv_pos_as_xyz
  x,y,z
_cell_length_a	21.395362
_cell_length_b	21.395362
_cell_length_c	21.395355
_cell_angle_alpha	90.048039
_cell_angle_beta	89.980094
_cell_angle_gamma	89.954240
loop_
_atom_site_label
_atom_site_type_symbol
_atom_site_fract_x
_atom_site_fract_y
_atom_site_fract_z
Zn1	Zn	-0.249206	-0.957874	-0.354648
Zn2	Zn	0.250794	-0.457874	0.145352
Zn3	Zn	-0.353966	-0.957782	-0.249868
Zn4	Zn	0.146034	-0.457782	0.250132
Zn5	Zn	-0.249239	-0.853088	-0.249842
Zn6	Zn	0.250761	-0.353088	0.250158
Zn7	Zn	-0.353983	-0.853064	-0.354565
Zn8	Zn	0.146017	-0.353064	0.145435
O9	O	-0.301598	-0.905452	-0.302231
O10	O	0.198402	-0.405452	0.197769
O11	O	-0.263081	-1.045539	-0.340794
O12	O	0.236919	-0.545539	0.159206
O13	O	-0.340080	-0.943866	-0.162187
O14	O	0.159920	-0.443866	0.337813
O15	O	-0.161557	-0.867037	-0.263768
O16	O	0.338443	-0.367037	0.236232
O17	O	-0.340048	-1.045472	-0.263813
O18	O	0.159952	-0.545472	0.236187
O19	O	-0.161532	-0.944022	-0.340769
O20	O	0.338468	-0.444022	0.159231
O21	O	-0.263138	-0.866948	-0.162167
O22	O	0.236862	-0.366948	0.337833
O23	O	-0.263155	-0.765407	-0.263688
O24	O	0.236845	-0.265407	0.236312
O25	O	-0.340077	-0.866995	-0.442254
O26	O	0.159923	-0.366995	0.057746
O27	O	-0.340110	-0.765389	-0.340628
O28	O	0.159890	-0.265389	0.159372
O29	O	-0.263098	-0.943998	-0.442315
O30	O	0.236902	-0.443998	0.057685
O31	O	-0.441646	-0.943842	-0.263733
O32	O	0.058354	-0.443842	0.236267
O33	O	-0.441658	-0.866906	-0.340653
O34	O	0.058342	-0.366906	0.159347
C35	C	-0.301638	-0.742664	-0.302147
C36	C	0.198362	-0.242664	0.197853
C37	C	-0.301670	-0.673023	-0.302125
C38	C	0.198330	-0.173023	0.197875
C39	C	-0.464386	-0.905378	-0.302201
C40	C	0.035614	-0.405378	0.197799
C41	C	-0.534027	-0.905404	-0.302209
C42	C	-0.034027	-0.405404	0.197791
C43	C	-0.341795	-0.640317	-0.342126
C44	C	0.158205	-0.140317	0.157874
C45	C	-0.341782	-0.574881	-0.342149
C46	C	0.158218	-0.074881	0.157851
C47	C	-0.301652	-0.542155	-0.302161
C48	C	0.198348	-0.042155	0.197839
C49	C	-0.261519	-0.574869	-0.262158
C50	C	0.238481	-0.074869	0.237842
C51	C	-0.261528	-0.640303	-0.262140
C52	C	0.238472	-0.140303	0.237860
C53	C	-0.296609	-0.438430	-0.245748
C54	C	0.203391	0.061570	0.254252
C55	C	-0.296604	-0.372997	-0.245765
C56	C	0.203396	0.127003	0.254235
C57	C	-0.301619	-0.340334	-0.302215
C58	C	0.198381	0.159666	0.197785
C59	C	-0.306653	-0.373112	-0.358651
C60	C	0.193347	0.126888	0.141349
C61	C	-0.306662	-0.438546	-0.358634
C62	C	0.193338	0.061454	0.141366
C63	C	-0.301637	-0.471202	-0.302176
C64	C	0.198363	0.028798	0.197824
C65	C	-0.341732	-0.236675	-0.342244
C66	C	0.158268	0.263325	0.157756
C67	C	-0.341715	-0.171239	-0.342268
C68	C	0.158285	0.328761	0.157732
C69	C	-0.261455	-0.171227	-0.262272
C70	C	0.238545	0.328773	0.237728
C71	C	-0.261469	-0.236663	-0.262253
C72	C	0.238531	0.263337	0.237747
C73	C	-0.301611	-0.269383	-0.302238
C74	C	0.198389	0.230617	0.197762
C75	C	-1.035796	-0.945663	-0.262280
C76	C	-0.535796	-0.445663	0.237720
C77	C	-0.970360	-0.945640	-0.262265
C78	C	-0.470360	-0.445640	0.237735
C79	C	-0.937665	-0.905541	-0.302276
C80	C	-0.437665	-0.405541	0.197724
C81	C	-0.970411	-0.865451	-0.342292
C82	C	-0.470411	-0.365451	0.157708
C83	C	-1.035845	-0.865472	-0.342301
C84	C	-0.535845	-0.365472	0.157699
C85	C	-0.833976	-0.900533	-0.358704
C86	C	-0.333976	-0.400533	0.141296
C87	C	-0.768543	-0.900517	-0.358696
C88	C	-0.268543	-0.400517	0.141304
C89	C	-0.735845	-0.905474	-0.302247
C90	C	-0.235845	-0.405474	0.197753
C91	C	-0.768587	-0.910461	-0.245805
C92	C	-0.268587	-0.410461	0.254195
C93	C	-0.834021	-0.910481	-0.245814
C94	C	-0.334021	-0.410481	0.254186
C95	C	-0.866713	-0.905514	-0.302270
C96	C	-0.366713	-0.405514	0.197730
C97	C	-0.632154	-0.945532	-0.262214
C98	C	-0.132154	-0.445532	0.237786
C99	C	-0.566718	-0.945504	-0.262199
C100	C	-0.066718	-0.445504	0.237801
C101	C	-0.566770	-0.865319	-0.342231
C102	C	-0.066770	-0.365319	0.157769
C103	C	-0.632205	-0.865344	-0.342241
C104	C	-0.132205	-0.365344	0.157759
C105	C	-0.664893	-0.905454	-0.302234
C106	C	-0.164893	-0.405454	0.197766
C107	C	-0.138175	-0.905543	-0.302275
C108	C	0.361825	-0.405543	0.197725
C109	C	-0.068534	-0.905582	-0.302294
C110	C	0.431466	-0.405582	0.197706
C111	C	-0.301586	-0.905504	-0.465654
C112	C	0.198414	-0.405504	0.034346
C113	C	-0.301580	-0.905526	-0.535296
C114	C	0.198420	-0.405526	-0.035296
C115	C	-0.301569	-0.068875	-0.302298
C116	C	0.198431	0.431125	0.197702
C117	C	-0.301583	-0.138516	-0.302281
C118	C	0.198417	0.361484	0.197719
C119	C	-0.261495	-0.945620	-0.568041
C120	C	0.238505	-0.445620	-0.068041
C121	C	-0.261468	-0.945619	-0.633477
C122	C	0.238532	-0.445619	-0.133477
C123	C	-0.301537	-0.905531	-0.666164
C124	C	0.198463	-0.405531	-0.166164
C125	C	-0.341625	-0.865429	-0.633410
C126	C	0.158375	-0.365429	-0.133410
C127	C	-0.341646	-0.865427	-0.567976
C128	C	0.158354	-0.365427	-0.067976
C129	C	-0.357954	-0.900558	-0.769826
C130	C	0.142046	-0.400558	-0.269826
C131	C	-0.357934	-0.900565	-0.835259
C132	C	0.142066	-0.400565	-0.335259
C133	C	-0.301471	-0.905535	-0.867985
C134	C	0.198529	-0.405535	-0.367985
C135	C	-0.245027	-0.910511	-0.835269
C136	C	0.254973	-0.410511	-0.335269
C137	C	-0.245048	-0.910508	-0.769835
C138	C	0.254952	-0.410508	-0.269835
C139	C	-0.301519	-0.905529	-0.737116
C140	C	0.198481	-0.405529	-0.237116
C141	C	-0.261354	-0.945630	-0.971683
C142	C	0.238646	-0.445630	-0.471683
C143	C	-0.261326	-0.945625	-1.037120
C144	C	0.238674	-0.445625	-0.537120
C145	C	-0.341488	-0.865438	-1.037052
C146	C	0.158512	-0.365438	-0.537052
C147	C	-0.341511	-0.865440	-0.971617
C148	C	0.158489	-0.365440	-0.471617
C149	C	-0.301444	-0.905539	-0.938936
C150	C	0.198556	-0.405539	-0.438936
C151	C	-0.301566	-0.905436	-0.139443
C152	C	0.198434	-0.405436	0.360557
C153	C	-0.301395	-0.905535	-0.069802
C154	C	0.198605	-0.405535	0.430198
H155	H	-0.374457	-0.548247	-0.374724
H156	H	0.125543	-0.048247	0.125276
H157	H	-0.741964	-0.914498	-0.199840
H158	H	-0.241964	-0.414498	0.300160
H159	H	-0.310759	-0.465232	-0.404586
H160	H	0.189241	0.034768	0.095414
H161	H	-0.228726	-0.978278	-0.945073
H162	H	0.271274	-0.478278	-0.445073
H163	H	-0.374287	-0.832774	-0.541315
H164	H	0.125713	-0.332774	-0.041315
N165	N	-0.667415	-0.988777	-0.219051
N166	N	-0.167415	-0.488777	0.280949
H167	H	-0.713835	-0.982709	-0.225129
H168	H	-0.213835	-0.482709	0.274871
H169	H	-0.655924	-1.033518	-0.228854
H170	H	-0.155924	-0.533518	0.271146
N171	N	-0.218242	-0.539572	-0.219021
N172	N	0.281758	-0.039572	0.280979
H173	H	-0.173489	-0.551006	-0.228828
H174	H	0.326511	-0.051006	0.271172
H175	H	-0.224384	-0.493169	-0.225122
H176	H	0.275616	0.006831	0.274878
N177	N	-0.531513	-0.822070	-0.385386
N178	N	-0.031513	-0.322070	0.114614
H179	H	-0.562185	-0.796682	-0.410738
H180	H	-0.062185	-0.296682	0.089262
H181	H	-0.504411	-0.793080	-0.359836
H182	H	-0.004411	-0.293080	0.140164
H183	H	-0.374156	-0.832795	-0.944955
H184	H	0.125844	-0.332795	-0.444955
N185	N	-0.531404	-0.988739	-0.219040
N186	N	-0.031404	-0.488739	0.280960
H187	H	-0.562044	-1.014152	-0.193701
H188	H	-0.062044	-0.514152	0.306299
H189	H	-0.504211	-1.017706	-0.244587
H190	H	-0.004211	-0.517706	0.255413
N191	N	-1.071163	-0.822246	-0.385465
N192	N	-0.571163	-0.322246	0.114535
H193	H	-1.098359	-0.793235	-0.359966
H194	H	-0.598359	-0.293235	0.140034
H195	H	-1.040488	-0.796878	-0.410802
H196	H	-0.540488	-0.296878	0.089198
H197	H	-0.658861	-0.832707	-0.374827
H198	H	-0.158861	-0.332707	0.125173
N199	N	-0.218245	-0.675584	-0.219000
N200	N	0.281755	-0.175584	0.281000
H201	H	-0.192816	-0.644925	-0.193673
H202	H	0.307184	-0.144925	0.306327
H203	H	-0.243706	-0.702677	-0.189948
H204	H	0.256294	-0.202677	0.310052
N205	N	-0.733231	-0.895140	-0.419569
N206	N	-0.233231	-0.395140	0.080431
H207	H	-0.763873	-0.891994	-0.455330
H208	H	-0.263873	-0.391994	0.044670
H209	H	-0.706125	-0.856527	-0.418605
H210	H	-0.206125	-0.356527	0.081395
N211	N	-0.869241	-0.895184	-0.419591
N212	N	-0.369241	-0.395184	0.080409
H213	H	-0.838572	-0.892028	-0.455345
H214	H	-0.338572	-0.392028	0.044655
H215	H	-0.896344	-0.933365	-0.425464
H216	H	-0.396344	-0.433365	0.074536
H217	H	-0.943788	-0.832801	-0.374868
H218	H	-0.443788	-0.332801	0.125132
H219	H	-0.228870	-0.978271	-0.541437
H220	H	0.271130	-0.478271	-0.041437
H221	H	-1.062407	-0.978322	-0.229701
H222	H	-0.562407	-0.478322	0.270299
N223	N	-0.312098	-0.337875	-0.419529
N224	N	0.187902	0.162125	0.080471
H225	H	-0.352692	-0.349250	-0.440748
H226	H	0.147308	0.150750	0.059252
H227	H	-0.311308	-0.291465	-0.410908
H228	H	0.188692	0.208535	0.089092
H229	H	-0.374248	-0.832787	-0.660028
H230	H	0.125752	-0.332787	-0.160028
H231	H	-0.943700	-0.978280	-0.229680
H232	H	-0.443700	-0.478280	0.270320
N233	N	-0.218201	-0.271950	-0.219104
N234	N	0.281799	0.228050	0.280896
H235	H	-0.189209	-0.299154	-0.244615
H236	H	0.310791	0.200846	0.255385
H237	H	-0.192815	-0.241256	-0.193780
H238	H	0.307185	0.258744	0.306220
N239	N	-0.218078	-0.988860	-1.072442
N240	N	0.281922	-0.488860	-0.572442
H241	H	-0.192700	-1.014258	-1.041807
H242	H	0.307300	-0.514258	-0.541807
H243	H	-0.243560	-1.017841	-1.099621
H244	H	0.256440	-0.517841	-0.599621
H245	H	-0.403894	-0.896517	-0.861891
H246	H	0.096106	-0.396517	-0.361891
N247	N	-0.385023	-0.271972	-0.385370
N248	N	0.114977	0.228028	0.114630
H249	H	-0.410438	-0.241320	-0.410718
H250	H	0.089562	0.258680	0.089282
H251	H	-0.359567	-0.299180	-0.414403
H252	H	0.140433	0.200820	0.085597
H253	H	-0.228823	-0.978267	-0.660144
H254	H	0.271177	-0.478267	-0.160144
N255	N	-0.184176	-0.915877	-0.734548
N256	N	0.315824	-0.415877	-0.234548
H257	H	-0.148401	-0.919028	-0.765204
H258	H	0.351599	-0.419028	-0.265204
H259	H	-0.178376	-0.877705	-0.707368
H260	H	0.321624	-0.377705	-0.207368
H261	H	-0.199050	-0.914559	-0.861913
H262	H	0.300950	-0.414559	-0.361913
H263	H	-0.292509	-0.346314	-0.199811
H264	H	0.207491	0.153686	0.300189
N265	N	-0.384702	-0.822193	-1.072298
N266	N	0.115298	-0.322193	-0.572298
H267	H	-0.378605	-0.828277	-1.118719
H268	H	0.121395	-0.328277	-0.618719
H269	H	-0.429451	-0.831918	-1.060869
H270	H	0.070549	-0.331918	-0.560869
H271	H	-0.374481	-0.666953	-0.374686
H272	H	0.125519	-0.166953	0.125314
H273	H	-0.403921	-0.896343	-0.743186
H274	H	0.096079	-0.396343	-0.243186
N275	N	-0.384997	-0.135959	-0.385411
N276	N	0.115003	0.364041	0.114589
H277	H	-0.410429	-0.166619	-0.410734
H278	H	0.089571	0.333381	0.089266
H279	H	-0.413945	-0.108755	-0.359854
H280	H	0.086055	0.391245	0.140146
H281	H	-0.228777	-0.144582	-0.229715
H282	H	0.271223	0.355418	0.270285
H283	H	-0.860677	-0.914540	-0.199857
H284	H	-0.360677	-0.414540	0.300143
N285	N	-0.291196	-0.473656	-0.184858
N286	N	0.208804	0.026344	0.315142
H287	H	-0.288011	-0.442964	-0.149111
H288	H	0.211989	0.057036	0.350889
H289	H	-0.329367	-0.500762	-0.178965
H290	H	0.170633	-0.000762	0.321035
