data_functionalizedCrystal
_audit_creation_method	'MofGen! by Chris Wilmer'
_symmetry_space_group_name_H-M	'P1'
_symmetry_Int_Tables_number	1
_symmetry_cell_setting	triclinic
loop_
_symmetry_equiv_pos_as_xyz
  x,y,z
_cell_length_a	6.817900
_cell_length_b	16.417825
_cell_length_c	19.453114
_cell_angle_alpha	95.881640
_cell_angle_beta	101.709288
_cell_angle_gamma	103.385495
loop_
_atom_site_label
_atom_site_type_symbol
_atom_site_fract_x
_atom_site_fract_y
_atom_site_fract_z
V1	V	-4.006342	-0.116758	-0.219247
O2	O	-3.994761	0.004713	-0.214820
O3	O	-3.957502	-0.230649	-0.217991
O4	O	-3.949263	-0.115356	-0.314757
O5	O	-4.003057	-0.111378	-0.117384
V6	V	-4.491152	-0.102182	-0.207034
O7	O	-4.264778	-0.148732	-0.246038
O8	O	-4.682913	-0.070209	-0.180243
O9	O	-4.316786	0.011708	-0.208290
O10	O	-4.620130	-0.223654	-0.211461
O11	O	-4.611834	-0.107563	-0.308896
O12	O	-4.325025	-0.103585	-0.111524
C13	C	-3.802677	-0.258401	-0.214595
C14	C	-3.843973	-0.351511	-0.214205
C15	C	-3.904686	-0.553515	-0.148973
C16	C	-3.943511	-0.641003	-0.148612
C17	C	-4.012188	-0.665426	-0.277316
C18	C	-3.973378	-0.577940	-0.277676
C19	C	-3.919617	-0.521986	-0.213503
C20	C	-3.997251	-0.696960	-0.212781
C21	C	-4.039346	-0.791819	-0.212390
C22	C	-3.877523	-0.427122	-0.213893
C23	C	-3.792166	-0.111332	-0.338029
C24	C	-3.826778	-0.110939	-0.416110
C25	C	-4.024804	-0.114959	-0.456376
C26	C	-4.057326	-0.114590	-0.529742
C27	C	-3.891819	-0.110218	-0.562842
C28	C	-3.693762	-0.106193	-0.522566
C29	C	-3.661241	-0.106554	-0.449200
N30	N	-3.831904	-0.154451	-0.681725
N31	N	-3.862811	-0.154111	-0.751420
C32	C	-3.989789	-0.109129	-0.783888
N33	N	-4.084729	-0.064512	-0.744030
N34	N	-4.053828	-0.064857	-0.674330
C35	C	-3.927061	-0.109826	-0.642394
C36	C	-4.223091	-0.112748	-0.903705
C37	C	-4.255604	-0.112373	-0.977072
C38	C	-3.892038	-0.103985	-0.969895
C39	C	-3.859527	-0.104351	-0.896529
C40	C	-4.025063	-0.108737	-0.863439
C41	C	-4.134953	0.039456	-0.211684
C42	C	-4.072895	0.132565	-0.212078
C43	C	-4.145465	-0.107611	-0.088248
C44	C	-4.090091	-0.108000	-0.010166
H45	H	-3.931352	-0.666669	-0.096065
H46	H	-4.218591	-0.117868	-0.562533
H47	H	-3.757274	-0.100418	-0.996843
H48	H	-3.559005	-0.102631	-0.549520
H49	H	-4.055960	-0.710994	-0.329564
C50	C	-3.845571	-0.491969	-0.078380
N51	N	-3.801053	-0.445615	-0.025208
C52	C	-3.989793	-0.543256	-0.348668
N53	N	-4.002156	-0.517132	-0.402136
C54	C	-4.206895	-0.119769	-0.419980
N55	N	-4.344044	-0.123386	-0.392564
H56	H	-3.499979	-0.103274	-0.416415
C57	C	-4.405176	-0.117561	-0.867302
N58	N	-4.542324	-0.121184	-0.839885
H59	H	-4.416861	-0.115641	-1.009854
H60	H	-3.698278	-0.101087	-0.863745
