data_functionalizedCrystal
_audit_creation_method	'MofGen! by Chris Wilmer'
_symmetry_space_group_name_H-M	'P1'
_symmetry_Int_Tables_number	1
_symmetry_cell_setting	triclinic
loop_
_symmetry_equiv_pos_as_xyz
  x,y,z
_cell_length_a	13.032951
_cell_length_b	13.032318
_cell_length_c	13.033454
_cell_angle_alpha	74.790997
_cell_angle_beta	89.089765
_cell_angle_gamma	89.113649
loop_
_atom_site_label
_atom_site_type_symbol
_atom_site_fract_x
_atom_site_fract_y
_atom_site_fract_z
Zn1	Zn	-1.442863	0.509569	0.709097
Zn2	Zn	-1.442710	0.709802	0.508886
Zn3	Zn	-1.292094	0.515157	0.514536
Zn4	Zn	-1.253779	0.665819	0.665213
O5	O	-1.357862	0.600087	0.599433
O6	O	-1.585009	0.552199	0.698540
O7	O	-1.438701	0.704728	0.362787
O8	O	-1.328193	0.367565	0.561074
O9	O	-1.584896	0.699310	0.551445
O10	O	-1.438963	0.363460	0.704018
O11	O	-1.328045	0.561723	0.366938
O12	O	-1.144846	0.519074	0.518522
O13	O	-1.262890	0.624346	0.817883
O14	O	-1.116695	0.629765	0.629224
O15	O	-1.401810	0.509550	0.850124
O16	O	-1.401549	0.850819	0.508893
O17	O	-1.262741	0.818504	0.623746
C18	C	-1.093908	0.570253	0.569725
C19	C	-0.980982	0.557512	0.557037
C20	C	-1.327996	0.872738	0.560970
C21	C	-1.315308	0.989385	0.544562
C22	C	-0.916735	0.606715	0.606044
C23	C	-0.800020	0.593548	0.592931
C24	C	-0.622847	0.630027	0.629252
C25	C	-0.735774	0.642758	0.641945
C26	C	-1.364411	1.039262	0.608030
C27	C	-1.351299	1.159823	0.591072
C28	C	-1.328093	0.561419	0.873144
C29	C	-1.315408	0.544941	0.989783
C30	C	-1.387807	1.326363	0.638075
C31	C	-1.400409	1.209697	0.654549
C32	C	-1.387581	0.638535	0.326804
C33	C	-1.400495	0.654740	0.210229
C34	C	-1.364503	0.608351	1.039731
C35	C	-1.351393	0.591321	1.160284
H36	H	-0.948138	0.658584	0.657712
N37	N	-1.433046	0.696958	0.978170
H38	H	-1.432665	0.696588	0.900770
H39	H	-1.406979	0.767437	0.984945
H40	H	-1.263675	0.478042	1.036271
N41	N	-1.282849	0.502709	1.221845
H42	H	-1.210530	0.513477	1.192351
H43	H	-1.308983	0.432221	1.215169
N44	N	-1.469041	0.743351	1.148669
H45	H	-1.468661	0.742977	1.071270
H46	H	-1.442974	0.813831	1.155440
H47	H	-0.768622	0.541667	0.541269
N48	N	-1.246768	1.051036	0.455946
H49	H	-1.174448	1.021582	0.466655
H50	H	-1.247203	1.128408	0.456436
N51	N	-0.777342	0.711476	0.710390
H52	H	-0.820749	0.666958	0.770009
H53	H	-0.820653	0.771000	0.665649
N54	N	-0.939400	0.488806	0.488592
H55	H	-0.861917	0.489143	0.488922
H56	H	-0.964265	0.517697	0.413396
H57	H	-1.416154	0.992710	0.674926
H58	H	-1.299544	1.206371	0.524180
H59	H	-1.452155	1.163147	0.721449
