data_functionalizedCrystal
_audit_creation_method	'MofGen! by Chris Wilmer'
_symmetry_space_group_name_H-M	'P1'
_symmetry_Int_Tables_number	1
_symmetry_cell_setting	triclinic
loop_
_symmetry_equiv_pos_as_xyz
  x,y,z
_cell_length_a	21.395362
_cell_length_b	18.101395
_cell_length_c	21.395355
_cell_angle_alpha	90.015727
_cell_angle_beta	90.043940
_cell_angle_gamma	90.046983
loop_
_atom_site_label
_atom_site_type_symbol
_atom_site_fract_x
_atom_site_fract_y
_atom_site_fract_z
Zn1	Zn	0.957858	-0.294602	0.354598
Zn2	Zn	1.457858	0.205398	0.854598
Zn3	Zn	0.957760	-0.418425	0.249825
Zn4	Zn	1.457760	0.081575	0.749825
Zn5	Zn	0.853073	-0.294636	0.249799
Zn6	Zn	1.353073	0.205364	0.749799
Zn7	Zn	0.853041	-0.418440	0.354530
Zn8	Zn	1.353041	0.081560	0.854530
O9	O	0.905433	-0.356526	0.302188
O10	O	1.405433	0.143474	0.802188
O11	O	1.045523	-0.311006	0.340739
O12	O	1.545523	0.188994	0.840739
O13	O	0.943845	-0.402012	0.162144
O14	O	1.443845	0.097988	0.662144
O15	O	0.867027	-0.190998	0.263718
O16	O	1.367027	0.309002	0.763718
O17	O	1.045450	-0.401979	0.263763
O18	O	1.545450	0.098021	0.763763
O19	O	0.944012	-0.190973	0.340713
O20	O	1.444012	0.309027	0.840713
O21	O	0.866932	-0.311065	0.162125
O22	O	1.366932	0.188935	0.662125
O23	O	0.765391	-0.311080	0.263652
O24	O	1.265391	0.188920	0.763652
O25	O	0.866973	-0.402005	0.442217
O26	O	1.366973	0.097995	0.942217
O27	O	0.765367	-0.402038	0.340598
O28	O	1.265367	0.097962	0.840598
O29	O	0.943982	-0.311021	0.442267
O30	O	1.443982	0.188979	0.942267
O31	O	0.943814	-0.522060	0.263697
O32	O	1.443814	-0.022060	0.763697
O33	O	0.866878	-0.522071	0.340623
O34	O	1.366878	-0.022071	0.840623
C35	C	0.742645	-0.356565	0.302115
C36	C	1.242645	0.143435	0.802115
C37	C	0.673004	-0.356599	0.302099
C38	C	1.173004	0.143401	0.802099
C39	C	0.640295	-0.404024	0.342105
C40	C	1.140295	0.095976	0.842105
C41	C	0.574860	-0.404006	0.342133
C42	C	1.074860	0.095994	0.842133
C43	C	0.542136	-0.356571	0.302144
C44	C	1.042136	0.143429	0.802144
C45	C	0.574852	-0.309137	0.262135
C46	C	1.074852	0.190863	0.762135
C47	C	0.640286	-0.309151	0.262113
C48	C	1.140286	0.190849	0.762113
C49	C	0.438411	-0.350605	0.245738
C50	C	0.938411	0.149395	0.745738
C51	C	0.372978	-0.350596	0.245760
C52	C	0.872978	0.149404	0.745760
C53	C	0.340315	-0.356523	0.302213
C54	C	0.840315	0.143477	0.802213
C55	C	0.373093	-0.362474	0.358647
C56	C	0.873093	0.137526	0.858647
C57	C	0.438527	-0.362488	0.358624
C58	C	0.938527	0.137512	0.858624
C59	C	0.471183	-0.356550	0.302164
C60	C	0.971183	0.143450	0.802164
C61	C	0.236654	-0.403930	0.342252
C62	C	0.736654	0.096070	0.842252
C63	C	0.171217	-0.403907	0.342281
C64	C	0.671217	0.096093	0.842281
C65	C	0.171211	-0.309042	0.262278
C66	C	0.671211	0.190958	0.762278
C67	C	0.236646	-0.309061	0.262255
C68	C	0.736646	0.190939	0.762255
C69	C	0.269364	-0.356509	0.302241
C70	C	0.769364	0.143491	0.802241
C71	C	0.905349	-0.548936	0.302170
C72	C	1.405349	-0.048936	0.802170
C73	C	0.905370	-0.631250	0.302183
C74	C	1.405370	-0.131250	0.802183
C75	C	0.905508	-0.930341	0.302216
C76	C	1.405508	-0.430341	0.802216
C77	C	0.857214	-0.899054	0.350736
C78	C	1.357214	-0.399054	0.850736
C79	C	0.856985	-0.813436	0.350585
C80	C	1.356985	-0.313436	0.850585
C81	C	0.905440	-0.781959	0.302200
C82	C	1.405440	-0.281959	0.802200
C83	C	0.887557	-0.813100	0.236161
C84	C	1.387557	-0.313100	0.736161
C85	C	0.887246	-0.898745	0.236451
C86	C	1.387246	-0.398745	0.736451
C87	C	0.971790	-0.898667	0.319154
C88	C	1.471790	-0.398667	0.819154
C89	C	0.971400	-0.813017	0.320602
C90	C	1.471400	-0.313017	0.820602
C91	C	0.905402	-0.698099	0.302187
C92	C	1.405402	-0.198099	0.802187
C93	C	0.905544	-1.014201	0.302225
C94	C	1.405544	-0.514201	0.802225
C95	C	1.068856	-0.356487	0.302261
C96	C	1.568856	0.143513	0.802261
C97	C	1.138497	-0.356470	0.302293
C98	C	1.638497	0.143530	0.802293
C99	C	0.905485	-0.356511	0.465611
C100	C	1.405485	0.143489	0.965611
C101	C	0.905507	-0.356504	0.535253
C102	C	1.405507	0.143496	1.035253
C103	C	0.905534	-0.163364	0.302220
C104	C	1.405534	0.336636	0.802220
C105	C	0.905577	-0.081050	0.302234
C106	C	1.405577	0.418950	0.802234
C107	C	0.905417	-0.356487	0.139400
C108	C	1.405417	0.143513	0.639400
C109	C	0.905516	-0.356285	0.069760
C110	C	1.405516	0.143715	0.569760
C111	C	0.945603	-0.309127	0.567993
C112	C	1.445603	0.190873	1.067993
C113	C	0.945603	-0.309095	0.633428
C114	C	1.445603	0.190905	1.133428
C115	C	0.905512	-0.356454	0.666121
C116	C	1.405512	0.143546	1.166121
C117	C	0.865408	-0.403834	0.633373
C118	C	1.365408	0.096166	1.133373
C119	C	0.865405	-0.403859	0.567939
C120	C	1.365405	0.096141	1.067939
C121	C	0.900536	-0.423137	0.769788
C122	C	1.400536	0.076863	1.269788
C123	C	0.900542	-0.423113	0.835221
C124	C	1.400542	0.076887	1.335221
C125	C	0.905516	-0.356375	0.867942
C126	C	1.405516	0.143625	1.367942
C127	C	0.910495	-0.289660	0.835222
C128	C	1.410495	0.210340	1.335222
C129	C	0.910493	-0.289685	0.769788
C130	C	1.410493	0.210315	1.269788
C131	C	0.905510	-0.356431	0.737073
C132	C	1.405510	0.143569	1.237073
C133	C	0.945613	-0.308960	0.971635
C134	C	1.445613	0.191040	1.471635
C135	C	0.945608	-0.308927	1.037071
C136	C	1.445608	0.191073	1.537071
C137	C	0.865416	-0.403672	1.037015
C138	C	1.365416	0.096328	1.537015
C139	C	0.865418	-0.403699	0.971580
C140	C	1.365418	0.096301	1.471580
C141	C	0.905520	-0.356344	0.938893
C142	C	1.405520	0.143656	1.438893
H143	H	0.144587	-0.442524	0.374862
H144	H	0.644587	0.057476	0.874862
H145	H	0.914546	-0.235363	0.743150
H146	H	1.414546	0.264637	1.243150
H147	H	0.978259	-0.270342	1.063727
H148	H	1.478259	0.229658	1.563727
H149	H	0.984886	-0.792661	0.369204
H150	H	1.484886	-0.292661	0.869204
H151	H	0.868292	-0.919610	0.399862
H152	H	1.368292	-0.419610	0.899862
H153	H	0.896491	-0.477437	0.861856
H154	H	1.396491	0.022563	1.361856
H155	H	0.838794	-0.918801	0.222106
H156	H	1.338794	-0.418801	0.722106
H157	H	0.920895	-0.919443	0.199066
H158	H	1.420895	-0.419443	0.699066
N159	N	0.135928	-0.257879	0.219143
N160	N	0.635928	0.242121	0.719143
H161	H	0.147373	-0.204986	0.228949
H162	H	0.647373	0.295014	0.728949
H163	H	0.089523	-0.265126	0.225246
H164	H	0.589523	0.234874	0.725246
N165	N	0.675562	-0.257998	0.218956
N166	N	1.175562	0.242002	0.718956
H167	H	0.702651	-0.288049	0.189865
H168	H	1.202651	0.211951	0.689865
H169	H	0.702733	-0.223739	0.244503
H170	H	1.202733	0.276261	0.744503
N171	N	0.932680	-0.786096	0.186963
N172	N	1.432680	-0.286096	0.686963
H173	H	0.965226	-0.753337	0.207058
H174	H	1.465226	-0.253337	0.707058
H175	H	0.909130	-0.757112	0.154220
H176	H	1.409130	-0.257112	0.654220
N177	N	0.675576	-0.455199	0.385235
N178	N	1.175576	0.044801	0.885235
H179	H	0.664245	-0.443772	0.430022
H180	H	1.164245	0.056228	0.930022
H181	H	0.721982	-0.447993	0.379102
H182	H	1.221982	0.052007	0.879102
N183	N	0.895180	-0.495123	0.734498
N184	N	1.395180	0.004877	1.234498
H185	H	0.892035	-0.537382	0.765153
H186	H	1.392035	-0.037382	1.265153
H187	H	0.933355	-0.501991	0.707382
H188	H	1.433355	-0.001991	1.207382
N189	N	0.993387	-0.927233	0.381850
N190	N	1.493387	-0.427233	0.881850
H191	H	1.033685	-0.955547	0.376481
H192	H	1.533685	-0.455547	0.876481
H193	H	0.960378	-0.960965	0.399867
H194	H	1.460378	-0.460965	0.899867
N195	N	1.021590	-0.784626	0.277212
N196	N	1.521590	-0.284626	0.777212
H197	H	1.002193	-0.751082	0.244865
H198	H	1.502193	-0.251082	0.744865
H199	H	1.042462	-0.827695	0.255686
H200	H	1.542462	-0.327695	0.755686
H201	H	0.263278	-0.270446	0.229675
H202	H	0.763278	0.229554	0.729675
N203	N	0.822169	-0.454747	1.072267
N204	N	1.322169	0.045253	1.572267
H205	H	0.828253	-0.447541	1.118688
H206	H	1.328253	0.052459	1.618688
H207	H	0.831891	-0.507641	1.060840
H208	H	1.331891	-0.007641	1.560840
N209	N	0.791910	-0.786392	0.335716
N210	N	1.291910	-0.286392	0.835716
H211	H	0.763262	-0.830107	0.329232
H212	H	1.263262	-0.330107	0.829232
H213	H	0.793032	-0.755527	0.296415
H214	H	1.293032	-0.255527	0.796415
H215	H	0.346295	-0.345754	0.199808
H216	H	0.846295	0.154246	0.699808
H217	H	0.346500	-0.367299	0.404617
H218	H	0.846500	0.132701	0.904617
H219	H	0.839618	-0.791728	0.221559
H220	H	1.339618	-0.291728	0.721559
N221	N	0.473877	-0.368904	0.419489
N222	N	0.973877	0.131096	0.919489
H223	H	0.462558	-0.326127	0.447595
H224	H	0.962558	0.173873	0.947595
H225	H	0.520273	-0.368036	0.410854
H226	H	1.020273	0.131964	0.910854
N227	N	0.871798	-0.785536	0.415445
N228	N	1.371798	-0.285536	0.915445
H229	H	0.914382	-0.803934	0.428577
H230	H	1.414382	-0.303934	0.928577
H231	H	0.839224	-0.804253	0.445703
H232	H	1.339224	-0.304253	0.945703
H233	H	0.465000	-0.345775	0.199764
H234	H	0.965000	0.154225	0.699764
N235	N	1.019454	-0.925458	0.272347
N236	N	1.519454	-0.425458	0.772347
H237	H	0.998251	-0.957953	0.240323
H238	H	1.498251	-0.457953	0.740323
H239	H	1.052880	-0.954670	0.294700
H240	H	1.552880	-0.454670	0.794700
N241	N	0.988853	-0.258052	0.532738
N242	N	1.488853	0.241948	1.032738
H243	H	1.014254	-0.228033	0.563412
H244	H	1.514254	0.271967	1.063412
H245	H	0.963367	-0.223794	0.505570
H246	H	1.463367	0.276206	1.005570
H247	H	0.832771	-0.442283	0.944922
H248	H	1.332771	0.057717	1.444922
H249	H	0.548204	-0.270514	0.229577
H250	H	1.048204	0.229486	0.729577
H251	H	0.808383	-0.920654	0.339656
H252	H	1.308383	-0.420654	0.839656
N253	N	0.822170	-0.454910	0.668640
N254	N	1.322170	0.045090	1.168640
H255	H	0.831869	-0.507827	0.657263
H256	H	1.331869	-0.007827	1.157263
H257	H	0.777425	-0.443358	0.657210
H258	H	1.277425	0.056642	1.157210
N259	N	0.822148	-0.454951	0.532622
N260	N	1.322148	0.045049	1.032622
H261	H	0.796745	-0.484944	0.563259
H262	H	1.296745	0.015056	1.063259
H263	H	0.847625	-0.489232	0.505490
H264	H	1.347625	0.010768	1.005490
N265	N	0.988872	-0.257891	0.936382
N266	N	1.488872	0.242109	1.436382
H267	H	1.017892	-0.288002	0.909267
H268	H	1.517892	0.211998	1.409267
H269	H	1.014228	-0.227887	0.967101
H270	H	1.514228	0.272113	1.467101
H271	H	0.978253	-0.270511	0.660090
H272	H	1.478253	0.229489	1.160090
H273	H	0.914546	-0.235316	0.861862
H274	H	1.414546	0.264684	1.361862
H275	H	0.548223	-0.442625	0.374712
H276	H	1.048223	0.057375	0.874712
H277	H	0.263294	-0.442562	0.374814
H278	H	0.763294	0.057438	0.874814
