data_functionalizedCrystal
_audit_creation_method	'MofGen! by Chris Wilmer'
_symmetry_space_group_name_H-M	'P1'
_symmetry_Int_Tables_number	1
_symmetry_cell_setting	triclinic
loop_
_symmetry_equiv_pos_as_xyz
  x,y,z
_cell_length_a	10.654550
_cell_length_b	14.971486
_cell_length_c	9.130313
_cell_angle_alpha	89.995272
_cell_angle_beta	89.999724
_cell_angle_gamma	84.049530
loop_
_atom_site_label
_atom_site_type_symbol
_atom_site_fract_x
_atom_site_fract_y
_atom_site_fract_z
O1	O	1.666492	0.125631	-0.121691
O2	O	1.300885	0.137600	-0.121718
O3	O	1.493487	0.001469	-0.121693
O4	O	1.473889	0.261762	-0.121716
O5	O	1.493474	0.001465	0.121906
O6	O	1.300872	0.137596	0.121881
O7	O	1.666479	0.125627	0.121908
Cu8	Cu	1.483674	0.131611	0.144137
Cu9	Cu	1.483689	0.131616	-0.143947
O10	O	1.473876	0.261758	0.121883
C11	C	1.254090	0.136720	0.000078
C12	C	1.114675	0.134090	0.000068
C13	C	1.034329	0.214242	0.000065
C14	C	0.903335	0.211766	0.000091
C15	C	0.933044	0.048979	0.000116
C16	C	1.064036	0.051456	0.000101
C17	C	1.492604	-0.031863	0.000106
C18	C	1.489978	-0.131174	0.000104
C19	C	1.603127	-0.187783	0.000114
C20	C	1.600651	-0.281096	0.000099
C21	C	1.485026	-0.317798	0.000085
C22	C	1.371868	-0.261181	0.000071
C23	C	1.374345	-0.167870	0.000075
C24	C	1.366714	-0.455672	0.000065
C25	C	1.364237	-0.548989	0.000064
C26	C	1.593020	-0.568898	0.000089
C27	C	1.595497	-0.475587	0.000093
C28	C	1.482339	-0.418976	0.000082
C29	C	1.713274	0.126508	0.000109
C30	C	1.852689	0.129137	0.000109
C31	C	1.474759	0.295090	0.000081
C32	C	1.477385	0.394401	0.000073
N33	N	1.483672	0.131608	0.346760
N34	N	1.483701	0.131613	-0.346570
C35	C	1.568985	0.071354	0.423422
C36	C	1.568997	0.071354	0.576759
C37	C	1.398379	0.191869	0.576757
C38	C	1.398362	0.191864	0.423423
H39	H	0.837922	0.277034	0.000092
H40	H	1.692789	-0.327185	0.000110
C41	C	1.304513	0.258147	0.339080
C42	C	1.210728	0.324467	0.423397
C43	C	1.116881	0.390744	0.339053
C44	C	1.116818	0.390701	0.170392
C45	C	1.210606	0.324379	0.086065
C46	C	1.304454	0.258102	0.170409
H47	H	1.210772	0.324501	0.548259
H48	H	1.047452	0.439840	0.401478
H49	H	1.047346	0.439763	0.107955
H50	H	1.210563	0.324345	-0.038797
H51	H	1.373882	0.209006	0.107984
C52	C	1.662846	0.005077	0.661090
C53	C	1.756700	-0.061186	0.576760
C54	C	1.850552	-0.127467	0.661091
C55	C	1.850550	-0.127484	0.829753
C56	C	1.756693	-0.061218	0.914092
C57	C	1.662841	0.005062	0.829761
H58	H	1.756704	-0.061175	0.451898
H59	H	1.920031	-0.176521	0.598656
H60	H	1.920024	-0.176549	0.892179
H61	H	1.756688	-0.061229	1.038954
H62	H	1.593362	0.054117	0.892196
H63	H	1.689649	-0.445708	0.000115
H64	H	1.075554	0.281528	0.000050
C65	C	1.242242	-0.393396	0.000054
C66	C	1.147533	-0.398002	-0.126445
C67	C	1.023066	-0.335726	-0.126449
C68	C	0.993307	-0.268844	0.000045
C69	C	1.088018	-0.264236	0.126553
C70	C	1.212485	-0.326512	0.126557
H71	H	1.169561	-0.447514	-0.220091
H72	H	0.952955	-0.339137	-0.220099
H73	H	0.901169	-0.222744	0.000042
H74	H	1.065991	-0.214724	0.220200
H75	H	1.282596	-0.323101	0.220207
H76	H	0.891798	-0.018299	0.000152
H77	H	1.129457	-0.013817	0.000107
H78	H	1.697282	-0.157909	0.000134
H79	H	1.277724	-0.291071	0.000051
H80	H	1.685158	-0.614995	0.000093
H81	H	1.270084	-0.578868	0.000076
H82	H	1.282207	-0.121779	0.000068
H83	H	1.638448	0.022288	0.361007
H84	H	1.328923	0.240930	0.639192
