data_functionalizedCrystal
_audit_creation_method	'MofGen! by Chris Wilmer'
_symmetry_space_group_name_H-M	'P1'
_symmetry_Int_Tables_number	1
_symmetry_cell_setting	triclinic
loop_
_symmetry_equiv_pos_as_xyz
  x,y,z
_cell_length_a	12.837943
_cell_length_b	13.596369
_cell_length_c	12.811415
_cell_angle_alpha	95.436841
_cell_angle_beta	89.411917
_cell_angle_gamma	90.004014
loop_
_atom_site_label
_atom_site_type_symbol
_atom_site_fract_x
_atom_site_fract_y
_atom_site_fract_z
O1	O	1.376634	0.106119	0.272980
O2	O	1.876634	0.606119	0.772980
O3	O	1.074770	0.104922	0.259496
O4	O	1.574770	0.604922	0.759496
O5	O	1.233295	0.091955	0.114204
O6	O	1.733295	0.591955	0.614204
O7	O	1.218108	0.119085	0.418271
O8	O	1.718108	0.619085	0.918271
O9	O	1.233279	-0.071629	0.114194
O10	O	1.733279	0.428371	0.614194
O11	O	1.074754	-0.058662	0.259485
O12	O	1.574754	0.441338	0.759485
O13	O	1.376618	-0.057465	0.272970
O14	O	1.876618	0.442535	0.772970
Zn15	Zn	1.225683	-0.084036	0.266226
Zn16	Zn	1.725683	0.415964	0.766226
Zn17	Zn	1.225704	0.131493	0.266240
Zn18	Zn	1.725704	0.631493	0.766240
O19	O	1.218092	-0.044498	0.418261
O20	O	1.718092	0.455502	0.918261
C21	C	1.036122	0.022724	0.254935
C22	C	1.536122	0.522724	0.754935
C23	C	0.920986	0.021515	0.241349
C24	C	1.420986	0.521515	0.741349
N25	N	1.225677	-0.231129	0.266217
N26	N	1.725677	0.268871	0.766217
C27	C	0.680733	0.036074	0.404680
C28	C	1.180733	0.536074	0.904680
C29	C	0.572552	0.034937	0.391919
C30	C	1.072552	0.534937	0.891919
C31	C	0.596441	0.018097	0.203068
C32	C	1.096441	0.518097	0.703068
C33	C	0.704622	0.019234	0.215829
C34	C	1.204622	0.519234	0.715829
C35	C	0.746763	0.028224	0.316638
C36	C	1.246763	0.528224	0.816638
C37	C	0.854946	0.029368	0.329397
C38	C	1.354946	0.529368	0.829397
C39	C	0.878834	0.012522	0.140547
C40	C	1.378834	0.512522	0.640547
C41	C	0.770653	0.011385	0.127787
C42	C	1.270653	0.511385	0.627787
C43	C	1.225703	-0.632417	0.266240
C44	C	1.725703	-0.132417	0.766240
C45	C	1.225692	-0.520766	0.266237
C46	C	1.725692	-0.020766	0.766237
C47	C	1.225690	-0.431776	0.266230
C48	C	1.725690	0.068224	0.766230
C49	C	1.225679	-0.320118	0.266225
C50	C	1.725679	0.179882	0.766225
C51	C	1.415266	0.024735	0.277531
C52	C	1.915266	0.524735	0.777531
C53	C	1.530402	0.025951	0.291117
C54	C	2.030402	0.525951	0.791117
C55	C	1.232436	0.006669	0.075010
C56	C	1.732436	0.506669	0.575010
C57	C	1.229887	-0.003744	-0.041764
C58	C	1.729887	0.496256	0.458236
N59	N	1.225719	0.278585	0.266241
N60	N	1.725719	0.778585	0.766241
C61	C	1.225095	0.155049	-0.261173
C62	C	1.725095	0.655049	0.238827
C63	C	1.222700	0.145270	-0.370892
C64	C	1.722700	0.645270	0.129108
C65	C	1.222694	-0.033079	-0.370923
C66	C	1.722694	0.466921	0.129077
C67	C	1.225089	-0.023301	-0.261204
C68	C	1.725089	0.476699	0.238796
C69	C	1.226291	0.070767	-0.206332
C70	C	1.726291	0.570767	0.293668
C71	C	1.228694	0.080545	-0.096612
C72	C	1.728694	0.580545	0.403388
C73	C	1.228680	-0.097804	-0.096644
C74	C	1.728680	0.402196	0.403356
C75	C	1.226285	-0.107583	-0.206363
C76	C	1.726285	0.392417	0.293637
C77	C	1.218951	0.040790	0.457456
C78	C	1.718951	0.540790	0.957456
C79	C	1.221501	0.051209	0.574229
C80	C	1.721501	0.551209	1.074229
H81	H	0.889256	0.036686	0.411481
H82	H	1.389256	0.536686	0.911481
C83	C	0.499921	0.043572	0.488773
C84	C	0.999921	0.543572	0.988773
N85	N	0.445215	0.050074	0.561727
N86	N	0.945215	0.550074	1.061727
C87	C	1.226424	0.258523	-0.200812
C88	C	1.726424	0.758523	0.299188
N89	N	1.227423	0.336461	-0.155350
N90	N	1.727423	0.836461	0.344650
H91	H	0.715045	0.043395	0.486762
H92	H	1.215045	0.543395	0.986762
H93	H	1.229676	0.157139	-0.051937
H94	H	1.729676	0.657139	0.448063
H95	H	0.736326	0.004054	0.045711
H96	H	1.236326	0.504054	0.545711
H97	H	0.932608	0.006136	0.068857
H98	H	1.432608	0.506136	0.568857
C99	C	1.221409	0.237988	-0.431213
C100	C	1.721409	0.737988	0.068787
N101	N	1.220445	0.307827	-0.476647
N102	N	1.720445	0.807827	0.023353
C103	C	1.221348	-0.136545	-0.431299
C104	C	1.721348	0.363455	0.068701
N105	N	1.220330	-0.214477	-0.476776
N106	N	1.720330	0.285523	0.023224
H107	H	0.562110	0.010697	0.120994
H108	H	1.062110	0.510697	0.620994
C109	C	1.224958	-0.211052	-0.266734
C110	C	1.724958	0.288948	0.233266
N111	N	1.223961	-0.288987	-0.312204
N112	N	1.723961	0.211013	0.187796
C113	C	1.229998	-0.190521	-0.036311
C114	C	1.729998	0.309479	0.463689
N115	N	1.230993	-0.260353	0.009133
N116	N	1.730993	0.239647	0.509133
