data_functionalizedCrystal
_audit_creation_method	'MofGen! by Chris Wilmer'
_symmetry_space_group_name_H-M	'P1'
_symmetry_Int_Tables_number	1
_symmetry_cell_setting	triclinic
loop_
_symmetry_equiv_pos_as_xyz
  x,y,z
_cell_length_a	19.077236
_cell_length_b	13.031981
_cell_length_c	19.076919
_cell_angle_alpha	95.212724
_cell_angle_beta	90.112677
_cell_angle_gamma	99.168272
loop_
_atom_site_label
_atom_site_type_symbol
_atom_site_fract_x
_atom_site_fract_y
_atom_site_fract_z
Zn1	Zn	1.027260	-0.379248	0.406832
Zn2	Zn	1.527260	0.120752	0.906832
Zn3	Zn	1.018200	-0.546676	0.274444
Zn4	Zn	1.518200	-0.046676	0.774444
Zn5	Zn	0.914520	-0.378700	0.284661
Zn6	Zn	1.414520	0.121300	0.784661
Zn7	Zn	0.894879	-0.560614	0.385943
Zn8	Zn	1.394879	-0.060614	0.885943
O9	O	0.963714	-0.466310	0.337970
O10	O	1.463714	0.033690	0.837970
O11	O	1.124850	-0.395853	0.393737
O12	O	1.624850	0.104147	0.893737
O13	O	1.008875	-0.518331	0.178007
O14	O	1.508875	-0.018331	0.678007
O15	O	0.941487	-0.232571	0.313886
O16	O	1.441487	0.267429	0.813886
O17	O	1.118194	-0.518863	0.296472
O18	O	1.618194	-0.018863	0.796472
O19	O	1.024316	-0.232973	0.403644
O20	O	1.524316	0.267027	0.903644
O21	O	0.932702	-0.394920	0.185514
O22	O	1.432702	0.105080	0.685514
O23	O	0.813122	-0.408435	0.293630
O24	O	1.313122	0.091565	0.793630
O25	O	0.908011	-0.542618	0.486506
O26	O	1.408011	-0.042618	0.986506
O27	O	0.798692	-0.542087	0.368042
O28	O	1.298692	-0.042087	0.868042
O29	O	1.005271	-0.409369	0.501853
O30	O	1.505271	0.090631	1.001853
O31	O	0.989829	-0.694727	0.276216
O32	O	1.489829	-0.194727	0.776216
O33	O	0.899226	-0.704967	0.358134
O34	O	1.399226	-0.204967	0.858134
C35	C	0.780291	-0.476715	0.329678
C36	C	1.280291	0.023285	0.829678
C37	C	0.701819	-0.481192	0.326145
C38	C	1.201819	0.018808	0.826145
C39	C	0.668407	-0.419362	0.375185
C40	C	1.168407	0.080638	0.875185
C41	C	0.594675	-0.423564	0.371860
C42	C	1.094675	0.076436	0.871860
C43	C	0.554355	-0.489602	0.319497
C44	C	1.054355	0.010398	0.819497
C45	C	0.587773	-0.551435	0.270452
C46	C	1.087773	-0.051435	0.770452
C47	C	0.661504	-0.547227	0.273775
C48	C	1.161504	-0.047227	0.773775
C49	C	0.333472	-0.509038	0.304120
C50	C	0.833472	-0.009038	0.804120
C51	C	0.259735	-0.513244	0.300803
C52	C	0.759735	-0.013244	0.800803
C53	C	0.266643	-0.385371	0.402209
C54	C	0.766643	0.114629	0.902209
C55	C	0.340375	-0.381173	0.405530
C56	C	0.840375	0.118827	0.905530
C57	C	0.373786	-0.443002	0.356483
C58	C	0.873786	0.056998	0.856483
N59	N	0.478989	-0.493901	0.316098
N60	N	0.978989	0.006099	0.816098
N61	N	0.449152	-0.438697	0.359879
N62	N	0.949152	0.061303	0.859879
C63	C	0.941432	-0.737755	0.313816
C64	C	1.441432	-0.237755	0.813816
C65	C	0.931963	-0.853878	0.303509
C66	C	1.431963	-0.353878	0.803509
C67	C	0.968693	-0.905770	0.343365
C68	C	1.468693	-0.405770	0.843365
C69	C	0.958907	-1.025789	0.332713
C70	C	1.458907	-0.525789	0.832713
C71	C	1.147854	-0.455864	0.346295
C72	C	1.647854	0.044136	0.846295
C73	C	1.226323	-0.451413	0.349842
C74	C	1.726323	0.048587	0.849842
C75	C	0.955460	-0.477609	0.520245
C76	C	1.455460	0.022391	1.020245
C77	C	0.951943	-0.482425	0.597920
C78	C	1.451943	0.017575	1.097920
C79	C	0.986103	-0.193804	0.362235
C80	C	1.486103	0.306196	0.862235
C81	C	0.995643	-0.077678	0.372575
C82	C	1.495643	0.422322	0.872575
C83	C	0.971983	-0.454976	0.156413
C84	C	1.471983	0.045024	0.656413
C85	C	0.975662	-0.449859	0.078771
C86	C	1.475662	0.050141	0.578771
C87	C	1.000926	-0.415314	0.642403
C88	C	1.500926	0.084686	1.142403
C89	C	0.997612	-0.419835	0.715386
C90	C	1.497612	0.080165	1.215386
C91	C	0.945319	-0.491472	0.743885
C92	C	1.445319	0.008528	1.243885
C93	C	0.896331	-0.558586	0.699397
C94	C	1.396331	-0.058586	1.199397
C95	C	0.899642	-0.554059	0.626415
C96	C	1.399642	-0.054059	1.126415
C97	C	0.929984	-0.512445	0.961301
C98	C	1.429984	-0.012445	1.461301
C99	C	0.926679	-0.516969	1.034288
C100	C	1.426679	-0.016969	1.534288
C101	C	1.027960	-0.378217	1.050273
C102	C	1.527960	0.121783	1.550273
C103	C	1.031269	-0.373700	0.977288
C104	C	1.531269	0.126300	1.477288
C105	C	0.982278	-0.440810	0.932807
C106	C	1.482278	0.059190	1.432807
N107	N	0.941932	-0.496098	0.818486
N108	N	1.441932	0.003902	1.318486
N109	N	0.985662	-0.436179	0.858208
N110	N	1.485662	0.063821	1.358208
H111	H	0.701230	-0.365589	0.417826
H112	H	1.201230	0.134411	0.917826
H113	H	1.037501	-0.365189	0.751602
H114	H	1.537501	0.134811	1.251602
H115	H	0.554939	-0.605200	0.227815
H116	H	1.054939	-0.105200	0.727815
H117	H	1.067844	-0.323579	1.086497
H118	H	1.567844	0.176421	1.586497
H119	H	0.853750	-0.616911	0.722606
H120	H	1.353750	-0.116911	1.222606
O121	O	0.870270	-0.594231	1.065031
O122	O	1.370270	-0.094231	1.565031
H123	H	0.836755	-0.640130	1.021840
H124	H	1.336755	-0.140130	1.521840
O125	O	0.369503	-0.575728	0.251226
O126	O	0.869503	-0.075728	0.751226
H127	H	0.408531	-0.524764	0.221399
H128	H	0.908531	-0.024764	0.721399
O129	O	0.216244	-0.584462	0.244317
O130	O	0.716244	-0.084462	0.744317
H131	H	0.223134	-0.666419	0.249539
H132	H	0.723134	-0.166419	0.749539
O133	O	0.697545	-0.613910	0.220879
O134	O	1.197545	-0.113910	0.720879
H135	H	0.725372	-0.667150	0.248872
H136	H	1.225372	-0.167150	0.748872
O137	O	0.877117	-0.584773	0.913330
O138	O	1.377117	-0.084773	1.413330
H139	H	0.840191	-0.635332	0.945412
H140	H	1.340191	-0.135332	1.445412
O141	O	1.046907	-1.018834	0.428215
O142	O	1.546907	-0.518834	0.928215
H143	H	1.101177	-1.035774	0.416936
H144	H	1.601177	-0.535774	0.916936
H145	H	0.920210	-1.070214	0.290706
H146	H	1.420210	-0.570214	0.790706
O147	O	0.846803	-0.626428	0.578432
O148	O	1.346803	-0.126428	1.078432
H149	H	0.809884	-0.677003	0.610508
H150	H	1.309884	-0.177003	1.110508
H151	H	0.893268	-0.898307	0.261504
H152	H	1.393268	-0.398307	0.761504
O153	O	1.057328	-0.338048	0.611665
O154	O	1.557328	0.161952	1.111665
H155	H	1.090828	-0.292135	0.654862
H156	H	1.590828	0.207865	1.154862
O157	O	1.087676	-0.296439	0.946553
O158	O	1.587676	0.203561	1.446553
H159	H	1.081671	-0.215993	0.967308
H160	H	1.581671	0.284007	1.467308
O161	O	0.558638	-0.356871	0.424751
O162	O	1.058638	0.143129	0.924751
H163	H	0.568828	-0.377516	0.478610
H164	H	1.068828	0.122484	0.978610
O165	O	0.383865	-0.309929	0.461997
O166	O	0.883865	0.190071	0.961997
H167	H	0.348245	-0.267628	0.495534
H168	H	0.848245	0.232372	0.995534
H169	H	1.007382	-0.861345	0.385376
H170	H	1.507382	-0.361345	0.885376
O171	O	0.230610	-0.318670	0.455100
O172	O	0.730610	0.181330	0.955100
H173	H	0.172568	-0.332678	0.443990
H174	H	0.672568	0.167322	0.943990
