data_functionalizedCrystal
_audit_creation_method	'MofGen! by Chris Wilmer'
_symmetry_space_group_name_H-M	'P1'
_symmetry_Int_Tables_number	1
_symmetry_cell_setting	triclinic
loop_
_symmetry_equiv_pos_as_xyz
  x,y,z
_cell_length_a	25.639242
_cell_length_b	25.639239
_cell_length_c	16.625539
_cell_angle_alpha	90.031810
_cell_angle_beta	90.029355
_cell_angle_gamma	90.034811
loop_
_atom_site_label
_atom_site_type_symbol
_atom_site_fract_x
_atom_site_fract_y
_atom_site_fract_z
Zn1	Zn	0.799260	-0.208212	0.456079
Zn2	Zn	0.799172	-0.295650	0.321238
Zn3	Zn	0.711825	-0.208224	0.321238
Zn4	Zn	0.711781	-0.295612	0.456007
O5	O	0.755509	-0.251924	0.388640
O6	O	0.872413	-0.219822	0.438221
O7	O	0.787567	-0.284074	0.208405
O8	O	0.723480	-0.135057	0.339156
O9	O	0.872349	-0.284063	0.339154
O10	O	0.787717	-0.135048	0.438222
O11	O	0.723394	-0.219842	0.208406
O12	O	0.638654	-0.219805	0.339086
O13	O	0.723403	-0.283997	0.568849
O14	O	0.638621	-0.284008	0.438100
O15	O	0.787674	-0.219785	0.568902
O16	O	0.787523	-0.368810	0.339085
O17	O	0.723317	-0.368782	0.438099
C18	C	0.619667	-0.251904	0.388586
C19	C	0.561553	-0.251908	0.388581
C20	C	0.201181	-0.285411	0.440148
C21	C	0.146577	-0.285414	0.440161
O22	O	0.118333	-0.313875	0.483958
N23	N	0.119270	-0.251939	0.388693
C24	C	0.146571	-0.218454	0.337215
O25	O	0.118330	-0.189981	0.293439
C26	C	0.201174	-0.218449	0.337207
C27	C	0.228478	-0.251930	0.388672
C28	C	0.228485	-0.318889	0.491610
C29	C	0.283086	-0.318887	0.491596
C30	C	0.310383	-0.285406	0.440120
C31	C	0.283078	-0.251928	0.388658
C32	C	0.228473	-0.184962	0.285734
C33	C	0.283080	-0.184959	0.285730
C34	C	0.310384	-0.218440	0.337196
C35	C	0.364976	-0.218444	0.337169
N36	N	0.392282	-0.251919	0.388636
C37	C	0.364986	-0.285400	0.440112
C38	C	0.031900	-0.218468	0.337237
C39	C	-0.022702	-0.218475	0.337240
C40	C	-0.022692	-0.285435	0.440187
C41	C	0.031911	-0.285429	0.440179
C42	C	0.059207	-0.251943	0.388705
C43	C	0.479651	-0.285393	0.440078
C44	C	0.534256	-0.285388	0.440057
C45	C	0.534241	-0.218427	0.337114
C46	C	0.479641	-0.218433	0.337131
C47	C	0.452347	-0.251917	0.388620
O48	O	0.393254	-0.189997	0.293396
O49	O	0.393233	-0.313864	0.483888
C50	C	0.755420	-0.387767	0.388601
C51	C	0.755430	-0.445881	0.388612
C52	C	0.722071	-0.697072	0.440181
C53	C	0.722052	-0.642468	0.440171
O54	O	0.693603	-0.614229	0.483990
N55	N	0.755495	-0.615155	0.388654
C56	C	0.788964	-0.642449	0.337148
O57	O	0.817410	-0.614203	0.293328
C58	C	0.788986	-0.697052	0.337162
C59	C	0.755536	-0.724362	0.388677
C60	C	0.688625	-0.724382	0.491692
C61	C	0.688643	-0.778983	0.491700
C62	C	0.722109	-0.806273	0.440197
C63	C	0.755555	-0.778963	0.388685
C64	C	0.822457	-0.724345	0.285661
C65	C	0.822476	-0.778952	0.285680
C66	C	0.789027	-0.806263	0.337195
C67	C	0.789039	-0.860854	0.337190
N68	N	0.755596	-0.888167	0.388708
C69	C	0.722130	-0.860877	0.440211
C70	C	0.788917	-0.527778	0.337124
C71	C	0.788893	-0.473176	0.337105
C72	C	0.721981	-0.473199	0.440129
C73	C	0.722003	-0.527802	0.440143
C74	C	0.755473	-0.555091	0.388641
C75	C	0.722172	-0.975542	0.440224
C76	C	0.722192	-1.030147	0.440225
C77	C	0.789106	-1.030120	0.337204
C78	C	0.789084	-0.975519	0.337199
C79	C	0.755615	-0.948231	0.388716
O80	O	0.817475	-0.889127	0.293396
O81	O	0.693695	-0.889129	0.484031
C82	C	0.891882	-0.251945	0.388696
C83	C	0.949996	-0.251954	0.388719
C84	C	0.755543	-0.251885	0.598949
C85	C	0.755558	-0.251869	0.688571
C86	C	0.755613	-0.115551	0.388697
C87	C	0.755658	-0.057437	0.388721
C88	C	0.755506	-0.251925	0.179150
C89	C	0.755592	-0.251795	0.089529
C90	C	0.755582	-0.251810	1.016746
C91	C	0.755574	-0.251828	0.925438
C92	C	0.755570	-0.251840	0.852661
C93	C	0.755561	-0.251857	0.761347
H94	H	0.206266	-0.346154	0.533532
H95	H	0.816125	-0.450944	0.295148
H96	H	0.661404	-0.801214	0.533648
H97	H	0.661373	-0.702167	0.533636
H98	H	0.816317	-0.953283	0.295243
Cl99	Cl	0.830995	-0.562080	0.272364
H100	H	0.694732	-0.450969	0.482067
H101	H	0.849735	-0.801169	0.243742
H102	H	0.206252	-0.157699	0.243823
H103	H	-0.044929	-0.191216	0.295324
H104	H	0.816351	-1.052349	0.295268
H105	H	0.054121	-0.191199	0.295314
Cl106	Cl	-0.057018	-0.327520	0.504908
Cl107	Cl	0.864517	-0.690026	0.220904
Cl108	Cl	0.317391	-0.142859	0.221016
Cl109	Cl	0.445315	-0.176350	0.272419
H110	H	0.694952	-1.052380	0.482177
Cl111	Cl	0.568578	-0.327484	0.504760
H112	H	0.556476	-0.191170	0.295201
Cl113	Cl	0.679951	-0.562129	0.504909
Cl114	Cl	0.445347	-0.327489	0.504807
Cl115	Cl	0.317403	-0.360977	0.556304
H116	H	0.054139	-0.312692	0.482088
Cl117	Cl	0.680095	-0.941246	0.504987
