data_functionalizedCrystal
_audit_creation_method	'MofGen! by Chris Wilmer'
_symmetry_space_group_name_H-M	'P1'
_symmetry_Int_Tables_number	1
_symmetry_cell_setting	triclinic
loop_
_symmetry_equiv_pos_as_xyz
  x,y,z
_cell_length_a	14.519709
_cell_length_b	19.288865
_cell_length_c	18.366186
_cell_angle_alpha	89.988521
_cell_angle_beta	89.996571
_cell_angle_gamma	83.408197
loop_
_atom_site_label
_atom_site_type_symbol
_atom_site_fract_x
_atom_site_fract_y
_atom_site_fract_z
O1	O	1.223296	0.091051	-0.060464
O2	O	0.954751	0.101773	-0.060487
O3	O	1.096783	-0.004690	-0.060460
O4	O	1.081264	0.197514	-0.060490
O5	O	1.096759	-0.004696	0.060639
O6	O	0.954727	0.101768	0.060613
O7	O	1.223272	0.091046	0.060636
Zn8	Zn	1.088995	0.096406	0.079851
Zn9	Zn	1.089027	0.096413	-0.079702
O10	O	1.081240	0.197509	0.060609
C11	C	1.096272	-0.030571	0.000092
C12	C	1.094773	-0.107680	0.000098
C13	C	0.920382	0.101271	0.000060
C14	C	0.818010	0.099773	0.000052
C15	C	1.178111	-0.152077	0.000109
C16	C	1.176702	-0.224529	0.000097
C17	C	1.091951	-0.252581	0.000089
C18	C	1.008602	-0.208175	0.000074
C19	C	1.010013	-0.135725	0.000079
C20	C	1.025319	-0.361110	0.042502
C21	C	1.023911	-0.433560	0.042502
C22	C	1.087597	-0.476043	0.000073
C23	C	1.152705	-0.446068	-0.042348
C24	C	1.154116	-0.373618	-0.042343
C25	C	1.090412	-0.331141	0.000084
C26	C	1.169414	-0.599000	0.000070
C27	C	1.168002	-0.671454	0.000054
C28	C	0.999899	-0.655098	0.000038
C29	C	1.001314	-0.582647	0.000047
C30	C	1.086073	-0.554602	0.000066
C31	C	0.443150	0.094261	0.000086
C32	C	0.547448	0.095792	0.000076
C33	C	0.630577	0.097017	0.000068
C34	C	0.734882	0.098548	0.000060
C35	C	1.257640	0.091548	0.000087
C36	C	1.360012	0.093045	0.000091
C37	C	1.081751	0.223390	0.000056
C38	C	1.083250	0.300499	0.000045
N39	N	1.088981	0.096401	0.188742
N40	N	1.089049	0.096413	-0.188594
C41	C	1.151893	0.049282	0.226855
C42	C	1.151899	0.049279	0.303082
C43	C	1.089001	0.096406	0.341195
C44	C	1.026077	0.143529	0.303074
C45	C	1.026067	0.143526	0.226847
C46	C	1.076656	0.159650	0.461945
C47	C	1.076672	0.159654	0.538170
C48	C	1.089027	0.096415	0.576303
C49	C	1.101385	0.033170	0.538201
C50	C	1.101375	0.033167	0.461974
C51	C	1.089005	0.096415	0.423850
C52	C	1.151949	0.049289	0.697070
C53	C	1.151949	0.049285	0.773299
C54	C	1.026131	0.143541	0.773289
C55	C	1.026128	0.143539	0.697061
C56	C	1.089041	0.096414	0.658956
H57	H	1.247128	-0.129248	0.000122
H58	H	0.939597	-0.231020	0.000066
H59	H	1.203119	0.010908	0.195832
O60	O	1.251766	-0.571784	-0.000052
C61	C	1.302569	-0.594458	-0.062762
H62	H	1.253008	-0.609581	-0.106602
H63	H	1.341619	-0.550513	-0.083810
H64	H	1.354158	-0.641613	-0.048585
O65	O	1.213198	0.003626	0.660041
C66	C	1.269909	0.040956	0.615955
H67	H	1.271151	0.095745	0.638915
H68	H	1.343352	0.012785	0.615135
H69	H	1.241084	0.044523	0.558169
H70	H	0.974915	0.181911	0.804320
O71	O	1.213100	0.003476	0.340002
C72	C	1.268604	-0.038133	0.290024
H73	H	1.269525	-0.009657	0.235679
H74	H	1.342294	-0.048606	0.312046
H75	H	1.238877	-0.089782	0.281934
H76	H	1.066579	0.211150	0.430904
O77	O	1.113218	-0.028227	0.424890
C78	C	1.034931	-0.033956	0.380837
H79	H	0.997889	0.020307	0.369406
H80	H	1.057894	-0.060296	0.327238
H81	H	0.985706	-0.066511	0.410242
O82	O	1.113223	-0.028254	0.575260
C83	C	1.034983	-0.033989	0.619374
H84	H	0.972756	0.000535	0.596405
H85	H	1.019398	-0.090578	0.620247
H86	H	1.049528	-0.016563	0.677141
O87	O	0.964993	0.189238	0.189709
C88	C	0.978493	0.179145	0.114258
H89	H	1.013189	0.123979	0.103856
H90	H	0.908624	0.186758	0.085290
H91	H	1.024581	0.218536	0.092616
H92	H	0.974902	0.181911	0.666028
H93	H	0.930893	-0.677938	0.000028
O94	O	1.248938	-0.714610	-0.000068
C95	C	1.253161	-0.757001	-0.062783
H96	H	1.205903	-0.730516	-0.106623
H97	H	1.327487	-0.765047	-0.083824
H98	H	1.229510	-0.809719	-0.048614
O99	O	1.213156	0.003486	0.810211
C100	C	1.268665	-0.038115	0.760229
H101	H	1.269575	-0.009636	0.705885
H102	H	1.342358	-0.048579	0.782247
H103	H	1.238950	-0.089769	0.752138
O104	O	1.064618	0.221148	0.575066
C105	C	1.053720	0.276963	0.525067
H106	H	1.028458	0.257706	0.470740
H107	H	1.000798	0.320098	0.547088
H108	H	1.123091	0.298220	0.516942
H109	H	0.974863	0.181900	0.334109
O110	O	1.257720	-0.267596	0.000014
C111	C	1.309211	-0.254872	-0.062703
H112	H	1.286351	-0.199938	-0.083617
H113	H	1.386143	-0.259881	-0.048582
H114	H	1.296776	-0.294505	-0.106624
O115	O	1.217385	-0.344610	-0.083619
C116	C	1.273314	-0.397637	-0.121057
H117	H	1.234677	-0.445623	-0.126188
H118	H	1.289985	-0.378269	-0.177664
H119	H	1.340503	-0.411897	-0.089595
O120	O	0.928969	-0.092693	0.000104
C121	C	0.853860	-0.132985	0.000072
H122	H	0.877487	-0.187034	0.022995
H123	H	0.795478	-0.106342	0.035227
H124	H	0.827880	-0.138159	-0.058029
H125	H	1.204564	-0.480657	-0.076898
H126	H	0.970893	-0.457959	0.077039
O127	O	0.920273	-0.539615	0.000078
C128	C	0.845165	-0.579908	0.000051
H129	H	0.868795	-0.633956	0.022975
H130	H	0.786784	-0.553265	0.035206
H131	H	0.819182	-0.585084	-0.058050
H132	H	0.973456	-0.326526	0.077057
