data_functionalizedCrystal
_audit_creation_method	'MofGen! by Chris Wilmer'
_symmetry_space_group_name_H-M	'P1'
_symmetry_Int_Tables_number	1
_symmetry_cell_setting	triclinic
loop_
_symmetry_equiv_pos_as_xyz
  x,y,z
_cell_length_a	17.019311
_cell_length_b	17.038272
_cell_length_c	9.730223
_cell_angle_alpha	89.998176
_cell_angle_beta	86.120077
_cell_angle_gamma	87.245400
loop_
_atom_site_label
_atom_site_type_symbol
_atom_site_fract_x
_atom_site_fract_y
_atom_site_fract_z
O1	O	1.053355	0.099624	-0.238955
O2	O	1.553355	0.599624	0.261045
O3	O	0.824543	0.112319	-0.211878
O4	O	1.324543	0.612319	0.288122
O5	O	0.937589	-0.007842	-0.225245
O6	O	1.437589	0.492158	0.274755
O7	O	0.940309	0.219786	-0.225588
O8	O	1.440309	0.719786	0.274412
O9	O	0.937588	-0.007839	0.003335
O10	O	1.437588	0.492161	0.503335
O11	O	0.824542	0.112322	0.016702
O12	O	1.324542	0.612322	0.516702
O13	O	1.053354	0.099627	-0.010375
O14	O	1.553354	0.599627	0.489625
Zn15	Zn	0.938947	0.105975	0.039456
Zn16	Zn	1.438947	0.605975	0.539456
Zn17	Zn	0.938949	0.105971	-0.261708
Zn18	Zn	1.438949	0.605971	0.238292
O19	O	0.940307	0.219789	0.002992
O20	O	1.440307	0.719789	0.502992
C21	C	0.795121	0.111839	-0.094106
C22	C	1.295121	0.611839	0.405894
C23	C	0.707454	0.110392	-0.083732
C24	C	1.207454	0.610392	0.416268
C25	C	0.211626	0.102236	-0.018808
C26	C	0.711626	0.602236	0.481192
C27	C	0.293998	0.103596	-0.028559
C28	C	0.793998	0.603596	0.471441
C29	C	0.335186	0.104268	-0.158035
C30	C	0.835186	0.604268	0.341965
C31	C	0.293996	0.103588	-0.277769
C32	C	0.793996	0.603588	0.222231
C33	C	0.211625	0.102235	-0.268017
C34	C	0.711625	0.602235	0.231983
C35	C	0.583893	0.108359	-0.193714
C36	C	1.083893	0.608359	0.306286
C37	C	0.666270	0.109711	-0.203457
C38	C	1.166270	0.609711	0.296543
C39	C	0.666267	0.109719	0.045755
C40	C	1.166267	0.609719	0.545755
C41	C	0.583894	0.108361	0.055495
C42	C	1.083894	0.608361	0.555495
C43	C	0.542712	0.107686	-0.064238
C44	C	1.042712	0.607686	0.435762
C45	C	0.419384	0.105654	-0.168005
C46	C	0.919384	0.605654	0.331995
C47	C	0.458515	0.106305	-0.054267
C48	C	0.958515	0.606305	0.445733
C49	C	0.935115	-0.036967	-0.110662
C50	C	1.435115	0.463033	0.389338
C51	C	0.927734	-0.123754	-0.109789
C52	C	1.427734	0.376246	0.390211
C53	C	0.995494	-0.173924	-0.117806
C54	C	1.495494	0.326076	0.382194
C55	C	0.988555	-0.255469	-0.116998
C56	C	1.488555	0.244531	0.383002
C57	C	0.913855	-0.286842	-0.108163
C58	C	1.413855	0.213158	0.391837
C59	C	0.846090	-0.236665	-0.100149
C60	C	1.346090	0.263335	0.399851
C61	C	0.853030	-0.155121	-0.100967
C62	C	1.353030	0.344879	0.399033
C63	C	0.889337	-0.532579	-0.105280
C64	C	1.389337	-0.032579	0.394720
C65	C	0.882402	-0.614129	-0.104459
C66	C	1.382402	-0.114129	0.395541
C67	C	1.024868	-0.632928	-0.121310
C68	C	1.524868	-0.132928	0.378690
C69	C	1.031801	-0.551382	-0.122119
C70	C	1.531801	-0.051382	0.377881
C71	C	0.964036	-0.501212	-0.114113
C72	C	1.464036	-0.001212	0.385887
C73	C	0.906760	-0.370193	-0.107332
C74	C	1.406760	0.129807	0.392668
C75	C	0.971132	-0.417862	-0.114953
C76	C	1.471132	0.082138	0.385047
C77	C	1.082775	0.100108	-0.128149
C78	C	1.582775	0.600108	0.371851
C79	C	1.170442	0.101555	-0.138533
C80	C	1.670442	0.601555	0.361467
C81	C	0.942782	0.248914	-0.111594
C82	C	1.442782	0.748914	0.388406
C83	C	0.950162	0.335701	-0.112476
C84	C	1.450162	0.835701	0.387524
N85	N	0.938952	0.105978	0.244992
N86	N	1.438952	0.605978	0.744992
N87	N	0.938950	0.105963	-0.467245
N88	N	1.438950	0.605963	0.032755
C89	C	0.989024	0.052788	0.310997
C90	C	1.489024	0.552788	0.810997
C91	C	0.989021	0.052778	0.454880
C92	C	1.489021	0.552778	0.954880
C93	C	0.888873	0.159155	0.466740
C94	C	1.388873	0.659155	0.966740
C95	C	0.888872	0.159160	0.322860
C96	C	1.388872	0.659160	0.822860
C97	C	1.039103	-0.000395	0.233129
C98	C	1.539103	0.499605	0.733129
C99	C	1.089180	-0.053588	0.299134
C100	C	1.589180	0.446412	0.799134
C101	C	1.089177	-0.053598	0.443017
C102	C	1.589177	0.446402	0.943017
C103	C	1.039098	-0.000414	0.520895
C104	C	1.539098	0.499586	1.020895
H105	H	0.550372	0.107807	-0.291209
H106	H	1.050372	0.607807	0.208791
O107	O	0.834874	0.216530	0.550720
O108	O	1.334874	0.716530	1.050720
H109	H	0.794332	0.183647	0.621086
H110	H	1.294332	0.683647	1.121086
H111	H	1.031952	-0.392315	-0.122177
H112	H	1.531952	0.107685	0.377823
O113	O	0.338422	0.104300	-0.417417
O114	O	0.838422	0.604300	0.082583
H115	H	0.372510	0.158168	-0.427427
H116	H	0.872510	0.658168	0.072573
H117	H	0.785268	-0.262214	-0.092964
H118	H	1.285268	0.237786	0.407036
O119	O	0.167326	0.101785	0.120968
O120	O	0.667326	0.601785	0.620968
H121	H	0.126467	0.154527	0.131551
H122	H	0.626467	0.654527	0.631551
O123	O	0.167200	0.101482	-0.397146
O124	O	0.667200	0.601482	0.102854
H125	H	0.209678	0.102165	-0.488819
H126	H	0.709678	0.602165	0.011181
O127	O	1.143176	-0.110955	0.215130
O128	O	1.643176	0.389045	0.715130
H129	H	1.205335	-0.101039	0.235386
H130	H	1.705335	0.398961	0.735386
O131	O	1.143189	-0.110961	0.514217
O132	O	1.643189	0.389039	1.014217
H133	H	1.178017	-0.147932	0.435892
H134	H	1.678017	0.352068	0.935892
H135	H	1.039095	-0.000431	0.638055
H136	H	1.539095	0.499569	1.138055
H137	H	0.550366	0.107797	0.160929
H138	H	1.050366	0.607797	0.660929
O139	O	0.826194	-0.404036	-0.097774
O140	O	1.326194	0.095964	0.402226
H141	H	0.819625	-0.440742	-0.190155
H142	H	1.319625	0.059258	0.309845
O143	O	0.338419	0.104361	0.100571
O144	O	0.838419	0.604361	0.600571
H145	H	0.295941	0.103668	0.192242
H146	H	0.795941	0.603668	0.692242
O147	O	0.834857	0.216512	0.251642
O148	O	1.334857	0.716512	0.751642
H149	H	0.870598	0.254491	0.181836
H150	H	1.370598	0.754491	0.681836
H151	H	0.834158	-0.491740	-0.098761
H152	H	1.334158	0.008260	0.401239
O153	O	1.076068	-0.140096	-0.127344
O154	O	1.576068	0.359904	0.372656
H155	H	1.082645	-0.103403	-0.034951
H156	H	1.582645	0.396597	0.465049
H157	H	1.043732	-0.296315	-0.123523
H158	H	1.543732	0.203685	0.376477
H159	H	0.699807	0.110270	0.143235
H160	H	1.199807	0.610270	0.643235
O161	O	0.710699	0.110444	-0.343112
O162	O	1.210699	0.610444	0.156888
H163	H	0.668223	0.109756	-0.424733
H164	H	1.168223	0.609756	0.075267
H165	H	0.424976	0.105762	0.051152
H166	H	0.924976	0.605762	0.551152
O167	O	0.463817	0.106357	-0.307648
O168	O	0.963817	0.606357	0.192352
H169	H	0.497902	0.160227	-0.317657
H170	H	0.997902	0.660227	0.182343
O171	O	1.112375	-0.517554	-0.131679
O172	O	1.612375	-0.017554	0.368321
H173	H	1.145207	-0.537721	-0.042411
H174	H	1.645207	-0.037721	0.457589
O175	O	1.097955	-0.687037	-0.129954
O176	O	1.597955	-0.187037	0.370046
H177	H	1.080584	-0.749010	-0.127910
H178	H	1.580584	-0.249010	0.372090
H179	H	0.797853	-0.114273	-0.094439
H180	H	1.297853	0.385727	0.405561
O181	O	1.039101	-0.000395	0.077942
O182	O	1.539101	0.499605	0.577942
H183	H	1.098862	0.012081	0.032930
H184	H	1.598862	0.512081	0.532930
O185	O	0.801830	-0.647971	-0.094945
O186	O	1.301830	-0.147971	0.405055
H187	H	0.755874	-0.599386	-0.089530
H188	H	1.255874	-0.099386	0.410470
