data_functionalizedCrystal
_audit_creation_method	'MofGen! by Chris Wilmer'
_symmetry_space_group_name_H-M	'P1'
_symmetry_Int_Tables_number	1
_symmetry_cell_setting	triclinic
loop_
_symmetry_equiv_pos_as_xyz
  x,y,z
_cell_length_a	29.839133
_cell_length_b	29.839135
_cell_length_c	29.839125
_cell_angle_alpha	89.984512
_cell_angle_beta	89.992589
_cell_angle_gamma	90.032133
loop_
_atom_site_label
_atom_site_type_symbol
_atom_site_fract_x
_atom_site_fract_y
_atom_site_fract_z
Zn1	Zn	-0.178886	0.686757	-0.254079
Zn2	Zn	0.321114	1.186757	0.245921
Zn3	Zn	-0.253998	0.686704	-0.178963
Zn4	Zn	0.246002	1.186704	0.321037
Zn5	Zn	-0.178886	0.611639	-0.178957
Zn6	Zn	0.321114	1.111639	0.321043
Zn7	Zn	-0.253993	0.611603	-0.254060
Zn8	Zn	0.246007	1.111603	0.245940
O9	O	-0.216441	0.649176	-0.216515
O10	O	0.283559	1.149176	0.283485
O11	O	-0.188852	0.749617	-0.244126
O12	O	0.311148	1.249617	0.255874
O13	O	-0.244036	0.676740	-0.116095
O14	O	0.255964	1.176740	0.383905
O15	O	-0.116019	0.621641	-0.188929
O16	O	0.383981	1.121641	0.311071
O17	O	-0.244036	0.749578	-0.188938
O18	O	0.255964	1.249578	0.311062
O19	O	-0.116019	0.676829	-0.244120
O20	O	0.383981	1.176829	0.255880
O21	O	-0.188852	0.621590	-0.116091
O22	O	0.311148	1.121590	0.383909
O23	O	-0.188847	0.548767	-0.188909
O24	O	0.311153	1.048767	0.311091
O25	O	-0.244028	0.621578	-0.316930
O26	O	0.255972	1.121578	0.183070
O27	O	-0.244028	0.548740	-0.244087
O28	O	0.255972	1.048740	0.255913
O29	O	-0.188847	0.676794	-0.316944
O30	O	0.311153	1.176794	0.183056
O31	O	-0.316864	0.676704	-0.188919
O32	O	0.183136	1.176704	0.311081
O33	O	-0.316861	0.621528	-0.244092
O34	O	0.183139	1.121528	0.255908
C35	C	-0.216437	0.532453	-0.216496
C36	C	0.283563	1.032453	0.283504
C37	C	-0.216447	0.482519	-0.216498
C38	C	0.283553	0.982519	0.283502
C39	C	-0.187750	0.172892	-0.245294
C40	C	0.312250	0.672892	0.254706
C41	C	-0.187753	-0.014781	-0.245306
C42	C	0.312247	0.485219	0.254694
O43	O	-0.163343	-0.039031	-0.269768
O44	O	0.336657	0.460969	0.230232
N45	N	-0.216441	-0.038266	-0.216531
N46	N	0.283559	0.461734	0.283469
C47	C	-0.245129	-0.014831	-0.187749
C48	C	0.254871	0.485169	0.312251
O49	O	-0.269527	-0.039113	-0.163271
O50	O	0.230473	0.460887	0.336729
C51	C	-0.245123	0.172841	-0.187734
C52	C	0.254877	0.672841	0.312266
C53	C	-0.216436	0.196324	-0.216514
C54	C	0.283564	0.696324	0.283486
C55	C	-0.159065	0.196376	-0.274071
C56	C	0.340935	0.696376	0.225929
C57	C	-0.159066	0.243291	-0.274069
C58	C	0.340934	0.743291	0.225931
C59	C	-0.187752	0.266723	-0.245290
C60	C	0.312248	0.766723	0.254710
C61	C	-0.216437	0.243240	-0.216513
C62	C	0.283563	0.743240	0.283487
C63	C	-0.273808	0.196276	-0.158950
C64	C	0.226192	0.696276	0.341050
C65	C	-0.273803	0.243197	-0.158948
C66	C	0.226197	0.743197	0.341052
C67	C	-0.245116	0.266680	-0.187728
C68	C	0.254884	0.766680	0.312272
C69	C	-0.245125	0.313588	-0.187732
C70	C	0.254875	0.813588	0.312268
N71	N	-0.216436	0.337073	-0.216507
N72	N	0.283564	0.837073	0.283493
C73	C	-0.187750	0.313641	-0.245286
C74	C	0.312250	0.813641	0.254714
C75	C	-0.245130	-0.113362	-0.187759
C76	C	0.254870	0.386638	0.312241
C77	C	-0.245132	-0.160279	-0.187764
C78	C	0.254868	0.339721	0.312236
C79	C	-0.187756	-0.160226	-0.245320
C80	C	0.312244	0.339774	0.254680
C81	C	-0.187756	-0.113307	-0.245318
C82	C	0.312244	0.386693	0.254682
C83	C	-0.216442	-0.089876	-0.216534
C84	C	0.283558	0.410124	0.283466
C85	C	-0.187755	0.412167	-0.245280
C86	C	0.312245	0.912167	0.254720
C87	C	-0.187760	0.459087	-0.245277
C88	C	0.312240	0.959087	0.254723
C89	C	-0.245135	0.459029	-0.187719
C90	C	0.254865	0.959029	0.312281
C91	C	-0.245132	0.412113	-0.187724
C92	C	0.254868	0.912113	0.312276
C93	C	-0.216438	0.388684	-0.216506
C94	C	0.283562	0.888684	0.283494
O95	O	-0.269518	0.337867	-0.163280
O96	O	0.230482	0.837867	0.336720
O97	O	-0.163349	0.337931	-0.269753
O98	O	0.336651	0.837931	0.230247
C99	C	-0.187748	0.125977	-0.245295
C100	C	0.312252	0.625977	0.254705
C101	C	-0.216434	0.102494	-0.216518
C102	C	0.283566	0.602494	0.283482
C103	C	-0.245120	0.125926	-0.187739
C104	C	0.254880	0.625926	0.312261
C105	C	-0.216436	0.055576	-0.216522
C106	C	0.283564	0.555576	0.283478
C107	C	-0.187749	0.032144	-0.245301
C108	C	0.312251	0.532144	0.254699
C109	C	-0.159061	0.055629	-0.274076
C110	C	0.340939	0.555629	0.225924
C111	C	-0.159062	0.102545	-0.274074
C112	C	0.340938	0.602545	0.225926
C113	C	-0.273808	0.102440	-0.158964
C114	C	0.226192	0.602440	0.341036
C115	C	-0.273805	0.055525	-0.158968
C116	C	0.226195	0.555525	0.341032
C117	C	-0.245119	0.032092	-0.187747
C118	C	0.254881	0.532092	0.312253
C119	C	-0.333163	0.649119	-0.216514
C120	C	0.166837	1.149119	0.283486
C121	C	-0.383098	0.649135	-0.216528
C122	C	0.116902	1.149135	0.283472
C123	C	-0.739650	0.677929	-0.245286
C124	C	-0.239650	1.177929	0.254714
C125	C	-0.551977	0.677886	-0.245286
C126	C	-0.051977	1.177886	0.254714
O127	O	-0.527682	0.702309	-0.269730
O128	O	-0.027682	1.202309	0.230270
N129	N	-0.528543	0.649171	-0.216527
N130	N	-0.028543	1.149171	0.283473
C131	C	-0.552030	0.620466	-0.187764
C132	C	-0.052030	1.120466	0.312236
O133	O	-0.527792	0.596044	-0.163300
O134	O	-0.027792	1.096044	0.336700
C135	C	-0.739702	0.620511	-0.187763
C136	C	-0.239702	1.120511	0.312237
C137	C	-0.763134	0.649225	-0.216527
C138	C	-0.263134	1.149225	0.283473
C139	C	-0.763081	0.706641	-0.274047
C140	C	-0.263081	1.206641	0.225953
C141	C	-0.809997	0.706649	-0.274049
C142	C	-0.309997	1.206649	0.225951
C143	C	-0.833481	0.677946	-0.245289
C144	C	-0.333481	1.177946	0.254711
C145	C	-0.810049	0.649234	-0.216528
C146	C	-0.310049	1.149234	0.283472
C147	C	-0.763189	0.591809	-0.158998
C148	C	-0.263189	1.091809	0.341002
C149	C	-0.810110	0.591824	-0.159000
C150	C	-0.310110	1.091824	0.341000
C151	C	-0.833541	0.620538	-0.187764
C152	C	-0.333541	1.120538	0.312236
C153	C	-0.880449	0.620539	-0.187770
C154	C	-0.380449	1.120539	0.312230
N155	N	-0.903883	0.649254	-0.216529
N156	N	-0.403883	1.149254	0.283471
C157	C	-0.880399	0.677958	-0.245289
C158	C	-0.380399	1.177958	0.254711
C159	C	-0.453499	0.620444	-0.187768
C160	C	0.046501	1.120444	0.312232
C161	C	-0.406582	0.620432	-0.187769
C162	C	0.093418	1.120432	0.312231
C163	C	-0.406532	0.677853	-0.245289
C164	C	0.093468	1.177853	0.254711
C165	C	-0.453450	0.677862	-0.245290
C166	C	0.046550	1.177862	0.254710
C167	C	-0.476933	0.649159	-0.216526
C168	C	0.023067	1.149159	0.283474
C169	C	-0.978924	0.677973	-0.245290
C170	C	-0.478924	1.177973	0.254710
C171	C	-1.025844	0.677978	-0.245290
C172	C	-0.525844	1.177978	0.254710
C173	C	-1.025890	0.620559	-0.187768
C174	C	-0.525890	1.120559	0.312232
C175	C	-0.978974	0.620553	-0.187769
C176	C	-0.478974	1.120553	0.312231
C177	C	-0.955493	0.649263	-0.216532
C178	C	-0.455493	1.149263	0.283468
O179	O	-0.904772	0.596132	-0.163335
O180	O	-0.404772	1.096132	0.336665
O181	O	-0.904645	0.702383	-0.269742
O182	O	-0.404645	1.202383	0.230258
C183	C	-0.692734	0.677920	-0.245285
C184	C	-0.192734	1.177920	0.254715
C185	C	-0.669303	0.649208	-0.216524
C186	C	-0.169303	1.149208	0.283476
C187	C	-0.692787	0.620505	-0.187764
C188	C	-0.192787	1.120505	0.312236
C189	C	-0.622385	0.649196	-0.216524
C190	C	-0.122385	1.149196	0.283476
C191	C	-0.598901	0.677900	-0.245284
C192	C	-0.098901	1.177900	0.254716
C193	C	-0.622335	0.706615	-0.274043
C194	C	-0.122335	1.206615	0.225957
C195	C	-0.669250	0.706623	-0.274044
C196	C	-0.169250	1.206623	0.225956
C197	C	-0.669353	0.591789	-0.159005
C198	C	-0.169353	1.091789	0.340995
C199	C	-0.622437	0.591783	-0.159007
C200	C	-0.122437	1.091783	0.340993
C201	C	-0.598953	0.620486	-0.187766
C202	C	-0.098953	1.120486	0.312234
C203	C	-0.099262	0.649245	-0.216526
C204	C	0.400738	1.149245	0.283474
C205	C	-0.049328	0.649275	-0.216531
C206	C	0.450672	1.149275	0.283469
C207	C	-0.216437	0.649188	-0.333693
C208	C	0.283563	1.149188	0.166307
C209	C	-0.216435	0.649193	-0.383628
C210	C	0.283565	1.149193	0.116372
C211	C	-0.216445	0.766354	-0.216534
C212	C	0.283555	1.266354	0.283466
C213	C	-0.216446	0.816288	-0.216543
C214	C	0.283554	1.316288	0.283457
C215	C	-0.187627	0.677974	-0.693282
C216	C	0.312373	1.177974	-0.193282
C217	C	-0.187589	0.677996	-0.880955
C218	C	0.312411	1.177996	-0.380955
O219	O	-0.163138	0.702433	-0.905229
O220	O	0.336862	1.202433	-0.405229
N221	N	-0.216315	0.649253	-0.904413
N222	N	0.283685	1.149253	-0.404413
C223	C	-0.245050	0.620499	-0.880950
C224	C	0.254950	1.120499	-0.380950
O225	O	-0.269479	0.596048	-0.905209
O226	O	0.230521	1.096048	-0.405209
C227	C	-0.245086	0.620475	-0.693278
C228	C	0.254914	1.120475	-0.193278
C229	C	-0.216361	0.649224	-0.669822
C230	C	0.283639	1.149224	-0.169822
C231	C	-0.158905	0.706720	-0.669826
C232	C	0.341095	1.206720	-0.169826
C233	C	-0.158916	0.706716	-0.622910
C234	C	0.341084	1.206716	-0.122910
C235	C	-0.187650	0.677966	-0.599451
C236	C	0.312350	1.177966	-0.099451
C237	C	-0.216373	0.649220	-0.622907
C238	C	0.283627	1.149220	-0.122907
C239	C	-0.273819	0.591720	-0.669816
C240	C	0.226181	1.091720	-0.169816
C241	C	-0.273824	0.591716	-0.622894
C242	C	0.226176	1.091716	-0.122894
C243	C	-0.245100	0.620464	-0.599439
C244	C	0.254900	1.120464	-0.099439
C245	C	-0.245119	0.620465	-0.552531
C246	C	0.254881	1.120465	-0.052531
N247	N	-0.216393	0.649209	-0.529073
N248	N	0.283607	1.149209	-0.029073
C249	C	-0.187659	0.677959	-0.552533
C250	C	0.312341	1.177959	-0.052533
C251	C	-0.245030	0.620515	-0.979481
C252	C	0.254970	1.120515	-0.479481
C253	C	-0.245022	0.620521	-1.026398
C254	C	0.254978	1.120521	-0.526398
C255	C	-0.187560	0.678018	-1.026400
C256	C	0.312440	1.178018	-0.526400
C257	C	-0.187571	0.678013	-0.979481
C258	C	0.312429	1.178013	-0.479481
C259	C	-0.216304	0.649258	-0.956022
C260	C	0.283696	1.149258	-0.456022
C261	C	-0.187685	0.677948	-0.454007
C262	C	0.312315	1.177948	0.045993
C263	C	-0.187701	0.677943	-0.407087
C264	C	0.312299	1.177943	0.092913
C265	C	-0.245161	0.620445	-0.407090
C266	C	0.254839	1.120445	0.092910
C267	C	-0.245147	0.620452	-0.454005
C268	C	0.254853	1.120452	0.045995
C269	C	-0.216406	0.649205	-0.477463
C270	C	0.283594	1.149205	0.022537
O271	O	-0.269553	0.596038	-0.528229
O272	O	0.230447	1.096038	-0.028229
O273	O	-0.163226	0.702399	-0.528266
O274	O	0.336774	1.202399	-0.028266
C275	C	-0.187616	0.677978	-0.740197
C276	C	0.312384	1.177978	-0.240197
C277	C	-0.216338	0.649232	-0.763653
C278	C	0.283662	1.149232	-0.263653
C279	C	-0.245072	0.620482	-0.740193
C280	C	0.254928	1.120482	-0.240193
C281	C	-0.216330	0.649239	-0.810571
C282	C	0.283670	1.149239	-0.310571
C283	C	-0.187596	0.677989	-0.834031
C284	C	0.312404	1.177989	-0.334031
C285	C	-0.158870	0.706732	-0.810572
C286	C	0.341130	1.206732	-0.310572
C287	C	-0.158881	0.706728	-0.763657
C288	C	0.341119	1.206728	-0.263657
C289	C	-0.273798	0.591738	-0.763651
C290	C	0.226202	1.091738	-0.263651
C291	C	-0.273785	0.591745	-0.810567
C292	C	0.226215	1.091745	-0.310567
C293	C	-0.245050	0.620495	-0.834027
C294	C	0.254950	1.120495	-0.334027
C295	C	-0.216412	0.649189	-0.099792
C296	C	0.283588	1.149189	0.400208
C297	C	-0.216288	0.649271	-0.049858
C298	C	0.283712	1.149271	0.450142
H299	H	-0.297168	0.121514	-0.135527
H300	H	0.202832	0.621514	0.364473
H301	H	-0.297218	0.568295	-0.603797
H302	H	0.202782	1.068295	-0.103797
H303	H	-0.829227	0.568450	-0.135576
H304	H	-0.329227	1.068450	0.364424
C305	C	-0.305386	0.560123	-0.836365
C306	C	0.194614	1.060123	-0.336365
H307	H	-0.301269	0.564242	-0.867669
H308	H	0.198731	1.064242	-0.367669
H309	H	-0.298812	0.529942	-0.828668
H310	H	0.201188	1.029942	-0.328668
H311	H	-0.335574	0.566683	-0.828679
H312	H	0.164426	1.066683	-0.328679
C313	C	-0.276746	0.588833	-0.479808
C314	C	0.223254	1.088833	0.020192
H315	H	-0.293860	0.571709	-0.459114
H316	H	0.206140	1.071709	0.040886
H317	H	-0.296316	0.606005	-0.498118
H318	H	0.203684	1.106005	0.001882
H319	H	-0.259552	0.569267	-0.498102
H320	H	0.240448	1.069267	0.001898
H321	H	-0.297198	0.568327	-0.744555
H322	H	0.202802	1.068327	-0.244555
C323	C	-0.127509	0.269119	-0.305725
C324	C	0.372491	0.769119	0.194275
H325	H	-0.131615	0.300419	-0.301608
H326	H	0.368385	0.800419	0.198392
H327	H	-0.097315	0.261441	-0.299200
H328	H	0.402685	0.761441	0.200800
H329	H	-0.134134	0.261433	-0.335900
H330	H	0.365866	0.761433	0.164100
H331	H	-1.044920	0.701360	-0.268716
H332	H	-0.544920	1.201360	0.231284
C333	C	-0.737256	0.738214	-0.305689
C334	C	-0.237256	1.238214	0.194311
H335	H	-0.757937	0.755310	-0.322817
H336	H	-0.257937	1.255310	0.177183
H337	H	-0.718937	0.757801	-0.288531
H338	H	-0.218937	1.257801	0.211469
H339	H	-0.718969	0.721005	-0.325249
H340	H	-0.218969	1.221005	0.174751
H341	H	-1.045019	0.597189	-0.164354
H342	H	-0.545019	1.097189	0.335646
H343	H	-0.268497	-0.179396	-0.164333
H344	H	0.231503	0.320604	0.335667
H345	H	-0.688324	0.730005	-0.297467
H346	H	-0.188324	1.230005	0.202533
H347	H	-0.135475	0.730143	-0.829681
H348	H	0.364525	1.230143	-0.329681
H349	H	-0.268557	0.597039	-0.387980
H350	H	0.231443	1.097039	0.112020
C351	C	-0.305412	0.560092	-0.695607
C352	C	0.194588	1.060092	-0.195607
H353	H	-0.322519	0.542967	-0.674909
H354	H	0.177481	1.042967	-0.174909
H355	H	-0.324988	0.577259	-0.713916
H356	H	0.175012	1.077259	-0.213916
H357	H	-0.288217	0.540527	-0.713901
H358	H	0.211783	1.040527	-0.213901
C359	C	-0.380696	0.709427	-0.276924
C360	C	0.119304	1.209427	0.223076
H361	H	-0.401367	0.726532	-0.294055
H362	H	0.098633	1.226532	0.205945
H363	H	-0.362379	0.729006	-0.259756
H364	H	0.137621	1.229006	0.240244
H365	H	-0.362405	0.692220	-0.296483
H366	H	0.137595	1.192220	0.203517
H367	H	-0.135491	0.730138	-0.744563
H368	H	0.364509	1.230138	-0.244563
C369	C	-0.127510	0.170607	-0.305733
C370	C	0.372490	0.670607	0.194267
H371	H	-0.110431	0.191319	-0.322871
H372	H	0.389569	0.691319	0.177129
H373	H	-0.107906	0.152307	-0.288589
H374	H	0.392094	0.652307	0.211411
H375	H	-0.144729	0.152306	-0.325285
H376	H	0.355271	0.652306	0.174715
C377	C	-0.737424	0.560228	-0.127353
C378	C	-0.237424	1.060228	0.372647
H379	H	-0.758136	0.543142	-0.110223
H380	H	-0.258136	1.043142	0.389777
H381	H	-0.719132	0.540631	-0.144509
H382	H	-0.219132	1.040631	0.355491
H383	H	-0.719114	0.577429	-0.107794
H384	H	-0.219114	1.077429	0.392206
H385	H	-0.268491	-0.094288	-0.164319
H386	H	0.231509	0.405712	0.335681
C387	C	-0.953199	0.588964	-0.156134
C388	C	-0.453199	1.088964	0.343866
H389	H	-0.973907	0.571872	-0.139006
H390	H	-0.473907	1.071872	0.360994
H391	H	-0.934906	0.569375	-0.173298
H392	H	-0.434906	1.069375	0.326702
H393	H	-0.934889	0.606163	-0.136573
H394	H	-0.434889	1.106163	0.363427
C395	C	-0.305360	0.170454	-0.127287
C396	C	0.194640	0.670454	0.372713
H397	H	-0.322437	0.191136	-0.110145
H398	H	0.177563	0.691136	0.389855
H399	H	-0.324966	0.152144	-0.144433
H400	H	0.175034	0.652144	0.355567
H401	H	-0.288140	0.152158	-0.107740
H402	H	0.211860	0.652158	0.392260
H403	H	-0.164280	0.701360	-0.473101
H404	H	0.335720	1.201360	0.026899
H405	H	-0.164399	0.478204	-0.268715
H406	H	0.335601	0.978204	0.231285
H407	H	-0.387507	0.597045	-0.164351
H408	H	0.112493	1.097045	0.335649
H409	H	-0.164396	-0.094190	-0.268752
H410	H	0.335604	0.405810	0.231248
H411	H	-0.959811	0.701353	-0.268710
H412	H	-0.459811	1.201353	0.231290
H413	H	-0.829071	0.730035	-0.297468
H414	H	-0.329071	1.230035	0.202532
C415	C	-0.479221	0.709451	-0.276926
C416	C	0.020779	1.209451	0.223074
H417	H	-0.458511	0.726545	-0.294050
H418	H	0.041489	1.226545	0.205950
H419	H	-0.497538	0.692260	-0.296484
H420	H	0.002462	1.192260	0.203516
H421	H	-0.497506	0.729047	-0.259757
H422	H	0.002494	1.229047	0.240243
C423	C	-0.155969	0.709631	-0.953684
C424	C	0.344031	1.209631	-0.453684
H425	H	-0.138854	0.726751	-0.974380
H426	H	0.361146	1.226751	-0.474380
H427	H	-0.173154	0.729194	-0.935382
H428	H	0.326846	1.229194	-0.435382
H429	H	-0.136394	0.692451	-0.935382
H430	H	0.363606	1.192451	-0.435382
C431	C	-0.305358	0.268971	-0.127287
C432	C	0.194642	0.768971	0.372713
H433	H	-0.301250	0.300277	-0.131403
H434	H	0.198750	0.800277	0.368597
H435	H	-0.335553	0.261265	-0.133810
H436	H	0.164447	0.761265	0.366190
H437	H	-0.298732	0.261274	-0.097112
H438	H	0.201268	0.761274	0.402888
C439	C	-0.156197	0.386401	-0.276944
C440	C	0.343803	0.886401	0.223056
H441	H	-0.139119	0.407111	-0.294084
H442	H	0.360881	0.907111	0.205916
H443	H	-0.136593	0.368102	-0.259798
H444	H	0.363407	0.868102	0.240202
H445	H	-0.173417	0.368097	-0.296493
H446	H	0.326583	0.868097	0.203507
H447	H	-0.472615	0.597069	-0.164343
H448	H	0.027385	1.097069	0.335657
H449	H	-0.164398	-0.179312	-0.268754
H450	H	0.335602	0.320688	0.231246
C451	C	-0.127315	0.738335	-0.597115
C452	C	0.372685	1.238335	-0.097115
H453	H	-0.110199	0.755453	-0.617812
H454	H	0.389801	1.255453	-0.117812
H455	H	-0.144499	0.757900	-0.578815
H456	H	0.355501	1.257900	-0.078815
H457	H	-0.107740	0.721156	-0.578811
H458	H	0.392260	1.221156	-0.078811
C459	C	-0.127297	0.738350	-0.695625
C460	C	0.372703	1.238350	-0.195625
H461	H	-0.110197	0.755469	-0.674929
H462	H	0.389803	1.255469	-0.174929
H463	H	-0.107715	0.721186	-0.713926
H464	H	0.392285	1.221186	-0.213926
H465	H	-0.144483	0.757921	-0.713927
H466	H	0.355517	1.257921	-0.213927
C467	C	-0.276690	0.386281	-0.156070
C468	C	0.223310	0.886281	0.343930
H469	H	-0.293773	0.406958	-0.138929
H470	H	0.206227	0.906958	0.361071
H471	H	-0.296289	0.367969	-0.173222
H472	H	0.203711	0.867969	0.326778
H473	H	-0.259471	0.367985	-0.136521
H474	H	0.240529	0.867985	0.363479
H475	H	-0.268492	0.478116	-0.164289
H476	H	0.231508	0.978116	0.335711
H477	H	-0.135702	0.121661	-0.297510
H478	H	0.364298	0.621661	0.202490
H479	H	-0.297170	0.036408	-0.135533
H480	H	0.202830	0.536408	0.364467
C481	C	-0.127506	0.029848	-0.305731
C482	C	0.372494	0.529848	0.194269
H483	H	-0.131614	-0.001457	-0.301605
H484	H	0.368386	0.498543	0.198395
H485	H	-0.134122	0.037539	-0.335906
H486	H	0.365878	0.537539	0.164094
H487	H	-0.097309	0.037550	-0.299201
H488	H	0.402691	0.537550	0.200799
H489	H	-0.268417	0.597116	-1.045492
H490	H	0.231583	1.097116	-0.545492
H491	H	-0.603363	0.568396	-0.135585
H492	H	-0.103363	1.068396	0.364415
C493	C	-0.596499	0.738185	-0.305682
C494	C	-0.096499	1.238185	0.194318
H495	H	-0.617170	0.755286	-0.322816
H496	H	-0.117170	1.255286	0.177184
H497	H	-0.578181	0.757767	-0.288518
H498	H	-0.078181	1.257767	0.211482
H499	H	-0.578209	0.720973	-0.325237
H500	H	-0.078209	1.220973	0.174763
C501	C	-0.156100	0.709565	-0.381289
C502	C	0.343900	1.209565	0.118711
H503	H	-0.138982	0.726684	-0.401983
H504	H	0.361018	1.226684	0.098017
H505	H	-0.173287	0.729129	-0.362990
H506	H	0.326713	1.229129	0.137010
H507	H	-0.136527	0.692386	-0.362982
H508	H	0.363473	1.192386	0.137018
H509	H	-0.268431	0.597099	-0.960385
H510	H	0.231569	1.097099	-0.460385
H511	H	-0.688469	0.568416	-0.135585
H512	H	-0.188469	1.068416	0.364415
H513	H	-0.164163	0.701427	-1.045509
H514	H	0.335837	1.201427	-0.545509
