data_functionalizedCrystal
_audit_creation_method	'MofGen! by Chris Wilmer'
_symmetry_space_group_name_H-M	'P1'
_symmetry_Int_Tables_number	1
_symmetry_cell_setting	triclinic
loop_
_symmetry_equiv_pos_as_xyz
  x,y,z
_cell_length_a	18.215407
_cell_length_b	25.639239
_cell_length_c	18.215399
_cell_angle_alpha	90.030035
_cell_angle_beta	90.019833
_cell_angle_gamma	90.039134
loop_
_atom_site_label
_atom_site_type_symbol
_atom_site_fract_x
_atom_site_fract_y
_atom_site_fract_z
Zn1	Zn	1.125001	-0.208150	0.416105
Zn2	Zn	1.124880	-0.295586	0.293034
Zn3	Zn	1.001934	-0.208167	0.293053
Zn4	Zn	1.001870	-0.295557	0.416059
O5	O	1.063421	-0.251865	0.354563
O6	O	1.227970	-0.219754	0.399791
O7	O	1.108547	-0.284009	0.190052
O8	O	1.018337	-0.135000	0.309403
O9	O	1.227880	-0.283992	0.309372
O10	O	1.108754	-0.134987	0.399809
O11	O	1.018219	-0.219783	0.190066
O12	O	0.898941	-0.219754	0.309358
O13	O	1.018228	-0.283943	0.519050
O14	O	0.898894	-0.283959	0.399731
O15	O	1.108692	-0.219725	0.519083
O16	O	1.108485	-0.368747	0.309327
O17	O	1.018110	-0.368726	0.399713
C18	C	0.872215	-0.251856	0.354542
C19	C	0.790416	-0.251865	0.354550
C20	C	0.602217	-0.285349	0.401548
C21	C	0.525358	-0.285350	0.401557
C22	C	0.525378	-0.218391	0.307594
C23	C	0.602235	-0.218387	0.307589
C24	C	0.640653	-0.251869	0.354565
C25	C	0.486937	-0.251874	0.354579
C26	C	0.403603	-0.251876	0.354589
C27	C	0.723992	-0.251867	0.354556
C28	C	1.063298	-0.387708	0.354529
C29	C	1.063312	-0.445822	0.354539
C30	C	1.110602	-0.806183	0.307579
C31	C	1.110631	-0.860787	0.307589
O32	O	1.150711	-0.889023	0.267625
N33	N	1.063551	-0.888104	0.354612
C34	C	1.016444	-0.860813	0.401633
O35	O	0.976402	-0.889062	0.441631
C36	C	1.016420	-0.806210	0.401626
C37	C	1.063498	-0.778896	0.354595
C38	C	1.157677	-0.778869	0.260553
C39	C	1.157647	-0.724269	0.260542
C40	C	1.110543	-0.696982	0.307558
C41	C	1.063468	-0.724296	0.354584
C42	C	0.969318	-0.778920	0.448650
C43	C	0.969298	-0.724313	0.448640
C44	C	1.016376	-0.697000	0.401609
C45	C	1.016334	-0.642408	0.401590
N46	N	1.063414	-0.615092	0.354567
C47	C	1.110519	-0.642379	0.307551
C48	C	1.016500	-0.975484	0.401644
C49	C	1.016520	-1.030086	0.401648
C50	C	1.110708	-1.030057	0.307605
C51	C	1.110683	-0.975453	0.307598
C52	C	1.063580	-0.948167	0.354621
C53	C	1.110452	-0.527714	0.307532
C54	C	1.110416	-0.473108	0.307523
C55	C	1.016232	-0.473143	0.401569
C56	C	1.016265	-0.527743	0.401575
C57	C	1.063381	-0.555027	0.354554
O58	O	0.976277	-0.614138	0.441536
O59	O	1.150561	-0.614123	0.267567
C60	C	1.255374	-0.251874	0.354584
C61	C	1.337173	-0.251878	0.354594
C62	C	1.063466	-0.251829	0.546516
C63	C	1.063485	-0.251814	0.628315
C64	C	1.063566	-0.115492	0.354613
C65	C	1.063627	-0.057378	0.354634
C66	C	1.063419	-0.251863	0.163357
C67	C	1.063543	-0.251731	0.081558
C68	C	1.110607	-0.218344	0.816528
C69	C	1.110616	-0.218329	0.893386
C70	C	1.016416	-0.285202	0.893340
C71	C	1.016404	-0.285214	0.816483
C72	C	1.063504	-0.251786	0.778078
C73	C	1.063524	-0.251759	0.931795
C74	C	1.063534	-0.251742	1.015128
C75	C	1.063494	-0.251801	0.694739
H76	H	0.633530	-0.191120	0.269329
H77	H	1.148971	-0.191096	0.924688
H78	H	0.494089	-0.191131	0.269346
H79	H	1.148753	-0.450871	0.269223
H80	H	0.633495	-0.312611	0.439801
H81	H	0.978042	-0.312446	0.785176
C82	C	0.483083	-0.322186	0.453236
N83	N	0.451241	-0.349934	0.492160
C84	C	1.162278	-0.557718	0.255802
N85	N	1.201310	-0.580317	0.216835
H86	H	1.195984	-0.702033	0.222248
C87	C	0.964608	-0.321970	0.935592
N88	N	0.925584	-0.349664	0.967415
C89	C	0.964474	-0.557789	0.453308
N90	N	0.925470	-0.580416	0.492281
C91	C	1.209496	-0.808876	0.208823
N92	N	1.248525	-0.831474	0.169851
H93	H	1.149019	-0.953218	0.269302
H94	H	0.977877	-0.450917	0.439847
H95	H	1.149065	-1.052283	0.269324
H96	H	0.978177	-1.052320	0.439938
H97	H	0.978136	-0.953270	0.439934
H98	H	0.930978	-0.801150	0.486945
C99	C	1.162411	-0.181568	0.774286
N100	N	1.201429	-0.153865	0.742471
C101	C	0.917479	-0.694302	0.500371
N102	N	0.878448	-0.671699	0.539334
