data_functionalizedCrystal
_audit_creation_method	'MofGen! by Chris Wilmer'
_symmetry_space_group_name_H-M	'P1'
_symmetry_Int_Tables_number	1
_symmetry_cell_setting	triclinic
loop_
_symmetry_equiv_pos_as_xyz
  x,y,z
_cell_length_a	13.897448
_cell_length_b	12.759395
_cell_length_c	12.759387
_cell_angle_alpha	90.022274
_cell_angle_beta	89.967288
_cell_angle_gamma	89.981744
loop_
_atom_site_label
_atom_site_type_symbol
_atom_site_fract_x
_atom_site_fract_y
_atom_site_fract_z
Zn1	Zn	-0.383950	-1.606247	-0.594041
Zn2	Zn	-0.545277	-1.606128	-0.418355
Zn3	Zn	-0.383999	-1.430545	-0.418372
Zn4	Zn	-0.545206	-1.430528	-0.593989
O5	O	-0.464608	-1.518362	-0.506189
O6	O	-0.405359	-1.753252	-0.570750
O7	O	-0.523934	-1.582794	-0.271336
O8	O	-0.249011	-1.453909	-0.441704
O9	O	-0.523886	-1.753165	-0.441675
O10	O	-0.248974	-1.582996	-0.570767
O11	O	-0.405444	-1.453794	-0.271349
O12	O	-0.405375	-1.283522	-0.441653
O13	O	-0.523764	-1.453880	-0.741017
O14	O	-0.523812	-1.283509	-0.570678
O15	O	-0.405290	-1.582980	-0.741055
O16	O	-0.680249	-1.582778	-0.441625
O17	O	-0.680197	-1.453765	-0.570662
C18	C	-0.464592	-1.245395	-0.506163
C19	C	-0.464608	-1.128618	-0.506176
C20	C	-0.715222	-1.518285	-0.506159
C21	C	-0.822436	-1.518349	-0.506181
C22	C	-0.588137	-1.128644	-0.640313
C23	C	-0.649908	-1.073796	-0.707382
C24	C	-0.649918	-0.964074	-0.707392
C25	C	-0.588148	-0.909198	-0.640327
C26	C	-0.526377	-0.964046	-0.573257
C27	C	-0.526376	-1.073770	-0.573253
C28	C	-0.402845	-0.964020	-0.439128
C29	C	-0.402839	-1.073742	-0.439111
C30	C	-0.341075	-0.909144	-0.372063
C31	C	-0.279308	-0.963992	-0.304986
C32	C	-0.279301	-1.073720	-0.304979
C33	C	-0.341068	-1.128590	-0.372042
C34	C	-1.018731	-1.518459	-0.506247
C35	C	-0.909499	-1.518395	-0.506213
C36	C	-0.213015	-1.518468	-0.506243
C37	C	-0.105801	-1.518513	-0.506266
C38	C	-0.464513	-1.518441	-0.780223
C39	C	-0.464473	-1.518475	-0.897000
C40	C	-0.464621	-0.792395	-0.506209
C41	C	-0.464616	-0.909172	-0.506197
C42	C	-0.341114	-1.652916	-0.897059
C43	C	-0.279420	-1.720151	-0.951949
C44	C	-0.279385	-1.720176	-1.061671
C45	C	-0.341048	-1.652958	-1.116505
C46	C	-0.402742	-1.585723	-1.061614
C47	C	-0.402773	-1.585707	-0.951890
C48	C	-0.526095	-1.451278	-1.061555
C49	C	-0.526137	-1.451256	-0.951833
C50	C	-0.587759	-1.384059	-1.116389
C51	C	-0.649459	-1.316828	-1.061498
C52	C	-0.649492	-1.316806	-0.951770
C53	C	-0.587831	-1.384021	-0.896943
C54	C	-0.464633	-1.518344	-0.233222
C55	C	-0.464401	-1.518513	-0.116445
H56	H	-0.588142	-1.217985	-0.640304
N57	N	-0.588138	-0.797121	-0.640364
N58	N	-0.568067	-0.748206	-0.722369
H59	H	-0.568058	-0.669050	-0.722399
H60	H	-0.229015	-0.919303	-0.250393
H61	H	-0.700213	-0.919417	-0.762011
N62	N	-0.713017	-1.129853	-0.775865
N63	N	-0.802016	-1.117572	-0.768711
H64	H	-0.846588	-1.157160	-0.817077
N65	N	-0.341172	-1.652892	-0.784982
N66	N	-0.416438	-1.674798	-0.735999
H67	H	-0.416479	-1.674782	-0.656842
H68	H	-0.341084	-0.819803	-0.372080
H69	H	-0.699655	-1.262098	-1.106152
N70	N	-0.341016	-1.652955	-1.228582
N71	N	-0.320833	-1.571015	-1.277538
H72	H	-0.320812	-1.571010	-1.356695
H73	H	-0.229142	-1.774918	-1.106363
H74	H	-0.699721	-1.262044	-0.907084
N75	N	-0.587705	-1.384087	-1.228466
N76	N	-0.532617	-1.444121	-1.277465
H77	H	-0.532580	-1.444141	-1.356622
H78	H	-0.228993	-1.118371	-0.250370
N79	N	-0.587843	-1.384003	-0.784865
N80	N	-0.512604	-1.362078	-0.735918
H81	H	-0.512606	-1.362065	-0.656761
H82	H	-0.341071	-1.217931	-0.372039
H83	H	-0.229213	-1.774877	-0.907292
