data_functionalizedCrystal
_audit_creation_method	'MofGen! by Chris Wilmer'
_symmetry_space_group_name_H-M	'P1'
_symmetry_Int_Tables_number	1
_symmetry_cell_setting	triclinic
loop_
_symmetry_equiv_pos_as_xyz
  x,y,z
_cell_length_a	10.723024
_cell_length_b	14.971486
_cell_length_c	13.448316
_cell_angle_alpha	90.006811
_cell_angle_beta	89.993562
_cell_angle_gamma	95.959001
loop_
_atom_site_label
_atom_site_type_symbol
_atom_site_fract_x
_atom_site_fract_y
_atom_site_fract_z
O1	O	1.655881	-0.125456	-0.082686
O2	O	2.155881	0.374544	0.417314
O3	O	1.292603	-0.137464	-0.082689
O4	O	1.792603	0.362536	0.417311
O5	O	1.483979	-0.001312	-0.082681
O6	O	1.983979	0.498688	0.417319
O7	O	1.464505	-0.261608	-0.082695
O8	O	1.964505	0.238392	0.417305
O9	O	1.483955	-0.001304	0.082703
O10	O	1.983955	0.498696	0.582703
O11	O	1.292579	-0.137455	0.082694
O12	O	1.792579	0.362545	0.582694
O13	O	1.655857	-0.125447	0.082698
O14	O	2.155857	0.374553	0.582698
Cu15	Cu	1.474216	-0.131451	0.097797
Cu16	Cu	1.974216	0.368549	0.597797
Cu17	Cu	1.474244	-0.131461	-0.097789
Cu18	Cu	1.974244	0.368539	0.402211
O19	O	1.464481	-0.261599	0.082689
O20	O	1.964481	0.238401	0.582689
C21	C	1.246101	-0.136586	0.000002
C22	C	1.746101	0.363414	0.500002
C23	C	1.107574	-0.133971	0.000001
C24	C	1.607574	0.366029	0.500001
C25	C	1.031795	-0.210155	-0.000004
C26	C	1.531795	0.289845	0.499996
C27	C	0.888620	-0.207454	-0.000005
C28	C	1.388620	0.292546	0.499995
C29	C	1.483096	0.032022	0.000011
C30	C	1.983096	0.532022	0.500011
C31	C	1.480486	0.131333	0.000010
C32	C	1.980486	0.631333	0.500010
C33	C	1.702360	-0.126325	0.000004
C34	C	2.202360	0.373675	0.500004
C35	C	1.840887	-0.128940	-0.000001
C36	C	2.340887	0.371060	0.499999
C37	C	1.465364	-0.294933	-0.000005
C38	C	1.965364	0.205067	0.499995
C39	C	1.467974	-0.394244	-0.000010
C40	C	1.967974	0.105756	0.499990
N41	N	1.474205	-0.131443	0.235361
N42	N	1.974205	0.368557	0.735361
C43	C	1.592914	0.187954	0.000012
C44	C	2.092914	0.687954	0.500012
C45	C	1.590455	0.281267	0.000002
C46	C	2.090455	0.781267	0.500002
C47	C	1.475566	0.317956	-0.000003
C48	C	1.975566	0.817956	0.499997
C49	C	1.363129	0.261327	-0.000008
C50	C	1.863129	0.761327	0.499992
C51	C	1.365590	0.168016	-0.000005
C52	C	1.865590	0.668016	0.499995
C53	C	1.358008	0.455817	-0.000011
C54	C	1.858008	0.955817	0.499989
C55	C	1.355546	0.549134	-0.000012
C56	C	1.855546	1.049134	0.499988
C57	C	1.582872	0.569068	-0.000005
C58	C	2.082872	1.069068	0.499995
C59	C	1.585333	0.475757	-0.000002
C60	C	2.085333	0.975757	0.499998
C61	C	1.472896	0.419134	-0.000005
C62	C	1.972896	0.919134	0.499995
N63	N	1.474265	-0.131461	-0.235353
N64	N	1.974265	0.368539	0.264647
C65	C	1.558973	-0.071180	0.287406
C66	C	2.058973	0.428820	0.787406
C67	C	1.558980	-0.071179	0.391509
C68	C	2.058980	0.428821	0.891509
C69	C	1.474226	-0.131447	0.443566
C70	C	1.974226	0.368553	0.943566
C71	C	1.389449	-0.191712	0.391514
C72	C	1.889449	0.308288	0.891514
C73	C	1.389436	-0.191708	0.287413
C74	C	1.889436	0.308292	0.787413
C75	C	1.389484	-0.191719	0.608494
C76	C	1.889484	0.308281	1.108494
C77	C	1.389498	-0.191724	0.712603
C78	C	1.889498	0.308276	1.212603
C79	C	1.559028	-0.071190	0.712590
C80	C	2.059028	0.428810	1.212590
C81	C	1.559015	-0.071186	0.608489
C82	C	2.059015	0.428814	1.108489
C83	C	1.474240	-0.131453	0.556444
C84	C	1.974240	0.368547	1.056444
H85	H	1.686470	0.158090	0.000022
H86	H	2.186470	0.658090	0.500022
H87	H	1.066454	-0.066749	-0.000021
H88	H	1.566454	0.433251	0.499979
H89	H	1.072915	-0.277377	-0.000002
H90	H	1.572915	0.222623	0.499998
H91	H	1.682005	0.327365	0.000006
H92	H	2.182005	0.827365	0.500006
H93	H	1.627995	-0.022107	0.245028
H94	H	2.127995	0.477893	0.745028
H95	H	1.628054	-0.022118	0.754971
H96	H	2.128054	0.477882	1.254971
H97	H	0.823506	-0.272673	-0.000013
H98	H	1.323506	0.227327	0.499987
H99	H	1.320480	-0.240799	0.754982
H100	H	1.820480	0.259201	1.254982
H101	H	1.320446	-0.240792	0.566123
H102	H	1.820446	0.259208	1.066123
H103	H	1.320409	-0.240779	0.245039
H104	H	1.820409	0.259221	0.745039
H105	H	1.320434	-0.240780	0.433905
H106	H	1.820434	0.259220	0.933905
H107	H	0.905993	-0.063717	-0.000003
H108	H	1.405993	0.436283	0.499997
H109	H	1.678886	0.445888	0.000009
H110	H	2.178886	0.945888	0.500009
H111	H	1.628004	-0.022108	0.433883
H112	H	2.128004	0.477892	0.933883
H113	H	1.674423	0.615175	-0.000005
H114	H	2.174423	1.115175	0.499995
H115	H	1.269584	0.291207	-0.000018
H116	H	1.769584	0.791207	0.499982
H117	H	1.628034	-0.022116	0.566104
H118	H	2.128034	0.477884	1.066104
H119	H	1.261993	0.579003	-0.000000
H120	H	1.761993	1.079003	0.500000
H121	H	1.274039	0.121915	-0.000006
H122	H	1.774039	0.621915	0.499994
H123	H	1.266449	0.409717	-0.000016
H124	H	1.766449	0.909717	0.499984
