data_functionalizedCrystal
_audit_creation_method	'MofGen! by Chris Wilmer'
_symmetry_space_group_name_H-M	'P1'
_symmetry_Int_Tables_number	1
_symmetry_cell_setting	triclinic
loop_
_symmetry_equiv_pos_as_xyz
  x,y,z
_cell_length_a	17.699077
_cell_length_b	8.597304
_cell_length_c	16.776229
_cell_angle_alpha	82.293521
_cell_angle_beta	89.993415
_cell_angle_gamma	84.313138
loop_
_atom_site_label
_atom_site_type_symbol
_atom_site_fract_x
_atom_site_fract_y
_atom_site_fract_z
O1	O	1.005727	0.198423	-0.079902
O2	O	0.785562	0.224253	-0.081679
O3	O	0.899976	-0.017147	-0.065097
O4	O	0.891313	0.439823	-0.096485
O5	O	0.899960	-0.017162	0.067481
O6	O	0.785546	0.224239	0.050898
O7	O	1.005711	0.198408	0.052676
Zn8	Zn	0.895626	0.211321	0.072836
Zn9	Zn	0.895647	0.211340	-0.101840
O10	O	0.891297	0.439808	0.036093
C11	C	0.757349	0.223322	-0.015328
C12	C	0.673308	0.220550	-0.015139
C13	C	0.633821	0.219236	0.057220
C14	C	0.554857	0.216606	0.057401
C15	C	0.515380	0.215302	-0.014777
C16	C	0.554873	0.216612	-0.087141
C17	C	0.633836	0.219230	-0.087321
C18	C	0.236422	0.206050	-0.086417
C19	C	0.157452	0.203437	-0.086232
C20	C	0.157443	0.203427	0.058305
C21	C	0.236406	0.206045	0.058125
C22	C	0.275892	0.207346	-0.014238
C23	C	0.361514	0.210194	-0.014433
C24	C	0.429759	0.212465	-0.014583
C25	C	0.899037	-0.075623	0.005206
C26	C	0.896254	-0.249840	0.017167
C27	C	1.033924	0.199339	-0.013678
C28	C	1.117965	0.202111	-0.013872
C29	C	0.892236	0.498284	-0.034212
C30	C	0.895019	0.672501	-0.046178
N31	N	0.895618	0.211307	0.192049
N32	N	0.895661	0.211342	-0.221052
C33	C	0.946296	0.104458	0.241105
C34	C	0.946301	0.104457	0.324558
C35	C	0.895629	0.211313	0.358951
C36	C	0.844945	0.318166	0.309888
C37	C	0.844938	0.318159	0.226438
C38	C	0.844973	0.318197	0.646433
C39	C	0.844986	0.318199	0.729889
C40	C	0.946335	0.104495	0.744553
C41	C	0.946328	0.104488	0.661103
C42	C	0.895642	0.211335	0.612047
C43	C	0.895637	0.211333	0.521559
C44	C	0.895637	0.211323	0.449437
H45	H	0.665957	0.220311	0.115995
H46	H	0.896089	-0.260705	-0.109567
H47	H	0.987562	0.017451	0.213108
H48	H	0.125284	0.202360	0.117227
H49	H	0.522712	0.215510	0.116325
C50	C	0.789242	0.435761	0.592477
H51	H	0.796490	0.420458	0.537850
H52	H	0.798250	0.540470	0.598962
H53	H	0.738600	0.418871	0.607321
C54	C	0.894800	-0.340067	0.102806
H55	H	0.893058	-0.449253	0.099888
H56	H	0.851207	-0.301170	0.129846
H57	H	0.939249	-0.325462	0.131513
C58	C	1.002054	-0.013061	0.378516
H59	H	1.032239	-0.076684	0.346079
H60	H	0.974359	-0.078329	0.415565
H61	H	1.033976	0.043338	0.407183
C62	C	0.789243	0.435736	0.767725
H63	H	0.796514	0.420444	0.824450
H64	H	0.738606	0.418817	0.755228
H65	H	0.798233	0.540465	0.746847
C66	C	1.002064	-0.013057	0.623275
H67	H	1.032243	-0.076705	0.664445
H68	H	1.033981	0.043307	0.586836
H69	H	0.974346	-0.078322	0.595217
H70	H	0.665985	0.220303	-0.146243
H71	H	0.268562	0.207105	-0.145339
C72	C	0.511450	0.215181	-0.166537
H73	H	0.458766	0.213451	-0.156069
H74	H	0.529489	0.124131	-0.189979
H75	H	0.519298	0.307111	-0.202542
H76	H	0.987605	0.017489	0.784503
C77	C	0.789209	0.435708	0.347718
H78	H	0.796477	0.420423	0.404444
H79	H	0.738572	0.418800	0.335218
H80	H	0.798206	0.540432	0.326838
H81	H	0.803669	0.405163	0.186496
C82	C	0.279827	0.207470	0.137522
H83	H	0.245001	0.206294	0.180645
H84	H	0.305536	0.299971	0.134176
H85	H	0.315726	0.116991	0.146735
C86	C	0.114029	0.201995	-0.165632
H87	H	0.148855	0.203132	-0.208754
H88	H	0.078130	0.292461	-0.174851
H89	H	0.088323	0.109481	-0.162275
