data_functionalizedCrystal
_audit_creation_method	'MofGen! by Chris Wilmer'
_symmetry_space_group_name_H-M	'P1'
_symmetry_Int_Tables_number	1
_symmetry_cell_setting	triclinic
loop_
_symmetry_equiv_pos_as_xyz
  x,y,z
_cell_length_a	16.120530
_cell_length_b	25.639240
_cell_length_c	16.120297
_cell_angle_alpha	92.861830
_cell_angle_beta	90.128140
_cell_angle_gamma	87.127770
loop_
_atom_site_label
_atom_site_type_symbol
_atom_site_fract_x
_atom_site_fract_y
_atom_site_fract_z
Zn1	Zn	1.247376	-0.264883	-0.534485
Zn2	Zn	1.497376	-0.014883	-0.284485
Zn3	Zn	1.747376	0.235117	-0.034485
Zn4	Zn	1.997376	0.485117	0.215515
Zn5	Zn	1.254307	-0.348114	-0.395403
Zn6	Zn	1.504307	-0.098114	-0.145403
Zn7	Zn	1.754307	0.151886	0.104597
Zn8	Zn	2.004307	0.401886	0.354597
Zn9	Zn	1.115369	-0.256048	-0.388406
Zn10	Zn	1.365369	-0.006048	-0.138406
Zn11	Zn	1.615369	0.243952	0.111594
Zn12	Zn	1.865369	0.493952	0.361594
Zn13	Zn	1.108263	-0.347633	-0.527372
Zn14	Zn	1.358263	-0.097633	-0.277372
Zn15	Zn	1.608263	0.152367	-0.027372
Zn16	Zn	1.858263	0.402367	0.222628
O17	O	1.181329	-0.304169	-0.461417
O18	O	1.431329	-0.054169	-0.211417
O19	O	1.681329	0.195831	0.038583
O20	O	1.931329	0.445831	0.288583
O21	O	1.364661	-0.279823	-0.521941
O22	O	1.614661	-0.029823	-0.271941
O23	O	1.864661	0.220177	-0.021941
O24	O	2.114661	0.470177	0.228059
O25	O	1.241750	-0.332405	-0.278110
O26	O	1.491750	-0.082405	-0.028110
O27	O	1.741750	0.167595	0.221890
O28	O	1.991750	0.417595	0.471890
O29	O	1.132953	-0.184058	-0.407832
O30	O	1.382953	0.065942	-0.157832
O31	O	1.632953	0.315942	0.092168
O32	O	1.882953	0.565942	0.342168
O33	O	1.369753	-0.340972	-0.419757
O34	O	1.619753	-0.090972	-0.169757
O35	O	1.869753	0.159028	0.080243
O36	O	2.119753	0.409028	0.330243
O37	O	1.229938	-0.190549	-0.515156
O38	O	1.479938	0.059451	-0.265156
O39	O	1.729938	0.309451	-0.015156
O40	O	1.979938	0.559451	0.234844
O41	O	1.139673	-0.264765	-0.272970
O42	O	1.389673	-0.014765	-0.022970
O43	O	1.639673	0.235235	0.227030
O44	O	1.889673	0.485235	0.477030
O45	O	0.998061	-0.264298	-0.400935
O46	O	1.248061	-0.014298	-0.150935
O47	O	1.498061	0.235702	0.099065
O48	O	1.748061	0.485702	0.349065
O49	O	1.120843	-0.340152	-0.644680
O50	O	1.370843	-0.090152	-0.394680
O51	O	1.620843	0.159848	-0.144680
O52	O	1.870843	0.409848	0.105320
O53	O	0.992840	-0.331585	-0.503033
O54	O	1.242840	-0.081585	-0.253033
O55	O	1.492840	0.168415	-0.003033
O56	O	1.742840	0.418415	0.246967
O57	O	1.223048	-0.279356	-0.649906
O58	O	1.473048	-0.029356	-0.399906
O59	O	1.723048	0.220644	-0.149906
O60	O	1.973048	0.470644	0.100094
O61	O	1.234860	-0.421212	-0.412860
O62	O	1.484860	-0.171212	-0.162860
O63	O	1.734860	0.078788	0.087140
O64	O	1.984860	0.328788	0.337140
O65	O	1.127563	-0.420858	-0.509818
O66	O	1.377563	-0.170858	-0.259818
O67	O	1.627563	0.079142	-0.009818
O68	O	1.877563	0.329142	0.240182
C69	C	0.965278	-0.296931	-0.450453
C70	C	1.215278	-0.046931	-0.200453
C71	C	1.465278	0.203069	0.049547
C72	C	1.715278	0.453069	0.299547
C73	C	0.872850	-0.293847	-0.445783
C74	C	1.122850	-0.043847	-0.195783
C75	C	1.372850	0.206153	0.054217
C76	C	1.622850	0.456153	0.304217
C77	C	1.181214	-0.440006	-0.461345
C78	C	1.431214	-0.190006	-0.211345
C79	C	1.681214	0.059994	0.038655
C80	C	1.931214	0.309994	0.288655
C81	C	1.181240	-0.498121	-0.461347
C82	C	1.431240	-0.248121	-0.211347
C83	C	1.681240	0.001879	0.038653
C84	C	1.931240	0.251879	0.288653
C85	C	0.703622	-0.288205	-0.437263
C86	C	0.953622	-0.038205	-0.187263
C87	C	1.203622	0.211795	0.062737
C88	C	1.453622	0.461795	0.312737
C89	C	0.659873	-0.320174	-0.485630
C90	C	0.909873	-0.070174	-0.235630
C91	C	1.159873	0.179826	0.014370
C92	C	1.409873	0.429826	0.264370
C93	C	0.565708	-0.317035	-0.480890
C94	C	0.815708	-0.067035	-0.230890
C95	C	1.065708	0.182965	0.019110
C96	C	1.315708	0.432965	0.269110
C97	C	0.797795	-0.291344	-0.442003
C98	C	1.047795	-0.041344	-0.192003
C99	C	1.297795	0.208656	0.057997
C100	C	1.547795	0.458656	0.307997
C101	C	1.231850	-0.861834	-0.517397
C102	C	1.481850	-0.611834	-0.267397
C103	C	1.731850	-0.361834	-0.017397
C104	C	1.981850	-0.111834	0.232603
C105	C	1.231874	-0.916440	-0.517416
C106	C	1.481874	-0.666440	-0.267416
C107	C	1.731874	-0.416440	-0.017416
C108	C	1.981874	-0.166440	0.232584
O109	O	1.274768	-0.947518	-0.564998
O110	O	1.524768	-0.697518	-0.314998
O111	O	1.774768	-0.447518	-0.064998
O112	O	2.024768	-0.197518	0.185002
N113	N	1.181440	-0.940415	-0.461503
N114	N	1.431440	-0.690415	-0.211503
N115	N	1.681440	-0.440415	0.038497
N116	N	1.931440	-0.190415	0.288497
C117	C	1.130972	-0.909781	-0.405574
C118	C	1.380972	-0.659781	-0.155574
C119	C	1.630972	-0.409781	0.094426
C120	C	1.880972	-0.159781	0.344426
O121	O	1.088076	-0.935187	-0.358018
O122	O	1.338076	-0.685187	-0.108018
O123	O	1.588076	-0.435187	0.141982
O124	O	1.838076	-0.185187	0.391982
C125	C	1.130945	-0.855176	-0.405560
C126	C	1.380945	-0.605176	-0.155560
C127	C	1.630945	-0.355176	0.094440
C128	C	1.880945	-0.105176	0.344440
C129	C	1.181389	-0.831204	-0.461471
C130	C	1.431389	-0.581204	-0.211471
C131	C	1.681389	-0.331204	0.038529
C132	C	1.931389	-0.081204	0.288529
C133	C	1.282289	-0.837862	-0.573304
C134	C	1.532289	-0.587862	-0.323304
C135	C	1.782289	-0.337862	-0.073304
C136	C	2.032289	-0.087862	0.176696
C137	C	1.282267	-0.783260	-0.573285
C138	C	1.532267	-0.533260	-0.323285
C139	C	1.782267	-0.283260	-0.073285
C140	C	2.032267	-0.033260	0.176715
C141	C	1.231805	-0.752630	-0.517359
C142	C	1.481805	-0.502630	-0.267359
C143	C	1.731805	-0.252630	-0.017359
C144	C	1.981805	-0.002630	0.232641
C145	C	1.181366	-0.776603	-0.461452
C146	C	1.431366	-0.526603	-0.211452
C147	C	1.681366	-0.276603	0.038548
C148	C	1.931366	-0.026603	0.288548
C149	C	1.080474	-0.824543	-0.349636
C150	C	1.330474	-0.574543	-0.099636
C151	C	1.580474	-0.324543	0.150364
C152	C	1.830474	-0.074543	0.400364
C153	C	1.080450	-0.769935	-0.349628
C154	C	1.330450	-0.519935	-0.099628
C155	C	1.580450	-0.269935	0.150372
C156	C	1.830450	-0.019935	0.400372
C157	C	1.130894	-0.745964	-0.405539
C158	C	1.380894	-0.495964	-0.155539
C159	C	1.630894	-0.245964	0.094461
C160	C	1.880894	0.004036	0.344461
C161	C	1.130882	-0.691371	-0.405506
C162	C	1.380882	-0.441371	-0.155506
C163	C	1.630882	-0.191371	0.094494
C164	C	1.880882	0.058629	0.344494
N165	N	1.181316	-0.667396	-0.461419
N166	N	1.431316	-0.417396	-0.211419
N167	N	1.681316	-0.167396	0.038581
N168	N	1.931316	0.082604	0.288581
C169	C	1.231778	-0.698026	-0.517345
C170	C	1.481778	-0.448026	-0.267345
C171	C	1.731778	-0.198026	-0.017345
C172	C	1.981778	0.051974	0.232655
C173	C	1.131033	-1.024454	-0.405608
C174	C	1.381033	-0.774454	-0.155608
C175	C	1.631033	-0.524454	0.094392
C176	C	1.881033	-0.274454	0.344392
C177	C	1.131064	-1.079058	-0.405616
C178	C	1.381064	-0.829058	-0.155616
C179	C	1.631064	-0.579058	0.094384
C180	C	1.881064	-0.329058	0.344384
C181	C	1.231965	-1.085713	-0.517459
C182	C	1.481965	-0.835713	-0.267459
C183	C	1.731965	-0.585713	-0.017459
C184	C	1.981965	-0.335713	0.232541
C185	C	1.231937	-1.031109	-0.517446
C186	C	1.481937	-0.781109	-0.267446
C187	C	1.731937	-0.531109	-0.017446
C188	C	1.981937	-0.281109	0.232554
C189	C	1.181467	-1.000480	-0.461520
C190	C	1.431467	-0.750480	-0.211520
C191	C	1.681467	-0.500480	0.038480
C192	C	1.931467	-0.250480	0.288480
C193	C	1.231727	-0.583358	-0.517300
C194	C	1.481727	-0.333358	-0.267300
C195	C	1.731727	-0.083358	-0.017300
C196	C	1.981727	0.166642	0.232700
C197	C	1.231702	-0.528751	-0.517273
C198	C	1.481702	-0.278751	-0.267273
C199	C	1.731702	-0.028751	-0.017273
C200	C	1.981702	0.221249	0.232727
C201	C	1.130798	-0.522100	-0.405433
C202	C	1.380798	-0.272100	-0.155433
C203	C	1.630798	-0.022100	0.094567
C204	C	1.880798	0.227900	0.344567
C205	C	1.130826	-0.576703	-0.405457
C206	C	1.380826	-0.326703	-0.155457
C207	C	1.630826	-0.076703	0.094543
C208	C	1.880826	0.173297	0.344543
C209	C	1.181292	-0.607330	-0.461397
C210	C	1.431292	-0.357330	-0.211397
C211	C	1.681292	-0.107330	0.038603
C212	C	1.931292	0.142670	0.288603
O213	O	1.088007	-0.660259	-0.357950
O214	O	1.338007	-0.410259	-0.107950
O215	O	1.588007	-0.160259	0.142050
O216	O	1.838007	0.089741	0.392050
O217	O	1.274659	-0.672612	-0.564900
O218	O	1.524659	-0.422612	-0.314900
O219	O	1.774659	-0.172612	-0.064900
O220	O	2.024659	0.077388	0.185100
C221	C	1.398223	-0.311437	-0.472423
C222	C	1.648223	-0.061437	-0.222423
C223	C	1.898223	0.188563	0.027577
C224	C	2.148223	0.438563	0.277577
C225	C	1.490650	-0.314534	-0.477113
C226	C	1.740650	-0.064534	-0.227113
C227	C	1.990650	0.185466	0.022887
C228	C	2.240650	0.435466	0.272887
C229	C	1.170380	-0.310686	-0.678309
C230	C	1.420380	-0.060686	-0.428309
C231	C	1.670380	0.189314	-0.178309
C232	C	1.920380	0.439314	0.071691
C233	C	1.165714	-0.313462	-0.770735
C234	C	1.415714	-0.063462	-0.520735
C235	C	1.665714	0.186538	-0.270735
C236	C	1.915714	0.436538	-0.020735
C237	C	1.181465	-0.167804	-0.461507
C238	C	1.431465	0.082196	-0.211507
C239	C	1.681465	0.332196	0.038493
C240	C	1.931465	0.582196	0.288493
C241	C	1.181523	-0.109693	-0.461546
C242	C	1.431523	0.140307	-0.211546
C243	C	1.681523	0.390307	0.038454
C244	C	1.931523	0.640307	0.288454
C245	C	1.157165	-0.318519	-0.939958
C246	C	1.407165	-0.068519	-0.689958
C247	C	1.657165	0.181481	-0.439958
C248	C	1.907165	0.431481	-0.189958
C249	C	1.205656	-0.289668	-0.983735
C250	C	1.455656	-0.039668	-0.733735
C251	C	1.705656	0.210332	-0.483735
C252	C	1.955656	0.460332	-0.233735
C253	C	1.200899	-0.292482	-1.077896
C254	C	1.450899	-0.042482	-0.827896
C255	C	1.700899	0.207518	-0.577896
C256	C	1.950899	0.457518	-0.327896
C257	C	1.161921	-0.315706	-0.845788
C258	C	1.411921	-0.065706	-0.595788
C259	C	1.661921	0.184294	-0.345788
C260	C	1.911921	0.434294	-0.095788
C261	C	1.192283	-0.297642	-0.245371
C262	C	1.442283	-0.047642	0.004629
C263	C	1.692283	0.202358	0.254629
C264	C	1.942283	0.452358	0.504629
C265	C	1.197109	-0.294724	-0.152953
C266	C	1.447109	-0.044724	0.097047
C267	C	1.697109	0.205276	0.347047
C268	C	1.947109	0.455276	0.597047
H269	H	0.670359	-0.258482	-0.392298
H270	H	0.920359	-0.008482	-0.142298
H271	H	1.170359	0.241518	0.107702
H272	H	1.420359	0.491518	0.357702
O273	O	1.286121	-0.502894	-0.577570
O274	O	1.536121	-0.252894	-0.327570
O275	O	1.786121	-0.002894	-0.077570
O276	O	2.036121	0.247106	0.172430
H277	H	1.321210	-0.533370	-0.616462
H278	H	1.571210	-0.283370	-0.366462
H279	H	1.821210	-0.033370	-0.116462
H280	H	2.071210	0.216630	0.133538
H281	H	0.693138	-0.349899	-0.530600
H282	H	0.943138	-0.099899	-0.280600
H283	H	1.193138	0.150101	-0.030600
H284	H	1.443138	0.400101	0.219400
H285	H	1.089716	-0.497153	-0.359896
H286	H	1.339716	-0.247153	-0.109896
H287	H	1.589716	0.002847	0.140104
H288	H	1.839716	0.252847	0.390104
H289	H	1.272815	-0.608289	-0.562857
H290	H	1.522815	-0.358289	-0.312857
H291	H	1.772815	-0.108289	-0.062857
H292	H	2.022815	0.141711	0.187143
H293	H	1.089937	-0.999518	-0.360059
H294	H	1.339937	-0.749518	-0.110059
H295	H	1.589937	-0.499518	0.139941
H296	H	1.839937	-0.249518	0.389941
H297	H	1.323340	-0.763746	-0.618814
H298	H	1.573340	-0.513746	-0.368814
H299	H	1.823340	-0.263746	-0.118814
H300	H	2.073340	-0.013746	0.131186
H301	H	1.273052	-1.110662	-0.562999
H302	H	1.523052	-0.860662	-0.312999
H303	H	1.773052	-0.610662	-0.062999
H304	H	2.023052	-0.360662	0.187001
O305	O	1.336724	-0.870895	-0.633626
O306	O	1.586724	-0.620895	-0.383626
O307	O	1.836724	-0.370895	-0.133626
O308	O	2.086724	-0.120895	0.116374
H309	H	1.371791	-0.845043	-0.672489
H310	H	1.621791	-0.595043	-0.422489
H311	H	1.871791	-0.345043	-0.172489
H312	H	2.121791	-0.095043	0.077511
H313	H	1.112083	-0.345331	-0.973196
H314	H	1.362083	-0.095331	-0.723196
H315	H	1.612083	0.154669	-0.473196
H316	H	1.862083	0.404669	-0.223196
H317	H	1.250742	-0.262854	-0.950495
H318	H	1.500742	-0.012854	-0.700495
H319	H	1.750742	0.237146	-0.450495
H320	H	2.000742	0.487146	-0.200495
H321	H	1.089997	-1.098571	-0.360080
H322	H	1.339997	-0.848571	-0.110080
H323	H	1.589997	-0.598571	0.139920
H324	H	1.839997	-0.348571	0.389920
O325	O	1.286346	-1.005254	-0.577745
O326	O	1.536346	-0.755254	-0.327745
O327	O	1.786346	-0.505254	-0.077745
O328	O	2.036346	-0.255254	0.172255
H329	H	1.321437	-1.035731	-0.616633
H330	H	1.571437	-0.785731	-0.366633
H331	H	1.821437	-0.535731	-0.116633
H332	H	2.071437	-0.285731	0.133367
H333	H	1.039348	-0.744999	-0.304087
H334	H	1.289348	-0.494999	-0.054087
H335	H	1.539348	-0.244999	0.195913
H336	H	1.789348	0.005001	0.445913
O337	O	1.026060	-0.850391	-0.289338
O338	O	1.276060	-0.600391	-0.039338
O339	O	1.526060	-0.350391	0.210662
O340	O	1.776060	-0.100391	0.460662
H341	H	0.990963	-0.819911	-0.250461
H342	H	1.240963	-0.569911	-0.000461
H343	H	1.490963	-0.319911	0.249539
H344	H	1.740963	-0.069911	0.499539
O345	O	1.076423	-0.602563	-0.345154
O346	O	1.326423	-0.352563	-0.095154
O347	O	1.576423	-0.102563	0.154846
O348	O	1.826423	0.147437	0.404846
H349	H	1.041328	-0.572088	-0.306265
H350	H	1.291328	-0.322088	-0.056265
H351	H	1.541328	-0.072088	0.193735
H352	H	1.791328	0.177912	0.443735
