data_functionalizedCrystal
_audit_creation_method	'MofGen! by Chris Wilmer'
_symmetry_space_group_name_H-M	'P1'
_symmetry_Int_Tables_number	1
_symmetry_cell_setting	triclinic
loop_
_symmetry_equiv_pos_as_xyz
  x,y,z
_cell_length_a	14.421503
_cell_length_b	14.044220
_cell_length_c	14.044220
_cell_angle_alpha	86.811122
_cell_angle_beta	89.996304
_cell_angle_gamma	89.996554
loop_
_atom_site_label
_atom_site_type_symbol
_atom_site_fract_x
_atom_site_fract_y
_atom_site_fract_z
O1	O	0.077017	-1.277173	0.230155
O2	O	0.577017	-0.777173	0.730155
O3	O	0.077040	-1.000501	0.221849
O4	O	0.577040	-0.500501	0.721849
O5	O	0.077020	-1.134684	0.087666
O6	O	0.577020	-0.634684	0.587666
O7	O	0.077037	-1.142990	0.364338
O8	O	0.577037	-0.642990	0.864338
O9	O	-0.077204	-1.134662	0.087686
O10	O	0.422796	-0.634662	0.587686
O11	O	-0.077183	-1.000479	0.221869
O12	O	0.422817	-0.500479	0.721869
O13	O	-0.077207	-1.277150	0.230175
O14	O	0.422793	-0.777150	0.730175
Cu15	Cu	-0.091277	-1.138812	0.226024
Cu16	Cu	0.408723	-0.638812	0.726024
Cu17	Cu	0.091110	-1.138839	0.226000
Cu18	Cu	0.591110	-0.638839	0.726000
O19	O	-0.077186	-1.142967	0.364357
O20	O	0.422814	-0.642967	0.864357
C21	C	-0.000069	-0.964868	0.218223
C22	C	0.499931	-0.464868	0.718223
C23	C	-0.000060	-0.858725	0.207379
C24	C	0.499940	-0.358725	0.707379
N25	N	-0.219558	-1.138801	0.226040
N26	N	0.280442	-0.638801	0.726040
C27	C	-0.000092	-1.131037	0.052054
C28	C	0.499908	-0.631037	0.552054
C29	C	-0.000092	-1.120193	-0.054088
C30	C	0.499908	-0.620193	0.445912
C31	C	-0.469202	-1.076740	0.288055
C32	C	0.030798	-0.576740	0.788055
C33	C	-0.531011	-1.164574	0.313879
C34	C	-0.031011	-0.664574	0.813879
C35	C	-0.408720	-1.138822	0.226019
C36	C	0.091280	-0.638822	0.726019
C37	C	-0.531005	-1.051012	0.200219
C38	C	-0.031005	-0.551012	0.700219
C39	C	-0.591441	-1.138835	0.226001
C40	C	-0.091441	-0.638835	0.726001
C41	C	-0.469167	-1.226703	0.251890
C42	C	0.030833	-0.726703	0.751890
C43	C	-0.469156	-1.113082	0.138188
C44	C	0.030844	-0.613082	0.638188
C45	C	-0.530937	-1.200975	0.163981
C46	C	-0.030937	-0.700975	0.663981
C47	C	-0.303458	-1.138813	0.226032
C48	C	0.196542	-0.638813	0.726032
C49	C	-0.696700	-1.138854	0.225988
C50	C	-0.196700	-0.638854	0.725988
N51	N	0.219391	-1.138858	0.225977
N52	N	0.719391	-0.638858	0.725977
C53	C	-0.000096	-1.312783	0.233800
C54	C	0.499904	-0.812783	0.733800
C55	C	-0.000098	-1.418926	0.244645
C56	C	0.499902	-0.918926	0.744645
C57	C	-0.000080	-0.664388	0.187553
C58	C	0.499920	-0.164388	0.687553
C59	C	-0.000079	-0.613258	0.264467
C60	C	0.499921	-0.113258	0.764467
C61	C	-0.000090	-0.505122	0.253435
C62	C	0.499910	-0.005122	0.753435
C63	C	-0.000069	-0.772534	0.198583
C64	C	0.499931	-0.272534	0.698583
C65	C	-0.000077	-1.100366	-0.248426
C66	C	0.499923	-0.600366	0.251574
C67	C	-0.000081	-1.177281	-0.299556
C68	C	0.499919	-0.677281	0.200444
C69	C	-0.000073	-1.166249	-0.407692
C70	C	0.499927	-0.666249	0.092308
C71	C	-0.000086	-1.111397	-0.140280
C72	C	0.499914	-0.611397	0.359720
C73	C	-0.000072	-1.146614	0.399969
C74	C	0.499928	-0.646614	0.899969
C75	C	-0.000066	-1.157459	0.506112
C76	C	0.499934	-0.657459	1.006112
H77	H	-0.442097	-1.024301	0.340567
H78	H	0.057903	-0.524301	0.840567
O79	O	-0.563121	-1.263548	0.101274
O80	O	-0.063121	-0.763548	0.601274
C81	C	-0.616932	-1.214247	0.030692
C82	C	-0.116932	-0.714247	0.530692
H83	H	-0.596040	-1.135845	0.025618
H84	H	-0.096040	-0.635845	0.525618
H85	H	-0.604810	-1.246431	-0.041014
H86	H	-0.104810	-0.746431	0.458986
H87	H	-0.693457	-1.220598	0.050395
H88	H	-0.193457	-0.720598	0.550395
H89	H	-0.000070	-0.650697	0.338600
H90	H	0.499930	-0.150697	0.838600
H91	H	-0.000069	-1.026239	-0.285863
H92	H	0.499931	-0.526239	0.214137
H93	H	-0.558180	-1.186357	0.388148
H94	H	-0.058180	-0.686357	0.888148
H95	H	-0.441965	-1.091273	0.063940
H96	H	0.058035	-0.591273	0.563940
H97	H	-0.558170	-0.976748	0.178407
H98	H	-0.058170	-0.476748	0.678407
H99	H	-0.442119	-1.300991	0.273791
H100	H	0.057881	-0.800991	0.773791
O101	O	-0.000042	-0.619581	0.099186
O102	O	0.499958	-0.119581	0.599186
C103	C	-0.000073	-0.520023	0.107707
C104	C	0.499927	-0.020023	0.607707
H105	H	0.029121	-0.503063	0.180269
H106	H	0.529121	-0.003063	0.680269
H107	H	0.044702	-0.484597	0.048956
H108	H	0.544702	0.015403	0.548956
H109	H	-0.074063	-0.491904	0.100786
H110	H	0.425937	0.008096	0.600786
H111	H	-0.000025	-1.251414	-0.262117
H112	H	0.499975	-0.751414	0.237883
