data_functionalizedCrystal
_audit_creation_method	'MofGen! by Chris Wilmer'
_symmetry_space_group_name_H-M	'P1'
_symmetry_Int_Tables_number	1
_symmetry_cell_setting	triclinic
loop_
_symmetry_equiv_pos_as_xyz
  x,y,z
_cell_length_a	23.532407
_cell_length_b	23.532407
_cell_length_c	12.503572
_cell_angle_alpha	93.496478
_cell_angle_beta	86.509276
_cell_angle_gamma	82.848678
loop_
_atom_site_label
_atom_site_type_symbol
_atom_site_fract_x
_atom_site_fract_y
_atom_site_fract_z
O1	O	0.758558	0.065826	-0.089196
O2	O	0.592696	0.075828	-0.089229
O3	O	0.680627	-0.012104	-0.089192
O4	O	0.670626	0.153758	-0.089233
O5	O	0.674014	-0.005480	0.089447
O6	O	0.586082	0.082452	0.089410
O7	O	0.751945	0.072450	0.089443
Cu8	Cu	0.668410	0.078056	0.105738
Cu9	Cu	0.676230	0.070222	-0.105524
O10	O	0.664013	0.160382	0.089406
C11	C	0.568173	0.078885	0.000086
C12	C	0.504957	0.078119	0.000075
C13	C	0.105852	0.125354	0.000111
C14	C	0.046452	0.124642	0.000118
O15	O	0.009706	0.168429	0.000146
N16	N	0.023825	0.072367	0.000129
C17	C	0.060602	0.020799	0.000145
O18	O	0.035902	-0.023731	0.000156
C19	C	0.120001	0.021511	0.000146
C20	C	0.142625	0.073790	0.000124
C21	C	0.128476	0.177628	0.000090
C22	C	0.187873	0.178339	0.000082
C23	C	0.224645	0.126775	0.000094
C24	C	0.202021	0.074501	0.000115
C25	C	0.156777	-0.030056	0.000169
C26	C	0.216179	-0.029339	0.000171
C27	C	0.238803	0.022940	0.000148
C28	C	0.298190	0.023648	0.000118
N29	N	0.320817	0.075924	0.000107
C30	C	0.284044	0.127488	0.000095
C31	C	-0.064140	0.019307	0.000145
C32	C	-0.123538	0.018595	0.000136
C33	C	-0.137685	0.122438	0.000111
C34	C	-0.078286	0.123151	0.000112
C35	C	-0.041514	0.071583	0.000133
C36	C	0.408782	0.128976	0.000076
C37	C	0.468184	0.129683	0.000062
C38	C	0.482325	0.025839	0.000093
C39	C	0.422928	0.025133	0.000100
C40	C	0.386157	0.076706	0.000095
O41	O	0.334970	-0.020116	0.000095
O42	O	0.308752	0.172011	0.000098
C43	C	0.677066	-0.030008	0.000130
C44	C	0.676300	-0.093225	0.000138
C45	C	0.723535	-0.492329	0.000089
C46	C	0.722824	-0.551730	0.000080
O47	O	0.766611	-0.588476	0.000050
N48	N	0.670548	-0.574357	0.000071
C49	C	0.618980	-0.537579	0.000059
O50	O	0.574450	-0.562279	0.000049
C51	C	0.619692	-0.478180	0.000059
C52	C	0.671971	-0.455557	0.000080
C53	C	0.775810	-0.469706	0.000108
C54	C	0.776521	-0.410309	0.000118
C55	C	0.724957	-0.373536	0.000109
C56	C	0.672682	-0.396160	0.000090
C57	C	0.568126	-0.441405	0.000039
C58	C	0.568842	-0.382002	0.000039
C59	C	0.621121	-0.359379	0.000060
C60	C	0.621829	-0.299991	0.000091
N61	N	0.674105	-0.277365	0.000101
C62	C	0.725669	-0.314137	0.000110
C63	C	0.617489	-0.662322	0.000055
C64	C	0.616776	-0.721720	0.000062
C65	C	0.720620	-0.735866	0.000082
C66	C	0.721332	-0.676467	0.000083
C67	C	0.669765	-0.639696	0.000065
C68	C	0.727158	-0.189400	0.000133
C69	C	0.727864	-0.129997	0.000147
C70	C	0.624020	-0.115856	0.000122
C71	C	0.623314	-0.175253	0.000113
C72	C	0.674887	-0.212024	0.000114
O73	O	0.578065	-0.263211	0.000118
O74	O	0.770192	-0.289430	0.000106
C75	C	0.776467	0.069393	0.000125
C76	C	0.839684	0.070159	0.000130
C77	C	0.667574	0.178286	0.000081
C78	C	0.668341	0.241502	0.000066
N79	N	0.662913	0.083565	0.254327
N80	N	0.681732	0.064708	-0.254114
C81	C	0.654828	0.091674	0.473439
C82	C	0.689815	0.056601	0.526781
C83	C	0.685316	0.061113	0.648702
C84	C	0.659326	0.087163	0.351507
H85	H	0.098541	0.219620	0.000084
H86	H	0.512276	-0.016143	0.000099
C87	C	0.778057	-0.651835	-0.000073
C88	C	0.784898	-0.621540	-0.091967
C89	C	0.837145	-0.598838	-0.092144
H90	H	0.808713	-0.682190	-0.000121
H91	H	0.778197	-0.626620	0.062189
H92	H	0.784764	-0.646753	-0.154213
H93	H	0.754255	-0.591177	-0.091939
H94	H	0.837284	-0.573623	-0.029882
H95	H	0.867796	-0.629197	-0.092189
H96	H	0.841791	-0.578276	-0.154487
C97	C	0.734112	0.011897	0.465584
C98	C	0.706160	-0.025082	0.401163
C99	C	0.746917	-0.066316	0.344818
H100	H	0.755426	-0.009562	0.515072
H101	H	0.759404	0.030473	0.421556
H102	H	0.680878	-0.043657	0.445187
H103	H	0.684849	-0.003640	0.351655
H104	H	0.772209	-0.047740	0.300790
H105	H	0.768228	-0.087770	0.394313
H106	H	0.727958	-0.091408	0.301094
C107	C	0.492670	0.186483	-0.000128
C108	C	0.477330	0.214230	-0.092026
C109	C	0.499866	0.266557	-0.092230
H110	H	0.533313	0.179607	-0.000189
H111	H	0.477710	0.210038	0.062131
H112	H	0.492292	0.190680	-0.154269
H113	H	0.436691	0.221120	-0.091985
H114	H	0.484906	0.290113	-0.029971
H115	H	0.540508	0.259676	-0.092288
H116	H	0.489456	0.285393	-0.154576
H117	H	0.525555	-0.459814	0.000016
H118	H	0.770437	-0.111581	0.000167
C119	C	-0.024311	-0.036748	0.000094
C120	C	-0.056845	-0.082677	0.000073
C121	C	-0.020176	-0.134324	0.000012
H122	H	-0.003132	-0.036407	0.062370
H123	H	0.001449	-0.040972	-0.062229
H124	H	-0.082595	-0.078455	0.062389
H125	H	-0.078022	-0.083037	-0.062199
H126	H	0.005584	-0.138547	-0.062310
H127	H	0.001000	-0.133977	0.062290
H128	H	-0.042245	-0.165493	-0.000012
C129	C	0.368804	0.184920	-0.000106
C130	C	0.337675	0.184133	-0.091998
C131	C	0.300838	0.235653	-0.092203
H132	H	0.390722	0.216196	-0.000178
H133	H	0.343003	0.189122	0.062157
H134	H	0.363473	0.179937	-0.154245
H135	H	0.315745	0.152868	-0.091946
H136	H	0.275037	0.239855	-0.029939
H137	H	0.322761	0.266926	-0.092272
H138	H	0.279709	0.235124	-0.154545
H139	H	-0.141952	-0.023977	0.000137
H140	H	0.575494	-0.632385	0.000050
C141	C	0.610297	0.136163	0.534577
C142	C	0.555347	0.126313	0.507350
C143	C	0.514313	0.167279	0.563673
H144	H	0.616922	0.173482	0.516253
H145	H	0.613106	0.133308	0.609585
H146	H	0.552540	0.129173	0.432358
H147	H	0.548704	0.089002	0.525676
H148	H	0.517122	0.164424	0.638681
H149	H	0.520944	0.204595	0.545346
H150	H	0.477025	0.160598	0.545215
C151	C	0.212317	0.235162	0.000128
C152	C	0.167389	0.280161	0.000151
C153	C	0.189879	0.332518	0.000213
H154	H	0.237487	0.235378	-0.062149
H155	H	0.232872	0.239940	0.062450
H156	H	0.146843	0.275384	-0.062165
H157	H	0.142215	0.279964	0.062423
H158	H	0.210435	0.337296	0.062535
H159	H	0.215050	0.332728	-0.062065
H160	H	0.159399	0.363057	0.000239
H161	H	0.138368	-0.072627	0.000188
H162	H	-0.059870	0.165721	0.000100
H163	H	0.246116	-0.071332	0.000189
H164	H	0.526849	-0.352065	0.000023
C165	C	0.398336	-0.031617	-0.000105
C166	C	0.368050	-0.038475	-0.092012
C167	C	0.345398	-0.090748	-0.092232
H168	H	0.373124	-0.031800	0.062126
H169	H	0.428731	-0.062244	-0.000160
H170	H	0.337658	-0.007855	-0.091946
H171	H	0.393249	-0.038302	-0.154257
H172	H	0.375793	-0.121376	-0.092288
H173	H	0.320188	-0.090927	-0.029998
H174	H	0.324850	-0.095411	-0.154595
C175	C	0.783210	-0.229220	0.000195
C176	C	0.829135	-0.196682	0.000243
C177	C	0.880778	-0.233343	0.000322
H178	H	0.787485	-0.255003	-0.062085
H179	H	0.782817	-0.250373	0.062514
H180	H	0.829529	-0.175539	-0.062070
H181	H	0.824880	-0.170900	0.062518
H182	H	0.880384	-0.254496	0.062641
H183	H	0.885046	-0.259125	-0.061959
H184	H	0.911944	-0.211271	0.000365
H185	H	-0.167636	0.164425	0.000107
H186	H	0.819092	-0.391895	0.000131
C187	C	0.776657	-0.775737	-0.000086
C188	C	0.811560	-0.768947	-0.091974
C189	C	0.863185	-0.805661	-0.092158
H190	H	0.768826	-0.814374	-0.000149
H191	H	0.795837	-0.766602	0.062180
H192	H	0.792384	-0.778086	-0.154224
H193	H	0.819407	-0.730318	-0.091931
H194	H	0.882365	-0.796526	-0.029892
H195	H	0.855348	-0.844296	-0.092218
H196	H	0.886875	-0.801055	-0.154497
H197	H	0.580743	-0.193673	0.000126
H198	H	0.817802	-0.499641	0.000112
H199	H	0.574205	-0.740133	0.000064
H200	H	0.582038	-0.085905	0.000118
