data_functionalizedCrystal
_audit_creation_method	'MofGen! by Chris Wilmer'
_symmetry_space_group_name_H-M	'P1'
_symmetry_Int_Tables_number	1
_symmetry_cell_setting	triclinic
loop_
_symmetry_equiv_pos_as_xyz
  x,y,z
_cell_length_a	14.971491
_cell_length_b	16.992695
_cell_length_c	13.448316
_cell_angle_alpha	89.993283
_cell_angle_beta	89.991393
_cell_angle_gamma	87.142229
loop_
_atom_site_label
_atom_site_type_symbol
_atom_site_fract_x
_atom_site_fract_y
_atom_site_fract_z
O1	O	1.194126	0.102209	-0.082736
O2	O	1.527459	0.435543	0.250597
O3	O	1.860793	0.768876	0.583931
O4	O	0.934586	0.114442	-0.082729
O5	O	1.267919	0.447776	0.250605
O6	O	1.601253	0.781109	0.583938
O7	O	1.063315	-0.005818	-0.082724
O8	O	1.396649	0.327516	0.250609
O9	O	1.729982	0.660849	0.583942
O10	O	1.065396	0.222469	-0.082740
O11	O	1.398730	0.555803	0.250593
O12	O	1.732063	0.889136	0.583927
O13	O	1.063298	-0.005825	0.082659
O14	O	1.396631	0.327508	0.415993
O15	O	1.729964	0.660841	0.749326
O16	O	0.934568	0.114435	0.082655
O17	O	1.267901	0.447768	0.415988
O18	O	1.601235	0.781102	0.749322
O19	O	1.194108	0.102202	0.082648
O20	O	1.527441	0.435535	0.415981
O21	O	1.860775	0.768868	0.749315
Cu22	Cu	1.064336	0.108318	0.097752
Cu23	Cu	1.397670	0.441651	0.431086
Cu24	Cu	1.731003	0.774984	0.764419
Cu25	Cu	1.064357	0.108326	-0.097833
Cu26	Cu	1.397691	0.441660	0.235500
Cu27	Cu	1.731024	0.774993	0.568834
O28	O	1.065379	0.222462	0.082644
O29	O	1.398712	0.555795	0.415977
O30	O	1.732045	0.889129	0.749310
C31	C	0.901214	0.113891	-0.000036
C32	C	1.234547	0.447224	0.333298
C33	C	1.567880	0.780558	0.666631
C34	C	0.801802	0.112249	-0.000033
C35	C	1.135135	0.445583	0.333301
C36	C	1.468468	0.778916	0.666634
C37	C	0.373608	0.105170	-0.090206
C38	C	0.706941	0.438503	0.243127
C39	C	1.040275	0.771836	0.576461
C40	C	0.467017	0.106710	-0.090202
C41	C	0.800350	0.440043	0.243131
C42	C	1.133683	0.773376	0.576464
C43	C	0.513707	0.107481	-0.000048
C44	C	0.847040	0.440814	0.333285
C45	C	1.180374	0.774147	0.666618
C46	C	0.466985	0.106704	0.090108
C47	C	0.800318	0.440037	0.423441
C48	C	1.133652	0.773370	0.756775
C49	C	0.373579	0.105158	0.090103
C50	C	0.706912	0.438491	0.423437
C51	C	1.040245	0.771825	0.756770
C52	C	0.661673	0.109927	0.090112
C53	C	0.995006	0.443261	0.423445
C54	C	1.328340	0.776594	0.756778
C55	C	0.755086	0.111475	0.090117
C56	C	1.088419	0.444808	0.423450
C57	C	1.421753	0.778141	0.756783
C58	C	0.755111	0.111479	-0.090194
C59	C	1.088444	0.444812	0.243139
C60	C	1.421778	0.778146	0.576472
C61	C	0.661705	0.109933	-0.090199
C62	C	0.995038	0.443267	0.243134
C63	C	1.328371	0.776600	0.576468
C64	C	0.614989	0.109158	-0.000042
C65	C	0.948322	0.442491	0.333291
C66	C	1.281656	0.775825	0.666624
C67	C	1.060630	-0.035037	-0.000032
C68	C	1.393963	0.298297	0.333301
C69	C	1.727296	0.631630	0.666634
C70	C	1.052643	-0.122088	-0.000033
C71	C	1.385976	0.211245	0.333301
C72	C	1.719309	0.544578	0.666634
C73	C	1.129707	-0.172255	-0.000034
C74	C	1.463040	0.161078	0.333300
C75	C	1.796373	0.494411	0.666633
C76	C	1.122197	-0.254049	-0.000043
C77	C	1.455530	0.079284	0.333291
C78	C	1.788863	0.412618	0.666624
C79	C	1.037622	-0.285674	-0.000044
C80	C	1.370955	0.047659	0.333289
C81	C	1.704288	0.380992	0.666623
C82	C	0.960552	-0.235501	-0.000046
C83	C	1.293885	0.097832	0.333288
C84	C	1.627218	0.431166	0.666621
C85	C	0.968063	-0.153709	-0.000044
C86	C	1.301396	0.179625	0.333290
C87	C	1.634729	0.512958	0.666623
C88	C	1.006492	-0.529302	-0.000057
C89	C	1.339826	-0.195968	0.333277
C90	C	1.673159	0.137365	0.666610
C91	C	0.998987	-0.611100	-0.000056
C92	C	1.332320	-0.277767	0.333278
C93	C	1.665654	0.055566	0.666611
C94	C	1.160633	-0.629643	-0.000055
C95	C	1.493966	-0.296310	0.333279
C96	C	1.827300	0.037024	0.666612
C97	C	1.168136	-0.547848	-0.000047
C98	C	1.501470	-0.214515	0.333287
C99	C	1.834803	0.118818	0.666620
C100	C	1.091066	-0.497682	-0.000054
C101	C	1.424400	-0.164349	0.333280
C102	C	1.757733	0.168984	0.666613
N103	N	1.029943	-0.369281	-0.000050
N104	N	1.363277	-0.035947	0.333283
N105	N	1.696610	0.297386	0.666617
N106	N	1.098746	-0.414078	-0.000055
N107	N	1.432079	-0.080744	0.333279
N108	N	1.765412	0.252589	0.666612
C109	C	1.227480	0.102753	-0.000047
C110	C	1.560813	0.436087	0.333286
C111	C	1.894147	0.769420	0.666620
C112	C	1.326892	0.104395	-0.000057
C113	C	1.660226	0.437728	0.333277
C114	C	1.993559	0.771062	0.666610
C115	C	1.068064	0.251681	-0.000050
C116	C	1.401398	0.585014	0.333283
C117	C	1.734731	0.918348	0.666616
C118	C	1.076051	0.338733	-0.000057
C119	C	1.409385	0.672066	0.333276
C120	C	1.742718	1.005399	0.666610
N121	N	1.064328	0.108311	0.235317
N122	N	1.397661	0.441644	0.568650
N123	N	1.730995	0.774978	0.901983
N124	N	1.064372	0.108327	-0.235397
N125	N	1.397706	0.441660	0.097936
N126	N	1.731039	0.774994	0.431269
C127	C	1.121350	0.055082	0.287359
C128	C	1.454683	0.388415	0.620692
C129	C	1.788017	0.721748	0.954026
C130	C	1.121356	0.055081	0.391462
C131	C	1.454689	0.388414	0.724796
C132	C	1.788022	0.721748	1.058129
C133	C	1.064343	0.108314	0.443521
C134	C	1.397676	0.441647	0.776855
C135	C	1.731010	0.774981	1.110188
C136	C	1.007315	0.161546	0.391472
C137	C	1.340648	0.494879	0.724805
C138	C	1.673982	0.828213	1.058138
C139	C	1.007306	0.161542	0.287370
C140	C	1.340639	0.494876	0.620704
C141	C	1.673972	0.828209	0.954037
C142	C	1.007340	0.161551	0.608452
C143	C	1.340674	0.494885	0.941785
C144	C	1.674007	0.828218	1.275118
C145	C	1.007351	0.161556	0.712560
C146	C	1.340684	0.494890	1.045894
C147	C	1.674017	0.828223	1.379227
C148	C	1.121390	0.055090	0.712544
C149	C	1.454724	0.388423	1.045877
C150	C	1.788057	0.721757	1.379210
C151	C	1.121381	0.055086	0.608442
C152	C	1.454714	0.388420	0.941776
C153	C	1.788047	0.721753	1.275109
C154	C	1.064354	0.108319	0.556400
C155	C	1.397687	0.441653	0.889733
C156	C	1.731020	0.774986	1.223067
H157	H	0.335543	0.104536	0.163512
H158	H	0.668876	0.437869	0.496846
H159	H	1.002210	0.771202	0.830179
O160	O	0.323251	0.104321	-0.187444
O161	O	0.656584	0.437655	0.145889
O162	O	0.989918	0.770988	0.479222
H163	H	0.371433	0.105105	-0.250129
H164	H	0.704767	0.438438	0.083204
H165	H	1.038100	0.771772	0.416537
H166	H	0.623691	0.109311	-0.163610
H167	H	0.957025	0.442644	0.169723
H168	H	1.290358	0.775978	0.503056
O169	O	0.611464	0.109458	0.187483
O170	O	0.944797	0.442791	0.520816
O171	O	1.278130	0.776124	0.854149
H172	H	0.564935	0.162292	0.191588
H173	H	0.898268	0.495625	0.524922
H174	H	1.231601	0.828959	0.858255
O175	O	0.884943	-0.099597	-0.000041
O176	O	1.218276	0.233737	0.333292
O177	O	1.551609	0.567070	0.666626
H178	H	0.884495	-0.061891	0.067363
H179	H	1.217828	0.271443	0.400697
H180	H	1.551162	0.604776	0.734030
H181	H	0.793152	0.112112	-0.163603
H182	H	1.126485	0.445445	0.169730
H183	H	1.459818	0.778778	0.503063
O184	O	1.220931	-0.138153	-0.000032
O185	O	1.554265	0.195180	0.333301
O186	O	1.887598	0.528514	0.666635
H187	H	1.213211	-0.072849	-0.000021
H188	H	1.546544	0.260484	0.333312
H189	H	1.879877	0.593818	0.666646
H190	H	1.184951	-0.294892	-0.000042
H191	H	1.518284	0.038441	0.333292
H192	H	1.851618	0.371774	0.666625
H193	H	1.237006	-0.522106	-0.000046
H194	H	1.570340	-0.188772	0.333288
H195	H	1.903673	0.144561	0.666621
O196	O	1.243757	-0.683748	-0.000053
O197	O	1.577090	-0.350415	0.333280
O198	O	1.910423	-0.017081	0.666613
H199	H	1.224330	-0.745937	-0.000062
H200	H	1.557663	-0.412604	0.333272
H201	H	1.890996	-0.079270	0.666605
H202	H	0.793098	0.112107	0.163528
H203	H	1.126432	0.445440	0.496861
H204	H	1.459765	0.778774	0.830195
O205	O	0.945826	0.218964	0.447622
O206	O	1.279160	0.552298	0.780955
O207	O	1.612493	0.885631	1.114288
H208	H	0.961589	0.280108	0.427613
H209	H	1.294922	0.613442	0.760946
H210	H	1.628255	0.946775	1.094279
O211	O	1.182909	-0.002323	0.768663
O212	O	1.516242	0.331010	1.101996
O213	O	1.849576	0.664343	1.435330
H214	H	1.167161	-0.063473	0.748690
H215	H	1.500495	0.269860	1.082023
H216	H	1.833828	0.603194	1.415357
O217	O	1.182870	-0.002330	0.447581
O218	O	1.516203	0.331003	0.780914
O219	O	1.849536	0.664337	1.114248
H220	H	1.142507	-0.040510	0.495020
H221	H	1.475841	0.292823	0.828354
H222	H	1.809174	0.626157	1.161687
O223	O	0.907763	-0.645215	-0.000068
O224	O	1.241096	-0.311882	0.333265
O225	O	1.574430	0.021451	0.666598
H226	H	0.855432	-0.596591	-0.000084
H227	H	1.188766	-0.263258	0.333249
H228	H	1.522099	0.070076	0.666583
O229	O	0.517339	0.107544	0.187349
O230	O	0.850672	0.440877	0.520682
O231	O	1.184006	0.774210	0.854015
H232	H	0.564060	0.054850	0.191673
H233	H	0.897394	0.388183	0.525007
H234	H	1.230727	0.721516	0.858340
O235	O	0.923371	-0.475198	-0.000039
O236	O	1.256705	-0.141865	0.333294
O237	O	1.590038	0.191468	0.666628
H238	H	0.863302	-0.510933	-0.000022
H239	H	1.196635	-0.177600	0.333311
H240	H	1.529969	0.155733	0.666644
H241	H	0.891689	-0.261257	-0.000053
H242	H	1.225022	0.072077	0.333281
H243	H	1.558355	0.405410	0.666614
H244	H	0.505049	0.107335	-0.163611
H245	H	0.838382	0.440669	0.169722
H246	H	1.171715	0.774002	0.503056
H247	H	1.167780	0.011737	0.244979
H248	H	1.501113	0.345070	0.578313
H249	H	1.834447	0.678403	0.911646
O250	O	0.945839	0.218969	0.552314
O251	O	1.279172	0.552302	0.885647
O252	O	1.612505	0.885636	1.218981
H253	H	0.906204	0.255994	0.606001
H254	H	1.239537	0.589327	0.939334
H255	H	1.572870	0.922660	1.272668
O256	O	1.182867	-0.002330	0.552286
O257	O	1.516201	0.331004	0.885620
O258	O	1.849534	0.664337	1.218953
H259	H	1.222516	-0.039352	0.605961
H260	H	1.555850	0.293982	0.939295
H261	H	1.889183	0.627315	1.272628
O262	O	0.945787	0.218944	0.231239
O263	O	1.279120	0.552277	0.564573
O264	O	1.612453	0.885611	0.897906
H265	H	0.955345	0.209989	0.150106
H266	H	1.288678	0.543322	0.483439
H267	H	1.622012	0.876655	0.816772
O268	O	0.945841	0.218954	0.768716
O269	O	1.279175	0.552287	1.102050
O270	O	1.612508	0.885620	1.435383
H271	H	0.906170	0.255957	0.715041
H272	H	1.239503	0.589290	1.048375
H273	H	1.572837	0.922624	1.381708
