data_functionalizedCrystal
_audit_creation_method	'MofGen! by Chris Wilmer'
_symmetry_space_group_name_H-M	'P1'
_symmetry_Int_Tables_number	1
_symmetry_cell_setting	triclinic
loop_
_symmetry_equiv_pos_as_xyz
  x,y,z
_cell_length_a	15.995350
_cell_length_b	15.944551
_cell_length_c	14.472310
_cell_angle_alpha	89.997979
_cell_angle_beta	89.990621
_cell_angle_gamma	83.495557
loop_
_atom_site_label
_atom_site_type_symbol
_atom_site_fract_x
_atom_site_fract_y
_atom_site_fract_z
O1	O	1.111003	0.108264	-0.076765
O2	O	0.867228	0.121634	-0.076784
O3	O	0.995772	-0.007326	-0.076765
O4	O	0.982458	0.237224	-0.076783
O5	O	0.995739	-0.007319	0.076917
O6	O	0.867195	0.121641	0.076898
O7	O	1.110969	0.108272	0.076917
Cu8	Cu	0.989079	0.114957	0.090940
Cu9	Cu	0.989118	0.114948	-0.090807
O10	O	0.982425	0.237232	0.076899
C11	C	0.836017	0.121085	0.000055
C12	C	0.743066	0.119428	0.000048
C13	C	0.995203	-0.038616	0.000076
C14	C	0.993546	-0.131862	0.000076
C15	C	0.405318	0.113477	0.000067
C16	C	0.452747	0.021634	0.000417
C17	C	0.549438	0.023291	0.000064
C18	C	0.572879	0.116429	0.000058
C19	C	0.531813	0.161724	-0.087701
C20	C	0.435178	0.159417	-0.087768
C21	C	0.434801	0.161323	0.086997
C22	C	0.531746	0.161302	0.088150
C23	C	0.667577	0.118102	0.000050
C24	C	0.310620	0.111806	0.000069
C25	C	0.909908	-0.346714	0.000057
C26	C	0.948730	-0.407730	0.075834
C27	C	0.990548	-0.302588	0.000069
C28	C	0.948782	-0.407721	-0.075684
C29	C	0.987647	-0.467501	0.000058
C30	C	1.029393	-0.362376	0.075909
C31	C	1.029433	-0.362360	-0.075678
C32	C	1.068315	-0.423358	0.000119
C33	C	0.992217	-0.207586	0.000076
C34	C	0.985984	-0.562502	0.000057
C35	C	1.142181	0.108821	0.000077
C36	C	1.235131	0.110478	0.000078
C37	C	0.982995	0.268522	0.000056
C38	C	0.984652	0.361768	0.000049
N39	N	0.989058	0.114963	0.218771
N40	N	0.989146	0.114936	-0.218638
C41	C	0.989117	0.114945	0.592862
C42	C	0.920105	0.183717	0.553686
C43	C	0.920264	0.183968	0.446598
C44	C	0.989087	0.114954	0.407271
C45	C	1.076453	0.134096	0.446114
C46	C	1.076065	0.134585	0.553235
C47	C	0.971543	0.026826	0.553396
C48	C	0.969539	0.027414	0.446269
C49	C	0.989075	0.114957	0.302383
C50	C	0.989135	0.114943	0.697750
H51	H	0.577851	-0.012314	0.062974
N52	N	0.407596	0.121548	0.175111
H53	H	0.427165	0.153217	0.230009
H54	H	0.344228	0.124065	0.176266
H55	H	1.129023	0.086470	0.579148
N56	N	0.392462	0.248730	-0.093072
H57	H	0.329414	0.247928	-0.093160
H58	H	0.409319	0.281783	-0.037912
N59	N	0.833802	0.168868	0.587841
H60	H	0.796480	0.159528	0.533380
H61	H	0.838675	0.117430	0.629055
H62	H	0.931487	0.249360	0.420961
N63	N	0.567903	0.117509	0.174155
H64	H	0.610749	0.068804	0.156141
H65	H	0.595898	0.158882	0.213076
H66	H	0.855324	0.172563	0.420338
N67	N	1.031801	-0.043556	0.410829
H68	H	1.028977	-0.045490	0.341155
H69	H	1.090446	-0.033729	0.430630
N70	N	1.157048	-0.467302	0.000176
H71	H	1.187768	-0.450075	-0.056499
H72	H	1.187309	-0.450814	0.057474
N73	N	0.426815	-0.026779	-0.082482
H74	H	0.457571	-0.085703	-0.081733
H75	H	0.364153	-0.030020	-0.080273
N76	N	0.586364	-0.024200	-0.083401
H77	H	0.539821	-0.046289	-0.120111
H78	H	0.616223	0.014994	-0.123327
H79	H	0.931173	0.248741	0.580592
N80	N	0.552095	0.251270	0.095173
H81	H	0.588425	0.264276	0.041106
H82	H	0.498160	0.290893	0.094422
N83	N	0.392741	0.251020	0.087783
H84	H	0.354770	0.260653	0.032135
H85	H	0.358292	0.261055	0.146043
H86	H	1.129034	0.085338	0.420638
N87	N	0.821246	-0.302589	0.000138
H88	H	0.790881	-0.318962	0.057429
H89	H	0.823056	-0.239480	-0.000484
N90	N	1.096557	0.219715	0.586320
H91	H	1.096506	0.220886	0.656096
H92	H	1.153938	0.230017	0.562726
H93	H	1.092308	0.197628	0.419273
H94	H	0.909219	0.008419	0.580460
N95	N	0.903527	-0.434360	0.160682
H96	H	0.903221	-0.497668	0.160359
H97	H	0.933400	-0.417002	0.217869
H98	H	0.416881	0.126379	-0.153367
H99	H	0.545943	0.230150	-0.090969
N100	N	0.569408	0.120050	-0.174215
H101	H	0.613030	0.071839	-0.156761
H102	H	0.523540	0.097754	-0.211817
N103	N	0.884382	0.008194	0.412708
H104	H	0.858570	0.055983	0.372402
H105	H	0.891053	-0.045917	0.375814
N106	N	1.074595	-0.335687	-0.160527
H107	H	1.134095	-0.364699	-0.161129
H108	H	1.044028	-0.351987	-0.217694
H109	H	1.021870	-0.024352	0.578730
N110	N	1.074515	-0.335916	0.160871
H111	H	1.124910	-0.307207	0.141667
H112	H	1.034954	-0.295502	0.198518
N113	N	0.428199	-0.026993	0.083785
H114	H	0.386092	0.010036	0.122137
H115	H	0.402261	-0.078636	0.062780
N116	N	0.903607	-0.434340	-0.160538
H117	H	0.843781	-0.406171	-0.160471
H118	H	0.933536	-0.417031	-0.217723
