data_functionalizedCrystal
_audit_creation_method	'MofGen! by Chris Wilmer'
_symmetry_space_group_name_H-M	'P1'
_symmetry_Int_Tables_number	1
_symmetry_cell_setting	triclinic
loop_
_symmetry_equiv_pos_as_xyz
  x,y,z
_cell_length_a	19.805407
_cell_length_b	12.759400
_cell_length_c	19.805399
_cell_angle_alpha	89.976763
_cell_angle_beta	89.980427
_cell_angle_gamma	90.014685
loop_
_atom_site_label
_atom_site_type_symbol
_atom_site_fract_x
_atom_site_fract_y
_atom_site_fract_z
Zn1	Zn	1.034791	-0.418291	-0.382740
Zn2	Zn	1.534791	0.081709	0.117260
Zn3	Zn	1.034729	-0.593984	-0.269560
Zn4	Zn	1.534729	-0.093984	0.230440
Zn5	Zn	0.921605	-0.418320	-0.269565
Zn6	Zn	1.421605	0.081680	0.230435
Zn7	Zn	0.921592	-0.593928	-0.382707
Zn8	Zn	1.421592	-0.093928	0.117293
O9	O	0.978179	-0.506131	-0.326143
O10	O	1.478179	-0.006131	0.173857
O11	O	1.129499	-0.441608	-0.367739
O12	O	1.629499	0.058392	0.132261
O13	O	1.019702	-0.570717	-0.174844
O14	O	1.519702	-0.070717	0.325156
O15	O	0.936651	-0.271295	-0.284593
O16	O	1.436651	0.228705	0.215407
O17	O	1.129454	-0.570689	-0.284586
O18	O	1.629454	-0.070689	0.215414
O19	O	1.019808	-0.271273	-0.367743
O20	O	1.519808	0.228727	0.132257
O21	O	0.936591	-0.441657	-0.174848
O22	O	1.436591	0.058343	0.325152
O23	O	0.826887	-0.441603	-0.284561
O24	O	1.326887	0.058397	0.215439
O25	O	0.936629	-0.570594	-0.477428
O26	O	1.436629	-0.070594	0.022572
O27	O	0.826877	-0.570622	-0.367687
O28	O	1.326877	-0.070622	0.132313
O29	O	1.019795	-0.441554	-0.477452
O30	O	1.519795	0.058446	0.022548
O31	O	1.019689	-0.740998	-0.284554
O32	O	1.519689	-0.240998	0.215446
O33	O	0.936568	-0.740957	-0.367682
O34	O	1.436568	-0.240957	0.132318
C35	C	0.802323	-0.506110	-0.326121
C36	C	1.302323	-0.006110	0.173879
C37	C	0.727091	-0.506127	-0.326128
C38	C	1.227091	-0.006127	0.173872
C39	C	0.691760	-0.573408	-0.369341
C40	C	1.191760	-0.073408	0.130659
C41	C	0.621071	-0.573410	-0.369351
C42	C	1.121071	-0.073410	0.130649
C43	C	0.585716	-0.506135	-0.326143
C44	C	1.085716	-0.006135	0.173857
C45	C	0.621052	-0.438847	-0.282928
C46	C	1.121052	0.061153	0.217072
C47	C	0.691739	-0.438840	-0.282922
C48	C	1.191739	0.061160	0.217078
C49	C	0.335979	-0.438870	-0.282950
C50	C	0.835979	0.061130	0.217050
C51	C	0.265287	-0.438884	-0.282958
C52	C	0.765287	0.061116	0.217042
C53	C	0.265311	-0.573440	-0.369379
C54	C	0.765311	-0.073440	0.130621
C55	C	0.335998	-0.573433	-0.369373
C56	C	0.835998	-0.073433	0.130627
C57	C	0.371328	-0.506141	-0.326161
C58	C	0.871328	-0.006141	0.173839
C59	C	0.447977	-0.506139	-0.326152
C60	C	0.947977	-0.006139	0.173848
C61	C	0.509069	-0.506142	-0.326148
C62	C	1.009069	-0.006142	0.173852
C63	C	0.978139	-0.779098	-0.326129
C64	C	1.478139	-0.279098	0.173871
C65	C	0.978184	-0.895875	-0.326146
C66	C	1.478184	-0.395875	0.173854
C67	C	1.021513	-0.950723	-0.282908
C68	C	1.521513	-0.450723	0.217092
C69	C	1.021555	-1.060447	-0.282929
C70	C	1.521555	-0.560447	0.217071
C71	C	0.934932	-1.060464	-0.369426
C72	C	1.434932	-0.560464	0.130574
C73	C	0.934894	-0.950742	-0.369408
C74	C	1.434894	-0.450742	0.130592
C75	C	1.064802	-0.895855	-0.239646
C76	C	1.564802	-0.395855	0.260354
C77	C	1.108135	-0.950704	-0.196404
C78	C	1.608135	-0.450704	0.303596
C79	C	1.108176	-1.060428	-0.196425
C80	C	1.608176	-0.560428	0.303575
C81	C	1.064886	-1.115303	-0.239687
C82	C	1.564886	-0.615303	0.260313
C83	C	1.154722	-0.506152	-0.326165
C84	C	1.654722	-0.006152	0.173835
C85	C	1.229954	-0.506160	-0.326175
C86	C	1.729954	-0.006160	0.173825
C87	C	0.978217	-0.506064	-0.502686
C88	C	1.478217	-0.006064	-0.002686
C89	C	0.978233	-0.506036	-0.577918
C90	C	1.478233	-0.006036	-0.077918
C91	C	0.978238	-0.232097	-0.326172
C92	C	1.478238	0.267903	0.173828
C93	C	0.978263	-0.115321	-0.326184
C94	C	1.478263	0.384679	0.173816
C95	C	1.021539	-0.438842	-0.613276
C96	C	1.521539	0.061158	-0.113276
C97	C	1.021546	-0.438811	-0.683964
C98	C	1.521546	0.061189	-0.183964
C99	C	0.978250	-0.505981	-0.719294
C100	C	1.478250	-0.005981	-0.219294
C101	C	0.934940	-0.573179	-0.683931
C102	C	1.434940	-0.073179	-0.183931
C103	C	0.934930	-0.573203	-0.613244
C104	C	1.434930	-0.073203	-0.113244
C105	C	0.934978	-0.573081	-0.969004
C106	C	1.434978	-0.073081	-0.469004
C107	C	0.934992	-0.573054	-1.039696
C108	C	1.434992	-0.073054	-0.539696
C109	C	1.021594	-0.438689	-1.039725
C110	C	1.521594	0.061311	-0.539725
C111	C	1.021584	-0.438713	-0.969038
C112	C	1.521584	0.061287	-0.469038
C113	C	0.978272	-0.505906	-0.933681
C114	C	1.478272	-0.005906	-0.433681
C115	C	0.978264	-0.505937	-0.857033
C116	C	1.478264	-0.005937	-0.357033
C117	C	0.978261	-0.505957	-0.795941
C118	C	1.478261	-0.005957	-0.295941
C119	C	0.978180	-0.506121	-0.150287
C120	C	1.478180	-0.006121	0.349713
C121	C	0.978295	-0.505853	-0.075055
C122	C	1.478295	-0.005853	0.424945
H123	H	0.364781	-0.628219	-0.404555
H124	H	0.864781	-0.128219	0.095445
H125	H	1.064772	-0.806512	-0.239622
H126	H	1.564772	-0.306512	0.260378
C127	C	0.887820	-1.119906	-0.416351
C128	C	1.387820	-0.619906	0.083649
C129	C	0.820852	-1.093292	-0.401558
C130	C	1.320852	-0.593292	0.098442
C131	C	0.777432	-1.148016	-0.444776
C132	C	1.277432	-0.648016	0.055224
H133	H	0.893955	-1.193124	-0.410211
H134	H	1.393955	-0.693124	0.089789
H135	H	0.897652	-1.101844	-0.461846
H136	H	1.397652	-0.601844	0.038154
H137	H	0.811022	-1.111361	-0.356074
H138	H	1.311022	-0.611361	0.143926
H139	H	0.814695	-1.020084	-0.407702
H140	H	1.314695	-0.520084	0.092298
H141	H	0.787264	-1.129955	-0.490271
H142	H	1.287264	-0.629955	0.009729
H143	H	0.783573	-1.221232	-0.438633
H144	H	1.283573	-0.721232	0.061367
H145	H	0.731990	-1.129960	-0.434749
H146	H	1.231990	-0.629960	0.065251
H147	H	1.143384	-0.906019	-0.161186
H148	H	1.643384	-0.406019	0.338814
H149	H	0.364736	-0.384085	-0.247759
H150	H	0.864736	0.115915	0.252241
C151	C	0.226829	-0.646379	-0.416277
C152	C	0.726829	-0.146379	0.083723
C153	C	0.157356	-0.631969	-0.407053
C154	C	0.657356	-0.131969	0.092947
C155	C	0.121888	-0.699133	-0.450247
C156	C	0.621888	-0.199133	0.049753
H157	H	0.238318	-0.716991	-0.406333
H158	H	0.738318	-0.216991	0.093667
H159	H	0.238399	-0.631087	-0.461785
H160	H	0.738399	-0.131087	0.038215
H161	H	0.145792	-0.647269	-0.361556
H162	H	0.645792	-0.147269	0.138444
H163	H	0.145847	-0.561372	-0.417002
H164	H	0.645847	-0.061372	0.082998
H165	H	0.133458	-0.683840	-0.495755
H166	H	0.633458	-0.183840	0.004245
H167	H	0.133383	-0.769740	-0.440299
H168	H	0.633383	-0.269740	0.059701
H169	H	0.074748	-0.689358	-0.443999
H170	H	0.574748	-0.189358	0.056001
H171	H	1.143464	-1.105083	-0.161221
H172	H	1.643464	-0.605083	0.338779
C173	C	1.065009	-1.234434	-0.239590
C174	C	1.565009	-0.734434	0.260410
C175	C	1.112213	-1.270727	-0.192457
C176	C	1.612213	-0.770727	0.307543
C177	C	1.112337	-1.380461	-0.192341
C178	C	1.612337	-0.880461	0.307659
H179	H	1.076721	-1.259322	-0.283245
H180	H	1.576721	-0.759322	0.216755
H181	H	1.021359	-1.259364	-0.227816
H182	H	1.521359	-0.759364	0.272184
H183	H	1.155853	-1.245807	-0.204235
H184	H	1.655853	-0.745807	0.295765
H185	H	1.100511	-1.245868	-0.148796
H186	H	1.600511	-0.745868	0.351204
H187	H	1.068687	-1.405391	-0.180566
H188	H	1.568687	-0.905391	0.319434
H189	H	1.124048	-1.405339	-0.235997
H190	H	1.624048	-0.905339	0.264003
H191	H	1.144359	-1.405100	-0.160357
H192	H	1.644359	-0.905100	0.339643
H193	H	0.899613	-0.906084	-0.404617
H194	H	1.399613	-0.406084	0.095383
C195	C	1.068573	-0.365797	-0.575043
C196	C	1.568573	0.134203	-0.075043
C197	C	1.106486	-0.306924	-0.621142
C198	C	1.606486	0.193076	-0.121142
C199	C	1.149814	-0.239610	-0.585950
C200	C	1.649814	0.260390	-0.085950
H201	H	1.098113	-0.405880	-0.547467
H202	H	1.598113	0.094120	-0.047467
H203	H	1.042702	-0.319970	-0.547483
H204	H	1.542702	0.180030	-0.047483
H205	H	1.132356	-0.352745	-0.648690
H206	H	1.632356	0.147255	-0.148690
H207	H	1.076964	-0.266819	-0.648720
H208	H	1.576964	0.233181	-0.148720
H209	H	1.123943	-0.193783	-0.558389
H210	H	1.623943	0.306217	-0.058389
H211	H	1.179349	-0.279702	-0.558374
H212	H	1.679349	0.220298	-0.058374
H213	H	1.175539	-0.199650	-0.617222
H214	H	1.675539	0.300350	-0.117222
H215	H	1.056812	-0.384097	-0.712749
H216	H	1.556812	0.115903	-0.212749
H217	H	0.720541	-0.628195	-0.404524
H218	H	1.220541	-0.128195	0.095476
H219	H	0.592260	-0.384066	-0.247750
H220	H	1.092260	0.115934	0.252250
H221	H	1.056843	-0.384020	-0.940276
H222	H	1.556843	0.115980	-0.440276
C223	C	0.582680	-0.646293	-0.416351
C224	C	1.082680	-0.146293	0.083649
C225	C	0.542139	-0.586908	-0.459822
C226	C	1.042139	-0.086908	0.040178
C227	C	0.506773	-0.654015	-0.503137
C228	C	1.006773	-0.154015	-0.003137
H229	H	0.555032	-0.692039	-0.390489
H230	H	1.055032	-0.192039	0.109511
H231	H	0.613843	-0.686342	-0.442117
H232	H	1.113843	-0.186342	0.057883
H233	H	0.510980	-0.546878	-0.434059
H234	H	1.010980	-0.046878	0.065941
H235	H	0.569770	-0.541165	-0.485699
H236	H	1.069770	-0.041165	0.014301
H237	H	0.537936	-0.694064	-0.528903
H238	H	1.037936	-0.194064	-0.028903
H239	H	0.479129	-0.699758	-0.477270
H240	H	0.979129	-0.199758	0.022730
H241	H	0.479267	-0.613732	-0.532641
H242	H	0.979267	-0.113732	-0.032641
H243	H	1.056859	-0.383973	-1.068521
H244	H	1.556859	0.116027	-0.568521
H245	H	0.899733	-0.627754	-1.068460
H246	H	1.399733	-0.127754	-0.568460
H247	H	0.899720	-0.627809	-0.940225
H248	H	1.399720	-0.127809	-0.440225
C249	C	0.729980	-0.365758	-0.235926
C250	C	1.229980	0.134242	0.264074
C251	C	0.683890	-0.306865	-0.198072
C252	C	1.183890	0.193135	0.301928
C253	C	0.719091	-0.239538	-0.154766
C254	C	1.219091	0.260462	0.345234
H255	H	0.757575	-0.319937	-0.261789
H256	H	1.257575	0.180063	0.238211
H257	H	0.757522	-0.405866	-0.206352
H258	H	1.257522	0.094134	0.293648
H259	H	0.656359	-0.266760	-0.227642
H260	H	1.156359	0.233240	0.272358
H261	H	0.656293	-0.352658	-0.172196
H262	H	1.156293	0.147342	0.327804
H263	H	0.746633	-0.279645	-0.125192
H264	H	1.246633	0.220355	0.374808
H265	H	0.746685	-0.193724	-0.180634
H266	H	1.246685	0.306276	0.319366
H267	H	0.687824	-0.199577	-0.129073
H268	H	1.187824	0.300423	0.370927
H269	H	0.899659	-0.627909	-0.584456
H270	H	1.399659	-0.127909	-0.084456
C271	C	0.227021	-0.365717	-0.236022
C272	C	0.727021	0.134283	0.263978
C273	C	0.273090	-0.306761	-0.198190
C274	C	0.773090	0.193239	0.301810
C275	C	0.237865	-0.239345	-0.154955
C276	C	0.737865	0.260655	0.345045
H277	H	0.199427	-0.405730	-0.206427
H278	H	0.699427	0.094270	0.293573
H279	H	0.199476	-0.319947	-0.261956
H280	H	0.699476	0.180053	0.238044
H281	H	0.300624	-0.352526	-0.172258
H282	H	0.800624	0.147474	0.327742
H283	H	0.300686	-0.266727	-0.227768
H284	H	0.800686	0.233273	0.272232
H285	H	0.210319	-0.193575	-0.180890
H286	H	0.710319	0.306425	0.319110
H287	H	0.210272	-0.279367	-0.125365
H288	H	0.710272	0.220633	0.374635
H289	H	0.269117	-0.199329	-0.129286
H290	H	0.769117	0.300671	0.370714
C291	C	0.888004	-0.646066	-0.722408
C292	C	1.388004	-0.146066	-0.222408
C293	C	0.897294	-0.631686	-0.791881
C294	C	1.397294	-0.131686	-0.291881
C295	C	0.854075	-0.698824	-0.827346
C296	C	1.354075	-0.198824	-0.327346
H297	H	0.842501	-0.630754	-0.710899
H298	H	1.342501	-0.130754	-0.210899
H299	H	0.897899	-0.716685	-0.710855
H300	H	1.397899	-0.216685	-0.210855
H301	H	0.887394	-0.561083	-0.803429
H302	H	1.387394	-0.061083	-0.303429
H303	H	0.942788	-0.647006	-0.803411
H304	H	1.442788	-0.147006	-0.303411
H305	H	0.863969	-0.769443	-0.815793
H306	H	1.363969	-0.269443	-0.315793
H307	H	0.808575	-0.683506	-0.815831
H308	H	1.308575	-0.183506	-0.315831
H309	H	0.860376	-0.689083	-0.874487
H310	H	1.360376	-0.189083	-0.374487
