data_functionalizedCrystal
_audit_creation_method	'MofGen! by Chris Wilmer'
_symmetry_space_group_name_H-M	'P1'
_symmetry_Int_Tables_number	1
_symmetry_cell_setting	triclinic
loop_
_symmetry_equiv_pos_as_xyz
  x,y,z
_cell_length_a	8.559649
_cell_length_b	8.559649
_cell_length_c	7.681481
_cell_angle_alpha	94.930900
_cell_angle_beta	85.086760
_cell_angle_gamma	69.778664
loop_
_atom_site_label
_atom_site_type_symbol
_atom_site_fract_x
_atom_site_fract_y
_atom_site_fract_z
O1	O	2.109661	-0.037797	0.146402
O2	O	2.609661	0.462203	0.646402
O3	O	1.634175	0.045985	0.146408
O4	O	2.134175	0.545985	0.646408
O5	O	1.913809	-0.233649	0.146402
O6	O	2.413809	0.266351	0.646402
O7	O	1.830027	0.241837	0.146407
O8	O	2.330027	0.741837	0.646407
O9	O	1.948236	-0.268136	-0.146456
O10	O	2.448236	0.231864	0.353544
O11	O	1.668602	0.011497	-0.146450
O12	O	2.168602	0.511497	0.353550
O13	O	2.144088	-0.072285	-0.146457
O14	O	2.644088	0.427715	0.353543
Zn15	Zn	1.911811	-0.035869	-0.192951
Zn16	Zn	2.411811	0.464131	0.307049
Zn17	Zn	1.866452	0.009570	0.192902
Zn18	Zn	2.366452	0.509570	0.692902
O19	O	1.864454	0.207349	-0.146451
O20	O	2.364454	0.707349	0.353549
C21	C	1.591080	0.035090	-0.000020
C22	C	2.091080	0.535090	0.499980
C23	C	1.411380	0.053990	-0.000017
C24	C	1.911380	0.553990	0.499983
C25	C	1.937371	-0.311201	-0.000024
C26	C	2.437371	0.188799	0.499976
C27	C	1.956269	-0.490899	-0.000014
C28	C	2.456269	0.009101	0.499986
C29	C	2.187183	-0.061390	-0.000025
C30	C	2.687183	0.438610	0.499975
C31	C	2.366881	-0.080288	-0.000016
C32	C	2.866881	0.419712	0.499984
C33	C	1.840891	0.284902	-0.000021
C34	C	2.340891	0.784902	0.499979
C35	C	1.821992	0.464601	-0.000019
C36	C	2.321992	0.964601	0.499981
N37	N	1.942779	-0.066883	-0.456286
N38	N	2.442779	0.433117	0.043714
N39	N	1.835499	0.040569	0.456237
N40	N	2.335499	0.540569	0.956237
H41	H	1.466259	-0.209706	-0.000009
H42	H	1.966259	0.290294	0.499991
N43	N	1.279774	0.225445	-0.000066
N44	N	1.779774	0.725445	0.499934
H45	H	1.279921	0.300855	0.108481
H46	H	1.779921	0.800855	0.608481
H47	H	1.165814	0.214984	-0.000144
H48	H	1.665814	0.714984	0.499856
N49	N	2.087863	-0.212159	-0.555895
N50	N	2.587863	0.287841	-0.055895
H51	H	2.156174	-0.280575	-0.469648
H52	H	2.656174	0.219425	0.030352
H53	H	2.160980	-0.167846	-0.632361
H54	H	2.660980	0.332154	-0.132361
H55	H	1.725988	0.150245	-0.468564
H56	H	2.225988	0.650245	0.031436
H57	H	1.692573	-0.436021	-0.000023
H58	H	2.192573	0.063979	0.499977
N59	N	2.127715	-0.622538	-0.000013
N60	N	2.627715	-0.122538	0.499987
H61	H	2.214633	-0.567313	-0.000007
H62	H	2.714633	-0.067313	0.499993
H63	H	2.154299	-0.706987	-0.108588
H64	H	2.654299	-0.206987	0.391412
