data_functionalizedCrystal
_audit_creation_method	'MofGen! by Chris Wilmer'
_symmetry_space_group_name_H-M	'P1'
_symmetry_Int_Tables_number	1
_symmetry_cell_setting	triclinic
loop_
_symmetry_equiv_pos_as_xyz
  x,y,z
_cell_length_a	17.699104
_cell_length_b	15.500227
_cell_length_c	17.699083
_cell_angle_alpha	87.178547
_cell_angle_beta	96.712734
_cell_angle_gamma	87.159343
loop_
_atom_site_label
_atom_site_type_symbol
_atom_site_fract_x
_atom_site_fract_y
_atom_site_fract_z
O1	O	-1.007595	0.071980	0.092265
O2	O	-0.787218	0.071975	0.104701
O3	O	-0.903632	0.071970	-0.011706
O4	O	-0.891181	0.071985	0.208671
O5	O	-0.896568	-0.071919	-0.004669
O6	O	-0.780154	-0.071914	0.111737
O7	O	-1.000530	-0.071908	0.099301
Cu8	Cu	-0.889697	-0.085049	0.106161
Cu9	Cu	-0.898052	0.085115	0.097840
O10	O	-0.884116	-0.071904	0.215707
C11	C	-0.755489	0.000030	0.107771
C12	C	-0.671472	0.000027	0.106426
C13	C	-0.146601	0.000032	0.167170
C14	C	-0.225545	0.000036	0.168428
C15	C	-0.274162	0.000031	0.100093
C16	C	-0.243833	0.000032	0.030495
C17	C	-0.164890	0.000035	0.029236
C18	C	-0.562198	0.000024	0.035568
C19	C	-0.641145	0.000019	0.036832
C20	C	-0.622853	0.000025	0.174760
C21	C	-0.543911	0.000027	0.173502
C22	C	-0.513588	0.000033	0.103903
C23	C	-0.427988	0.000030	0.102539
C24	C	-0.359761	0.000028	0.101457
N25	N	-0.883827	-0.204734	0.112013
C26	C	-0.933173	-0.250013	0.062706
C27	C	-0.928740	-0.340585	0.067139
C28	C	-0.874964	-0.385878	0.120883
C29	C	-0.825613	-0.340593	0.170193
C30	C	-0.830043	-0.250022	0.165756
C31	C	-0.859007	-0.659344	0.136855
C32	C	-0.854582	-0.749921	0.141290
C33	C	-0.957708	-0.749908	0.038234
C34	C	-0.962136	-0.659335	0.033805
C35	C	-0.912783	-0.614058	0.083112
C36	C	-0.870434	-0.478457	0.125417
C37	C	-0.917310	-0.521480	0.078574
C38	C	-0.032259	0.000034	0.096231
C39	C	-0.116276	0.000030	0.097576
C40	C	-0.899654	0.000026	-0.036385
C41	C	-0.898315	0.000025	-0.120403
N42	N	-0.903928	0.204800	0.091982
C43	C	-0.966648	0.000026	-0.169019
C44	C	-0.965386	0.000033	-0.247962
C45	C	-0.895790	0.000034	-0.278288
C46	C	-0.827453	0.000036	-0.229666
C47	C	-0.828716	0.000035	-0.150725
C48	C	-0.822358	0.000043	-0.548030
C49	C	-0.821100	0.000042	-0.626978
C50	C	-0.959028	0.000042	-0.645268
C51	C	-0.960291	0.000040	-0.566326
C52	C	-0.891954	0.000047	-0.517711
C53	C	-0.893323	0.000040	-0.432112
C54	C	-0.894420	0.000035	-0.363886
C55	C	-0.888095	0.000043	0.240386
C56	C	-0.889434	0.000049	0.324404
H57	H	-0.537520	0.000026	-0.021103
C58	C	-0.051997	0.000042	-0.033938
C59	C	-0.131553	0.000033	-0.047263
H60	H	-0.031420	0.000050	-0.081168
H61	H	-0.032841	-0.050131	-0.003362
H62	H	-0.037779	0.050224	-0.008258
H63	H	-0.145772	-0.050152	-0.072938
H64	H	-0.150716	0.050211	-0.077851
H65	H	-0.107021	0.000028	0.222816
C66	C	-0.757922	0.000043	-0.739871
C67	C	-0.744595	0.000050	-0.660315
H68	H	-0.710693	0.000042	-0.760451
H69	H	-0.788516	0.050214	-0.759012
H70	H	-0.783585	-0.050141	-0.754104
H71	H	-0.718937	0.050237	-0.646082
H72	H	-0.713989	-0.050126	-0.641168
H73	H	-0.968920	-0.377451	0.026989
H74	H	-1.005924	-0.622460	-0.009958
H75	H	-0.781824	-0.377475	0.213950
C76	C	-1.034656	-0.259106	-0.038719
C77	C	-0.992284	-0.200232	0.003626
H78	H	-1.071144	-0.228373	-0.075197
H79	H	-1.060092	-0.294414	-0.005516
H80	H	-1.001466	-0.294449	-0.064171
H81	H	-1.025473	-0.164892	0.029084
H82	H	-0.966846	-0.164908	-0.029581
H83	H	-0.997889	-0.786780	-0.001910
C84	C	-1.095500	0.000036	-0.655417
C85	C	-1.034150	0.000044	-0.698708
H86	H	-1.141874	0.000030	-0.688408
H87	H	-1.095588	0.050208	-0.626697
H88	H	-1.090650	-0.050147	-0.621794
H89	H	-1.038996	0.050230	-0.732327
H90	H	-1.034063	-0.050134	-0.727441
C91	C	-0.237864	0.074008	0.282768
C92	C	-0.258865	0.000040	0.244935
H93	H	-0.258426	0.074008	0.330006
H94	H	-0.257030	0.124174	0.252188
H95	H	-0.183889	0.073995	0.291779
H96	H	-0.312839	0.000056	0.235919
H97	H	-0.239701	-0.050139	0.275521
H98	H	-1.021030	0.000032	-0.287543
H99	H	-0.810789	-0.786794	0.185058
C100	C	-1.018803	-0.530562	-0.022848
C101	C	-0.976419	-0.471698	0.019498
H102	H	-1.055292	-0.499821	-0.059320
H103	H	-1.044239	-0.565870	0.010355
H104	H	-0.985620	-0.565906	-0.048308
H105	H	-1.009601	-0.436358	0.044962
H106	H	-0.950982	-0.436374	-0.013710
H107	H	-0.826650	-0.515342	0.169178
C108	C	-1.045356	0.074008	-0.491771
C109	C	-1.036792	0.000042	-0.532991
H110	H	-1.092583	0.074007	-0.471189
H111	H	-1.044462	0.124175	-0.524638
H112	H	-1.004834	0.073996	-0.451520
H113	H	-1.077311	0.000057	-0.573245
H114	H	-1.037693	-0.050138	-0.500121
C115	C	-0.713133	0.074012	-0.241999
C116	C	-0.750952	0.000042	-0.263002
H117	H	-0.665907	0.074015	-0.262582
H118	H	-0.704105	0.074005	-0.188032
H119	H	-0.743737	0.124182	-0.261150
H120	H	-0.720351	-0.050129	-0.243845
H121	H	-0.759978	0.000040	-0.316979
H122	H	-0.766713	0.000048	-0.508457
H123	H	-1.023321	0.000020	-0.144334
H124	H	-0.773072	0.000035	-0.111142
H125	H	-0.504329	0.000026	0.229148
C126	C	-0.651304	0.000038	-0.099644
C127	C	-0.694589	0.000026	-0.038288
H128	H	-0.684300	0.000048	-0.146016
H129	H	-0.617670	-0.050135	-0.094823
H130	H	-0.622597	0.050220	-0.099710
H131	H	-0.723292	-0.050159	-0.038219
H132	H	-0.728236	0.050204	-0.043111
H133	H	-0.647551	0.000025	0.231431
H134	H	-0.283424	0.000034	-0.025145
H135	H	-0.818822	-0.622486	0.177004
H136	H	-0.789860	-0.213157	0.205906
