data_functionalizedCrystal
_audit_creation_method	'MofGen! by Chris Wilmer'
_symmetry_space_group_name_H-M	'P1'
_symmetry_Int_Tables_number	1
_symmetry_cell_setting	triclinic
loop_
_symmetry_equiv_pos_as_xyz
  x,y,z
_cell_length_a	12.837943
_cell_length_b	10.540535
_cell_length_c	11.892095
_cell_angle_alpha	93.927051
_cell_angle_beta	85.689438
_cell_angle_gamma	89.676291
loop_
_atom_site_label
_atom_site_type_symbol
_atom_site_fract_x
_atom_site_fract_y
_atom_site_fract_z
O1	O	1.384468	0.322966	-0.093990
O2	O	1.082542	0.306650	-0.093997
O3	O	1.240395	0.130859	-0.093982
O4	O	1.226615	0.498757	-0.094005
O5	O	1.227233	0.145491	0.094024
O6	O	1.069380	0.321282	0.094010
O7	O	1.371306	0.337598	0.094016
Zn8	Zn	1.218253	0.331763	0.123863
Zn9	Zn	1.235594	0.312485	-0.123844
O10	O	1.213453	0.513389	0.094001
C11	C	1.037300	0.308454	0.000006
C12	C	0.922101	0.292016	0.000004
C13	C	0.682603	0.489635	0.000008
C14	C	0.574363	0.474195	0.000007
C15	C	0.597379	0.245699	0.000009
C16	C	0.705619	0.261139	0.000010
C17	C	0.748227	0.383110	0.000008
C18	C	0.856469	0.398548	0.000000
C19	C	0.879483	0.170053	0.000011
C20	C	0.771243	0.154614	0.000010
C21	C	1.232781	0.090758	0.000022
C22	C	1.229692	-0.050529	0.000023
C23	C	1.114440	-0.099863	0.000013
C24	C	1.111221	-0.246855	-0.000434
C25	C	1.289806	-0.262415	-0.107153
C26	C	1.292263	-0.115386	-0.107223
C27	C	1.278972	-0.098700	0.106583
C28	C	1.273545	-0.245524	0.107971
C29	C	1.416548	0.335793	0.000011
C30	C	1.531747	0.352231	0.000005
C31	C	1.221067	0.553489	-0.000005
C32	C	1.224157	0.694776	-0.000014
N33	N	1.206426	0.344920	0.292916
N34	N	1.247430	0.299318	-0.292897
C35	C	1.329729	0.207692	0.529575
C36	C	1.321469	0.216899	0.647916
C37	C	1.181643	0.372533	0.647941
C38	C	1.189903	0.363326	0.529600
C39	C	1.263949	0.280905	0.470421
C40	C	1.272213	0.271705	0.352078
C41	C	1.132383	0.427332	0.352105
C42	C	1.124123	0.436539	0.470446
H43	H	0.717295	0.588948	0.000004
H44	H	0.891158	0.497863	0.000000
H45	H	1.332507	0.204597	0.303895
H46	H	1.078823	0.486950	0.303929
H47	H	1.375032	0.157281	0.696076
O48	O	1.404595	-0.073029	-0.113278
H49	H	1.446312	-0.115997	-0.191990
H50	H	0.562662	0.146403	0.000104
H51	H	0.520935	0.560939	0.000010
H52	H	0.736535	0.055309	0.000025
O53	O	1.400325	-0.313411	-0.112050
H54	H	1.399049	-0.418894	-0.115831
H55	H	0.932926	0.083313	0.000003
O56	O	1.244424	-0.317409	-0.213204
H57	H	1.220811	-0.238914	-0.263844
H58	H	1.363693	-0.067107	0.107629
H59	H	1.060360	-0.275221	0.076345
H60	H	1.390027	0.140590	0.481391
H61	H	1.064804	-0.056784	0.076837
O62	O	1.044272	0.525448	0.534276
H63	H	0.989684	0.470043	0.588215
H64	H	1.076294	-0.067150	-0.076708
O65	O	1.058440	-0.299103	-0.102771
H66	H	1.035129	-0.219358	-0.152142
O67	O	1.247684	-0.076156	-0.213707
H68	H	1.295388	-0.119182	-0.288521
O69	O	1.223804	-0.039342	0.214203
H70	H	1.160637	0.025162	0.192938
H71	H	1.225680	-0.272618	0.187235
O72	O	1.382199	-0.297610	0.116883
H73	H	1.402782	-0.367187	0.044171
H74	H	1.121350	0.439630	0.696140
