data_functionalizedCrystal
_audit_creation_method	'MofGen! by Chris Wilmer'
_symmetry_space_group_name_H-M	'P1'
_symmetry_Int_Tables_number	1
_symmetry_cell_setting	triclinic
loop_
_symmetry_equiv_pos_as_xyz
  x,y,z
_cell_length_a	21.295417
_cell_length_b	21.295420
_cell_length_c	12.759393
_cell_angle_alpha	89.978304
_cell_angle_beta	89.960780
_cell_angle_gamma	90.026289
loop_
_atom_site_label
_atom_site_type_symbol
_atom_site_fract_x
_atom_site_fract_y
_atom_site_fract_z
Zn1	Zn	-0.250643	0.962337	-0.594017
Zn2	Zn	-0.355927	0.962245	-0.418313
Zn3	Zn	-0.250668	0.857066	-0.418346
Zn4	Zn	-0.355870	0.857030	-0.593945
O5	O	-0.303277	0.909670	-0.506155
O6	O	-0.264622	1.050414	-0.570726
O7	O	-0.341998	0.948269	-0.271297
O8	O	-0.162575	0.871084	-0.441693
O9	O	-0.341974	1.050347	-0.441637
O10	O	-0.162557	0.948427	-0.570757
O11	O	-0.264665	0.870995	-0.271321
O12	O	-0.264610	0.768972	-0.441623
O13	O	-0.341877	0.871023	-0.740976
O14	O	-0.341902	0.768945	-0.570635
O15	O	-0.264567	0.948392	-0.741028
O16	O	-0.444009	0.948234	-0.441568
O17	O	-0.443967	0.870933	-0.570603
C18	C	-0.303253	0.746118	-0.506126
C19	C	-0.303258	0.676150	-0.506138
C20	C	-0.263095	0.176727	-0.573497
C21	C	-0.263090	0.242469	-0.573496
C22	C	-0.303296	0.275310	-0.506180
C23	C	-0.343521	0.242404	-0.438877
C24	C	-0.343529	0.176663	-0.438887
N25	N	-0.308048	0.378503	-0.414185
N26	N	-0.308037	0.440955	-0.414179
C27	C	-0.303275	0.473385	-0.506149
N28	N	-0.298513	0.441005	-0.598127
N29	N	-0.298521	0.378548	-0.598132
C30	C	-0.303292	0.346596	-0.506162
C31	C	-0.263051	0.577569	-0.573452
C32	C	-0.263050	0.643313	-0.573454
C33	C	-0.343478	0.643247	-0.438825
C34	C	-0.343482	0.577504	-0.438833
C35	C	-0.303265	0.544669	-0.506145
C36	C	-0.466828	0.909587	-0.506097
C37	C	-0.536797	0.909609	-0.506107
C38	C	-0.569664	0.949896	-0.438987
C39	C	-0.635406	0.949925	-0.439011
C40	C	-0.668279	0.909657	-0.506144
C41	C	-0.635404	0.869368	-0.573277
C42	C	-0.569662	0.869344	-0.573259
N43	N	-0.771540	0.854590	-0.514143
N44	N	-0.833992	0.854614	-0.514154
C45	C	-0.866354	0.909728	-0.506204
N46	N	-0.833905	0.964817	-0.498222
N47	N	-0.771448	0.964792	-0.498205
C48	C	-0.739564	0.909679	-0.506171
C49	C	-0.970507	0.950049	-0.439106
C50	C	-1.036250	0.950080	-0.439137
C51	C	-1.036246	0.869517	-0.573397
C52	C	-0.970504	0.869492	-0.573372
C53	C	-0.937638	0.909757	-0.506220
C54	C	-0.139086	0.909770	-0.506237
C55	C	-0.069118	0.909812	-0.506271
C56	C	-0.303213	0.909714	-0.780189
C57	C	-0.303186	0.909732	-0.896965
C58	C	-0.303301	1.073860	-0.506186
C59	C	-0.303312	1.143828	-0.506199
C60	C	-0.262911	0.869510	-0.951840
C61	C	-0.262892	0.869524	-1.061564
C62	C	-0.343424	0.949990	-1.061530
C63	C	-0.343446	0.949971	-0.951808
C64	C	-0.240358	0.795324	-1.211515
C65	C	-0.200073	0.755107	-1.266392
C66	C	-0.138656	0.745475	-1.230816
C67	C	-0.117511	0.776069	-1.140363
C68	C	-0.157792	0.816291	-1.085491
C69	C	-0.219218	0.825911	-1.121066
C70	C	-0.365974	1.024172	-0.801855
C71	C	-0.406252	1.064398	-0.746981
C72	C	-0.467670	1.074036	-0.782555
C73	C	-0.488813	1.043453	-0.873012
C74	C	-0.448534	1.003228	-0.927886
C75	C	-0.387117	0.993588	-0.892304
C76	C	-0.303295	0.909662	-0.233188
C77	C	-0.303145	0.909765	-0.116412
H78	H	-0.230303	0.550834	-0.628262
C79	C	-0.218866	0.140609	-0.647547
H80	H	-0.224627	0.096743	-0.637912
H81	H	-0.228125	0.151402	-0.718106
H82	H	-0.176556	0.151392	-0.632290
H83	H	-0.943746	0.982838	-0.384430
C84	C	-0.533515	0.994193	-0.365136
H85	H	-0.562509	1.018195	-0.325172
H86	H	-0.507909	0.970122	-0.319315
H87	H	-0.507830	1.021602	-0.405370
H88	H	-1.063010	0.982890	-0.384482
C89	C	-0.218808	0.679502	-0.647484
H90	H	-0.194855	0.650529	-0.687563
H91	H	-0.242912	0.705152	-0.693191
H92	H	-0.191352	0.705146	-0.607361
C93	C	-0.094342	0.701238	-1.291175
H94	H	-0.054732	0.699887	-1.257038
H95	H	-0.111925	0.660250	-1.293013
H96	H	-0.089025	0.716294	-1.360714
H97	H	-0.230129	0.836745	-0.907190
C98	C	-0.387705	0.679364	-0.364779
H99	H	-0.381939	0.723230	-0.374408
H100	H	-0.430011	0.668579	-0.380028
H101	H	-0.378442	0.668575	-0.294214
C102	C	-0.556372	1.054052	-0.912154
H103	H	-0.563192	1.030080	-0.973890
H104	H	-0.585256	1.041290	-0.859520
H105	H	-0.562341	1.097330	-0.927219
H106	H	-0.217295	0.730198	-1.340039
H107	H	-0.230337	0.269260	-0.628297
C108	C	-0.049938	0.765503	-1.101270
H109	H	-0.028975	0.737172	-1.146909
H110	H	-0.028147	0.804431	-1.100262
H111	H	-0.051003	0.748383	-1.032527
H112	H	-0.140575	0.841203	-1.011850
C113	C	-0.387745	0.278526	-0.364828
H114	H	-0.381975	0.322392	-0.374452
H115	H	-0.430052	0.267744	-0.380076
H116	H	-0.378482	0.267734	-0.294264
H117	H	-0.376228	0.550718	-0.384027
C118	C	-0.298450	1.013474	-0.762610
H119	H	-0.277504	0.985104	-0.808204
H120	H	-0.276561	1.052346	-0.761495
H121	H	-0.299642	0.996335	-0.693886
C122	C	-0.387766	0.140473	-0.364849
H123	H	-0.411709	0.169445	-0.324752
H124	H	-0.415222	0.114825	-0.404956
H125	H	-0.363651	0.114826	-0.319143
C126	C	-0.671568	0.994237	-0.365168
H127	H	-0.642579	1.018210	-0.325168
H128	H	-0.697174	1.021662	-0.405397
H129	H	-0.697253	0.970170	-0.319364
H130	H	-0.662173	0.836582	-0.627938
C131	C	-0.533507	0.825024	-0.647088
H132	H	-0.562498	0.801042	-0.687072
H133	H	-0.507815	0.849078	-0.692891
H134	H	-0.507908	0.797596	-0.606839
C135	C	-1.072398	0.825226	-0.647247
H136	H	-1.116259	0.831008	-0.637643
H137	H	-1.061578	0.834412	-0.717847
H138	H	-1.061669	0.782928	-0.631799
H139	H	-0.290371	0.803156	-1.240482
C140	C	-0.934348	0.825168	-0.647191
H141	H	-0.963340	0.801186	-0.687171
H142	H	-0.908657	0.849221	-0.692999
H143	H	-0.908748	0.797743	-0.606941
H144	H	-0.376202	0.982751	-1.106196
H145	H	-0.389030	1.089306	-0.673335
C146	C	-0.471790	0.969587	-1.027388
H147	H	-0.514139	0.981085	-1.040717
H148	H	-0.446337	0.981480	-1.085259
H149	H	-0.469250	0.925439	-1.017562
C150	C	-0.511976	1.118285	-0.722195
H151	H	-0.490590	1.135120	-0.663226
H152	H	-0.524883	1.151531	-0.766906
H153	H	-0.547786	1.095491	-0.699197
