data_functionalizedCrystal
_audit_creation_method	'MofGen! by Chris Wilmer'
_symmetry_space_group_name_H-M	'P1'
_symmetry_Int_Tables_number	1
_symmetry_cell_setting	triclinic
loop_
_symmetry_equiv_pos_as_xyz
  x,y,z
_cell_length_a	13.635800
_cell_length_b	13.212940
_cell_length_c	17.982968
_cell_angle_alpha	90.229545
_cell_angle_beta	102.451960
_cell_angle_gamma	73.700541
loop_
_atom_site_label
_atom_site_type_symbol
_atom_site_fract_x
_atom_site_fract_y
_atom_site_fract_z
V1	V	2.011390	-0.145390	0.227533
O2	O	2.001253	0.005981	0.233438
O3	O	1.990944	-0.287316	0.216132
O4	O	1.984596	-0.143595	0.331260
O5	O	2.007644	-0.138736	0.117514
V6	V	2.253054	-0.127232	0.215570
O7	O	2.142234	-0.185221	0.253776
O8	O	2.347309	-0.087402	0.189328
O9	O	2.161897	0.014694	0.226971
O10	O	2.321890	-0.278603	0.209665
O11	O	2.315498	-0.133886	0.325590
O12	O	2.168244	-0.129027	0.111843
V13	V	2.511390	-0.145390	0.227533
O14	O	2.501253	0.005981	0.233438
O15	O	2.490944	-0.287316	0.216132
O16	O	2.484596	-0.143595	0.331260
O17	O	2.507644	-0.138736	0.117514
V18	V	2.753054	-0.127232	0.215570
O19	O	2.642234	-0.185221	0.253776
O20	O	2.847309	-0.087402	0.189328
O21	O	2.661897	0.014694	0.226971
O22	O	2.821890	-0.278603	0.209665
O23	O	2.815498	-0.133886	0.325590
O24	O	2.668244	-0.129027	0.111843
C25	C	1.914441	-0.321901	0.210002
C26	C	1.938350	-0.437931	0.201372
C27	C	2.020885	-0.686351	0.322618
C28	C	2.043350	-0.795372	0.314512
C29	C	2.005740	-0.764995	0.177056
C30	C	1.983274	-0.655974	0.185161
C31	C	1.990850	-0.616657	0.257945
C32	C	1.968391	-0.507634	0.266050
C33	C	1.930774	-0.477259	0.128594
C34	C	1.953240	-0.586279	0.120488
C35	C	1.906344	-0.138569	0.356859
C36	C	1.925104	-0.138041	0.441591
C37	C	2.070070	0.049273	0.233099
C38	C	2.035781	0.165302	0.241734
C39	C	2.078168	-0.134057	0.086241
C40	C	2.049027	-0.134580	0.001508
C41	C	2.414441	-0.321901	0.210002
C42	C	2.438350	-0.437931	0.201372
C43	C	2.406344	-0.138569	0.356859
C44	C	2.425104	-0.138041	0.441591
C45	C	2.025015	-0.143023	0.484920
C46	C	2.042636	-0.142525	0.564535
C47	C	1.960345	-0.137054	0.600820
C48	C	1.860425	-0.132068	0.557485
C49	C	1.842803	-0.132558	0.477872
C50	C	1.931486	-0.130091	0.878558
C51	C	1.949116	-0.129605	0.958178
C52	C	2.131319	-0.140059	0.965221
C53	C	2.113697	-0.140549	0.885608
C54	C	2.013778	-0.135558	0.842280
C55	C	1.994672	-0.136095	0.755952
C56	C	1.979451	-0.136524	0.687146
C57	C	2.570070	0.049273	0.233099
C58	C	2.535781	0.165302	0.241734
C59	C	2.578168	-0.134057	0.086241
C60	C	2.549027	-0.134580	0.001508
C61	C	2.540692	-0.497757	0.200758
C62	C	2.563174	-0.606782	0.192660
C63	C	2.483312	-0.655978	0.185171
C64	C	2.380962	-0.596144	0.185788
C65	C	2.358483	-0.487122	0.193891
C66	C	2.525020	-0.143012	0.484906
C67	C	2.542658	-0.142502	0.564521
C68	C	2.460379	-0.137028	0.600820
C69	C	2.360454	-0.132052	0.557499
C70	C	2.342816	-0.132555	0.477885
C71	C	2.605932	0.225128	0.242350
C72	C	2.573722	0.334152	0.250451
C73	C	2.471362	0.383348	0.257942
C74	C	2.401204	0.323514	0.257323
C75	C	2.433413	0.214493	0.249217
C76	C	2.449075	-0.140042	-0.034771
C77	C	2.421676	-0.140522	-0.114386
C78	C	2.494234	-0.135546	-0.157722
C79	C	2.594194	-0.130079	-0.121438
C80	C	2.621589	-0.129593	-0.041824
H81	H	1.974571	-0.475625	0.325314
H82	H	2.646517	-0.655484	0.192158
C83	C	2.029219	-0.643098	0.402674
H84	H	2.050321	-0.700221	0.440031
H85	H	2.079518	-0.604608	0.410890
H86	H	1.962946	-0.597792	0.406493
C87	C	2.293119	-0.650263	0.177543
H88	H	2.228942	-0.599025	0.179072
H89	H	2.286081	-0.682854	0.130271
H90	H	2.310135	-0.702290	0.218208
C91	C	2.245899	-0.421321	0.194552
H92	H	2.201561	-0.466240	0.188922
H93	H	2.245357	-0.388277	0.241532
H94	H	2.221313	-0.368862	0.153594
H95	H	2.474755	-0.136620	0.665647
C96	C	2.152538	-0.148012	0.612196
H97	H	2.151247	-0.146925	0.664808
H98	H	2.201386	-0.211420	0.603342
H99	H	2.172777	-0.089056	0.597850
H100	H	2.092030	-0.147485	0.455383
H101	H	2.702983	-0.125150	-0.012293
H102	H	2.689284	0.185088	0.236252
C103	C	2.232908	-0.127103	0.430247
H104	H	2.186443	-0.123783	0.463274
H105	H	2.207916	-0.065909	0.396289
H106	H	2.236556	-0.188274	0.401801
C107	C	2.356242	0.148693	0.248553
H108	H	2.290674	0.193612	0.254184
H109	H	2.346952	0.115653	0.201571
H110	H	2.383482	0.096231	0.289509
H111	H	1.906319	-0.420501	0.075932
H112	H	2.605732	-0.457716	0.206850
C113	C	2.615536	-0.149029	0.444992
H114	H	2.677560	-0.151905	0.482200
H115	H	2.626764	-0.210619	0.416830
H116	H	2.598132	-0.088254	0.411333
H117	H	2.624029	-0.146558	0.599783
H118	H	2.180710	-0.145010	0.856069
C119	C	2.650908	0.399947	0.251138
H120	H	2.716485	0.355025	0.245529
H121	H	2.623687	0.452416	0.210191
H122	H	2.660185	0.432977	0.298129
C123	C	2.369246	-0.145507	0.012884
H124	H	2.305793	-0.148815	-0.020135
H125	H	2.396856	-0.206709	0.046835
H126	H	2.355817	-0.084344	0.041340
C127	C	2.311726	-0.146550	-0.154283
H128	H	2.272450	-0.149463	-0.117066
H129	H	2.276911	-0.085781	-0.187936
H130	H	2.317991	-0.208144	-0.182448
H131	H	2.067803	-0.852114	0.367176
H132	H	2.501630	-0.744751	0.178574
C133	C	2.464093	-0.136094	-0.245294
H134	H	2.394174	-0.140072	-0.260687
H135	H	2.469222	-0.073103	-0.267361
H136	H	2.510280	-0.195467	-0.261858
H137	H	2.653263	-0.126025	-0.156734
H138	H	2.317860	0.363586	0.263423
H139	H	1.999571	-0.797026	0.117799
H140	H	2.293468	-0.127595	0.587066
C141	C	1.944915	-0.629536	0.040434
H142	H	1.962602	-0.704447	0.044868
H143	H	1.875226	-0.602016	0.011319
H144	H	1.991803	-0.608841	0.015729
H145	H	2.212679	-0.144119	1.000508
C146	C	1.858610	-0.123665	0.998094
H147	H	1.796581	-0.120778	0.960889
H148	H	1.876054	-0.184464	1.031729
H149	H	1.847357	-0.062095	1.026284
H150	H	1.793422	-0.127607	0.587035
C151	C	1.821584	-0.124615	0.830908
H152	H	1.775105	-0.121299	0.863924
H153	H	1.796609	-0.063411	0.796960
H154	H	1.825232	-0.185775	0.802451
H155	H	2.445148	0.472121	0.264542
H156	H	1.761440	-0.128475	0.442593
