data_functionalizedCrystal
_audit_creation_method	'MofGen! by Chris Wilmer'
_symmetry_space_group_name_H-M	'P1'
_symmetry_Int_Tables_number	1
_symmetry_cell_setting	triclinic
loop_
_symmetry_equiv_pos_as_xyz
  x,y,z
_cell_length_a	19.288864
_cell_length_b	23.532407
_cell_length_c	18.366186
_cell_angle_alpha	89.989089
_cell_angle_beta	89.977106
_cell_angle_gamma	82.992461
loop_
_atom_site_label
_atom_site_type_symbol
_atom_site_fract_x
_atom_site_fract_y
_atom_site_fract_z
O1	O	0.921134	0.071045	-0.060790
O2	O	0.718843	0.080629	-0.060742
O3	O	0.826089	-0.007082	-0.060754
O4	O	0.813889	0.158756	-0.060778
O5	O	0.826071	-0.007086	0.060345
O6	O	0.718825	0.080625	0.060358
O7	O	0.921116	0.071041	0.060309
Zn8	Zn	0.819968	0.075832	0.079560
Zn9	Zn	0.819991	0.075838	-0.079993
O10	O	0.813870	0.158752	0.060321
C11	C	0.692959	0.080319	-0.000186
C12	C	0.615858	0.079393	-0.000166
C13	C	0.825769	-0.028301	-0.000203
C14	C	0.824835	-0.091520	-0.000197
C15	C	0.571003	0.130858	-0.000185
C16	C	0.498559	0.129988	-0.000193
C17	C	0.470973	0.077651	-0.000197
C18	C	0.515838	0.026179	-0.000174
C19	C	0.588280	0.027050	-0.000159
C20	C	0.362844	0.036509	-0.042642
C21	C	0.290402	0.035640	-0.042662
C22	C	0.247535	0.074961	-0.000240
C23	C	0.277118	0.115162	0.042191
C24	C	0.349561	0.116033	0.042206
C25	C	0.392422	0.076700	-0.000213
C26	C	0.124127	0.125487	-0.000267
C27	C	0.051682	0.124615	-0.000270
C28	C	0.068962	0.020805	-0.000258
C29	C	0.141406	0.021678	-0.000248
C30	C	0.168984	0.074021	-0.000255
C31	C	0.882442	-0.490503	-0.000251
C32	C	0.881574	-0.549905	-0.000256
O33	O	0.934976	-0.586539	-0.000296
N34	N	0.817817	-0.572664	-0.000240
C35	C	0.754923	-0.536017	-0.000226
O36	O	0.700613	-0.560829	-0.000214
C37	C	0.755792	-0.476616	-0.000226
C38	C	0.819553	-0.453861	-0.000235
C39	C	0.946198	-0.467748	-0.000260
C40	C	0.947065	-0.408350	-0.000253
C41	C	0.884177	-0.371707	-0.000237
C42	C	0.820420	-0.394463	-0.000228
C43	C	0.692899	-0.439970	-0.000217
C44	C	0.693773	-0.380565	-0.000218
C45	C	0.757534	-0.357810	-0.000226
C46	C	0.758399	-0.298422	-0.000205
N47	N	0.822156	-0.275664	-0.000221
C48	C	0.885045	-0.312307	-0.000237
C49	C	0.753104	-0.660763	-0.000228
C50	C	0.752235	-0.720163	-0.000223
C51	C	0.878886	-0.734047	-0.000254
C52	C	0.879755	-0.674647	-0.000254
C53	C	0.816861	-0.638005	-0.000244
C54	C	0.886862	-0.187566	-0.000222
C55	C	0.887724	-0.128162	-0.000213
C56	C	0.761073	-0.114283	-0.000185
C57	C	0.760211	-0.173681	-0.000191
C58	C	0.823111	-0.210322	-0.000212
O59	O	0.705025	-0.261754	-0.000168
O60	O	0.939346	-0.287486	-0.000259
C61	C	0.947000	0.071351	-0.000249
C62	C	1.024101	0.072277	-0.000273
C63	C	0.814190	0.179971	-0.000232
C64	C	0.815124	0.243190	-0.000242
N65	N	0.819956	0.075828	0.188452
N66	N	0.820008	0.075837	-0.188884
C67	C	0.867460	0.037009	0.226546
C68	C	0.867464	0.037006	0.302774
C69	C	0.819972	0.075833	0.340904
C70	C	0.772459	0.114655	0.302800
C71	C	0.772452	0.114653	0.226574
C72	C	0.810514	0.127724	0.461659
C73	C	0.810526	0.127727	0.537884
C74	C	0.819991	0.075840	0.576012
C75	C	0.829459	0.023947	0.537906
C76	C	0.829451	0.023945	0.461679
C77	C	0.819975	0.075839	0.423559
C78	C	0.867502	0.037014	0.696762
C79	C	0.867502	0.037011	0.772991
C80	C	0.772500	0.114665	0.773015
C81	C	0.772497	0.114663	0.696788
C82	C	0.820002	0.075839	0.658665
H83	H	0.593452	0.173479	-0.000193
C84	C	1.017203	-0.383327	-0.000276
H85	H	1.054528	-0.413664	-0.000295
H86	H	1.020180	-0.360449	0.041951
H87	H	1.020179	-0.360441	-0.042515
C88	C	0.919706	-0.005703	0.184616
H89	H	0.947993	-0.028826	0.218226
H90	H	0.948472	0.014720	0.154855
H91	H	0.894877	-0.029362	0.154905
H92	H	0.642556	-0.350733	-0.000211
H93	H	0.373644	0.148763	0.076758
C94	C	0.190752	-0.034933	-0.000238
H95	H	0.237846	-0.026918	-0.000223
H96	H	0.182452	-0.056400	-0.042467
H97	H	0.182406	-0.056403	0.041998
C98	C	0.622760	-0.464987	-0.000214
H99	H	0.585437	-0.434649	-0.000214
H100	H	0.619770	-0.487878	0.042013
H101	H	0.619797	-0.487860	-0.042453
C102	C	0.690076	-0.198713	-0.000184
H103	H	0.652746	-0.168380	-0.000178
H104	H	0.687091	-0.221610	0.042039
H105	H	0.687116	-0.221582	-0.042427
H106	H	0.733818	0.146276	0.665769
C107	C	0.691901	-0.073969	-0.000172
H108	H	0.701555	-0.035334	-0.000178
H109	H	0.665725	-0.080853	0.042060
H110	H	0.665752	-0.080843	-0.042406
H111	H	0.837166	-0.018304	0.568948
H112	H	0.733789	0.146267	0.333850
C113	C	0.919760	-0.005691	0.814895
H114	H	0.948053	-0.028809	0.781271
H115	H	0.894948	-0.029350	0.844652
H116	H	0.948531	0.014744	0.844610
H117	H	0.462031	0.171898	-0.000206
H118	H	0.906182	0.005399	0.665721
C119	C	0.002338	0.181228	-0.000292
H120	H	-0.044757	0.173214	-0.000291
H121	H	0.010683	0.202695	-0.042525
H122	H	0.010638	0.202698	0.041940
C123	C	0.839854	-0.033130	0.419763
H124	H	0.845588	-0.064033	0.453381
H125	H	0.880243	-0.034334	0.389923
H126	H	0.800135	-0.036239	0.390132
C127	C	0.919721	-0.005693	0.344691
H128	H	0.912919	-0.000133	0.395548
H129	H	0.966030	0.000398	0.332172
H130	H	0.912443	-0.043692	0.332218
H131	H	0.733828	0.146276	0.804060
C132	C	0.800117	0.184805	0.579793
H133	H	0.794467	0.215707	0.546170
H134	H	0.839785	0.187886	0.609505
H135	H	0.759666	0.186041	0.609552
H136	H	0.802794	0.169979	0.430621
H137	H	0.938081	-0.217393	-0.000242
H138	H	0.733768	0.146265	0.195556
H139	H	0.242217	0.147181	0.076735
C140	C	0.957864	-0.103135	-0.000226
H141	H	0.995192	-0.133469	-0.000245
H142	H	0.960833	-0.080260	0.042004
H143	H	0.960841	-0.080245	-0.042461
H144	H	0.046503	-0.021810	-0.000307
C145	C	1.015382	-0.508046	-0.000272
H146	H	1.053471	-0.485978	-0.000272
H147	H	1.017695	-0.531506	-0.042499
H148	H	1.017670	-0.531509	0.041966
H149	H	0.266322	0.002909	-0.077215
C150	C	0.154470	0.183059	-0.000266
H151	H	0.204039	0.176207	-0.000265
H152	H	0.139027	0.204240	0.041959
H153	H	0.139070	0.204243	-0.042506
C154	C	0.409990	-0.006743	-0.089315
H155	H	0.381997	-0.030801	-0.114596
H156	H	0.442064	-0.029402	-0.058726
H157	H	0.434986	0.013296	-0.123427
C158	C	0.683917	-0.620461	-0.000203
H159	H	0.645826	-0.642527	-0.000187
H160	H	0.681621	-0.596991	-0.042430
H161	H	0.681617	-0.597009	0.042035
C162	C	0.949891	-0.649621	-0.000270
H163	H	0.987217	-0.679957	-0.000283
H164	H	0.952860	-0.626742	0.041958
H165	H	0.952871	-0.626735	-0.042508
H166	H	0.493372	-0.016435	-0.000187
C167	C	0.637623	-0.029564	-0.000147
H168	H	0.610821	-0.060860	-0.000154
H169	H	0.666223	-0.031384	0.042086
H170	H	0.666260	-0.031377	-0.042379
H171	H	0.930094	-0.763893	-0.000269
H172	H	0.700314	-0.738684	-0.000203
