data_functionalizedCrystal
_audit_creation_method	'MofGen! by Chris Wilmer'
_symmetry_space_group_name_H-M	'P1'
_symmetry_Int_Tables_number	1
_symmetry_cell_setting	triclinic
loop_
_symmetry_equiv_pos_as_xyz
  x,y,z
_cell_length_a	16.959455
_cell_length_b	18.050589
_cell_length_c	16.959447
_cell_angle_alpha	89.973357
_cell_angle_beta	89.979626
_cell_angle_gamma	90.025241
loop_
_atom_site_label
_atom_site_type_symbol
_atom_site_fract_x
_atom_site_fract_y
_atom_site_fract_z
Zn1	Zn	1.208339	-0.295704	-0.447057
Zn2	Zn	1.708339	0.204296	0.052943
Zn3	Zn	1.208243	-0.419905	-0.314886
Zn4	Zn	1.708243	0.080095	0.185114
Zn5	Zn	1.076168	-0.295727	-0.314880
Zn6	Zn	1.576168	0.204273	0.185120
Zn7	Zn	1.076113	-0.419850	-0.447011
Zn8	Zn	1.576113	0.080150	0.052989
O9	O	1.142216	-0.357797	-0.380959
O10	O	1.642216	0.142203	0.119041
O11	O	1.318937	-0.312193	-0.429546
O12	O	1.818937	0.187807	0.070454
O13	O	1.190705	-0.403466	-0.204275
O14	O	1.690705	0.096534	0.295725
O15	O	1.093763	-0.191800	-0.332430
O16	O	1.593763	0.308200	0.167570
O17	O	1.318866	-0.403443	-0.332441
O18	O	1.818866	0.096557	0.167559
O19	O	1.190869	-0.191782	-0.429539
O20	O	1.690869	0.308218	0.070461
O21	O	1.093670	-0.312233	-0.204270
O22	O	1.593670	0.187767	0.295730
O23	O	0.965549	-0.312179	-0.332386
O24	O	1.465549	0.187821	0.167614
O25	O	1.093671	-0.403349	-0.557628
O26	O	1.593671	0.096651	-0.057628
O27	O	0.965510	-0.403372	-0.429462
O28	O	1.465510	0.096628	0.070538
O29	O	1.190817	-0.312139	-0.557661
O30	O	1.690817	0.187861	-0.057661
O31	O	1.190653	-0.523823	-0.332397
O32	O	1.690653	-0.023823	0.167603
O33	O	1.093578	-0.523782	-0.429468
O34	O	1.593578	-0.023782	0.070532
C35	C	0.936849	-0.357772	-0.380919
C36	C	1.436849	0.142228	0.119081
C37	C	0.848993	-0.357780	-0.380920
C38	C	1.348993	0.142220	0.119080
C39	C	0.477470	-0.405264	-0.330370
C40	C	0.977470	0.094736	0.169630
C41	C	0.477565	-0.310391	-0.431643
C42	C	0.977565	0.189609	0.068357
C43	C	0.560111	-0.310379	-0.431624
C44	C	1.060111	0.189621	0.068376
C45	C	0.601340	-0.357811	-0.380978
C46	C	1.101340	0.142189	0.119022
C47	C	0.560023	-0.405254	-0.330351
C48	C	1.060023	0.094746	0.169649
C49	C	0.601433	-0.262941	-0.482255
C50	C	1.101433	0.237059	0.017745
C51	C	0.683984	-0.262928	-0.482239
C52	C	1.183984	0.237072	0.017761
C53	C	0.725215	-0.310356	-0.431588
C54	C	1.225215	0.189644	0.068412
C55	C	0.683893	-0.357801	-0.380959
C56	C	1.183893	0.142199	0.119041
C57	C	0.725123	-0.405233	-0.330313
C58	C	1.225123	0.094767	0.169687
C59	C	0.683803	-0.452675	-0.279679
C60	C	1.183803	0.047325	0.220321
C61	C	0.601254	-0.452683	-0.279701
C62	C	1.101254	0.047317	0.220299
C63	C	0.807764	-0.310348	-0.431566
C64	C	1.307764	0.189652	0.068434
C65	C	0.807676	-0.405224	-0.330294
C66	C	1.307676	0.094776	0.169706
C67	C	1.142120	-0.550749	-0.380945
C68	C	1.642120	-0.050749	0.119055
C69	C	1.142152	-0.633295	-0.380966
C70	C	1.642152	-0.133295	0.119034
C71	C	1.089414	-0.832750	-0.433735
C72	C	1.589414	-0.332750	0.066265
C73	C	1.070151	-0.882193	-0.361606
C74	C	1.570151	-0.382193	0.138394
C75	C	1.142229	-0.784425	-0.380977
C76	C	1.642229	-0.284425	0.119023
C77	C	1.161531	-0.882064	-0.453114
C78	C	1.661531	-0.382064	0.046886
C79	C	1.142303	-0.930410	-0.380993
C80	C	1.642303	-0.430410	0.119007
C81	C	1.122929	-0.832781	-0.308809
C82	C	1.622929	-0.332781	0.191191
C83	C	1.214342	-0.832647	-0.400366
C84	C	1.714342	-0.332647	0.099634
C85	C	1.195106	-0.882068	-0.328187
C86	C	1.695106	-0.382068	0.171813
C87	C	1.142185	-0.700327	-0.380968
C88	C	1.642185	-0.200327	0.119032
C89	C	1.142347	-1.014506	-0.380993
C90	C	1.642347	-0.514506	0.119007
C91	C	1.348384	-0.357821	-0.380999
C92	C	1.848384	0.142179	0.119001
C93	C	1.436240	-0.357832	-0.381016
C94	C	1.936240	0.142168	0.118984
C95	C	1.142249	-0.357735	-0.587127
C96	C	1.642249	0.142265	-0.087127
C97	C	1.142263	-0.357709	-0.674983
C98	C	1.642263	0.142291	-0.174983
C99	C	1.142333	-0.164091	-0.380989
C100	C	1.642333	0.335909	0.119011
C101	C	1.142383	-0.081545	-0.381002
C102	C	1.642383	0.418455	0.118998
C103	C	1.091778	-0.405119	-1.046444
C104	C	1.591778	0.094881	-0.546444
C105	C	1.192936	-0.310142	-1.046474
C106	C	1.692936	0.189858	-0.546474
C107	C	1.192915	-0.310158	-0.963928
C108	C	1.692915	0.189842	-0.463928
C109	C	1.142326	-0.357656	-0.922637
C110	C	1.642326	0.142344	-0.422637
C111	C	1.091757	-0.405138	-0.963891
C112	C	1.591757	0.094862	-0.463891
C113	C	1.243489	-0.262682	-0.922668
C114	C	1.743489	0.237318	-0.422668
C115	C	1.243470	-0.262696	-0.840117
C116	C	1.743470	0.237304	-0.340117
C117	C	1.192876	-0.310191	-0.798824
C118	C	1.692876	0.189809	-0.298824
C119	C	1.142305	-0.357674	-0.840083
C120	C	1.642305	0.142326	-0.340083
C121	C	1.091715	-0.405173	-0.798791
C122	C	1.591715	0.094827	-0.298791
C123	C	1.041139	-0.452653	-0.840049
C124	C	1.541139	0.047347	-0.340049
C125	C	1.041162	-0.452633	-0.922598
C126	C	1.541162	0.047367	-0.422598
C127	C	1.192852	-0.310211	-0.716275
C128	C	1.692852	0.189789	-0.216275
C129	C	1.091694	-0.405191	-0.716238
C130	C	1.591694	0.094809	-0.216238
C131	C	1.142228	-0.357804	-0.175592
C132	C	1.642228	0.142196	0.324408
C133	C	1.142368	-0.357621	-0.087736
C134	C	1.642368	0.142379	0.412264
H135	H	0.567604	-0.491307	-0.238477
H136	H	1.067604	0.008693	0.261523
C137	C	1.299093	-0.210466	-0.794737
C138	C	1.799093	0.289534	-0.294737
H139	H	1.291838	-0.217280	-0.739660
H140	H	1.791838	0.282720	-0.239660
H141	H	1.287558	-0.160565	-0.808280
H142	H	1.787558	0.339435	-0.308280
H143	H	1.352202	-0.221342	-0.808265
H144	H	1.852202	0.278658	-0.308265
H145	H	1.050598	-0.443775	-1.080040
H146	H	1.550598	0.056225	-0.580040
C147	C	1.255486	-0.911146	-0.267862
C148	C	1.755486	-0.411146	0.232138
H149	H	1.294128	-0.940070	-0.294244
H150	H	1.794128	-0.440070	0.205756
H151	H	1.229275	-0.940823	-0.229715
H152	H	1.729275	-0.440823	0.270285
H153	H	1.280315	-0.870480	-0.242417
H154	H	1.780315	-0.370480	0.257583
C155	C	0.987816	-0.911598	-0.339451
C156	C	1.487816	-0.411598	0.160549
H157	H	0.991449	-0.940570	-0.292813
H158	H	1.491449	-0.440570	0.207187
H159	H	0.967996	-0.941292	-0.381218
H160	H	1.467996	-0.441292	0.118782
H161	H	0.953208	-0.871066	-0.330643
H162	H	1.453208	-0.371066	0.169357
H163	H	0.567858	-0.224330	-0.523493
H164	H	1.067858	0.275670	-0.023493
H165	H	0.717620	-0.224297	-0.523467
H166	H	1.217620	0.275703	-0.023467
C167	C	1.296658	-0.803220	-0.422541
C168	C	1.796658	-0.303220	0.077459
H169	H	1.316897	-0.774275	-0.380374
H170	H	1.816897	-0.274275	0.119626
H171	H	1.292843	-0.773494	-0.468616
H172	H	1.792843	-0.273494	0.031384
H173	H	1.331023	-0.843740	-0.432307
H174	H	1.831023	-0.343740	0.067693
H175	H	0.841239	-0.443846	-0.289048
H176	H	1.341239	0.056154	0.210952
H177	H	0.717382	-0.491298	-0.238447
H178	H	1.217382	0.008702	0.261553
H179	H	1.044685	-0.811095	-0.478288
H180	H	1.544685	-0.311095	0.021712
H181	H	0.999952	-0.491329	-0.806419
H182	H	1.499952	0.008671	-0.306419
C183	C	0.853212	-0.258171	-0.487257
C184	C	1.353212	0.241829	0.012743
H185	H	0.816835	-0.229923	-0.517422
H186	H	1.316835	0.270077	-0.017422
H187	H	0.885428	-0.286617	-0.521635
H188	H	1.385428	0.213383	-0.021635
H189	H	0.885405	-0.225767	-0.457069
H190	H	1.385405	0.274233	0.042931
H191	H	1.177827	-0.903712	-0.514113
H192	H	1.677827	-0.403712	-0.014113
C193	C	1.036055	-0.457451	-0.670823
C194	C	1.536055	0.042549	-0.170823
H195	H	1.005947	-0.485729	-0.707219
H196	H	1.505947	0.014271	-0.207219
H197	H	1.001623	-0.429057	-0.638614
H198	H	1.501623	0.070943	-0.138614
H199	H	1.066280	-0.489822	-0.638626
H200	H	1.566280	0.010178	-0.138626
H201	H	1.234129	-0.271475	-1.080099
H202	H	1.734129	0.228525	-0.580099
H203	H	0.999989	-0.491291	-0.956197
H204	H	1.499989	0.008709	-0.456197
H205	H	0.443823	-0.443888	-0.289143
H206	H	0.943823	0.056112	0.210857
C207	C	1.299122	-0.210429	-0.968088
C208	C	1.799122	0.289571	-0.468088
H209	H	1.291880	-0.217210	-1.023160
H210	H	1.791880	0.282790	-0.523160
H211	H	1.352225	-0.221298	-0.954573
H212	H	1.852225	0.278702	-0.454573
H213	H	1.287567	-0.160533	-0.954563
H214	H	1.787567	0.339467	-0.454563
H215	H	0.443991	-0.271779	-0.472881
H216	H	0.943991	0.228221	0.027119
C217	C	1.100810	-0.803663	-0.226384
C218	C	1.600810	-0.303663	0.273616
H219	H	1.100890	-0.751033	-0.226889
H220	H	1.600890	-0.251033	0.273111
H221	H	1.138115	-0.820942	-0.188881
H222	H	1.638115	-0.320942	0.311119
H223	H	1.049765	-0.821041	-0.212540
H224	H	1.549765	-0.321041	0.287460
C225	C	1.248479	-0.257993	-0.670891
C226	C	1.748479	0.242007	-0.170891
H227	H	1.241224	-0.264809	-0.615814
H228	H	1.741224	0.235191	-0.115814
H229	H	1.236952	-0.208089	-0.684432
H230	H	1.736952	0.291911	-0.184432
H231	H	1.301586	-0.268876	-0.684422
H232	H	1.801586	0.231124	-0.184422
