data_functionalizedCrystal
_audit_creation_method	'MofGen! by Chris Wilmer'
_symmetry_space_group_name_H-M	'P1'
_symmetry_Int_Tables_number	1
_symmetry_cell_setting	triclinic
loop_
_symmetry_equiv_pos_as_xyz
  x,y,z
_cell_length_a	16.974813
_cell_length_b	27.732064
_cell_length_c	15.455313
_cell_angle_alpha	87.336368
_cell_angle_beta	96.320231
_cell_angle_gamma	83.023600
loop_
_atom_site_label
_atom_site_type_symbol
_atom_site_fract_x
_atom_site_fract_y
_atom_site_fract_z
O1	O	0.097955	0.638966	0.078852
O2	O	0.112297	0.498199	0.079894
O3	O	-0.010417	0.572745	0.071257
O4	O	0.220669	0.564420	0.087488
O5	O	-0.017413	0.577003	-0.073497
O6	O	0.105301	0.502457	-0.064861
O7	O	0.090959	0.643224	-0.065903
Cu8	Cu	0.097491	0.573230	-0.078599
Cu9	Cu	0.105765	0.568194	0.092590
O10	O	0.213673	0.568678	-0.057266
C11	C	0.108496	0.482321	0.007500
C12	C	0.107584	0.428664	0.007449
C13	C	0.028852	0.051450	0.001870
C14	C	0.032212	0.253115	0.002129
O15	O	-0.028881	0.284258	-0.002195
N16	N	0.104979	0.272375	0.007243
C17	C	0.176911	0.241215	0.012288
O18	O	0.238880	0.262224	0.016636
C19	C	0.173550	0.039551	0.012024
C20	C	0.100779	0.020293	0.006917
C21	C	-0.043913	0.032192	-0.003237
C22	C	-0.044752	-0.018222	-0.003297
C23	C	0.027175	-0.049378	0.001750
C24	C	0.099940	-0.030120	0.006857
C25	C	0.245481	0.008392	0.017062
C26	C	0.244634	-0.042027	0.016993
C27	C	0.171863	-0.061284	0.011887
C28	C	0.171027	-0.111690	0.011845
N29	N	0.098260	-0.130950	0.006730
C30	C	0.026334	-0.099794	0.001683
C31	C	0.178670	0.347092	0.012429
C32	C	0.179511	0.397508	0.012497
C33	C	0.034811	0.409405	0.002335
C34	C	0.033972	0.358988	0.002274
C35	C	0.105903	0.327832	0.007314
C36	C	0.024578	-0.205666	0.001558
C37	C	0.023745	-0.256085	0.001502
C38	C	0.168444	-0.267977	0.011659
C39	C	0.169277	-0.217563	0.011720
C40	C	0.097337	-0.186408	0.006666
O41	O	0.232087	-0.142860	0.016156
O42	O	-0.035627	-0.120812	-0.002684
C43	C	0.029691	0.101863	0.001930
C44	C	0.102457	0.121121	0.007037
C45	C	0.174383	0.089965	0.012084
C46	C	0.103297	0.171537	0.007105
C47	C	0.031371	0.202693	0.002057
C48	C	-0.041396	0.183433	-0.003057
C49	C	-0.042235	0.133019	-0.003117
C50	C	0.247150	0.109224	0.017199
C51	C	0.247983	0.159639	0.017259
C52	C	0.176056	0.190795	0.012212
C53	C	-0.043470	0.574637	-0.003194
C54	C	-0.131535	0.573923	-0.009373
C55	C	-0.169090	0.571268	0.066629
C56	C	-0.251835	0.570595	0.060821
C57	C	-0.297025	0.572581	-0.020991
C58	C	-0.259464	0.575234	-0.096999
C59	C	-0.176720	0.575904	-0.091189
C60	C	-0.544904	0.570823	-0.046827
C61	C	-0.627654	0.570155	-0.052631
C62	C	-0.620019	0.565515	0.105190
C63	C	-0.537274	0.566188	0.110992
C64	C	-0.499720	0.568839	0.034984
N65	N	-0.381604	0.571894	-0.026930
N66	N	-0.415141	0.569522	0.040924
C67	C	0.246726	0.566787	0.017187
C68	C	0.334791	0.567500	0.023372
C69	C	0.094760	0.659103	0.006493
C70	C	0.095672	0.712759	0.006549
N71	N	0.111578	0.564652	0.212995
N72	N	0.091671	0.576775	-0.199004
C73	C	0.059544	0.596382	0.254727
C74	C	0.063939	0.593703	0.345844
C75	C	0.120365	0.559291	0.395227
C76	C	0.172405	0.527560	0.353489
C77	C	0.168013	0.530242	0.262374
C78	C	0.139319	0.547726	0.668143
C79	C	0.143705	0.545045	0.759264
C80	C	0.035240	0.611189	0.751612
C81	C	0.030850	0.613866	0.660495
C82	C	0.082892	0.582137	0.618766
N83	N	0.124857	0.556551	0.488364
N84	N	0.078403	0.584880	0.525631
H85	H	-0.023754	0.434781	-0.001771
H86	H	-0.025285	0.343313	-0.001885
H87	H	-0.664446	0.571769	-0.119255
C88	C	0.259561	0.418686	0.018123
C89	C	0.315492	0.409062	-0.052866
C90	C	0.395545	0.430237	-0.047246
C91	C	0.419668	0.461038	0.029364
C92	C	0.363737	0.470663	0.100359
C93	C	0.283683	0.449488	0.094738
H94	H	0.297635	0.386260	-0.109582
H95	H	0.436950	0.423112	-0.099801
H96	H	0.478929	0.476713	0.033525
H97	H	0.381593	0.493465	0.157075
H98	H	0.242279	0.456614	0.147294
H99	H	0.218352	0.499543	0.393703
H100	H	0.303210	-0.067392	0.021094
H101	H	-0.514340	0.572992	-0.108718
H102	H	-0.035516	-0.271761	-0.002654
H103	H	0.210386	0.504405	0.228397
H104	H	0.237249	0.321729	0.016535
C105	C	-0.309168	0.577407	-0.186993
C106	C	-0.267854	0.580317	-0.270595
C107	C	-0.317555	0.582485	-0.360592
C108	C	-0.408570	0.581743	-0.366987
C109	C	-0.449889	0.578833	-0.283382
C110	C	-0.400188	0.576664	-0.193386
H111	H	-0.200475	0.580867	-0.265863
H112	H	-0.286967	0.584640	-0.422481
H113	H	-0.445361	0.583348	-0.433608
H114	H	-0.517268	0.578283	-0.288114
H115	H	-0.430775	0.574510	-0.131496
H116	H	-0.650605	0.563355	0.167071
H117	H	0.227005	-0.293353	0.015773
C118	C	-0.054555	-0.171401	-0.003995
C119	C	-0.117997	-0.171212	-0.083355
C120	C	-0.197128	-0.136947	-0.088901
C121	C	-0.212817	-0.102871	-0.015086
C122	C	-0.149373	-0.103059	0.064280
C123	C	-0.070242	-0.137324	0.069826
H124	H	-0.106384	-0.196438	-0.138002
H125	H	-0.244093	-0.136808	-0.147653
H126	H	-0.271394	-0.077506	-0.019192
H127	H	-0.160985	-0.077833	0.118927
H128	H	-0.023277	-0.137463	0.128578
C129	C	-0.123041	0.066458	-0.008784
C130	C	-0.186484	0.066649	-0.088143
C131	C	-0.265618	0.100911	-0.093682
C132	C	-0.281309	0.134982	-0.019860
C133	C	-0.217864	0.134792	0.059505
C134	C	-0.138730	0.100530	0.065044
H135	H	-0.174871	0.041427	-0.142796
H136	H	-0.312584	0.101051	-0.152434
H137	H	-0.339889	0.160344	-0.023960
H138	H	-0.229477	0.160014	0.114158
H139	H	-0.091764	0.100390	0.123796
C140	C	0.325534	0.029562	0.022669
C141	C	0.381451	0.019930	-0.048331
C142	C	0.461511	0.041097	-0.042729
C143	C	0.485655	0.071897	0.033873
C144	C	0.429737	0.081531	0.104879
C145	C	0.349677	0.060364	0.099276
H146	H	0.363579	-0.002872	-0.105042
H147	H	0.502905	0.033965	-0.095293
H148	H	0.544920	0.087567	0.038020
H149	H	0.447608	0.104333	0.161589
H150	H	0.308283	0.067496	0.151840
C151	C	0.249321	-0.196374	0.017347
C152	C	0.305259	-0.205996	-0.053637
C153	C	0.385303	-0.184809	-0.048018
C154	C	0.409409	-0.154000	0.028584
C155	C	0.353470	-0.144376	0.099573
C156	C	0.273427	-0.165563	0.093955
H157	H	0.287415	-0.228804	-0.110348
H158	H	0.426712	-0.191934	-0.100569
H159	H	0.468662	-0.138316	0.032744
H160	H	0.371314	-0.121568	0.156284
H161	H	0.232017	-0.158439	0.146506
H162	H	-0.101493	0.117345	-0.007276
C163	C	-0.120517	0.217711	-0.008612
C164	C	-0.143460	0.256225	-0.085136
C165	C	-0.222576	0.290506	-0.090695
C166	C	-0.278748	0.286273	-0.019730
C167	C	-0.255806	0.247757	0.056800
C168	C	-0.176690	0.213476	0.062359
H169	H	-0.101877	0.259360	-0.137673
H170	H	-0.239559	0.319018	-0.147348
H171	H	-0.337314	0.311649	-0.023846
H172	H	-0.297389	0.244622	0.109337
H173	H	-0.159707	0.184964	0.119012
C174	C	0.328039	0.180816	0.022876
C175	C	0.383963	0.171187	-0.048118
C176	C	0.464017	0.192362	-0.042512
C177	C	0.488146	0.223167	0.034088
C178	C	0.432221	0.232798	0.105088
C179	C	0.352168	0.211623	0.099482
H180	H	0.366102	0.148382	-0.104828
H181	H	0.505416	0.185233	-0.095071
H182	H	0.547406	0.238843	0.038238
H183	H	0.450082	0.255603	0.161797
H184	H	0.310768	0.218752	0.152041
H185	H	0.013593	0.624401	0.214524
C186	C	-0.021999	0.646093	0.797516
C187	C	-0.017097	0.643195	0.897744
C188	C	-0.074336	0.678103	0.943646
C189	C	-0.136477	0.715908	0.889320
C190	C	-0.141381	0.718808	0.789086
C191	C	-0.084142	0.683900	0.743184
H192	H	0.028906	0.615207	0.937964
H193	H	-0.070705	0.675956	1.017846
H194	H	-0.178849	0.741749	0.923300
H195	H	-0.187384	0.746795	0.748866
H196	H	-0.087773	0.686047	0.668984
C197	C	-0.119384	0.569085	0.156625
C198	C	-0.137135	0.609049	0.220247
C199	C	-0.087431	0.606863	0.310245
C200	C	-0.019976	0.564714	0.336620
C201	C	-0.002222	0.524747	0.272996
C202	C	-0.051926	0.526932	0.182998
H203	H	-0.187072	0.640253	0.200724
H204	H	-0.100574	0.636450	0.357343
H205	H	0.016817	0.563096	0.403241
H206	H	0.047714	0.493542	0.292519
H207	H	-0.038783	0.497345	0.135900
H208	H	0.305722	0.083862	0.021308
H209	H	-0.104010	-0.033896	-0.007459
H210	H	-0.282408	0.568435	0.122710
H211	H	0.189656	0.517021	0.799469
C212	C	-0.487565	0.563994	0.200987
C213	C	-0.528873	0.561067	0.284590
C214	C	-0.479163	0.558873	0.374586
C215	C	-0.388146	0.559606	0.380978
C216	C	-0.346834	0.562534	0.297371
C217	C	-0.396543	0.564728	0.207376
H218	H	-0.596253	0.560524	0.279861
H219	H	-0.509746	0.556706	0.436477
H220	H	-0.351349	0.557982	0.447598
H221	H	-0.279454	0.563077	0.302100
H222	H	-0.365961	0.566895	0.145484
C223	C	-0.135405	0.578825	-0.174792
C224	C	-0.140413	0.538675	-0.240008
C225	C	-0.099098	0.541593	-0.323614
C226	C	-0.052776	0.584662	-0.342003
C227	C	-0.047767	0.624815	-0.276785
C228	C	-0.089081	0.621897	-0.193179
H229	H	-0.174705	0.506790	-0.226397
H230	H	-0.102807	0.511868	-0.371892
H231	H	-0.022193	0.586822	-0.403892
H232	H	-0.013475	0.656700	-0.290396
H233	H	-0.085373	0.651622	-0.144901
H234	H	0.181692	0.521890	0.634174
H235	H	0.021569	0.619539	0.379821
H236	H	-0.015097	0.641886	0.620289
