data_functionalizedCrystal
_audit_creation_method	'MofGen! by Chris Wilmer'
_symmetry_space_group_name_H-M	'P1'
_symmetry_Int_Tables_number	1
_symmetry_cell_setting	triclinic
loop_
_symmetry_equiv_pos_as_xyz
  x,y,z
_cell_length_a	27.732048
_cell_length_b	15.995350
_cell_length_c	14.472310
_cell_angle_alpha	90.001162
_cell_angle_beta	89.992508
_cell_angle_gamma	83.067515
loop_
_atom_site_label
_atom_site_type_symbol
_atom_site_fract_x
_atom_site_fract_y
_atom_site_fract_z
O1	O	0.641363	0.099622	-0.076718
O2	O	0.974696	0.432955	0.256615
O3	O	1.308030	0.766289	0.589949
O4	O	0.500635	0.114770	-0.076745
O5	O	0.833968	0.448104	0.256588
O6	O	1.167302	0.781437	0.589921
O7	O	0.574846	-0.014741	-0.076730
O8	O	0.908179	0.318592	0.256603
O9	O	1.241513	0.651925	0.589937
O10	O	0.567152	0.229134	-0.076733
O11	O	0.900485	0.562467	0.256600
O12	O	1.233819	0.895800	0.589934
O13	O	0.574827	-0.014733	0.076952
O14	O	0.908160	0.318600	0.410285
O15	O	1.241493	0.651933	0.743619
O16	O	0.500616	0.114778	0.076937
O17	O	0.833949	0.448111	0.410270
O18	O	1.167283	0.781445	0.743603
O19	O	0.641344	0.099630	0.076964
O20	O	0.974677	0.432963	0.410297
O21	O	1.308011	0.766296	0.743631
Cu22	Cu	0.570978	0.107205	0.090983
Cu23	Cu	0.904312	0.440538	0.424316
Cu24	Cu	1.237645	0.773871	0.757650
Cu25	Cu	0.571001	0.107196	-0.090764
Cu26	Cu	0.904334	0.440529	0.242569
Cu27	Cu	1.237667	0.773862	0.575903
O28	O	0.567133	0.229141	0.076949
O29	O	0.900466	0.562475	0.410282
O30	O	1.233800	0.895808	0.743616
C31	C	0.482617	0.114456	0.000092
C32	C	0.815950	0.447790	0.333426
C33	C	1.149284	0.781123	0.666759
C34	C	0.428958	0.113499	0.000082
C35	C	0.762291	0.446832	0.333415
C36	C	1.095625	0.780166	0.666748
C37	C	0.574518	-0.045928	0.000109
C38	C	0.907852	0.287405	0.333443
C39	C	1.241185	0.620739	0.666776
C40	C	0.573565	-0.138866	0.000104
C41	C	0.906898	0.194467	0.333437
C42	C	1.240231	0.527801	0.666771
C43	C	0.570140	-0.476569	0.000106
C44	C	0.903473	-0.143236	0.333440
C45	C	1.236807	0.190097	0.666773
C46	C	0.517289	-0.428451	-0.000249
C47	C	0.850622	-0.095118	0.333085
C48	C	1.183955	0.238215	0.666418
C49	C	0.518242	-0.331773	0.000098
C50	C	0.851576	0.001560	0.333431
C51	C	1.184909	0.334893	0.666765
C52	C	0.571839	-0.309031	0.000105
C53	C	0.905172	0.024303	0.333438
C54	C	1.238505	0.357636	0.666771
C55	C	0.597896	-0.350441	0.087868
C56	C	0.931230	-0.017108	0.421201
C57	C	1.264563	0.316226	0.754535
C58	C	0.596569	-0.447060	0.087941
C59	C	0.929902	-0.113726	0.421274
C60	C	1.263235	0.219607	0.754608
C61	C	0.597682	-0.447441	-0.086824
C62	C	0.931015	-0.114107	0.246509
C63	C	1.264349	0.219226	0.579843
C64	C	0.597670	-0.350495	-0.087984
C65	C	0.931003	-0.017162	0.245350
C66	C	1.264336	0.316172	0.578683
C67	C	0.572802	-0.214346	0.000107
C68	C	0.906135	0.118988	0.333440
C69	C	1.239468	0.452321	0.666773
C70	C	0.569179	-0.571255	0.000110
C71	C	0.902512	-0.237921	0.333444
C72	C	1.235846	0.095412	0.666777
C73	C	0.090447	0.184004	0.000121
C74	C	0.423780	0.517337	0.333454
C75	C	0.757114	0.850670	0.666787
C76	C	-0.111228	0.180451	0.000129
C77	C	0.222105	0.513784	0.333462
C78	C	0.555439	0.847118	0.666796
O79	O	-0.142205	0.244923	0.000168
O80	O	0.191128	0.578256	0.333502
O81	O	0.524461	0.911589	0.666835
N82	N	-0.130683	0.103656	0.000128
N83	N	0.202651	0.436989	0.333462
N84	N	0.535984	0.770323	0.666795
C85	C	-0.099715	0.027744	0.000132
C86	C	0.233618	0.361077	0.333465
C87	C	0.566951	0.694410	0.666799
O88	O	-0.120891	-0.037657	0.000141
O89	O	0.212443	0.295677	0.333474
O90	O	0.545776	0.629010	0.666808
C91	C	0.101958	0.031297	0.000130
C92	C	0.435292	0.364631	0.333463
C93	C	0.768625	0.697964	0.666797
C94	C	0.121410	0.108097	0.000121
C95	C	0.454744	0.441431	0.333455
C96	C	0.788077	0.774764	0.666788
C97	C	0.109900	0.260797	0.000113
C98	C	0.443233	0.594131	0.333446
C99	C	0.776566	0.927464	0.666780
C100	C	0.160315	0.261685	0.000106
C101	C	0.493649	0.595018	0.333439
C102	C	0.826982	0.928351	0.666773
C103	C	0.191279	0.185778	0.000107
C104	C	0.524612	0.519112	0.333440
C105	C	0.857945	0.852445	0.666773
C106	C	0.171826	0.108985	0.000114
C107	C	0.505160	0.442318	0.333448
C108	C	0.838493	0.775651	0.666781
C109	C	0.132925	-0.044614	0.000140
C110	C	0.466258	0.288719	0.333473
C111	C	0.799591	0.622053	0.666807
C112	C	0.183346	-0.043719	0.000142
C113	C	0.516679	0.289614	0.333475
C114	C	0.850013	0.622948	0.666809
C115	C	0.202798	0.033081	0.000133
C116	C	0.536131	0.366414	0.333467
C117	C	0.869465	0.699748	0.666800
C118	C	0.253205	0.033965	0.000108
C119	C	0.586539	0.367299	0.333441
C120	C	0.919872	0.700632	0.666774
N121	N	0.272660	0.110761	0.000108
N122	N	0.605994	0.444094	0.333442
N123	N	0.939327	0.777427	0.666775
C124	C	0.241697	0.186667	0.000108
C125	C	0.575030	0.520000	0.333441
C126	C	0.908364	0.853334	0.666775
C127	C	-0.205598	0.025883	0.000131
C128	C	0.127736	0.359217	0.333464
C129	C	0.461069	0.692550	0.666798
C130	C	-0.256016	0.024995	0.000130
C131	C	0.077317	0.358328	0.333463
C132	C	0.410651	0.691662	0.666796
C133	C	-0.267525	0.177703	0.000129
C134	C	0.065809	0.511036	0.333462
C135	C	0.399142	0.844369	0.666795
C136	C	-0.217106	0.178590	0.000123
C137	C	0.116228	0.511924	0.333457
C138	C	0.449561	0.845257	0.666790
C139	C	-0.186143	0.102679	0.000132
C140	C	0.147191	0.436012	0.333465
C141	C	0.480524	0.769345	0.666798
C142	C	0.347574	0.188525	0.000092
C143	C	0.680907	0.521858	0.333425
C144	C	1.014241	0.855191	0.666759
C145	C	0.397995	0.189405	0.000081
C146	C	0.731328	0.522739	0.333414
C147	C	1.064661	0.856072	0.666748
C148	C	0.409499	0.036698	0.000087
C149	C	0.742833	0.370031	0.333420
C150	C	1.076166	0.703365	0.666754
C151	C	0.359083	0.035817	0.000093
C152	C	0.692416	0.369150	0.333426
C153	C	1.025750	0.702484	0.666760
C154	C	0.328121	0.111737	0.000099
C155	C	0.661454	0.445070	0.333432
C156	C	0.994788	0.778404	0.666765
O157	O	0.284211	-0.030472	0.000079
O158	O	0.617545	0.302862	0.333412
O159	O	0.950878	0.636195	0.666746
O160	O	0.262881	0.252058	0.000119
O161	O	0.596215	0.585391	0.333453
O162	O	0.929548	0.918725	0.666786
C163	C	0.040031	0.183116	0.000128
C164	C	0.373365	0.516450	0.333461
C165	C	0.706698	0.849783	0.666795
C166	C	0.020579	0.106323	0.000136
C167	C	0.353912	0.439656	0.333469
C168	C	0.687246	0.772989	0.666802
C169	C	0.051542	0.030416	0.000136
C170	C	0.384876	0.363749	0.333470
C171	C	0.718209	0.697083	0.666803
C172	C	-0.029839	0.105434	0.000134
C173	C	0.303494	0.438767	0.333468
C174	C	0.636827	0.772101	0.666801
C175	C	-0.060803	0.181340	0.000134
C176	C	0.272531	0.514674	0.333467
C177	C	0.605864	0.848007	0.666800
C178	C	-0.041348	0.258135	0.000134
C179	C	0.291986	0.591469	0.333468
C180	C	0.625319	0.924802	0.666801
C181	C	0.009068	0.259023	0.000127
C182	C	0.342401	0.592356	0.333461
C183	C	0.675735	0.925689	0.666794
C184	C	0.032087	-0.046379	0.000136
C185	C	0.365421	0.286954	0.333469
C186	C	0.698754	0.620288	0.666802
C187	C	-0.018329	-0.047260	0.000142
C188	C	0.315004	0.286073	0.333475
C189	C	0.648338	0.619407	0.666808
C190	C	-0.049292	0.028646	0.000141
C191	C	0.284041	0.361980	0.333474
C192	C	0.617374	0.695313	0.666808
C193	C	0.659362	0.099944	0.000125
C194	C	0.992695	0.433277	0.333458
C195	C	1.326029	0.766610	0.666791
C196	C	0.713021	0.100901	0.000129
C197	C	1.046354	0.434235	0.333462
C198	C	1.379688	0.767568	0.666796
C199	C	0.567461	0.260328	0.000108
C200	C	0.900794	0.593661	0.333441
C201	C	1.234127	0.926995	0.666774
C202	C	0.568414	0.353266	0.000107
C203	C	0.901748	0.686600	0.333440
C204	C	1.235081	1.019933	0.666774
N205	N	0.570966	0.107210	0.218814
N206	N	0.904299	0.440544	0.552147
N207	N	1.237632	0.773877	0.885480
N208	N	0.571017	0.107183	-0.218595
N209	N	0.904350	0.440516	0.114739
N210	N	1.237684	0.773850	0.448072
C211	C	0.571000	0.107192	0.592905
C212	C	0.904333	0.440525	0.926238
C213	C	1.237667	0.773859	1.259572
C214	C	0.531158	0.176262	0.553731
C215	C	0.864491	0.509596	0.887064
C216	C	1.197825	0.842929	1.220398
C217	C	0.531250	0.176511	0.446643
C218	C	0.864583	0.509844	0.779976
C219	C	1.197917	0.843178	1.113310
C220	C	0.570983	0.107201	0.407314
C221	C	0.904316	0.440535	0.740647
C222	C	1.237649	0.773868	1.073981
C223	C	0.621417	0.125630	0.446161
C224	C	0.954750	0.458964	0.779494
C225	C	1.288084	0.792297	1.112827
C226	C	0.621193	0.126121	0.553282
C227	C	0.954527	0.459454	0.886616
C228	C	1.287860	0.792787	1.219949
C229	C	0.560858	0.019484	0.553433
C230	C	0.894191	0.352817	0.886766
C231	C	1.227524	0.686150	1.220100
C232	C	0.559701	0.020084	0.446305
C233	C	0.893034	0.353418	0.779639
C234	C	1.226368	0.686751	1.112972
C235	C	0.570976	0.107205	0.302426
C236	C	0.904309	0.440538	0.635759
C237	C	1.237643	0.773871	0.969092
C238	C	0.571010	0.107190	0.697793
C239	C	0.904343	0.440524	1.031126
C240	C	1.237677	0.773857	1.364460
H241	H	0.497759	-0.303089	-0.062815
H242	H	0.831092	0.030244	0.270519
H243	H	1.164425	0.363577	0.603852
H244	H	0.524880	0.001601	0.580494
H245	H	0.858213	0.334934	0.913827
H246	H	1.191546	0.668267	1.247160
H247	H	0.084694	0.322613	0.000116
H248	H	0.418027	0.655947	0.333449
H249	H	0.751360	0.989280	0.666783
H250	H	0.496172	-0.446713	-0.063186
H251	H	0.829505	-0.113380	0.270148
H252	H	1.162839	0.219954	0.603481
H253	H	0.537727	0.241612	0.421009
H254	H	0.871060	0.574945	0.754343
H255	H	1.204394	0.908278	1.087676
Cl256	Cl	0.569930	-0.306261	0.188698
Cl257	Cl	0.903264	0.027073	0.522031
Cl258	Cl	1.236597	0.360406	0.855365
H259	H	0.522601	0.006083	0.420916
H260	H	0.855934	0.339417	0.754249
H261	H	1.189268	0.672750	1.087582
Cl262	Cl	0.571011	-0.478799	-0.189525
Cl263	Cl	0.904345	-0.145465	0.143808
Cl264	Cl	1.237678	0.187868	0.477141
H265	H	0.577551	-0.465112	0.153541
H266	H	0.910885	-0.131778	0.486874
H267	H	1.244218	0.201555	0.820207
Cl268	Cl	0.601599	-0.062914	0.404992
Cl269	Cl	0.934932	0.270420	0.738325
Cl270	Cl	1.268266	0.603753	1.071659
H271	H	0.578618	-0.323003	-0.152909
H272	H	0.911952	0.010330	0.180425
H273	H	1.245285	0.343664	0.513758
Cl274	Cl	0.668298	0.051272	0.593294
Cl275	Cl	1.001631	0.384605	0.926627
Cl276	Cl	1.334964	0.717938	1.259960
H277	H	-0.201272	0.241128	0.000121
H278	H	0.132062	0.574461	0.333455
H279	H	0.465395	0.907794	0.666788
H280	H	0.537545	0.240997	0.580641
H281	H	0.870879	0.574330	0.913974
H282	H	1.204212	0.907664	1.247308
H283	H	0.635371	-0.479810	0.091928
H284	H	0.968704	-0.146476	0.425261
H285	H	1.302038	0.186857	0.758594
Cl286	Cl	0.634991	0.224847	0.591849
Cl287	Cl	0.968324	0.558180	0.925182
Cl288	Cl	1.301658	0.891514	1.258515
Cl289	Cl	-0.042776	-0.143819	0.000141
Cl290	Cl	0.290558	0.189514	0.333474
Cl291	Cl	0.623891	0.522848	0.666807
Cl292	Cl	0.484716	-0.458634	0.096082
Cl293	Cl	0.818049	-0.125300	0.429415
Cl294	Cl	1.151383	0.208033	0.762749
Cl295	Cl	0.668287	0.049985	0.406832
Cl296	Cl	1.001620	0.383318	0.740165
Cl297	Cl	1.334953	0.716651	1.073499
H298	H	0.589913	-0.031908	0.578765
H299	H	0.923246	0.301425	0.912099
H300	H	1.256579	0.634758	1.245432
H301	H	0.497605	-0.303639	0.063110
H302	H	0.830939	0.029695	0.396443
H303	H	1.164272	0.363028	0.729777
H304	H	0.637272	-0.336825	0.091136
H305	H	0.970605	-0.003491	0.424470
H306	H	1.303938	0.329842	0.757803
H307	H	-0.292744	0.239509	0.000128
H308	H	0.040589	0.572842	0.333462
H309	H	0.373923	0.906175	0.666795
H310	H	0.636755	-0.335639	-0.093278
H311	H	0.970089	-0.002306	0.240056
H312	H	1.303422	0.331028	0.573389
H313	H	0.057293	-0.108193	0.000138
H314	H	0.390627	0.225141	0.333472
H315	H	0.723960	0.558474	0.666805
Cl316	Cl	-0.280463	-0.071558	0.000118
Cl317	Cl	0.052870	0.261776	0.333451
Cl318	Cl	0.386203	0.595109	0.666784
H319	H	0.636649	-0.479706	-0.087409
H320	H	0.969983	-0.146372	0.245925
H321	H	1.303316	0.186961	0.579258
H322	H	0.630568	0.188843	0.419325
H323	H	0.963902	0.522176	0.752658
H324	H	1.297235	0.855509	1.085991
Cl325	Cl	0.308658	0.283969	0.000098
Cl326	Cl	0.641992	0.617302	0.333431
Cl327	Cl	0.975325	0.950635	0.666765
Cl328	Cl	0.422445	0.285961	0.000067
Cl329	Cl	0.755778	0.619294	0.333401
Cl330	Cl	1.089112	0.952628	0.666734
H331	H	0.176148	0.324223	0.000099
H332	H	0.509481	0.657557	0.333432
H333	H	0.842815	0.990890	0.666765
H334	H	-0.180391	-0.035937	0.000138
H335	H	0.152942	0.297397	0.333471
H336	H	0.486275	0.630730	0.666804
Cl337	Cl	0.108484	-0.141169	0.000136
Cl338	Cl	0.441817	0.192164	0.333469
Cl339	Cl	0.775150	0.525498	0.666802
Cl340	Cl	0.334628	-0.060733	0.000108
Cl341	Cl	0.667962	0.272601	0.333442
Cl342	Cl	1.001295	0.605934	0.666775
Cl343	Cl	0.222268	-0.139157	0.000154
Cl344	Cl	0.555601	0.194176	0.333487
Cl345	Cl	0.888935	0.527509	0.666821
Cl346	Cl	-0.080283	0.353560	0.000130
Cl347	Cl	0.253051	0.686893	0.333463
Cl348	Cl	0.586384	1.020226	0.666797
H349	H	0.434719	-0.025103	0.000084
H350	H	0.768052	0.308230	0.333417
H351	H	1.101385	0.641564	0.666751
Cl352	Cl	0.473361	0.159763	0.406090
Cl353	Cl	0.806695	0.493096	0.739424
Cl354	Cl	1.140028	0.826429	1.072757
Cl355	Cl	0.473087	0.159739	0.593512
Cl356	Cl	0.806420	0.493073	0.926845
Cl357	Cl	1.139753	0.826406	1.260178
Cl358	Cl	0.033514	0.355577	0.000118
Cl359	Cl	0.366847	0.688910	0.333451
Cl360	Cl	0.700181	1.022243	0.666784
