data_functionalizedCrystal
_audit_creation_method	'MofGen! by Chris Wilmer'
_symmetry_space_group_name_H-M	'P1'
_symmetry_Int_Tables_number	1
_symmetry_cell_setting	triclinic
loop_
_symmetry_equiv_pos_as_xyz
  x,y,z
_cell_length_a	12.811445
_cell_length_b	14.519709
_cell_length_c	11.892095
_cell_angle_alpha	93.895429
_cell_angle_beta	80.666316
_cell_angle_gamma	83.863608
loop_
_atom_site_label
_atom_site_type_symbol
_atom_site_fract_x
_atom_site_fract_y
_atom_site_fract_z
O1	O	1.409908	0.109352	-0.238530
O2	O	1.909908	0.609352	0.261470
O3	O	1.102101	0.124822	-0.206981
O4	O	1.602101	0.624822	0.293019
O5	O	1.264165	-0.017183	-0.223582
O6	O	1.764165	0.482817	0.276418
O7	O	1.247844	0.251358	-0.221929
O8	O	1.747844	0.751358	0.278071
O9	O	1.250652	-0.005361	-0.034190
O10	O	1.750652	0.494639	0.465810
O11	O	1.088588	0.136644	-0.017589
O12	O	1.588588	0.636644	0.482411
O13	O	1.396396	0.121174	-0.049139
O14	O	1.896396	0.621174	0.450861
Zn15	Zn	1.240347	0.130786	-0.003294
Zn16	Zn	1.740347	0.630786	0.496706
Zn17	Zn	1.258150	0.115210	-0.252826
Zn18	Zn	1.758150	0.615210	0.247174
O19	O	1.234332	0.263180	-0.032538
O20	O	1.734332	0.763180	0.467462
C21	C	1.055951	0.130228	-0.108247
C22	C	1.555951	0.630228	0.391753
C23	C	0.938572	0.128710	-0.096216
C24	C	1.438572	0.628710	0.403784
C25	C	1.256648	-0.045629	-0.128808
C26	C	1.756648	0.454371	0.371192
C27	C	1.254368	-0.148001	-0.128574
C28	C	1.754368	0.351999	0.371426
C29	C	0.732731	0.112986	-0.280103
C30	C	1.232731	0.612986	0.219897
C31	C	0.622443	0.111561	-0.268803
C32	C	1.122443	0.611561	0.231197
C33	C	0.607704	0.124439	-0.062317
C34	C	1.107704	0.624439	0.437683
C35	C	0.717992	0.125865	-0.073617
C36	C	1.217992	0.625865	0.426383
C37	C	0.780502	0.120137	-0.182513
C38	C	1.280502	0.620137	0.317487
C39	C	0.890794	0.121556	-0.193812
C40	C	1.390794	0.621556	0.306188
C41	C	0.876052	0.134442	0.012673
C42	C	1.376052	0.634442	0.512673
C43	C	0.765763	0.133016	0.023973
C44	C	1.265763	0.633016	0.523973
C45	C	1.245979	-0.522865	-0.127743
C46	C	1.745979	-0.022865	0.372257
C47	C	1.248309	-0.418566	-0.127973
C48	C	1.748309	0.081434	0.372027
C49	C	1.250173	-0.335436	-0.128157
C50	C	1.750173	0.164564	0.371843
C51	C	1.252504	-0.231131	-0.128390
C52	C	1.752504	0.268869	0.371610
C53	C	1.442546	0.115768	-0.147875
C54	C	1.942546	0.615768	0.352125
C55	C	1.559926	0.117285	-0.159914
C56	C	2.059926	0.617285	0.340086
C57	C	1.241849	0.291625	-0.127314
C58	C	1.741849	0.791625	0.372686
C59	C	1.244129	0.393997	-0.127556
C60	C	1.744129	0.893997	0.372444
N61	N	1.228204	0.141416	0.167004
N62	N	1.728204	0.641416	0.667004
N63	N	1.270301	0.104573	-0.423124
N64	N	1.770301	0.604573	0.076876
C65	C	1.354795	0.030555	0.390684
C66	C	1.854795	0.530555	0.890684
C67	C	1.346315	0.037991	0.509895
C68	C	1.846315	0.537991	1.009895
C69	C	1.202760	0.163721	0.524638
C70	C	1.702760	0.663721	1.024638
C71	C	1.211240	0.156284	0.405428
C72	C	1.711240	0.656284	0.905428
C73	C	1.287261	0.089700	0.338455
C74	C	1.787261	0.589700	0.838455
C75	C	1.295745	0.082268	0.219241
C76	C	1.795745	0.582268	0.719241
C77	C	1.152185	0.207993	0.233987
C78	C	1.652185	0.707993	0.733987
C79	C	1.143705	0.215429	0.353198
C80	C	1.643705	0.715429	0.853198
H81	H	0.941688	0.116892	-0.282481
H82	H	1.441688	0.616892	0.217519
H83	H	0.583552	0.105740	-0.348271
H84	H	1.083552	0.605740	0.151729
C85	C	1.119080	0.236901	0.598322
C86	C	1.619080	0.736901	1.098322
H87	H	1.080046	0.271044	0.550147
H88	H	1.580046	0.771044	1.050147
H89	H	1.153811	0.278132	0.640959
H90	H	1.653811	0.778132	1.140959
H91	H	1.071722	0.206651	0.649310
H92	H	1.571722	0.706651	1.149310
H93	H	0.556788	0.129111	0.026341
H94	H	1.056788	0.629111	0.526341
H95	H	0.783629	0.108318	-0.368771
H96	H	1.283629	0.608318	0.131229
H97	H	0.714852	0.137683	0.112633
H98	H	1.214852	0.637683	0.612633
H99	H	1.416702	-0.023655	0.336153
H100	H	1.916702	0.476345	0.836153
H101	H	0.914959	0.140263	0.092137
H102	H	1.414959	0.640263	0.592137
C103	C	1.379360	0.009026	0.145573
C104	C	1.879360	0.509026	0.645573
H105	H	1.418358	-0.025139	0.193758
H106	H	1.918358	0.474861	0.693758
H107	H	1.426747	0.039201	0.094537
H108	H	1.926747	0.539201	0.594537
H109	H	1.344551	-0.032185	0.102990
H110	H	1.844551	0.467815	0.602990
C111	C	1.077894	0.273059	0.176538
C112	C	1.577894	0.773059	0.676538
H113	H	1.031413	0.313781	0.233501
H114	H	1.531413	0.813781	0.733501
H115	H	1.037126	0.237081	0.134558
H116	H	1.537126	0.737081	0.634558
H117	H	1.119319	0.308471	0.126123
H118	H	1.619319	0.808471	0.626123
C119	C	1.420606	-0.027066	0.567344
C120	C	1.920606	0.472934	1.067344
H121	H	1.467097	-0.067780	0.510380
H122	H	1.967097	0.432220	1.010380
H123	H	1.379192	-0.062473	0.617767
H124	H	1.879192	0.437527	1.117767
H125	H	1.461378	0.008922	0.609315
H126	H	1.961378	0.508922	1.109315
H127	H	1.081807	0.269639	0.407741
H128	H	1.581807	0.769639	0.907741
