data_functionalizedCrystal
_audit_creation_method	'MofGen! by Chris Wilmer'
_symmetry_space_group_name_H-M	'P1'
_symmetry_Int_Tables_number	1
_symmetry_cell_setting	triclinic
loop_
_symmetry_equiv_pos_as_xyz
  x,y,z
_cell_length_a	14.519709
_cell_length_b	16.992694
_cell_length_c	16.053802
_cell_angle_alpha	92.750953
_cell_angle_beta	92.569364
_cell_angle_gamma	92.825816
loop_
_atom_site_label
_atom_site_type_symbol
_atom_site_fract_x
_atom_site_fract_y
_atom_site_fract_z
O1	O	0.191936	-1.043963	-0.069327
O2	O	0.691936	-0.543963	0.430673
O3	O	0.189789	-0.815676	-0.069352
O4	O	0.689789	-0.315676	0.430648
O5	O	0.057059	-0.935872	-0.069332
O6	O	0.557059	-0.435872	0.430668
O7	O	0.324666	-0.923768	-0.069348
O8	O	0.824666	-0.423768	0.430652
O9	O	0.064333	-0.929256	0.069526
O10	O	0.564333	-0.429256	0.569526
O11	O	0.197063	-0.809060	0.069506
O12	O	0.697063	-0.309060	0.569506
O13	O	0.199210	-1.037348	0.069530
O14	O	0.699210	-0.537348	0.569530
Zn15	Zn	0.199291	-0.922154	0.091565
Zn16	Zn	0.699291	-0.422154	0.591565
Zn17	Zn	0.189708	-0.930870	-0.091386
Zn18	Zn	0.689708	-0.430870	0.408614
O19	O	0.331940	-0.917152	0.069510
O20	O	0.831940	-0.417152	0.569510
C21	C	0.190666	-0.783152	0.000074
C22	C	0.690666	-0.283152	0.500074
C23	C	0.182430	-0.696097	0.000065
C24	C	0.682430	-0.196097	0.500065
C25	C	0.026296	-0.932000	0.000097
C26	C	0.526296	-0.432000	0.500097
C27	C	-0.076207	-0.930309	0.000098
C28	C	0.423793	-0.430309	0.500098
C29	C	0.198333	-1.069872	0.000103
C30	C	0.698333	-0.569872	0.500103
C31	C	0.206569	-1.156927	0.000106
C32	C	0.706569	-0.656927	0.500106
C33	C	-0.451551	-0.924087	0.000075
C34	C	0.048449	-0.424087	0.500075
C35	C	-0.347118	-0.925815	0.000082
C36	C	0.152882	-0.425815	0.500082
C37	C	-0.263882	-0.927198	0.000087
C38	C	0.236118	-0.427198	0.500087
C39	C	-0.159443	-0.928926	0.000092
C40	C	0.340557	-0.428926	0.500092
C41	C	0.362703	-0.921024	0.000079
C42	C	0.862703	-0.421024	0.500079
C43	C	0.465206	-0.922715	0.000073
C44	C	0.965206	-0.422715	0.500073
N45	N	0.205832	-0.916210	0.216424
N46	N	0.705832	-0.416210	0.716424
C47	C	0.261890	-0.645968	0.000061
C48	C	0.761890	-0.145968	0.500061
C49	C	0.254147	-0.564170	0.000073
C50	C	0.754147	-0.064170	0.500073
C51	C	0.166943	-0.532503	0.000083
C52	C	0.666943	-0.032503	0.500083
C53	C	0.087478	-0.582638	0.000089
C54	C	0.587478	-0.082638	0.500089
C55	C	0.095222	-0.664434	0.000083
C56	C	0.595222	-0.164434	0.500083
C57	C	0.134847	-0.288859	0.000107
C58	C	0.634847	0.211141	0.500107
C59	C	0.127109	-0.207056	0.000111
C60	C	0.627109	0.292944	0.500111
C61	C	0.293779	-0.188594	0.000095
C62	C	0.793779	0.311406	0.500095
C63	C	0.301515	-0.270393	0.000084
C64	C	0.801515	0.229607	0.500084
C65	C	0.222050	-0.320520	0.000095
C66	C	0.722050	0.179480	0.500095
N67	N	0.159027	-0.448892	0.000092
N68	N	0.659027	0.051108	0.500092
N69	N	0.229968	-0.404129	0.000092
N70	N	0.729968	0.095871	0.500092
N71	N	0.183161	-0.936820	-0.216246
N72	N	0.683161	-0.436820	0.283754
C73	C	0.149377	-0.967373	0.260127
C74	C	0.649377	-0.467373	0.760127
C75	C	0.153962	-0.963222	0.347533
C76	C	0.653962	-0.463222	0.847533
C77	C	0.215006	-0.907913	0.391235
C78	C	0.715006	-0.407913	0.891235
C79	C	0.271462	-0.856746	0.347526
C80	C	0.771462	-0.356746	0.847526
C81	C	0.266872	-0.860893	0.260121
C82	C	0.766872	-0.360893	0.760121
C83	C	0.235027	-0.889799	0.652641
C84	C	0.735027	-0.389799	1.152641
C85	C	0.239615	-0.885658	0.740052
C86	C	0.739615	-0.385658	1.240052
C87	C	0.122113	-0.992134	0.740053
C88	C	0.622113	-0.492134	1.240053
C89	C	0.117533	-0.996279	0.652646
C90	C	0.617533	-0.496279	1.152646
C91	C	0.173985	-0.945109	0.608945
C92	C	0.673985	-0.445109	1.108945
N93	N	0.219695	-0.903672	0.480578
N94	N	0.719695	-0.403672	0.980578
N95	N	0.169291	-0.949347	0.519604
N96	N	0.669291	-0.449347	1.019604
H97	H	0.332900	-0.671745	0.000052
H98	H	0.832900	-0.171745	0.500052
Br99	Br	0.361990	-0.496140	0.000064
Br100	Br	0.861990	0.003860	0.500064
H101	H	0.030517	-0.705249	0.000086
H102	H	0.530517	-0.205249	0.500086
H103	H	0.372525	-0.296170	0.000066
H104	H	0.872525	0.203830	0.500066
Br105	Br	0.066535	-1.042445	0.200826
Br106	Br	0.566535	-0.542445	0.700826
Br107	Br	0.343486	-0.791450	0.200811
Br108	Br	0.843486	-0.291450	0.700811
H109	H	0.067826	-1.041316	0.617066
H110	H	0.567826	-0.541316	1.117066
H111	H	0.321162	-0.811708	0.383113
H112	H	0.821162	-0.311708	0.883113
H113	H	0.358475	-0.147771	0.000088
H114	H	0.858475	0.352229	0.500088
H115	H	0.056094	-0.181277	0.000118
H116	H	0.556094	0.318723	0.500118
H117	H	0.076151	-1.033794	0.775642
H118	H	0.576151	-0.533794	1.275642
H119	H	0.289328	-0.840616	0.775630
H120	H	0.789328	-0.340616	1.275630
Br121	Br	0.027001	-0.356879	0.000124
Br122	Br	0.527001	0.143121	0.500124
H123	H	0.107992	-1.004882	0.383115
H124	H	0.607992	-0.504882	0.883115
H125	H	0.016475	-0.556847	0.000110
H126	H	0.516475	-0.056847	0.500110
Br127	Br	0.311641	-0.820357	0.593337
Br128	Br	0.811641	-0.320357	1.093337
