data_functionalizedCrystal
_audit_creation_method	'MofGen! by Chris Wilmer'
_symmetry_space_group_name_H-M	'P1'
_symmetry_Int_Tables_number	1
_symmetry_cell_setting	triclinic
loop_
_symmetry_equiv_pos_as_xyz
  x,y,z
_cell_length_a	19.077105
_cell_length_b	17.637651
_cell_length_c	19.076919
_cell_angle_alpha	80.566536
_cell_angle_beta	90.076224
_cell_angle_gamma	98.499620
loop_
_atom_site_label
_atom_site_type_symbol
_atom_site_fract_x
_atom_site_fract_y
_atom_site_fract_z
Zn1	Zn	0.993412	-0.376382	-0.369993
Zn2	Zn	1.493412	0.123618	0.130007
Zn3	Zn	0.976496	-0.501474	-0.229080
Zn4	Zn	1.476496	-0.001474	0.270920
Zn5	Zn	0.882426	-0.365960	-0.249736
Zn6	Zn	1.382426	0.134040	0.250264
Zn7	Zn	0.854398	-0.501005	-0.341921
Zn8	Zn	1.354398	-0.001005	0.158079
O9	O	0.926683	-0.436205	-0.297682
O10	O	1.426683	0.063795	0.202318
O11	O	1.088714	-0.397534	-0.354404
O12	O	1.588714	0.102466	0.145596
O13	O	0.968667	-0.479332	-0.134268
O14	O	1.468667	0.020668	0.365732
O15	O	0.915957	-0.258475	-0.286082
O16	O	1.415957	0.241525	0.213918
O17	O	1.076286	-0.489438	-0.250876
O18	O	1.576286	0.010562	0.249124
O19	O	0.997498	-0.266132	-0.374434
O20	O	1.497498	0.233868	0.125566
O21	O	0.899554	-0.379771	-0.149444
O22	O	1.399554	0.120229	0.350556
O23	O	0.781161	-0.379316	-0.258861
O24	O	1.281161	0.120684	0.241139
O25	O	0.868189	-0.488639	-0.443196
O26	O	1.368189	0.011361	0.056804
O27	O	0.760570	-0.478533	-0.326588
O28	O	1.260570	0.021467	0.173412
O29	O	0.970321	-0.397079	-0.463821
O30	O	1.470321	0.102921	0.036179
O31	O	0.941491	-0.610280	-0.223656
O32	O	1.441491	-0.110280	0.276344
O33	O	0.851786	-0.609935	-0.306559
O34	O	1.351786	-0.109935	0.193441
C35	C	0.745573	-0.427743	-0.291920
C36	C	1.245573	0.072257	0.208080
C37	C	0.668089	-0.424142	-0.289468
C38	C	1.168089	0.075858	0.210532
C39	C	0.620975	-0.474180	-0.323494
C40	C	1.120975	0.025820	0.176506
C41	C	0.548173	-0.470786	-0.321195
C42	C	1.048173	0.029214	0.178805
C43	C	0.522485	-0.417359	-0.284866
C44	C	1.022485	0.082641	0.215134
C45	C	0.569605	-0.367316	-0.250840
C46	C	1.069605	0.132684	0.249160
C47	C	0.642407	-0.370706	-0.253143
C48	C	1.142407	0.129294	0.246857
C49	C	0.305902	-0.401669	-0.274209
C50	C	0.805902	0.098331	0.225791
C51	C	0.233094	-0.398284	-0.271907
C52	C	0.733094	0.101716	0.228093
C53	C	0.211666	-0.501754	-0.342264
C54	C	0.711666	-0.001754	0.157736
C55	C	0.284470	-0.505142	-0.344561
C56	C	0.784470	-0.005142	0.155439
C57	C	0.331584	-0.455097	-0.310537
C58	C	0.831584	0.044903	0.189463
N59	N	0.448069	-0.413891	-0.282514
N60	N	0.948069	0.086109	0.217486
N61	N	0.405999	-0.458562	-0.312894
N62	N	0.905999	0.041438	0.187106
C63	C	0.891780	-0.638337	-0.259835
C64	C	1.391780	-0.138337	0.240165
C65	C	0.876910	-0.724814	-0.243670
C66	C	1.376910	-0.224814	0.256330
C67	C	1.040085	-1.028866	-0.420726
C68	C	1.540085	-0.528866	0.079274
C69	C	1.026091	-1.110122	-0.405523
C70	C	1.526091	-0.610122	0.094477
C71	C	0.941246	-1.102255	-0.313438
C72	C	1.441246	-0.602255	0.186562
C73	C	0.955235	-1.020996	-0.328631
C74	C	1.455235	-0.520996	0.171369
C75	C	1.004654	-0.984308	-0.382276
C76	C	1.504654	-0.484308	0.117724
C77	C	0.919805	-0.976439	-0.290181
C78	C	1.419805	-0.476439	0.209819
C79	C	0.933790	-0.895187	-0.305376
C80	C	1.433790	-0.395187	0.194624
C81	C	0.983205	-0.858493	-0.359020
C82	C	1.483205	-0.358493	0.140980
C83	C	1.018640	-0.903056	-0.397471
C84	C	1.518640	-0.403056	0.102529
C85	C	0.870382	-1.013129	-0.236540
C86	C	1.370382	-0.513129	0.263460
C87	C	0.834951	-0.968571	-0.198090
C88	C	1.334951	-0.468571	0.301910
C89	C	0.848940	-0.887318	-0.213281
C90	C	1.348940	-0.387318	0.286719
C91	C	0.898356	-0.850623	-0.266925
C92	C	1.398356	-0.350623	0.233075
C93	C	0.813506	-0.842754	-0.174830
C94	C	1.313506	-0.342754	0.325170
C95	C	0.827491	-0.761502	-0.190024
C96	C	1.327491	-0.261502	0.309976
C97	C	0.912341	-0.769372	-0.282119
C98	C	1.412341	-0.269372	0.217881
C99	C	1.108500	-0.444701	-0.303467
C100	C	1.608500	0.055299	0.196533
C101	C	1.185980	-0.448321	-0.305933
C102	C	1.685980	0.051679	0.194067
C103	C	0.918016	-0.443969	-0.479510
C104	C	1.418016	0.056031	0.020490
C105	C	0.914322	-0.447278	-0.556994
C106	C	1.414322	0.052722	-0.056994
C107	C	0.961741	-0.233286	-0.335693
C108	C	1.461741	0.266714	0.164307
C109	C	0.976681	-0.146813	-0.351891
C110	C	1.476681	0.353187	0.148109
C111	C	0.965759	-0.401164	-0.604135
C112	C	1.465759	0.098836	-0.104135
C113	C	0.962281	-0.404269	-0.676940
C114	C	1.462281	0.095731	-0.176940
C115	C	0.907368	-0.453493	-0.702601
C116	C	1.407368	0.046507	-0.202601
C117	C	0.855926	-0.499608	-0.655455
C118	C	1.355926	0.000392	-0.155455
C119	C	0.859402	-0.496498	-0.582652
C120	C	1.359402	0.003502	-0.082652
C121	C	0.891267	-0.467902	-0.919187
C122	C	1.391267	0.032098	-0.419187
C123	C	0.887796	-0.471010	-0.991995
C124	C	1.387796	0.028990	-0.491995
C125	C	0.994151	-0.375669	-1.013475
C126	C	1.494151	0.124331	-0.513475
C127	C	0.997624	-0.372567	-0.940669
C128	C	1.497624	0.127433	-0.440669
C129	C	0.946180	-0.418679	-0.893530
C130	C	1.446180	0.081321	-0.393530
N131	N	0.903812	-0.456670	-0.777019
N132	N	1.403812	0.043330	-0.277019
N133	N	0.949733	-0.415498	-0.819114
N134	N	1.449733	0.084502	-0.319114
C135	C	0.935366	-0.428417	-0.116574
C136	C	1.435366	0.071583	0.383426
C137	C	0.939233	-0.424896	-0.039136
C138	C	1.439233	0.075104	0.460864
H139	H	0.212184	-0.354768	-0.242329
H140	H	0.712184	0.145232	0.257671
H141	H	0.811212	-0.539684	-0.676355
H142	H	1.311212	-0.039684	-0.176355
H143	H	0.901007	-1.132138	-0.269762
H144	H	1.401007	-0.632138	0.230238
H145	H	1.058888	-0.873184	-0.441150
H146	H	1.558888	-0.373184	0.058850
H147	H	0.843076	-0.511095	-1.012885
H148	H	1.343076	-0.011095	-0.512885
H149	H	1.036033	-0.338126	-1.051864
H150	H	1.536033	0.161874	-0.551864
O151	O	1.019157	-0.353459	-0.579160
O152	O	1.519157	0.146541	-0.079160
C153	C	1.058530	-0.398050	-0.530172
C154	C	1.558530	0.101950	-0.030172
H155	H	1.051208	-0.460462	-0.540769
H156	H	1.551208	0.039538	-0.040769
H157	H	1.117075	-0.372379	-0.536327
H158	H	1.617075	0.127621	-0.036327
H159	H	1.039147	-0.397366	-0.473807
H160	H	1.539147	0.102634	0.026193
H161	H	0.548685	-0.323811	-0.221263
H162	H	1.048685	0.176189	0.278737
H163	H	0.858990	-1.079289	-0.224176
H164	H	1.358990	-0.579289	0.275824
O165	O	0.960265	-0.733634	-0.334276
O166	O	1.460265	-0.233634	0.165724
C167	C	0.926476	-0.686731	-0.386796
C168	C	1.426476	-0.186731	0.113204
H169	H	0.876926	-0.671102	-0.362752
H170	H	1.376926	-0.171102	0.137248
H171	H	0.964250	-0.631289	-0.407749
H172	H	1.464250	-0.131289	0.092251
H173	H	0.910932	-0.719875	-0.432356
H174	H	1.410932	-0.219875	0.067644
H175	H	0.680768	-0.329957	-0.225440
H176	H	1.180768	0.170043	0.274560
H177	H	0.817510	-0.534041	-0.544271
H178	H	1.317510	-0.034041	-0.044271
H179	H	0.849385	-0.505462	-0.880812
H180	H	1.349385	-0.005462	-0.380812
O181	O	1.088009	-0.993128	-0.472882
O182	O	1.588009	-0.493128	0.027118
C183	C	1.054220	-0.946226	-0.525403
C184	C	1.554220	-0.446226	-0.025403
H185	H	1.004670	-0.930596	-0.501359
H186	H	1.504670	-0.430596	-0.001359
H187	H	1.091994	-0.890783	-0.546356
H188	H	1.591994	-0.390783	-0.046356
H189	H	1.038676	-0.979369	-0.570963
H190	H	1.538676	-0.479369	-0.070963
O191	O	0.165978	-0.550325	-0.375427
O192	O	0.665978	-0.050325	0.124573
C193	C	0.183377	-0.537218	-0.448657
C194	C	0.683377	-0.037218	0.051343
H195	H	0.241329	-0.509841	-0.457412
H196	H	0.741329	-0.009841	0.042588
H197	H	0.174683	-0.594863	-0.469396
H198	H	0.674683	-0.094863	0.030604
H199	H	0.148188	-0.496352	-0.478379
H200	H	0.648188	0.003648	0.021621
O201	O	0.645810	-0.526102	-0.358843
O202	O	1.145810	-0.026102	0.141157
C203	C	0.588609	-0.569550	-0.388368
C204	C	1.088609	-0.069550	0.111632
H205	H	0.542098	-0.535376	-0.395151
H206	H	1.042098	-0.035376	0.104849
H207	H	0.605587	-0.581267	-0.442376
H208	H	1.105587	-0.081267	0.057624
H209	H	0.571888	-0.627138	-0.351455
H210	H	1.071888	-0.127138	0.148545
H211	H	0.305378	-0.548650	-0.374142
H212	H	0.805378	-0.048650	0.125858
O213	O	0.502394	-0.519289	-0.354340
O214	O	1.002394	-0.019289	0.145660
C215	C	0.465763	-0.475048	-0.406371
C216	C	0.965763	0.024952	0.093629
H217	H	0.498068	-0.414989	-0.422937
H218	H	0.998068	0.085011	0.077063
H219	H	0.457524	-0.505537	-0.454663
H220	H	0.957524	-0.005537	0.045337
H221	H	0.412077	-0.468843	-0.383589
H222	H	0.912077	0.031157	0.116411
H223	H	0.773264	-0.872638	-0.131156
H224	H	1.273264	-0.372638	0.368844
H225	H	0.344253	-0.360924	-0.246499
H226	H	0.844253	0.139076	0.253501
H227	H	1.054937	-1.146399	-0.436847
H228	H	1.554937	-0.646399	0.063153
H229	H	0.794712	-0.998454	-0.154413
H230	H	1.294712	-0.498454	0.345587
H231	H	0.798639	-0.725223	-0.158715
H232	H	1.298639	-0.225223	0.341285
O233	O	0.996855	-0.779572	-0.373894
O234	O	1.496855	-0.279572	0.126106
C235	C	1.048084	-0.756747	-0.429474
C236	C	1.548084	-0.256747	0.070526
H237	H	1.047812	-0.805744	-0.461767
H238	H	1.547812	-0.305744	0.038233
H239	H	1.035125	-0.702541	-0.465404
H240	H	1.535125	-0.202541	0.034596
H241	H	1.102738	-0.743499	-0.406194
H242	H	1.602738	-0.243499	0.093806
H243	H	1.042342	-0.332486	-0.919781
H244	H	1.542342	0.167514	-0.419781
O245	O	1.012324	-0.359451	-0.722631
O246	O	1.512324	0.140549	-0.222631
C247	C	1.061530	-0.315329	-0.684371
C248	C	1.561530	0.184671	-0.184371
H249	H	1.060913	-0.345093	-0.626583
H250	H	1.560913	0.154907	-0.126583
H251	H	1.116881	-0.310500	-0.708711
H252	H	1.616881	0.189500	-0.208711
H253	H	1.046587	-0.254717	-0.686882
H254	H	1.546587	0.245283	-0.186882
