data_functionalizedCrystal
_audit_creation_method	'MofGen! by Chris Wilmer'
_symmetry_space_group_name_H-M	'P1'
_symmetry_Int_Tables_number	1
_symmetry_cell_setting	triclinic
loop_
_symmetry_equiv_pos_as_xyz
  x,y,z
_cell_length_a	10.723024
_cell_length_b	13.596369
_cell_length_c	10.723024
_cell_angle_alpha	90.004807
_cell_angle_beta	95.532131
_cell_angle_gamma	89.994365
loop_
_atom_site_label
_atom_site_type_symbol
_atom_site_fract_x
_atom_site_fract_y
_atom_site_fract_z
O1	O	-1.657190	0.081797	0.175029
O2	O	-1.294037	0.081797	0.191783
O3	O	-1.483990	0.081793	0.001830
O4	O	-1.467237	0.081800	0.364982
O5	O	-1.483971	-0.081790	0.001820
O6	O	-1.294018	-0.081786	0.191772
O7	O	-1.657171	-0.081786	0.175019
Zn8	Zn	-1.475591	-0.107759	0.183394
Zn9	Zn	-1.475617	0.107769	0.183408
O10	O	-1.467218	-0.081783	0.364972
C11	C	-1.247528	0.000005	0.190558
C12	C	-1.108974	0.000005	0.186911
N13	N	-1.475583	-0.254850	0.183384
C14	C	-0.917217	0.000003	0.073603
C15	C	-1.060420	0.000003	0.077371
C16	C	-1.475615	-0.656141	0.183409
C17	C	-1.475602	-0.544490	0.183406
C18	C	-1.475600	-0.455499	0.183398
C19	C	-1.475586	-0.343841	0.183393
C20	C	-0.703680	0.000005	0.176243
C21	C	-0.842234	0.000005	0.179891
C22	C	-1.482762	0.000003	-0.044675
C23	C	-1.479114	0.000006	-0.183229
N24	N	-1.475635	0.254861	0.183408
C25	C	-1.585401	0.000008	-0.258212
C26	C	-1.581634	0.000011	-0.401415
C27	C	-1.468447	0.000010	0.411477
C28	C	-1.472094	0.000013	0.550031
H29	H	-0.875395	-0.000014	-0.020182
H30	H	-1.672624	0.000008	-0.465848
H31	H	-1.124853	0.000007	-0.013619
H32	H	-1.381099	0.000005	-0.385544
H33	H	-1.044549	0.000011	0.277906
N34	N	-0.897606	0.000007	0.304134
H35	H	-0.951007	-0.060633	0.310548
H36	H	-0.950959	0.060688	0.310478
H37	H	-1.679187	0.000001	-0.216390
H38	H	-1.385328	0.000013	-0.225051
