data_functionalizedCrystal
_audit_creation_method	'MofGen! by Chris Wilmer'
_symmetry_space_group_name_H-M	'P1'
_symmetry_Int_Tables_number	1
_symmetry_cell_setting	triclinic
loop_
_symmetry_equiv_pos_as_xyz
  x,y,z
_cell_length_a	16.109302
_cell_length_b	10.654536
_cell_length_c	15.186229
_cell_angle_alpha	89.989035
_cell_angle_beta	90.007553
_cell_angle_gamma	96.028119
loop_
_atom_site_label
_atom_site_type_symbol
_atom_site_fract_x
_atom_site_fract_y
_atom_site_fract_z
O1	O	1.104090	-0.161417	0.073289
O2	O	0.862148	-0.181505	0.073285
O3	O	0.988685	0.011355	0.073258
O4	O	0.977553	-0.354276	0.073317
O5	O	0.988670	0.011344	-0.073200
O6	O	0.862133	-0.181516	-0.073172
O7	O	1.104076	-0.161428	-0.073168
Zn8	Zn	0.983102	-0.171474	-0.096423
Zn9	Zn	0.983121	-0.171459	0.096540
O10	O	0.977538	-0.354287	-0.073140
C11	C	0.831160	-0.180696	0.000055
C12	C	0.738851	-0.178256	0.000052
C13	C	0.526468	-0.172620	-0.079774
C14	C	0.439735	-0.170314	-0.079771
C15	C	0.439761	-0.170309	0.079905
C16	C	0.526494	-0.172606	0.079901
C17	C	0.569845	-0.173768	0.000059
C18	C	0.396378	-0.169165	0.000066
C19	C	0.302338	-0.166664	0.000069
C20	C	0.663892	-0.176266	0.000055
C21	C	0.987861	0.058136	0.000023
C22	C	0.985420	0.197547	0.000006
C23	C	1.136727	0.227570	-0.000005
C24	C	1.211230	0.308075	-0.000021
C25	C	1.208931	0.439062	-0.000036
C26	C	1.132120	0.489546	-0.000032
C27	C	1.057617	0.409041	-0.000016
C28	C	1.059925	0.278052	-0.000004
C29	C	0.906312	0.379018	0.000001
C30	C	0.908609	0.248030	0.000010
C31	C	0.829501	0.429502	0.000005
C32	C	0.754996	0.348996	0.000015
C33	C	0.757299	0.218002	0.000028
C34	C	0.834106	0.167526	0.000026
C35	C	1.135063	-0.162236	0.000064
C36	C	1.227372	-0.164676	0.000073
N37	N	0.983094	-0.171483	-0.228116
C38	C	0.978365	0.598932	0.000062
C39	C	0.980815	0.459523	-0.000015
C40	C	1.033970	-0.247654	-0.453825
C41	C	1.033979	-0.247645	-0.546014
C42	C	0.932258	-0.095260	-0.546052
C43	C	0.932254	-0.095263	-0.453864
C44	C	0.983108	-0.171467	-0.407753
C45	C	0.983121	-0.171455	-0.592130
C46	C	0.983131	-0.171445	-0.692086
C47	C	0.983100	-0.171476	-0.307790
N48	N	0.983135	-0.171440	0.228233
H49	H	0.404454	-0.169364	0.144909
C50	C	0.574155	-0.173894	-0.167597
C51	C	0.526438	-0.172630	-0.255412
C52	C	0.574122	-0.173903	-0.343238
C53	C	0.669524	-0.176439	-0.343249
C54	C	0.717247	-0.177703	-0.255431
C55	C	0.669563	-0.176430	-0.167605
H56	H	0.455811	-0.170752	-0.255406
H57	H	0.538794	-0.172967	-0.408246
H58	H	0.704823	-0.177382	-0.408263
H59	H	0.787874	-0.179581	-0.255437
H60	H	0.704891	-0.177366	-0.102596
H61	H	0.561813	-0.173537	0.144915
H62	H	1.138607	0.120915	-0.000005
H63	H	0.404421	-0.169380	-0.144779
H64	H	1.273768	0.266956	-0.000032
C65	C	0.670513	0.404529	0.000024
C66	C	0.667982	0.548610	0.000020
C67	C	0.583496	0.604147	0.000031
C68	C	0.501542	0.515603	0.000046
C69	C	0.504070	0.371513	0.000050
C70	C	0.588555	0.315976	0.000039
H71	H	0.728652	0.614163	0.000009
H72	H	0.581625	0.710812	0.000028
H73	H	0.439001	0.556715	0.000054
H74	H	0.443400	0.305960	0.000061
H75	H	0.590426	0.209311	0.000042
H76	H	1.269598	0.504610	-0.000042
C77	C	1.089916	-0.331464	-0.403102
C78	C	1.145867	-0.415260	-0.453784
C79	C	1.201817	-0.499069	-0.403064
C80	C	1.201816	-0.499081	-0.301661
C81	C	1.145863	-0.415281	-0.250972
C82	C	1.089913	-0.331473	-0.301693
H83	H	1.145869	-0.415254	-0.528854
H84	H	1.243237	-0.561102	-0.440588
H85	H	1.243234	-0.561121	-0.264115
H86	H	1.145861	-0.415287	-0.175903
H87	H	1.048493	-0.269439	-0.264169
C88	C	1.089927	-0.331455	-0.596691
C89	C	1.185270	-0.312992	-0.583989
C90	C	1.241223	-0.396805	-0.634664
C91	C	1.201833	-0.499080	-0.698040
C92	C	1.106485	-0.517547	-0.710744
C93	C	1.050532	-0.433735	-0.660070
H94	H	1.214433	-0.237278	-0.537072
H95	H	1.311806	-0.383134	-0.625259
H96	H	1.243253	-0.561123	-0.735553
H97	H	1.077322	-0.593262	-0.757662
H98	H	0.979949	-0.447406	-0.669475
H99	H	0.835988	0.060871	0.000032
C100	C	0.876300	-0.011456	-0.403177
C101	C	0.820353	0.072352	-0.453893
C102	C	0.764405	0.156159	-0.403206
C103	C	0.764404	0.156157	-0.301803
C104	C	0.820353	0.072345	-0.251081
C105	C	0.876301	-0.011461	-0.301768
H106	H	0.820353	0.072357	-0.528963
H107	H	0.722988	0.218201	-0.440754
H108	H	0.722988	0.218195	-0.264281
H109	H	0.820354	0.072341	-0.176011
H110	H	0.917718	-0.073504	-0.264220
C111	C	0.876308	-0.011463	-0.596781
C112	C	0.915697	0.090812	-0.660175
C113	C	0.859741	0.174602	-0.710904
C114	C	0.764396	0.156117	-0.698240
C115	C	0.725003	0.053837	-0.634844
C116	C	0.780959	-0.029953	-0.584114
H117	H	0.986281	0.104500	-0.669552
H118	H	0.888903	0.250316	-0.757834
H119	H	0.722975	0.218143	-0.735793
H120	H	0.654419	0.040149	-0.625467
H121	H	0.751796	-0.105667	-0.537184
H122	H	1.130255	0.596203	-0.000033
H123	H	0.827634	0.536159	-0.000002
H124	H	0.696629	0.152461	0.000045
