data_functionalizedCrystal
_audit_creation_method	'MofGen! by Chris Wilmer'
_symmetry_space_group_name_H-M	'P1'
_symmetry_Int_Tables_number	1
_symmetry_cell_setting	triclinic
loop_
_symmetry_equiv_pos_as_xyz
  x,y,z
_cell_length_a	19.077212
_cell_length_b	19.076808
_cell_length_c	21.395356
_cell_angle_alpha	87.675140
_cell_angle_beta	87.679561
_cell_angle_gamma	94.518968
loop_
_atom_site_label
_atom_site_type_symbol
_atom_site_fract_x
_atom_site_fract_y
_atom_site_fract_z
Zn1	Zn	1.066444	-0.237507	-0.384009
Zn2	Zn	1.566444	0.262493	0.115991
Zn3	Zn	1.061626	-0.355401	-0.274840
Zn4	Zn	1.561626	0.144599	0.225160
Zn5	Zn	0.948559	-0.242246	-0.274848
Zn6	Zn	1.448559	0.257754	0.225152
Zn7	Zn	0.943785	-0.360091	-0.375186
Zn8	Zn	1.443785	0.139909	0.124814
O9	O	1.005103	-0.298811	-0.327221
O10	O	1.505103	0.201189	0.172779
O11	O	1.164457	-0.249200	-0.373216
O12	O	1.664457	0.250800	0.126784
O13	O	1.046609	-0.340411	-0.187162
O14	O	1.546609	0.159589	0.312838
O15	O	0.968212	-0.142961	-0.293024
O16	O	1.468212	0.357039	0.206976
O17	O	1.160917	-0.335816	-0.293010
O18	O	1.660917	0.164184	0.206990
O19	O	1.054821	-0.139479	-0.373224
O20	O	1.554821	0.360521	0.126776
O21	O	0.963540	-0.257277	-0.187168
O22	O	1.463540	0.242723	0.312832
O23	O	0.849274	-0.261825	-0.284469
O24	O	1.349274	0.238175	0.215531
O25	O	0.960074	-0.343809	-0.464036
O26	O	1.460074	0.156191	0.035964
O27	O	0.845766	-0.348405	-0.358187
O28	O	1.345766	0.151595	0.141813
O29	O	1.050191	-0.253748	-0.470518
O30	O	1.550191	0.246252	0.029482
O31	O	1.041979	-0.454680	-0.284456
O32	O	1.541979	0.045320	0.215544
O33	O	0.955402	-0.458126	-0.358179
O34	O	1.455402	0.041874	0.141821
C35	C	0.821941	-0.306139	-0.320372
C36	C	1.321941	0.193861	0.179628
C37	C	0.743582	-0.309290	-0.317457
C38	C	1.243582	0.190710	0.182543
C39	C	0.997669	-0.481983	-0.320374
C40	C	1.497669	0.018017	0.179626
C41	C	0.994553	-0.560342	-0.317468
C42	C	1.494553	-0.060342	0.182532
C43	C	0.302309	-0.331864	-0.296576
C44	C	0.802309	0.168136	0.203424
C45	C	0.375935	-0.328899	-0.299311
C46	C	0.875935	0.171101	0.200689
C47	C	0.414590	-0.282394	-0.342499
C48	C	0.914590	0.217606	0.157501
C49	C	0.379616	-0.238846	-0.382952
C50	C	0.879616	0.261154	0.117048
C51	C	0.305991	-0.241808	-0.380213
C52	C	0.805991	0.258192	0.119787
C53	C	0.634983	-0.268704	-0.355171
C54	C	1.134983	0.231296	0.144829
C55	C	0.708613	-0.265747	-0.357907
C56	C	1.208613	0.234253	0.142093
C57	C	0.704927	-0.355800	-0.274265
C58	C	1.204927	0.144200	0.225735
C59	C	0.631301	-0.358760	-0.271533
C60	C	1.131301	0.141240	0.228467
C61	C	0.596333	-0.315210	-0.311983
C62	C	1.096333	0.184790	0.188017
N63	N	0.489848	-0.279364	-0.345297
N64	N	0.989848	0.220636	0.154703
N65	N	0.521076	-0.318237	-0.309182
N66	N	1.021076	0.181763	0.190818
C67	C	1.038148	-0.595283	-0.357889
C68	C	1.538148	-0.095283	0.142111
C69	C	1.035217	-0.668910	-0.355160
C70	C	1.535217	-0.168910	0.144840
C71	C	0.988694	-0.707594	-0.312005
C72	C	1.488694	-0.207594	0.187995
C73	C	0.945094	-0.672648	-0.271582
C74	C	1.445094	-0.172648	0.228418
C75	C	0.948022	-0.599022	-0.274315
C76	C	1.448022	-0.099022	0.225685
C77	C	0.975103	-0.927990	-0.299354
C78	C	1.475103	-0.427990	0.200646
C79	C	0.972180	-1.001621	-0.296623
C80	C	1.472180	-0.501621	0.203377
C81	C	1.062302	-0.997878	-0.380202
C82	C	1.562302	-0.497878	0.119798
C83	C	1.065229	-0.924251	-0.382928
C84	C	1.565229	-0.424251	0.117072
C85	C	1.021626	-0.889311	-0.342507
C86	C	1.521626	-0.389311	0.157493
N87	N	0.985699	-0.782852	-0.309213
N88	N	1.485699	-0.282852	0.190787
N89	N	1.024618	-0.814055	-0.345303
N90	N	1.524618	-0.314055	0.154697
C91	C	1.188981	-0.291456	-0.334096
C92	C	1.688981	0.208544	0.165904
C93	C	1.267339	-0.288321	-0.337026
C94	C	1.767339	0.211679	0.162974
C95	C	1.005137	-0.298773	-0.490647
C96	C	1.505137	0.201227	0.009353
C97	C	1.005152	-0.298757	-0.560289
C98	C	1.505152	0.201243	-0.060289
C99	C	1.012586	-0.114924	-0.334109
C100	C	1.512586	0.385076	0.165891
C101	C	1.015775	-0.036562	-0.337044
C102	C	1.515775	0.463438	0.162956
C103	C	1.048491	-0.341893	-1.062091
C104	C	1.548491	0.158107	-0.562091
C105	C	1.048477	-0.341916	-0.996655
C106	C	1.548477	0.158084	-0.496655
C107	C	1.005223	-0.298642	-0.963934
C108	C	1.505223	0.201358	-0.463934
C109	C	0.961966	-0.255355	-0.996655
C110	C	1.461966	0.244645	-0.496655
C111	C	0.961976	-0.255339	-1.062090
C112	C	1.461976	0.244661	-0.562090
C113	C	1.002226	-0.235373	-0.862435
C114	C	1.502226	0.264627	-0.362435
C115	C	1.002221	-0.235388	-0.797002
C116	C	1.502221	0.264612	-0.297002
C117	C	1.005190	-0.298693	-0.762110
C118	C	1.505190	0.201307	-0.262110
C119	C	1.008177	-0.361985	-0.792661
C120	C	1.508177	0.138015	-0.292661
C121	C	1.008187	-0.361969	-0.858096
C122	C	1.508187	0.138031	-0.358096
C123	C	1.005208	-0.298655	-0.892981
C124	C	1.505208	0.201345	-0.392981
C125	C	1.048425	-0.342006	-0.658443
C126	C	1.548425	0.157994	-0.158443
C127	C	1.048407	-0.342030	-0.593005
C128	C	1.548407	0.157970	-0.093005
C129	C	0.961900	-0.255463	-0.593007
C130	C	1.461900	0.244537	-0.093007
C131	C	0.961914	-0.255445	-0.658444
C132	C	1.461914	0.244555	-0.158444
C133	C	1.005181	-0.298715	-0.691158
C134	C	1.505181	0.201285	-0.191158
C135	C	1.005112	-0.298797	-0.164434
C136	C	1.505112	0.201203	0.335566
C137	C	1.005242	-0.298609	-0.094805
C138	C	1.505242	0.201391	0.405195
H139	H	0.270840	-0.369737	-0.261410
H140	H	0.770840	0.130263	0.238590
H141	H	0.733406	-0.391255	-0.241332
H142	H	1.233406	0.108745	0.258668
H143	H	0.740084	-0.227872	-0.393076
H144	H	1.240084	0.272128	0.106924
H145	H	0.934292	-1.033116	-0.261481
H146	H	1.434292	-0.533116	0.238519
O147	O	0.919912	-0.213417	-0.964799
O148	O	1.419912	0.286583	-0.464799
C149	C	0.872733	-0.255391	-0.923751
C150	C	1.372733	0.244609	-0.423751
H151	H	0.895425	-0.307825	-0.912879
H152	H	1.395425	0.192175	-0.412879
H153	H	0.820177	-0.265224	-0.946721
H154	H	1.320177	0.234776	-0.446721
C155	C	0.833667	-0.152727	-0.875921
C156	C	1.333667	0.347273	-0.375921
C157	C	0.861540	-0.217125	-0.862564
C158	C	1.361540	0.282875	-0.362564
H159	H	0.826759	-0.129123	-0.838180
H160	H	1.326759	0.370877	-0.338180
H161	H	0.865450	-0.124448	-0.903578
H162	H	1.365450	0.375552	-0.403578
H163	H	0.789873	-0.160931	-0.895064
H164	H	1.289873	0.339069	-0.395064
H165	H	0.905337	-0.208920	-0.843429
H166	H	1.405337	0.291080	-0.343429
H167	H	0.829764	-0.245402	-0.834903
H168	H	1.329764	0.254598	-0.334903
O169	O	1.090523	-0.383940	-0.690262
O170	O	1.590523	0.116060	-0.190262
C171	C	1.137684	-0.341972	-0.731330
C172	C	1.637684	0.158028	-0.231330
H173	H	1.144299	-0.286278	-0.713850
H174	H	1.644299	0.213722	-0.213850
H175	H	1.115993	-0.340400	-0.780196
H176	H	1.615993	0.159600	-0.280196
C177	C	1.201444	-0.441892	-0.755260
C178	C	1.701444	0.058108	-0.255260
C179	C	1.209572	-0.373489	-0.733788
C180	C	1.709572	0.126511	-0.233788
H181	H	1.245787	-0.461334	-0.756779
H182	H	1.745787	0.038666	-0.256779
H183	H	1.169669	-0.470168	-0.727593
H184	H	1.669669	0.029832	-0.227593
H185	H	1.183365	-0.440573	-0.795980
H186	H	1.683365	0.059427	-0.295980
H187	H	1.227642	-0.374810	-0.693066
H188	H	1.727642	0.125190	-0.193066
H189	H	1.241352	-0.345214	-0.761448
H190	H	1.741352	0.154786	-0.261448
H191	H	0.926700	-0.220195	-0.685079
H192	H	1.426700	0.279805	-0.185079
O193	O	0.932731	-0.894166	-0.260019
O194	O	1.432731	-0.394166	0.239981
C195	C	0.891036	-0.944100	-0.221352
C196	C	1.391036	-0.444100	0.278648
H197	H	0.917829	-0.995402	-0.218344
H198	H	1.417829	-0.495402	0.281656
H199	H	0.837162	-0.954108	-0.241957
H200	H	1.337162	-0.454108	0.258043
C201	C	0.849166	-0.852818	-0.159039
C202	C	1.349166	-0.352818	0.340961
C203	C	0.882076	-0.915826	-0.155340
C204	C	1.382076	-0.415826	0.344660
H205	H	0.843636	-0.835377	-0.118320
H206	H	1.343636	-0.335377	0.381680
H207	H	0.877255	-0.819176	-0.185090
H208	H	1.377255	-0.319176	0.314910
H209	H	0.804275	-0.861166	-0.176212
H210	H	1.304275	-0.361166	0.323788
H211	H	0.926970	-0.907475	-0.138174
H212	H	1.426970	-0.407475	0.361826
H213	H	0.853995	-0.949466	-0.129283
H214	H	1.353995	-0.449466	0.370717
H215	H	0.404404	-0.364356	-0.266371
H216	H	0.904404	0.135644	0.233629
H217	H	1.097800	-1.026334	-0.413111
H218	H	1.597800	-0.526334	0.086889
H219	H	0.411095	-0.200978	-0.418115
H220	H	0.911095	0.299022	0.081885
O221	O	0.271937	-0.199614	-0.419533
O222	O	0.771937	0.300386	0.080467
C223	C	0.227753	-0.241528	-0.456864
C224	C	0.727753	0.258472	0.043136
H225	H	0.214553	-0.295365	-0.432281
H226	H	0.714553	0.204635	0.067719
H227	H	0.255831	-0.248204	-0.504049
H228	H	0.755831	0.251796	-0.004049
C229	C	0.175603	-0.139446	-0.497307
C230	C	0.675603	0.360554	0.002693
C231	C	0.159386	-0.205568	-0.467110
C232	C	0.659386	0.294432	0.032890
H233	H	0.133432	-0.117263	-0.503630
H234	H	0.633432	0.382737	-0.003630
H235	H	0.205372	-0.111207	-0.472158
H236	H	0.705372	0.388793	0.027842
H237	H	0.199003	-0.145019	-0.536625
H238	H	0.699003	0.354981	-0.036625
H239	H	0.135995	-0.199993	-0.427791
H240	H	0.635995	0.300007	0.072209
H241	H	0.129611	-0.233805	-0.492253
H242	H	0.629611	0.266195	0.007747
H243	H	0.999793	-0.183852	-0.772133
H244	H	1.499793	0.316148	-0.272133
H245	H	0.999856	-0.183812	-0.890841
H246	H	1.499856	0.316188	-0.390841
O247	O	0.919946	-0.213447	-0.561135
O248	O	1.419946	0.286553	-0.061135
C249	C	0.929194	-0.222759	-0.496364
C250	C	1.429194	0.277241	0.003636
H251	H	0.982659	-0.243670	-0.488597
H252	H	1.482659	0.256330	0.011403
H253	H	0.885849	-0.261984	-0.474826
H254	H	1.385849	0.238016	0.025174
C255	C	0.859955	-0.126011	-0.474734
C256	C	1.359955	0.373989	0.025266
C257	C	0.925626	-0.151689	-0.465195
C258	C	1.425626	0.348311	0.034805
H259	H	0.857751	-0.082174	-0.455506
H260	H	1.357751	0.417826	0.044494
H261	H	0.853722	-0.119739	-0.518371
H262	H	1.353722	0.380261	-0.018371
H263	H	0.823842	-0.158706	-0.456786
H264	H	1.323842	0.341294	0.043214
H265	H	0.961736	-0.118999	-0.483150
H266	H	1.461736	0.381001	0.016850
H267	H	0.931865	-0.157954	-0.421560
H268	H	1.431865	0.342046	0.078440
H269	H	0.907211	-0.704150	-0.236447
H270	H	1.407211	-0.204150	0.263553
O271	O	0.919946	-0.213222	-1.093776
O272	O	1.419946	0.286778	-0.593776
C273	C	0.881748	-0.175046	-1.050867
C274	C	1.381748	0.324954	-0.550867
H275	H	0.910712	-0.171461	-1.005393
H276	H	1.410712	0.328539	-0.505393
H277	H	0.827155	-0.203010	-1.040940
H278	H	1.327155	0.296990	-0.540940
C279	C	0.839067	-0.104814	-1.134685
C280	C	1.339067	0.395186	-0.634685
C281	C	0.874645	-0.100407	-1.078835
C282	C	1.374645	0.399593	-0.578835
H283	H	0.834682	-0.058775	-1.151937
H284	H	1.334682	0.441225	-0.651937
H285	H	0.864799	-0.130536	-1.163594
H286	H	1.364799	0.369464	-0.663594
H287	H	0.793577	-0.128121	-1.126405
H288	H	1.293577	0.371879	-0.626405
H289	H	0.920136	-0.077109	-1.087117
H290	H	1.420136	0.422891	-0.587117
H291	H	0.848920	-0.074679	-1.049928
H292	H	1.348920	0.425321	-0.549928
O293	O	0.905646	-0.565188	-0.234986
O294	O	1.405646	-0.065188	0.265014
C295	C	0.863942	-0.615118	-0.196322
C296	C	1.363942	-0.115118	0.303678
H297	H	0.890735	-0.666419	-0.193301
H298	H	1.390735	-0.166419	0.306699
H299	H	0.810074	-0.625130	-0.216937
H300	H	1.310074	-0.125130	0.283063
C301	C	0.822053	-0.523827	-0.134030
C302	C	1.322053	-0.023827	0.365970
C303	C	0.854964	-0.586834	-0.130315
C304	C	1.354964	-0.086834	0.369685
H305	H	0.816511	-0.506380	-0.093314
H306	H	1.316511	-0.006380	0.406686
H307	H	0.850147	-0.490188	-0.160080
H308	H	1.350147	0.009812	0.339920
H309	H	0.777167	-0.532179	-0.151212
H310	H	1.277167	-0.032179	0.348788
H311	H	0.899852	-0.578480	-0.113141
H312	H	1.399852	-0.078480	0.386859
H313	H	0.826876	-0.620471	-0.104260
H314	H	1.326876	-0.120471	0.395740
O315	O	0.601131	-0.226377	-0.394529
O316	O	1.101131	0.273623	0.105471
C317	C	0.651040	-0.184687	-0.433224
C318	C	1.151040	0.315313	0.066776
H319	H	0.702352	-0.211461	-0.436222
H320	H	1.202352	0.288539	0.063778
H321	H	0.661032	-0.130793	-0.412653
H322	H	1.161032	0.369207	0.087347
C323	C	0.559724	-0.142898	-0.495550
C324	C	1.059724	0.357102	0.004450
C325	C	0.622744	-0.175785	-0.499236
C326	C	1.122744	0.324215	0.000764
H327	H	0.542269	-0.137403	-0.536269
H328	H	1.042269	0.362597	-0.036269
H329	H	0.526098	-0.170983	-0.469479
H330	H	1.026098	0.329017	0.030521
H331	H	0.568059	-0.097990	-0.478405
H332	H	1.068059	0.402010	0.021595
H333	H	0.614406	-0.220695	-0.516374
H334	H	1.114406	0.279305	-0.016374
H335	H	0.656368	-0.147707	-0.525312
H336	H	1.156368	0.352293	-0.025312
H337	H	1.083621	-0.377284	-0.566371
H338	H	1.583621	0.122716	-0.066371
H339	H	1.083706	-0.377155	-0.970015
H340	H	1.583706	0.122845	-0.470015
H341	H	1.010617	-0.413503	-0.882968
H342	H	1.510617	0.086497	-0.382968
H343	H	0.599832	-0.396629	-0.236363
H344	H	1.099832	0.103371	0.263637
O345	O	1.010937	-0.423487	-0.758749
O346	O	1.510937	0.076513	-0.258749
C347	C	0.950555	-0.434986	-0.718303
C348	C	1.450555	0.065014	-0.218303
H349	H	0.906538	-0.404440	-0.737532
H350	H	1.406538	0.095560	-0.237532
H351	H	0.963438	-0.416262	-0.669846
H352	H	1.463438	0.083738	-0.169846
C353	C	0.980718	-0.551617	-0.689987
C354	C	1.480718	-0.051617	-0.189987
C355	C	0.926654	-0.514105	-0.713607
C356	C	1.426654	-0.014105	-0.213607
H357	H	0.965976	-0.600422	-0.687087
H358	H	1.465976	-0.100422	-0.187087
H359	H	1.021400	-0.543870	-0.717234
H360	H	1.521400	-0.043870	-0.217234
H361	H	0.991449	-0.536006	-0.649608
H362	H	1.491449	-0.036006	-0.149608
H363	H	0.915931	-0.529711	-0.753988
H364	H	1.415931	-0.029711	-0.253988
H365	H	0.885970	-0.521857	-0.686366
H366	H	1.385970	-0.021857	-0.186366
H367	H	1.076034	-0.563791	-0.393028
H368	H	1.576034	-0.063791	0.106972
H369	H	1.083720	-0.377130	-1.088723
H370	H	1.583720	0.122870	-0.588723
H371	H	1.070722	-0.697355	-0.388071
H372	H	1.570722	-0.197355	0.111929
H373	H	1.103111	-0.892756	-0.418068
H374	H	1.603111	-0.392756	0.081932
