data_functionalizedCrystal
_audit_creation_method	'MofGen! by Chris Wilmer'
_symmetry_space_group_name_H-M	'P1'
_symmetry_Int_Tables_number	1
_symmetry_cell_setting	triclinic
loop_
_symmetry_equiv_pos_as_xyz
  x,y,z
_cell_length_a	23.532407
_cell_length_b	22.010155
_cell_length_c	23.532407
_cell_angle_alpha	90.009202
_cell_angle_beta	82.848712
_cell_angle_gamma	90.013018
loop_
_atom_site_label
_atom_site_type_symbol
_atom_site_fract_x
_atom_site_fract_y
_atom_site_fract_z
O1	O	0.755269	0.050493	0.069134
O2	O	1.255269	0.550493	0.569134
O3	O	0.589405	0.050503	0.079137
O4	O	1.089405	0.550503	0.579137
O5	O	0.677339	0.050487	-0.008796
O6	O	1.177339	0.550487	0.491204
O7	O	0.667336	0.050510	0.157067
O8	O	1.167336	0.550510	0.657067
O9	O	0.677312	-0.050564	-0.008796
O10	O	1.177312	0.449436	0.491204
O11	O	0.589379	-0.050547	0.079137
O12	O	1.089379	0.449453	0.579137
O13	O	0.755242	-0.050557	0.069134
O14	O	1.255242	0.449443	0.569134
Cu15	Cu	0.672308	-0.059779	0.074135
Cu16	Cu	1.172308	0.440221	0.574135
Cu17	Cu	0.672340	0.059725	0.074135
Cu18	Cu	1.172340	0.559725	0.574135
O19	O	0.667309	-0.050541	0.157067
O20	O	1.167309	0.449459	0.657067
C21	C	0.568176	-0.000021	0.078882
C22	C	1.068176	0.499979	0.578882
C23	C	0.504959	-0.000017	0.078116
C24	C	1.004959	0.499983	0.578116
C25	C	0.238792	-0.000041	0.022921
C26	C	0.738792	0.499959	0.522921
C27	C	0.298192	-0.000041	0.023632
C28	C	0.798192	0.499959	0.523632
O29	O	0.334937	-0.000068	-0.020153
O30	O	0.834937	0.499932	0.479847
N31	N	0.320818	-0.000030	0.075909
N32	N	0.820818	0.499970	0.575909
C33	C	0.284041	-0.000025	0.127477
C34	C	0.784041	0.499975	0.627477
O35	O	0.308740	-0.000016	0.172007
O36	O	0.808740	0.499984	0.672007
C37	C	0.224642	-0.000029	0.126765
C38	C	0.724642	0.499971	0.626765
C39	C	0.202019	-0.000035	0.074485
C40	C	0.702019	0.499965	0.574485
C41	C	0.216168	-0.000047	-0.029354
C42	C	0.716168	0.499953	0.470646
C43	C	0.156772	-0.000046	-0.030066
C44	C	0.656772	0.499954	0.469934
C45	C	0.119999	-0.000039	0.021499
C46	C	0.619999	0.499961	0.521499
C47	C	0.142623	-0.000034	0.073774
C48	C	0.642623	0.499966	0.573774
C49	C	0.187865	-0.000029	0.178333
C50	C	0.687865	0.499971	0.678333
C51	C	0.128463	-0.000034	0.177616
C52	C	0.628463	0.499966	0.677616
C53	C	0.105840	-0.000039	0.125336
C54	C	0.605840	0.499961	0.625336
C55	C	0.046454	-0.000026	0.124627
C56	C	0.546454	0.499974	0.624627
N57	N	0.023828	-0.000037	0.072351
N58	N	0.523828	0.499963	0.572351
C59	C	0.060600	-0.000044	0.020787
C60	C	0.560600	0.499956	0.520787
C61	C	0.408783	-0.000016	0.128968
C62	C	0.908783	0.499984	0.628968
C63	C	0.468181	-0.000007	0.129681
C64	C	0.968181	0.499993	0.629681
C65	C	0.482328	-0.000025	0.025836
C66	C	0.982328	0.499975	0.525836
C67	C	0.422929	-0.000029	0.025124
C68	C	0.922929	0.499971	0.525124
C69	C	0.386157	-0.000027	0.076692
C70	C	0.886157	0.499973	0.576692
C71	C	-0.064136	-0.000042	0.019297
C72	C	0.435864	0.499958	0.519297
C73	C	-0.123538	-0.000038	0.018590
C74	C	0.376462	0.499962	0.518590
C75	C	-0.137680	-0.000024	0.122435
C76	C	0.362320	0.499976	0.622435
C77	C	-0.078284	-0.000024	0.123142
C78	C	0.421716	0.499976	0.623142
C79	C	-0.041512	-0.000035	0.071568
C80	C	0.458488	0.499965	0.571568
O81	O	0.009675	-0.000001	0.168390
O82	O	0.509675	0.499999	0.668390
O83	O	0.035892	-0.000061	-0.023737
O84	O	0.535892	0.499939	0.476263
N85	N	0.672291	-0.143831	0.074135
N86	N	1.172291	0.356169	0.574135
C87	C	0.706685	-0.563608	0.108496
C88	C	1.206685	-0.063608	0.608496
C89	C	0.706692	-0.627216	0.108495
C90	C	1.206692	-0.127216	0.608495
O91	O	0.735915	-0.660105	0.137706
O92	O	1.235915	-0.160105	0.637706
N93	N	0.672351	-0.659038	0.074129
N94	N	1.172351	-0.159038	0.574129
C95	C	0.638005	-0.627250	0.039758
C96	C	1.138005	-0.127250	0.539758
O97	O	0.608796	-0.660159	0.010527
O98	O	1.108796	-0.160159	0.510527
C99	C	0.638002	-0.563644	0.039757
C100	C	1.138002	-0.063644	0.539757
C101	C	0.672341	-0.531824	0.074129
C102	C	1.172341	-0.031824	0.574129
C103	C	0.741022	-0.531789	0.142865
C104	C	1.241022	-0.031789	0.642865
C105	C	0.741014	-0.468185	0.142867
C106	C	1.241014	0.031815	0.642867
C107	C	0.706670	-0.436402	0.108500
C108	C	1.206670	0.063598	0.608500
C109	C	0.672333	-0.468221	0.074131
C110	C	1.172333	0.031779	0.574131
C111	C	0.603660	-0.531857	0.005383
C112	C	1.103660	-0.031857	0.505383
C113	C	0.603660	-0.468246	0.005385
C114	C	1.103660	0.031754	0.505385
C115	C	0.637999	-0.436427	0.039757
C116	C	1.137999	0.063573	0.539757
C117	C	0.637981	-0.372834	0.039766
C118	C	1.137981	0.127166	0.539766
N119	N	0.672322	-0.341012	0.074132
N120	N	1.172322	0.158988	0.574132
C121	C	0.706667	-0.372795	0.108499
C122	C	1.206667	0.127205	0.608499
C123	C	0.638015	-0.760828	0.039763
C124	C	1.138015	-0.260828	0.539763
C125	C	0.638015	-0.824433	0.039766
C126	C	1.138015	-0.324433	0.539766
C127	C	0.706703	-0.824394	0.108502
C128	C	1.206703	-0.324394	0.608502
C129	C	0.706699	-0.760788	0.108501
C130	C	1.206699	-0.260788	0.608501
C131	C	0.672356	-0.729005	0.074128
C132	C	1.172356	-0.229005	0.574128
C133	C	0.706647	-0.239224	0.108501
C134	C	1.206647	0.260776	0.608501
C135	C	0.706635	-0.175615	0.108502
C136	C	1.206635	0.324385	0.608502
C137	C	0.637950	-0.175660	0.039764
C138	C	1.137950	0.324340	0.539764
C139	C	0.637960	-0.239263	0.039765
C140	C	1.137960	0.260737	0.539765
C141	C	0.672313	-0.271043	0.074135
C142	C	1.172313	0.228957	0.574135
O143	O	0.608775	-0.339905	0.010569
O144	O	1.108775	0.160095	0.510569
O145	O	0.735876	-0.339879	0.137720
O146	O	1.235876	0.160121	0.637720
C147	C	0.776472	-0.000032	0.069389
C148	C	1.276472	0.499968	0.569389
C149	C	0.839689	-0.000032	0.070155
C150	C	1.339689	0.499968	0.570155
C151	C	0.677071	-0.000040	-0.030012
C152	C	1.177071	0.499960	0.469988
C153	C	0.676305	-0.000045	-0.093229
C154	C	1.176305	0.499955	0.406771
N155	N	0.672362	0.143777	0.074131
N156	N	1.172362	0.643777	0.574131
C157	C	0.723538	-0.000014	-0.492332
C158	C	1.223538	0.499986	0.007668
C159	C	0.722827	-0.000010	-0.551733
C160	C	1.222827	0.499990	-0.051733
O161	O	0.766613	0.000010	-0.588477
O162	O	1.266613	0.500010	-0.088477
N163	N	0.670551	-0.000007	-0.574359
N164	N	1.170551	0.499993	-0.074359
C165	C	0.618982	-0.000002	-0.537581
C166	C	1.118982	0.499998	-0.037581
O167	O	0.574452	0.000001	-0.562281
O168	O	1.074452	0.500001	-0.062281
C169	C	0.619695	-0.000003	-0.478182
C170	C	1.119695	0.499997	0.021818
C171	C	0.671974	-0.000012	-0.455559
C172	C	1.171974	0.499988	0.044441
C173	C	0.775814	-0.000023	-0.469709
C174	C	1.275814	0.499977	0.030291
C175	C	0.776525	-0.000028	-0.410313
C176	C	1.276525	0.499972	0.089687
C177	C	0.724961	-0.000026	-0.373540
C178	C	1.224961	0.499974	0.126460
C179	C	0.672685	-0.000018	-0.396163
C180	C	1.172685	0.499982	0.103837
C181	C	0.568127	0.000006	-0.441406
C182	C	1.068127	0.500006	0.058594
C183	C	0.568843	0.000006	-0.382003
C184	C	1.068843	0.500006	0.117997
C185	C	0.621123	-0.000003	-0.359381
C186	C	1.121123	0.499997	0.140619
C187	C	0.621832	-0.000021	-0.299994
C188	C	1.121832	0.499979	0.200006
N189	N	0.674109	-0.000024	-0.277368
N190	N	1.174109	0.499976	0.222632
C191	C	0.725673	-0.000026	-0.314141
C192	C	1.225673	0.499974	0.185859
C193	C	0.617491	-0.000001	-0.662324
C194	C	1.117491	0.499999	-0.162324
C195	C	0.616778	-0.000005	-0.721722
C196	C	1.116778	0.499995	-0.221722
C197	C	0.720623	-0.000011	-0.735869
C198	C	1.220623	0.499989	-0.235869
C199	C	0.721335	-0.000011	-0.676470
C200	C	1.221335	0.499989	-0.176470
C201	C	0.669767	-0.000004	-0.639698
C202	C	1.169767	0.499996	-0.139698
C203	C	0.727163	-0.000039	-0.189404
C204	C	1.227163	0.499961	0.310596
C205	C	0.727869	-0.000047	-0.130002
C206	C	1.227869	0.499953	0.369998
C207	C	0.624025	-0.000038	-0.115860
C208	C	1.124025	0.499962	0.384140
C209	C	0.623318	-0.000033	-0.175257
C210	C	1.123318	0.499967	0.324743
C211	C	0.674891	-0.000031	-0.212028
C212	C	1.174891	0.499969	0.287972
O213	O	0.578069	-0.000038	-0.263215
O214	O	1.078069	0.499962	0.236785
O215	O	0.770196	-0.000022	-0.289433
O216	O	1.270196	0.499978	0.210567
C217	C	0.667577	-0.000013	0.178283
C218	C	1.167577	0.499987	0.678283
C219	C	0.668343	-0.000004	0.241500
C220	C	1.168343	0.499996	0.741500
H221	H	-0.141954	-0.000041	-0.023984
H222	H	0.358046	0.499959	0.476016
H223	H	-0.059864	-0.000019	0.165712
H224	H	0.440136	0.499981	0.665712
N225	N	-0.024481	-0.000056	-0.036327
N226	N	0.475519	0.499944	0.463673
H227	H	-0.047834	-0.000059	-0.069547
H228	H	0.452166	0.499941	0.430453
H229	H	0.000480	0.037405	-0.038297
H230	H	0.500480	0.537405	0.461703
H231	H	0.582043	-0.000038	-0.085909
H232	H	1.082043	0.499962	0.414091
N233	N	0.600963	-0.726555	0.002692
N234	N	1.100963	-0.226555	0.502692
H235	H	0.572944	-0.700169	0.027627
H236	H	1.072944	-0.200169	0.527627
H237	H	0.625952	-0.700198	-0.025309
H238	H	1.125952	-0.200198	0.474691
N239	N	0.369136	-0.000008	0.184600
N240	N	0.869136	0.499992	0.684600
H241	H	0.344180	0.037448	0.186630
H242	H	0.844180	0.537448	0.686630
H243	H	0.344209	-0.037495	0.186596
H244	H	0.844209	0.462505	0.686596
N245	N	0.743692	-0.273501	0.145573
N246	N	1.243692	0.226499	0.645573
H247	H	0.771714	-0.299885	0.120638
H248	H	1.271714	0.200115	0.620638
H249	H	0.765404	-0.243650	0.167341
H250	H	1.265404	0.256350	0.667341
N251	N	0.743678	-0.141294	0.145570
N252	N	1.243678	0.358706	0.645570
H253	H	0.718725	-0.114909	0.173575
H254	H	1.218725	0.385091	0.673575
H255	H	0.765433	-0.171122	0.167300
H256	H	1.265433	0.328878	0.667300
H257	H	0.763906	-0.000018	-0.658055
H258	H	1.263906	0.499982	-0.158055
H259	H	0.246104	-0.000055	-0.071347
H260	H	0.746104	0.499945	0.428653
N261	N	0.132376	-0.000058	-0.086453
N262	N	0.632376	0.499942	0.413547
H263	H	0.164692	-0.000064	-0.119006
H264	H	0.664692	0.499936	0.380994
H265	H	0.108035	-0.037521	-0.089010
H266	H	0.608035	0.462479	0.410990
N267	N	0.492576	0.000000	0.186069
N268	N	0.992576	0.500000	0.686069
H269	H	0.535785	-0.000001	0.178702
H270	H	1.035785	0.499999	0.678702
H271	H	0.479110	0.037464	0.208617
H272	H	0.979110	0.537464	0.708617
N273	N	-0.177348	-0.000014	0.178048
N274	N	0.322652	0.499986	0.678048
H275	H	-0.218408	-0.000017	0.169660
H276	H	0.281592	0.499983	0.669660
H277	H	-0.170064	-0.037473	0.200844
H278	H	0.329936	0.462527	0.700844
N279	N	0.212256	-0.000017	0.234720
N280	N	0.712256	0.499983	0.734720
H281	H	0.179939	-0.000015	0.267273
H282	H	0.679939	0.499985	0.767273
H283	H	0.236586	-0.037475	0.237283
H284	H	0.736586	0.462525	0.737283
H285	H	0.817806	-0.000022	-0.499644
H286	H	1.317806	0.499978	0.000356
H287	H	0.762610	-0.000011	-0.765821
H288	H	1.262610	0.499989	-0.265821
H289	H	0.610046	-0.850335	0.011784
H290	H	1.110046	-0.350335	0.511784
H291	H	0.098525	-0.000035	0.219610
H292	H	0.598525	0.499965	0.719610
H293	H	0.575496	0.000000	-0.632386
H294	H	1.075496	0.500000	-0.132386
H295	H	0.768992	-0.557660	0.170851
H296	H	1.268992	-0.057660	0.670851
N297	N	0.521993	-0.000037	-0.029784
N298	N	1.021993	0.499963	0.470216
H299	H	0.546962	0.037422	-0.031804
H300	H	1.046962	0.537422	0.468196
H301	H	0.546907	-0.037522	-0.031766
H302	H	1.046907	0.462478	0.468234
H303	H	0.768979	-0.442284	0.170854
H304	H	1.268979	0.057716	0.670854
N305	N	0.511739	0.000008	-0.465796
N306	N	1.011739	0.500008	0.034204
H307	H	0.479187	0.000011	-0.433480
H308	H	0.979187	0.500011	0.066520
H309	H	0.509186	0.037469	-0.490128
H310	H	1.009186	0.537469	0.009872
H311	H	0.734661	-0.734885	0.136490
H312	H	1.234661	-0.234885	0.636490
N313	N	0.743747	-0.858681	0.145571
N314	N	1.243747	-0.358681	0.645571
H315	H	0.738537	-0.903803	0.140351
H316	H	1.238537	-0.403803	0.640351
H317	H	0.785229	-0.847554	0.134107
H318	H	1.285229	-0.347554	0.634107
N319	N	0.566636	-0.566166	-0.031704
N320	N	1.066636	-0.066166	0.468296
H321	H	0.544890	-0.536371	-0.053479
H322	H	1.044890	-0.036371	0.446521
H323	H	0.591642	-0.592543	-0.059669
H324	H	1.091642	-0.092543	0.440331
H325	H	0.574207	-0.000008	-0.740135
H326	H	1.074207	0.499992	-0.240135
N327	N	0.566930	-0.000028	-0.199657
N328	N	1.066930	0.499972	0.300343
H329	H	0.564330	0.037436	-0.223977
H330	H	1.064330	0.537436	0.276023
H331	H	0.564343	-0.037507	-0.223968
H332	H	1.064343	0.462493	0.276032
H333	H	0.819097	-0.000033	-0.391900
H334	H	1.319097	0.499967	0.108100
H335	H	0.526850	0.000013	-0.352065
H336	H	1.026850	0.500013	0.147935
H337	H	0.575693	-0.442372	-0.022607
H338	H	1.075693	0.057628	0.477393
N339	N	0.398531	-0.000035	-0.031262
N340	N	0.898531	0.499965	0.468738
H341	H	0.430845	-0.000038	-0.063817
H342	H	0.930845	0.499962	0.436183
H343	H	0.374191	-0.037499	-0.033822
H344	H	0.874191	0.462501	0.466178
H345	H	0.609991	-0.265172	0.011784
H346	H	1.109991	0.234828	0.511784
N347	N	0.600914	-0.141373	0.002693
N348	N	1.100914	0.358627	0.502693
H349	H	0.606127	-0.096251	0.007908
H350	H	1.106127	0.403749	0.507908
H351	H	0.612413	-0.152496	-0.038784
H352	H	1.112413	0.347504	0.461216
H353	H	0.769159	-0.000035	-0.219337
H354	H	1.269159	0.499965	0.280663
H355	H	0.770443	-0.000056	-0.111587
H356	H	1.270443	0.499944	0.388413
