data_functionalizedCrystal
_audit_creation_method	'MofGen! by Chris Wilmer'
_symmetry_space_group_name_H-M	'P1'
_symmetry_Int_Tables_number	1
_symmetry_cell_setting	triclinic
loop_
_symmetry_equiv_pos_as_xyz
  x,y,z
_cell_length_a	16.120542
_cell_length_b	16.120297
_cell_length_c	16.120484
_cell_angle_alpha	95.614431
_cell_angle_beta	90.163235
_cell_angle_gamma	90.127087
loop_
_atom_site_label
_atom_site_type_symbol
_atom_site_fract_x
_atom_site_fract_y
_atom_site_fract_z
Zn1	Zn	-1.224986	0.554845	0.422355
Zn2	Zn	-1.224881	0.422150	0.555039
Zn3	Zn	-1.093725	0.408084	0.408261
Zn4	Zn	-1.078879	0.554078	0.554261
O5	O	-1.155618	0.484789	0.484979
O6	O	-1.341008	0.543450	0.446180
O7	O	-1.213653	0.303651	0.529996
O8	O	-1.117394	0.421986	0.293500
O9	O	-1.340931	0.445959	0.543662
O10	O	-1.213831	0.529811	0.303855
O11	O	-1.117293	0.293317	0.422159
O12	O	-0.975720	0.421243	0.421404
O13	O	-1.092091	0.670813	0.542336
O14	O	-0.964813	0.528505	0.528669
O15	O	-1.199435	0.671376	0.445425
O16	O	-1.199257	0.445216	0.671566
O17	O	-1.091989	0.542144	0.670994
C18	C	-0.940180	0.473265	0.473423
C19	C	-0.848012	0.468356	0.468501
C20	C	-0.632818	0.510209	0.510486
C21	C	-0.679265	0.459392	0.459521
C22	C	-0.773165	0.464381	0.464519
C23	C	-0.538910	0.505221	0.505490
C24	C	-1.144022	0.495142	0.701523
C25	C	-1.139136	0.499603	0.794167
C26	C	-1.144118	0.702181	0.495366
C27	C	-1.139218	0.794821	0.499792
C28	C	-0.371898	0.496347	0.496575
C29	C	-0.464066	0.501242	0.501504
C30	C	-1.167124	0.268243	0.474575
C31	C	-1.172197	0.175601	0.469922
C32	C	-1.130242	0.964432	0.507853
C33	C	-1.181171	1.005995	0.461864
C34	C	-1.176176	1.100373	0.466349
C35	C	-1.135235	0.870046	0.503369
C36	C	-1.167280	0.474415	0.267591
C37	C	-1.172250	0.469994	0.174954
C38	C	-1.130219	0.507765	0.963789
C39	C	-1.181165	0.461834	1.005337
C40	C	-1.176203	0.466376	1.099720
C41	C	-1.135179	0.503225	0.869397
H42	H	-0.663572	0.557457	0.557869
H43	H	-1.228523	0.970699	0.419122
Br44	Br	-1.051323	1.023258	0.579090
H45	H	-1.082880	0.550495	0.999102
Br46	Br	-0.628008	0.380630	0.380543
Br47	Br	-1.260071	0.390606	0.946481
