data_functionalizedCrystal
_audit_creation_method	'MofGen! by Chris Wilmer'
_symmetry_space_group_name_H-M	'P1'
_symmetry_Int_Tables_number	1
_symmetry_cell_setting	triclinic
loop_
_symmetry_equiv_pos_as_xyz
  x,y,z
_cell_length_a	6.817900
_cell_length_b	16.255661
_cell_length_c	11.168129
_cell_angle_alpha	93.883722
_cell_angle_beta	108.508637
_cell_angle_gamma	103.488922
loop_
_atom_site_label
_atom_site_type_symbol
_atom_site_fract_x
_atom_site_fract_y
_atom_site_fract_z
V1	V	-4.052429	-0.263878	-0.175725
O2	O	-4.013108	-0.258848	0.007395
O3	O	-4.029109	-0.262081	-0.347423
O4	O	-4.003663	-0.378962	-0.173482
O5	O	-4.038731	-0.141158	-0.167750
V6	V	-4.532855	-0.249199	-0.153767
O7	O	-4.320482	-0.296079	-0.223891
O8	O	-4.714999	-0.216999	-0.105601
O9	O	-4.332968	-0.250997	0.017931
O10	O	-4.689573	-0.254230	-0.336887
O11	O	-4.663951	-0.371920	-0.161742
O12	O	-4.358415	-0.134116	-0.156010
C13	C	-3.880223	-0.257920	-0.389265
C14	C	-3.942441	-0.257218	-0.529634
C15	C	-4.075257	-0.329831	-0.754706
C16	C	-4.010953	-0.330559	-0.609628
C17	C	-3.847763	-0.407012	-0.167385
C18	C	-3.889341	-0.501093	-0.166687
C19	C	-3.798678	-0.723911	-0.158357
C20	C	-3.970828	-0.793392	-0.265869
C21	C	-3.965534	-0.673342	-0.165380
C22	C	-3.867494	-0.771498	-0.056637
C23	C	-4.039116	-0.839725	-0.164111
C24	C	-4.137180	-0.741592	-0.272988
C25	C	-4.033769	-0.719683	-0.063661
C26	C	-4.206061	-0.789144	-0.171203
C27	C	-3.923140	-0.577492	-0.166112
C28	C	-4.081528	-0.935574	-0.163389
C29	C	-4.145198	-0.255155	0.059767
C30	C	-4.062218	-0.255863	0.200134
C31	C	-4.177658	-0.106061	-0.162111
C32	C	-4.115317	-0.011979	-0.162802
H33	H	-3.931365	-0.193887	-0.568528
H34	H	-4.021998	-0.393886	-0.570724
H35	H	-3.626150	-0.695431	-0.153066
C36	C	-3.935481	-0.836753	-0.381353
N37	N	-3.908840	-0.869410	-0.468330
C38	C	-4.290661	-0.723408	-0.396648
N39	N	-4.406252	-0.709709	-0.489791
C40	C	-3.982823	-0.171037	-0.707003
N41	N	-3.923016	-0.107143	-0.637060
H42	H	-4.378732	-0.817491	-0.176663
H43	H	-4.059852	-0.687571	0.021833
C44	C	-3.714006	-0.789834	0.066891
N45	N	-3.598387	-0.803641	0.159929
H46	H	-4.134038	-0.392619	-0.823449
