data_functionalizedCrystal
_audit_creation_method	'MofGen! by Chris Wilmer'
_symmetry_space_group_name_H-M	'P1'
_symmetry_Int_Tables_number	1
_symmetry_cell_setting	triclinic
loop_
_symmetry_equiv_pos_as_xyz
  x,y,z
_cell_length_a	29.839134
_cell_length_b	18.101395
_cell_length_c	18.101390
_cell_angle_alpha	90.031336
_cell_angle_beta	90.020567
_cell_angle_gamma	90.009416
loop_
_atom_site_label
_atom_site_type_symbol
_atom_site_fract_x
_atom_site_fract_y
_atom_site_fract_z
Zn1	Zn	-0.686783	0.295230	-0.418765
Zn2	Zn	-0.353450	0.628563	-0.085432
Zn3	Zn	-0.020117	0.961897	0.247901
Zn4	Zn	-0.686720	0.419087	-0.294927
Zn5	Zn	-0.353386	0.752420	0.038406
Zn6	Zn	-0.020053	1.085754	0.371739
Zn7	Zn	-0.611657	0.295217	-0.294935
Zn8	Zn	-0.278323	0.628550	0.038398
Zn9	Zn	0.055010	0.961884	0.371731
Zn10	Zn	-0.611627	0.418987	-0.418725
Zn11	Zn	-0.278294	0.752321	-0.085391
Zn12	Zn	0.055039	1.085654	0.247942
O13	O	-0.649197	0.357130	-0.356838
O14	O	-0.315863	0.690464	-0.023505
O15	O	0.017470	1.023797	0.309828
O16	O	-0.749642	0.311707	-0.402352
O17	O	-0.416309	0.645040	-0.069018
O18	O	-0.082975	0.978374	0.264315
O19	O	-0.676748	0.402691	-0.191295
O20	O	-0.343415	0.736025	0.142038
O21	O	-0.010081	1.069358	0.475371
O22	O	-0.621661	0.191586	-0.311382
O23	O	-0.288328	0.524919	0.021951
O24	O	0.045005	0.858252	0.355284
O25	O	-0.749595	0.402704	-0.311368
O26	O	-0.416262	0.736037	0.021965
O27	O	-0.082929	1.069371	0.355298
O28	O	-0.676857	0.191595	-0.402359
O29	O	-0.343523	0.524929	-0.069026
O30	O	-0.010190	0.858262	0.264307
O31	O	-0.621600	0.311685	-0.191301
O32	O	-0.288266	0.645018	0.142032
O33	O	0.045067	0.978351	0.475365
O34	O	-0.548786	0.311588	-0.311343
O35	O	-0.215452	0.644921	0.021991
O36	O	0.117881	0.978255	0.355324
O37	O	-0.621611	0.402534	-0.522363
O38	O	-0.288278	0.735868	-0.189030
O39	O	0.045055	1.069201	0.144304
O40	O	-0.548764	0.402522	-0.402290
O41	O	-0.215431	0.735855	-0.068957
O42	O	0.117903	1.069188	0.264376
O43	O	-0.676828	0.311610	-0.522393
O44	O	-0.343495	0.644944	-0.189060
O45	O	-0.010161	0.978277	0.144274
O46	O	-0.676720	0.522707	-0.311329
O47	O	-0.343386	0.856040	0.022005
O48	O	-0.010053	1.189373	0.355338
O49	O	-0.621550	0.522633	-0.402282
O50	O	-0.288216	0.855967	-0.068949
O51	O	0.045117	1.189300	0.264384
C52	C	-0.532474	0.357043	-0.356813
C53	C	-0.199141	0.690377	-0.023480
C54	C	0.134192	1.023710	0.309853
C55	C	-0.482540	0.357024	-0.356820
C56	C	-0.149206	0.690357	-0.023487
C57	C	0.184127	1.023690	0.309846
C58	C	-0.125973	0.309813	-0.404287
C59	C	0.207361	0.643146	-0.070954
C60	C	0.540694	0.976479	0.262379
C61	C	-0.313646	0.309765	-0.404277
C62	C	0.019687	0.643099	-0.070944
C63	C	0.353021	0.976432	0.262390
O64	O	-0.337928	0.269552	-0.444644
O65	O	-0.004594	0.602885	-0.111310
O66	O	0.328739	0.936218	0.222023
N67	N	-0.337095	0.357063	-0.356832
N68	N	-0.003761	0.690396	-0.023499
N69	N	0.329572	1.023730	0.309834
C70	C	-0.313622	0.404379	-0.309390
C71	C	0.019711	0.737712	0.023943
C72	C	0.353044	1.071046	0.357276
O73	O	-0.337873	0.444613	-0.269041
O74	O	-0.004540	0.777946	0.064292
O75	O	0.328794	1.111280	0.397626
C76	C	-0.125950	0.404430	-0.309405
C77	C	0.207383	0.737763	0.023928
C78	C	0.540717	1.071096	0.357262
C79	C	-0.102504	0.357124	-0.356847
C80	C	0.230830	0.690457	-0.023514
C81	C	0.564163	1.023790	0.309819
C82	C	-0.102526	0.262511	-0.451727
C83	C	0.230807	0.595844	-0.118393
C84	C	0.564140	0.929178	0.214940
C85	C	-0.055611	0.262521	-0.451726
C86	C	0.277722	0.595854	-0.118392
C87	C	0.611056	0.929187	0.214941
C88	C	-0.032142	0.309832	-0.404286
C89	C	0.301191	0.643165	-0.070952
C90	C	0.634525	0.976498	0.262381
C91	C	-0.055588	0.357133	-0.356847
C92	C	0.277745	0.690466	-0.023513
C93	C	0.611078	1.023800	0.309820
C94	C	-0.102478	0.451749	-0.261967
C95	C	0.230855	0.785082	0.071366
C96	C	0.564188	1.118416	0.404699
C97	C	-0.055557	0.451759	-0.261976
C98	C	0.277776	0.785092	0.071357
C99	C	0.611109	1.118426	0.404690
C100	C	-0.032111	0.404453	-0.309419
C101	C	0.301222	0.737786	0.023914
C102	C	0.634556	1.071120	0.357248
C103	C	0.014796	0.404454	-0.309406
C104	C	0.348130	0.737787	0.023927
C105	C	0.681463	1.071120	0.357261
N106	N	0.038245	0.357156	-0.356851
N107	N	0.371578	0.690489	-0.023517
N108	N	0.704912	1.023823	0.309816
C109	C	0.014776	0.309845	-0.404291
C110	C	0.348109	0.643178	-0.070957
C111	C	0.681443	0.976512	0.262376
C112	C	-0.412153	0.404348	-0.309385
C113	C	-0.078819	0.737682	0.023948
C114	C	0.254514	1.071015	0.357282
C115	C	-0.459071	0.404335	-0.309380
C116	C	-0.125737	0.737668	0.023953
C117	C	0.207596	1.071001	0.357286
C118	C	-0.459091	0.309722	-0.404268
C119	C	-0.125758	0.643055	-0.070935
C120	C	0.207576	0.976388	0.262398
C121	C	-0.412172	0.309732	-0.404269
C122	C	-0.078839	0.643065	-0.070935
C123	C	0.254494	0.976399	0.262398
C124	C	-0.388704	0.357051	-0.356830
C125	C	-0.055371	0.690384	-0.023496
C126	C	0.277963	1.023717	0.309837
C127	C	0.113302	0.309868	-0.404285
C128	C	0.446635	0.643201	-0.070952
C129	C	0.779968	0.976535	0.262382
C130	C	0.160221	0.309880	-0.404278
C131	C	0.493555	0.643213	-0.070944
C132	C	0.826888	0.976546	0.262389
C133	C	0.160238	0.404495	-0.309393
C134	C	0.493571	0.737828	0.023940
C135	C	0.826904	1.071162	0.357274
C136	C	0.113322	0.404481	-0.309397
C137	C	0.446656	0.737814	0.023936
C138	C	0.779989	1.071148	0.357270
C139	C	0.089855	0.357165	-0.356849
C140	C	0.423189	0.690498	-0.023516
C141	C	0.756522	1.023832	0.309818
O142	O	0.039107	0.444652	-0.269066
O143	O	0.372440	0.777985	0.064267
O144	O	0.705774	1.111319	0.397600
O145	O	0.039035	0.269629	-0.444646
O146	O	0.372368	0.602962	-0.111312
O147	O	0.705702	0.936296	0.222021
C148	C	-0.172888	0.309803	-0.404288
C149	C	0.160445	0.643137	-0.070955
C150	C	0.493778	0.976470	0.262379
C151	C	-0.196335	0.357105	-0.356849
C152	C	0.136999	0.690438	-0.023516
C153	C	0.470332	1.023771	0.309818
C154	C	-0.172866	0.404416	-0.309409
C155	C	0.160468	0.737749	0.023924
C156	C	0.493801	1.071082	0.357258
C157	C	-0.243252	0.357091	-0.356844
C158	C	0.090081	0.690425	-0.023511
C159	C	0.423414	1.023758	0.309822
C160	C	-0.266722	0.309780	-0.404284
C161	C	0.066612	0.643114	-0.070951
C162	C	0.399945	0.976447	0.262382
C163	C	-0.243273	0.262483	-0.451729
C164	C	0.090060	0.595816	-0.118395
C165	C	0.423394	0.929149	0.214938
C166	C	-0.196357	0.262492	-0.451728
C167	C	0.136976	0.595826	-0.118395
C168	C	0.470309	0.929159	0.214939
C169	C	-0.196314	0.451713	-0.261964
C170	C	0.137019	0.785047	0.071369
C171	C	0.470352	1.118380	0.404702
C172	C	-0.243230	0.451699	-0.261968
C173	C	0.090104	0.785033	0.071365
C174	C	0.423437	1.118366	0.404698
C175	C	-0.266699	0.404388	-0.309408
C176	C	0.066634	0.737722	0.023925
C177	C	0.399968	1.071055	0.357258
C178	C	-0.649137	0.549541	-0.356816
C179	C	-0.315803	0.882874	-0.023483
C180	C	0.017530	1.216207	0.309850
C181	C	-0.649152	0.631855	-0.356832
C182	C	-0.315819	0.965188	-0.023499
C183	C	0.017515	1.298522	0.309835
C184	C	-0.649223	0.357063	-0.550000
C185	C	-0.315890	0.690396	-0.216667
C186	C	0.017443	1.023729	0.116666
C187	C	-0.649235	0.357034	-0.632314
C188	C	-0.315901	0.690367	-0.298981
C189	C	0.017432	1.023700	0.034352
C190	C	0.233625	0.357202	-0.356854
C191	C	0.566958	0.690535	-0.023521
C192	C	0.900292	1.023868	0.309812
C193	C	0.183691	0.357191	-0.356838
C194	C	0.517024	0.690524	-0.023504
C195	C	0.850357	1.023857	0.309829
C196	C	-0.649269	0.163968	-0.356876
C197	C	-0.315936	0.497302	-0.023543
C198	C	0.017397	0.830635	0.309790
C199	C	-0.649300	0.081654	-0.356893
C200	C	-0.315967	0.414988	-0.023559
C201	C	0.017366	0.748321	0.309774
C202	C	-0.649251	0.930946	-0.356872
C203	C	-0.315917	1.264279	-0.023538
C204	C	0.017416	1.597612	0.309795
C205	C	-0.614620	0.899605	-0.414239
C206	C	-0.281286	1.232939	-0.080906
C207	C	0.052047	1.566272	0.252427
C208	C	-0.614455	0.813987	-0.414060
C209	C	-0.281122	1.147321	-0.080727
C210	C	0.052212	1.480654	0.252607
C211	C	-0.649202	0.782563	-0.356853
C212	C	-0.315868	1.115897	-0.023519
C213	C	0.017465	1.449230	0.309814
C214	C	-0.636384	0.813712	-0.278803
C215	C	-0.303050	1.147045	0.054531
C216	C	0.030283	1.480379	0.387864
C217	C	-0.636160	0.899357	-0.279146
C218	C	-0.302827	1.232690	0.054187
C219	C	0.030506	1.566024	0.387521
C220	C	-0.696775	0.899318	-0.376867
C221	C	-0.363442	1.232651	-0.043534
C222	C	-0.030109	1.565984	0.289799
C223	C	-0.696496	0.813666	-0.378579
C224	C	-0.363163	1.147000	-0.045245
C225	C	-0.029829	1.480333	0.288088
C226	C	-0.649175	0.698704	-0.356837
C227	C	-0.315841	1.032037	-0.023504
C228	C	0.017492	1.365370	0.309830
C229	C	-0.649276	1.014805	-0.356882
C230	C	-0.315943	1.348139	-0.023549
C231	C	0.017390	1.681472	0.309785
C232	C	-0.649259	0.356988	-0.931405
C233	C	-0.315926	0.690321	-0.598072
C234	C	0.017408	1.023654	-0.264739
C235	C	-0.684114	0.299982	-0.900099
C236	C	-0.350781	0.633316	-0.566766
C237	C	-0.017448	0.966649	-0.233432
C238	C	-0.684006	0.299770	-0.814481
C239	C	-0.350672	0.633104	-0.481147
C240	C	-0.017339	0.966437	-0.147814
C241	C	-0.649247	0.357011	-0.783023
C242	C	-0.315914	0.690344	-0.449690
C243	C	0.017419	1.023677	-0.116356
C244	C	-0.601920	0.335778	-0.814094
C245	C	-0.268587	0.669111	-0.480761
C246	C	0.064747	1.002444	-0.147428
C247	C	-0.602129	0.335350	-0.899740
C248	C	-0.268795	0.668684	-0.566406
C249	C	0.064538	1.002017	-0.233073
C250	C	-0.661314	0.435372	-0.899820
C251	C	-0.327981	0.768706	-0.566487
C252	C	0.005352	1.102039	-0.233154
C253	C	-0.662353	0.434973	-0.814170
C254	C	-0.329020	0.768307	-0.480837
C255	C	0.004313	1.101640	-0.147503
C256	C	-0.649238	0.357025	-0.699163
C257	C	-0.315905	0.690358	-0.365830
C258	C	0.017429	1.023691	-0.032497
C259	C	-0.649265	0.356972	-1.015265
C260	C	-0.315932	0.690305	-0.681932
C261	C	0.017401	1.023638	-0.348598
C262	C	-0.649196	0.357144	-0.164428
C263	C	-0.315863	0.690477	0.168906
C264	C	0.017471	1.023811	0.502239
C265	C	-0.649272	0.356964	-0.082114
C266	C	-0.315938	0.690298	0.251219
C267	C	0.017395	1.023631	0.584553
H268	H	-0.121630	0.223984	-0.490362
H269	H	0.211703	0.557318	-0.157028
H270	H	0.545037	0.890651	0.176305
H271	H	-0.478208	0.271197	-0.442894
H272	H	-0.144874	0.604531	-0.109561
H273	H	0.188459	0.937864	0.223773
H274	H	-0.579607	0.921171	-0.401161
H275	H	-0.246274	1.254504	-0.067828
H276	H	0.087059	1.587838	0.265506
Cl277	Cl	-0.674100	0.782293	-0.211007
Cl278	Cl	-0.340767	1.115626	0.122326
Cl279	Cl	-0.007434	1.448959	0.455659
Cl280	Cl	-0.560664	0.396649	-0.931715
Cl281	Cl	-0.227331	0.729983	-0.598382
Cl282	Cl	0.106003	1.063316	-0.265048
H283	H	-0.719100	0.313071	-0.793474
H284	H	-0.385767	0.646404	-0.460141
H285	H	-0.052433	0.979737	-0.126807
Cl286	Cl	-0.738476	0.320257	-0.931913
Cl287	Cl	-0.405143	0.653590	-0.598579
Cl288	Cl	-0.071810	0.986923	-0.265246
Cl289	Cl	-0.671952	0.210828	-0.933347
Cl290	Cl	-0.338619	0.544161	-0.600014
Cl291	Cl	-0.005286	0.877494	-0.266680
H292	H	-0.676026	0.241702	-0.794006
H293	H	-0.342693	0.575036	-0.460673
H294	H	-0.009359	0.908369	-0.127340
Cl295	Cl	-0.560735	0.397909	-0.782641
Cl296	Cl	-0.227402	0.731242	-0.449308
Cl297	Cl	0.105932	1.064575	-0.115975
H298	H	-0.706162	0.793305	-0.436019
H299	H	-0.372829	1.126639	-0.102686
H300	H	-0.039495	1.459972	0.230647
H301	H	-0.708462	0.920869	-0.432811
H302	H	-0.375128	1.254202	-0.099478
H303	H	-0.041795	1.587536	0.233855
H304	H	-0.591514	0.279115	-0.792654
H305	H	-0.258181	0.612448	-0.459321
H306	H	0.075153	0.945781	-0.125988
Cl307	Cl	-0.166817	0.511187	-0.202310
Cl308	Cl	0.166516	0.844521	0.131023
Cl309	Cl	0.499849	1.177854	0.464357
Cl310	Cl	-0.382702	0.250261	-0.463914
Cl311	Cl	-0.049369	0.583594	-0.130581
Cl312	Cl	0.283965	0.916928	0.202753
H313	H	-0.262390	0.223957	-0.490353
H314	H	0.070944	0.557291	-0.157020
H315	H	0.404277	0.890624	0.176314
H316	H	-0.635930	0.477848	-0.920071
H317	H	-0.302597	0.811181	-0.586737
H318	H	0.030737	1.144515	-0.253404
Cl319	Cl	-0.738442	0.780633	-0.318775
Cl320	Cl	-0.405109	1.113967	0.014558
Cl321	Cl	-0.071775	1.447300	0.347891
H322	H	-0.622475	0.792924	-0.471933
H323	H	-0.289141	1.126258	-0.138600
H324	H	0.044192	1.459591	0.194734
Cl325	Cl	-0.026143	0.203054	-0.511378
Cl326	Cl	0.307191	0.536387	-0.178045
Cl327	Cl	0.640524	0.869721	0.155288
H328	H	-0.591909	0.278051	-0.919729
H329	H	-0.258575	0.611384	-0.586395
H330	H	0.074758	0.944718	-0.253062
H331	H	0.179309	0.271354	-0.442911
H332	H	0.512643	0.604687	-0.109578
H333	H	0.845976	0.938020	0.223756
H334	H	-0.478157	0.442848	-0.270740
H335	H	-0.144823	0.776181	0.062593
H336	H	0.188510	1.109515	0.395927
Cl337	Cl	-0.716128	0.459692	-0.782822
Cl338	Cl	-0.382795	0.793026	-0.449489
Cl339	Cl	-0.049461	1.126359	-0.116156
Cl340	Cl	0.189751	0.463968	-0.249756
Cl341	Cl	0.523084	0.797301	0.083577
Cl342	Cl	0.856417	1.130634	0.416910
H343	H	-0.622560	0.920154	-0.472300
H344	H	-0.289226	1.253487	-0.138967
H345	H	0.044107	1.586821	0.194367
H346	H	-0.177272	0.223971	-0.490361
H347	H	0.156062	0.557304	-0.157027
H348	H	0.489395	0.890637	0.176306
Cl349	Cl	-0.382656	0.463830	-0.249730
Cl350	Cl	-0.049323	0.797163	0.083603
Cl351	Cl	0.284010	1.130496	0.416937
Cl352	Cl	-0.713684	0.465181	-0.933178
Cl353	Cl	-0.380351	0.798514	-0.599845
Cl354	Cl	-0.047017	1.131848	-0.266512
H355	H	-0.638812	0.479731	-0.792753
H356	H	-0.305479	0.813064	-0.459420
H357	H	0.027854	1.146398	-0.126087
H358	H	-0.121560	0.490271	-0.223334
H359	H	0.211773	0.823604	0.109999
H360	H	0.545106	1.156937	0.443332
H361	H	-0.579229	0.793543	-0.400815
H362	H	-0.245895	1.126876	-0.067481
H363	H	0.087438	1.460210	0.265852
H364	H	-0.601420	0.919380	-0.262208
H365	H	-0.268087	1.252713	0.071125
H366	H	0.065247	1.586046	0.404459
H367	H	0.094201	0.271339	-0.442924
H368	H	0.427534	0.604672	-0.109591
H369	H	0.760867	0.938005	0.223742
Cl370	Cl	0.083846	0.463957	-0.249760
Cl371	Cl	0.417179	0.797290	0.083574
Cl372	Cl	0.750513	1.130624	0.416907
Cl373	Cl	-0.026057	0.511254	-0.202339
Cl374	Cl	0.307276	0.844587	0.130994
Cl375	Cl	0.640609	1.177920	0.464327
Cl376	Cl	-0.736613	0.930626	-0.312370
Cl377	Cl	-0.403280	1.263960	0.020963
Cl378	Cl	-0.069946	1.597293	0.354296
Cl379	Cl	-0.673409	0.931375	-0.210898
Cl380	Cl	-0.340075	1.264708	0.122435
Cl381	Cl	-0.006742	1.598041	0.455769
Cl382	Cl	-0.583314	0.780671	-0.252182
Cl383	Cl	-0.249981	1.114004	0.081151
Cl384	Cl	0.083353	1.447338	0.414485
Cl385	Cl	-0.272699	0.511169	-0.202312
Cl386	Cl	0.060634	0.844502	0.131021
Cl387	Cl	0.393967	1.177835	0.464354
