data_functionalizedCrystal
_audit_creation_method	'MofGen! by Chris Wilmer'
_symmetry_space_group_name_H-M	'P1'
_symmetry_Int_Tables_number	1
_symmetry_cell_setting	triclinic
loop_
_symmetry_equiv_pos_as_xyz
  x,y,z
_cell_length_a	11.026607
_cell_length_b	11.026607
_cell_length_c	9.482900
_cell_angle_alpha	101.400185
_cell_angle_beta	78.636152
_cell_angle_gamma	108.586017
loop_
_atom_site_label
_atom_site_type_symbol
_atom_site_fract_x
_atom_site_fract_y
_atom_site_fract_z
O1	O	1.742236	0.518010	-0.120892
O2	O	1.375656	0.457246	-0.120894
O3	O	1.528564	0.304339	-0.120888
O4	O	1.589328	0.670917	-0.120898
O5	O	1.497539	0.335557	0.120903
O6	O	1.344632	0.488465	0.120897
O7	O	1.711212	0.549228	0.120899
Cu8	Cu	1.525089	0.521697	0.142976
Cu9	Cu	1.561779	0.484778	-0.142971
O10	O	1.558304	0.702136	0.120893
C11	C	1.312485	0.461645	0.000001
C12	C	1.170471	0.428228	0.000000
C13	C	1.116822	0.520498	-0.000003
C14	C	0.970043	0.485962	-0.000004
C15	C	1.501842	0.272288	0.000006
C16	C	1.468426	0.130273	0.000000
C17	C	1.560695	0.076624	-0.000001
C18	C	1.526161	-0.070155	-0.000007
C19	C	1.774384	0.544829	0.000001
C20	C	1.916399	0.578244	-0.000008
C21	C	1.585026	0.734186	-0.000004
C22	C	1.618444	0.876199	-0.000008
N23	N	1.499293	0.547665	0.344095
N24	N	1.587583	0.458801	-0.344090
C25	C	1.554160	0.492428	0.416296
C26	C	1.532708	0.514046	0.583713
H27	H	0.907319	0.381388	-0.000039
C28	C	1.800408	0.022171	-0.124297
C29	C	1.759612	-0.039132	-0.000005
H30	H	1.887556	0.074446	-0.124288
H31	H	1.794357	-0.041189	-0.208600
H32	H	1.746988	0.074848	-0.124281
H33	H	1.813027	-0.091817	-0.000027
H34	H	1.765674	0.024237	0.084319
H35	H	1.421592	-0.132886	-0.000017
C36	C	1.619414	0.248220	0.609146
C37	C	1.672384	0.373230	0.572241
H38	H	1.671746	0.195359	0.557537
H39	H	1.616065	0.251675	0.710675
H40	H	1.534510	0.212838	0.584231
H41	H	1.757285	0.408616	0.597166
H42	H	1.675747	0.369780	0.470689
C43	C	1.330512	0.668548	-0.000002
C44	C	1.201497	0.661659	-0.000004
H45	H	1.382782	0.755697	-0.000010
H46	H	1.337308	0.638207	0.084312
H47	H	1.358945	0.616426	-0.084325
H48	H	1.173060	0.713773	0.084325
H49	H	1.194695	0.692017	-0.084327
H50	H	0.979125	0.682816	-0.000001
C51	C	1.320376	-0.083417	-0.000005
C52	C	1.327265	0.045598	-0.000002
H53	H	1.233225	-0.135686	0.000003
H54	H	1.372420	-0.111916	-0.084319
H55	H	1.350793	-0.090147	0.084318
H56	H	1.296856	0.052329	-0.084330
H57	H	1.275202	0.074105	0.084322
H58	H	1.665257	0.139358	0.000009
C59	C	0.956782	0.280177	-0.000009
C60	C	1.085796	0.287067	-0.000004
H61	H	0.904514	0.193025	-0.000022
H62	H	0.928345	0.332285	0.084305
H63	H	0.949991	0.310531	-0.084332
H64	H	1.092589	0.256722	0.084325
H65	H	1.114241	0.234940	-0.084326
C66	C	1.586246	0.281890	0.369045
C67	C	1.639023	0.407002	0.332400
H68	H	1.638640	0.229158	0.317233
H69	H	1.582989	0.285190	0.470530
H70	H	1.501322	0.246466	0.344197
H71	H	1.723945	0.442430	0.357257
H72	H	1.642295	0.403707	0.230891
C73	C	1.322676	0.547245	0.630912
C74	C	1.447845	0.599494	0.667566
H75	H	1.270287	0.599992	0.682690
H76	H	1.325969	0.543940	0.529419
H77	H	1.286879	0.462374	0.655794
H78	H	1.483646	0.684362	0.642675
H79	H	1.444557	0.602814	0.769082
H80	H	1.436432	0.610955	0.406222
