data_functionalizedCrystal
_audit_creation_method	'MofGen! by Chris Wilmer'
_symmetry_space_group_name_H-M	'P1'
_symmetry_Int_Tables_number	1
_symmetry_cell_setting	triclinic
loop_
_symmetry_equiv_pos_as_xyz
  x,y,z
_cell_length_a	19.805407
_cell_length_b	19.805405
_cell_length_c	12.759393
_cell_angle_alpha	89.966133
_cell_angle_beta	89.976310
_cell_angle_gamma	90.026726
loop_
_atom_site_label
_atom_site_type_symbol
_atom_site_fract_x
_atom_site_fract_y
_atom_site_fract_z
Zn1	Zn	1.034762	-0.269430	-0.594073
Zn2	Zn	1.034668	-0.382633	-0.418382
Zn3	Zn	0.921568	-0.269463	-0.418399
Zn4	Zn	0.921539	-0.382583	-0.594011
O5	O	0.978134	-0.326027	-0.506216
O6	O	1.129466	-0.284454	-0.570786
O7	O	1.019638	-0.367656	-0.271363
O8	O	0.936635	-0.174742	-0.441736
O9	O	1.129397	-0.367624	-0.441707
O10	O	1.019798	-0.174718	-0.570802
O11	O	0.936544	-0.284510	-0.271376
O12	O	0.826848	-0.284462	-0.441676
O13	O	0.936586	-0.367538	-0.741040
O14	O	0.826827	-0.367570	-0.570697
O15	O	1.019770	-0.284405	-0.741086
O16	O	1.019610	-0.477343	-0.441647
O17	O	0.936495	-0.477306	-0.570681
C18	C	0.802278	-0.326014	-0.506182
C19	C	0.727046	-0.326025	-0.506193
C20	C	0.978057	-0.501883	-0.506178
C21	C	0.978086	-0.577115	-0.506197
C22	C	0.691709	-0.369365	-0.573265
C23	C	0.621020	-0.369366	-0.573280
C24	C	0.585671	-0.326031	-0.506216
C25	C	0.621013	-0.282686	-0.439141
C26	C	0.691700	-0.282682	-0.439132
C27	C	0.335940	-0.282701	-0.439175
C28	C	0.265248	-0.282710	-0.439187
C29	C	0.265260	-0.369385	-0.573324
C30	C	0.335947	-0.369381	-0.573315
C31	C	0.371283	-0.326034	-0.506244
C32	C	0.447932	-0.326033	-0.506230
C33	C	0.509024	-0.326035	-0.506224
C34	C	1.021363	-0.612389	-0.573455
C35	C	1.021388	-0.683077	-0.573474
C36	C	0.978138	-0.718491	-0.506230
C37	C	0.934856	-0.683213	-0.438970
C38	C	0.934828	-0.612526	-0.438956
C39	C	0.934965	-0.968286	-0.439024
C40	C	0.934997	-1.038978	-0.439040
C41	C	1.021524	-1.038838	-0.573542
C42	C	1.021496	-0.968150	-0.573528
C43	C	0.978212	-0.932878	-0.506272
C44	C	0.978185	-0.856230	-0.506253
C45	C	0.978168	-0.795138	-0.506243
C46	C	1.154677	-0.326041	-0.506251
C47	C	1.229909	-0.326047	-0.506266
C48	C	0.978185	-0.325962	-0.780250
C49	C	0.978206	-0.325935	-0.897027
C50	C	0.978230	-0.149485	-0.506278
C51	C	0.978271	-0.074253	-0.506304
C52	C	1.021524	-0.282641	-0.951914
C53	C	1.021535	-0.282612	-1.061638
C54	C	0.934910	-0.369176	-1.061578
C55	C	0.934896	-0.369202	-0.951856
C56	C	0.978123	-0.326043	-0.233249
C57	C	0.978232	-0.325880	-0.116473
H58	H	0.720485	-0.404656	-0.627873
N59	N	1.068031	-0.721123	-0.646069
H60	H	1.095417	-0.687962	-0.688678
H61	H	1.099390	-0.750465	-0.603406
H62	H	0.899617	-0.404456	-0.907166
N63	N	0.888211	-0.721409	-0.366438
H64	H	0.898745	-0.709128	-0.291387
H65	H	0.839857	-0.709128	-0.382770
N66	N	0.582905	-0.416120	-0.645607
H67	H	0.616025	-0.443579	-0.688080
H68	H	0.553555	-0.447406	-0.602740
N69	N	1.068006	-0.574192	-0.645988
H70	H	1.099377	-0.544856	-0.603336
H71	H	1.095379	-0.607306	-0.688589
N72	N	0.374045	-0.235960	-0.366820
H73	H	0.424189	-0.242529	-0.376987
H74	H	0.361712	-0.187633	-0.383302
N75	N	0.582890	-0.235957	-0.366786
H76	H	0.532747	-0.242542	-0.376957
H77	H	0.595228	-0.246450	-0.291731
N78	N	0.374074	-0.416125	-0.645641
H79	H	0.340961	-0.443581	-0.688135
H80	H	0.403430	-0.388609	-0.694332
H81	H	0.236468	-0.247417	-0.384576
N82	N	1.068142	-0.929951	-0.646055
H83	H	1.116514	-0.942217	-0.629816
H84	H	1.057548	-0.942241	-0.721079
N85	N	0.227147	-0.416139	-0.645669
H86	H	0.177003	-0.409567	-0.635505
H87	H	0.239533	-0.405665	-0.720731
N88	N	1.068237	-0.235980	-0.892774
H89	H	1.040748	-0.204622	-0.847243
H90	H	1.099570	-0.263557	-0.847319
H91	H	0.899722	-0.939573	-0.384259
H92	H	0.899587	-0.583807	-0.384190
H93	H	0.720471	-0.247387	-0.384520
H94	H	1.056807	-0.247356	-1.106322
N95	N	0.888189	-0.415831	-1.120715
H96	H	0.894767	-0.409244	-1.198553
H97	H	0.898682	-0.464180	-1.101531
H98	H	1.056766	-1.067565	-0.628308
H99	H	0.899774	-1.067810	-0.384280
