data_functionalizedCrystal
_audit_creation_method	'MofGen! by Chris Wilmer'
_symmetry_space_group_name_H-M	'P1'
_symmetry_Int_Tables_number	1
_symmetry_cell_setting	triclinic
loop_
_symmetry_equiv_pos_as_xyz
  x,y,z
_cell_length_a	21.295418
_cell_length_b	12.759400
_cell_length_c	12.759393
_cell_angle_alpha	90.031564
_cell_angle_beta	89.959121
_cell_angle_gamma	89.969501
loop_
_atom_site_label
_atom_site_type_symbol
_atom_site_fract_x
_atom_site_fract_y
_atom_site_fract_z
Zn1	Zn	0.962407	0.417761	-0.594609
Zn2	Zn	1.462407	0.917761	-0.094609
Zn3	Zn	0.962344	0.593480	-0.418929
Zn4	Zn	1.462344	1.093480	0.081071
Zn5	Zn	0.857136	0.417864	-0.418880
Zn6	Zn	1.357136	0.917864	0.081120
Zn7	Zn	0.857129	0.593447	-0.594502
Zn8	Zn	1.357129	1.093447	-0.094502
O9	O	0.909754	0.505638	-0.506730
O10	O	1.409754	1.005638	-0.006730
O11	O	1.050488	0.441041	-0.571370
O12	O	1.550488	0.941041	-0.071370
O13	O	0.948364	0.570241	-0.271901
O14	O	1.448364	1.070241	0.228099
O15	O	0.871129	0.270829	-0.442215
O16	O	1.371129	0.770829	0.057785
O17	O	1.050442	0.570141	-0.442299
O18	O	1.550442	1.070141	0.057701
O19	O	0.948472	0.270753	-0.571322
O20	O	1.448472	0.770753	-0.071322
O21	O	0.871068	0.441216	-0.271865
O22	O	1.371068	0.941216	0.228135
O23	O	0.769045	0.441185	-0.442111
O24	O	1.269045	0.941185	0.057889
O25	O	0.871118	0.570085	-0.741537
O26	O	1.371118	1.070085	-0.241537
O27	O	0.769040	0.570185	-0.571140
O28	O	1.269040	1.070185	-0.071140
O29	O	0.948465	0.441009	-0.741616
O30	O	1.448465	0.941009	-0.241616
O31	O	0.948358	0.740496	-0.442195
O32	O	1.448358	1.240496	0.057805
O33	O	0.871057	0.740472	-0.571188
O34	O	1.371057	1.240472	-0.071188
C35	C	0.909717	0.778605	-0.506708
C36	C	1.409717	1.278605	-0.006708
C37	C	0.909758	0.895382	-0.506734
C38	C	1.409758	1.395382	-0.006734
C39	C	0.746202	0.505693	-0.506609
C40	C	1.246202	1.005693	-0.006609
C41	C	0.676234	0.505742	-0.506582
C42	C	1.176234	1.005742	-0.006582
C43	C	0.909798	0.505532	-0.780764
C44	C	1.409798	1.005532	-0.280764
C45	C	0.909817	0.505486	-0.897540
C46	C	1.409817	1.005486	-0.397540
C47	C	0.643381	0.573001	-0.573667
C48	C	1.143381	1.073001	-0.073667
C49	C	0.577639	0.572975	-0.573714
C50	C	1.077639	1.072975	-0.073714
C51	C	0.544752	0.505701	-0.506658
C52	C	1.044752	1.005701	-0.006658
C53	C	0.577612	0.438429	-0.439568
C54	C	1.077612	0.938429	0.060432
C55	C	0.643354	0.438449	-0.439530
C56	C	1.143354	0.938449	0.060470
N57	N	0.441477	0.497506	-0.414766
N58	N	0.941477	0.997506	0.085234
N59	N	0.379026	0.497493	-0.414805
N60	N	0.879026	0.997493	0.085195
C61	C	0.346677	0.505634	-0.506769
C62	C	0.846677	1.005634	-0.006769
N63	N	0.379139	0.513810	-0.598696
N64	N	0.879139	1.013810	-0.098696
N65	N	0.441596	0.513828	-0.598656
N66	N	0.941596	1.013828	-0.098656
C67	C	0.473466	0.505671	-0.506692
C68	C	0.973466	1.005671	-0.006692
C69	C	0.242539	0.572869	-0.573911
C70	C	0.742539	1.072869	-0.073911
C71	C	0.176795	0.572836	-0.573960
C72	C	0.676795	1.072836	-0.073960
C73	C	0.176770	0.438295	-0.439804
C74	C	0.676770	0.938295	0.060196
C75	C	0.242512	0.438322	-0.439765
C76	C	0.742512	0.938322	0.060235
C77	C	0.275393	0.505615	-0.506817
C78	C	0.775393	1.005615	-0.006817
C79	C	1.073944	0.505583	-0.506852
C80	C	1.573944	1.005583	-0.006852
C81	C	1.143912	0.505560	-0.506904
C82	C	1.643912	1.005560	-0.006904
C83	C	0.909809	0.231604	-0.506775
C84	C	1.409809	0.731604	-0.006775
C85	C	0.909832	0.114828	-0.506794
C86	C	1.409832	0.614828	-0.006794
C87	C	0.950053	0.950221	-0.439642
C88	C	1.450053	1.450221	0.060358
C89	C	0.950092	1.059945	-0.439674
C90	C	1.450092	1.559945	0.060326
C91	C	0.869535	1.059980	-0.573894
C92	C	1.369535	1.559980	-0.073894
C93	C	0.869500	0.950258	-0.573866
C94	C	1.369500	1.450258	-0.073866
C95	C	0.996561	0.950202	-0.362148
C96	C	1.496561	1.450202	0.137852
C97	C	0.996599	1.059926	-0.362180
C98	C	1.496599	1.559926	0.137820
C99	C	0.950097	0.438270	-0.952445
C100	C	1.450097	0.938270	-0.452445
C101	C	0.950112	0.438232	-1.062169
C102	C	1.450112	0.938232	-0.562169
C103	C	0.869565	0.572636	-1.062074
C104	C	1.369565	1.072636	-0.562074
C105	C	0.869547	0.572668	-0.952352
C106	C	1.369547	1.072668	-0.452352
C107	C	0.996603	0.360677	-0.952501
C108	C	1.496603	0.860677	-0.452501
C109	C	0.996618	0.360639	-1.062225
C110	C	1.496618	0.860639	-0.562225
C111	C	0.909746	0.505667	-0.233763
C112	C	1.409746	1.005667	0.266237
C113	C	0.909849	0.505417	-0.116987
C114	C	1.409849	1.005417	0.383013
H115	H	0.550885	0.627745	-0.628347
H116	H	1.050885	1.127745	-0.128347
O117	O	0.826113	1.119167	-0.646297
O118	O	1.326113	1.619167	-0.146297
H119	H	0.776707	1.098203	-0.628174
H120	H	1.276707	1.598203	-0.128174
O121	O	1.057947	1.104878	-0.400916
O122	O	1.557947	1.604878	0.099084
H123	H	1.090443	1.039977	-0.421420
H124	H	1.590443	1.539977	0.078580
O125	O	0.979328	0.252911	-0.913067
O126	O	1.479328	0.752911	-0.413067
H127	H	0.936096	0.258177	-0.864704
H128	H	1.436096	0.758177	-0.364704
H129	H	0.836777	0.627330	-1.106715
H130	H	1.336777	1.127330	-0.606715
O131	O	0.141314	0.645383	-0.646262
O132	O	0.641314	1.145383	-0.146262
H133	H	0.111312	0.698707	-0.599087
H134	H	0.611312	1.198707	-0.099087
H135	H	0.269261	0.383558	-0.385132
H136	H	0.769261	0.883558	0.114868
H137	H	0.149994	0.383514	-0.385211
H138	H	0.649994	0.883514	0.114789
O139	O	0.542147	0.365889	-0.367217
O140	O	1.042147	0.865889	0.132783
H141	H	0.490913	0.377189	-0.378498
H142	H	0.990913	0.877189	0.121502
H143	H	0.836694	0.905609	-0.628507
H144	H	1.336694	1.405609	-0.128507
O145	O	1.061116	0.910607	-0.391132
O146	O	1.561116	1.410607	0.108868
H147	H	1.073786	0.939536	-0.470394
H148	H	1.573786	1.439536	0.029606
O149	O	1.057931	0.399265	-0.907440
O150	O	1.557931	0.899265	-0.407440
H151	H	1.090460	0.419694	-0.972284
H152	H	1.590460	0.919694	-0.472284
H153	H	0.269312	0.627657	-0.628514
H154	H	0.769312	1.127657	-0.128514
O155	O	0.973458	0.905229	-0.259705
O156	O	1.473458	1.405229	0.240295
H157	H	0.961239	0.970120	-0.205414
H158	H	1.461239	1.470120	0.294586
O159	O	0.979348	1.099513	-0.254381
O160	O	1.479348	1.599513	0.245619
H161	H	0.931873	1.070607	-0.233107
H162	H	1.431873	1.570607	0.266893
O163	O	0.826070	0.645110	-0.893128
O164	O	1.326070	1.145110	-0.393128
H165	H	0.798066	0.691806	-0.949678
H166	H	1.298066	1.191806	-0.449678
H167	H	0.979174	0.283338	-1.096261
H168	H	1.479174	0.783338	-0.596261
O169	O	1.061192	0.389479	-1.101730
O170	O	1.561192	0.889479	-0.601730
H171	H	1.073852	0.468716	-1.072708
H172	H	1.573852	0.968716	-0.572708
H173	H	0.670149	0.627795	-0.628268
H174	H	1.170149	1.127795	-0.128268
O175	O	0.678785	0.365907	-0.367156
O176	O	1.178785	0.865907	0.132844
H177	H	0.708789	0.312510	-0.414246
H178	H	1.208789	0.812510	0.085754
