data_functionalizedCrystal
_audit_creation_method	'MofGen! by Chris Wilmer'
_symmetry_space_group_name_H-M	'P1'
_symmetry_Int_Tables_number	1
_symmetry_cell_setting	triclinic
loop_
_symmetry_equiv_pos_as_xyz
  x,y,z
_cell_length_a	18.050590
_cell_length_b	19.120786
_cell_length_c	18.050582
_cell_angle_alpha	92.465003
_cell_angle_beta	89.999233
_cell_angle_gamma	92.454965
loop_
_atom_site_label
_atom_site_type_symbol
_atom_site_fract_x
_atom_site_fract_y
_atom_site_fract_z
Zn1	Zn	1.122683	-0.279875	0.406968
Zn2	Zn	1.456017	0.053459	0.740301
Zn3	Zn	1.789350	0.386792	1.073634
Zn4	Zn	1.117303	-0.397324	0.277476
Zn5	Zn	1.450636	-0.063991	0.610809
Zn6	Zn	1.783969	0.269343	0.944142
Zn7	Zn	0.998503	-0.279863	0.282826
Zn8	Zn	1.331837	0.053470	0.616159
Zn9	Zn	1.665170	0.386803	0.949493
Zn10	Zn	0.993162	-0.397273	0.401660
Zn11	Zn	1.326495	-0.063939	0.734994
Zn12	Zn	1.659828	0.269394	1.068327
O13	O	1.057913	-0.338584	0.342232
O14	O	1.391246	-0.005250	0.675566
O15	O	1.724579	0.328083	1.008899
O16	O	1.225893	-0.295481	0.389772
O17	O	1.559226	0.037853	0.723105
O18	O	1.892560	0.371186	1.056439
O19	O	1.101527	-0.381759	0.174260
O20	O	1.434861	-0.048426	0.507593
O21	O	1.768194	0.284907	0.840927
O22	O	1.019463	-0.181576	0.303754
O23	O	1.352797	0.151758	0.637087
O24	O	1.686130	0.485091	0.970421
O25	O	1.221940	-0.381770	0.294635
O26	O	1.555273	-0.048437	0.627968
O27	O	1.888607	0.284897	0.961301
O28	O	1.110698	-0.181584	0.394960
O29	O	1.444031	0.151749	0.728293
O30	O	1.777365	0.485083	1.061627
O31	O	1.014246	-0.295462	0.178191
O32	O	1.347579	0.037872	0.511524
O33	O	1.680913	0.371205	0.844858
O34	O	0.893871	-0.295412	0.298608
O35	O	1.227205	0.037921	0.631941
O36	O	1.560538	0.371255	0.965275
O37	O	1.010359	-0.381683	0.506290
O38	O	1.343693	-0.048350	0.839623
O39	O	1.677026	0.284984	1.172956
O40	O	0.889947	-0.381672	0.385915
O41	O	1.223280	-0.048339	0.719248
O42	O	1.556613	0.284995	1.052582
O43	O	1.105518	-0.295431	0.510189
O44	O	1.438852	0.037902	0.843522
O45	O	1.772185	0.371236	1.176856
O46	O	1.096348	-0.495606	0.289489
O47	O	1.429681	-0.162273	0.622822
O48	O	1.763015	0.171060	0.956155
O49	O	1.005142	-0.495569	0.380727
O50	O	1.338475	-0.162235	0.714060
O51	O	1.671809	0.171098	1.047393
C52	C	0.864963	-0.338536	0.342267
C53	C	1.198296	-0.005202	0.675600
C54	C	1.531629	0.328131	1.008933
C55	C	0.782417	-0.338532	0.342298
C56	C	1.115751	-0.005199	0.675631
C57	C	1.449084	0.328135	1.008965
C58	C	0.580848	-0.385575	0.389652
C59	C	0.914181	-0.052241	0.722985
C60	C	1.247515	0.281092	1.056318
C61	C	0.534340	-0.321532	0.410818
C62	C	0.867673	0.011802	0.744151
C63	C	1.201007	0.345135	1.077485
C64	C	0.631285	-0.338571	0.342260
C65	C	0.964618	-0.005238	0.675593
C66	C	1.297952	0.328095	1.008927
C67	C	0.530710	-0.402651	0.321091
C68	C	0.864043	-0.069318	0.654425
C69	C	1.197376	0.264016	0.987758
C70	C	0.485298	-0.338615	0.342224
C71	C	0.818631	-0.005282	0.675558
C72	C	1.151965	0.328052	1.008891
C73	C	0.585866	-0.274494	0.363463
C74	C	0.919199	0.058839	0.696796
C75	C	1.252533	0.392172	1.030130
C76	C	0.582238	-0.355657	0.273703
C77	C	0.915571	-0.022323	0.607036
C78	C	1.248904	0.311010	0.940370
C79	C	0.535754	-0.291570	0.294846
C80	C	0.869088	0.041764	0.628179
C81	C	1.202421	0.375097	0.961512
C82	C	0.715384	-0.338547	0.342282
C83	C	1.048718	-0.005214	0.675616
C84	C	1.382051	0.328119	1.008949
C85	C	0.401201	-0.338632	0.342202
C86	C	0.734534	-0.005298	0.675536
C87	C	1.067867	0.328035	1.008869
C88	C	1.049602	-0.521073	0.333967
C89	C	1.382935	-0.187739	0.667301
C90	C	1.716268	0.145594	1.000634
C91	C	1.046114	-0.599142	0.330457
C92	C	1.379447	-0.265809	0.663790
C93	C	1.712781	0.067524	0.997123
C94	C	1.091941	-0.635763	0.376332
C95	C	1.425274	-0.302430	0.709665
C96	C	1.758608	0.030903	1.042998
C97	C	1.088661	-0.709118	0.373034
C98	C	1.421994	-0.375785	0.706368
C99	C	1.755328	-0.042451	1.039701
C100	C	1.039557	-0.745850	0.323857
C101	C	1.372891	-0.412517	0.657190
C102	C	1.706224	-0.079184	0.990524
C103	C	0.993725	-0.709224	0.277980
C104	C	1.327058	-0.375891	0.611313
C105	C	1.660392	-0.042557	0.944647
C106	C	0.997002	-0.635871	0.281282
C107	C	1.330335	-0.302537	0.614615
C108	C	1.663668	0.030796	0.947948
C109	C	1.027285	-0.967333	0.311513
C110	C	1.360619	-0.633999	0.644847
C111	C	1.693952	-0.300666	0.978180
C112	C	1.024014	-1.040691	0.308213
C113	C	1.357347	-0.707358	0.641547
C114	C	1.690680	-0.374025	0.974880
C115	C	1.118949	-1.040580	0.403269
C116	C	1.452282	-0.707247	0.736602
C117	C	1.785616	-0.373914	1.069936
C118	C	1.122225	-0.967226	0.406563
C119	C	1.455558	-0.633892	0.739897
C120	C	1.788891	-0.300559	1.073230
C121	C	1.076390	-0.930606	0.360689
C122	C	1.409723	-0.597272	0.694022
C123	C	1.743057	-0.263939	1.027356
C124	C	1.036205	-0.820831	0.320483
C125	C	1.369538	-0.487497	0.653817
C126	C	1.702872	-0.154164	0.987150
C127	C	1.079739	-0.855627	0.364067
C128	C	1.413072	-0.522293	0.697400
C129	C	1.746406	-0.188960	1.030733
C130	C	1.251616	-0.338632	0.342199
C131	C	1.584949	-0.005299	0.675532
C132	C	1.918283	0.328034	1.008865
C133	C	1.334161	-0.338653	0.342184
C134	C	1.667494	-0.005320	0.675517
C135	C	2.000828	0.328014	1.008851
C136	C	1.057943	-0.338553	0.535939
C137	C	1.391277	-0.005219	0.869273
C138	C	1.724610	0.328114	1.202606
C139	C	1.057956	-0.338539	0.618486
C140	C	1.391290	-0.005206	0.951819
C141	C	1.724623	0.328127	1.285153
C142	C	1.066277	-0.155382	0.350546
C143	C	1.399610	0.177951	0.683879
C144	C	1.732943	0.511285	1.017213
C145	C	1.069841	-0.077312	0.354089
C146	C	1.403174	0.256021	0.687422
C147	C	1.736507	0.589354	1.020755
C148	C	1.057927	-0.338564	0.149281
C149	C	1.391261	-0.005231	0.482615
C150	C	1.724594	0.328103	0.815948
C151	C	1.058067	-0.338379	0.066744
C152	C	1.391401	-0.005046	0.400077
C153	C	1.724734	0.328287	0.733411
C154	C	1.006250	-0.385379	0.815819
C155	C	1.339583	-0.052046	1.149153
C156	C	1.672916	0.281288	1.482486
C157	C	1.073231	-0.402560	0.864416
C158	C	1.406564	-0.069227	1.197750
C159	C	1.739897	0.264106	1.531083
C160	C	1.057995	-0.338486	0.769619
C161	C	1.391329	-0.005152	1.102952
C162	C	1.724662	0.328181	1.436285
C163	C	0.991052	-0.321285	0.868104
C164	C	1.324386	0.012048	1.201438
C165	C	1.657719	0.345382	1.534771
C166	C	1.058027	-0.338435	0.915606
C167	C	1.391360	-0.005102	1.248940
C168	C	1.724694	0.328231	1.582273
C169	C	1.125011	-0.355700	0.817127
C170	C	1.458344	-0.022367	1.150461
C171	C	1.791677	0.310966	1.483794
C172	C	1.042788	-0.274395	0.820812
C173	C	1.376121	0.058938	1.154145
C174	C	1.709454	0.392271	1.487479
C175	C	1.109817	-0.291552	0.869388
C176	C	1.443150	0.041781	1.202721
C177	C	1.776483	0.375114	1.536055
C178	C	1.057976	-0.338517	0.685519
C179	C	1.391309	-0.005183	1.018852
C180	C	1.724643	0.328150	1.352186
C181	C	1.058054	-0.338404	0.999704
C182	C	1.391387	-0.005071	1.333038
C183	C	1.724721	0.328262	1.666371
H184	H	0.609908	-0.220305	0.381418
H185	H	0.943242	0.113028	0.714751
H186	H	1.276575	0.446361	1.048084
Br187	Br	0.934802	-0.586169	0.219023
Br188	Br	1.268136	-0.252836	0.552356
Br189	Br	1.601469	0.080497	0.885690
Br190	Br	0.502864	-0.225277	0.228023
Br191	Br	0.836198	0.108056	0.561356
Br192	Br	1.169531	0.441389	0.894689
H193	H	0.513276	-0.307095	0.468780
H194	H	0.846610	0.026239	0.802114
H195	H	1.179943	0.359572	1.135447
H196	H	0.506573	-0.456824	0.303204
H197	H	0.839907	-0.123490	0.636538
H198	H	1.173240	0.209843	0.969871
H199	H	1.153638	-0.251875	0.892704
H200	H	1.486972	0.081459	1.226037
H201	H	1.820305	0.414792	1.559370
Br202	Br	1.021284	-0.184119	0.788698
Br203	Br	1.354617	0.149215	1.122031
Br204	Br	1.687951	0.482548	1.455365
H205	H	1.131930	-0.605861	0.416374
H206	H	1.465263	-0.272528	0.749707
H207	H	1.798597	0.060806	1.083041
H208	H	1.119717	-0.825717	0.404110
H209	H	1.453050	-0.492384	0.737443
H210	H	1.786383	-0.159051	1.070776
Br211	Br	0.896674	-0.297071	0.905384
Br212	Br	1.230007	0.036262	1.238718
Br213	Br	1.563341	0.369596	1.572051
Br214	Br	1.150845	-0.758816	0.435309
Br215	Br	1.484178	-0.425483	0.768643
Br216	Br	1.817512	-0.092149	1.101976
Br217	Br	0.613972	-0.451714	0.456528
Br218	Br	0.947305	-0.118381	0.789861
Br219	Br	1.280638	0.214952	1.123195
Br220	Br	0.617344	-0.379736	0.177105
Br221	Br	0.950677	-0.046403	0.510438
Br222	Br	1.284011	0.286931	0.843771
Br223	Br	1.188869	-0.917380	0.473305
Br224	Br	1.522202	-0.584046	0.806639
Br225	Br	1.855536	-0.250713	1.139972
Br226	Br	1.181148	-1.090282	0.465525
Br227	Br	1.514482	-0.756949	0.798859
Br228	Br	1.847815	-0.423615	1.132192
Br229	Br	0.933374	-0.451557	0.776725
Br230	Br	1.266708	-0.118224	1.110058
Br231	Br	1.600041	0.215110	1.443392
Br232	Br	0.957373	-1.090542	0.241463
Br233	Br	1.290706	-0.757209	0.574797
Br234	Br	1.624040	-0.423876	0.908130
H235	H	0.989966	-0.937523	0.274159
H236	H	1.323300	-0.604189	0.607492
H237	H	1.656633	-0.270856	0.940826
Br238	Br	0.927073	-0.759074	0.211248
Br239	Br	1.260407	-0.425741	0.544582
Br240	Br	1.593740	-0.092407	0.877915
Br241	Br	0.969559	-0.870687	0.253751
Br242	Br	1.302892	-0.537354	0.587085
Br243	Br	1.636226	-0.204021	0.920418
H244	H	1.086113	-0.456738	0.883666
H245	H	1.419446	-0.123405	1.216999
H246	H	1.752779	0.209928	1.550332
Br247	Br	1.219413	-0.380024	0.780004
Br248	Br	1.552747	-0.046690	1.113337
Br249	Br	1.886080	0.286643	1.446670
