data_functionalizedCrystal
_audit_creation_method	'MofGen! by Chris Wilmer'
_symmetry_space_group_name_H-M	'P1'
_symmetry_Int_Tables_number	1
_symmetry_cell_setting	triclinic
loop_
_symmetry_equiv_pos_as_xyz
  x,y,z
_cell_length_a	10.686220
_cell_length_b	10.685194
_cell_length_c	19.076919
_cell_angle_alpha	87.724484
_cell_angle_beta	96.464688
_cell_angle_gamma	99.069756
loop_
_atom_site_label
_atom_site_type_symbol
_atom_site_fract_x
_atom_site_fract_y
_atom_site_fract_z
Zn1	Zn	1.878297	-0.379845	-0.301440
Zn2	Zn	1.871773	-0.582303	-0.175369
Zn3	Zn	1.674573	-0.387658	-0.192131
Zn4	Zn	1.649783	-0.608369	-0.301397
O5	O	1.768606	-0.489544	-0.242584
O6	O	2.055594	-0.392523	-0.277719
O7	O	1.853259	-0.548844	-0.079104
O8	O	1.714702	-0.209525	-0.213664
O9	O	2.050801	-0.541268	-0.185096
O10	O	1.864377	-0.203785	-0.293972
O11	O	1.708376	-0.405839	-0.091418
O12	O	1.493121	-0.431114	-0.213623
O13	O	1.672451	-0.585693	-0.399892
O14	O	1.474908	-0.593269	-0.293900
O15	O	1.840339	-0.417798	-0.399923
O16	O	1.829221	-0.762858	-0.185055
O17	O	1.666125	-0.782008	-0.277647
C18	C	1.437819	-0.515869	-0.255576
C19	C	1.296303	-0.527163	-0.261149
C20	C	1.744308	-0.818351	-0.229541
C21	C	1.734028	-0.959008	-0.223980
C22	C	2.100685	-0.463117	-0.229542
C23	C	2.242197	-0.451855	-0.223985
C24	C	1.754357	-0.503782	-0.426159
C25	C	1.748285	-0.509849	-0.504387
C26	C	1.793032	-0.159451	-0.255692
C27	C	1.803441	-0.018786	-0.261278
C28	C	1.832839	-0.425290	-0.541157
C29	C	1.827118	-0.430988	-0.614661
C30	C	1.736850	-0.521251	-0.651395
C31	C	1.652288	-0.605815	-0.614621
C32	C	1.658003	-0.600110	-0.541118
C33	C	1.710378	-0.547679	-0.871224
C34	C	1.704671	-0.553380	-0.944732
C35	C	1.879501	-0.378550	-0.944767
C36	C	1.885213	-0.372859	-0.871263
C37	C	1.800647	-0.457418	-0.834495
N38	N	1.731003	-0.527080	-0.726529
N39	N	1.806489	-0.451583	-0.759364
C40	C	1.782880	-0.475264	-0.059725
C41	C	1.789224	-0.468820	0.018499
H42	H	1.234355	-0.600289	-0.297230
F43	F	1.646051	-1.032770	-0.176681
F44	F	1.891400	-0.945031	-0.308582
F45	F	1.323156	-0.356289	-0.176820
H46	H	1.906349	-0.351791	-0.511253
H47	H	1.578784	-0.679305	-0.644536
H48	H	1.895973	-0.362133	-0.644595
F49	F	1.981290	-0.276788	-0.832173
H50	H	1.641535	-0.616550	-0.841295
H51	H	1.948349	-0.309706	-0.974711
F52	F	1.608585	-0.649450	-0.983826
F53	F	1.568007	-0.690107	-0.501986
