data_functionalizedCrystal
_audit_creation_method	'MofGen! by Chris Wilmer'
_symmetry_space_group_name_H-M	'P1'
_symmetry_Int_Tables_number	1
_symmetry_cell_setting	triclinic
loop_
_symmetry_equiv_pos_as_xyz
  x,y,z
_cell_length_a	19.288840
_cell_length_b	19.288865
_cell_length_c	18.366186
_cell_angle_alpha	89.988521
_cell_angle_beta	89.983729
_cell_angle_gamma	83.131131
loop_
_atom_site_label
_atom_site_type_symbol
_atom_site_fract_x
_atom_site_fract_y
_atom_site_fract_z
O1	O	0.921364	0.086566	-0.060680
O2	O	1.171364	0.336566	0.189320
O3	O	1.421364	0.586566	0.439320
O4	O	1.671364	0.836566	0.689320
O5	O	0.719101	0.098273	-0.060655
O6	O	0.969101	0.348273	0.189345
O7	O	1.219101	0.598273	0.439345
O8	O	1.469101	0.848273	0.689345
O9	O	0.826077	-0.008712	-0.060654
O10	O	1.076077	0.241288	0.189346
O11	O	1.326077	0.491288	0.439346
O12	O	1.576077	0.741288	0.689346
O13	O	0.814388	0.193550	-0.060681
O14	O	1.064388	0.443550	0.189319
O15	O	1.314388	0.693550	0.439319
O16	O	1.564388	0.943550	0.689319
O17	O	0.826059	-0.008717	0.060446
O18	O	1.076059	0.241283	0.310446
O19	O	1.326059	0.491283	0.560446
O20	O	1.576059	0.741283	0.810446
O21	O	0.719083	0.098268	0.060444
O22	O	0.969083	0.348268	0.310444
O23	O	1.219083	0.598268	0.560444
O24	O	1.469083	0.848268	0.810444
O25	O	0.921346	0.086561	0.060420
O26	O	1.171346	0.336561	0.310420
O27	O	1.421346	0.586561	0.560420
O28	O	1.671346	0.836561	0.810420
Zn29	Zn	0.820211	0.092413	0.079659
Zn30	Zn	1.070211	0.342413	0.329659
Zn31	Zn	1.320211	0.592413	0.579659
Zn32	Zn	1.570211	0.842413	0.829659
Zn33	Zn	0.820235	0.092420	-0.079895
Zn34	Zn	1.070235	0.342420	0.170105
Zn35	Zn	1.320235	0.592420	0.420105
Zn36	Zn	1.570235	0.842420	0.670105
O37	O	0.814370	0.193545	0.060418
O38	O	1.064370	0.443545	0.310418
O39	O	1.314370	0.693545	0.560418
O40	O	1.564370	0.943545	0.810418
C41	C	0.693215	0.097896	-0.000102
C42	C	0.943215	0.347896	0.249898
C43	C	1.193215	0.597896	0.499898
C44	C	1.443215	0.847896	0.749898
C45	C	0.616110	0.096774	-0.000093
C46	C	0.866110	0.346774	0.249907
C47	C	1.116110	0.596774	0.499907
C48	C	1.366110	0.846774	0.749907
C49	C	0.579917	0.096238	-0.066106
C50	C	0.829917	0.346238	0.183894
C51	C	1.079917	0.596238	0.433894
C52	C	1.329917	0.846238	0.683894
C53	C	0.507470	0.095176	-0.066114
C54	C	0.757470	0.345176	0.183886
C55	C	1.007470	0.595176	0.433886
C56	C	1.257470	0.845176	0.683886
C57	C	0.471221	0.094636	-0.000106
C58	C	0.721221	0.344636	0.249894
C59	C	0.971221	0.594636	0.499894
C60	C	1.221221	0.844636	0.749894
C61	C	0.507423	0.095176	0.065915
C62	C	0.757423	0.345176	0.315915
C63	C	1.007423	0.595176	0.565915
C64	C	1.257423	0.845176	0.815915
C65	C	0.579868	0.096245	0.065922
C66	C	0.829868	0.346245	0.315922
C67	C	1.079868	0.596245	0.565922
C68	C	1.329868	0.846245	0.815922
C69	C	0.361886	0.052256	0.050461
C70	C	0.611886	0.302256	0.300461
C71	C	0.861886	0.552256	0.550461
C72	C	1.111886	0.802256	0.800461
C73	C	0.289443	0.051183	0.050451
C74	C	0.539443	0.301183	0.300451
C75	C	0.789443	0.551183	0.550451
C76	C	1.039443	0.801183	0.800451
C77	C	0.247778	0.091342	-0.000125
C78	C	0.497778	0.341342	0.249875
C79	C	0.747778	0.591342	0.499875
C80	C	0.997778	0.841342	0.749875
C81	C	0.278565	0.132566	-0.050703
C82	C	0.528565	0.382566	0.199297
C83	C	0.778565	0.632566	0.449297
C84	C	1.028565	0.882566	0.699297
C85	C	0.351009	0.133635	-0.050697
C86	C	0.601009	0.383635	0.199303
C87	C	0.851009	0.633635	0.449303
C88	C	1.101009	0.883635	0.699303
C89	C	0.392667	0.093477	-0.000107
C90	C	0.642667	0.343477	0.249893
C91	C	0.892667	0.593477	0.499893
C92	C	1.142667	0.843477	0.749893
C93	C	0.133029	0.089655	-0.066152
C94	C	0.383029	0.339655	0.183848
C95	C	0.633029	0.589655	0.433848
C96	C	0.883029	0.839655	0.683848
C97	C	0.060580	0.088598	-0.066158
C98	C	0.310580	0.338598	0.183842
C99	C	0.560580	0.588598	0.433842
C100	C	0.810580	0.838598	0.683842
C101	C	0.060535	0.088591	0.065874
C102	C	0.310535	0.338591	0.315874
C103	C	0.560535	0.588591	0.565874
C104	C	0.810535	0.838591	0.815874
C105	C	0.132982	0.089656	0.065878
C106	C	0.382982	0.339656	0.315878
C107	C	0.632982	0.589656	0.565878
C108	C	0.882982	0.839656	0.815878
C109	C	0.169225	0.090185	-0.000137
C110	C	0.419225	0.340185	0.249863
C111	C	0.669225	0.590185	0.499863
C112	C	0.919225	0.840185	0.749863
C113	C	0.825692	-0.034591	-0.000102
C114	C	1.075692	0.215409	0.249898
C115	C	1.325692	0.465409	0.499898
C116	C	1.575692	0.715409	0.749898
C117	C	0.824563	-0.111694	-0.000095
C118	C	1.074563	0.138306	0.249905
C119	C	1.324563	0.388306	0.499905
C120	C	1.574563	0.638306	0.749905
C121	C	0.887331	-0.156396	-0.000099
C122	C	1.137331	0.093604	0.249901
C123	C	1.387331	0.343604	0.499901
C124	C	1.637331	0.593604	0.749901
C125	C	0.886270	-0.228843	-0.000111
C126	C	1.136270	0.021157	0.249889
C127	C	1.386270	0.271157	0.499889
C128	C	1.636270	0.521157	0.749889
C129	C	0.822438	-0.256585	-0.000103
C130	C	1.072438	-0.006585	0.249897
C131	C	1.322438	0.243415	0.499897
C132	C	1.572438	0.493415	0.749897
C133	C	0.759661	-0.211873	-0.000104
C134	C	1.009661	0.038127	0.249896
C135	C	1.259661	0.288127	0.499896
C136	C	1.509661	0.538127	0.749896
C137	C	0.760723	-0.139428	-0.000100
C138	C	1.010723	0.110572	0.249900
C139	C	1.260723	0.360572	0.499900
C140	C	1.510723	0.610572	0.749900
C141	C	0.772251	-0.364870	0.042321
C142	C	1.022251	-0.114870	0.292321
C143	C	1.272251	0.135130	0.542321
C144	C	1.522251	0.385130	0.792321
C145	C	0.771191	-0.437314	0.042321
C146	C	1.021191	-0.187314	0.292321
C147	C	1.271191	0.062686	0.542321
C148	C	1.521191	0.312686	0.792321
C149	C	0.819158	-0.480030	-0.000119
C150	C	1.069158	-0.230030	0.249881
C151	C	1.319158	0.019970	0.499881
C152	C	1.569158	0.269970	0.749881
C153	C	0.868196	-0.450295	-0.042551
C154	C	1.118196	-0.200295	0.207449
C155	C	1.368196	0.049705	0.457449
C156	C	1.618196	0.299705	0.707449
C157	C	0.869259	-0.377849	-0.042547
C158	C	1.119259	-0.127849	0.207453
C159	C	1.369259	0.122151	0.457453
C160	C	1.619259	0.372151	0.707453
C161	C	0.821278	-0.335139	-0.000108
C162	C	1.071278	-0.085139	0.249892
C163	C	1.321278	0.164861	0.499892
C164	C	1.571278	0.414861	0.749892
C165	C	0.880781	-0.603288	-0.000137
C166	C	1.130781	-0.353288	0.249863
C167	C	1.380781	-0.103288	0.499863
C168	C	1.630781	0.146712	0.749863
C169	C	0.879717	-0.675736	-0.000153
C170	C	1.129717	-0.425736	0.249847
C171	C	1.379717	-0.175736	0.499847
C172	C	1.629717	0.074264	0.749847
C173	C	0.753106	-0.658764	-0.000138
C174	C	1.003106	-0.408764	0.249862
C175	C	1.253106	-0.158764	0.499862
C176	C	1.503106	0.091236	0.749862
C177	C	0.754171	-0.586318	-0.000130
C178	C	1.004171	-0.336318	0.249870
C179	C	1.254171	-0.086318	0.499870
C180	C	1.504171	0.163682	0.749870
C181	C	0.818010	-0.558584	-0.000125
C182	C	1.068010	-0.308584	0.249875
C183	C	1.318010	-0.058584	0.499875
C184	C	1.568010	0.191416	0.749875
C185	C	0.947232	0.086937	-0.000135
C186	C	1.197232	0.336937	0.249865
C187	C	1.447232	0.586937	0.499865
C188	C	1.697232	0.836937	0.749865
C189	C	1.024336	0.088059	-0.000149
C190	C	1.274336	0.338059	0.249851
C191	C	1.524336	0.588059	0.499851
C192	C	1.774336	0.838059	0.749851
C193	C	0.814755	0.219424	-0.000135
C194	C	1.064755	0.469424	0.249865
C195	C	1.314755	0.719424	0.499865
C196	C	1.564755	0.969424	0.749865
C197	C	0.815884	0.296527	-0.000147
C198	C	1.065884	0.546527	0.249853
C199	C	1.315884	0.796527	0.499853
C200	C	1.565884	1.046527	0.749853
N201	N	0.820200	0.092408	0.188550
N202	N	1.070200	0.342408	0.438550
N203	N	1.320200	0.592408	0.688550
N204	N	1.570200	0.842408	0.938550
N205	N	0.820252	0.092420	-0.188786
N206	N	1.070252	0.342420	0.061214
N207	N	1.320252	0.592420	0.311214
N208	N	1.570252	0.842420	0.561214
C209	C	0.867584	0.045059	0.226651
C210	C	1.117584	0.295059	0.476651
C211	C	1.367584	0.545059	0.726651
C212	C	1.617584	0.795059	0.976651
C213	C	0.867589	0.045055	0.302879
C214	C	1.117589	0.295055	0.552879
C215	C	1.367589	0.545055	0.802879
C216	C	1.617589	0.795055	1.052879
C217	C	0.820215	0.092414	0.341003
C218	C	1.070215	0.342414	0.591003
C219	C	1.320215	0.592414	0.841003
C220	C	1.570215	0.842414	1.091003
C221	C	0.772822	0.139767	0.302893
C222	C	1.022822	0.389767	0.552893
C223	C	1.272822	0.639767	0.802893
C224	C	1.522822	0.889767	1.052893
C225	C	0.772814	0.139764	0.226666
C226	C	1.022814	0.389764	0.476666
C227	C	1.272814	0.639764	0.726666
C228	C	1.522814	0.889764	0.976666
C229	C	0.810917	0.155702	0.461755
C230	C	1.060917	0.405702	0.711755
C231	C	1.310917	0.655702	0.961755
C232	C	1.560917	0.905702	1.211755
C233	C	0.810930	0.155706	0.537980
C234	C	1.060930	0.405706	0.787980
C235	C	1.310930	0.655706	1.037980
C236	C	1.560930	0.905706	1.287980
C237	C	0.820235	0.092422	0.576110
C238	C	1.070235	0.342422	0.826110
C239	C	1.320235	0.592422	1.076110
C240	C	1.570235	0.842422	1.326110
C241	C	0.829543	0.029132	0.538006
C242	C	1.079543	0.279132	0.788006
C243	C	1.329543	0.529132	1.038006
C244	C	1.579543	0.779132	1.288006
C245	C	0.829535	0.029129	0.461780
C246	C	1.079535	0.279129	0.711780
C247	C	1.329535	0.529129	0.961780
C248	C	1.579535	0.779129	1.211780
C249	C	0.820218	0.092422	0.423658
C250	C	1.070218	0.342422	0.673658
C251	C	1.320218	0.592422	0.923658
C252	C	1.570218	0.842422	1.173658
C253	C	0.867627	0.045066	0.696866
C254	C	1.117627	0.295066	0.946866
C255	C	1.367627	0.545066	1.196866
C256	C	1.617627	0.795066	1.446866
C257	C	0.867627	0.045062	0.773096
C258	C	1.117627	0.295062	1.023096
C259	C	1.367627	0.545062	1.273096
C260	C	1.617627	0.795062	1.523096
C261	C	0.772863	0.139779	0.773108
C262	C	1.022863	0.389779	1.023108
C263	C	1.272863	0.639779	1.273108
C264	C	1.522863	0.889779	1.523108
C265	C	0.772860	0.139777	0.696880
C266	C	1.022860	0.389777	0.946880
C267	C	1.272860	0.639777	1.196880
C268	C	1.522860	0.889777	1.446880
C269	C	0.820246	0.092421	0.658764
C270	C	1.070246	0.342421	0.908764
C271	C	1.320246	0.592421	1.158764
C272	C	1.570246	0.842421	1.408764
H273	H	0.162538	0.090093	-0.119905
H274	H	0.412538	0.340093	0.130095
H275	H	0.662538	0.590093	0.380095
H276	H	0.912538	0.840093	0.630095
O277	O	0.406827	0.008940	0.105012
O278	O	0.656827	0.258940	0.355012
O279	O	0.906827	0.508940	0.605012
O280	O	1.156827	0.758940	0.855012
H281	H	0.400411	-0.047036	0.097534
H282	H	0.650411	0.202964	0.347534
H283	H	0.900411	0.452964	0.597534
H284	H	1.150411	0.702964	0.847534
H285	H	0.937386	-0.265246	-0.000117
H286	H	1.187386	-0.015246	0.249883
H287	H	1.437386	0.234754	0.499883
H288	H	1.687386	0.484754	0.749883
H289	H	0.264383	0.017613	0.091632
H290	H	0.514383	0.267613	0.341632
H291	H	0.764383	0.517613	0.591632
H292	H	1.014383	0.767613	0.841632
H293	H	0.734249	0.178326	0.333937
H294	H	0.984249	0.428326	0.583937
H295	H	1.234249	0.678326	0.833937
H296	H	1.484249	0.928326	1.083937
O297	O	0.721769	0.190873	0.814204
O298	O	0.971769	0.440873	1.064204
O299	O	1.221769	0.690873	1.314204
O300	O	1.471769	0.940873	1.564204
H301	H	0.688102	0.161738	0.848962
H302	H	0.938102	0.411738	1.098962
H303	H	1.188102	0.661738	1.348962
H304	H	1.438102	0.911738	1.598962
H305	H	0.837120	-0.022400	0.569050
H306	H	1.087120	0.227600	0.819050
H307	H	1.337120	0.477600	1.069050
H308	H	1.587120	0.727600	1.319050
O309	O	0.918736	-0.006015	0.814191
O310	O	1.168736	0.243985	1.064191
O311	O	1.418736	0.493985	1.314191
O312	O	1.668736	0.743985	1.564191
H313	H	0.910776	0.001935	0.873600
H314	H	1.160776	0.251935	1.123600
H315	H	1.410776	0.501935	1.373600
H316	H	1.660776	0.751935	1.623600
O317	O	0.619008	0.096814	-0.137304
O318	O	0.869008	0.346814	0.112696
O319	O	1.119008	0.596814	0.362696
O320	O	1.369008	0.846814	0.612696
H321	H	0.598770	0.143944	-0.168964
H322	H	0.848770	0.393944	0.081036
H323	H	1.098770	0.643944	0.331036
H324	H	1.348770	0.893944	0.581036
O325	O	0.800900	0.223969	0.579069
O326	O	1.050900	0.473969	0.829069
O327	O	1.300900	0.723969	1.079069
O328	O	1.550900	0.973969	1.329069
H329	H	0.753641	0.225692	0.613826
H330	H	1.003641	0.475692	0.863826
H331	H	1.253641	0.725692	1.113826
H332	H	1.503641	0.975692	1.363826
O333	O	0.233637	0.175890	-0.105256
O334	O	0.483637	0.425890	0.144744
O335	O	0.733637	0.675890	0.394744
O336	O	0.983637	0.925890	0.644744
H337	H	0.178089	0.168232	-0.096759
H338	H	0.428089	0.418232	0.153241
H339	H	0.678089	0.668232	0.403241
H340	H	0.928089	0.918232	0.653241
H341	H	0.734278	0.178336	0.665856
H342	H	0.984278	0.428336	0.915856
H343	H	1.234278	0.678336	1.165856
H344	H	1.484278	0.928336	1.415856
H345	H	0.803327	0.207239	0.430716
H346	H	1.053327	0.457239	0.680716
H347	H	1.303327	0.707239	0.930716
H348	H	1.553327	0.957239	1.180716
O349	O	0.021540	0.087995	-0.137361
O350	O	0.271540	0.337995	0.112639
O351	O	0.521540	0.587995	0.362639
O352	O	0.771540	0.837995	0.612639
H353	H	0.058918	0.088526	-0.183260
H354	H	0.308918	0.338526	0.066740
H355	H	0.558918	0.588526	0.316740
H356	H	0.808918	0.838526	0.566740
H357	H	0.707687	-0.234465	-0.000099
H358	H	0.957687	0.015535	0.249901
H359	H	1.207687	0.265535	0.499901
H360	H	1.457687	0.515535	0.749901
O361	O	0.684257	-0.688679	-0.000126
O362	O	0.934257	-0.438679	0.249874
O363	O	1.184257	-0.188679	0.499874
O364	O	1.434257	0.061321	0.749874
H365	H	0.654114	-0.670699	-0.049482
H366	H	0.904114	-0.420699	0.200518
H367	H	1.154114	-0.170699	0.450518
H368	H	1.404114	0.079301	0.700518
O369	O	0.468288	0.094930	0.137111
O370	O	0.718288	0.344930	0.387111
O371	O	0.968288	0.594930	0.637111
O372	O	1.218288	0.844930	0.887111
H373	H	0.411816	0.094213	0.126017
H374	H	0.661816	0.344213	0.376017
H375	H	0.911816	0.594213	0.626017
H376	H	1.161816	0.844213	0.876017
H377	H	0.734228	0.178322	0.195644
H378	H	0.984228	0.428322	0.445644
H379	H	1.234228	0.678322	0.695644
H380	H	1.484228	0.928322	0.945644
H381	H	0.733189	-0.330095	0.076885
H382	H	0.983189	-0.080095	0.326885
H383	H	1.233189	0.169905	0.576885
H384	H	1.483189	0.419905	0.826885
H385	H	0.906167	0.006497	0.195619
H386	H	1.156167	0.256497	0.445619
H387	H	1.406167	0.506497	0.695619
H388	H	1.656167	0.756497	0.945619
O389	O	0.021433	0.088140	0.137072
O390	O	0.271433	0.338140	0.387072
O391	O	0.521433	0.588140	0.637072
O392	O	0.771433	0.838140	0.887072
H393	H	-0.035029	0.087351	0.125978
H394	H	0.214971	0.337351	0.375978
H395	H	0.464971	0.587351	0.625978
H396	H	0.714971	0.837351	0.875978
O397	O	0.947422	-0.723955	-0.000160
O398	O	1.197422	-0.473955	0.249840
O399	O	1.447422	-0.223955	0.499840
O400	O	1.697422	0.026045	0.749840
H401	H	0.949949	-0.757384	0.049191
H402	H	1.199949	-0.507384	0.299191
H403	H	1.449949	-0.257384	0.549191
H404	H	1.699949	-0.007384	0.799191
H405	H	0.837112	-0.022404	0.430759
H406	H	1.087112	0.227596	0.680759
H407	H	1.337112	0.477596	0.930759
H408	H	1.587112	0.727596	1.180759
H409	H	0.906209	0.006503	0.665831
H410	H	1.156209	0.256503	0.915831
H411	H	1.406209	0.506503	1.165831
H412	H	1.656209	0.756503	1.415831
O413	O	0.718307	-0.469385	0.088089
O414	O	0.968307	-0.219385	0.338089
O415	O	1.218307	0.030615	0.588089
O416	O	1.468307	0.280615	0.838089
H417	H	0.664837	-0.448290	0.070622
H418	H	0.914837	-0.198290	0.320622
H419	H	1.164837	0.051710	0.570622
H420	H	1.414837	0.301710	0.820622
H421	H	0.477995	0.094741	-0.119872
H422	H	0.727995	0.344741	0.130128
H423	H	0.977995	0.594741	0.380128
H424	H	1.227995	0.844741	0.630128
O425	O	0.919943	-0.496348	-0.088333
O426	O	1.169943	-0.246348	0.161667
O427	O	1.419943	0.003652	0.411667
O428	O	1.669943	0.253652	0.661667
H429	H	0.891368	-0.525572	-0.128185
H430	H	1.141368	-0.275572	0.121815
H431	H	1.391368	-0.025572	0.371815
H432	H	1.641368	0.224428	0.621815
O433	O	0.384218	0.178102	-0.105235
O434	O	0.634218	0.428102	0.144765
O435	O	0.884218	0.678102	0.394765
O436	O	1.134218	0.928102	0.644765
H437	H	0.343079	0.205855	-0.140404
H438	H	0.593079	0.455855	0.109596
H439	H	0.843079	0.705855	0.359596
H440	H	1.093079	0.955855	0.609596
H441	H	0.162452	0.090088	0.119633
H442	H	0.412452	0.340088	0.369633
H443	H	0.662452	0.590088	0.619633
H444	H	0.912452	0.840088	0.869633
O445	O	0.918703	-0.006015	0.343983
O446	O	1.168703	0.243985	0.593983
O447	O	1.418703	0.493985	0.843983
O448	O	1.668703	0.743985	1.093983
H449	H	0.910745	0.001942	0.403391
H450	H	1.160745	0.251942	0.653391
H451	H	1.410745	0.501942	0.903391
H452	H	1.660745	0.751942	1.153391
H453	H	0.609336	0.096683	0.119680
H454	H	0.859336	0.346683	0.369680
H455	H	1.109336	0.596683	0.619680
H456	H	1.359336	0.846683	0.869680
H457	H	0.939314	-0.133820	-0.000098
H458	H	1.189314	0.116180	0.249902
H459	H	1.439314	0.366180	0.499902
H460	H	1.689314	0.616180	0.749902
H461	H	0.703058	-0.549920	-0.000122
H462	H	0.953058	-0.299920	0.249878
H463	H	1.203058	-0.049920	0.499878
H464	H	1.453058	0.200080	0.749878
O465	O	0.922135	-0.345772	-0.088320
O466	O	1.172135	-0.095772	0.161680
O467	O	1.422135	0.154228	0.411680
O468	O	1.672135	0.404228	0.661680
H469	H	0.955309	-0.387640	-0.117841
H470	H	1.205309	-0.137640	0.132159
H471	H	1.455309	0.112360	0.382159
H472	H	1.705309	0.362360	0.632159
H473	H	0.932763	-0.580706	-0.000137
H474	H	1.182763	-0.330706	0.249863
H475	H	1.432763	-0.080706	0.499863
H476	H	1.682763	0.169294	0.749863
H477	H	0.709608	-0.103030	-0.000096
H478	H	0.959608	0.146970	0.249904
H479	H	1.209608	0.396970	0.499904
H480	H	1.459608	0.646970	0.749904
