data_functionalizedCrystal
_audit_creation_method	'MofGen! by Chris Wilmer'
_symmetry_space_group_name_H-M	'P1'
_symmetry_Int_Tables_number	1
_symmetry_cell_setting	triclinic
loop_
_symmetry_equiv_pos_as_xyz
  x,y,z
_cell_length_a	11.792240
_cell_length_b	11.792241
_cell_length_c	10.268362
_cell_angle_alpha	90.000374
_cell_angle_beta	90.014630
_cell_angle_gamma	84.193417
loop_
_atom_site_label
_atom_site_type_symbol
_atom_site_fract_x
_atom_site_fract_y
_atom_site_fract_z
O1	O	-0.155569	-1.506909	-0.108203
O2	O	0.344431	-1.006909	0.391797
O3	O	-0.171602	-1.176568	-0.108236
O4	O	0.328398	-0.676568	0.391764
O5	O	0.001585	-1.349755	-0.108179
O6	O	0.501585	-0.849755	0.391821
O7	O	-0.328756	-1.333722	-0.108260
O8	O	0.171244	-0.833722	0.391740
O9	O	0.001593	-1.349740	0.108421
O10	O	0.501593	-0.849740	0.608421
O11	O	-0.171594	-1.176553	0.108364
O12	O	0.328406	-0.676553	0.608364
O13	O	-0.155561	-1.506894	0.108398
O14	O	0.344439	-1.006894	0.608398
Cu15	Cu	-0.163577	-1.341722	0.128158
Cu16	Cu	0.336423	-0.841722	0.628158
Cu17	Cu	-0.163586	-1.341740	-0.127997
Cu18	Cu	0.336414	-0.841740	0.372003
O19	O	-0.328748	-1.333707	0.108341
O20	O	0.171252	-0.833707	0.608341
C21	C	0.043880	-1.348740	0.000128
C22	C	0.543880	-0.848740	0.500128
C23	C	0.169894	-1.345726	0.000150
C24	C	0.669894	-0.845726	0.500150
C25	C	-0.170591	-1.134269	0.000060
C26	C	0.329409	-0.634269	0.500060
C27	C	-0.167576	-1.008255	0.000050
C28	C	0.332424	-0.508255	0.500050
C29	C	-0.156572	-1.549192	0.000098
C30	C	0.343428	-1.049192	0.500098
C31	C	-0.159587	-1.675206	0.000100
C32	C	0.340413	-1.175206	0.500100
C33	C	0.400606	-1.340183	0.000170
C34	C	0.900606	-0.840183	0.500170
C35	C	0.272221	-1.343262	0.000159
C36	C	0.772221	-0.843262	0.500159
C37	C	0.628957	-1.334721	0.000076
C38	C	1.128957	-0.834721	0.500076
C39	C	0.502943	-1.337736	0.000184
C40	C	1.002943	-0.837736	0.500184
N41	N	-0.163571	-1.341717	0.308324
N42	N	0.336429	-0.841717	0.808324
C43	C	-0.162034	-0.777543	0.000088
C44	C	0.337966	-0.277543	0.500088
C45	C	-0.165113	-0.905928	0.000067
C46	C	0.334887	-0.405928	0.500067
N47	N	-0.163584	-1.341753	-0.308163
N48	N	0.336416	-0.841753	0.191837
C49	C	-0.163584	-1.341734	0.573995
C50	C	0.336416	-0.841734	1.073995
C51	C	-0.163580	-1.341721	0.426157
C52	C	0.336420	-0.841721	0.926157
