data_functionalizedCrystal
_audit_creation_method	'MofGen! by Chris Wilmer'
_symmetry_space_group_name_H-M	'P1'
_symmetry_Int_Tables_number	1
_symmetry_cell_setting	triclinic
loop_
_symmetry_equiv_pos_as_xyz
  x,y,z
_cell_length_a	19.077105
_cell_length_b	19.077068
_cell_length_c	19.077569
_cell_angle_alpha	89.935763
_cell_angle_beta	94.700723
_cell_angle_gamma	90.115316
loop_
_atom_site_label
_atom_site_type_symbol
_atom_site_fract_x
_atom_site_fract_y
_atom_site_fract_z
Zn1	Zn	1.081898	-0.305533	0.453630
Zn2	Zn	1.581898	0.194467	0.953630
Zn3	Zn	1.072367	-0.427395	0.340438
Zn4	Zn	1.572367	0.072605	0.840438
Zn5	Zn	0.959280	-0.305543	0.331026
Zn6	Zn	1.459280	0.194457	0.831026
Zn7	Zn	0.959616	-0.418291	0.453207
Zn8	Zn	1.459616	0.081709	0.953207
O9	O	1.018290	-0.364190	0.394575
O10	O	1.518290	0.135810	0.894575
O11	O	1.179137	-0.325504	0.442731
O12	O	1.679137	0.174496	0.942731
O13	O	1.053237	-0.415046	0.240685
O14	O	1.553237	0.084954	0.740685
O15	O	0.979394	-0.207356	0.343527
O16	O	1.479394	0.292644	0.843527
O17	O	1.172134	-0.415036	0.359569
O18	O	1.672134	0.084964	0.859569
O19	O	1.069481	-0.207349	0.433604
O20	O	1.569481	0.292651	0.933604
O21	O	0.970152	-0.325521	0.233770
O22	O	1.470152	0.174479	0.733770
O23	O	0.860822	-0.316693	0.343117
O24	O	1.360822	0.183307	0.843117
O25	O	0.979966	-0.399519	0.551767
O26	O	1.479966	0.100481	1.051767
O27	O	0.861068	-0.399528	0.432883
O28	O	1.361068	0.100472	0.932883
O29	O	1.069807	-0.316676	0.552078
O30	O	1.569807	0.183324	1.052078
O31	O	1.053562	-0.524373	0.359159
O32	O	1.553562	-0.024373	0.859159
O33	O	0.970724	-0.517684	0.442010
O34	O	1.470724	-0.017684	0.942010
C35	C	0.835404	-0.357124	0.386933
C36	C	1.335404	0.142876	0.886933
C37	C	0.757165	-0.354118	0.383681
C38	C	1.257165	0.145882	0.883681
C39	C	0.720549	-0.395903	0.428822
C40	C	1.220549	0.104097	0.928822
C41	C	0.647035	-0.393069	0.425769
C42	C	1.147035	0.106931	0.925769
C43	C	0.610138	-0.348452	0.377573
C44	C	1.110138	0.151548	0.877573
C45	C	0.646759	-0.306662	0.332430
C46	C	1.146759	0.193338	0.832430
C47	C	0.720272	-0.309493	0.335487
C48	C	1.220272	0.190507	0.835487
C49	C	0.390264	-0.335349	0.363431
C50	C	0.890264	0.164651	0.863431
C51	C	0.316746	-0.332522	0.360376
C52	C	0.816746	0.167478	0.860376
C53	C	0.317027	-0.418929	0.453717
C54	C	0.817027	0.081071	0.953717
C55	C	0.390541	-0.421759	0.456766
C56	C	0.890541	0.078241	0.956766
C57	C	0.427156	-0.379966	0.411626
C58	C	0.927156	0.120034	0.911626
N59	N	0.534995	-0.345555	0.374450
N60	N	1.034995	0.154445	0.874450
N61	N	0.502298	-0.382860	0.414753
N62	N	1.002298	0.117140	0.914753
C63	C	1.011165	-0.546487	0.401576
C64	C	1.511165	-0.046487	0.901576
C65	C	1.008182	-0.624475	0.404598
C66	C	1.508182	-0.124475	0.904598
C67	C	1.049946	-0.664574	0.362920
C68	C	1.549946	-0.164574	0.862920
C69	C	1.047145	-0.737852	0.365766
C70	C	1.547145	-0.237852	0.865766
C71	C	1.002575	-0.771031	0.410287
C72	C	1.502575	-0.271031	0.910287
C73	C	0.960809	-0.730927	0.451969
C74	C	1.460809	-0.230927	0.951969
C75	C	0.963615	-0.657650	0.449126
C76	C	1.463615	-0.157650	0.949126
C77	C	0.989560	-0.989815	0.423414
C78	C	1.489560	-0.489815	0.923414
C79	C	0.986756	-1.063097	0.426252
C80	C	1.486756	-0.563097	0.926252
C81	C	1.073093	-1.070017	0.340050
C82	C	1.573093	-0.570017	0.840050
C83	C	1.075891	-0.996738	0.337208
C84	C	1.575891	-0.496738	0.837208
C85	C	1.034128	-0.956641	0.378893
C86	C	1.534128	-0.456641	0.878893
N87	N	0.999709	-0.845933	0.413195
N88	N	1.499709	-0.345933	0.913195
N89	N	1.036998	-0.881740	0.375988
N90	N	1.536998	-0.381740	0.875988
C91	C	1.201891	-0.371285	0.402247
C92	C	1.701891	0.128715	0.902247
C93	C	1.280130	-0.374308	0.405517
C94	C	1.780130	0.125692	0.905517
C95	C	1.025987	-0.357080	0.578178
C96	C	1.525987	0.142920	1.078178
C97	C	1.029267	-0.354051	0.656418
C98	C	1.529267	0.145949	1.156418
C99	C	1.025463	-0.181182	0.387563
C100	C	1.525463	0.318818	0.887563
C101	C	1.028520	-0.103195	0.384575
C102	C	1.528520	0.396805	0.884575
C103	C	1.010666	-0.371224	0.211686
C104	C	1.510666	0.128776	0.711686
C105	C	1.007530	-0.374061	0.133444
C106	C	1.507530	0.125939	0.633444
C107	C	0.984034	-0.395756	0.693015
C108	C	1.484034	0.104244	1.193015
C109	C	0.987121	-0.392909	0.766531
C110	C	1.487121	0.107091	1.266531
C111	C	1.035439	-0.348353	0.803448
C112	C	1.535439	0.151647	1.303448
C113	C	1.080677	-0.306647	0.766846
C114	C	1.580677	0.193353	1.266846
C115	C	1.077592	-0.309497	0.693332
C116	C	1.577592	0.190503	1.193332
C117	C	1.049684	-0.335205	1.023329
C118	C	1.549684	0.164795	1.523329
C119	C	1.052764	-0.332356	1.096848
C120	C	1.552764	0.167644	1.596848
C121	C	0.959208	-0.418620	1.096527
C122	C	1.459208	0.081380	1.596527
C123	C	0.956125	-0.421464	1.023012
C124	C	1.456125	0.078536	1.523012
C125	C	1.001365	-0.379760	0.986417
C126	C	1.501365	0.120240	1.486417
N127	N	1.038595	-0.345441	0.878593
N128	N	1.538595	0.154559	1.378593
N129	N	0.998213	-0.382676	0.911274
N130	N	1.498213	0.117324	1.411274
H131	H	0.287207	-0.452953	0.490468
H132	H	0.787207	0.047047	0.990468
Br133	Br	0.597345	-0.449779	0.487036
Br134	Br	1.097345	0.050221	0.987036
Br135	Br	1.103833	-0.792269	0.309205
Br136	Br	1.603833	-0.292269	0.809205
H137	H	0.944680	-0.432029	0.662962
H138	H	1.444680	0.067971	1.162962
H139	H	0.950288	-0.426870	0.796325
H140	H	1.450288	0.073130	1.296325
H141	H	1.086237	-0.637565	0.326664
H142	H	1.586237	-0.137565	0.826664
H143	H	0.924523	-0.757947	0.488222
H144	H	1.424523	-0.257947	0.988222
H145	H	0.950471	-1.090108	0.462519
H146	H	1.450471	-0.590108	0.962519
Br147	Br	1.146258	-0.246183	0.816947
Br148	Br	1.646258	0.253817	1.316947
H149	H	1.086522	-0.301247	0.993542
H150	H	1.586522	0.198753	1.493542
H151	H	0.420577	-0.458093	0.496011
H152	H	0.920577	0.041907	0.996011
Br153	Br	1.136391	-0.951715	0.276794
Br154	Br	1.636391	-0.451715	0.776794
Br155	Br	1.129772	-1.124438	0.283484
Br156	Br	1.629772	-0.624438	0.783484
Br157	Br	0.890542	-0.481928	0.972914
Br158	Br	1.390542	0.018072	1.472914
H159	H	0.955553	-0.957173	0.457354
H160	H	1.455553	-0.457173	0.957354
Br161	Br	0.906937	-0.603229	0.505696
Br162	Br	1.406937	-0.103229	1.005696
H163	H	0.922376	-0.452573	1.126331
H164	H	1.422376	0.047427	1.626331
H165	H	0.286707	-0.296181	0.321132
H166	H	0.786707	0.203819	0.821132
Br167	Br	1.118308	-0.271847	1.146946
Br168	Br	1.618308	0.228153	1.646946
H169	H	1.114426	-0.275537	0.663536
H170	H	1.614426	0.224463	1.163536
H171	H	0.420066	-0.301323	0.326669
H172	H	0.920066	0.198677	0.826669
Br173	Br	0.596687	-0.246102	0.267026
Br174	Br	1.096687	0.253898	0.767026
Br175	Br	0.769966	-0.252777	0.274226
Br176	Br	1.269966	0.247223	0.774226
Br177	Br	0.770616	-0.456464	0.494230
Br178	Br	1.270616	0.043536	0.994230
