data_functionalizedCrystal
_audit_creation_method	'MofGen! by Chris Wilmer'
_symmetry_space_group_name_H-M	'P1'
_symmetry_Int_Tables_number	1
_symmetry_cell_setting	triclinic
loop_
_symmetry_equiv_pos_as_xyz
  x,y,z
_cell_length_a	14.519731
_cell_length_b	15.624803
_cell_length_c	14.750779
_cell_angle_alpha	85.131014
_cell_angle_beta	102.662022
_cell_angle_gamma	96.026978
loop_
_atom_site_label
_atom_site_type_symbol
_atom_site_fract_x
_atom_site_fract_y
_atom_site_fract_z
O1	O	-0.234843	1.084561	-0.457432
O2	O	-0.228122	0.842697	-0.373221
O3	O	-0.097802	0.970031	-0.417563
O4	O	-0.365163	0.957227	-0.413091
O5	O	-0.060966	1.006027	-0.270447
O6	O	-0.191286	0.878693	-0.226106
O7	O	-0.198008	1.120557	-0.310317
Zn8	Zn	-0.188799	1.005340	-0.244854
Zn9	Zn	-0.237331	0.957914	-0.438685
O10	O	-0.328328	0.993223	-0.265975
C11	C	-0.206358	0.829741	-0.288886
C12	C	-0.196378	0.737508	-0.256774
C13	C	-0.263921	0.336130	-0.552211
C14	C	-0.254524	0.249466	-0.522035
C15	C	-0.214365	0.288686	-0.361648
C16	C	-0.223754	0.375356	-0.391811
C17	C	-0.248533	0.399071	-0.487093
C18	C	-0.208366	0.438296	-0.326693
C19	C	-0.217759	0.524958	-0.356853
C20	C	-0.242539	0.548680	-0.452131
C21	C	-0.257925	0.485733	-0.517253
C22	C	-0.183594	0.414579	-0.231411
C23	C	-0.168206	0.477519	-0.166293
C24	C	-0.177592	0.564184	-0.196453
C25	C	-0.202373	0.587906	-0.291731
C26	C	-0.162206	0.627131	-0.131331
C27	C	-0.171599	0.713793	-0.161491
C28	C	-0.211766	0.674568	-0.321891
C29	C	-0.381156	0.975826	-0.339741
C30	C	-0.483691	0.977625	-0.340362
C31	C	-0.566963	0.979085	-0.340874
C32	C	-0.671432	0.980909	-0.341518
C33	C	-0.754698	0.982356	-0.342030
C34	C	-0.859174	0.984180	-0.342672
C35	C	-0.044974	0.987428	-0.343800
C36	C	0.057560	0.985627	-0.343184
C37	C	-0.219772	1.133512	-0.394654
C38	C	-0.229754	1.225744	-0.426772
N39	N	-0.155677	1.037713	-0.112571
N40	N	-0.270446	0.925548	-0.570969
C41	C	-0.362910	0.835134	0.309791
C42	C	-0.339707	0.857825	0.402388
C43	C	-0.224357	0.970603	0.363079
C44	C	-0.247548	0.947918	0.270477
C45	C	-0.316826	0.880184	0.243841
C46	C	-0.201463	0.992968	0.204527
C47	C	-0.224655	0.970289	0.111932
C48	C	-0.293932	0.902559	0.085288
C49	C	-0.340018	0.857504	0.151246
C50	C	-0.132190	1.060706	0.231163
C51	C	-0.086105	1.105756	0.165213
C52	C	-0.109292	1.083073	0.072618
C53	C	-0.178569	1.015343	0.045973
C54	C	-0.063207	1.128127	0.006659
C55	C	-0.086399	1.105447	-0.085935
C56	C	-0.201761	0.992663	-0.046621
H57	H	-0.175952	0.344012	-0.206857
C58	C	-0.319443	0.877610	-0.016570
N59	N	-0.338656	0.858817	-0.093289
C60	C	0.012994	1.202636	0.035972
N61	N	0.070390	1.258756	0.058050
H62	H	-0.029701	1.160908	0.186911
H63	H	-0.377242	0.821135	0.456084
C64	C	-0.140948	0.451422	-0.061485
N65	N	-0.120413	0.431768	0.017458
C66	C	-0.035700	1.155002	-0.158484
N67	N	0.002486	1.192330	-0.213128
C68	C	-0.291178	0.362221	-0.657027
N69	N	-0.311712	0.381872	-0.735970
C70	C	-0.106679	1.085652	0.333022
N71	N	-0.087464	1.104440	0.409742
H72	H	-0.231940	0.693877	-0.399480
H73	H	-0.267060	0.198219	-0.575069
H74	H	-0.194193	0.269364	-0.284069
C75	C	-0.134957	0.601031	-0.026523
N76	N	-0.114432	0.581373	0.052419
C77	C	-0.154668	0.783032	-0.089859
N78	N	-0.141916	0.835183	-0.035903
H79	H	-0.250192	0.619246	-0.476686
C80	C	-0.439080	0.760589	0.280499
N81	N	-0.496437	0.704435	0.258438
C82	C	-0.285183	0.511823	-0.622069
N83	N	-0.305717	0.531474	-0.701013
H84	H	-0.258167	0.937501	-0.068306
C85	C	-0.416187	0.782959	0.121954
N86	N	-0.473544	0.726805	0.099894
H87	H	-0.167953	1.025755	0.384776
