data_functionalizedCrystal
_audit_creation_method	'MofGen! by Chris Wilmer'
_symmetry_space_group_name_H-M	'P1'
_symmetry_Int_Tables_number	1
_symmetry_cell_setting	triclinic
loop_
_symmetry_equiv_pos_as_xyz
  x,y,z
_cell_length_a	14.853569
_cell_length_b	14.586319
_cell_length_c	16.109301
_cell_angle_alpha	90.000846
_cell_angle_beta	96.451349
_cell_angle_gamma	90.001147
loop_
_atom_site_label
_atom_site_type_symbol
_atom_site_fract_x
_atom_site_fract_y
_atom_site_fract_z
O1	O	-1.196183	-0.076180	0.108555
O2	O	-0.933702	-0.076192	0.121484
O3	O	-1.072153	-0.076191	-0.006001
O4	O	-1.057732	-0.076182	0.236040
O5	O	-1.072144	0.076290	-0.006003
O6	O	-0.933693	0.076289	0.121482
O7	O	-1.196173	0.076300	0.108553
Cu8	Cu	-1.064932	0.090217	0.115017
Cu9	Cu	-1.064944	-0.090109	0.115020
O10	O	-1.057723	0.076299	0.236038
C11	C	-0.900110	0.000047	0.120897
C12	C	-0.800029	0.000042	0.119140
N13	N	-1.064931	0.217049	0.115015
C14	C	-0.763779	0.000035	0.042587
C15	C	-0.742240	0.000051	0.194043
C16	C	-0.648208	0.000051	0.192396
C17	C	-0.611958	0.000045	0.115843
C18	C	-0.669739	0.000038	0.040937
C19	C	-0.590420	0.000067	0.267300
C20	C	-0.496382	0.000069	0.265655
C21	C	-0.460131	0.000056	0.189101
C22	C	-0.517918	0.000048	0.114192
C23	C	-0.481668	0.000042	0.037639
C24	C	-0.539454	0.000028	-0.037270
C25	C	-0.633488	0.000026	-0.035617
C26	C	-0.366097	0.000058	0.187448
C27	C	-0.387628	0.000045	0.035989
C28	C	-0.229766	0.000058	0.109140
C29	C	-0.329847	0.000052	0.110895
N30	N	-1.064952	-0.216941	0.115015
C31	C	-1.126257	0.452056	0.058584
C32	C	-1.126260	0.548037	0.058582
C33	C	-1.003619	0.548045	0.171449
C34	C	-1.003613	0.452066	0.171447
C35	C	-1.064937	0.404074	0.115015
C36	C	-1.064946	0.596034	0.115016
C37	C	-1.064948	0.700102	0.115014
C38	C	-1.064934	0.300000	0.115015
C39	C	-1.058312	0.000060	0.267015
C40	C	-1.060063	0.000063	0.359313
C41	C	-1.071564	0.000046	-0.036978
C42	C	-1.069813	0.000037	-0.129276
C43	C	-0.981981	0.000046	0.581475
C44	C	-0.983634	0.000040	0.668198
C45	C	-1.147901	0.000051	0.648555
C46	C	-1.146247	0.000051	0.561834
C47	C	-1.063285	0.000054	0.528297
C48	C	-1.066591	0.000046	0.701740
C49	C	-1.068384	0.000039	0.795769
C50	C	-1.061492	0.000059	0.434262
H51	H	-0.358121	0.000035	-0.026350
H52	H	-0.771760	0.000063	0.256370
F53	F	-1.232787	0.000054	0.505234
H54	H	-0.953675	0.412996	0.217400
H55	H	-0.914428	0.000052	0.554172
H56	H	-0.953692	0.587130	0.217396
H57	H	-1.215446	0.000058	0.675872
F58	F	-0.500863	0.000029	-0.118741
H59	H	-0.319052	0.000078	0.248438
H60	H	-0.449340	0.000079	0.326651
F61	F	-0.825278	0.000018	-0.037133
F62	F	-0.629005	0.000072	0.348767
F63	F	-0.694992	0.000018	-0.115334
F64	F	-1.191521	0.400983	-0.001478
H65	H	-1.176191	0.587102	0.012630
H66	H	-0.917428	0.000032	0.711493
