data_functionalizedCrystal
_audit_creation_method	'MofGen! by Chris Wilmer'
_symmetry_space_group_name_H-M	'P1'
_symmetry_Int_Tables_number	1
_symmetry_cell_setting	triclinic
loop_
_symmetry_equiv_pos_as_xyz
  x,y,z
_cell_length_a	19.288864
_cell_length_b	19.288865
_cell_length_c	14.048226
_cell_angle_alpha	89.988335
_cell_angle_beta	89.979690
_cell_angle_gamma	83.136245
loop_
_atom_site_label
_atom_site_type_symbol
_atom_site_fract_x
_atom_site_fract_y
_atom_site_fract_z
O1	O	0.921350	0.086649	-0.079477
O2	O	1.254683	0.419982	0.253857
O3	O	1.588017	0.753316	0.587190
O4	O	0.719089	0.098338	-0.079413
O5	O	1.052423	0.431671	0.253920
O6	O	1.385756	0.765005	0.587254
O7	O	0.826064	-0.008637	-0.079428
O8	O	1.159397	0.324697	0.253905
O9	O	1.492731	0.658030	0.587239
O10	O	0.814375	0.193624	-0.079462
O11	O	1.147709	0.526957	0.253871
O12	O	1.481042	0.860291	0.587205
O13	O	0.826051	-0.008643	0.078893
O14	O	1.159385	0.324690	0.412227
O15	O	1.492718	0.658024	0.745560
O16	O	0.719077	0.098332	0.078908
O17	O	1.052410	0.431665	0.412242
O18	O	1.385743	0.764998	0.745575
O19	O	0.921337	0.086643	0.078845
O20	O	1.254671	0.419976	0.412178
O21	O	1.588004	0.753310	0.745511
Zn22	Zn	0.820205	0.092486	0.104013
Zn23	Zn	1.153538	0.425820	0.437347
Zn24	Zn	1.486872	0.759153	0.770680
Zn25	Zn	0.820222	0.092495	-0.104582
Zn26	Zn	1.153555	0.425828	0.228752
Zn27	Zn	1.486888	0.759161	0.562085
O28	O	0.814363	0.193618	0.078859
O29	O	1.147696	0.526951	0.412193
O30	O	1.481029	0.860284	0.745526
C31	C	0.693207	0.097959	-0.000244
C32	C	1.026540	0.431292	0.333089
C33	C	1.359873	0.764625	0.666423
C34	C	0.616103	0.096830	-0.000219
C35	C	0.949436	0.430163	0.333114
C36	C	1.282770	0.763496	0.666448
C37	C	0.825682	-0.034516	-0.000264
C38	C	1.159015	0.298817	0.333069
C39	C	1.492348	0.632150	0.666402
C40	C	0.824553	-0.111620	-0.000256
C41	C	1.157886	0.221713	0.333078
C42	C	1.491219	0.555047	0.666411
C43	C	0.571407	0.159598	-0.000244
C44	C	0.904740	0.492931	0.333089
C45	C	1.238073	0.826264	0.666422
C46	C	0.498960	0.158537	-0.000255
C47	C	0.832293	0.491870	0.333079
C48	C	1.165626	0.825204	0.666412
C49	C	0.471212	0.094705	-0.000259
C50	C	0.804545	0.428038	0.333075
C51	C	1.137879	0.761371	0.666408
C52	C	0.515918	0.031929	-0.000228
C53	C	0.849252	0.365262	0.333106
C54	C	1.182585	0.698595	0.666439
C55	C	0.588364	0.032991	-0.000208
C56	C	0.921697	0.366324	0.333125
C57	C	1.255030	0.699658	0.666459
C58	C	0.362955	0.044528	-0.055749
C59	C	0.696288	0.377861	0.277584
C60	C	1.029621	0.711194	0.610917
C61	C	0.290510	0.043468	-0.055775
C62	C	0.623843	0.376801	0.277558
C63	C	0.957177	0.710135	0.610892
C64	C	0.247767	0.091425	-0.000316
C65	C	0.581100	0.424758	0.333018
C66	C	0.914433	0.758092	0.666351
C67	C	0.277475	0.140454	0.055157
C68	C	0.610808	0.473787	0.388490
C69	C	0.944141	0.807121	0.721824
C70	C	0.349920	0.141516	0.055177
C71	C	0.683254	0.474850	0.388510
C72	C	1.016587	0.808183	0.721844
C73	C	0.392658	0.093546	-0.000280
C74	C	0.725991	0.426879	0.333054
C75	C	1.059325	0.760212	0.666387
C76	C	0.124514	0.153047	-0.000351
C77	C	0.457848	0.486381	0.332982
C78	C	0.791181	0.819714	0.666316
C79	C	0.052066	0.151984	-0.000356
C80	C	0.385400	0.485317	0.332978
C81	C	0.718733	0.818651	0.666311
C82	C	0.069026	0.025374	-0.000338
C83	C	0.402360	0.358707	0.332995
C84	C	0.735693	0.692040	0.666329
C85	C	0.141473	0.026439	-0.000324
C86	C	0.474806	0.359772	0.333009
C87	C	0.808140	0.693106	0.666343
C88	C	0.169212	0.090278	-0.000335
C89	C	0.502546	0.423611	0.332998
C90	C	0.835879	0.756944	0.666332
C91	C	0.887321	-0.156316	-0.000271
C92	C	1.220654	0.177017	0.333063
C93	C	1.553987	0.510350	0.666396
C94	C	0.886260	-0.228763	-0.000285
C95	C	1.219593	0.104570	0.333048
C96	C	1.552927	0.437903	0.666381
C97	C	0.822428	-0.256511	-0.000266
C98	C	1.155761	0.076822	0.333067
C99	C	1.489094	0.410156	0.666401
C100	C	0.759652	-0.211805	-0.000256
C101	C	1.092985	0.121529	0.333077
C102	C	1.426318	0.454862	0.666411
C103	C	0.760714	-0.139359	-0.000251
C104	C	1.094047	0.193974	0.333082
C105	C	1.427381	0.527307	0.666416
C106	C	0.772244	-0.364800	0.055206
C107	C	1.105577	-0.031467	0.388540
C108	C	1.438910	0.301866	0.721873
C109	C	0.771184	-0.437245	0.055207
C110	C	1.104517	-0.103912	0.388540
C111	C	1.437851	0.229422	0.721874
C112	C	0.819148	-0.479956	-0.000286
C113	C	1.152481	-0.146623	0.333047
C114	C	1.485815	0.186710	0.666381
C115	C	0.868184	-0.450216	-0.055768
C116	C	1.201517	-0.116883	0.277566
C117	C	1.534851	0.216451	0.610899
C118	C	0.869246	-0.377771	-0.055763
C119	C	1.202580	-0.044437	0.277571
C120	C	1.535913	0.288896	0.610904
C121	C	0.821269	-0.335065	-0.000272
C122	C	1.154602	-0.001732	0.333061
C123	C	1.487935	0.331602	0.666395
C124	C	0.880770	-0.603209	-0.000319
C125	C	1.214104	-0.269875	0.333015
C126	C	1.547437	0.063458	0.666348
C127	C	0.879707	-0.675657	-0.000339
C128	C	1.213040	-0.342323	0.332994
C129	C	1.546374	-0.008990	0.666328
C130	C	0.753097	-0.658697	-0.000300
C131	C	1.086430	-0.325363	0.333033
C132	C	1.419763	0.007970	0.666366
C133	C	0.754162	-0.586250	-0.000289
C134	C	1.087495	-0.252917	0.333044
C135	C	1.420829	0.080417	0.666377
C136	C	0.818001	-0.558511	-0.000294
C137	C	1.151334	-0.225177	0.333039
C138	C	1.484667	0.108156	0.666373
C139	C	0.947220	0.087022	-0.000327
C140	C	1.280553	0.420355	0.333007
C141	C	1.613887	0.753689	0.666340
C142	C	1.024324	0.088151	-0.000358
C143	C	1.357657	0.421484	0.332975
C144	C	1.690990	0.754818	0.666309
C145	C	0.814745	0.219497	-0.000306
C146	C	1.148078	0.552831	0.333027
C147	C	1.481412	0.886164	0.666360
C148	C	0.815874	0.296601	-0.000321
C149	C	1.149207	0.629934	0.333012
C150	C	1.482541	0.963267	0.666345
N151	N	0.820199	0.092480	0.246374
N152	N	1.153532	0.425814	0.579707
N153	N	1.486865	0.759147	0.913041
N154	N	0.820234	0.092495	-0.246942
N155	N	1.153567	0.425828	0.086391
N156	N	1.486900	0.759162	0.419724
C157	C	0.867582	0.045131	0.296186
C158	C	1.200915	0.378465	0.629519
C159	C	1.534248	0.711798	0.962852
C160	C	0.867586	0.045131	0.395843
C161	C	1.200920	0.378464	0.729177
C162	C	1.534253	0.711798	1.062510
C163	C	0.820211	0.092483	0.445688
C164	C	1.153544	0.425817	0.779021
C165	C	1.486877	0.759150	1.112354
C166	C	0.772822	0.139835	0.395869
C167	C	1.106156	0.473168	0.729202
C168	C	1.439489	0.806501	1.062536
C169	C	0.772815	0.139831	0.296213
C170	C	1.106148	0.473164	0.629547
C171	C	1.439482	0.806498	0.962880
C172	C	0.772842	0.139839	0.603583
C173	C	1.106176	0.473173	0.936917
C174	C	1.439509	0.806506	1.270250
C175	C	0.772851	0.139844	0.703246
C176	C	1.106184	0.473177	1.036579
C177	C	1.439517	0.806511	1.369913
C178	C	0.867614	0.045139	0.703213
C179	C	1.200947	0.378473	1.036547
C180	C	1.534281	0.711806	1.369880
C181	C	0.867606	0.045136	0.603557
C182	C	1.200940	0.378469	0.936891
C183	C	1.534273	0.711803	1.270224
C184	C	0.820219	0.092488	0.553746
C185	C	1.153552	0.425821	0.887079
C186	C	1.486886	0.759155	1.220413
H187	H	0.593987	0.211580	-0.000255
H188	H	0.927320	0.544913	0.333078
H189	H	1.260654	0.878247	0.666411
O190	O	0.949621	-0.573284	-0.000335
O191	O	1.282955	-0.239950	0.332999
O192	O	1.616288	0.093383	0.666332
H193	H	0.953133	-0.540665	-0.064857
H194	H	1.286467	-0.207331	0.268476
H195	H	1.619800	0.126002	0.601810
O196	O	0.690801	-0.241726	-0.000224
O197	O	1.024135	0.091608	0.333109
O198	O	1.357468	0.424941	0.666442
H199	H	0.700607	-0.299611	-0.000217
H200	H	1.033940	0.033722	0.333116
H201	H	1.367274	0.367055	0.666449
H202	H	0.906186	0.006581	0.562974
H203	H	1.239520	0.339915	0.896308
H204	H	1.572853	0.673248	1.229641
O205	O	0.918704	-0.005925	0.449572
O206	O	1.252038	0.327408	0.782906
O207	O	1.585371	0.660741	1.116239
H208	H	0.951656	-0.038842	0.398170
H209	H	1.284990	0.294491	0.731503
H210	H	1.618323	0.627824	1.064837
H211	H	0.906163	0.006574	0.255609
H212	H	1.239497	0.339908	0.588942
H213	H	1.572830	0.673241	0.922275
O214	O	0.918724	-0.005930	0.756944
O215	O	1.252057	0.327403	1.090277
O216	O	1.585391	0.660736	1.423610
H217	H	0.972836	0.002796	0.737787
H218	H	1.306170	0.336129	1.071121
H219	H	1.639503	0.669462	1.404454
O220	O	0.684248	-0.688615	-0.000281
O221	O	1.017581	-0.355282	0.333052
O222	O	1.350914	-0.021949	0.666385
H223	H	0.654091	-0.670652	0.064255
H224	H	0.987424	-0.337319	0.397589
H225	H	1.320757	-0.003986	0.730922
O226	O	0.450737	0.226238	-0.000292
O227	O	0.784071	0.559572	0.333041
O228	O	1.117404	0.892905	0.666374
H229	H	0.482198	0.270807	-0.000304
H230	H	0.815531	0.604140	0.333030
H231	H	1.148864	0.937473	0.666363
H232	H	0.493322	-0.020044	-0.000244
H233	H	0.826655	0.313289	0.333089
H234	H	1.159988	0.646623	0.666423
H235	H	0.709599	-0.102967	-0.000238
H236	H	1.042932	0.230367	0.333095
H237	H	1.376266	0.563700	0.666428
H238	H	0.937375	-0.265162	-0.000301
H239	H	1.270708	0.068171	0.333032
H240	H	1.604041	0.401505	0.666365
O241	O	0.721740	0.190901	0.757013
O242	O	1.055074	0.524234	1.090347
O243	O	1.388407	0.857568	1.423680
H244	H	0.688776	0.223816	0.705636
H245	H	1.022110	0.557150	1.038969
H246	H	1.355443	0.890483	1.372303
H247	H	0.907241	-0.484991	-0.100956
H248	H	1.240574	-0.151657	0.232377
H249	H	1.573908	0.181676	0.565710
O250	O	0.922120	-0.345688	-0.115613
O251	O	1.255453	-0.012355	0.217720
O252	O	1.588786	0.320978	0.551053
H253	H	0.955292	-0.387553	-0.154213
H254	H	1.288625	-0.054220	0.179121
H255	H	1.621959	0.279114	0.512454
O256	O	0.956171	-0.126394	-0.000284
O257	O	1.289504	0.206939	0.333050
O258	O	1.622838	0.540273	0.666383
H259	H	0.959685	-0.093779	-0.064809
H260	H	1.293018	0.239554	0.268524
H261	H	1.626351	0.572888	0.601857
O262	O	0.721736	0.190914	0.549852
O263	O	1.055070	0.524248	0.883185
O264	O	1.388403	0.857581	1.216519
H265	H	0.688800	0.223848	0.601252
H266	H	1.022133	0.557182	0.934585
H267	H	1.355467	0.890515	1.267919
H268	H	0.930822	-0.712049	-0.000357
H269	H	1.264156	-0.378715	0.332977
H270	H	1.597489	-0.045382	0.666310
O271	O	0.686462	-0.538034	-0.000249
O272	O	1.019796	-0.204701	0.333084
O273	O	1.353129	0.128632	0.666417
H274	H	0.641896	-0.569498	-0.000227
H275	H	0.975229	-0.236164	0.333106
H276	H	1.308563	0.097169	0.666440
O277	O	0.721727	0.190915	0.449623
O278	O	1.055061	0.524248	0.782956
O279	O	1.388394	0.857582	1.116290
H280	H	0.688069	0.161769	0.495069
H281	H	1.021402	0.495102	0.828402
H282	H	1.354736	0.828436	1.161736
H283	H	0.624756	-0.018124	-0.000188
H284	H	0.958090	0.315210	0.333146
H285	H	1.291423	0.648543	0.666479
O286	O	0.721713	0.190903	0.242480
O287	O	1.055046	0.524236	0.575814
O288	O	1.388380	0.857570	0.909147
H289	H	0.688775	0.223836	0.293880
H290	H	1.022108	0.557169	0.627214
H291	H	1.355442	0.890503	0.960547
O292	O	0.718302	-0.469321	0.115050
O293	O	1.051636	-0.135988	0.448384
O294	O	1.384969	0.197346	0.781717
H295	H	0.664832	-0.448231	0.092224
H296	H	0.998165	-0.114897	0.425557
H297	H	1.331498	0.218436	0.758890
O298	O	0.381955	0.194376	0.115044
O299	O	0.715288	0.527710	0.448377
O300	O	1.048621	0.861043	0.781711
H301	H	0.360871	0.247858	0.092231
H302	H	0.694204	0.581191	0.425564
H303	H	1.027537	0.914524	0.758897
O304	O	0.231386	0.192182	0.114987
O305	O	0.564719	0.525515	0.448320
O306	O	0.898052	0.858849	0.781654
H307	H	0.176020	0.183203	0.105667
H308	H	0.509353	0.516536	0.439001
H309	H	0.842686	0.849869	0.772334
O310	O	0.720512	-0.318736	0.115072
O311	O	1.053846	0.014598	0.448405
O312	O	1.387179	0.347931	0.781739
H313	H	0.666631	-0.325448	0.092267
H314	H	0.999964	0.007886	0.425601
H315	H	1.333298	0.341219	0.758934
O316	O	0.154439	0.221898	-0.000341
O317	O	0.487772	0.555232	0.332992
O318	O	0.821106	0.888565	0.666325
H319	H	0.136488	0.252059	-0.064870
H320	H	0.469821	0.585392	0.268463
H321	H	0.803154	0.918726	0.601797
O322	O	0.003852	0.219686	-0.000380
O323	O	0.337185	0.553020	0.332954
O324	O	0.670518	0.886353	0.666287
H325	H	0.035315	0.264252	-0.000392
H326	H	0.368649	0.597586	0.332942
H327	H	0.701982	0.930919	0.666275
H328	H	0.177866	-0.024674	-0.000309
H329	H	0.511199	0.308660	0.333025
H330	H	0.844533	0.641993	0.666358
O331	O	0.039113	-0.043478	-0.000336
O332	O	0.372446	0.289855	0.332998
O333	O	0.705780	0.623189	0.666331
H334	H	0.006542	-0.046995	-0.064875
H335	H	0.339875	0.286338	0.268458
H336	H	0.673208	0.619672	0.601791
O337	O	0.258469	-0.009417	-0.115590
O338	O	0.591802	0.323917	0.217743
O339	O	0.925136	0.657250	0.551077
H340	H	0.300362	-0.042598	-0.154131
H341	H	0.633695	0.290735	0.179202
H342	H	0.967028	0.624069	0.512535
H343	H	0.397751	0.005474	-0.100916
H344	H	0.731085	0.338807	0.232417
H345	H	1.064418	0.672140	0.565750
