data_functionalizedCrystal
_audit_creation_method	'MofGen! by Chris Wilmer'
_symmetry_space_group_name_H-M	'P1'
_symmetry_Int_Tables_number	1
_symmetry_cell_setting	triclinic
loop_
_symmetry_equiv_pos_as_xyz
  x,y,z
_cell_length_a	18.050589
_cell_length_b	21.395362
_cell_length_c	21.395355
_cell_angle_alpha	90.043940
_cell_angle_beta	90.012902
_cell_angle_gamma	90.044101
loop_
_atom_site_label
_atom_site_type_symbol
_atom_site_fract_x
_atom_site_fract_y
_atom_site_fract_z
Zn1	Zn	-0.295431	0.957870	0.354610
Zn2	Zn	-0.419603	0.957777	0.249843
Zn3	Zn	-0.295465	0.853085	0.249811
Zn4	Zn	-0.419618	0.853059	0.354548
O5	O	-0.357529	0.905448	0.302203
O6	O	-0.311882	1.045536	0.340752
O7	O	-0.403144	0.943862	0.162161
O8	O	-0.191536	0.867035	0.263726
O9	O	-0.403110	1.045468	0.263780
O10	O	-0.191511	0.944020	0.340721
O11	O	-0.311940	0.866945	0.162138
O12	O	-0.311955	0.765404	0.263665
O13	O	-0.403136	0.866990	0.442234
O14	O	-0.403170	0.765385	0.340615
O15	O	-0.311896	0.943995	0.442280
O16	O	-0.523529	0.943836	0.263719
O17	O	-0.523540	0.866900	0.340645
C18	C	-0.357568	0.742660	0.302130
C19	C	-0.357603	0.673019	0.302114
C20	C	-0.405161	0.640312	0.342121
C21	C	-0.405143	0.574877	0.342149
C22	C	-0.357574	0.542151	0.302159
C23	C	-0.310007	0.574865	0.262148
C24	C	-0.310021	0.640300	0.262126
C25	C	-0.351592	0.438426	0.245753
C26	C	-0.351583	0.372993	0.245774
C27	C	-0.357526	0.340330	0.302228
C28	C	-0.363494	0.373108	0.358662
C29	C	-0.363508	0.438542	0.358640
C30	C	-0.357553	0.471198	0.302179
C31	C	-0.405067	0.236671	0.342269
C32	C	-0.405044	0.171234	0.342298
C33	C	-0.309911	0.171224	0.262291
C34	C	-0.309931	0.236659	0.262268
C35	C	-0.357513	0.269379	0.302256
C36	C	-0.550481	0.905372	0.302192
C37	C	-0.633027	0.905397	0.302209
C38	C	-0.832511	0.863601	0.344027
C39	C	-0.881943	0.848322	0.286848
C40	C	-0.784157	0.905459	0.302217
C41	C	-0.881806	0.920768	0.359402
C42	C	-0.930142	0.905517	0.302230
C43	C	-0.832503	0.890151	0.245009
C44	C	-0.832361	0.962623	0.317601
C45	C	-0.881772	0.947366	0.260383
C46	C	-0.700059	0.905424	0.302211
C47	C	-1.014239	0.905552	0.302230
C48	C	-0.163823	0.905541	0.302227
C49	C	-0.081278	0.905581	0.302237
C50	C	-0.357514	0.905500	0.465626
C51	C	-0.357508	0.905522	0.535268
C52	C	-0.357490	1.068871	0.302276
C53	C	-0.357474	1.138513	0.302307
C54	C	-0.357490	0.905432	0.139415
C55	C	-0.357288	0.905531	0.069774
C56	C	-0.309997	0.945617	0.568006
C57	C	-0.309965	0.945616	0.633441
C58	C	-0.357457	0.905527	0.666136
C59	C	-0.404971	0.865425	0.633390
C60	C	-0.404996	0.865422	0.567956
C61	C	-0.424328	0.900554	0.769805
C62	C	-0.424304	0.900560	0.835238
C63	C	-0.357379	0.905531	0.867957
C64	C	-0.290475	0.910508	0.835234
C65	C	-0.290501	0.910505	0.769800
C66	C	-0.357435	0.905525	0.737088
C67	C	-0.309829	0.945627	0.971647
C68	C	-0.309796	0.945621	1.037084
C69	C	-0.404809	0.865434	1.037032
C70	C	-0.404835	0.865436	0.971596
C71	C	-0.357347	0.905535	0.938908
H72	H	-0.443870	0.548242	0.374731
Br73	Br	-0.469587	0.126845	0.396604
H74	H	-0.236026	0.914556	0.743160
Br75	Br	-0.917598	1.006411	0.201398
H76	H	-0.271291	0.666929	0.229547
Br77	Br	-0.796562	0.868518	0.164389
H78	H	-0.443637	0.832782	0.660014
H79	H	-0.271177	0.144579	0.229733
H80	H	-0.368366	0.465228	0.404590
Br81	Br	-0.796036	1.043133	0.339313
Br82	Br	-0.796455	0.804519	0.402876
H83	H	-0.903463	0.933693	0.407758
H84	H	-0.271327	0.978268	0.541395
H85	H	-0.478780	0.896512	0.861876
H86	H	-0.271272	0.978264	0.660102
Br87	Br	-0.199642	0.917259	0.879629
Br88	Br	-0.245380	1.000044	0.927281
Br89	Br	-0.371558	0.328789	0.435284
Br90	Br	-0.245323	1.000050	1.081516
H91	H	-0.443470	0.832786	1.063651
H92	H	-0.346749	0.465014	0.199778
H93	H	-0.443528	0.832790	0.944941
H94	H	-0.271208	0.263290	0.229686
Br95	Br	-0.515165	0.893826	0.725408
H96	H	-0.443684	0.832770	0.541301
H97	H	-0.443905	0.666948	0.374684
Br98	Br	-0.469637	0.281080	0.396539
H99	H	-0.346728	0.346310	0.199822
H100	H	-0.271275	0.548216	0.229589
H101	H	-0.903738	0.800008	0.273849
