data_functionalizedCrystal
_audit_creation_method	'MofGen! by Chris Wilmer'
_symmetry_space_group_name_H-M	'P1'
_symmetry_Int_Tables_number	1
_symmetry_cell_setting	triclinic
loop_
_symmetry_equiv_pos_as_xyz
  x,y,z
_cell_length_a	27.731993
_cell_length_b	27.732048
_cell_length_c	22.610064
_cell_angle_alpha	89.999096
_cell_angle_beta	90.003380
_cell_angle_gamma	82.631525
loop_
_atom_site_label
_atom_site_type_symbol
_atom_site_fract_x
_atom_site_fract_y
_atom_site_fract_z
O1	O	0.640948	0.057385	-0.049032
O2	O	0.974281	0.390718	0.284302
O3	O	1.307615	0.724052	0.617635
O4	O	0.500151	0.066158	-0.049069
O5	O	0.833484	0.399491	0.284265
O6	O	1.166817	0.732825	0.617598
O7	O	0.574922	-0.008626	-0.049038
O8	O	0.908255	0.324707	0.284296
O9	O	1.241589	0.658040	0.617629
O10	O	0.566176	0.132169	-0.049063
O11	O	0.899510	0.465502	0.284271
O12	O	1.232843	0.798836	0.617604
O13	O	0.574909	-0.008615	0.049331
O14	O	0.908242	0.324718	0.382665
O15	O	1.241576	0.658051	0.715998
O16	O	0.500137	0.066169	0.049300
O17	O	0.833471	0.399502	0.382634
O18	O	1.166804	0.732836	0.715967
O19	O	0.640935	0.057396	0.049337
O20	O	0.974268	0.390729	0.382671
O21	O	1.307601	0.724062	0.716004
Zn22	Zn	0.570534	0.061784	0.064937
Zn23	Zn	0.903867	0.395117	0.398271
Zn24	Zn	1.237201	0.728451	0.731604
Zn25	Zn	0.570551	0.061770	-0.064668
Zn26	Zn	0.903885	0.395103	0.268665
Zn27	Zn	1.237218	0.728436	0.601998
O28	O	0.566163	0.132180	0.049307
O29	O	0.899497	0.465513	0.382640
O30	O	1.232830	0.798847	0.715973
C31	C	0.482137	0.065983	0.000111
C32	C	0.815470	0.399317	0.333445
C33	C	1.148803	0.732650	0.666778
C34	C	0.428480	0.065441	0.000098
C35	C	0.761814	0.398774	0.333431
C36	C	1.095147	0.732108	0.666764
C37	C	0.045327	0.061504	-0.053494
C38	C	0.378661	0.394838	0.279839
C39	C	0.711994	0.728171	0.613173
C40	C	0.246985	0.063571	-0.053510
C41	C	0.580318	0.396905	0.279823
C42	C	0.913651	0.730238	0.613156
O43	O	0.273064	0.063814	-0.099114
O44	O	0.606397	0.397148	0.234219
O45	O	0.939731	0.730481	0.567553
N46	N	0.272198	0.063836	0.000109
N47	N	0.605531	0.397169	0.333443
N48	N	0.938864	0.730503	0.666776
C49	C	0.246994	0.063581	0.053737
C50	C	0.580327	0.396914	0.387070
C51	C	0.913661	0.730247	0.720404
O52	O	0.273067	0.063848	0.099344
O53	O	0.606400	0.397181	0.432677
O54	O	0.939734	0.730515	0.766010
C55	C	0.045338	0.061510	0.053753
C56	C	0.378671	0.394844	0.387086
C57	C	0.712005	0.728177	0.720420
C58	C	0.020127	0.061251	0.000130
C59	C	0.353460	0.394584	0.333463
C60	C	0.686793	0.727917	0.666796
C61	C	0.020116	0.061244	-0.107113
C62	C	0.353450	0.394578	0.226220
C63	C	0.686783	0.727911	0.559554
C64	C	-0.030295	0.060730	-0.107108
C65	C	0.303038	0.394064	0.226225
C66	C	0.636371	0.727397	0.559558
C67	C	-0.055496	0.060476	-0.053485
C68	C	0.277837	0.393810	0.279849
C69	C	0.611171	0.727143	0.613182
C70	C	-0.030285	0.060736	0.000134
C71	C	0.303048	0.394070	0.333468
C72	C	0.636382	0.727403	0.666801
C73	C	0.020135	0.061251	0.107380
C74	C	0.353469	0.394585	0.440713
C75	C	0.686802	0.727918	0.774047
C76	C	-0.030282	0.060732	0.107379
C77	C	0.303052	0.394066	0.440712
C78	C	0.636385	0.727399	0.774046
C79	C	-0.055493	0.060473	0.053756
C80	C	0.277841	0.393806	0.387089
C81	C	0.611174	0.727139	0.720423
C82	C	-0.105897	0.059968	0.053762
C83	C	0.227436	0.393302	0.387096
C84	C	0.560769	0.726635	0.720429
N85	N	-0.131110	0.059704	0.000143
N86	N	0.202223	0.393037	0.333476
N87	N	0.535556	0.726371	0.666809
C88	C	-0.105910	0.059958	-0.053481
C89	C	0.227424	0.393291	0.279852
C90	C	0.560757	0.726624	0.613186
C91	C	0.352866	0.064669	0.053725
C92	C	0.686199	0.398002	0.387058
C93	C	1.019533	0.731335	0.720392
C94	C	0.403280	0.065187	0.053721
C95	C	0.736613	0.398520	0.387055
C96	C	1.069946	0.731854	0.720388
C97	C	0.403267	0.065177	-0.053526
C98	C	0.736601	0.398510	0.279807
C99	C	1.069934	0.731844	0.613140
C100	C	0.352852	0.064662	-0.053522
C101	C	0.686185	0.397995	0.279811
C102	C	1.019519	0.731329	0.613145
C103	C	0.327653	0.064404	0.000105
C104	C	0.660986	0.397737	0.333439
C105	C	0.994320	0.731071	0.666772
C106	C	-0.211778	0.058879	-0.053467
C107	C	0.121555	0.392212	0.279866
C108	C	0.454889	0.725545	0.613200
C109	C	-0.262194	0.058367	-0.053458
C110	C	0.071139	0.391700	0.279876
C111	C	0.404472	0.725033	0.613209
C112	C	-0.262177	0.058374	0.053790
C113	C	0.071156	0.391707	0.387123
C114	C	0.404490	0.725041	0.720456
C115	C	-0.211765	0.058889	0.053781
C116	C	0.121568	0.392222	0.387114
C117	C	0.454901	0.725555	0.720447
C118	C	-0.186567	0.059139	0.000147
C119	C	0.146766	0.392473	0.333481
C120	C	0.480100	0.725806	0.666814
O121	O	-0.132007	0.059720	0.099342
O122	O	0.201327	0.393053	0.432676
O123	O	0.534660	0.726387	0.766009
O124	O	-0.131990	0.059679	-0.099081
O125	O	0.201343	0.393013	0.234253
O126	O	0.534677	0.726346	0.567586
C127	C	0.095739	0.062019	-0.053499
C128	C	0.429072	0.395352	0.279835
C129	C	0.762406	0.728685	0.613168
C130	C	0.120950	0.062279	0.000120
C131	C	0.454283	0.395612	0.333454
C132	C	0.787617	0.728945	0.666787
C133	C	0.095750	0.062025	0.053744
C134	C	0.429083	0.395358	0.387077
C135	C	0.762416	0.728691	0.720411
C136	C	0.171364	0.062797	0.000117
C137	C	0.504697	0.396131	0.333450
C138	C	0.838030	0.729464	0.666783
C139	C	0.196564	0.063051	-0.053507
C140	C	0.529898	0.396384	0.279826
C141	C	0.863231	0.729718	0.613160
C142	C	0.171351	0.062786	-0.107127
C143	C	0.504685	0.396120	0.226206
C144	C	0.838018	0.729453	0.559540
C145	C	0.120940	0.062272	-0.107122
C146	C	0.454273	0.395606	0.226211
C147	C	0.787606	0.728939	0.559544
C148	C	0.120963	0.062289	0.107364
C149	C	0.454296	0.395623	0.440697
C150	C	0.787629	0.728956	0.774030
C151	C	0.171374	0.062804	0.107355
C152	C	0.504708	0.396137	0.440688
C153	C	0.838041	0.729471	0.774021
C154	C	0.196575	0.063058	0.053731
C155	C	0.529908	0.396391	0.387064
C156	C	0.863242	0.729725	0.720398
C157	C	0.574732	-0.026628	0.000148
C158	C	0.908065	0.306706	0.333482
C159	C	1.241399	0.640039	0.666815
C160	C	0.574179	-0.080282	0.000153
C161	C	0.907512	0.253051	0.333486
C162	C	1.240846	0.586384	0.666820
C163	C	0.614884	-0.419105	0.000133
C164	C	0.948217	-0.085772	0.333467
C165	C	1.281551	0.247561	0.666800
C166	C	0.612833	-0.620765	0.000125
C167	C	0.946166	-0.287431	0.333458
C168	C	1.279500	0.045902	0.666791
O169	O	0.650055	-0.652028	0.000109
O170	O	0.983388	-0.318694	0.333442
O171	O	1.316721	0.014639	0.666775
N172	N	0.568497	-0.639880	0.000114
N173	N	0.901830	-0.306546	0.333447
N174	N	1.235163	0.026787	0.666780
C175	C	0.524670	-0.608576	0.000101
C176	C	0.858003	-0.275243	0.333434
C177	C	1.191336	0.058090	0.666767
O178	O	0.486912	-0.629462	0.000085
O179	O	0.820245	-0.296129	0.333418
O180	O	1.153579	0.037204	0.666752
C181	C	0.526721	-0.406918	0.000105
C182	C	0.860055	-0.073585	0.333439
C183	C	1.193388	0.259748	0.666772
C184	C	0.571061	-0.387806	0.000122
C185	C	0.904394	-0.054473	0.333456
C186	C	1.237727	0.278860	0.666789
C187	C	0.659220	-0.399993	0.000150
C188	C	0.992553	-0.066660	0.333483
C189	C	1.325886	0.266674	0.666817
C190	C	0.659732	-0.349581	0.000155
C191	C	0.993065	-0.016248	0.333489
C192	C	1.326399	0.317086	0.666822
C193	C	0.615909	-0.318282	0.000144
C194	C	0.949242	0.015052	0.333478
C195	C	1.282575	0.348385	0.666811
C196	C	0.571573	-0.337394	0.000128
C197	C	0.904906	-0.004061	0.333461
C198	C	1.238240	0.329272	0.666794
C199	C	0.482895	-0.375616	0.000088
C200	C	0.816228	-0.042283	0.333422
C201	C	1.149562	0.291051	0.666755
C202	C	0.483412	-0.325199	0.000088
C203	C	0.816745	0.008135	0.333421
C204	C	1.150079	0.341468	0.666755
C205	C	0.527751	-0.306087	0.000105
C206	C	0.861085	0.027247	0.333438
C207	C	1.194418	0.360580	0.666772
C208	C	0.528262	-0.255683	0.000122
C209	C	0.861595	0.077650	0.333456
C210	C	1.194928	0.410983	0.666789
N211	N	0.572598	-0.236568	0.000133
N212	N	0.905932	0.096765	0.333467
N213	N	1.239265	0.430098	0.666800
C214	C	0.616422	-0.267867	0.000144
C215	C	0.949755	0.065466	0.333478
C216	C	1.283088	0.398799	0.666811
C217	C	0.523596	-0.714450	0.000100
C218	C	0.856929	-0.381117	0.333433
C219	C	1.190262	-0.047784	0.666766
C220	C	0.523083	-0.764865	0.000099
C221	C	0.856416	-0.431531	0.333433
C222	C	1.189749	-0.098198	0.666766
C223	C	0.611246	-0.777049	0.000122
C224	C	0.944579	-0.443716	0.333456
C225	C	1.277913	-0.110383	0.666789
C226	C	0.611759	-0.726634	0.000127
C227	C	0.945092	-0.393301	0.333460
C228	C	1.278425	-0.059967	0.666793
C229	C	0.567932	-0.695335	0.000111
C230	C	0.901266	-0.362002	0.333444
C231	C	1.234599	-0.028669	0.666777
C232	C	0.617494	-0.161998	0.000156
C233	C	0.950827	0.171335	0.333490
C234	C	1.284161	0.504668	0.666823
C235	C	0.618003	-0.111582	0.000164
C236	C	0.951336	0.221752	0.333497
C237	C	1.284669	0.555085	0.666831
C238	C	0.529839	-0.099401	0.000138
C239	C	0.863173	0.233932	0.333472
C240	C	1.196506	0.567265	0.666805
C241	C	0.529331	-0.149814	0.000133
C242	C	0.862664	0.183520	0.333467
C243	C	1.195997	0.516853	0.666800
C244	C	0.573162	-0.181112	0.000140
C245	C	0.906495	0.152222	0.333474
C246	C	1.239829	0.485555	0.666807
O247	O	0.491060	-0.224392	0.000132
O248	O	0.824393	0.108941	0.333465
O249	O	1.157727	0.442275	0.666798
O250	O	0.654174	-0.246972	0.000147
O251	O	0.987507	0.086361	0.333480
O252	O	1.320841	0.419694	0.666814
C253	C	0.614372	-0.469517	0.000128
C254	C	0.947705	-0.136184	0.333461
C255	C	1.281038	0.197149	0.666795
C256	C	0.570036	-0.488630	0.000112
C257	C	0.903369	-0.155297	0.333445
C258	C	1.236703	0.178037	0.666778
C259	C	0.526213	-0.457331	0.000101
C260	C	0.859546	-0.123997	0.333434
C261	C	1.192879	0.209336	0.666767
C262	C	0.569523	-0.539044	0.000111
C263	C	0.902856	-0.205711	0.333445
C264	C	1.236190	0.127622	0.666778
C265	C	0.613346	-0.570343	0.000122
C266	C	0.946680	-0.237010	0.333456
C267	C	1.280013	0.096323	0.666789
C268	C	0.657683	-0.551228	0.000134
C269	C	0.991016	-0.217895	0.333467
C270	C	1.324349	0.115438	0.666800
C271	C	0.658195	-0.500817	0.000139
C272	C	0.991528	-0.167483	0.333472
C273	C	1.324862	0.165850	0.666806
C274	C	0.481876	-0.476446	0.000089
C275	C	0.815210	-0.143112	0.333423
C276	C	1.148543	0.190221	0.666756
C277	C	0.481368	-0.526858	0.000085
C278	C	0.814701	-0.193525	0.333418
C279	C	1.148034	0.139809	0.666751
C280	C	0.525191	-0.558157	0.000096
C281	C	0.858524	-0.224824	0.333429
C282	C	1.191858	0.108509	0.666762
C283	C	0.658949	0.057570	0.000156
C284	C	0.992282	0.390904	0.333489
C285	C	1.325615	0.724237	0.666823
C286	C	0.712605	0.058113	0.000166
C287	C	1.045938	0.391446	0.333499
C288	C	1.379272	0.724779	0.666833
C289	C	0.566353	0.150181	0.000119
C290	C	0.899687	0.483515	0.333452
C291	C	1.233020	0.816848	0.666786
C292	C	0.566906	0.203836	0.000110
C293	C	0.900239	0.537169	0.333444
C294	C	1.233573	0.870503	0.666777
N295	N	0.570526	0.061794	0.153390
N296	N	0.903859	0.395127	0.486723
N297	N	1.237192	0.728460	0.820056
N298	N	0.570564	0.061756	-0.153121
N299	N	0.903897	0.395090	0.180212
N300	N	1.237230	0.728423	0.513546
C301	C	0.603662	0.028660	0.562045
C302	C	0.936995	0.361994	0.895378
C303	C	1.270328	0.695327	1.228711
C304	C	0.603664	0.028657	0.623965
C305	C	0.936997	0.361990	0.957298
C306	C	1.270331	0.695323	1.290631
O307	O	0.631817	0.000493	0.655995
O308	O	0.965150	0.333826	0.989328
O309	O	1.298484	0.667160	1.322662
N310	N	0.570551	0.061760	0.654927
N311	N	0.903884	0.395093	0.988260
N312	N	1.237218	0.728426	1.321593
C313	C	0.537430	0.094865	0.623966
C314	C	0.870763	0.428198	0.957299
C315	C	1.204097	0.761532	1.290632
O316	O	0.509265	0.123021	0.655987
O317	O	0.842598	0.456354	0.989321
O318	O	1.175931	0.789688	1.322654
C319	C	0.537426	0.094866	0.562047
C320	C	0.870759	0.428199	0.895380
C321	C	1.204092	0.761532	1.228714
C322	C	0.570544	0.061764	0.531088
C323	C	0.903877	0.395097	0.864421
C324	C	1.237211	0.728431	1.197755
C325	C	0.636777	-0.004439	0.531086
C326	C	0.970110	0.328894	0.864419
C327	C	1.303444	0.662227	1.197752
C328	C	0.636775	-0.004435	0.469170
C329	C	0.970108	0.328898	0.802503
C330	C	1.303442	0.662232	1.135837
C331	C	0.603658	0.028669	0.438213
C332	C	0.936991	0.362002	0.771547
C333	C	1.270324	0.695335	1.104880
C334	C	0.570542	0.061768	0.469172
C335	C	0.903875	0.395102	0.802506
C336	C	1.237209	0.728435	1.135839
C337	C	0.504303	0.127968	0.531087
C338	C	0.837636	0.461302	0.864421
C339	C	1.170969	0.794635	1.197754
C340	C	0.504301	0.127966	0.469164
C341	C	0.837634	0.461299	0.802498
C342	C	1.170968	0.794633	1.135831
C343	C	0.537419	0.094864	0.438205
C344	C	0.870753	0.428198	0.771539
C345	C	1.204086	0.761531	1.104872
C346	C	0.537423	0.094876	0.376300
C347	C	0.870756	0.428210	0.709634
C348	C	1.204089	0.761543	1.042967
N349	N	0.570536	0.061773	0.345338
N350	N	0.903869	0.395107	0.678671
N351	N	1.237202	0.728440	1.012005
C352	C	0.603653	0.028670	0.376295
C353	C	0.936986	0.362003	0.709628
C354	C	1.270320	0.695336	1.042961
C355	C	0.537441	0.094860	0.753999
C356	C	0.870775	0.428193	1.087333
C357	C	1.204108	0.761527	1.420666
C358	C	0.537448	0.094862	0.815917
C359	C	0.870781	0.428195	1.149250
C360	C	1.204114	0.761529	1.482584
C361	C	0.603681	0.028653	0.815912
C362	C	0.937014	0.361986	1.149245
C363	C	1.270348	0.695320	1.482578
C364	C	0.603677	0.028654	0.753993
C365	C	0.937010	0.361987	1.087326
C366	C	1.270343	0.695321	1.420660
C367	C	0.570554	0.061757	0.723037
C368	C	0.903888	0.395091	1.056371
C369	C	1.237221	0.728424	1.389704
C370	C	0.603647	0.028681	0.246267
C371	C	0.936980	0.362015	0.579601
C372	C	1.270313	0.695348	0.912934
C373	C	0.603643	0.028690	0.184346
C374	C	0.936976	0.362023	0.517680
C375	C	1.270310	0.695357	0.851013
C376	C	0.537408	0.094897	0.184357
C377	C	0.870741	0.428230	0.517690
C378	C	1.204075	0.761563	0.851024
C379	C	0.537413	0.094890	0.246273
C380	C	0.870746	0.428224	0.579606
C381	C	1.204080	0.761557	0.912939
C382	C	0.570534	0.061778	0.277226
C383	C	0.903868	0.395112	0.610560
C384	C	1.237201	0.728445	0.943893
O385	O	0.509283	0.123024	0.344230
O386	O	0.842616	0.456358	0.677564
O387	O	1.175950	0.789691	1.010897
O388	O	0.631810	0.000514	0.344266
O389	O	0.965143	0.333847	0.677599
O390	O	1.298476	0.667181	1.010932
H391	H	0.040629	0.061449	-0.150782
H392	H	0.373963	0.394783	0.182551
H393	H	0.707296	0.728116	0.515885
H394	H	-0.050797	0.060527	0.151050
H395	H	0.282537	0.393860	0.484383
H396	H	0.615870	0.727193	0.817717
C397	C	0.431008	0.065479	0.112705
C398	C	0.764341	0.398812	0.446038
C399	C	1.097675	0.732146	0.779372
H400	H	0.464642	0.065828	0.105028
H401	H	0.797976	0.399161	0.438362
H402	H	1.131309	0.732495	0.771695
H403	H	0.426647	0.037197	0.134742
H404	H	0.759980	0.370531	0.468075
H405	H	1.093313	0.703864	0.801409
H406	H	0.418844	0.093599	0.134732
H407	H	0.752177	0.426933	0.468065
H408	H	1.085511	0.760266	0.801398
C409	C	0.047857	0.061538	0.166367
C410	C	0.381190	0.394871	0.499700
C411	C	0.714523	0.728205	0.833033
H412	H	0.025622	0.061308	0.198298
H413	H	0.358955	0.394641	0.531631
H414	H	0.692288	0.727975	0.864965
H415	H	0.063623	0.089939	0.168597
H416	H	0.396956	0.423272	0.501930
H417	H	0.730289	0.756606	0.835263
H418	H	0.071423	0.033537	0.168602
H419	H	0.404757	0.366870	0.501935
H420	H	0.738090	0.700204	0.835269
C421	C	0.640109	-0.007764	0.849969
C422	C	0.973442	0.325569	1.183302
C423	C	1.306775	0.658902	1.516636
H424	H	0.659834	-0.027478	0.822666
H425	H	0.993168	0.305855	1.156000
H426	H	1.326501	0.639188	1.489333
H427	H	0.622870	-0.027762	0.874124
H428	H	0.956204	0.305572	1.207457
H429	H	1.289537	0.638905	1.540790
H430	H	0.660101	0.009486	0.874124
H431	H	0.993434	0.342819	1.207457
H432	H	1.326768	0.676152	1.540790
H433	H	0.663742	-0.031391	0.443967
H434	H	0.997075	0.301943	0.777300
H435	H	1.330408	0.635276	1.110634
H436	H	0.630614	0.001734	0.159141
H437	H	0.963947	0.335068	0.492475
H438	H	1.297280	0.668401	0.825808
H439	H	0.694908	-0.425472	0.000157
H440	H	1.028241	-0.092139	0.333490
H441	H	1.361575	0.241194	0.666823
H442	H	-0.191267	0.059083	-0.097140
H443	H	0.142066	0.392417	0.236193
H444	H	0.475399	0.725750	0.569526
H445	H	0.630644	0.001699	0.728790
H446	H	0.963978	0.335033	1.062123
H447	H	1.297311	0.668366	1.395456
C448	C	0.475383	-0.680027	0.000090
C449	C	0.808717	-0.346694	0.333423
C450	C	1.142050	-0.013361	0.666757
H451	H	0.448909	-0.698637	0.000090
H452	H	0.782242	-0.365303	0.333423
H453	H	1.115575	-0.031970	0.666757
H454	H	0.473748	-0.660105	-0.034212
H455	H	0.807082	-0.326772	0.299121
H456	H	1.140415	0.006562	0.632455
H457	H	0.473747	-0.660110	0.034399
H458	H	0.807080	-0.326776	0.367733
H459	H	1.140413	0.006557	0.701066
H460	H	-0.191239	0.059110	0.097445
H461	H	0.142095	0.392443	0.430778
H462	H	0.475428	0.725776	0.764112
C463	C	0.500980	0.131309	0.150300
C464	C	0.834314	0.464642	0.483633
C465	C	1.167647	0.797975	0.816966
H466	H	0.481258	0.151026	0.177603
H467	H	0.814591	0.484359	0.510936
H468	H	1.147925	0.817693	0.844269
H469	H	0.480992	0.114059	0.126144
H470	H	0.814326	0.447393	0.459477
H471	H	1.147659	0.780726	0.792810
H472	H	0.518219	0.151311	0.126147
H473	H	0.851553	0.484644	0.459480
H474	H	1.184886	0.817977	0.792813
C475	C	-0.289898	0.058054	0.112771
C476	C	0.043435	0.391387	0.446104
C477	C	0.376768	0.724720	0.779438
H478	H	-0.323531	0.057692	0.105089
H479	H	0.009802	0.391026	0.438422
H480	H	0.343136	0.724359	0.771756
H481	H	-0.285550	0.086325	0.134836
H482	H	0.047783	0.419658	0.468169
H483	H	0.381116	0.752991	0.801502
H484	H	-0.277719	0.029923	0.134772
H485	H	0.055614	0.363256	0.468105
H486	H	0.388948	0.696590	0.801439
H487	H	0.510450	0.121849	0.271480
H488	H	0.843783	0.455183	0.604813
H489	H	1.177116	0.788516	0.938147
C490	C	0.199103	0.063090	0.166343
C491	C	0.532437	0.396424	0.499676
C492	C	0.865770	0.729757	0.833010
H493	H	0.232738	0.063435	0.158666
H494	H	0.566071	0.396769	0.492000
H495	H	0.899405	0.730102	0.825333
H496	H	0.194739	0.034808	0.188377
H497	H	0.528072	0.368141	0.521710
H498	H	0.861405	0.701474	0.855043
H499	H	0.186943	0.091210	0.188373
H500	H	0.520276	0.424543	0.521706
H501	H	0.853610	0.757876	0.855039
H502	H	0.663745	-0.031398	0.556285
H503	H	0.997079	0.301935	0.889619
H504	H	1.330412	0.635268	1.222952
H505	H	0.654110	-0.096024	0.000180
H506	H	0.987444	0.237310	0.333513
H507	H	1.320777	0.570643	0.666846
C508	C	-0.289924	0.058080	-0.112446
C509	C	0.043410	0.391413	0.220888
C510	C	0.376743	0.724746	0.554221
H511	H	-0.267691	0.058300	-0.144381
H512	H	0.065642	0.391633	0.188952
H513	H	0.398975	0.724966	0.522286
H514	H	-0.313490	0.086078	-0.114680
H515	H	0.019843	0.419411	0.218654
H516	H	0.353177	0.752744	0.551987
H517	H	-0.305690	0.029676	-0.114670
H518	H	0.027643	0.363009	0.218664
H519	H	0.360977	0.696342	0.551997
H520	H	0.510484	0.121821	0.841120
H521	H	0.843818	0.455155	1.174453
H522	H	1.177151	0.788488	1.507786
H523	H	0.100450	0.062080	0.151031
H524	H	0.433783	0.395414	0.484365
H525	H	0.767116	0.728747	0.817698
H526	H	0.447722	-0.299717	0.000074
H527	H	0.781056	0.033616	0.333407
H528	H	1.114389	0.366950	0.666741
H529	H	0.423794	0.065385	-0.097189
H530	H	0.757127	0.398719	0.236144
H531	H	1.090461	0.732052	0.569478
H532	H	0.695838	-0.334025	0.000167
H533	H	1.029171	-0.000692	0.333500
H534	H	1.362504	0.332642	0.666833
H535	H	0.332354	0.064457	0.097397
H536	H	0.665687	0.397790	0.430731
H537	H	0.999020	0.731124	0.764064
C538	C	0.706969	-0.479800	0.000152
C539	C	1.040302	-0.146466	0.333485
C540	C	1.373635	0.186867	0.666818
H541	H	0.732991	-0.505666	0.000152
H542	H	1.066324	-0.172333	0.333486
H543	H	1.399658	0.161001	0.666819
H544	H	0.709002	-0.460387	0.034455
H545	H	1.042335	-0.127054	0.367789
H546	H	1.375669	0.206280	0.701122
H547	H	0.709007	-0.460388	-0.034156
H548	H	1.042341	-0.127054	0.299177
H549	H	1.375674	0.206279	0.632511
C550	C	0.501011	0.131283	0.719953
C551	C	0.834344	0.464616	1.053287
C552	C	1.167677	0.797949	1.386620
H553	H	0.481296	0.150998	0.747266
H554	H	0.814629	0.484331	1.080599
H555	H	1.147963	0.817665	1.413932
H556	H	0.481015	0.114042	0.695797
H557	H	0.814348	0.447375	1.029131
H558	H	1.147682	0.780709	1.362464
H559	H	0.518250	0.151285	0.695802
H560	H	0.851583	0.484619	1.029135
H561	H	1.184916	0.817952	1.362468
C562	C	0.432591	-0.547875	0.000064
C563	C	0.765924	-0.214542	0.333397
C564	C	1.099258	0.118791	0.666731
H565	H	0.406567	-0.522010	0.000052
H566	H	0.739901	-0.188677	0.333385
H567	H	1.073234	0.144656	0.666719
H568	H	0.430547	-0.567293	0.034362
H569	H	0.763880	-0.233959	0.367695
H570	H	1.097213	0.099374	0.701029
H571	H	0.430565	-0.567283	-0.034249
H572	H	0.763899	-0.233950	0.299084
H573	H	1.097232	0.099383	0.632417
C574	C	-0.058020	0.060432	-0.166094
C575	C	0.275314	0.393765	0.167239
C576	C	0.608647	0.727099	0.500572
H577	H	-0.035784	0.060650	-0.198027
H578	H	0.297549	0.393984	0.135307
H579	H	0.630883	0.727317	0.468640
H580	H	-0.081590	0.088426	-0.168339
H581	H	0.251743	0.421760	0.164994
H582	H	0.585077	0.755093	0.498328
H583	H	-0.073780	0.032024	-0.168314
H584	H	0.259553	0.365358	0.165020
H585	H	0.592886	0.698691	0.498353
C586	C	0.660531	-0.705615	0.000140
C587	C	0.993864	-0.372282	0.333473
C588	C	1.327198	-0.038949	0.666806
H589	H	0.686555	-0.731480	0.000143
H590	H	1.019888	-0.398147	0.333477
H591	H	1.353221	-0.064814	0.666810
H592	H	0.662562	-0.686200	0.034442
H593	H	0.995895	-0.352867	0.367775
H594	H	1.329229	-0.019534	0.701109
H595	H	0.662570	-0.686205	-0.034169
H596	H	0.995903	-0.352872	0.299164
H597	H	1.329237	-0.019538	0.632497
C598	C	0.480559	-0.170838	0.000113
C599	C	0.813893	0.162495	0.333447
C600	C	1.147226	0.495828	0.666780
H601	H	0.454533	-0.144975	0.000104
H602	H	0.787867	0.188358	0.333437
H603	H	1.121200	0.521691	0.666770
H604	H	0.478517	-0.190258	0.034410
H605	H	0.811850	0.143075	0.367743
H606	H	1.145184	0.476409	0.701076
H607	H	0.478535	-0.190244	-0.034202
H608	H	0.811869	0.143089	0.299132
H609	H	1.145202	0.476422	0.632465
H610	H	0.494160	-0.073909	0.000131
H611	H	0.827493	0.259425	0.333465
H612	H	1.160826	0.592758	0.666798
C613	C	0.325124	0.064376	-0.112507
C614	C	0.658458	0.397709	0.220826
C615	C	0.991791	0.731042	0.554160
H616	H	0.347358	0.064600	-0.144441
H617	H	0.680691	0.397933	0.188893
H618	H	1.014025	0.731266	0.522226
H619	H	0.301556	0.092372	-0.114740
H620	H	0.634889	0.425705	0.218594
H621	H	0.968223	0.759039	0.551927
H622	H	0.309361	0.035970	-0.114735
H623	H	0.642694	0.369303	0.218598
H624	H	0.976028	0.702637	0.551931
H625	H	0.100417	0.062061	-0.150788
H626	H	0.433750	0.395394	0.182545
H627	H	0.767084	0.728728	0.515879
C628	C	0.665707	-0.196419	0.000169
C629	C	0.999041	0.136914	0.333502
C630	C	1.332374	0.470248	0.666836
H631	H	0.692182	-0.177810	0.000185
H632	H	1.025515	0.155524	0.333518
H633	H	1.358849	0.488857	0.666852
H634	H	0.667351	-0.216339	-0.034134
H635	H	1.000685	0.116994	0.299199
H636	H	1.334018	0.450327	0.632532
H637	H	0.667335	-0.216338	0.034477
H638	H	1.000669	0.116995	0.367810
H639	H	1.334002	0.450328	0.701144
C640	C	0.659451	-0.811485	0.000125
C641	C	0.992784	-0.478151	0.333458
C642	C	1.326117	-0.144818	0.666792
H643	H	0.652791	-0.844245	0.000116
H644	H	0.986124	-0.510912	0.333450
H645	H	1.319458	-0.177579	0.666783
H646	H	0.677651	-0.805733	0.034429
H647	H	1.010984	-0.472400	0.367762
H648	H	1.344318	-0.139066	0.701095
H649	H	0.677645	-0.805725	-0.034183
H650	H	1.010978	-0.472392	0.299151
H651	H	1.344311	-0.139059	0.632484
H652	H	0.446789	-0.391168	0.000071
H653	H	0.780123	-0.057834	0.333404
H654	H	1.113456	0.275499	0.666737
H655	H	0.191878	0.062996	-0.150789
H656	H	0.525211	0.396329	0.182544
H657	H	0.858545	0.729663	0.515878
H658	H	0.486977	-0.780421	0.000096
H659	H	0.820311	-0.447088	0.333429
H660	H	1.153644	-0.113754	0.666762
H661	H	0.477327	0.154922	0.443963
H662	H	0.810660	0.488256	0.777296
H663	H	1.143994	0.821589	1.110630
C664	C	0.705887	-0.585664	0.000141
C665	C	1.039220	-0.252331	0.333475
C666	C	1.372554	0.081003	0.666808
H667	H	0.699227	-0.618425	0.000131
H668	H	1.032560	-0.285091	0.333464
H669	H	1.365894	0.048242	0.666797
H670	H	0.724084	-0.579912	0.034448
H671	H	1.057417	-0.246579	0.367781
H672	H	1.390751	0.086754	0.701114
H673	H	0.724085	-0.579905	-0.034164
H674	H	1.057418	-0.246572	0.299170
H675	H	1.390751	0.086762	0.632503
H676	H	0.477335	0.154922	0.556285
H677	H	0.810668	0.488256	0.889619
H678	H	1.144001	0.821589	1.222952
C679	C	0.433668	-0.442023	0.000083
C680	C	0.767001	-0.108689	0.333417
C681	C	1.100334	0.224644	0.666750
H682	H	0.407193	-0.460632	0.000081
H683	H	0.740526	-0.127298	0.333414
H684	H	1.073859	0.206035	0.666748
H685	H	0.432032	-0.422098	-0.034216
H686	H	0.765366	-0.088764	0.299117
H687	H	1.098699	0.244569	0.632451
H688	H	0.432031	-0.422108	0.034395
H689	H	0.765365	-0.088775	0.367729
H690	H	1.098698	0.244558	0.701062
H691	H	0.630616	0.001718	0.271463
H692	H	0.963950	0.335051	0.604796
H693	H	1.297283	0.668385	0.938129
