data_functionalizedCrystal
_audit_creation_method	'MofGen! by Chris Wilmer'
_symmetry_space_group_name_H-M	'P1'
_symmetry_Int_Tables_number	1
_symmetry_cell_setting	triclinic
loop_
_symmetry_equiv_pos_as_xyz
  x,y,z
_cell_length_a	14.519731
_cell_length_b	15.995292
_cell_length_c	12.996460
_cell_angle_alpha	89.997047
_cell_angle_beta	89.994327
_cell_angle_gamma	83.578735
loop_
_atom_site_label
_atom_site_type_symbol
_atom_site_fract_x
_atom_site_fract_y
_atom_site_fract_z
O1	O	1.223632	0.109848	-0.085562
O2	O	0.955131	0.122755	-0.085562
O3	O	1.096749	-0.005578	-0.085563
O4	O	1.082014	0.238181	-0.085560
O5	O	1.096734	-0.005585	0.085570
O6	O	0.955117	0.122748	0.085572
O7	O	1.223617	0.109841	0.085572
Cu8	Cu	1.089366	0.116294	0.101198
Cu9	Cu	1.089383	0.116302	-0.101188
O10	O	1.081999	0.238174	0.085573
C11	C	0.920766	0.122147	0.000004
C12	C	0.818389	0.120335	0.000004
C13	C	0.735248	0.118862	-0.000000
C14	C	0.630943	0.117022	-0.000001
C15	C	0.547807	0.115562	-0.000001
C16	C	0.443495	0.113722	-0.000003
C17	C	1.096142	-0.036778	0.000001
C18	C	1.094344	-0.129734	-0.000007
C19	C	1.087734	-0.467482	0.000003
C20	C	1.189950	-0.444010	0.000385
C21	C	1.191893	-0.347331	-0.000004
C22	C	1.091014	-0.299921	-0.000002
C23	C	1.039919	-0.329098	-0.097724
C24	C	1.038689	-0.425891	-0.097802
C25	C	1.036585	-0.425759	0.096809
C26	C	1.040373	-0.329261	0.098097
C27	C	1.092862	-0.205222	-0.000007
C28	C	1.085883	-0.562181	0.000001
C29	C	1.257983	0.110449	0.000003
C30	C	1.360359	0.112261	-0.000003
C31	C	1.082606	0.269374	0.000007
C32	C	1.084404	0.362330	0.000008
N33	N	1.089360	0.116287	0.243545
N34	N	1.089396	0.116302	-0.243535
C35	C	1.089382	0.116303	0.663359
C36	C	1.089373	0.116302	0.546554
C37	C	1.089371	0.116296	0.453456
C38	C	1.089362	0.116293	0.336643
H39	H	1.231910	-0.328246	0.070046
Br40	Br	0.913780	-0.450344	-0.105197
Br41	Br	1.255614	-0.490572	0.117195
Br42	Br	1.102374	-0.298219	0.218597
H43	H	0.965686	-0.297347	-0.101355
H44	H	0.961346	-0.439868	0.097469
H45	H	1.074087	-0.452649	-0.170854
Br46	Br	1.099076	-0.295571	-0.218944
H47	H	0.966741	-0.296407	0.104000
Br48	Br	1.089870	-0.472849	0.220263
H49	H	1.229136	-0.472963	-0.069303
H50	H	1.232158	-0.328861	-0.070178
