data_functionalizedCrystal
_audit_creation_method	'MofGen! by Chris Wilmer'
_symmetry_space_group_name_H-M	'P1'
_symmetry_Int_Tables_number	1
_symmetry_cell_setting	triclinic
loop_
_symmetry_equiv_pos_as_xyz
  x,y,z
_cell_length_a	14.519731
_cell_length_b	12.811457
_cell_length_c	11.295483
_cell_angle_alpha	91.289320
_cell_angle_beta	85.891568
_cell_angle_gamma	96.133485
loop_
_atom_site_label
_atom_site_type_symbol
_atom_site_fract_x
_atom_site_fract_y
_atom_site_fract_z
O1	O	-0.127392	1.389266	0.051021
O2	O	-0.138856	1.086046	0.018275
O3	O	0.001040	1.245684	0.035506
O4	O	-0.267289	1.229627	0.033789
O5	O	-0.011228	1.231663	0.232044
O6	O	-0.151125	1.072024	0.214812
O7	O	-0.139661	1.375244	0.247558
Cu8	Cu	-0.146513	1.222354	0.249131
Cu9	Cu	-0.132004	1.238936	0.016702
O10	O	-0.279557	1.215606	0.230327
C11	C	-0.143972	1.040229	0.112352
C12	C	-0.140927	0.924598	0.099864
C13	C	-0.148563	0.692028	0.290686
C14	C	-0.145701	0.583382	0.278958
C15	C	-0.132336	0.598659	0.064681
C16	C	-0.135197	0.707305	0.076409
C17	C	-0.143312	0.753985	0.189415
C18	C	-0.146180	0.862632	0.201142
C19	C	-0.132808	0.877908	-0.013134
C20	C	-0.129947	0.769262	-0.024862
C21	C	-0.307789	1.223369	0.132141
C22	C	-0.410190	1.225623	0.132391
C23	C	-0.493351	1.227455	0.132584
C24	C	-0.597680	1.229744	0.132820
C25	C	-0.680835	1.231562	0.133007
C26	C	-0.785171	1.233851	0.133245
C27	C	0.029272	1.237922	0.133689
C28	C	0.131674	1.235668	0.133432
C29	C	-0.134545	1.421062	0.153478
C30	C	-0.137589	1.536693	0.165959
N31	N	-0.156717	1.210699	0.412609
N32	N	-0.121793	1.250600	-0.146775
C33	C	-0.048287	1.334501	0.675262
C34	C	-0.056004	1.325700	0.798975
C35	C	-0.179866	1.184293	0.783752
C36	C	-0.172148	1.193093	0.660038
C37	C	-0.106357	1.268201	0.605798
C38	C	-0.098644	1.277006	0.482082
C39	C	-0.222500	1.135594	0.466860
C40	C	-0.230218	1.126793	0.590574
H41	H	-0.152793	0.900636	0.293157
H42	H	-0.123335	0.731240	-0.116868
H43	H	-0.155183	0.730034	0.382699
H44	H	-0.128538	0.928364	-0.095596
H45	H	-0.149982	0.532939	0.361423
H46	H	-0.125713	0.560635	-0.027323
H47	H	-0.008717	1.379687	0.855530
H48	H	-0.269788	1.081611	0.410288
H49	H	-0.233425	1.123135	0.827930
H50	H	-0.283781	1.065639	0.634751
H51	H	-0.045077	1.338164	0.437922
H52	H	0.005277	1.395663	0.631099
