data_functionalizedCrystal
_audit_creation_method	'MofGen! by Chris Wilmer'
_symmetry_space_group_name_H-M	'P1'
_symmetry_Int_Tables_number	1
_symmetry_cell_setting	triclinic
loop_
_symmetry_equiv_pos_as_xyz
  x,y,z
_cell_length_a	16.992694
_cell_length_b	14.853567
_cell_length_c	15.455313
_cell_angle_alpha	92.672621
_cell_angle_beta	87.142206
_cell_angle_gamma	87.151577
loop_
_atom_site_label
_atom_site_type_symbol
_atom_site_fract_x
_atom_site_fract_y
_atom_site_fract_z
O1	O	1.044027	0.187488	-0.072010
O2	O	0.815740	0.185390	-0.072036
O3	O	0.935981	0.055640	-0.072025
O4	O	0.923785	0.317238	-0.072021
O5	O	0.929105	0.063027	0.072237
O6	O	0.808864	0.192777	0.072226
O7	O	1.037151	0.194875	0.072251
Cu8	Cu	0.922380	0.194501	0.085411
Cu9	Cu	0.930511	0.185764	-0.085195
O10	O	0.916909	0.324625	0.072241
C11	C	0.783087	0.186385	0.000092
C12	C	0.696034	0.178334	0.000081
C13	C	0.931991	0.025705	0.000103
C14	C	0.930335	-0.074496	0.000096
C15	C	0.645878	0.256009	0.000083
C16	C	0.564083	0.248440	0.000095
C17	C	0.532445	0.163195	0.000099
C18	C	0.582608	0.085514	0.000100
C19	C	0.664401	0.093084	0.000094
C20	C	0.288813	0.131820	0.000122
C21	C	0.207013	0.124255	0.000125
C22	C	0.188493	0.287183	0.000122
C23	C	0.270290	0.294745	0.000111
C24	C	0.320445	0.217064	0.000116
N25	N	0.448838	0.155456	0.000108
N26	N	0.404050	0.224804	0.000113
C27	C	0.851909	-0.492567	0.000103
C28	C	0.994758	-0.503760	0.000119
C29	C	0.996315	-0.409617	0.000114
C30	C	0.925668	-0.356944	0.000105
C31	C	0.853464	-0.398414	0.000101
C32	C	1.068518	-0.368139	0.000127
C33	C	1.070078	-0.273990	0.000123
C34	C	0.999430	-0.221316	0.000108
C35	C	0.927223	-0.262791	0.000103
C36	C	0.856576	-0.210118	0.000094
C37	C	0.784368	-0.251593	0.000082
C38	C	0.782816	-0.345740	0.000086
C39	C	1.000982	-0.127169	0.000105
C40	C	0.858131	-0.115966	0.000091
C41	C	1.069804	0.193880	0.000122
C42	C	1.156857	0.201931	0.000127
C43	C	0.920900	0.354560	0.000110
C44	C	0.922556	0.454760	0.000112
N45	N	0.916666	0.200645	0.205406
N46	N	0.936231	0.179613	-0.205190
C47	C	0.967766	0.145545	0.250805
C48	C	0.963453	0.150201	0.341612
C49	C	0.908042	0.209961	0.387019
C50	C	0.856936	0.265063	0.341614
C51	C	0.861246	0.260402	0.250808
C52	C	0.889436	0.230054	0.658599
C53	C	0.885131	0.234713	0.749411
C54	C	0.991647	0.119849	0.749403
C55	C	0.995956	0.115198	0.658595
C56	C	0.944847	0.170296	0.613198
N57	N	0.903633	0.214723	0.479839
N58	N	0.949253	0.165529	0.520380
H59	H	0.523249	0.311692	0.000096
H60	H	0.329639	0.068566	0.000127
H61	H	1.052275	-0.546652	0.000134
H62	H	0.800601	-0.073085	0.000080
C63	C	0.172213	0.030481	0.000131
H64	H	0.213797	-0.014699	0.000140
H65	H	0.143083	0.021565	-0.050176
H66	H	0.138297	0.026725	0.050445
C67	C	0.824176	0.300449	0.799362
H68	H	0.828937	0.295339	0.859944
H69	H	0.772539	0.286087	0.784495
H70	H	0.833463	0.360482	0.784472
H71	H	0.296043	0.364161	0.000098
C72	C	0.719576	0.007644	0.000091
H73	H	0.772820	0.024361	0.000096
H74	H	0.712370	-0.029649	-0.050213
H75	H	0.707584	-0.024486	0.050407
C76	C	0.706662	-0.193647	0.000071
H77	H	0.717935	-0.131638	0.000068
H78	H	0.674656	-0.204196	0.050371
H79	H	0.679461	-0.209347	-0.050249
H80	H	1.033256	0.074990	0.786374
C81	C	0.547809	-0.008255	0.000102
H82	H	0.491912	-0.001640	0.000097
H83	H	0.562627	-0.037911	0.050408
H84	H	0.567412	-0.043059	-0.050213
H85	H	0.671631	0.325425	0.000080
H86	H	0.147649	0.350426	0.000119
C87	C	0.795986	0.330799	0.391559
H88	H	0.800743	0.325692	0.452142
H89	H	0.744349	0.316441	0.376688
H90	H	0.805278	0.390831	0.376668
H91	H	0.819634	0.305269	0.213845
H92	H	1.126034	-0.411032	0.000143
H93	H	1.128874	-0.240230	0.000132
C94	C	0.833225	0.290668	0.608673
H95	H	0.799615	0.326933	0.648724
H96	H	0.802228	0.254048	0.573257
H97	H	0.863157	0.328437	0.573244
C98	C	0.703397	-0.391362	0.000085
H99	H	0.712590	-0.454976	0.000100
H100	H	0.676696	-0.376218	-0.050223
H101	H	0.671912	-0.371051	0.050397
C102	C	0.772486	-0.538183	0.000094
H103	H	0.781674	-0.601797	0.000102
H104	H	0.745790	-0.523027	-0.050214
H105	H	0.741000	-0.517874	0.050406
H106	H	1.012891	0.096886	0.213840
C107	C	1.080400	-0.081550	0.000120
H108	H	1.122252	-0.126404	0.000124
H109	H	1.081575	-0.042474	0.050424
H110	H	1.086377	-0.047639	-0.050196
C111	C	1.019671	0.089600	0.391547
H112	H	1.053297	0.053353	0.351499
H113	H	0.989752	0.051830	0.426980
H114	H	1.050662	0.126239	0.426960
H115	H	1.041076	0.066536	0.621627
