data_functionalizedCrystal
_audit_creation_method	'MofGen! by Chris Wilmer'
_symmetry_space_group_name_H-M	'P1'
_symmetry_Int_Tables_number	1
_symmetry_cell_setting	triclinic
loop_
_symmetry_equiv_pos_as_xyz
  x,y,z
_cell_length_a	17.639044
_cell_length_b	17.638516
_cell_length_c	21.395355
_cell_angle_alpha	78.812630
_cell_angle_beta	78.795160
_cell_angle_gamma	87.880837
loop_
_atom_site_label
_atom_site_type_symbol
_atom_site_fract_x
_atom_site_fract_y
_atom_site_fract_z
Zn1	Zn	1.099674	-0.536874	0.263635
Zn2	Zn	1.073889	-0.663835	0.183330
Zn3	Zn	0.972688	-0.511229	0.175158
Zn4	Zn	0.946987	-0.638187	0.304342
O5	O	1.023310	-0.587531	0.231616
O6	O	1.202507	-0.575182	0.239366
O7	O	1.060429	-0.643593	0.094574
O8	O	1.011080	-0.408365	0.166439
O9	O	1.183563	-0.668460	0.180366
O10	O	1.104376	-0.427206	0.231442
O11	O	0.986077	-0.531474	0.088570
O12	O	0.863025	-0.506603	0.205911
O13	O	0.967277	-0.624746	0.386614
O14	O	0.844143	-0.599879	0.300822
O15	O	1.079456	-0.550312	0.356707
O16	O	1.035508	-0.766699	0.219838
O17	O	0.942274	-0.747855	0.308746
C18	C	0.826034	-0.547676	0.256897
C19	C	0.741635	-0.530644	0.267731
C20	C	0.632524	-0.458152	0.313792
C21	C	0.711829	-0.474162	0.303609
C22	C	0.692142	-0.571135	0.242020
C23	C	0.612835	-0.555130	0.252195
C24	C	0.583032	-0.498639	0.288083
C25	C	0.563343	-0.595617	0.226486
C26	C	0.484042	-0.579616	0.236663
C27	C	0.454233	-0.523129	0.272551
C28	C	0.503731	-0.482638	0.298260
C29	C	0.593146	-0.652112	0.190602
C30	C	0.543654	-0.692599	0.164893
C31	C	0.464353	-0.676594	0.175066
C32	C	0.434544	-0.620107	0.210954
C33	C	0.414854	-0.717085	0.149357
C34	C	0.335553	-0.701085	0.159534
C35	C	0.355243	-0.604106	0.221131
C36	C	0.983325	-0.784835	0.269607
C37	C	0.966289	-0.869256	0.285872
C38	C	1.153188	-1.195869	0.108045
C39	C	1.137167	-1.275193	0.123340
C40	C	1.040000	-1.255599	0.215866
C41	C	1.056011	-1.176271	0.200577
C42	C	1.112606	-1.146413	0.146666
C43	C	1.015429	-1.126815	0.239198
C44	C	1.031441	-1.047494	0.223912
C45	C	1.088035	-1.017630	0.170004
C46	C	1.128618	-1.067092	0.131380
C47	C	0.958838	-1.156675	0.293111
C48	C	0.918256	-1.107219	0.331732
C49	C	0.934264	-1.027897	0.316444
C50	C	0.990858	-0.998032	0.262537
C51	C	0.893681	-0.978435	0.355069
C52	C	0.909693	-0.899114	0.339783
C53	C	1.006871	-0.918712	0.247250
C54	C	1.221355	-0.627543	0.206237
C55	C	1.305751	-0.644593	0.195422
C56	C	1.023376	-0.587528	0.395029
C57	C	1.023404	-0.587527	0.464665
C58	C	1.063471	-0.389461	0.193488
C59	C	1.080586	-0.305056	0.177241
C60	C	1.023299	-0.587488	0.068824
C61	C	1.023461	-0.587305	-0.000873
C62	C	1.081814	-0.548767	0.481806
C63	C	1.081819	-0.548734	0.547236
C64	C	1.023420	-0.587477	0.595523
C65	C	0.965001	-0.626238	0.578376
C66	C	0.964992	-0.626264	0.512947
C67	C	1.003568	-0.654643	0.713132
C68	C	1.003581	-0.654620	0.778560
C69	C	1.023441	-0.587397	0.797328
C70	C	1.043305	-0.520199	0.750658
C71	C	1.043296	-0.520224	0.685229
C72	C	1.023422	-0.587453	0.666471
C73	C	1.081860	-0.548598	0.885414
C74	C	1.081861	-0.548563	0.950845
C75	C	0.965045	-0.626075	0.981984
C76	C	0.965042	-0.626102	0.916554
C77	C	1.023453	-0.587366	0.868272
H78	H	0.389660	-0.510105	0.280839
H79	H	0.330978	-0.558097	0.250346
H80	H	0.608260	-0.412142	0.343007
C81	C	0.900805	-0.668693	1.035096
N82	N	0.852418	-0.700794	1.075104
C83	C	0.855999	-1.140072	0.391030
N84	N	0.809102	-1.164815	0.435692
C85	C	1.065151	-0.446247	0.771297
N86	N	1.081606	-0.390549	0.786845
H87	H	1.129376	-0.517224	0.442498
H88	H	0.847607	-1.002759	0.398966
H89	H	0.917425	-0.657825	0.498993
C90	C	0.470945	-0.420491	0.337735
N91	N	0.446250	-0.373685	0.367468
H92	H	0.945806	-1.221264	0.305558
H93	H	0.752124	-0.441186	0.324545
C94	C	0.865040	-0.844707	0.382260
N95	N	0.831403	-0.803727	0.414254
C96	C	1.146081	-0.506099	0.566097
N97	N	1.194484	-0.473988	0.580301
C98	C	1.105648	-0.930375	0.153189
N99	N	1.118913	-0.864653	0.140522
C100	C	0.724935	-0.633269	0.202540
N101	N	0.749635	-0.680066	0.172799
H102	H	0.987195	-0.709328	0.697882
H103	H	1.174699	-1.042780	0.087476
H104	H	0.295255	-0.734055	0.138601
C105	C	1.146119	-0.505919	0.969698
N106	N	1.194519	-0.473800	0.983898
H107	H	0.657721	-0.665126	0.182305
C108	C	0.576448	-0.754733	0.125413
N109	N	0.601147	-0.801530	0.095672
C110	C	1.065135	-0.446304	0.633897
N111	N	1.081580	-0.390625	0.595233
C112	C	0.977743	-1.288452	0.275163
N113	N	0.930847	-1.313195	0.319825
C114	C	1.146108	-0.505979	0.832301
N115	N	1.194500	-0.473877	0.792298
C116	C	1.215449	-1.163021	0.048741
N117	N	1.262344	-1.138280	0.004078
C118	C	0.900788	-0.668746	0.897698
N119	N	0.852388	-0.700865	0.883498
H120	H	0.439131	-0.763086	0.120143
H121	H	1.170220	-1.315459	0.091887
C122	C	0.981731	-0.728539	0.829890
N123	N	0.965271	-0.784217	0.868551
C124	C	0.900759	-0.668851	0.631493
N125	N	0.852368	-0.700945	0.671501
H126	H	1.052951	-0.894400	0.203347
