data_functionalizedCrystal
_audit_creation_method	'MofGen! by Chris Wilmer'
_symmetry_space_group_name_H-M	'P1'
_symmetry_Int_Tables_number	1
_symmetry_cell_setting	triclinic
loop_
_symmetry_equiv_pos_as_xyz
  x,y,z
_cell_length_a	12.645331
_cell_length_b	19.805405
_cell_length_c	19.805407
_cell_angle_alpha	89.984962
_cell_angle_beta	90.008466
_cell_angle_gamma	89.974611
loop_
_atom_site_label
_atom_site_type_symbol
_atom_site_fract_x
_atom_site_fract_y
_atom_site_fract_z
Zn1	Zn	1.620518	0.269593	0.382698
Zn2	Zn	2.120518	0.769593	0.882698
Zn3	Zn	1.620417	0.382753	0.269506
Zn4	Zn	2.120417	0.882753	0.769506
Zn5	Zn	1.443277	0.269581	0.269524
Zn6	Zn	1.943277	0.769581	0.769524
Zn7	Zn	1.443188	0.382743	0.382654
Zn8	Zn	1.943188	0.882743	0.882654
O9	O	1.531850	0.326167	0.326095
O10	O	2.031850	0.826167	0.826095
O11	O	1.768852	0.284612	0.367693
O12	O	2.268852	0.784612	0.867693
O13	O	1.596914	0.367740	0.174792
O14	O	2.096914	0.867740	0.674792
O15	O	1.466868	0.174866	0.284562
O16	O	1.966868	0.674866	0.784562
O17	O	1.768778	0.367751	0.284532
O18	O	2.268778	0.867751	0.784532
O19	O	1.597087	0.174874	0.367711
O20	O	2.097087	0.674874	0.867711
O21	O	1.466770	0.284593	0.174805
O22	O	1.966770	0.784593	0.674805
O23	O	1.294918	0.284583	0.284520
O24	O	1.794918	0.784583	0.784520
O25	O	1.466716	0.367734	0.477377
O26	O	1.966716	0.867734	0.977377
O27	O	1.294852	0.367723	0.367637
O28	O	1.794852	0.867723	0.867637
O29	O	1.597000	0.284603	0.477409
O30	O	2.097000	0.784603	0.977409
O31	O	1.596827	0.477468	0.284490
O32	O	2.096827	0.977468	0.784490
O33	O	1.466618	0.477461	0.367619
O34	O	1.966618	0.977461	0.867619
C35	C	1.256420	0.326151	0.326076
C36	C	1.756420	0.826151	0.826076
C37	C	1.138590	0.326161	0.326084
C38	C	1.638590	0.826161	0.826084
C39	C	1.531859	0.326169	0.502638
C40	C	2.031859	0.826169	1.002638
C41	C	1.531863	0.326169	0.577870
C42	C	2.031863	0.826169	1.077870
C43	C	1.531731	0.502023	0.326063
C44	C	2.031731	1.002023	0.826063
C45	C	1.531777	0.577255	0.326071
C46	C	2.031777	1.077255	0.826071
C47	C	0.971032	0.273617	0.274084
C48	C	1.471032	0.773617	0.774084
C49	C	1.093592	0.273753	0.273854
C50	C	1.593592	0.773753	0.773854
C51	C	1.094060	0.397456	0.306591
C52	C	1.594060	0.897456	0.806591
C53	C	0.971462	0.397169	0.306236
C54	C	1.471462	0.897169	0.806236
C55	C	0.971417	0.308087	0.397777
C56	C	1.471417	0.808087	0.897777
C57	C	1.094024	0.306494	0.397379
C58	C	1.594024	0.806494	0.897379
C59	C	1.808355	0.326184	0.326116
C60	C	2.308355	0.826184	0.826116
C61	C	1.926185	0.326191	0.326124
C62	C	2.426185	0.826191	0.826124
C63	C	1.531999	0.149625	0.326143
C64	C	2.031999	0.649625	0.826143
C65	C	1.532062	0.074393	0.326164
C66	C	2.032062	0.574393	0.826164
C67	C	1.599643	0.612581	0.282831
C68	C	2.099643	1.112581	0.782831
C69	C	1.599688	0.683269	0.282846
C70	C	2.099688	1.183269	0.782846
C71	C	1.531861	0.718631	0.326098
C72	C	2.031861	1.218631	0.826098
C73	C	1.463992	0.683301	0.369343
C74	C	1.963992	1.183301	0.869343
C75	C	1.463953	0.612613	0.369331
C76	C	1.963953	1.112613	0.869331
C77	C	1.464148	0.968374	0.369394
C78	C	1.964148	1.468374	0.869394
C79	C	1.464190	1.039066	0.369401
C80	C	1.964190	1.539066	0.869401
C81	C	1.599883	1.039030	0.282908
C82	C	2.099883	1.539030	0.782908
C83	C	1.599844	0.968343	0.282896
C84	C	2.099844	1.468343	0.782896
C85	C	1.531979	0.933018	0.326143
C86	C	2.031979	1.433018	0.826143
C87	C	1.531933	0.856370	0.326128
C88	C	2.031933	1.356370	0.826128
C89	C	1.531901	0.795278	0.326111
C90	C	2.031901	1.295278	0.826111
C91	C	1.599694	0.282890	0.613232
C92	C	2.099694	0.782890	1.113232
C93	C	1.599685	0.282888	0.683920
C94	C	2.099685	0.782888	1.183920
C95	C	1.531850	0.326169	0.719246
C96	C	2.031850	0.826169	1.219246
C97	C	1.464012	0.369451	0.683879
C98	C	1.964012	0.869451	1.183879
C99	C	1.464016	0.369449	0.613192
C100	C	1.964016	0.869449	1.113192
C101	C	1.463991	0.369459	0.968952
C102	C	1.963991	0.869459	1.468952
C103	C	1.463994	0.369459	1.039644
C104	C	1.963994	0.869459	1.539644
C105	C	1.599659	0.282897	1.039681
C106	C	2.099659	0.782897	1.539681
C107	C	1.599664	0.282895	0.968994
C108	C	2.099664	0.782895	1.468994
C109	C	1.531823	0.326174	0.933633
C110	C	2.031823	0.826174	1.433633
C111	C	1.531832	0.326175	0.856985
C112	C	2.031832	0.826175	1.356985
C113	C	1.531845	0.326172	0.795893
C114	C	2.031845	0.826172	1.295893
C115	C	1.531830	0.326180	1.150239
C116	C	2.031830	0.826180	1.650239
C117	C	1.531820	0.326175	1.075007
C118	C	2.031820	0.826175	1.575007
H119	H	1.123700	0.220884	0.286073
H120	H	1.623700	0.720884	0.786073
H121	H	1.655071	0.939553	0.247674
H122	H	2.155071	1.439553	0.747674
H123	H	1.408776	0.404689	0.712646
H124	H	1.908776	0.904689	1.212646
H125	H	0.940202	0.285448	0.221298
H126	H	1.440202	0.785448	0.721298
Br127	Br	1.371927	0.428203	1.087586
Br128	Br	1.871927	0.928203	1.587586
H129	H	1.655145	1.067799	0.247697
H130	H	2.155145	1.567799	0.747697
H131	H	1.654922	0.247646	0.712709
H132	H	2.154922	0.747646	1.212709
H133	H	1.654950	0.712028	0.247635
H134	H	2.154950	1.212028	0.747635
H135	H	1.654906	0.247653	0.940235
H136	H	2.154906	0.747653	1.440235
H137	H	1.408766	0.404709	0.940170
H138	H	1.908766	0.904709	1.440170
Br139	Br	1.371951	0.428184	0.565200
Br140	Br	1.871951	0.928184	1.065200
Br141	Br	1.691689	0.564597	0.224122
Br142	Br	2.191689	1.064597	0.724122
H143	H	1.408958	1.067855	0.404627
H144	H	1.908958	1.567855	0.904627
Br145	Br	1.691730	0.224159	1.087674
Br146	Br	2.191730	0.724159	1.587674
H147	H	1.408770	0.712098	0.404563
H148	H	1.908770	1.212098	0.904563
Br149	Br	1.142430	0.293688	0.185353
Br150	Br	1.642430	0.793688	0.685353
Br151	Br	0.921940	0.185229	0.294228
Br152	Br	1.421940	0.685229	0.794228
H153	H	1.408691	0.583852	0.404543
H154	H	1.908691	1.083852	0.904543
H155	H	0.942833	0.412524	0.253854
H156	H	1.442833	0.912524	0.753854
Br157	Br	1.142617	0.464490	0.367788
Br158	Br	1.642617	0.964490	0.867788
Br159	Br	0.922006	0.464667	0.366651
Br160	Br	1.422006	0.964667	0.866651
H161	H	1.124732	0.413076	0.254771
H162	H	1.624732	0.913076	0.754771
H163	H	0.940526	0.257007	0.415502
H164	H	1.440526	0.757007	0.915502
Br165	Br	1.142561	0.219055	0.421888
Br166	Br	1.642561	0.719055	0.921888
H167	H	1.124657	0.341995	0.438227
H168	H	1.624657	0.841995	0.938227
Br169	Br	1.372046	0.920443	0.428086
Br170	Br	1.872046	1.420443	0.928086
Br171	Br	1.691769	0.224152	0.565297
Br172	Br	2.191769	0.724152	1.065297
Br173	Br	0.923079	0.371910	0.462405
Br174	Br	1.423079	0.871910	0.962405
