data_functionalizedCrystal
_audit_creation_method	'MofGen! by Chris Wilmer'
_symmetry_space_group_name_H-M	'P1'
_symmetry_Int_Tables_number	1
_symmetry_cell_setting	triclinic
loop_
_symmetry_equiv_pos_as_xyz
  x,y,z
_cell_length_a	10.489711
_cell_length_b	10.489741
_cell_length_c	8.965430
_cell_angle_alpha	89.999293
_cell_angle_beta	89.994616
_cell_angle_gamma	95.466909
loop_
_atom_site_label
_atom_site_type_symbol
_atom_site_fract_x
_atom_site_fract_y
_atom_site_fract_z
O1	O	1.694075	-0.179778	-0.124092
O2	O	1.322875	-0.196710	-0.124084
O3	O	1.516922	-0.002645	-0.124079
O4	O	1.500029	-0.373843	-0.124097
O5	O	1.516905	-0.002658	0.124000
O6	O	1.322859	-0.196723	0.123995
O7	O	1.694059	-0.179791	0.123986
Cu8	Cu	1.508457	-0.188258	0.146642
Cu9	Cu	1.508477	-0.188243	-0.146740
O10	O	1.500012	-0.373856	0.123982
C11	C	1.275334	-0.195446	-0.000043
C12	C	1.133703	-0.191644	-0.000039
C13	C	0.951317	-0.308348	-0.000062
C14	C	1.043470	-0.250046	-0.122373
C15	C	1.043427	-0.250028	0.122214
C16	C	0.973519	-0.126504	-0.122483
C17	C	0.973466	-0.126502	0.122213
C18	C	1.065593	-0.068111	-0.000127
C19	C	1.515638	0.044880	-0.000041
C20	C	1.511820	0.186509	-0.000043
C21	C	1.741600	-0.181055	-0.000058
C22	C	1.883231	-0.184857	-0.000071
C23	C	1.501296	-0.421381	-0.000060
C24	C	1.505114	-0.563010	-0.000067
N25	N	1.508453	-0.188268	0.352992
C26	C	1.388354	0.254636	-0.000051
C27	C	1.446670	0.346758	0.122263
C28	C	1.446716	0.346746	-0.122323
C29	C	1.570187	0.276766	0.122372
C30	C	1.570216	0.276744	-0.122324
C31	C	1.628622	0.368839	0.000020
N32	N	1.508491	-0.188223	-0.353089
C33	C	1.418685	-0.277987	0.450295
C34	C	1.534183	-0.303785	0.549705
C35	C	1.393004	-0.162481	0.549709
C36	C	1.624010	-0.214124	0.450212
C37	C	1.482754	-0.072769	0.450208
C38	C	1.598335	-0.098519	0.549573
H39	H	0.942717	-0.074295	-0.226008
H40	H	1.074376	-0.302307	0.225619
H41	H	1.074472	-0.302297	-0.225778
H42	H	1.115050	0.033484	-0.000184
H43	H	0.901626	-0.409850	-0.000188
N44	N	1.263655	-0.133612	0.607591
H45	H	1.243529	-0.047051	0.569843
H46	H	1.264951	-0.133056	0.720230
H47	H	1.460956	0.024855	0.406470
H48	H	1.286841	0.204974	0.000074
H49	H	0.942437	-0.074299	0.225629
H50	H	1.622376	0.245934	0.225895
H51	H	1.555946	-0.401440	0.593408
H52	H	1.394422	0.377759	0.225673
N53	N	1.763203	0.434328	0.000091
H54	H	1.809650	0.408890	0.092519
H55	H	1.759789	0.530221	-0.000844
H56	H	1.622420	0.245710	-0.225740
N57	N	1.318221	-0.378562	0.392524
H58	H	1.231173	-0.359992	0.430274
H59	H	1.337928	-0.465722	0.428726
H60	H	1.721681	-0.236033	0.406691
H61	H	1.674349	-0.022624	0.592889
N62	N	1.377506	0.387795	-0.259292
H63	H	1.286752	0.345845	-0.259172
H64	H	1.423329	0.361097	-0.351605
