data_functionalizedCrystal
_audit_creation_method	'MofGen! by Chris Wilmer'
_symmetry_space_group_name_H-M	'P1'
_symmetry_Int_Tables_number	1
_symmetry_cell_setting	triclinic
loop_
_symmetry_equiv_pos_as_xyz
  x,y,z
_cell_length_a	12.645330
_cell_length_b	18.215407
_cell_length_c	18.215399
_cell_angle_alpha	90.017777
_cell_angle_beta	89.976970
_cell_angle_gamma	89.986688
loop_
_atom_site_label
_atom_site_type_symbol
_atom_site_fract_x
_atom_site_fract_y
_atom_site_fract_z
Zn1	Zn	-0.422174	-1.125109	-0.416101
Zn2	Zn	0.077826	-0.625109	0.083899
Zn3	Zn	-0.599456	-1.125033	-0.293045
Zn4	Zn	-0.099456	-0.625033	0.206955
Zn5	Zn	-0.422194	-1.002041	-0.293052
Zn6	Zn	0.077806	-0.502041	0.206948
Zn7	Zn	-0.599382	-1.002023	-0.416074
Zn8	Zn	-0.099382	-0.502023	0.083926
O9	O	-0.510802	-1.063551	-0.354568
O10	O	-0.010802	-0.563551	0.145432
O11	O	-0.445714	-1.228083	-0.399785
O12	O	0.054286	-0.728083	0.100215
O13	O	-0.575981	-1.108693	-0.190062
O14	O	-0.075981	-0.608693	0.309938
O15	O	-0.273844	-1.018406	-0.309389
O16	O	0.226156	-0.518406	0.190611
O17	O	-0.575962	-1.228027	-0.309376
O18	O	-0.075962	-0.728027	0.190624
O19	O	-0.273829	-1.108823	-0.399792
O20	O	0.226171	-0.608823	0.100208
O21	O	-0.445747	-1.018332	-0.190067
O22	O	0.054253	-0.518332	0.309933
O23	O	-0.445676	-0.899055	-0.309364
O24	O	0.054324	-0.399055	0.190636
O25	O	-0.575836	-1.018374	-0.519062
O26	O	-0.075836	-0.518374	-0.019062
O27	O	-0.575855	-0.899041	-0.399747
O28	O	-0.075855	-0.399041	0.100253
O29	O	-0.445642	-1.108805	-0.519081
O30	O	0.054358	-0.608805	-0.019081
O31	O	-0.747794	-1.108675	-0.309351
O32	O	-0.247794	-0.608675	0.190649
O33	O	-0.747740	-1.018300	-0.399740
O34	O	-0.247740	-0.518300	0.100260
C35	C	-0.510760	-0.872345	-0.354554
C36	C	-0.010760	-0.372345	0.145446
C37	C	-0.510768	-0.790546	-0.354565
C38	C	-0.010768	-0.290546	0.145435
C39	C	-0.443079	-0.602380	-0.401714
C40	C	0.056921	-0.102380	0.098286
C41	C	-0.443084	-0.525522	-0.401716
C42	C	0.056916	-0.025522	0.098284
C43	C	-0.578509	-0.525474	-0.307428
C44	C	-0.078509	-0.025474	0.192572
C45	C	-0.578497	-0.602332	-0.307423
C46	C	-0.078497	-0.102332	0.192577
C47	C	-0.510784	-0.640783	-0.354570
C48	C	-0.010784	-0.140783	0.145430
C49	C	-0.510801	-0.487067	-0.354577
C50	C	-0.010801	0.012933	0.145423
C51	C	-0.510807	-0.403733	-0.354579
C52	C	-0.010807	0.096267	0.145421
C53	C	-0.510775	-0.724122	-0.354568
C54	C	-0.010775	-0.224122	0.145432
C55	C	-0.786231	-1.063498	-0.354558
C56	C	-0.286231	-0.563498	0.145442
C57	C	-0.904061	-1.063542	-0.354578
C58	C	-0.404061	-0.563542	0.145422
C59	C	-1.071635	-1.006922	-0.411617
C60	C	-0.571635	-0.506922	0.088383
C61	C	-0.949076	-1.006632	-0.411434
C62	C	-0.449076	-0.506632	0.088566
C63	C	-0.948650	-1.042549	-0.277020
C64	C	-0.448650	-0.542549	0.222980
C65	C	-1.071248	-1.042203	-0.277366
C66	C	-0.571248	-0.542203	0.222634
C67	C	-1.071160	-1.141502	-0.374468
C68	C	-0.571160	-0.641502	0.125532
C69	C	-0.948553	-1.141024	-0.376164
C70	C	-0.448553	-0.641024	0.123836
C71	C	-0.234296	-1.063625	-0.354594
C72	C	0.265704	-0.563625	0.145406
C73	C	-0.116466	-1.063657	-0.354606
C74	C	0.383534	-0.563657	0.145394
C75	C	-0.510729	-1.063596	-0.546521
C76	C	-0.010729	-0.563596	-0.046521
C77	C	-0.510697	-1.063615	-0.628320
C78	C	-0.010697	-0.563615	-0.128320
C79	C	-0.510832	-0.255504	-0.354581
C80	C	-0.010832	0.244496	0.145419
C81	C	-0.510816	-0.337303	-0.354582
C82	C	-0.010816	0.162697	0.145418
C83	C	-0.442842	-1.110719	-0.816525
C84	C	0.057158	-0.610719	-0.316525
C85	C	-0.442811	-1.110728	-0.893384
C86	C	0.057189	-0.610728	-0.393384
C87	C	-0.578389	-1.016563	-0.893353
C88	C	-0.078389	-0.516563	-0.393353
C89	C	-0.578414	-1.016551	-0.816495
C90	C	-0.078414	-0.516551	-0.316495
C91	C	-0.510642	-1.063633	-0.778084
C92	C	-0.010642	-0.563633	-0.278084
C93	C	-0.510586	-1.063654	-0.931800
C94	C	-0.010586	-0.563654	-0.431800
C95	C	-0.510553	-1.063663	-1.015133
C96	C	-0.010553	-0.563663	-0.515133
C97	C	-0.510673	-1.063624	-0.694745
C98	C	-0.010673	-0.563624	-0.194745
C99	C	-0.510798	-1.063549	-0.163362
C100	C	-0.010798	-0.563549	0.336638
C101	C	-0.510531	-1.063672	-0.081563
C102	C	-0.010531	-0.563672	0.418437
H103	H	-0.918926	-1.019766	-0.468942
H104	H	-0.418926	-0.519766	0.031058
H105	H	-0.633569	-0.978232	-0.924637
H106	H	-0.133569	-0.478232	-0.424637
H107	H	-1.100151	-1.183771	-0.332944
H108	H	-0.600151	-0.683771	0.167056
Cl109	Cl	-0.901387	-0.955606	-0.250571
Cl110	Cl	-0.401387	-0.455606	0.249429
Cl111	Cl	-0.357964	-0.477248	-0.460984
Cl112	Cl	0.142036	0.022752	0.039016
Cl113	Cl	-0.663649	-0.957348	-0.768165
Cl114	Cl	-0.163649	-0.457348	-0.268165
Cl115	Cl	-1.117045	-1.103226	-0.209542
Cl116	Cl	-0.617045	-0.603226	0.290458
H117	H	-0.387655	-1.149055	-0.785253
H118	H	0.112345	-0.649055	-0.285253
Cl119	Cl	-1.119355	-0.918379	-0.391577
Cl120	Cl	-0.619355	-0.418379	0.108423
Cl121	Cl	-0.357582	-1.169931	-0.941708
Cl122	Cl	0.142418	-0.669931	-0.441708
Cl123	Cl	-0.663633	-0.477131	-0.248163
Cl124	Cl	-0.163633	0.022869	0.251837
Cl125	Cl	-0.663608	-0.650613	-0.248144
Cl126	Cl	-0.163608	-0.150613	0.251856
H127	H	-0.387939	-0.633685	-0.440102
H128	H	0.112061	-0.133685	0.059898
H129	H	-1.101051	-1.019935	-0.469314
H130	H	-0.601051	-0.519935	0.030686
Cl131	Cl	-1.115539	-0.954347	-0.251390
Cl132	Cl	-0.615539	-0.454347	0.248610
Cl133	Cl	-0.903921	-0.917530	-0.391121
Cl134	Cl	-0.403921	-0.417530	0.108879
H135	H	-0.919494	-1.082562	-0.233382
H136	H	-0.419494	-0.582562	0.266618
H137	H	-1.102009	-1.160652	-0.430061
H138	H	-0.602009	-0.660652	0.069939
Cl139	Cl	-0.903555	-1.165470	-0.464289
Cl140	Cl	-0.403555	-0.665470	0.035711
H141	H	-0.917906	-1.185520	-0.337663
H142	H	-0.417906	-0.685520	0.162337
