data_functionalizedCrystal
_audit_creation_method	'MofGen! by Chris Wilmer'
_symmetry_space_group_name_H-M	'P1'
_symmetry_Int_Tables_number	1
_symmetry_cell_setting	triclinic
loop_
_symmetry_equiv_pos_as_xyz
  x,y,z
_cell_length_a	15.300062
_cell_length_b	12.759395
_cell_length_c	12.759387
_cell_angle_alpha	90.017394
_cell_angle_beta	99.650674
_cell_angle_gamma	99.649627
loop_
_atom_site_label
_atom_site_type_symbol
_atom_site_fract_x
_atom_site_fract_y
_atom_site_fract_z
Zn1	Zn	-0.359065	-1.678518	-0.666434
Zn2	Zn	0.140935	-1.178518	-0.166434
Zn3	Zn	-0.509903	-1.708783	-0.521180
Zn4	Zn	-0.009903	-1.208783	-0.021180
Zn5	Zn	-0.359102	-1.502833	-0.490778
Zn6	Zn	0.140898	-1.002833	0.009222
Zn7	Zn	-0.509829	-1.533158	-0.696803
Zn8	Zn	-0.009829	-1.033158	-0.196803
O9	O	-0.434475	-1.605823	-0.593799
O10	O	0.065525	-1.105823	-0.093799
O11	O	-0.379089	-1.829556	-0.647180
O12	O	0.120911	-1.329556	-0.147180
O13	O	-0.489946	-1.681439	-0.370135
O14	O	0.010054	-1.181439	0.129865
O15	O	-0.232891	-1.500781	-0.488647
O16	O	0.267109	-1.000781	0.011353
O17	O	-0.489909	-1.851793	-0.540461
O18	O	0.010091	-1.351793	-0.040461
O19	O	-0.232863	-1.629855	-0.617701
O20	O	0.267137	-1.129855	-0.117701
O21	O	-0.379153	-1.530128	-0.347799
O22	O	0.120847	-1.030128	0.152201
O23	O	-0.379081	-1.359832	-0.518094
O24	O	0.120919	-0.859832	-0.018094
O25	O	-0.489783	-1.552465	-0.839786
O26	O	0.010217	-1.052465	-0.339786
O27	O	-0.489820	-1.382111	-0.669460
O28	O	0.010180	-0.882111	-0.169460
O29	O	-0.379017	-1.659260	-0.817475
O30	O	0.120983	-1.159260	-0.317475
O31	O	-0.636100	-1.710844	-0.569909
O32	O	-0.136100	-1.210844	-0.069909
O33	O	-0.636045	-1.581813	-0.698939
O34	O	-0.136045	-1.081813	-0.198939
C35	C	-0.434447	-1.332850	-0.593774
C36	C	0.065553	-0.832850	-0.093774
C37	C	-0.434457	-1.216075	-0.593793
C38	C	0.065543	-0.716075	-0.093793
C39	C	-0.319246	-1.192939	-0.705174
C40	C	0.180754	-0.692939	-0.205174
C41	C	-0.261650	-1.126512	-0.760873
C42	C	0.238350	-0.626512	-0.260873
C43	C	-0.261662	-1.016793	-0.760886
C44	C	0.238338	-0.516793	-0.260886
C45	C	-0.319275	-0.973499	-0.705191
C46	C	0.180725	-0.473499	-0.205191
C47	C	-0.376871	-1.039926	-0.649492
C48	C	0.123129	-0.539926	-0.149492
C49	C	-0.376855	-1.149647	-0.649488
C50	C	0.123145	-0.649647	-0.149488
C51	C	-0.492076	-1.063061	-0.538107
C52	C	0.007924	-0.563061	-0.038107
C53	C	-0.492070	-1.172782	-0.538099
C54	C	0.007930	-0.672782	-0.038099
C55	C	-0.549689	-1.019768	-0.482412
C56	C	-0.049689	-0.519768	0.017588
C57	C	-0.607292	-1.086196	-0.426718
C58	C	-0.107292	-0.586196	0.073282
C59	C	-0.607278	-1.195921	-0.426708
C60	C	-0.107278	-0.695921	0.073292
C61	C	-0.549667	-1.239209	-0.482399
C62	C	-0.049667	-0.739209	0.017601
C63	C	-0.668796	-1.652932	-0.641041
C64	C	-0.168796	-1.152932	-0.141041
C65	C	-0.769040	-1.673181	-0.661287
C66	C	-0.269040	-1.173181	-0.161287
C67	C	-0.816034	-1.749835	-0.738028
C68	C	-0.316034	-1.249835	-0.238028
C69	C	-0.910218	-1.768870	-0.757059
C70	C	-0.410218	-1.268870	-0.257059
C71	C	-0.957417	-1.711259	-0.699344
C72	C	-0.457417	-1.211259	-0.199344
C73	C	-0.910423	-1.634609	-0.622596
C74	C	-0.410423	-1.134609	-0.122596
C75	C	-0.816229	-1.615566	-0.603569
C76	C	-0.316229	-1.115566	-0.103569
C77	C	-0.957612	-1.576990	-0.564885
C78	C	-0.457612	-1.076990	-0.064885
C79	C	-0.910618	-1.500340	-0.488137
C80	C	-0.410618	-1.000340	0.011863
C81	C	-0.816434	-1.481301	-0.469113
C82	C	-0.316434	-0.981301	0.030887
C83	C	-0.769235	-1.538912	-0.526828
C84	C	-0.269235	-1.038912	-0.026828
C85	C	-1.051805	-1.596033	-0.583912
C86	C	-0.551805	-1.096033	-0.083912
C87	C	-1.052001	-1.461764	-0.449453
C88	C	-0.552001	-0.961764	0.050547
C89	C	-0.957817	-1.442729	-0.430423
C90	C	-0.457817	-0.942729	0.069577
C91	C	-0.199239	-1.558559	-0.546395
C92	C	0.300761	-1.058559	-0.046395
C93	C	-0.098995	-1.538418	-0.526195
C94	C	0.401005	-1.038418	-0.026195
C95	C	-0.434388	-1.605869	-0.867815
C96	C	0.065612	-1.105869	-0.367815
C97	C	-0.434350	-1.605889	-0.984584
C98	C	0.065650	-1.105889	-0.484584
C99	C	-0.434494	-0.879860	-0.593817
C100	C	0.065506	-0.379860	-0.093817
C101	C	-0.434480	-0.996634	-0.593806
C102	C	0.065520	-0.496634	-0.093806
C103	C	-0.549656	-1.763510	-1.227255
C104	C	-0.049656	-1.263510	-0.727255
C105	C	-0.607359	-1.842273	-1.184016
C106	C	-0.107359	-1.342273	-0.684016
C107	C	-0.607393	-1.842245	-1.074302
C108	C	-0.107393	-1.342245	-0.574302
C109	C	-0.549721	-1.763444	-1.007822
C110	C	-0.049721	-1.263444	-0.507822
C111	C	-0.492018	-1.684680	-1.051060
C112	C	0.007982	-1.184680	-0.551060
C113	C	-0.491988	-1.684718	-1.160779
C114	C	0.008012	-1.184718	-0.660779
C115	C	-0.376648	-1.527125	-1.027823
C116	C	0.123352	-1.027125	-0.527823
C117	C	-0.376608	-1.527156	-1.137536
C118	C	0.123392	-1.027156	-0.637536
C119	C	-0.318976	-1.448324	-0.961343
C120	C	0.181024	-0.948324	-0.461343
C121	C	-0.261267	-1.369563	-1.004580
C122	C	0.238733	-0.869563	-0.504580
C123	C	-0.261234	-1.369594	-1.114302
C124	C	0.238766	-0.869594	-0.614302
C125	C	-0.318905	-1.448392	-1.180775
C126	C	0.181095	-0.948392	-0.680775
C127	C	-0.434497	-1.605825	-0.320836
C128	C	0.065503	-1.105825	0.179164
C129	C	-0.434280	-1.605957	-0.204016
C130	C	0.065720	-1.105957	0.295984
H131	H	-0.214757	-0.962706	-0.806234
H132	H	0.285243	-0.462706	-0.306234
H133	H	-0.654177	-1.250001	-0.381347
H134	H	-0.154177	-0.750001	0.118653
H135	H	-0.319272	-0.884157	-0.705197
H136	H	0.180728	-0.384157	-0.205197
H137	H	-0.319011	-1.448303	-0.872009
H138	H	0.180989	-0.948303	-0.372009
Br139	Br	-0.973990	-1.872875	-0.861227
Br140	Br	-0.473990	-1.372875	-0.361227
Br141	Br	-0.549701	-0.870861	-0.482421
Br142	Br	-0.049701	-0.370861	0.017579
H143	H	-1.090059	-1.658438	-0.646406
H144	H	-0.590059	-1.158438	-0.146406
Br145	Br	-0.751976	-1.827991	-0.816366
Br146	Br	-0.251976	-1.327991	-0.316366
Br147	Br	-1.085240	-1.737257	-0.725009
Br148	Br	-0.585240	-1.237257	-0.225009
H149	H	-0.692543	-1.523420	-0.511335
H150	H	-0.192543	-1.023420	-0.011335
H151	H	-0.549626	-1.763548	-1.316590
H152	H	-0.049626	-1.263548	-0.816590
Br153	Br	-0.183462	-1.185271	-0.836451
Br154	Br	0.316538	-0.685271	-0.336451
H155	H	-0.778171	-1.418880	-0.406629
H156	H	-0.278171	-0.918880	0.093371
H157	H	-0.919542	-1.380319	-0.367933
H158	H	-0.419542	-0.880319	0.132067
Br159	Br	-0.183003	-1.262632	-0.914356
Br160	Br	0.316997	-0.762632	-0.414356
H161	H	-1.090430	-1.414849	-0.402461
H162	H	-0.590430	-0.914849	0.097539
Br163	Br	-0.182923	-1.262691	-1.172974
Br164	Br	0.317077	-0.762691	-0.672974
Br165	Br	-0.318859	-1.448447	-1.329675
Br166	Br	0.181141	-0.948447	-0.829675
H167	H	-0.654375	-1.906386	-1.039097
H168	H	-0.154375	-1.406386	-0.539097
H169	H	-0.654317	-1.906429	-1.238156
H170	H	-0.154317	-1.406429	-0.738156
H171	H	-0.549762	-1.763421	-0.918489
H172	H	-0.049762	-1.263421	-0.418489
H173	H	-0.319227	-1.282276	-0.705163
H174	H	0.180773	-0.782276	-0.205163
H175	H	-0.654191	-1.050936	-0.381371
H176	H	-0.154191	-0.550936	0.118629
H177	H	-0.549645	-1.328546	-0.482391
H178	H	-0.049645	-0.828546	0.017609
