data_functionalizedCrystal
_audit_creation_method	'MofGen! by Chris Wilmer'
_symmetry_space_group_name_H-M	'P1'
_symmetry_Int_Tables_number	1
_symmetry_cell_setting	triclinic
loop_
_symmetry_equiv_pos_as_xyz
  x,y,z
_cell_length_a	14.853567
_cell_length_b	8.559649
_cell_length_c	7.088929
_cell_angle_alpha	95.344185
_cell_angle_beta	96.214820
_cell_angle_gamma	103.293203
loop_
_atom_site_label
_atom_site_type_symbol
_atom_site_fract_x
_atom_site_fract_y
_atom_site_fract_z
O1	O	1.171393	-0.224973	-0.158876
O2	O	0.907194	-0.249822	-0.158902
O3	O	1.062570	-0.004847	-0.158884
O4	O	1.016017	-0.469948	-0.158893
O5	O	1.083339	0.027966	0.159093
O6	O	0.927963	-0.217010	0.159076
O7	O	1.192162	-0.192160	0.159102
Cu8	Cu	1.061959	-0.201589	0.188123
Cu9	Cu	1.037397	-0.240394	-0.187923
O10	O	1.036787	-0.437136	0.159085
C11	C	0.884068	-0.232291	0.000084
C12	C	0.784220	-0.228918	0.000074
C13	C	1.215287	-0.209692	0.000112
C14	C	1.315135	-0.213066	0.000110
N15	N	1.079242	-0.174295	0.452613
C16	C	1.716491	-0.372851	0.000073
C17	C	1.758128	-0.081816	0.000079
C18	C	1.664317	-0.078643	0.000090
C19	C	1.596588	-0.222576	0.000089
C20	C	1.622670	-0.369683	0.000078
C21	C	1.638226	0.068459	0.000082
C22	C	1.544410	0.071638	0.000090
C23	C	1.476680	-0.072295	0.000103
C24	C	1.502767	-0.219408	0.000094
C25	C	1.435038	-0.363341	0.000093
C26	C	1.461124	-0.510454	0.000098
C27	C	1.554940	-0.513617	0.000091
C28	C	1.382864	-0.069133	0.000110
C29	C	1.341217	-0.360173	0.000098
C30	C	1.076482	0.071081	0.000101
C31	C	1.086982	0.248437	0.000091
C32	C	1.022874	-0.513064	0.000095
C33	C	1.012373	-0.690421	0.000092
N34	N	1.020122	-0.267675	-0.452412
H35	H	1.286077	-0.477382	0.000110
H36	H	1.140521	-0.077531	0.534275
F37	F	0.940037	-0.394162	0.440863
H38	H	1.158899	0.331786	0.000114
H39	H	1.405966	-0.627645	0.000086
H40	H	0.940462	0.226241	0.000091
H41	H	1.523180	0.191426	0.000089
F42	F	1.582709	-0.670172	0.000079
H43	H	1.813277	0.035366	0.000067
F44	F	1.744254	-0.529411	0.000082
H45	H	1.693376	0.185641	0.000072
H46	H	1.361628	0.050643	0.000094
