data_functionalizedCrystal
_audit_creation_method	'MofGen! by Chris Wilmer'
_symmetry_space_group_name_H-M	'P1'
_symmetry_Int_Tables_number	1
_symmetry_cell_setting	triclinic
loop_
_symmetry_equiv_pos_as_xyz
  x,y,z
_cell_length_a	15.995292
_cell_length_b	15.944551
_cell_length_c	15.072220
_cell_angle_alpha	89.997918
_cell_angle_beta	89.986330
_cell_angle_gamma	83.483677
loop_
_atom_site_label
_atom_site_type_symbol
_atom_site_fract_x
_atom_site_fract_y
_atom_site_fract_z
O1	O	1.111032	0.108032	-0.073808
O2	O	0.867251	0.121453	-0.073805
O3	O	0.995799	-0.007535	-0.073799
O4	O	0.982485	0.237019	-0.073815
O5	O	0.995767	-0.007527	0.073766
O6	O	0.867219	0.121460	0.073760
O7	O	1.111000	0.108039	0.073757
Zn8	Zn	0.989105	0.114750	0.097187
Zn9	Zn	0.989147	0.114741	-0.097236
O10	O	0.982453	0.237026	0.073750
C11	C	0.836040	0.120910	-0.000022
C12	C	0.743087	0.119272	-0.000021
C13	C	0.405348	0.113252	-0.000030
C14	C	0.428665	0.206351	-0.000366
C15	C	0.525341	0.208121	-0.000029
C16	C	0.572904	0.116239	-0.000026
C17	C	0.543781	0.069698	0.084241
C18	C	0.446991	0.068577	0.084308
C19	C	0.447171	0.066668	-0.083501
C20	C	0.543664	0.070118	-0.084611
C21	C	0.667600	0.117923	-0.000021
C22	C	0.310652	0.111566	-0.000030
C23	C	0.995230	-0.038825	-0.000016
C24	C	0.993573	-0.132070	-0.000016
C25	C	0.909932	-0.346905	-0.000027
C26	C	0.948757	-0.407929	0.072731
C27	C	0.990575	-0.302795	-0.000022
C28	C	0.948807	-0.407919	-0.072756
C29	C	0.987674	-0.467707	-0.000033
C30	C	1.029422	-0.362591	0.072796
C31	C	1.029461	-0.362575	-0.072757
C32	C	1.068344	-0.423582	0.000018
C33	C	0.992245	-0.207794	-0.000016
C34	C	0.986011	-0.562708	-0.000033
C35	C	1.142212	0.108581	-0.000028
C36	C	1.235165	0.110219	-0.000036
C37	C	0.983021	0.268316	-0.000034
C38	C	0.984678	0.361562	-0.000041
N39	N	0.989082	0.114756	0.229876
N40	N	0.989176	0.114728	-0.229925
C41	C	0.989145	0.114738	0.589078
C42	C	0.920131	0.183525	0.551467
C43	C	0.920289	0.183776	0.448642
C44	C	0.989113	0.114747	0.410874
C45	C	1.076482	0.133871	0.448162
C46	C	1.076095	0.134360	0.551020
C47	C	0.971570	0.026623	0.551184
C48	C	0.969565	0.027211	0.448321
C49	C	0.989101	0.114750	0.310160
C50	C	0.989163	0.114736	0.689791
H51	H	0.543733	0.244796	0.060475
H52	H	0.931512	0.249165	0.424023
N53	N	0.825959	-0.305106	0.000067
N54	N	0.777140	-0.316947	0.062446
H55	H	0.717834	-0.287426	0.062516
H56	H	1.135340	-0.456758	0.000059
N57	N	0.413328	0.109048	0.163309
N58	N	0.360778	0.173149	0.158064
H59	H	0.337008	0.201739	0.213858
H60	H	0.914635	-0.428025	0.134243
N61	N	1.072160	-0.337515	0.150040
N62	N	1.080301	-0.261367	0.162526
H63	H	1.110482	-0.243654	0.217080
H64	H	1.063553	-0.342457	-0.134273
N65	N	1.142463	0.073932	0.582272
N66	N	1.125897	0.013817	0.629930
H67	H	1.172778	-0.028845	0.652007
N68	N	0.906008	-0.433112	-0.149911
N69	N	0.830752	-0.405320	-0.162852
H70	H	0.800519	-0.423110	-0.217338
N71	N	0.838703	0.169895	0.417026
N72	N	0.781250	0.159943	0.470927
H73	H	0.723581	0.150297	0.448604
N74	N	0.428738	-0.017056	0.089116
N75	N	0.487462	-0.075801	0.092417
H76	H	0.474576	-0.136279	0.095819
N77	N	0.838400	0.169463	0.582535
N78	N	0.830058	0.108584	0.632763
H79	H	0.772333	0.098650	0.654709
H80	H	0.931199	0.248546	0.577301
H81	H	0.563829	0.102024	0.146950
N82	N	0.893371	0.003549	0.583756
N83	N	0.891953	-0.062585	0.627996
H84	H	0.836721	-0.078872	0.651001
N85	N	1.096384	0.213572	0.415857
N86	N	1.163791	0.240377	0.438113
H87	H	1.177844	0.296669	0.415302
N88	N	1.095526	0.214975	0.581092
N89	N	1.109276	0.270486	0.526114
H90	H	1.123000	0.327424	0.547347
H91	H	0.562249	0.104005	-0.146951
N92	N	1.142441	0.072686	0.417469
N93	N	1.125753	0.014164	0.367650
H94	H	1.172335	-0.029050	0.345971
N95	N	0.888938	0.009012	0.417749
N96	N	0.845988	0.060276	0.368562
H97	H	0.789044	0.047426	0.346965
H98	H	1.016566	-0.026374	0.422615
H99	H	0.576632	0.003054	-0.089698
N100	N	0.549221	0.253844	-0.075811
N101	N	0.494435	0.284670	-0.129318
H102	H	0.511295	0.316967	-0.182841
N103	N	0.393559	0.251360	-0.076179
N104	N	0.350940	0.215352	-0.130849
H105	H	0.326141	0.247139	-0.184395
H106	H	1.021899	-0.024566	0.575505
H107	H	0.575645	0.002086	0.087377
N108	N	0.392256	0.251140	0.075006
N109	N	0.341360	0.315846	0.064335
H110	H	0.315644	0.347477	0.117568
N111	N	0.411761	0.103259	-0.163630
N112	N	0.457764	0.134457	-0.218773
H113	H	0.432755	0.160307	-0.275361
N114	N	0.429633	-0.019304	-0.084188
N115	N	0.386533	-0.046249	-0.023536
H116	H	0.374149	-0.106967	-0.024009
