data_functionalizedCrystal
_audit_creation_method	'MofGen! by Chris Wilmer'
_symmetry_space_group_name_H-M	'P1'
_symmetry_Int_Tables_number	1
_symmetry_cell_setting	triclinic
loop_
_symmetry_equiv_pos_as_xyz
  x,y,z
_cell_length_a	13.635800
_cell_length_b	10.943632
_cell_length_c	10.865278
_cell_angle_alpha	92.205314
_cell_angle_beta	72.411461
_cell_angle_gamma	71.161120
loop_
_atom_site_label
_atom_site_type_symbol
_atom_site_fract_x
_atom_site_fract_y
_atom_site_fract_z
V1	V	2.050341	-0.178554	-0.402516
O2	O	2.029336	0.008659	-0.394885
O3	O	2.039367	-0.354117	-0.399732
O4	O	2.036091	-0.175773	-0.578080
O5	O	2.032634	-0.170921	-0.215302
V6	V	2.289151	-0.156165	-0.380127
O7	O	2.187442	-0.227665	-0.451627
O8	O	2.377148	-0.107054	-0.331016
O9	O	2.188522	0.019399	-0.382911
O10	O	2.368855	-0.343377	-0.387757
O11	O	2.365556	-0.163798	-0.567340
O12	O	2.191797	-0.158946	-0.204562
V13	V	2.550341	-0.178554	-0.402516
O14	O	2.529336	0.008659	-0.394885
O15	O	2.539367	-0.354117	-0.399732
O16	O	2.536091	-0.175773	-0.578080
O17	O	2.532634	-0.170921	-0.215302
V18	V	2.789151	-0.156165	-0.380127
O19	O	2.687442	-0.227665	-0.451627
O20	O	2.877148	-0.107054	-0.331016
O21	O	2.688522	0.019399	-0.382911
O22	O	2.868855	-0.343377	-0.387757
O23	O	2.865556	-0.163798	-0.567340
O24	O	2.691797	-0.158946	-0.204562
C25	C	1.964763	-0.396917	-0.393374
C26	C	1.996500	-0.540443	-0.392269
C27	C	1.919059	-0.617597	-0.384916
C28	C	1.960395	-0.690263	-0.280692
C29	C	2.011729	-0.723515	-0.494536
C30	C	2.037397	-0.611205	-0.287970
C31	C	2.088739	-0.644463	-0.501910
C32	C	2.130130	-0.717092	-0.397665
C33	C	1.960584	-0.169419	-0.620874
C34	C	1.989663	-0.168307	-0.764399
C35	C	2.094797	0.062192	-0.389265
C36	C	2.052679	0.205716	-0.390379
C37	C	2.098976	-0.165304	-0.161762
C38	C	2.059516	-0.166409	-0.018236
C39	C	2.464763	-0.396917	-0.393374
C40	C	2.496500	-0.540443	-0.392269
C41	C	2.102013	-0.160958	0.158496
C42	C	2.044933	-0.056728	0.085809
C43	C	2.117126	-0.270572	0.052554
C44	C	1.932033	-0.064003	0.164819
C45	C	2.004268	-0.277943	0.131557
C46	C	1.947104	-0.173692	0.058908
C47	C	2.460584	-0.169419	-0.620874
C48	C	2.489663	-0.168307	-0.764399
C49	C	2.594797	0.062192	-0.389265
C50	C	2.552679	0.205716	-0.390379
C51	C	2.598976	-0.165304	-0.161762
C52	C	2.559516	-0.166409	-0.018236
C53	C	2.419059	-0.617597	-0.384916
C54	C	2.460395	-0.690263	-0.280692
C55	C	2.511729	-0.723515	-0.494536
C56	C	2.537397	-0.611205	-0.287970
C57	C	2.588739	-0.644463	-0.501910
C58	C	2.630130	-0.717092	-0.397665
C59	C	2.410658	-0.160912	-0.841547
C60	C	2.503387	-0.270545	-0.947516
C61	C	2.448760	-0.056705	-0.914167
C62	C	2.582032	-0.278043	-0.868492
C63	C	2.527365	-0.064106	-0.835119
C64	C	2.620163	-0.173771	-0.941059
H65	H	1.829504	-0.574114	-0.379403
F66	F	2.159179	-0.617261	-0.624177
H67	H	2.001163	-0.772419	-0.581805
F68	F	2.659179	-0.617261	-0.624177
H69	H	2.493556	-0.357820	-0.996450
F70	F	2.655322	-0.400446	-0.841623
F71	F	2.736310	-0.180906	-0.997583
F72	F	1.889910	-0.717483	-0.158460
F73	F	2.497924	-0.787421	-0.608615
H74	H	2.167053	-0.155452	0.202018
F75	F	2.302006	-0.560758	-0.377714
H76	H	2.537155	0.023172	-0.786151
H77	H	2.321857	-0.155623	-0.798100
H78	H	2.062500	0.036809	0.065049
F79	F	2.051136	-0.547485	-0.173736
F80	F	2.247152	-0.773593	-0.404666
F81	F	1.829313	0.050218	0.228510
H82	H	1.881880	-0.179039	0.015646
H83	H	1.986730	-0.371483	0.152344
H84	H	2.392703	0.036816	-0.934945
H85	H	2.195768	-0.357852	0.003683
F86	F	2.747152	-0.773593	-0.404666
H87	H	2.547922	-0.562453	-0.200585
F88	F	2.389910	-0.717483	-0.158460
