data_functionalizedCrystal
_audit_creation_method	'MofGen! by Chris Wilmer'
_symmetry_space_group_name_H-M	'P1'
_symmetry_Int_Tables_number	1
_symmetry_cell_setting	triclinic
loop_
_symmetry_equiv_pos_as_xyz
  x,y,z
_cell_length_a	19.121321
_cell_length_b	19.121063
_cell_length_c	12.827885
_cell_angle_alpha	92.403967
_cell_angle_beta	92.419751
_cell_angle_gamma	89.929715
loop_
_atom_site_label
_atom_site_type_symbol
_atom_site_fract_x
_atom_site_fract_y
_atom_site_fract_z
Zn1	Zn	1.059822	-0.324723	-0.544132
Zn2	Zn	1.054724	-0.441973	-0.377134
Zn3	Zn	0.942585	-0.319764	-0.376532
Zn4	Zn	0.937552	-0.436929	-0.558952
O5	O	0.998671	-0.380847	-0.464188
O6	O	1.157247	-0.344463	-0.516029
O7	O	1.039822	-0.425796	-0.230822
O8	O	0.962376	-0.222318	-0.392310
O9	O	1.153502	-0.430605	-0.393337
O10	O	1.048510	-0.225962	-0.515445
O11	O	0.957433	-0.336010	-0.230380
O12	O	0.843816	-0.331120	-0.406681
O13	O	0.953799	-0.422010	-0.703218
O14	O	0.840119	-0.417201	-0.540704
O15	O	1.043630	-0.339572	-0.692330
O16	O	1.034942	-0.539407	-0.407707
O17	O	0.948856	-0.535702	-0.541288
C18	C	0.816531	-0.373075	-0.475236
C19	C	0.738610	-0.369767	-0.479988
C20	C	0.298004	-0.348756	-0.510122
C21	C	0.371219	-0.351878	-0.505651
C22	C	0.405870	-0.398214	-0.439424
C23	C	0.367303	-0.441438	-0.377670
C24	C	0.294090	-0.438319	-0.382147
C25	C	0.626829	-0.409872	-0.422711
C26	C	0.700048	-0.412986	-0.418237
C27	C	0.703959	-0.323426	-0.546220
C28	C	0.630744	-0.320309	-0.550686
C29	C	0.592183	-0.363535	-0.488937
C30	C	0.480707	-0.401404	-0.434850
C31	C	0.517347	-0.360348	-0.493516
C32	C	0.990818	-0.562993	-0.476193
C33	C	0.987523	-0.640918	-0.481359
C34	C	1.030830	-0.679435	-0.414292
C35	C	1.027735	-0.752654	-0.419157
C36	C	0.981329	-0.787355	-0.491086
C37	C	0.938020	-0.748833	-0.558161
C38	C	0.941119	-0.675615	-0.553300
C39	C	0.969731	-1.008329	-0.509244
C40	C	0.966634	-1.081552	-0.514098
C41	C	1.056350	-1.085368	-0.375096
C42	C	1.059442	-1.012149	-0.370237
C43	C	1.016136	-0.973633	-0.437315
C44	C	0.978163	-0.862196	-0.496058
C45	C	1.019306	-0.898793	-0.432347
C46	C	1.181522	-0.388650	-0.453097
C47	C	1.259442	-0.391975	-0.448371
C48	C	0.998722	-0.380782	-0.736751
C49	C	0.998743	-0.380754	-0.852901
C50	C	1.006573	-0.197991	-0.452157
C51	C	1.009941	-0.120069	-0.447031
C52	C	1.043199	-0.339953	-0.899297
C53	C	1.043223	-0.339924	-1.019344
C54	C	0.998663	-0.380863	-0.192679
C55	C	0.998786	-0.380699	-0.076508
H56	H	0.395522	-0.479169	-0.323751
H57	H	1.057093	-0.870538	-0.373786
O58	O	0.483609	-0.315432	-0.557910
C59	C	0.439575	-0.353602	-0.630543
H60	H	0.426310	-0.406235	-0.597728
H61	H	0.467483	-0.362564	-0.706755
C62	C	0.387988	-0.247444	-0.691562
C63	C	0.371690	-0.312087	-0.651255
H64	H	0.346115	-0.221835	-0.704344
H65	H	0.417656	-0.221728	-0.642632
H66	H	0.411246	-0.254922	-0.755068
H67	H	0.348441	-0.304608	-0.587745
H68	H	0.342017	-0.337801	-0.700176
H69	H	0.402613	-0.316687	-0.555939
O70	O	1.088517	-0.298202	-0.840710
C71	C	1.076252	-0.227655	-0.863650
H72	H	1.020427	-0.221699	-0.896887
H73	H	1.114684	-0.210882	-0.923428
C74	C	1.154917	-0.188614	-0.722240
C75	C	1.086349	-0.181297	-0.763053
H76	H	1.161148	-0.160016	-0.660189
H77	H	1.163182	-0.236142	-0.706786
H78	H	1.186936	-0.174637	-0.772064
H79	H	1.054332	-0.195282	-0.713235
H80	H	1.078078	-0.133769	-0.778497
O81	O	0.953281	-0.422342	-1.029022
C82	C	0.884060	-0.404041	-1.058826
H83	H	0.883734	-0.377050	-1.136415
H84	H	0.862030	-0.366975	-0.996472
C85	C	0.839045	-0.503728	-0.975506
C86	C	0.838644	-0.470583	-1.070806
H87	H	0.811029	-0.544773	-0.982892
H88	H	0.885681	-0.516057	-0.955423
H89	H	0.820688	-0.472833	-0.923554
H90	H	0.857009	-0.501475	-1.122753
H91	H	0.792010	-0.458261	-1.090899
H92	H	0.940377	-0.890458	-0.554621
O93	O	0.597195	-0.275280	-0.615111
C94	C	0.646932	-0.237788	-0.668636
H95	H	0.697883	-0.268729	-0.670890
H96	H	0.657003	-0.184845	-0.626510
C97	C	0.556251	-0.188553	-0.778193
C98	C	0.618829	-0.226558	-0.780970
H99	H	0.538915	-0.181623	-0.847485
H100	H	0.522742	-0.213809	-0.742130
H101	H	0.564652	-0.144438	-0.743083
H102	H	0.610425	-0.270675	-0.816067
H103	H	0.652336	-0.201309	-0.817042
O104	O	0.514292	-0.446376	-0.370371
C105	C	0.497045	-0.430193	-0.266332
H106	H	0.445049	-0.400977	-0.265701
H107	H	0.539795	-0.395874	-0.226336
C108	C	0.554559	-0.534222	-0.208343
C109	C	0.490693	-0.498344	-0.207567
H110	H	0.550643	-0.576260	-0.172091
H111	H	0.566180	-0.545124	-0.278435
H112	H	0.590177	-0.505616	-0.175014
H113	H	0.455078	-0.526947	-0.240907
H114	H	0.479065	-0.487449	-0.137479
H115	H	0.928853	-1.109804	-0.572689
H116	H	0.269797	-0.311020	-0.564045
H117	H	1.081286	-0.304995	-1.059264
H118	H	1.068616	-0.651186	-0.355716
O119	O	0.733598	-0.458068	-0.353887
C120	C	0.683865	-0.495543	-0.300330
H121	H	0.631585	-0.495782	-0.346474
H122	H	0.677159	-0.469481	-0.219802
C123	C	0.773431	-0.571067	-0.231596
C124	C	0.709221	-0.571365	-0.288276
H125	H	0.789073	-0.617837	-0.224156
H126	H	0.806938	-0.545818	-0.267675
H127	H	0.767835	-0.549345	-0.164496
H128	H	0.714821	-0.593079	-0.355379
H129	H	0.675716	-0.596620	-0.252208
O130	O	1.069828	-0.789961	-0.353897
C131	C	1.111460	-0.743633	-0.289382
H132	H	1.084953	-0.690245	-0.284010
H133	H	1.165023	-0.738047	-0.323959
C134	C	1.152946	-0.838266	-0.186056
C135	C	1.120387	-0.772694	-0.179451
H136	H	1.158456	-0.856192	-0.118247
H137	H	1.124901	-0.869478	-0.229523
H138	H	1.197578	-0.833602	-0.214874
H139	H	1.075752	-0.777360	-0.150646
H140	H	1.148425	-0.741483	-0.135977
H141	H	0.960695	-0.415658	-0.902054
H142	H	0.900238	-0.777092	-0.616731
O143	O	0.741522	-0.281515	-0.606170
C144	C	0.813573	-0.294187	-0.588003
H145	H	0.821229	-0.348686	-0.556592
H146	H	0.836124	-0.253440	-0.528449
C147	C	0.842071	-0.222520	-0.729618
C148	C	0.851474	-0.289458	-0.691046
H149	H	0.865452	-0.219600	-0.793177
H150	H	0.793530	-0.213979	-0.741855
H151	H	0.860864	-0.188571	-0.679980
H152	H	0.832675	-0.323405	-0.740678
H153	H	0.900014	-0.298004	-0.678819
H154	H	0.595442	-0.445068	-0.372427
H155	H	0.262693	-0.473514	-0.331865
H156	H	1.097230	-0.983897	-0.311667
O157	O	1.098397	-1.122890	-0.310060
C158	C	1.085704	-1.194955	-0.329755
H159	H	1.062284	-1.203951	-0.412426
H160	H	1.047521	-1.214212	-0.271363
C161	C	1.183819	-1.224460	-0.216934
C162	C	1.155060	-1.235510	-0.318476
H163	H	1.226599	-1.249477	-0.209972
H164	H	1.192369	-1.175909	-0.203661
H165	H	1.151993	-1.240508	-0.168286
H166	H	1.186882	-1.219454	-0.367121
H167	H	1.146516	-1.284059	-0.331756
H168	H	0.905855	-0.644255	-0.607914
O169	O	0.927584	-0.971027	-0.574432
C170	C	0.885969	-1.017358	-0.638966
H171	H	0.881358	-1.069473	-0.599771
H172	H	0.911276	-1.026171	-0.717328
C173	C	0.818218	-0.921656	-0.704691
C174	C	0.812549	-0.985663	-0.656546
H175	H	0.772930	-0.902105	-0.715540
H176	H	0.846256	-0.890441	-0.661216
H177	H	0.839309	-0.929009	-0.769988
H178	H	0.791466	-0.978308	-0.591246
H179	H	0.784506	-1.016876	-0.700011
