data_functionalizedCrystal
_audit_creation_method	'MofGen! by Chris Wilmer'
_symmetry_space_group_name_H-M	'P1'
_symmetry_Int_Tables_number	1
_symmetry_cell_setting	triclinic
loop_
_symmetry_equiv_pos_as_xyz
  x,y,z
_cell_length_a	29.999520
_cell_length_b	29.998686
_cell_length_c	29.995014
_cell_angle_alpha	60.005185
_cell_angle_beta	60.010401
_cell_angle_gamma	59.993433
loop_
_atom_site_label
_atom_site_type_symbol
_atom_site_fract_x
_atom_site_fract_y
_atom_site_fract_z
O1	O	0.061772	-0.651300	0.544623
O2	O	0.561772	-0.151300	1.044623
O3	O	0.023267	-0.507084	0.438819
O4	O	0.523267	-0.007084	0.938819
O5	O	0.114589	-0.598332	0.438743
O6	O	0.614589	-0.098332	0.938743
O7	O	-0.029550	-0.560051	0.544699
O8	O	0.470450	-0.060051	1.044699
O9	O	0.144886	-0.568039	0.468961
O10	O	0.644886	-0.068039	0.968961
O11	O	0.053564	-0.476791	0.469038
O12	O	0.553564	0.023209	0.969038
O13	O	0.092069	-0.621007	0.574841
O14	O	0.592069	-0.121007	1.074841
Zn15	Zn	0.077627	-0.544089	0.526737
Zn16	Zn	0.577627	-0.044089	1.026737
Zn17	Zn	0.037709	-0.584002	0.486923
Zn18	Zn	0.537709	-0.084002	0.986923
O19	O	0.000748	-0.529758	0.574918
O20	O	0.500748	-0.029758	1.074918
N21	N	0.104871	-0.516854	0.553912
N22	N	0.604871	-0.016854	1.053912
N23	N	0.010470	-0.611242	0.459748
N24	N	0.510470	-0.111242	0.959748
C25	C	0.143162	-0.478782	0.827124
C26	C	0.643162	0.021218	1.327124
C27	C	0.378203	-0.478734	0.591892
C28	C	0.878203	0.021266	1.091892
C29	C	0.143005	-0.478752	0.591997
C30	C	0.643005	0.021248	1.091997
C31	C	0.142986	-0.243586	0.592008
C32	C	0.642986	0.256414	1.092008
C33	C	0.180857	-0.357087	0.629814
C34	C	0.680857	0.142913	1.129814
C35	C	0.180866	-0.440920	0.629807
C36	C	0.680866	0.059080	1.129807
C37	C	0.201840	-0.419964	0.650755
C38	C	0.701840	0.080036	1.150755
C39	C	0.293272	-0.404201	0.602606
C40	C	0.793272	0.095799	1.102606
C41	C	0.350426	-0.423248	0.583534
C42	C	0.850426	0.076752	1.083534
C43	C	0.350451	-0.515727	0.618798
C44	C	0.850451	-0.015727	1.118798
C45	C	0.293297	-0.496678	0.637872
C46	C	0.793297	0.003322	1.137872
C47	C	0.194628	-0.328499	0.573626
C48	C	0.694628	0.171501	1.073626
C49	C	0.175551	-0.271340	0.554591
C50	C	0.675551	0.228660	1.054591
C51	C	0.128936	-0.271362	0.647935
C52	C	0.628936	0.228638	1.147935
C53	C	0.148014	-0.328521	0.666970
C54	C	0.648014	0.171479	1.166970
C55	C	0.124672	-0.427119	0.643641
C56	C	0.624672	0.072881	1.143641
C57	C	0.105611	-0.446170	0.624592
C58	C	0.605611	0.053830	1.124592
C59	C	0.198934	-0.492820	0.577889
C60	C	0.698934	0.007180	1.077889
C61	C	0.217998	-0.473770	0.596931
C62	C	0.717998	0.026230	1.096931
C63	C	0.124740	-0.427136	0.742229
C64	C	0.624740	0.072864	1.242229
C65	C	0.105728	-0.446202	0.799386
C66	C	0.605728	0.053798	1.299386
C67	C	0.199085	-0.492863	0.799337
C68	C	0.699085	0.007137	1.299337
C69	C	0.218096	-0.473798	0.742178
C70	C	0.718096	0.026202	1.242178
C71	C	0.180923	-0.440933	0.713626
C72	C	0.680923	0.059067	1.213626
C73	C	0.264710	-0.440915	0.629773
C74	C	0.764710	0.059085	1.129773
C75	C	0.121509	-0.499370	0.889991
C76	C	0.621509	0.000630	1.389991
C77	C	0.441068	-0.498953	0.570621
C78	C	0.941068	0.001047	1.070621
C79	C	0.121297	-0.499349	0.571429
C80	C	0.621297	0.000651	1.071429
C81	C	0.121653	-0.180715	0.571802
C82	C	0.621653	0.319285	1.071802
C83	C	-0.111071	-0.648912	0.421584
C84	C	0.388929	-0.148912	0.921584
C85	C	-0.027286	-0.649018	0.421777
C86	C	0.472714	-0.149018	0.921777
C87	C	-0.048200	-0.669944	0.400740
C88	C	0.451800	-0.169944	0.900740
C89	C	-0.064036	-0.761340	0.448814
C90	C	0.435964	-0.261340	0.948814
C91	C	-0.045033	-0.818500	0.467893
C92	C	0.454967	-0.318500	0.967893
C93	C	0.047447	-0.818609	0.432797
C94	C	0.547447	-0.318609	0.932797
C95	C	0.028444	-0.761451	0.413717
C96	C	0.528444	-0.261451	0.913717
C97	C	-0.139731	-0.662677	0.477755
C98	C	0.360269	-0.162677	0.977755
C99	C	-0.196885	-0.643554	0.496701
C100	C	0.303115	-0.143554	0.996701
C101	C	-0.196717	-0.596907	0.403303
C102	C	0.303283	-0.096907	0.903303
C103	C	-0.139562	-0.616030	0.384357
C104	C	0.360438	-0.116030	0.884357
C105	C	-0.041053	-0.592827	0.407952
C106	C	0.458947	-0.092827	0.907952
C107	C	-0.022041	-0.573809	0.427083
C108	C	0.477959	-0.073809	0.927083
C109	C	0.024504	-0.667167	0.473848
C110	C	0.524504	-0.167167	0.973848
C111	C	0.005492	-0.686188	0.454725
C112	C	0.505492	-0.186188	0.954725
C113	C	-0.040886	-0.592836	0.309259
C114	C	0.459114	-0.092836	0.809259
C115	C	-0.021740	-0.573821	0.252102
C116	C	0.478260	-0.073821	0.752102
C117	C	0.024886	-0.667185	0.252163
C118	C	0.524886	-0.167185	0.752163
C119	C	0.005743	-0.686199	0.309322
C120	C	0.505743	-0.186199	0.809322
C121	C	-0.027145	-0.649023	0.337868
C122	C	0.472855	-0.149023	0.837868
C123	C	-0.027299	-0.732818	0.421728
C124	C	0.472701	-0.232818	0.921728
N125	N	0.492511	-0.516826	0.553742
N126	N	0.992511	-0.016826	1.053742
O127	O	0.679283	-0.525926	0.419277
O128	O	1.179283	-0.025926	0.919277
O129	O	0.679465	-0.632059	0.563349
O130	O	1.179465	-0.132059	1.063349
O131	O	0.679393	-0.631817	0.471975
O132	O	1.179393	-0.131817	0.971975
O133	O	0.679355	-0.526168	0.510650
O134	O	1.179355	-0.026168	1.010650
O135	O	0.588593	-0.601610	0.502313
O136	O	1.088593	-0.101610	1.002313
O137	O	0.588665	-0.601852	0.593686
O138	O	1.088665	-0.101852	1.093686
O139	O	0.588483	-0.495720	0.449614
O140	O	1.088483	0.004280	0.949614
Zn141	Zn	0.574158	-0.543990	0.526467
Zn142	Zn	1.074158	-0.043990	1.026467
Zn143	Zn	0.693790	-0.583788	0.486496
Zn144	Zn	1.193790	-0.083788	0.986496
O145	O	0.588555	-0.495962	0.540987
O146	O	1.088555	0.004038	1.040987
N147	N	0.775436	-0.610952	0.459215
N148	N	1.275436	-0.110952	0.959215
N149	N	0.104844	-0.129269	0.553931
N150	N	0.604844	0.370731	1.053931
O151	O	-0.029548	0.057600	0.544709
O152	O	0.470452	0.557600	1.044709
O153	O	0.114530	0.057617	0.438578
O154	O	0.614530	0.557617	0.938578
O155	O	0.023130	0.057594	0.438850
O156	O	0.523130	0.557594	0.938850
O157	O	0.061852	0.057623	0.544437
O158	O	0.561852	0.557623	1.044437
O159	O	0.053431	-0.033213	0.469115
O160	O	0.553431	0.466787	0.969115
O161	O	0.144831	-0.033190	0.468843
O162	O	0.644831	0.466810	0.968843
O163	O	0.000753	-0.033207	0.574974
O164	O	0.500753	0.466793	1.074974
Zn165	Zn	0.077603	-0.047616	0.526714
Zn166	Zn	0.577603	0.452384	1.026714
Zn167	Zn	0.037680	0.072026	0.486838
Zn168	Zn	0.537680	0.572026	0.986838
O169	O	0.092153	-0.033184	0.574702
O170	O	0.592153	0.466816	1.074702
N171	N	0.010432	0.153679	0.459622
N172	N	0.510432	0.653679	0.959622
N173	N	0.105130	-0.516904	0.941437
N174	N	0.605130	-0.016904	1.441437
O175	O	0.095923	-0.651280	1.128292
O176	O	0.595923	-0.151280	1.628292
O177	O	-0.010184	-0.507155	1.128318
O178	O	0.489816	-0.007155	1.628318
O179	O	-0.009938	-0.598539	1.128284
O180	O	0.490062	-0.098539	1.628284
O181	O	0.095677	-0.559897	1.128326
O182	O	0.595677	-0.059897	1.628326
O183	O	0.020315	-0.568257	1.037481
O184	O	0.520315	-0.068257	1.537481
O185	O	0.020068	-0.476874	1.037515
O186	O	0.520068	0.023126	1.537515
O187	O	0.126176	-0.620999	1.037489
O188	O	0.626176	-0.120999	1.537489
Zn189	Zn	0.077925	-0.544128	1.023085
Zn190	Zn	0.577925	-0.044128	1.523085
Zn191	Zn	0.038066	-0.584026	1.142722
Zn192	Zn	0.538066	-0.084026	1.642722
O193	O	0.125929	-0.529616	1.037523
O194	O	0.625929	-0.029616	1.537523
N195	N	0.010860	-0.611256	1.224371
N196	N	0.510860	-0.111256	1.724371
C197	C	0.034807	-0.473765	0.439352
C198	C	0.534807	0.026235	0.939352
C199	C	0.147897	-0.586765	0.439257
C200	C	0.647897	-0.086765	0.939257
C201	C	0.080529	-0.654326	0.574308
C202	C	0.580529	-0.154326	1.074308
C203	C	-0.032561	-0.541326	0.574403
C204	C	0.467439	-0.041326	1.074403
C205	C	0.634087	-0.631571	0.596668
C206	C	1.134087	-0.131571	1.096668
C207	C	0.633999	-0.631272	0.483513
C208	C	1.133999	-0.131272	0.983513
C209	C	0.633858	-0.496206	0.416295
C210	C	1.133858	0.003794	0.916295
C211	C	0.633949	-0.496507	0.529449
C212	C	1.133949	0.003493	1.029449
C213	C	0.147793	0.012327	0.439058
C214	C	0.647793	0.512327	0.939058
C215	C	0.034644	0.012187	0.439432
C216	C	0.534644	0.512187	0.939432
C217	C	-0.032548	0.012195	0.574457
C218	C	0.467452	0.512195	1.074457
C219	C	0.080639	0.012222	0.574120
C220	C	0.580639	0.512222	1.074120
C221	C	-0.009670	-0.473857	1.082920
C222	C	0.490330	0.026143	1.582920
C223	C	-0.009359	-0.587018	1.082860
C224	C	0.490641	-0.087018	1.582860
C225	C	0.125662	-0.654297	1.082887
C226	C	0.625662	-0.154297	1.582887
C227	C	0.125358	-0.541129	1.082927
C228	C	0.625358	-0.041129	1.582927
H229	H	0.094465	-0.400370	0.718985
H230	H	0.594465	0.099630	1.218985
H231	H	-0.073925	0.012190	0.607776
H232	H	0.426075	0.512190	1.107776
H233	H	0.189085	0.012584	0.405656
H234	H	0.689085	0.512584	0.905656
O235	O	0.197322	-0.596578	0.399627
O236	O	0.697322	-0.096578	0.899627
C237	C	0.287217	-0.661281	0.374369
C238	C	0.787217	-0.161281	0.874369
C239	C	0.231273	-0.650237	0.419302
C240	C	0.731273	-0.150237	0.919302
H241	H	0.314679	-0.704668	0.390256
H242	H	0.814679	-0.204668	0.890256
H243	H	0.306898	-0.631035	0.362432
H244	H	0.806898	-0.131035	0.862432
H245	H	0.281475	-0.656325	0.337137
H246	H	0.781475	-0.156325	0.837137
H247	H	0.236968	-0.655201	0.456563
H248	H	0.736968	-0.155201	0.956563
H249	H	0.211612	-0.680481	0.431193
H250	H	0.711612	-0.180481	0.931193
O251	O	0.056745	-0.703277	0.224414
O252	O	0.556745	-0.203277	0.724414
C253	C	0.067033	-0.735926	0.159813
C254	C	0.567033	-0.235926	0.659813
C255	C	0.030894	-0.695028	0.191214
C256	C	0.530894	-0.195028	0.691214
H257	H	0.046152	-0.729264	0.132955
H258	H	0.546152	-0.229264	0.632955
H259	H	0.073550	-0.779362	0.190058
H260	H	0.573550	-0.279362	0.690058
H261	H	0.108178	-0.729405	0.133151
H262	H	0.608178	-0.229405	0.633151
H263	H	-0.010270	-0.701499	0.217878
H264	H	0.489730	-0.201499	0.717878
H265	H	0.024423	-0.651607	0.160940
H266	H	0.524423	-0.151607	0.660940
O267	O	0.024681	0.012138	0.399930
O268	O	0.524681	0.512138	0.899930
C269	C	-0.040205	0.012115	0.374986
C270	C	0.459795	0.512115	0.874986
C271	C	-0.028994	0.012169	0.419771
C272	C	0.471006	0.512169	0.919771
H273	H	-0.083604	0.012152	0.391008
H274	H	0.416396	0.512152	0.891008
H275	H	-0.010008	-0.025904	0.363070
H276	H	0.489992	0.474096	0.863070
H277	H	-0.035311	0.050102	0.337708
H278	H	0.464689	0.550102	0.837708
H279	H	-0.033895	-0.025792	0.457079
H280	H	0.466105	0.474208	0.957079
H281	H	-0.059189	0.050213	0.431641
H282	H	0.440811	0.550213	0.931641
H283	H	0.026581	-0.432337	0.406123
H284	H	0.526581	0.067663	0.906123
O285	O	0.051005	-0.432740	0.638102
O286	O	0.551005	0.067260	1.138102
C287	C	-0.039552	-0.384446	0.686423
C288	C	0.460448	0.115554	1.186423
C289	C	0.022272	-0.399622	0.671173
C290	C	0.522272	0.100378	1.171173
H291	H	-0.062800	-0.357659	0.713153
H292	H	0.437200	0.142341	1.213153
H293	H	-0.050808	-0.423222	0.709723
H294	H	0.449192	0.076778	1.209723
H295	H	-0.050815	-0.361192	0.647644
H296	H	0.449185	0.138808	1.147644
H297	H	0.033581	-0.422863	0.709923
H298	H	0.533581	0.077137	1.209923
H299	H	0.033496	-0.360826	0.647851
H300	H	0.533496	0.139174	1.147851
H301	H	0.088756	-0.695753	0.607538
H302	H	0.588756	-0.195753	1.107538
H303	H	-0.073962	-0.533167	0.607674
H304	H	0.426038	-0.033167	1.107674
H305	H	0.633799	-0.462884	0.374920
H306	H	1.133799	0.037116	0.874920
H307	H	0.634015	-0.664461	0.475235
H308	H	1.134015	-0.164461	0.975235
O309	O	0.634170	-0.671271	0.646053
O310	O	1.134170	-0.171271	1.146053
C311	C	0.634215	-0.696644	0.735992
C312	C	1.134215	-0.196644	1.235992
C313	C	0.634134	-0.651641	0.680085
C314	C	1.134134	-0.151641	1.180085
H315	H	0.634174	-0.680786	0.763525
H316	H	1.134174	-0.180786	1.263525
H317	H	0.672244	-0.733868	0.730262
H318	H	1.172244	-0.233868	1.230262
H319	H	0.596245	-0.708587	0.755589
H320	H	1.096245	-0.208587	1.255589
H321	H	0.672078	-0.639652	0.660457
H322	H	1.172078	-0.139652	1.160457
H323	H	0.596080	-0.614446	0.685850
H324	H	1.096080	-0.114446	1.185850
O325	O	0.633910	-0.456963	0.539416
O326	O	1.133910	0.043037	1.039416
C327	C	0.633985	-0.431999	0.604263
C328	C	1.133985	0.068001	1.104263
C329	C	0.634016	-0.476826	0.593052
C330	C	1.134016	0.023174	1.093052
H331	H	0.634081	-0.448045	0.647623
H332	H	1.134081	0.051955	1.147623
H333	H	0.595947	-0.394748	0.599451
H334	H	1.095947	0.105252	1.099451
H335	H	0.671946	-0.420027	0.573993
H336	H	1.171946	0.079973	1.073993
H337	H	0.596080	-0.488844	0.623312
H338	H	1.096080	0.011156	1.123312
H339	H	0.672078	-0.514047	0.597845
H340	H	1.172078	-0.014047	1.097845
H341	H	0.088930	0.012231	0.607291
H342	H	0.588930	0.512231	1.107291
H343	H	-0.042983	-0.432464	1.082928
H344	H	0.457017	0.067536	1.582928
H345	H	-0.042525	-0.595273	1.082811
H346	H	0.457475	-0.095273	1.582811
O347	O	0.165389	-0.703673	1.082804
O348	O	0.665389	-0.203673	1.582804
C349	C	0.223137	-0.769412	1.035720
C350	C	0.723137	-0.269412	1.535720
C351	C	0.178136	-0.713490	1.035754
C352	C	0.678136	-0.213490	1.535754
H353	H	0.233465	-0.777361	0.997679
H354	H	0.733465	-0.277361	1.497679
H355	H	0.208140	-0.802778	1.073686
H356	H	0.708140	-0.302778	1.573686
H357	H	0.261154	-0.769478	1.035756
H358	H	0.761154	-0.269478	1.535756
H359	H	0.140104	-0.713370	1.035699
H360	H	0.640104	-0.213370	1.535699
H361	H	0.193178	-0.680148	0.997792
H362	H	0.693178	-0.180148	1.497792
O363	O	0.235122	-0.524766	0.827153
O364	O	0.735122	-0.024766	1.327153
C365	C	0.247217	-0.574841	0.915180
C366	C	0.747217	-0.074841	1.415180
C367	C	0.206343	-0.538705	0.883746
C368	C	0.706343	-0.038705	1.383746
H369	H	0.223965	-0.586131	0.960941
H370	H	0.723965	-0.086131	1.460941
H371	H	0.273961	-0.551575	0.903971
H372	H	0.773961	-0.051575	1.403971
H373	H	0.273989	-0.613606	0.903893
H374	H	0.773989	-0.113606	1.403893
H375	H	0.179534	-0.499934	0.895017
H376	H	0.679534	0.000066	1.395017
H377	H	0.179637	-0.562012	0.894958
H378	H	0.679637	-0.062012	1.394958
O379	O	0.164892	-0.531171	1.082910
O380	O	0.664892	-0.031171	1.582910
C381	C	0.189851	-0.466321	1.082964
C382	C	0.689851	0.033679	1.582964
C383	C	0.145034	-0.477521	1.082971
C384	C	0.645034	0.022479	1.582971
H385	H	0.173808	-0.422950	1.083025
H386	H	0.673808	0.077050	1.583025
H387	H	0.227110	-0.471167	1.044952
H388	H	0.727110	0.028833	1.544952
H389	H	0.201803	-0.496576	1.120953
H390	H	0.701803	0.003424	1.620953
H391	H	0.133036	-0.447277	1.045008
H392	H	0.633036	0.052723	1.545008
H393	H	0.107804	-0.472694	1.121009
H394	H	0.607804	0.027306	1.621009
H395	H	0.059977	-0.434960	0.822668
H396	H	0.559977	0.065040	1.322668
O397	O	0.378309	-0.569876	0.626595
O398	O	0.878309	-0.069876	1.126595
C399	C	0.466372	-0.640209	0.612870
C400	C	0.966372	-0.140209	1.112870
C401	C	0.434891	-0.578872	0.603991
C402	C	0.934891	-0.078872	1.103991
H403	H	0.512124	-0.647503	0.594610
H404	H	1.012124	-0.147503	1.094610
H405	H	0.455162	-0.654423	0.592130
H406	H	0.955162	-0.154423	1.092130
H407	H	0.455129	-0.664118	0.658485
H408	H	0.955129	-0.164118	1.158485
H409	H	0.446117	-0.554920	0.558389
H410	H	0.946117	-0.054920	1.058389
H411	H	0.446104	-0.564701	0.624767
H412	H	0.946104	-0.064701	1.124767
H413	H	0.263847	-0.485039	0.718893
H414	H	0.763847	0.014961	1.218893
H415	H	0.229173	-0.519573	0.551126
H416	H	0.729173	-0.019573	1.051126
O417	O	0.272603	-0.487229	0.583450
O418	O	0.772603	0.012771	1.083450
C419	C	0.363160	-0.535445	0.535052
C420	C	0.863160	-0.035445	1.035052
C421	C	0.301336	-0.520264	0.550297
C422	C	0.801336	-0.020264	1.050297
H423	H	0.386408	-0.562147	0.508236
H424	H	0.886408	-0.062147	1.008236
H425	H	0.374491	-0.558754	0.573795
H426	H	0.874491	-0.058754	1.073795
H427	H	0.374349	-0.496634	0.511806
H428	H	0.874349	0.003366	1.011806
H429	H	0.290102	-0.559047	0.573529
H430	H	0.790102	-0.059047	1.073529
H431	H	0.290038	-0.496934	0.511534
H432	H	0.790038	0.003066	1.011534
O433	O	0.265635	-0.532414	0.664229
O434	O	0.765635	-0.032414	1.164229
C435	C	0.271694	-0.626156	0.697219
C436	C	0.771694	-0.126156	1.197219
C437	C	0.303088	-0.585743	0.667348
C438	C	0.803088	-0.085743	1.167348
H439	H	0.301960	-0.669281	0.699760
H440	H	0.801960	-0.169281	1.199760
H441	H	0.244929	-0.614722	0.673864
H442	H	0.744929	-0.114722	1.173864
H443	H	0.244943	-0.624382	0.740184
H444	H	0.744943	-0.124382	1.240184
H445	H	0.329868	-0.587495	0.624383
H446	H	0.829868	-0.087495	1.124383
H447	H	0.329818	-0.597189	0.690744
H448	H	0.829818	-0.097189	1.190744
O449	O	0.378089	-0.387508	0.557132
O450	O	0.878089	0.112492	1.057132
C451	C	0.372035	-0.293776	0.524192
C452	C	0.872035	0.206224	1.024192
C453	C	0.340638	-0.334191	0.554090
C454	C	0.840638	0.165809	1.054090
H455	H	0.341770	-0.250661	0.521733
H456	H	0.841770	0.249339	1.021733
H457	H	0.398757	-0.295479	0.481199
H458	H	0.898757	0.204521	0.981199
H459	H	0.398828	-0.305278	0.547546
H460	H	0.898828	0.194722	1.047546
H461	H	0.313815	-0.322716	0.530781
H462	H	0.813815	0.177284	1.030781
H463	H	0.313950	-0.332481	0.597085
H464	H	0.813950	0.167519	1.097085
O465	O	0.088654	-0.395142	0.675515
O466	O	0.588654	0.104858	1.175515
C467	C	0.055964	-0.308125	0.685700
C468	C	0.555964	0.191875	1.185700
C469	C	0.096793	-0.344287	0.649555
C470	C	0.596793	0.155713	1.149555
H471	H	0.062522	-0.266998	0.664720
H472	H	0.562522	0.233002	1.164720
H473	H	0.062578	-0.329033	0.726803
H474	H	0.562578	0.170967	1.226803
H475	H	0.012532	-0.301562	0.692321
H476	H	0.512532	0.198438	1.192321
H477	H	0.140241	-0.350863	0.642890
H478	H	0.640241	0.149137	1.142890
H479	H	0.090131	-0.323362	0.608474
H480	H	0.590131	0.176638	1.108474
O481	O	0.226503	-0.356166	0.537461
O482	O	0.726503	0.143834	1.037461
C483	C	0.270739	-0.350111	0.442865
C484	C	0.770739	0.149889	0.942865
C485	C	0.234628	-0.318712	0.483764
C486	C	0.734628	0.181288	0.983764
H487	H	0.277329	-0.319844	0.399442
H488	H	0.777329	0.180156	0.899442
H489	H	0.249806	-0.376860	0.449421
H490	H	0.749806	0.123140	0.949421
H491	H	0.311853	-0.376882	0.449458
H492	H	0.811853	0.123118	0.949458
H493	H	0.193508	-0.291911	0.477195
H494	H	0.693508	0.208089	0.977195
H495	H	0.255604	-0.291998	0.477197
H496	H	0.755604	0.208002	0.977197
O497	O	0.265444	-0.350054	0.594836
O498	O	0.765444	0.149946	1.094836
C499	C	0.200956	-0.280893	0.636959
C500	C	0.700956	0.219107	1.136959
C501	C	0.232428	-0.342231	0.645837
C502	C	0.732428	0.157769	1.145837
H503	H	0.174264	-0.274546	0.678186
H504	H	0.674264	0.225454	1.178186
H505	H	0.174139	-0.264781	0.611872
H506	H	0.674139	0.235219	1.111872
H507	H	0.231202	-0.257935	0.614241
H508	H	0.731202	0.242065	1.114241
H509	H	0.202221	-0.365233	0.668569
H510	H	0.702221	0.134767	1.168569
H511	H	0.259253	-0.358300	0.670901
H512	H	0.759253	0.141700	1.170901
H513	H	0.186762	-0.248063	0.508836
H514	H	0.686762	0.251937	1.008836
H515	H	0.102202	-0.248101	0.678192
H516	H	0.602202	0.251899	1.178192
H517	H	-0.032937	-0.528066	0.228816
H518	H	0.467063	-0.028066	0.728816
O519	O	0.134607	-0.356210	0.721572
O520	O	0.634607	0.143790	1.221572
C521	C	0.086330	-0.350202	0.812151
C522	C	0.586330	0.149798	1.312151
C523	C	0.101483	-0.318777	0.750331
C524	C	0.601483	0.181223	1.250331
H525	H	0.059537	-0.319952	0.835420
H526	H	0.559537	0.180048	1.335420
H527	H	0.125111	-0.376945	0.823415
H528	H	0.625111	0.123055	1.323415
H529	H	0.063091	-0.376982	0.823384
H530	H	0.563091	0.123018	1.323384
H531	H	0.124708	-0.291968	0.739054
H532	H	0.624708	0.208032	1.239054
H533	H	0.062682	-0.292070	0.739100
H534	H	0.562682	0.207930	1.239100
H535	H	-0.067667	-0.562559	0.332499
H536	H	0.432333	-0.062559	0.832499
H537	H	-0.067739	-0.562558	0.381123
H538	H	0.432261	-0.062558	0.881123
O539	O	0.019122	-0.740800	0.337027
O540	O	0.519122	-0.240800	0.837027
C541	C	0.067412	-0.831397	0.331052
C542	C	0.567412	-0.331397	0.831052
C543	C	0.052292	-0.769577	0.299610
C544	C	0.552292	-0.269577	0.799610
H545	H	0.094241	-0.854681	0.300815
H546	H	0.594241	-0.354681	0.800815
H547	H	0.028619	-0.842623	0.357725
H548	H	0.528619	-0.342623	0.857725
H549	H	0.090600	-0.842651	0.357900
H550	H	0.590600	-0.342651	0.857900
H551	H	0.029118	-0.758278	0.272733
H552	H	0.529118	-0.258278	0.772733
H553	H	0.091105	-0.758384	0.272972
H554	H	0.591105	-0.258384	0.772972
H555	H	0.051198	-0.697438	0.500669
H556	H	0.551198	-0.197438	1.000669
O557	O	-0.035333	-0.519222	0.413558
O558	O	0.464667	-0.019222	0.913558
C559	C	-0.030831	-0.433667	0.341068
C560	C	0.469169	0.066333	0.841068
C561	C	-0.015741	-0.495479	0.356313
C562	C	0.484259	0.004521	0.856313
H563	H	-0.015007	-0.414451	0.294786
H564	H	0.484993	0.085549	0.794786
H565	H	-0.011589	-0.426437	0.360358
H566	H	0.488411	0.073563	0.860358
H567	H	-0.077109	-0.414347	0.356780
H568	H	0.422891	0.085653	0.856780
H569	H	0.030529	-0.514840	0.340605
H570	H	0.530529	-0.014840	0.840605
H571	H	-0.035022	-0.502672	0.337031
H572	H	0.464978	-0.002672	0.837031
O573	O	0.018935	-0.740789	0.468179
O574	O	0.518935	-0.240789	0.968179
C575	C	0.067083	-0.831385	0.516606
C576	C	0.567083	-0.331385	1.016606
C577	C	0.051908	-0.769566	0.501403
C578	C	0.551908	-0.269566	1.001403
H579	H	0.093735	-0.854669	0.543480
H580	H	0.593735	-0.354669	1.043480
H581	H	0.090439	-0.842692	0.477849
H582	H	0.590439	-0.342692	0.977849
H583	H	0.028270	-0.842560	0.539778
H584	H	0.528270	-0.342560	1.039778
H585	H	0.090693	-0.758346	0.478245
H586	H	0.590693	-0.258346	0.978245
H587	H	0.028531	-0.758293	0.540180
H588	H	0.528531	-0.258293	1.040180
H589	H	-0.219915	-0.570138	0.372989
H590	H	0.280085	-0.070138	0.872989
H591	H	0.058362	-0.738230	0.391661
H592	H	0.558362	-0.238230	0.891661
H593	H	0.092838	-0.841923	0.426277
H594	H	0.592838	-0.341923	0.926277
H595	H	-0.074948	-0.841721	0.489940
H596	H	0.425052	-0.341721	0.989940
H597	H	-0.116534	-0.689457	0.508068
H598	H	0.383466	-0.189457	1.008068
O599	O	-0.118172	-0.733546	0.456507
O600	O	0.381828	-0.233546	0.956507
C601	C	-0.196935	-0.715990	0.439568
C602	C	0.303065	-0.215990	0.939568
C603	C	-0.135623	-0.747497	0.430815
C604	C	0.364377	-0.247497	0.930815
H605	H	-0.211065	-0.727266	0.418811
H606	H	0.288935	-0.227266	0.918811
H607	H	-0.204226	-0.670232	0.421249
H608	H	0.295774	-0.170232	0.921249
H609	H	-0.220914	-0.727175	0.485165
H610	H	0.279086	-0.227175	0.985165
H611	H	-0.111604	-0.736358	0.385229
H612	H	0.388396	-0.236358	0.885229
H613	H	-0.128374	-0.793247	0.449169
H614	H	0.371626	-0.293247	0.949169
O615	O	-0.224706	-0.657019	0.551274
O616	O	0.275294	-0.157019	1.051274
C617	C	-0.242325	-0.729439	0.636878
C618	C	0.257675	-0.229439	1.136878
C619	C	-0.210794	-0.714263	0.575082
C620	C	0.289206	-0.214263	1.075082
H621	H	-0.231080	-0.775722	0.656147
H622	H	0.268920	-0.275722	1.156147
H623	H	-0.288075	-0.710168	0.644054
H624	H	0.211925	-0.210168	1.144054
H625	H	-0.231135	-0.713659	0.656186
H626	H	0.268865	-0.213659	1.156186
H627	H	-0.221938	-0.730041	0.555732
H628	H	0.278062	-0.230041	1.055732
H629	H	-0.165052	-0.733527	0.567944
H630	H	0.334948	-0.233527	1.067944
O631	O	-0.111804	-0.602632	0.329771
O632	O	0.388196	-0.102632	0.829771
C633	C	-0.117665	-0.554324	0.239129
C634	C	0.382335	-0.054324	0.739129
C635	C	-0.149169	-0.569466	0.300931
C636	C	0.350831	-0.069466	0.800931
H637	H	-0.147861	-0.527498	0.215794
H638	H	0.352139	-0.027498	0.715794
H639	H	-0.090926	-0.593112	0.227879
H640	H	0.409074	-0.093112	0.727879
H641	H	-0.090879	-0.531121	0.227963
H642	H	0.409121	-0.031121	0.727963
H643	H	-0.175984	-0.592654	0.312142
H644	H	0.324016	-0.092654	0.812142
H645	H	-0.175873	-0.530658	0.312148
H646	H	0.324127	-0.030658	0.812148
