data_functionalizedCrystal
_audit_creation_method	'MofGen! by Chris Wilmer'
_symmetry_space_group_name_H-M	'P1'
_symmetry_Int_Tables_number	1
_symmetry_cell_setting	triclinic
loop_
_symmetry_equiv_pos_as_xyz
  x,y,z
_cell_length_a	6.394989
_cell_length_b	16.109318
_cell_length_c	14.586319
_cell_angle_alpha	90.000075
_cell_angle_beta	90.000822
_cell_angle_gamma	95.016863
loop_
_atom_site_label
_atom_site_type_symbol
_atom_site_fract_x
_atom_site_fract_y
_atom_site_fract_z
O1	O	-0.268653	1.105966	-0.076158
O2	O	-0.302027	0.864259	-0.076176
O3	O	0.018726	0.988543	-0.076167
O4	O	-0.589406	0.981682	-0.076166
O5	O	0.018731	0.988534	0.076314
O6	O	-0.302022	0.864250	0.076305
O7	O	-0.268648	1.105957	0.076323
Cu8	Cu	-0.285335	0.985103	0.090237
Cu9	Cu	-0.285340	0.985113	-0.090090
O10	O	-0.589401	0.981673	0.076314
C11	C	-0.300666	0.833266	0.000062
C12	C	-0.296594	0.740928	0.000055
C13	C	-0.283445	0.441720	-0.083046
C14	C	-0.287257	0.528481	-0.083052
C15	C	-0.287224	0.528490	0.083191
C16	C	-0.283396	0.441731	0.083196
C17	C	-0.281518	0.398347	0.000075
C18	C	-0.289157	0.571868	0.000064
C19	C	-0.293291	0.665939	0.000059
C20	C	-0.277380	0.304271	0.000080
C21	C	0.096549	0.987182	0.000070
C22	C	0.332782	0.983036	0.000068
C23	C	-0.270009	1.136950	0.000083
C24	C	-0.274081	1.229288	0.000084
N25	N	-0.285330	0.985101	0.217068
N26	N	-0.285329	0.985121	-0.216921
C27	C	-0.143348	1.040153	0.452079
C28	C	-0.143343	1.040156	0.548060
C29	C	-0.427318	0.930063	0.548062
C30	C	-0.427311	0.930057	0.452082
C31	C	-0.285329	0.985107	0.404093
C32	C	-0.285330	0.985115	0.596054
C33	C	-0.285326	0.985117	0.700121
C34	C	-0.285330	0.985104	0.300019
H35	H	-0.281825	0.406416	0.150887
O36	O	-0.565030	0.876477	0.594642
C37	C	-0.531032	0.793823	0.571180
H38	H	-0.363797	0.791665	0.544797
H39	H	-0.555018	0.752356	0.634304
H40	H	-0.646785	0.770610	0.515469
H41	H	-0.027734	1.084977	0.413008
O42	O	-0.005348	1.093709	0.594530
C43	C	0.120000	1.142277	0.531589
H44	H	0.034357	1.144109	0.463171
H45	H	0.151805	1.208338	0.559316
H46	H	0.275193	1.113659	0.521382
H47	H	-0.288824	0.563792	-0.150737
O48	O	-0.565336	0.876698	0.405364
C49	C	-0.694262	0.922571	0.349856
H50	H	-0.611121	0.986753	0.335477
H51	H	-0.727270	0.888214	0.282364
H52	H	-0.848646	0.929838	0.386841
O53	O	-0.281889	0.399656	-0.163844
C54	C	-0.463647	0.413317	-0.214398
H55	H	-0.526693	0.473804	-0.190765
H56	H	-0.423128	0.417973	-0.290439
H57	H	-0.588090	0.359222	-0.202870
O58	O	-0.289167	0.570758	0.163849
C59	C	-0.292913	0.656637	0.146024
H60	H	-0.359533	0.665733	0.074590
H61	H	-0.395711	0.685395	0.199108
H62	H	-0.126531	0.688228	0.149960
