data_functionalizedCrystal
_audit_creation_method	'MofGen! by Chris Wilmer'
_symmetry_space_group_name_H-M	'P1'
_symmetry_Int_Tables_number	1
_symmetry_cell_setting	triclinic
loop_
_symmetry_equiv_pos_as_xyz
  x,y,z
_cell_length_a	15.944551
_cell_length_b	9.065218
_cell_length_c	8.140239
_cell_angle_alpha	90.001686
_cell_angle_beta	89.998231
_cell_angle_gamma	84.257312
loop_
_atom_site_label
_atom_site_type_symbol
_atom_site_fract_x
_atom_site_fract_y
_atom_site_fract_z
O1	O	-1.115964	-0.190270	-0.136435
O2	O	-0.871592	-0.213728	-0.136475
O3	O	-0.998829	0.012762	-0.136451
O4	O	-0.988727	-0.416759	-0.136459
O5	O	-0.998822	0.012764	0.136776
O6	O	-0.871585	-0.213725	0.136752
O7	O	-1.115956	-0.190267	0.136792
Zn8	Zn	-0.993769	-0.201996	0.180152
Zn9	Zn	-0.993779	-0.201999	-0.179836
O10	O	-0.988719	-0.416757	0.136768
C11	C	-0.840287	-0.212753	0.000133
C12	C	-0.747019	-0.209833	0.000118
C13	C	-0.997854	0.067727	0.000160
C14	C	-0.994951	0.231502	0.000151
C15	C	-1.147261	-0.191242	0.000180
C16	C	-1.240530	-0.194162	0.000185
C17	C	-0.531045	-0.062466	0.000152
C18	C	-0.470547	-0.130900	-0.134564
C19	C	-0.576253	-0.204551	0.000137
C20	C	-0.470563	-0.130931	0.134816
C21	C	-0.411301	-0.199439	0.000163
C22	C	-0.516983	-0.273024	-0.134691
C23	C	-0.517005	-0.273035	0.134811
C24	C	-0.456525	-0.341573	0.000061
C25	C	-0.671277	-0.207493	0.000121
C26	C	-0.316278	-0.196509	0.000168
C27	C	-0.989694	-0.471722	0.000153
C28	C	-0.992597	-0.635497	0.000151
N29	N	-0.993769	-0.201993	0.425835
N30	N	-0.993786	-0.201991	-0.425519
H31	H	-0.449985	-0.070804	-0.248456
H32	H	-0.563485	0.055454	-0.000012
O33	O	-0.445912	-0.059206	0.270569
C34	C	-0.357517	-0.058660	0.269480
H35	H	-0.333246	-0.073294	0.138171
H36	H	-0.327838	-0.153518	0.348875
C37	C	-0.363649	0.107817	0.499692
C38	C	-0.333839	0.089855	0.338414
H39	H	-0.349042	0.199424	0.542220
H40	H	-0.423202	0.107445	0.500431
H41	H	-0.338914	0.028758	0.565834
H42	H	-0.358583	0.168902	0.272271
H43	H	-0.274290	0.090244	0.337666
H44	H	-0.537429	-0.333077	-0.248707
O45	O	-0.541595	-0.344886	0.270511
C46	C	-0.581922	-0.469430	0.222217
H47	H	-0.560447	-0.504731	0.093264
H48	H	-0.653115	-0.439793	0.222705
C49	C	-0.585186	-0.554464	0.501382
C50	C	-0.558805	-0.597830	0.343005
H51	H	-0.570931	-0.633666	0.575892
H52	H	-0.558021	-0.470554	0.533921
H53	H	-0.644512	-0.529766	0.501765
H54	H	-0.499479	-0.622508	0.342620
H55	H	-0.585961	-0.681747	0.310469
H56	H	-0.424261	-0.459614	-0.000016
