data_functionalizedCrystal
_audit_creation_method	'MofGen! by Chris Wilmer'
_symmetry_space_group_name_H-M	'P1'
_symmetry_Int_Tables_number	1
_symmetry_cell_setting	triclinic
loop_
_symmetry_equiv_pos_as_xyz
  x,y,z
_cell_length_a	10.654565
_cell_length_b	10.654559
_cell_length_c	9.130313
_cell_angle_alpha	90.001323
_cell_angle_beta	90.005936
_cell_angle_gamma	95.509998
loop_
_atom_site_label
_atom_site_type_symbol
_atom_site_fract_x
_atom_site_fract_y
_atom_site_fract_z
O1	O	-1.667828	0.176486	-0.121984
O2	O	-1.302353	0.193272	-0.121944
O3	O	-1.493488	0.002141	-0.121965
O4	O	-1.476694	0.367617	-0.121963
O5	O	-1.493485	0.002146	0.121634
O6	O	-1.302351	0.193277	0.121655
O7	O	-1.667826	0.176491	0.121615
Cu8	Cu	-1.485088	0.184884	0.143878
Cu9	Cu	-1.485091	0.184878	-0.144206
O10	O	-1.476691	0.367622	0.121636
C11	C	-1.255554	0.192038	-0.000139
C12	C	-1.116112	0.188338	-0.000124
C13	C	-1.050580	0.186615	0.132654
C14	C	-0.919558	0.183149	0.132637
C15	C	-0.919610	0.183134	-0.132948
C16	C	-1.050631	0.186591	-0.132929
C17	C	-1.116060	0.188362	0.265459
C18	C	-1.050528	0.186641	0.398248
C19	C	-0.919506	0.183174	0.398231
C20	C	-0.854016	0.181429	0.265426
C21	C	-1.492251	-0.044654	-0.000168
C22	C	-1.488554	-0.184097	-0.000177
C23	C	-0.714625	0.177723	-0.000178
C24	C	-0.854069	0.181414	-0.000159
C25	C	-1.372543	-0.235644	-0.000168
C26	C	-1.369077	-0.366666	-0.000156
C27	C	-1.597645	-0.394585	-0.000169
C28	C	-1.601109	-0.263565	-0.000170
C29	C	-1.259988	-0.156176	-0.000175
C30	C	-1.143967	-0.207721	-0.000167
C31	C	-1.140502	-0.338743	-0.000156
C32	C	-1.253057	-0.418220	-0.000152
C33	C	-1.477928	0.414417	-0.000164
C34	C	-1.481625	0.553860	-0.000165
N35	N	-1.485095	0.184888	0.346500
N36	N	-1.485094	0.184865	-0.346829
C37	C	-1.569752	0.100284	0.423143
C38	C	-1.569748	0.100269	0.576480
C39	C	-1.400428	0.269473	0.576518
C40	C	-1.400427	0.269481	0.423184
C41	C	-1.654421	0.015692	0.346459
C42	C	-1.739085	-0.068918	0.423102
C43	C	-1.739081	-0.068933	0.576439
C44	C	-1.654414	0.015662	0.653133
H45	H	-1.103860	0.188052	0.506373
C46	C	-1.014668	-0.394952	-0.000072
C47	C	-1.035717	-0.526703	-0.000028
C48	C	-0.919826	-0.578522	0.000060
H49	H	-0.968191	-0.367888	-0.084998
H50	H	-0.968259	-0.367809	0.084909
H51	H	-1.082106	-0.553835	-0.085001
H52	H	-1.082175	-0.553802	0.084892
H53	H	-0.873417	-0.551378	0.085041
H54	H	-0.873358	-0.551448	-0.084868
H55	H	-0.934092	-0.667919	0.000103
C56	C	-1.830855	-0.160991	0.339953
C57	C	-1.809369	-0.284587	0.377245
C58	C	-1.893873	-0.369452	0.300682
H59	H	-1.914841	-0.146745	0.365026
H60	H	-1.818748	-0.148978	0.237635
H61	H	-1.821487	-0.296595	0.479541
H62	H	-1.725400	-0.298873	0.352169
H63	H	-1.881766	-0.357439	0.198364
H64	H	-1.977853	-0.355194	0.325761
H65	H	-1.879299	-0.453321	0.325964
C66	C	-0.848168	0.181484	0.542284
C67	C	-0.759747	0.287334	0.550014
C68	C	-0.693997	0.285813	0.682688
H69	H	-0.905780	0.183077	0.621500
H70	H	-0.805912	0.107058	0.547808
H71	H	-0.802002	0.361741	0.544505
H72	H	-0.702109	0.285763	0.470829
H73	H	-0.651741	0.211387	0.688212
H74	H	-0.751619	0.287404	0.761894
H75	H	-0.633989	0.357624	0.687945
H76	H	-1.695576	-0.221596	-0.000176
C77	C	-1.830791	-0.160940	0.659731
C78	C	-1.763231	-0.238485	0.747726
C79	C	-1.847678	-0.323266	0.824457
H80	H	-1.883489	-0.115422	0.719669
H81	H	-1.881193	-0.211389	0.592142
H82	H	-1.712851	-0.188042	0.815308
H83	H	-1.710537	-0.284031	0.687825
H84	H	-1.898080	-0.373715	0.756868
H85	H	-1.900372	-0.277737	0.884386
H86	H	-1.801851	-0.375898	0.884160
H87	H	-1.222745	0.191188	0.265488
C88	C	-1.021908	-0.121229	-0.000240
C89	C	-1.049768	0.004547	-0.000292
C90	C	-0.937356	0.084256	-0.000377
H91	H	-0.974290	-0.136795	0.084690
H92	H	-0.974378	-0.136900	-0.085217
H93	H	-1.097277	0.020212	0.084677
H94	H	-1.097368	0.020153	-0.085216
H95	H	-0.889827	0.068585	-0.085355
H96	H	-0.889747	0.068678	0.084555
H97	H	-0.956244	0.169603	-0.000426
C98	C	-1.308373	0.361372	0.659516
C99	C	-1.234209	0.435446	0.559575
C100	C	-1.149383	0.520109	0.635977
H101	H	-1.353857	0.414192	0.719338
H102	H	-1.255638	0.315727	0.719302
H103	H	-1.286937	0.481088	0.499814
H104	H	-1.188698	0.382660	0.499751
H105	H	-1.096648	0.474464	0.695763
H106	H	-1.194877	0.572920	0.695796
H107	H	-1.099045	0.570370	0.568179
H108	H	-1.654410	0.015634	0.777990
H109	H	-0.866278	0.181716	-0.241071
C110	C	-1.121882	0.188211	-0.277046
C111	C	-1.210249	0.082320	-0.284810
C112	C	-1.275896	0.083756	-0.417560
H113	H	-1.164182	0.262584	-0.282702
H114	H	-1.064164	0.186618	-0.356181
H115	H	-1.267959	0.083924	-0.205696
H116	H	-1.167983	0.007929	-0.279180
H117	H	-1.218178	0.082163	-0.496695
H118	H	-1.318187	0.158134	-0.423204
H119	H	-1.335852	0.011905	-0.422852
H120	H	-0.747329	0.178604	0.265423
H121	H	-1.250226	-0.524907	-0.000143
H122	H	-1.262797	-0.049489	-0.000187
H123	H	-1.689282	-0.459305	-0.000169
H124	H	-1.654433	0.015699	0.221605
H125	H	-1.331490	0.338372	0.360781
