data_functionalizedCrystal
_audit_creation_method	'MofGen! by Chris Wilmer'
_symmetry_space_group_name_H-M	'P1'
_symmetry_Int_Tables_number	1
_symmetry_cell_setting	triclinic
loop_
_symmetry_equiv_pos_as_xyz
  x,y,z
_cell_length_a	16.120530
_cell_length_b	18.050589
_cell_length_c	16.120297
_cell_angle_alpha	87.124343
_cell_angle_beta	89.871860
_cell_angle_gamma	87.123928
loop_
_atom_site_label
_atom_site_type_symbol
_atom_site_fract_x
_atom_site_fract_y
_atom_site_fract_z
Zn1	Zn	1.247404	-0.376248	0.534587
Zn2	Zn	1.747404	0.123752	1.034587
Zn3	Zn	1.254344	-0.494473	0.395537
Zn4	Zn	1.754344	0.005527	0.895537
Zn5	Zn	1.115396	-0.363698	0.388504
Zn6	Zn	1.615396	0.136302	0.888504
Zn7	Zn	1.108300	-0.493789	0.527506
Zn8	Zn	1.608300	0.006211	1.027506
O9	O	1.181361	-0.432052	0.461533
O10	O	1.681361	0.067948	0.961533
O11	O	1.364691	-0.397469	0.522048
O12	O	1.864691	0.102531	1.022048
O13	O	1.241786	-0.472159	0.278238
O14	O	1.741786	0.027841	0.778238
O15	O	1.132972	-0.261442	0.407903
O16	O	1.632972	0.238558	0.907903
O17	O	1.369789	-0.484328	0.419888
O18	O	1.869789	0.015672	0.919888
O19	O	1.229959	-0.270662	0.515230
O20	O	1.729959	0.229338	1.015230
O21	O	1.139701	-0.376080	0.273071
O22	O	1.639701	0.123920	0.773071
O23	O	0.998089	-0.375417	0.401037
O24	O	1.498089	0.124583	0.901037
O25	O	1.120879	-0.483162	0.644811
O26	O	1.620879	0.016838	1.144811
O27	O	0.992876	-0.470994	0.503160
O28	O	1.492876	0.029006	1.003160
O29	O	1.223078	-0.396806	0.650014
O30	O	1.723078	0.103194	1.150014
O31	O	1.234906	-0.598303	0.413022
O32	O	1.734906	-0.098303	0.913022
O33	O	1.127608	-0.597800	0.509979
O34	O	1.627608	-0.097800	1.009979
C35	C	0.965310	-0.421770	0.450568
C36	C	1.465310	0.078230	0.950568
C37	C	0.872881	-0.417390	0.445896
C38	C	1.372881	0.082610	0.945896
C39	C	0.703653	-0.409376	0.437374
C40	C	1.203653	0.090624	0.937374
C41	C	0.659907	-0.454785	0.485754
C42	C	1.159907	0.045215	0.985754
C43	C	0.565742	-0.450326	0.481012
C44	C	1.065742	0.049674	0.981012
C45	C	0.797826	-0.413834	0.442115
C46	C	1.297826	0.086166	0.942115
C47	C	1.181261	-0.624999	0.461515
C48	C	1.681261	-0.124999	0.961515
C49	C	1.181293	-0.707547	0.461538
C50	C	1.681293	-0.207547	0.961538
C51	C	1.123001	-0.906753	0.514247
C52	C	1.623001	-0.406753	1.014247
C53	C	1.106578	-0.951975	0.437341
C54	C	1.606578	-0.451975	0.937341
C55	C	1.181375	-0.858682	0.461553
C56	C	1.681375	-0.358682	0.961553
C57	C	1.197838	-0.960544	0.538470
C58	C	1.697838	-0.460544	1.038470
C59	C	1.181451	-1.004671	0.461574
C60	C	1.681451	-0.504671	0.961574
C61	C	1.164914	-0.902813	0.384605
C62	C	1.664914	-0.402813	0.884605
C63	C	1.256207	-0.911381	0.485787
C64	C	1.756207	-0.411381	0.985787
C65	C	1.239815	-0.956580	0.408830
C66	C	1.739815	-0.456580	0.908830
C67	C	1.181328	-0.774581	0.461542
C68	C	1.681328	-0.274581	0.961542
C69	C	1.181498	-1.088770	0.461577
C70	C	1.681498	-0.588770	0.961577
C71	C	1.398256	-0.442375	0.472543
C72	C	1.898256	0.057625	0.972543
C73	C	1.490683	-0.446774	0.477234
C74	C	1.990683	0.053226	0.977234
C75	C	1.170413	-0.441308	0.678428
C76	C	1.670413	0.058692	1.178428
C77	C	1.165748	-0.445252	0.770856
C78	C	1.665748	0.054748	1.270856
C79	C	1.181483	-0.238354	0.461572
C80	C	1.681483	0.261646	0.961572
C81	C	1.181535	-0.155811	0.461588
C82	C	1.681535	0.344189	0.961588
C83	C	1.192314	-0.422781	0.245485
C84	C	1.692314	0.077219	0.745485
C85	C	1.197141	-0.418635	0.153066
C86	C	1.697141	0.081365	0.653066
C87	C	1.157199	-0.452435	0.940081
C88	C	1.657199	0.047565	1.440081
C89	C	1.205687	-0.411454	0.983846
C90	C	1.705687	0.088546	1.483846
C91	C	1.200930	-0.415451	1.078009
C92	C	1.700930	0.084549	1.578009
C93	C	1.161955	-0.448439	0.845910
C94	C	1.661955	0.051561	1.345910
H95	H	1.073570	-0.884877	0.558738
H96	H	1.573570	-0.384877	1.058738
O97	O	1.214522	-0.990720	0.616000
O98	O	1.714522	-0.490720	1.116000
C99	C	1.287676	-1.036813	0.614043
C100	C	1.787676	-0.536813	1.114043
H101	H	1.298448	-1.055647	0.548263
H102	H	1.798448	-0.555647	1.048263
H103	H	1.281040	-1.087453	0.658281
H104	H	1.781040	-0.587453	1.158281
H105	H	1.342692	-1.004614	0.634003
H106	H	1.842692	-0.504614	1.134003
O107	O	1.331673	-0.889871	0.510111
O108	O	1.831673	-0.389871	1.010111
C109	C	1.366478	-0.845579	0.445803
C110	C	1.866478	-0.345579	0.945803
H111	H	1.337732	-0.858413	0.383920
H112	H	1.837732	-0.358413	0.883920
H113	H	1.436445	-0.858101	0.443580
H114	H	1.936445	-0.358101	0.943580
H115	H	1.353401	-0.784411	0.457907
H116	H	1.853401	-0.284411	0.957907
H117	H	1.289216	-0.978312	0.364224
H118	H	1.789216	-0.478312	0.864224
H119	H	1.250770	-0.373367	0.950596
H120	H	1.750770	0.126633	1.450596
H121	H	0.670386	-0.367156	0.392397
H122	H	1.170386	0.132844	0.892397
H123	H	0.693175	-0.497008	0.530735
H124	H	1.193175	0.002992	1.030735
H125	H	1.043330	-0.969970	0.416862
H126	H	1.543330	-0.469970	0.916862
O127	O	1.148221	-0.872713	0.307045
O128	O	1.648221	-0.372713	0.807045
C129	C	1.148367	-0.794655	0.307973
C130	C	1.648367	-0.294655	0.807973
H131	H	1.135710	-0.776589	0.373756
H132	H	1.635710	-0.276589	0.873756
H133	H	1.097996	-0.768906	0.264450
H134	H	1.597996	-0.268906	0.764450
H135	H	1.211512	-0.775351	0.286464
H136	H	1.711512	-0.275351	0.786464
H137	H	1.112120	-0.490519	0.973329
H138	H	1.612120	0.009481	1.473329
