data_functionalizedCrystal
_audit_creation_method	'MofGen! by Chris Wilmer'
_symmetry_space_group_name_H-M	'P1'
_symmetry_Int_Tables_number	1
_symmetry_cell_setting	triclinic
loop_
_symmetry_equiv_pos_as_xyz
  x,y,z
_cell_length_a	18.215407
_cell_length_b	16.625545
_cell_length_c	16.625539
_cell_angle_alpha	89.973630
_cell_angle_beta	90.017219
_cell_angle_gamma	89.975515
loop_
_atom_site_label
_atom_site_type_symbol
_atom_site_fract_x
_atom_site_fract_y
_atom_site_fract_z
Zn1	Zn	1.125057	0.321005	0.455913
Zn2	Zn	1.625057	0.821005	0.955913
Zn3	Zn	1.124973	0.455844	0.321081
Zn4	Zn	1.624973	0.955844	0.821081
Zn5	Zn	1.001995	0.321030	0.321093
Zn6	Zn	1.501995	0.821030	0.821093
Zn7	Zn	1.001958	0.455801	0.455870
Zn8	Zn	1.501958	0.955801	0.955870
O9	O	1.063496	0.388420	0.388489
O10	O	1.563496	0.888420	0.888489
O11	O	1.228030	0.338900	0.438040
O12	O	1.728030	0.838900	0.938040
O13	O	1.108641	0.437989	0.208250
O14	O	1.608641	0.937989	0.708250
O15	O	1.018371	0.208195	0.339001
O16	O	1.518371	0.708195	0.839001
O17	O	1.227969	0.437965	0.338979
O18	O	1.727969	0.937965	0.838979
O19	O	1.108784	0.208176	0.438052
O20	O	1.608784	0.708176	0.938052
O21	O	1.018289	0.338942	0.208259
O22	O	1.518289	0.838942	0.708259
O23	O	0.899006	0.338900	0.338959
O24	O	1.399006	0.838900	0.838959
O25	O	1.018306	0.437891	0.568708
O26	O	1.518306	0.937891	1.068708
O27	O	0.898978	0.437915	0.437979
O28	O	1.398978	0.937915	0.937979
O29	O	1.108747	0.338858	0.568740
O30	O	1.608747	0.838858	1.068740
O31	O	1.108604	0.568671	0.338937
O32	O	1.608604	1.068671	0.838937
O33	O	1.018225	0.568639	0.437967
O34	O	1.518225	1.068639	0.937967
C35	C	0.872290	0.388406	0.388466
C36	C	1.372290	0.888406	0.888466
C37	C	0.790491	0.388420	0.388475
C38	C	1.290491	0.888420	0.888475
C39	C	0.602302	0.440058	0.439970
C40	C	1.102302	0.940058	0.939970
C41	C	0.525443	0.440061	0.439980
C42	C	1.025443	0.940061	0.939980
C43	C	0.525442	0.336797	0.337026
C44	C	1.025442	0.836797	0.837026
C45	C	0.602300	0.336791	0.337021
C46	C	1.102300	0.836791	0.837021
C47	C	0.640727	0.388426	0.388492
C48	C	1.140727	0.888426	0.888492
C49	C	0.487011	0.388435	0.388507
C50	C	0.987011	0.888435	0.888507
C51	C	0.403677	0.388437	0.388518
C52	C	0.903677	0.888437	0.888518
C53	C	0.724066	0.388423	0.388482
C54	C	1.224066	0.888423	0.888482
C55	C	1.063421	0.597911	0.388463
C56	C	1.563421	1.097911	0.888463
C57	C	1.063456	0.687532	0.388479
C58	C	1.563456	1.187532	0.888479
C59	C	1.063576	1.015708	0.388576
C60	C	1.563576	1.515708	0.888576
C61	C	1.063541	0.924399	0.388551
C62	C	1.563541	1.424399	0.888551
C63	C	1.063516	0.851623	0.388527
C64	C	1.563516	1.351623	0.888527
C65	C	1.063481	0.760309	0.388503
C66	C	1.563481	1.260309	0.888503
C67	C	1.255449	0.388435	0.388513
C68	C	1.755449	0.888435	0.888513
C69	C	1.337248	0.388441	0.388523
C70	C	1.837248	0.888441	0.888523
C71	C	1.063532	0.388367	0.598798
C72	C	1.563532	0.888367	1.098798
C73	C	1.063547	0.388344	0.688420
C74	C	1.563547	0.888344	1.188420
C75	C	1.063585	1.178111	0.388542
C76	C	1.563585	1.678111	0.888542
C77	C	1.063607	1.088490	0.388589
C78	C	1.563607	1.588490	0.888589
C79	C	1.063502	0.388415	0.178999
C80	C	1.563502	0.888415	0.678999
C81	C	1.063630	0.388210	0.089378
C82	C	1.563630	0.888210	0.589378
C83	C	1.063559	0.388326	0.761202
C84	C	1.563559	0.888326	1.261202
C85	C	1.063577	0.388296	0.852511
C86	C	1.563577	0.888296	1.352511
C87	C	1.063594	0.388268	0.925287
C88	C	1.563594	0.888268	1.425287
C89	C	1.063612	0.388239	1.016601
C90	C	1.563612	0.888239	1.516601
H91	H	0.494145	0.294758	0.295119
H92	H	0.994145	0.794758	0.795119
H93	H	0.633587	0.294741	0.295100
H94	H	1.133587	0.794741	0.795100
H95	H	0.633587	0.482101	0.481883
H96	H	1.133587	0.982101	0.981883
H97	H	0.494160	0.482104	0.481901
H98	H	0.994160	0.982104	0.981901
