data_functionalizedCrystal
_audit_creation_method	'MofGen! by Chris Wilmer'
_symmetry_space_group_name_H-M	'P1'
_symmetry_Int_Tables_number	1
_symmetry_cell_setting	triclinic
loop_
_symmetry_equiv_pos_as_xyz
  x,y,z
_cell_length_a	15.698487
_cell_length_b	18.760493
_cell_length_c	18.760492
_cell_angle_alpha	89.996630
_cell_angle_beta	59.999370
_cell_angle_gamma	59.999396
loop_
_atom_site_label
_atom_site_type_symbol
_atom_site_fract_x
_atom_site_fract_y
_atom_site_fract_z
Zr1	Zr	0.932399	0.686686	-0.093529
O2	O	1.110110	0.572875	-0.207341
O3	O	0.754688	0.721575	-0.058642
O4	O	0.932399	0.721582	-0.207346
O5	O	0.932399	0.572861	0.058665
O6	O	0.932400	0.838885	-0.207347
O7	O	0.932399	0.572868	-0.058638
O8	O	0.614507	0.838872	0.058657
O9	O	1.250291	0.572875	-0.207339
O10	O	0.827784	0.823996	-0.043761
O11	O	0.827783	0.736450	0.043782
O12	O	1.037015	0.736459	-0.131298
O13	O	1.037015	0.648913	-0.043756
Zr14	Zr	0.932399	0.873760	0.093554
Zr15	Zr	0.932399	0.873770	-0.093531
Zr16	Zr	0.932399	0.686676	0.093555
Zr17	Zr	1.155972	0.686685	-0.093525
Zr18	Zr	0.708826	0.873760	0.093550
O19	O	1.110110	0.838871	0.058667
O20	O	1.110110	0.838885	-0.207343
O21	O	1.110109	0.572861	0.058669
O22	O	0.754688	0.987571	0.207366
O23	O	0.754689	0.987584	-0.058644
O24	O	0.754688	0.721561	0.207368
O25	O	0.932400	0.987584	-0.058641
O26	O	0.932399	0.838863	0.207371
O27	O	0.932399	0.721561	0.207371
O28	O	0.932399	0.987578	0.058662
O29	O	1.250291	0.721582	-0.207340
O30	O	0.614507	0.838864	0.207365
O31	O	0.614507	0.987571	0.207363
O32	O	0.614507	0.987579	0.058656
O33	O	1.250291	0.572867	-0.058632
O34	O	1.250291	0.721574	-0.058633
O35	O	0.827783	0.823987	0.131323
O36	O	0.827784	0.911533	0.043780
O37	O	1.037015	0.823996	-0.043757
O38	O	1.037015	0.736450	0.043786
C39	C	0.652743	0.780223	0.000007
C40	C	0.557831	0.780223	0.000005
C41	C	0.932399	0.780211	0.234027
C42	C	0.932399	0.780207	0.313449
C43	C	0.932399	1.014237	0.000011
C44	C	0.932400	1.093659	0.000010
C45	C	0.384048	0.780221	0.000021
C46	C	0.480753	0.780220	0.000014
C47	C	1.212055	0.780223	0.000018
C48	C	1.306967	0.780222	0.000019
C49	C	0.932399	0.546209	0.000014
C50	C	0.932399	0.466787	0.000015
C51	C	1.041620	1.383779	-0.045681
C52	C	0.823179	1.475165	0.045710
C53	C	0.823177	1.400545	0.045708
C54	C	0.932398	1.317537	0.000013
C55	C	1.041622	1.309150	-0.045682
C56	C	0.713956	1.408925	0.091409
C57	C	0.713949	1.334302	0.091410
C58	C	0.823172	1.251293	0.045709
C59	C	0.932400	1.242908	0.000012
C60	C	1.041621	1.159901	-0.045684
C61	C	1.150850	1.151515	-0.091386
C62	C	1.150844	1.226141	-0.091383
C63	C	0.823178	1.176666	0.045706
C64	C	1.041623	1.085272	-0.045684
C65	C	0.932399	0.780235	-0.234002
C66	C	0.932400	0.780239	-0.313424
C67	C	0.823178	0.825932	0.694959
C68	C	1.041619	0.734541	0.603565
C69	C	1.041621	0.734533	0.528943
C70	C	0.932400	0.780225	0.537326
C71	C	0.823177	0.825927	0.620332
C72	C	1.150843	0.688839	0.445932
C73	C	1.150849	0.688830	0.371304
C74	C	1.041626	0.734518	0.379686
C75	C	0.932398	0.780220	0.462699
C76	C	0.823177	0.825913	0.471082
C77	C	0.713948	0.871611	0.554094
C78	C	0.713954	0.871615	0.628715
C79	C	1.041620	0.734514	0.305065
C80	C	0.823175	0.825908	0.396455
C81	C	0.652744	1.014237	0.000005
C82	C	0.557831	1.093659	0.000003
C83	C	0.652743	0.780211	0.234021
C84	C	0.557830	0.780207	0.313442
C85	C	0.652743	1.014225	0.234020
C86	C	0.557831	1.093643	0.313439
C87	C	1.212055	0.546221	-0.233995
C88	C	1.306967	0.466803	-0.313415
C89	C	1.212054	0.546209	0.000019
C90	C	1.306967	0.466786	0.000022
C91	C	1.212055	0.780235	-0.233997
C92	C	1.306968	0.780239	-0.313417
C93	C	0.513259	1.085263	-0.045702
C94	C	0.424091	1.159882	-0.045721
C95	C	0.379491	1.242895	-0.000031
C96	C	0.424072	1.251290	0.045675
C97	C	0.513244	1.176672	0.045689
C98	C	0.513258	0.825899	0.396442
C99	C	0.424090	0.825891	0.471073
C100	C	0.379490	0.780197	0.462702
C101	C	0.424070	0.734500	0.379693
C102	C	0.513243	0.734503	0.305064
C103	C	0.513259	1.176645	0.305040
C104	C	0.424091	1.251274	0.379656
C105	C	0.379490	1.242899	0.462671
C106	C	0.424071	1.159889	0.471069
C107	C	0.513243	1.085262	0.396454
C108	C	1.351550	0.383801	-0.305015
C109	C	1.440746	0.309172	-0.379631
C110	C	1.485351	0.317547	-0.462647
C111	C	1.440765	0.400557	-0.471045
C112	C	1.351577	0.475184	-0.396429
C113	C	1.351548	0.475182	0.045718
C114	C	1.440741	0.400564	0.045718
C115	C	1.485344	0.317550	0.000024
C116	C	1.440760	0.309156	-0.045678
C117	C	1.351575	0.383774	-0.045682
C118	C	1.351540	0.825942	-0.305018
C119	C	1.440709	0.825963	-0.379635
C120	C	1.485310	0.780275	-0.462650
C121	C	1.440729	0.734570	-0.471047
C122	C	1.351556	0.734555	-0.396431
H123	H	1.130566	1.017686	-0.082900
Br124	Br	1.606383	0.216291	0.000039
Br125	Br	0.573718	0.672490	0.192423
Br126	Br	0.565736	1.521577	0.153466
Br127	Br	0.363528	0.672491	0.368347
Br128	Br	0.674938	0.887914	0.407841
H129	H	0.549560	1.183480	0.237451
H130	H	0.387745	1.318889	0.082874
Br131	Br	0.565724	0.933628	0.565460
H132	H	0.625025	0.908821	0.696307
Br133	Br	0.573762	0.887924	0.407827
Br134	Br	0.565714	1.345688	0.153436
H135	H	0.387803	0.863107	0.538655
H136	H	1.130552	1.376956	-0.082894
H137	H	0.734247	0.863135	0.762549
H138	H	0.387805	1.153030	-0.082940
Br139	Br	0.363605	1.363919	0.368238
H140	H	1.477094	0.407366	-0.538645
H141	H	1.477057	0.697373	-0.538648
Br142	Br	1.501235	0.196527	-0.368213
Br143	Br	0.258469	1.344189	0.563928
H144	H	1.315275	0.697335	-0.403282
H145	H	1.557973	0.256773	-0.523396
Br146	Br	0.258469	1.344155	-0.000059
Br147	Br	1.291077	0.587827	-0.407845
Br148	Br	1.606334	0.780303	-0.563907
H149	H	0.549522	1.017681	0.403305
H150	H	0.549523	1.183520	0.082912
H151	H	1.477090	0.241556	-0.082880
H152	H	0.734256	1.542752	0.082918
H153	H	0.306880	0.780202	0.523477
Br154	Br	1.291031	0.887954	-0.192364
H155	H	0.734246	1.183497	0.082920
H156	H	1.239778	1.083920	-0.128588
H157	H	1.315279	0.376925	-0.082891
H158	H	1.239773	1.219322	-0.128591
Br159	Br	1.189841	0.672542	0.592190
H160	H	1.239765	0.651646	0.439114
Br161	Br	1.299084	0.626810	0.258653
H162	H	1.315237	0.376965	-0.237427
Br163	Br	0.363529	1.148538	0.583740
Br164	Br	1.291038	0.587834	0.107735
Br165	Br	1.501197	0.887990	-0.368218
Br166	Br	1.189846	0.672512	0.192415
Br167	Br	0.573772	0.972611	-0.107720
H168	H	1.477027	0.407416	0.082937
