data_functionalizedCrystal
_audit_creation_method	'MofGen! by Chris Wilmer'
_symmetry_space_group_name_H-M	'P1'
_symmetry_Int_Tables_number	1
_symmetry_cell_setting	triclinic
loop_
_symmetry_equiv_pos_as_xyz
  x,y,z
_cell_length_a	13.262390
_cell_length_b	14.044190
_cell_length_c	11.804365
_cell_angle_alpha	102.923601
_cell_angle_beta	62.657606
_cell_angle_gamma	88.642439
loop_
_atom_site_label
_atom_site_type_symbol
_atom_site_fract_x
_atom_site_fract_y
_atom_site_fract_z
O1	O	1.520669	0.013854	-0.591549
O2	O	1.195743	0.047997	-0.486317
O3	O	1.353320	-0.106768	-0.537327
O4	O	1.363093	0.168619	-0.540539
O5	O	1.311832	-0.066063	-0.325841
O6	O	1.154255	0.088703	-0.274830
O7	O	1.479182	0.054559	-0.380063
Cu8	Cu	1.312930	0.075348	-0.308136
Cu9	Cu	1.361995	0.027209	-0.558243
O10	O	1.321605	0.209325	-0.329052
C11	C	1.133165	0.070180	-0.367024
C12	C	1.008509	0.075620	-0.326652
C13	C	0.747596	0.002186	-0.673992
C14	C	0.864717	-0.002931	-0.711926
C15	C	0.900671	0.016707	-0.615611
C16	C	0.819492	0.041462	-0.481355
C17	C	0.702360	0.046572	-0.443417
C18	C	0.855435	0.061092	-0.385036
C19	C	0.774256	0.085847	-0.250780
C20	C	0.657136	0.090957	-0.212848
C21	C	0.621182	0.071319	-0.309164
C22	C	0.972567	0.055983	-0.422974
C23	C	0.927331	0.100368	-0.192399
C24	C	0.810210	0.105485	-0.154464
C25	C	1.328305	-0.121479	-0.430197
C26	C	1.315563	-0.225956	-0.426060
C27	C	1.382633	-0.480184	-0.447828
C28	C	1.292300	-0.417256	-0.418564
C29	C	1.305247	-0.310807	-0.422736
C30	C	1.369687	-0.586644	-0.443657
C31	C	1.541761	0.032376	-0.499358
C32	C	1.666418	0.026934	-0.539739
C33	C	1.346621	0.224035	-0.436185
C34	C	1.359364	0.328510	-0.440330
N35	N	1.278429	0.109205	-0.132227
N36	N	1.396504	-0.006656	-0.734155
C37	C	1.479351	-0.087978	0.176680
C38	C	1.505450	-0.113595	0.043570
C39	C	1.448696	-0.057897	-0.000386
C40	C	1.365841	0.023422	0.088782
C41	C	1.339747	0.049046	0.221903
C42	C	1.309092	0.079127	0.044837
C43	C	1.226237	0.160446	0.134004
C44	C	1.200146	0.186065	0.267112
C45	C	1.256899	0.130368	0.311068
C46	C	1.335186	0.053503	-0.088285
C47	C	1.195582	0.190527	-0.043062
C48	C	1.169484	0.216144	0.090048
H49	H	0.956603	0.116357	-0.113970
H50	H	1.132690	0.252287	0.339711
O51	O	1.534432	-0.142229	0.219268
C52	C	1.513167	-0.240703	0.195748
H53	H	1.488917	-0.256683	0.113091
H54	H	1.593667	-0.292890	0.165423
H55	H	1.439727	-0.252165	0.289708
O56	O	1.188504	-0.448501	-0.384901
C57	C	1.198515	-0.549375	-0.388191
H58	H	1.275881	-0.569774	-0.375761
H59	H	1.117474	-0.563981	-0.304448
H60	H	1.210283	-0.595940	-0.487022
O61	O	1.051516	0.032082	-0.553336
C62	C	1.116109	0.110111	-0.580749
H63	H	1.112528	0.156050	-0.485861
H64	H	1.209052	0.078617	-0.656545
H65	H	1.078982	0.158760	-0.622010
O66	O	1.486582	-0.449262	-0.481531
C67	C	1.568030	-0.528725	-0.507886
H68	H	1.537884	-0.601422	-0.535635
H69	H	1.654138	-0.524097	-0.593261
H70	H	1.577930	-0.524913	-0.416077
H71	H	1.149370	0.235883	-0.078849
O72	O	1.474248	-0.082802	-0.129753
C73	C	1.591318	-0.078373	-0.209345
H74	H	1.640402	-0.086754	-0.153410
H75	H	1.627332	-0.140565	-0.304402
H76	H	1.600886	-0.004222	-0.234585
O77	O	1.415513	-0.025621	-0.174748
C78	C	1.381484	-0.111537	-0.133154
H79	H	1.284488	-0.099697	-0.067481
H80	H	1.406784	-0.176464	-0.223284
H81	H	1.425663	-0.127924	-0.075066
O82	O	0.943415	-0.026948	-0.842388
C83	C	0.886572	-0.043210	-0.919265
H84	H	0.794812	-0.002971	-0.857905
H85	H	0.933718	-0.014078	-1.010055
H86	H	0.885220	-0.125727	-0.951999
O87	O	1.088851	0.295041	0.176668
C88	C	0.982696	0.279929	0.180592
H89	H	0.981737	0.197474	0.146639
H90	H	0.910357	0.310882	0.286017
H91	H	0.970155	0.319209	0.112297
H92	H	1.572910	-0.179803	-0.029026
O93	O	1.231554	0.155430	0.440372
C94	C	1.254649	0.252101	0.474526
H95	H	1.252299	0.294193	0.403442
H96	H	1.187114	0.291554	0.579803
H97	H	1.343207	0.248726	0.467954
O98	O	1.014479	0.011584	-0.652618
C99	C	1.070501	-0.084604	-0.729931
H100	H	1.017708	-0.122062	-0.775864
H101	H	1.158967	-0.080423	-0.811663
H102	H	1.080130	-0.129107	-0.664787
O103	O	0.712600	-0.016711	-0.767484
C104	C	0.641685	0.067208	-0.750974
H105	H	0.661017	0.135787	-0.695991
H106	H	0.658838	0.075262	-0.852021
H107	H	0.547859	0.058436	-0.691564
H108	H	0.525814	0.075487	-0.278284
O109	O	0.578397	0.114877	-0.082394
C110	C	0.597738	0.044813	-0.022980
H111	H	0.690706	0.007355	-0.083789
H112	H	0.580053	0.083448	0.081508
H113	H	0.538096	-0.013018	-0.018614
O114	O	0.731463	0.129406	-0.024014
C115	C	0.750789	0.059343	0.035411
H116	H	0.843757	0.021885	-0.025384
H117	H	0.733090	0.097979	0.139904
H118	H	0.691150	0.001512	0.039766
