data_functionalizedCrystal
_audit_creation_method	'MofGen! by Chris Wilmer'
_symmetry_space_group_name_H-M	'P1'
_symmetry_Int_Tables_number	1
_symmetry_cell_setting	triclinic
loop_
_symmetry_equiv_pos_as_xyz
  x,y,z
_cell_length_a	19.805407
_cell_length_b	12.594516
_cell_length_c	19.805399
_cell_angle_alpha	89.977796
_cell_angle_beta	89.983114
_cell_angle_gamma	90.016053
loop_
_atom_site_label
_atom_site_type_symbol
_atom_site_fract_x
_atom_site_fract_y
_atom_site_fract_z
Zn1	Zn	1.034766	-0.423752	-0.382752
Zn2	Zn	1.534766	0.076248	0.117248
Zn3	Zn	1.034707	-0.601750	-0.269577
Zn4	Zn	1.534707	-0.101750	0.230423
Zn5	Zn	0.921586	-0.423786	-0.269576
Zn6	Zn	1.421586	0.076214	0.230424
Zn7	Zn	0.921565	-0.601689	-0.382723
Zn8	Zn	1.421565	-0.101689	0.117277
O9	O	0.978156	-0.512744	-0.326157
O10	O	1.478156	-0.012744	0.173843
O11	O	1.129475	-0.447375	-0.367751
O12	O	1.629475	0.052625	0.132249
O13	O	1.019685	-0.578182	-0.174860
O14	O	1.519685	-0.078182	0.325140
O15	O	0.936634	-0.274835	-0.284601
O16	O	1.436634	0.225165	0.215399
O17	O	1.129431	-0.578149	-0.284602
O18	O	1.629431	-0.078149	0.215398
O19	O	1.019787	-0.274811	-0.367750
O20	O	1.519787	0.225189	0.132250
O21	O	0.936576	-0.447433	-0.174860
O22	O	1.436576	0.052567	0.325140
O23	O	0.826867	-0.447374	-0.284573
O24	O	1.326867	0.052626	0.215427
O25	O	0.936597	-0.578046	-0.477444
O26	O	1.436597	-0.078046	0.022556
O27	O	0.826851	-0.578078	-0.367702
O28	O	1.326851	-0.078078	0.132298
O29	O	1.019766	-0.447316	-0.477464
O30	O	1.519766	0.052684	0.022536
O31	O	1.019665	-0.750688	-0.284574
O32	O	1.519665	-0.250688	0.215426
O33	O	0.936540	-0.750643	-0.367703
O34	O	1.436540	-0.250643	0.132297
C35	C	0.802300	-0.512724	-0.326135
C36	C	1.302300	-0.012724	0.173865
C37	C	0.727068	-0.512741	-0.326142
C38	C	1.227068	-0.012741	0.173858
C39	C	0.978112	-0.789285	-0.326150
C40	C	1.478112	-0.289285	0.173850
C41	C	0.978155	-0.907590	-0.326170
C42	C	1.478155	-0.407590	0.173830
C43	C	0.691734	-0.580901	-0.369357
C44	C	1.191734	-0.080901	0.130643
C45	C	0.621045	-0.580903	-0.369366
C46	C	1.121045	-0.080903	0.130634
C47	C	0.585693	-0.512749	-0.326157
C48	C	1.085693	-0.012749	0.173843
C49	C	0.621032	-0.444581	-0.282940
C50	C	1.121032	0.055419	0.217060
C51	C	0.691719	-0.444575	-0.282934
C52	C	1.191719	0.055425	0.217066
C53	C	0.335959	-0.444605	-0.282962
C54	C	0.835959	0.055395	0.217038
C55	C	0.265267	-0.444619	-0.282970
C56	C	0.765267	0.055381	0.217030
C57	C	0.265285	-0.580933	-0.369394
C58	C	0.765285	-0.080933	0.130606
C59	C	0.335972	-0.580926	-0.369389
C60	C	0.835972	-0.080926	0.130611
C61	C	0.371305	-0.512755	-0.326175
C62	C	0.871305	-0.012755	0.173825
C63	C	0.447954	-0.512752	-0.326166
C64	C	0.947954	-0.012752	0.173834
C65	C	0.509046	-0.512756	-0.326162
C66	C	1.009046	-0.012756	0.173838
C67	C	0.932939	-0.976858	-0.371352
C68	C	1.432939	-0.476858	0.128648
C69	C	0.916453	-1.047717	-0.309590
C70	C	1.416453	-0.547717	0.190410
C71	C	0.994702	-1.047531	-0.387943
C72	C	1.494702	-0.547531	0.112057
C73	C	0.961636	-0.976891	-0.264375
C74	C	1.461636	-0.476891	0.235625
C75	C	1.039915	-0.976699	-0.342770
C76	C	1.539915	-0.476699	0.157230
C77	C	1.023452	-1.047526	-0.280965
C78	C	1.523452	-0.547526	0.219035
C79	C	1.154699	-0.512765	-0.326179
C80	C	1.654699	-0.012765	0.173821
C81	C	1.229931	-0.512774	-0.326189
C82	C	1.729931	-0.012774	0.173811
C83	C	0.978186	-0.512670	-0.502700
C84	C	1.478186	-0.012670	-0.002700
C85	C	0.978199	-0.512639	-0.577932
C86	C	1.478199	-0.012639	-0.077932
C87	C	0.978219	-0.235123	-0.326178
C88	C	1.478219	0.264877	0.173822
C89	C	0.978246	-0.116818	-0.326188
C90	C	1.478246	0.383182	0.173812
C91	C	0.934936	-0.444551	-0.613275
C92	C	1.434936	0.055449	-0.113275
C93	C	0.934945	-0.444530	-0.683964
C94	C	1.434945	0.055470	-0.183964
C95	C	0.978221	-0.512593	-0.719307
C96	C	1.478221	-0.012593	-0.219307
C97	C	1.021486	-0.580688	-0.683959
C98	C	1.521486	-0.080688	-0.183959
C99	C	1.021472	-0.580713	-0.613272
C100	C	1.521472	-0.080713	-0.113272
C101	C	1.021539	-0.580588	-0.969033
C102	C	1.521539	-0.080588	-0.469033
C103	C	1.021551	-0.580556	-1.039725
C104	C	1.521551	-0.080556	-0.539725
C105	C	0.935012	-0.444406	-1.039724
C106	C	1.435012	0.055594	-0.539724
C107	C	0.934999	-0.444431	-0.969037
C108	C	1.434999	0.055569	-0.469037
C109	C	0.978261	-0.512529	-0.933695
C110	C	1.478261	-0.012529	-0.433695
C111	C	0.978249	-0.512553	-0.857046
C112	C	1.478249	-0.012553	-0.357046
C113	C	0.978237	-0.512565	-0.795955
C114	C	1.478237	-0.012565	-0.295955
C115	C	0.978166	-0.512741	-0.150301
C116	C	1.478166	-0.012741	0.349699
C117	C	0.978284	-0.512472	-0.075069
C118	C	1.478284	-0.012472	0.424931
H119	H	0.720513	-0.636404	-0.404541
H120	H	1.220513	-0.136404	0.095459
N121	N	1.105361	-0.937530	-0.360416
N122	N	1.605361	-0.437530	0.139584
N123	N	1.112477	-0.879411	-0.411096
N124	N	1.612477	-0.379411	0.088904
H125	H	1.158699	-0.851745	-0.423567
H126	H	1.658699	-0.351745	0.076433
N127	N	0.890783	-0.374923	-0.932936
N128	N	1.390783	0.125077	-0.432936
N129	N	0.847636	-0.412389	-0.893485
N130	N	1.347636	0.087611	-0.393485
H131	H	0.816405	-0.363302	-0.867989
H132	H	1.316405	0.136698	-0.367989
N133	N	1.065748	-0.650103	-0.932927
N134	N	1.565748	-0.150103	-0.432927
N135	N	1.065744	-0.650108	-0.869814
N136	N	1.565744	-0.150108	-0.369814
H137	H	1.096974	-0.699195	-0.844311
H138	H	1.596974	-0.199195	-0.344311
H139	H	1.056706	-0.636149	-0.584496
H140	H	1.556706	-0.136149	-0.084496
N141	N	0.890761	-0.374987	-0.720080
N142	N	1.390761	0.125013	-0.220080
N143	N	0.847629	-0.412407	-0.759519
N144	N	1.347629	0.087593	-0.259519
H145	H	0.816423	-0.363289	-0.785029
H146	H	1.316423	0.136711	-0.285029
N147	N	0.584956	-0.650556	-0.413495
N148	N	1.084956	-0.150556	0.086505
N149	N	0.545499	-0.718338	-0.389604
N150	N	1.045499	-0.218338	0.110396
H151	H	0.520012	-0.767538	-0.420770
H152	H	1.020012	-0.267538	0.079230
H153	H	1.056718	-0.636111	-0.712742
H154	H	1.556718	-0.136111	-0.212742
N155	N	1.071477	-1.086200	-0.232993
N156	N	1.571477	-0.586200	0.267007
N157	N	1.105290	-1.022299	-0.198531
N158	N	1.605290	-0.522299	0.301469
H159	H	1.139206	-1.049614	-0.164649
H160	H	1.639206	-0.549614	0.335351
H161	H	1.008662	-1.078560	-0.440176
H162	H	1.508662	-0.578560	0.059824
H163	H	0.364752	-0.636428	-0.404572
H164	H	0.864752	-0.136428	0.095428
H165	H	0.236508	-0.636437	-0.404584
H166	H	0.736508	-0.136437	0.095416
H167	H	0.899699	-0.389121	-0.584503
H168	H	1.399699	0.110879	-0.084503
N169	N	0.890824	-0.374848	-1.075837
N170	N	1.390824	0.125152	-0.575837
N171	N	0.890839	-0.374829	-1.138950
N172	N	1.390839	0.125171	-0.638950
H173	H	0.859635	-0.325702	-1.164454
H174	H	1.359635	0.174298	-0.664454
H175	H	1.056793	-0.635984	-1.068500
H176	H	1.556793	-0.135984	-0.568500
H177	H	0.236485	-0.389113	-0.247783
H178	H	0.736485	0.110887	0.252217
H179	H	0.864266	-1.078934	-0.295564
H180	H	1.364266	-0.578934	0.204436
H181	H	0.364719	-0.389103	-0.247769
H182	H	0.864719	0.110897	0.252231
N183	N	0.584912	-0.374961	-0.238811
N184	N	1.084912	0.125039	0.261189
N185	N	0.521800	-0.374975	-0.238821
N186	N	1.021800	0.125025	0.261179
H187	H	0.496290	-0.325806	-0.207653
H188	H	0.996290	0.174194	0.292347
N189	N	0.944040	-0.938118	-0.198836
N190	N	1.444040	-0.438118	0.301164
N191	N	0.941132	-0.840389	-0.188259
N192	N	1.441132	-0.340389	0.311741
H193	H	0.928698	-0.813002	-0.141975
H194	H	1.428698	-0.313002	0.358025
H195	H	0.894633	-0.945828	-0.409505
H196	H	1.394633	-0.445828	0.090495
N197	N	0.727805	-0.374933	-0.238793
N198	N	1.227805	0.125067	0.261207
N199	N	0.696234	-0.314081	-0.200219
N200	N	1.196234	0.185919	0.299781
H201	H	0.721718	-0.264889	-0.169046
H202	H	1.221718	0.235111	0.330954
