data_functionalizedCrystal
_audit_creation_method	'MofGen! by Chris Wilmer'
_symmetry_space_group_name_H-M	'P1'
_symmetry_Int_Tables_number	1
_symmetry_cell_setting	triclinic
loop_
_symmetry_equiv_pos_as_xyz
  x,y,z
_cell_length_a	12.594516
_cell_length_b	18.215407
_cell_length_c	18.215399
_cell_angle_alpha	90.014769
_cell_angle_beta	89.975485
_cell_angle_gamma	89.988327
loop_
_atom_site_label
_atom_site_type_symbol
_atom_site_fract_x
_atom_site_fract_y
_atom_site_fract_z
Zn1	Zn	-0.423852	-1.125095	-0.416105
Zn2	Zn	-0.601857	-1.125029	-0.293052
Zn3	Zn	-0.423879	-1.002034	-0.293057
Zn4	Zn	-0.601775	-1.002013	-0.416081
O5	O	-0.512841	-1.063543	-0.354574
O6	O	-0.447488	-1.228071	-0.399790
O7	O	-0.578294	-1.108695	-0.190068
O8	O	-0.274930	-1.018395	-0.309392
O9	O	-0.578267	-1.228022	-0.309383
O10	O	-0.274910	-1.108808	-0.399795
O11	O	-0.447534	-1.018331	-0.190072
O12	O	-0.447455	-0.899047	-0.309369
O13	O	-0.578128	-1.018358	-0.519068
O14	O	-0.578154	-0.899031	-0.399754
O15	O	-0.447408	-1.108787	-0.519086
O16	O	-0.750792	-1.108674	-0.309359
O17	O	-0.750732	-1.018294	-0.399748
C18	C	-0.512800	-0.872337	-0.354560
C19	C	-0.512807	-0.790538	-0.354571
C20	C	-0.444842	-0.602368	-0.401719
C21	C	-0.444848	-0.525509	-0.401721
C22	C	-0.580824	-0.525470	-0.307434
C23	C	-0.580812	-0.602327	-0.307429
C24	C	-0.512823	-0.640774	-0.354576
C25	C	-0.512840	-0.487058	-0.354583
C26	C	-0.512847	-0.403724	-0.354585
C27	C	-0.512815	-0.724113	-0.354573
C28	C	-0.789382	-1.063495	-0.354567
C29	C	-0.907687	-1.063541	-0.354588
C30	C	-0.976947	-1.014379	-0.403716
C31	C	-1.047807	-0.996453	-0.336564
C32	C	-1.047626	-1.081534	-0.421752
C33	C	-0.976990	-1.045580	-0.287400
C34	C	-0.976802	-1.130692	-0.372634
C35	C	-1.047631	-1.112792	-0.305435
C36	C	-0.235220	-1.063611	-0.354597
C37	C	-0.116915	-1.063640	-0.354607
C38	C	-0.512756	-1.063578	-0.546527
C39	C	-0.512720	-1.063592	-0.628326
C40	C	-0.512872	-0.255496	-0.354587
C41	C	-0.512856	-0.337295	-0.354588
C42	C	-0.444587	-1.016580	-0.816523
C43	C	-0.444566	-1.016593	-0.893382
C44	C	-0.580725	-1.110693	-0.893367
C45	C	-0.580751	-1.110676	-0.816509
C46	C	-0.512676	-1.063620	-0.778089
C47	C	-0.512629	-1.063650	-0.931805
C48	C	-0.512606	-1.063664	-1.015139
C49	C	-0.512700	-1.063605	-0.694750
C50	C	-0.512849	-1.063551	-0.163368
C51	C	-0.512585	-1.063678	-0.081569
H52	H	-0.389489	-0.494242	-0.440108
H53	H	-0.945593	-1.187421	-0.387913
C54	C	-1.089949	-0.919797	-0.315948
C55	C	-1.062088	-0.852957	-0.363978
C56	C	-1.104225	-0.776301	-0.343368
C57	C	-1.174224	-0.766484	-0.274727
C58	C	-1.202089	-0.833326	-0.226691
C59	C	-1.159951	-0.909983	-0.247302
H60	H	-1.010267	-0.860223	-0.414795
H61	H	-1.083597	-0.726820	-0.378927
H62	H	-1.205417	-0.709738	-0.259470
H63	H	-1.253909	-0.826061	-0.175875
H64	H	-1.180579	-0.959464	-0.211743
H65	H	-0.946090	-1.030336	-0.230593
C66	C	-0.369716	-0.964815	-0.774260
C67	C	-0.248714	-0.970844	-0.784846
C68	C	-0.173843	-0.919075	-0.742585
C69	C	-0.219975	-0.861277	-0.689738
C70	C	-0.340983	-0.855246	-0.679149
C71	C	-0.415854	-0.907014	-0.721410
H72	H	-0.214559	-1.013631	-0.823968
H73	H	-0.084264	-0.923541	-0.750423
H74	H	-0.164551	-0.822955	-0.658453
H75	H	-0.375138	-0.812458	-0.640026
H76	H	-0.505433	-0.902549	-0.713572
H77	H	-1.078472	-1.154409	-0.263849
H78	H	-0.389122	-0.978287	-0.924671
C79	C	-0.655596	-1.162458	-0.935630
C80	C	-0.655567	-1.162483	-1.020171
C81	C	-0.730437	-1.214252	-1.062432
C82	C	-0.805336	-1.265995	-1.020154
C83	C	-0.805368	-1.265972	-0.935609
C84	C	-0.730498	-1.214203	-0.893348
H85	H	-0.600120	-1.124178	-1.051472
H86	H	-0.730412	-1.214269	-1.125018
H87	H	-0.860759	-1.304317	-1.051439
H88	H	-0.860815	-1.304277	-0.904308
H89	H	-0.730522	-1.214186	-0.830762
H90	H	-1.078654	-1.096713	-0.478544
C91	C	-0.935005	-0.958118	-0.459760
C92	C	-0.964441	-0.965501	-0.541474
C93	C	-0.922497	-0.909239	-0.597512
C94	C	-0.851118	-0.845595	-0.571837
C95	C	-0.821679	-0.838210	-0.490119
C96	C	-0.863622	-0.894472	-0.434081
H97	H	-1.017283	-1.012616	-0.560483
H98	H	-0.944290	-0.914706	-0.658005
H99	H	-0.820069	-0.803947	-0.613320
H100	H	-0.768836	-0.791094	-0.471110
H101	H	-0.841829	-0.889004	-0.373588
C102	C	-0.655653	-1.162428	-0.774230
C103	C	-0.646974	-1.246094	-0.784800
C104	C	-0.721876	-1.297842	-0.742522
C105	C	-0.805455	-1.265924	-0.689673
C106	C	-0.814137	-1.182253	-0.679101
C107	C	-0.739236	-1.130505	-0.721379
H108	H	-0.585101	-1.269725	-0.823924
H109	H	-0.715448	-1.359780	-0.750348
H110	H	-0.860901	-1.304230	-0.658376
H111	H	-0.876011	-1.158622	-0.639977
H112	H	-0.745664	-1.068567	-0.713552
H113	H	-0.389477	-0.633670	-0.440106
H114	H	-0.636171	-0.633598	-0.269036
C115	C	-0.655619	-0.483176	-0.255582
C116	C	-0.655643	-0.398636	-0.255589
C117	C	-0.730443	-0.356344	-0.203738
C118	C	-0.805221	-0.398592	-0.151880
C119	C	-0.805201	-0.483137	-0.151872
C120	C	-0.730400	-0.525429	-0.203723
H121	H	-0.600285	-0.367357	-0.293979
H122	H	-0.730458	-0.293758	-0.203745
H123	H	-0.860593	-0.367285	-0.113497
H124	H	-0.860558	-0.514416	-0.113482
H125	H	-0.730385	-0.588014	-0.203716
