data_functionalizedCrystal
_audit_creation_method	'MofGen! by Chris Wilmer'
_symmetry_space_group_name_H-M	'P1'
_symmetry_Int_Tables_number	1
_symmetry_cell_setting	triclinic
loop_
_symmetry_equiv_pos_as_xyz
  x,y,z
_cell_length_a	12.759401
_cell_length_b	16.959454
_cell_length_c	16.959447
_cell_angle_alpha	89.976829
_cell_angle_beta	89.984572
_cell_angle_gamma	90.020236
loop_
_atom_site_label
_atom_site_type_symbol
_atom_site_fract_x
_atom_site_fract_y
_atom_site_fract_z
Zn1	Zn	1.606184	-0.314690	-0.446885
Zn2	Zn	1.606072	-0.446875	-0.314715
Zn3	Zn	1.430496	-0.314714	-0.314727
Zn4	Zn	1.430458	-0.446831	-0.446858
O5	O	1.518303	-0.380778	-0.380796
O6	O	1.753190	-0.332233	-0.429358
O7	O	1.582749	-0.429371	-0.204105
O8	O	1.453864	-0.204100	-0.332275
O9	O	1.753108	-0.429348	-0.332253
O10	O	1.582942	-0.204083	-0.429370
O11	O	1.453755	-0.332274	-0.204115
O12	O	1.283470	-0.332232	-0.332249
O13	O	1.453800	-0.429274	-0.557472
O14	O	1.283442	-0.429297	-0.429324
O15	O	1.582905	-0.332191	-0.557492
O16	O	1.582713	-0.557480	-0.332227
O17	O	1.453691	-0.557448	-0.429312
C18	C	1.245335	-0.380763	-0.380785
C19	C	1.128559	-0.380776	-0.380800
C20	C	1.073710	-0.431399	-0.431263
C21	C	0.963986	-0.431409	-0.431272
C22	C	0.963969	-0.330171	-0.330346
C23	C	1.073691	-0.330157	-0.330342
C24	C	1.073719	-0.489850	-0.489530
C25	C	0.963994	-0.489860	-0.489538
C26	C	1.518214	-0.586144	-0.380783
C27	C	1.518273	-0.674000	-0.380803
C28	C	1.451218	-1.045489	-0.431343
C29	C	1.585680	-1.045463	-0.330330
C30	C	1.585643	-0.962917	-0.330322
C31	C	1.518392	-0.921653	-0.380825
C32	C	1.451177	-0.962936	-0.431336
C33	C	1.652849	-0.921628	-0.279808
C34	C	1.652814	-0.839077	-0.279798
C35	C	1.585567	-0.797812	-0.330305
C36	C	1.518351	-0.839100	-0.380818
C37	C	1.451099	-0.797836	-0.431321
C38	C	1.383888	-0.839122	-0.481838
C39	C	1.383930	-0.921671	-0.481843
C40	C	1.585524	-0.715264	-0.330300
C41	C	1.451058	-0.715283	-0.431314
C42	C	1.792336	-0.380793	-0.380807
C43	C	1.909112	-0.380799	-0.380812
C44	C	1.518361	-0.380725	-0.586964
C45	C	1.518386	-0.380703	-0.674821
C46	C	1.518419	-0.174609	-0.380827
C47	C	1.518469	-0.086753	-0.380840
C48	C	1.451181	-0.431240	-0.716086
C49	C	1.585610	-0.330140	-0.716109
C50	C	1.585632	-0.330114	-0.798655
C51	C	1.518426	-0.380651	-0.839921
C52	C	1.451198	-0.431214	-0.798640
C53	C	1.652851	-0.279546	-0.839942
C54	C	1.652875	-0.279517	-0.922493
C55	C	1.585673	-0.330059	-0.963760
C56	C	1.518443	-0.380625	-0.922474
C57	C	1.451237	-0.431162	-0.963739
C58	C	1.384012	-0.481732	-0.922455
C59	C	1.383997	-0.481755	-0.839907
C60	C	1.585689	-0.330036	-1.046308
C61	C	1.451255	-0.431136	-1.046293
C62	C	1.518304	-0.380773	-0.175430
C63	C	1.518483	-0.380573	-0.087574
H64	H	0.919282	-0.288958	-0.289266
H65	H	1.640414	-0.288856	-1.079918
H66	H	1.707615	-0.238341	-0.956100
H67	H	1.329209	-0.955293	-0.522971
H68	H	0.929995	-0.468017	-0.547734
H69	H	1.640426	-1.079064	-0.289208
C70	C	1.028631	-0.454461	-0.622352
C71	C	1.113966	-0.467817	-0.572204
H72	H	1.053481	-0.440854	-0.673388
H73	H	0.987269	-0.500921	-0.625603
H74	H	0.987280	-0.412541	-0.602079
H75	H	1.155313	-0.509741	-0.592474
H76	H	1.155346	-0.421352	-0.568956
H77	H	1.329126	-0.805516	-0.522955
H78	H	1.707593	-0.955231	-0.238685
C79	C	1.324269	-0.526673	-0.713356
C80	C	1.310098	-0.537331	-0.794526
H81	H	1.278640	-0.560978	-0.685340
H82	H	1.394841	-0.538250	-0.699835
H83	H	1.308919	-0.473564	-0.699845
H84	H	1.325456	-0.590439	-0.808038
H85	H	1.239510	-0.525759	-0.808052
H86	H	1.707563	-0.238399	-0.806338
C87	C	1.600245	-0.223856	-0.623279
C88	C	1.659484	-0.274599	-0.670747
H89	H	1.645858	-0.189573	-0.595268
H90	H	1.554511	-0.193604	-0.655481
H91	H	1.560202	-0.253981	-0.586886
H92	H	1.699521	-0.244474	-0.707144
H93	H	1.705235	-0.304854	-0.638542
H94	H	1.118345	-0.288930	-0.289255
H95	H	1.396499	-1.079108	-0.472475
H96	H	1.707542	-0.805467	-0.238665
H97	H	1.640242	-0.681653	-0.289166
H98	H	1.107727	-0.547968	-0.467499
C99	C	1.318372	-0.531074	-1.037978
C100	C	1.377376	-0.486688	-1.091649
H101	H	1.272759	-0.565365	-1.065980
H102	H	1.364129	-0.561319	-1.005787
H103	H	1.278198	-0.496639	-1.005776
H104	H	1.417557	-0.521123	-1.123847
H105	H	1.331614	-0.456441	-1.123853
H106	H	0.934192	-0.551061	-0.473039
H107	H	1.329287	-0.522875	-0.956064
C108	C	1.318154	-0.723602	-0.531168
C109	C	1.377133	-0.669929	-0.486830
H110	H	1.272513	-0.695601	-0.565437
H111	H	1.363925	-0.755755	-0.561432
H112	H	1.278011	-0.755841	-0.496699
H113	H	1.417282	-0.637693	-0.521298
H114	H	1.331356	-0.637762	-0.456563
H115	H	1.396450	-0.472415	-0.682469
