data_functionalizedCrystal
_audit_creation_method	'MofGen! by Chris Wilmer'
_symmetry_space_group_name_H-M	'P1'
_symmetry_Int_Tables_number	1
_symmetry_cell_setting	triclinic
loop_
_symmetry_equiv_pos_as_xyz
  x,y,z
_cell_length_a	18.215407
_cell_length_b	14.908178
_cell_length_c	18.215399
_cell_angle_alpha	86.671900
_cell_angle_beta	89.985640
_cell_angle_gamma	93.311467
loop_
_atom_site_label
_atom_site_type_symbol
_atom_site_fract_x
_atom_site_fract_y
_atom_site_fract_z
Zn1	Zn	1.108177	-0.359236	-0.399150
Zn2	Zn	1.441510	-0.025903	-0.065817
Zn3	Zn	1.774843	0.307431	0.267517
Zn4	Zn	1.101004	-0.510123	-0.268978
Zn5	Zn	1.434338	-0.176789	0.064355
Zn6	Zn	1.767671	0.156544	0.397689
Zn7	Zn	0.985114	-0.359264	-0.276101
Zn8	Zn	1.318448	-0.025931	0.057232
Zn9	Zn	1.651781	0.307403	0.390565
Zn10	Zn	0.977991	-0.510058	-0.392011
Zn11	Zn	1.311324	-0.176725	-0.058678
Zn12	Zn	1.644658	0.156609	0.274655
O13	O	1.043072	-0.434670	-0.334060
O14	O	1.376405	-0.101337	-0.000727
O15	O	1.709738	0.231997	0.332607
O16	O	1.210209	-0.379267	-0.381889
O17	O	1.543542	-0.045933	-0.048556
O18	O	1.876876	0.287400	0.284778
O19	O	1.085611	-0.490150	-0.166937
O20	O	1.418944	-0.156816	0.166397
O21	O	1.752278	0.176517	0.499730
O22	O	1.007422	-0.233006	-0.298393
O23	O	1.340755	0.100328	0.034941
O24	O	1.674088	0.433661	0.368274
O25	O	1.204939	-0.490122	-0.286252
O26	O	1.538273	-0.156789	0.047081
O27	O	1.871606	0.176544	0.380415
O28	O	1.097835	-0.232985	-0.388796
O29	O	1.431168	0.100348	-0.055463
O30	O	1.764502	0.433681	0.277871
O31	O	1.000467	-0.379314	-0.172170
O32	O	1.333800	-0.045981	0.161163
O33	O	1.667134	0.287352	0.494496
O34	O	0.881186	-0.379252	-0.291471
O35	O	1.214519	-0.045918	0.041863
O36	O	1.547853	0.287415	0.375196
O37	O	0.995281	-0.490013	-0.495944
O38	O	1.328614	-0.156679	-0.162611
O39	O	1.661948	0.176654	0.170722
O40	O	0.875952	-0.490040	-0.376629
O41	O	1.209286	-0.156706	-0.043296
O42	O	1.542619	0.176627	0.290038
O43	O	1.090928	-0.379204	-0.501189
O44	O	1.424261	-0.045871	-0.167856
O45	O	1.757594	0.287462	0.165478
O46	O	1.078704	-0.636369	-0.279330
O47	O	1.412037	-0.303035	0.054003
O48	O	1.745370	0.030298	0.387337
O49	O	0.988326	-0.636321	-0.369722
O50	O	1.321660	-0.302988	-0.036389
O51	O	1.654993	0.030346	0.296945
C52	C	0.851867	-0.434642	-0.334049
C53	C	1.185200	-0.101309	-0.000715
C54	C	1.518533	0.232024	0.332618
C55	C	0.770067	-0.434652	-0.334060
C56	C	1.103401	-0.101319	-0.000727
C57	C	1.436734	0.232014	0.332607
C58	C	0.584611	-0.377049	-0.383927
C59	C	0.917944	-0.043715	-0.050594
C60	C	1.251277	0.289618	0.282740
C61	C	0.507752	-0.377056	-0.383929
C62	C	0.841085	-0.043723	-0.050596
C63	C	1.174418	0.289610	0.282738
C64	C	0.502284	-0.492317	-0.284205
C65	C	0.835617	-0.158984	0.049128
C66	C	1.168950	0.174350	0.382462
C67	C	0.579142	-0.492304	-0.284200
C68	C	0.912475	-0.158971	0.049133
C69	C	1.245808	0.174363	0.382467
C70	C	0.620303	-0.434671	-0.334065
C71	C	0.953636	-0.101338	-0.000732
C72	C	1.286970	0.231995	0.332602
C73	C	0.466586	-0.434692	-0.334072
C74	C	0.799919	-0.101359	-0.000739
C75	C	1.133253	0.231975	0.332594
C76	C	0.383252	-0.434701	-0.334074
C77	C	0.716585	-0.101367	-0.000741
C78	C	1.049919	0.231966	0.332593
C79	C	0.703642	-0.434661	-0.334062
C80	C	1.036976	-0.101328	-0.000729
C81	C	1.370309	0.232006	0.332604
C82	C	1.031984	-0.669081	-0.322994
C83	C	1.365317	-0.335748	0.010339
C84	C	1.698650	-0.002415	0.343672
C85	C	1.027308	-0.769363	-0.318285
C86	C	1.360641	-0.436030	0.015048
C87	C	1.693974	-0.102697	0.348382
C88	C	1.112597	-0.957632	-0.403673
C89	C	1.445930	-0.624299	-0.070340
C90	C	1.779263	-0.290966	0.262993
C91	C	1.108205	-1.051856	-0.399251
C92	C	1.441539	-0.718523	-0.065918
C93	C	1.774872	-0.385190	0.267416
C94	C	1.014131	-1.052037	-0.305022
C95	C	1.347464	-0.718703	0.028311
C96	C	1.680798	-0.385370	0.361645
C97	C	1.018522	-0.957813	-0.309444
C98	C	1.351855	-0.624479	0.023889
C99	C	1.685189	-0.291146	0.357222
C100	C	1.067757	-0.910614	-0.358771
C101	C	1.401091	-0.577281	-0.025438
C102	C	1.734424	-0.243947	0.307896
C103	C	1.072152	-0.816388	-0.363189
C104	C	1.405485	-0.483055	-0.029856
C105	C	1.738818	-0.149722	0.303477
C106	C	0.978074	-0.816570	-0.268964
C107	C	1.311407	-0.483237	0.064369
C108	C	1.644741	-0.149904	0.397702
C109	C	0.973683	-0.910794	-0.264542
C110	C	1.307016	-0.577461	0.068791
C111	C	1.640349	-0.244128	0.402125
C112	C	1.235023	-0.434699	-0.334072
C113	C	1.568357	-0.101365	-0.000739
C114	C	1.901690	0.231968	0.332595
C115	C	1.316822	-0.434711	-0.334077
C116	C	1.650155	-0.101377	-0.000744
C117	C	1.983488	0.231956	0.332589
C118	C	1.043110	-0.434598	-0.526017
C119	C	1.376443	-0.101265	-0.192683
C120	C	1.709777	0.232069	0.140650
C121	C	1.043126	-0.434567	-0.607817
C122	C	1.376459	-0.101234	-0.274484
C123	C	1.709793	0.232099	0.058850
C124	C	1.054223	-0.199344	-0.345185
C125	C	1.387556	0.133990	-0.011852
C126	C	1.720890	0.467323	0.321481
C127	C	1.058975	-0.099062	-0.349926
C128	C	1.392308	0.234272	-0.016593
C129	C	1.725642	0.567605	0.316741
C130	C	0.998833	-0.376817	-0.798739
C131	C	1.332167	-0.043483	-0.465405
C132	C	1.665500	0.289850	-0.132072
C133	C	0.998847	-0.376798	-0.875598
C134	C	1.332180	-0.043465	-0.542265
C135	C	1.665514	0.289868	-0.208932
C136	C	1.087512	-0.492211	-0.870138
C137	C	1.420845	-0.158877	-0.536805
C138	C	1.754179	0.174456	-0.203471
C139	C	1.087494	-0.492233	-0.793280
C140	C	1.420827	-0.158899	-0.459946
C141	C	1.754161	0.174434	-0.126613
C142	C	1.043156	-0.434531	-0.757582
C143	C	1.376489	-0.101197	-0.424249
C144	C	1.709823	0.232136	-0.090916
C145	C	1.043188	-0.434490	-0.911300
C146	C	1.376521	-0.101157	-0.577967
C147	C	1.709854	0.232176	-0.244634
C148	C	1.043203	-0.434471	-0.994635
C149	C	1.376536	-0.101138	-0.661302
C150	C	1.709869	0.232196	-0.327968
C151	C	1.043140	-0.434551	-0.674242
C152	C	1.376473	-0.101217	-0.340909
C153	C	1.709806	0.232116	-0.007576
C154	C	1.043079	-0.434677	-0.142854
C155	C	1.376412	-0.101344	0.190480
C156	C	1.709746	0.231990	0.523813
C157	C	1.043217	-0.434453	-0.061066
C158	C	1.376551	-0.101120	0.272268
C159	C	1.709884	0.232213	0.605601
H160	H	0.608203	-0.539228	-0.243593
H161	H	0.941536	-0.205895	0.089741
H162	H	1.274869	0.127438	0.423074
H163	H	0.974043	-1.090482	-0.264866
H164	H	1.307376	-0.757149	0.068467
H165	H	1.640709	-0.423815	0.401801
H166	H	0.962754	-0.329803	-0.909105
H167	H	1.296088	0.003531	-0.575772
H168	H	1.629421	0.336864	-0.242438
H169	H	0.468761	-0.539241	-0.243608
H170	H	0.802094	-0.205907	0.089726
H171	H	1.135427	0.127426	0.423059
H172	H	1.123588	-0.539234	-0.759769
H173	H	1.456922	-0.205900	-0.426435
H174	H	1.790255	0.127433	-0.093102
C175	C	1.126311	-0.764471	-0.417450
C176	C	1.459644	-0.431138	-0.084116
C177	C	1.792977	-0.097804	0.249217
N178	N	1.167103	-0.725370	-0.458322
N179	N	1.500436	-0.392036	-0.124989
N180	N	1.833769	-0.058703	0.208345
C181	C	1.136110	-0.555877	-0.909403
C182	C	1.469444	-0.222543	-0.576070
C183	C	1.802777	0.110790	-0.242736
N184	N	1.172654	-0.603903	-0.938973
N185	N	1.505987	-0.270569	-0.605640
N186	N	1.839321	0.062764	-0.272307
H187	H	0.478695	-0.330133	-0.424530
H188	H	0.812028	0.003201	-0.091197
H189	H	1.145361	0.336534	0.242136
H190	H	1.144715	-1.090135	-0.435819
H191	H	1.478048	-0.756802	-0.102486
H192	H	1.811381	-0.423469	0.230848
C193	C	0.629886	-0.313643	-0.438774
C194	C	0.963219	0.019690	-0.105440
C195	C	1.296553	0.353024	0.227893
N196	N	0.663986	-0.265880	-0.480084
N197	N	0.997319	0.067453	-0.146750
N198	N	1.330652	0.400786	0.186583
C199	C	1.166757	-0.905712	-0.457930
C200	C	1.500090	-0.572378	-0.124597
C201	C	1.833424	-0.239045	0.208736
N202	N	1.207551	-0.866606	-0.498799
N203	N	1.540884	-0.533273	-0.165465
N204	N	1.874218	-0.199940	0.167868
C205	C	0.919573	-0.962723	-0.210239
C206	C	1.252906	-0.629390	0.123094
C207	C	1.586240	-0.296057	0.456427
N208	N	0.878835	-1.001836	-0.169319
N209	N	1.212168	-0.668502	0.164014
N210	N	1.545502	-0.335169	0.497347
H211	H	0.941565	-0.778277	-0.232399
H212	H	1.274898	-0.444944	0.100934
H213	H	1.608231	-0.111610	0.434267
C214	C	0.950054	-0.313350	-0.759474
C215	C	1.283387	0.019983	-0.426141
C216	C	1.616721	0.353317	-0.092807
N217	N	0.913309	-0.265548	-0.729902
N218	N	1.246643	0.067786	-0.396568
N219	N	1.579976	0.401119	-0.063235
