data_functionalizedCrystal
_audit_creation_method	'MofGen! by Chris Wilmer'
_symmetry_space_group_name_H-M	'P1'
_symmetry_Int_Tables_number	1
_symmetry_cell_setting	triclinic
loop_
_symmetry_equiv_pos_as_xyz
  x,y,z
_cell_length_a	18.215407
_cell_length_b	12.827892
_cell_length_c	18.215407
_cell_angle_alpha	90.008103
_cell_angle_beta	90.010236
_cell_angle_gamma	90.015840
loop_
_atom_site_label
_atom_site_type_symbol
_atom_site_fract_x
_atom_site_fract_y
_atom_site_fract_z
Zn1	Zn	1.125051	-0.416194	0.416137
Zn2	Zn	1.125000	-0.590905	0.293079
Zn3	Zn	1.002004	-0.416180	0.293084
Zn4	Zn	1.001970	-0.590895	0.416104
O5	O	1.063506	-0.503543	0.354601
O6	O	1.228028	-0.439379	0.399824
O7	O	1.108678	-0.567726	0.190096
O8	O	1.018362	-0.269946	0.309423
O9	O	1.227991	-0.567739	0.309415
O10	O	1.108764	-0.269956	0.399829
O11	O	1.018313	-0.439356	0.190099
O12	O	0.899015	-0.439346	0.309391
O13	O	1.018303	-0.567722	0.519093
O14	O	0.898990	-0.567708	0.399774
O15	O	1.108731	-0.439370	0.519117
O16	O	1.108644	-0.737139	0.309383
O17	O	1.018254	-0.737132	0.399769
C18	C	0.872300	-0.503525	0.354580
C19	C	0.790501	-0.503543	0.354588
C20	C	1.063460	-0.775053	0.354588
C21	C	1.063508	-0.891206	0.354607
C22	C	0.602313	-0.570486	0.401591
C23	C	0.525454	-0.570489	0.401601
C24	C	0.525451	-0.436619	0.307627
C25	C	0.602308	-0.436611	0.307622
C26	C	0.640737	-0.503551	0.354603
C27	C	0.487021	-0.503562	0.354617
C28	C	0.403688	-0.503565	0.354627
C29	C	0.724076	-0.503547	0.354595
C30	C	1.108289	-0.942960	0.309931
C31	C	1.108339	-1.063010	0.309950
C32	C	1.255459	-0.503562	0.354623
C33	C	1.337258	-0.503570	0.354632
C34	C	1.063519	-0.503546	0.546554
C35	C	1.063524	-0.503547	0.628353
C36	C	1.063572	-0.230973	0.354630
C37	C	1.063601	-0.114820	0.354643
C38	C	1.110595	-0.436725	0.816560
C39	C	1.110591	-0.436725	0.893419
C40	C	1.016429	-0.570384	0.893383
C41	C	1.016430	-0.570379	0.816526
C42	C	1.063517	-0.503551	0.778116
C43	C	1.063512	-0.503556	0.931832
C44	C	1.063508	-0.503556	1.015166
C45	C	1.063521	-0.503549	0.694777
C46	C	1.063494	-0.503563	1.163395
C47	C	1.063505	-0.503559	1.081596
H48	H	0.494173	-0.624993	0.439864
O49	O	1.159123	-1.121960	0.259280
H50	H	1.191883	-1.065740	0.226535
H51	H	0.978089	-0.624795	0.785224
H52	H	0.978095	-0.624796	0.924665
O53	O	1.161364	-0.364651	0.934891
H54	H	1.219121	-0.382582	0.920160
H55	H	0.633600	-0.624990	0.439848
H56	H	1.025257	-1.070320	0.392891
O57	O	0.643754	-0.364409	0.256938
H58	H	0.703654	-0.375641	0.264836
O59	O	1.012769	-0.950239	0.405289
H60	H	1.025327	-0.929315	0.463071
O61	O	0.484004	-0.364456	0.256931
H62	H	0.424104	-0.375723	0.264815
O63	O	1.159039	-0.883928	0.259261
H64	H	1.126087	-0.834253	0.221807
O65	O	1.161373	-0.364643	0.775129
H66	H	1.194103	-0.318168	0.814778
