data_functionalizedCrystal
_audit_creation_method	'MofGen! by Chris Wilmer'
_symmetry_space_group_name_H-M	'P1'
_symmetry_Int_Tables_number	1
_symmetry_cell_setting	triclinic
loop_
_symmetry_equiv_pos_as_xyz
  x,y,z
_cell_length_a	19.188930
_cell_length_b	26.210047
_cell_length_c	19.188930
_cell_angle_alpha	89.999369
_cell_angle_beta	96.855221
_cell_angle_gamma	90.022886
loop_
_atom_site_label
_atom_site_type_symbol
_atom_site_fract_x
_atom_site_fract_y
_atom_site_fract_z
O1	O	0.926151	0.042599	-0.087158
O2	O	0.722839	0.042564	-0.098892
O3	O	0.830362	0.042573	0.008631
O4	O	0.818628	0.042591	-0.194680
O5	O	0.830341	-0.042285	0.008614
O6	O	0.722819	-0.042294	-0.098909
O7	O	0.926130	-0.042259	-0.087174
Cu8	Cu	0.824472	-0.050025	-0.093043
Cu9	Cu	0.824497	0.050330	-0.093023
O10	O	0.818607	-0.042267	-0.194697
C11	C	0.696818	0.000131	-0.098520
C12	C	0.619313	0.000117	-0.097380
N13	N	0.824460	-0.120609	-0.093056
C14	C	0.574389	0.000131	-0.160470
C15	C	0.501566	0.000137	-0.159399
C16	C	0.473669	0.000139	-0.095233
C17	C	0.518603	0.000122	-0.032133
C18	C	0.591425	0.000112	-0.033207
N19	N	0.365696	0.029036	-0.046180
N20	N	0.296517	0.029047	-0.045164
C21	C	0.254260	0.000170	-0.091994
N22	N	0.283794	-0.028713	-0.139889
N23	N	0.352979	-0.028722	-0.140906
C24	C	0.394707	0.000150	-0.094061
C25	C	0.130372	0.000188	-0.153928
C26	C	0.057547	0.000191	-0.152853
C27	C	0.074586	0.000182	-0.025586
C28	C	0.147409	0.000174	-0.026662
C29	C	0.175298	0.000180	-0.090835
C30	C	0.872103	-0.473119	-0.045423
C31	C	0.872118	-0.686778	-0.045413
O32	O	0.912599	-0.714396	-0.004916
N33	N	0.824501	-0.713503	-0.093008
C34	C	0.776872	-0.686809	-0.140605
O35	O	0.736366	-0.714443	-0.181083
C36	C	0.776854	-0.473152	-0.140611
C37	C	0.824480	-0.446430	-0.093018
C38	C	0.919724	-0.446397	0.002167
C39	C	0.919723	-0.392985	0.002162
C40	C	0.872099	-0.366296	-0.045434
C41	C	0.824478	-0.393018	-0.093023
C42	C	0.729223	-0.446460	-0.188205
C43	C	0.729222	-0.393042	-0.188201
C44	C	0.776848	-0.366320	-0.140608
C45	C	0.776853	-0.312918	-0.140624
N46	N	0.824471	-0.286193	-0.093029
C47	C	0.872094	-0.312882	-0.045434
C48	C	0.776886	-0.798983	-0.140600
C49	C	0.776891	-0.852397	-0.140599
C50	C	0.872137	-0.852361	-0.045406
C51	C	0.872134	-0.798946	-0.045410
C52	C	0.824504	-0.772258	-0.093005
C53	C	0.872087	-0.200714	-0.045450
C54	C	0.872083	-0.147298	-0.045461
C55	C	0.776836	-0.147338	-0.140652
C56	C	0.776842	-0.200750	-0.140643
C57	C	0.824470	-0.227436	-0.093036
O58	O	0.736388	-0.285266	-0.181094
O59	O	0.912584	-0.285239	-0.004953
C60	C	0.872105	-0.526530	-0.045417
C61	C	0.824484	-0.553253	-0.093007
C62	C	0.776860	-0.526563	-0.140602
C63	C	0.824489	-0.606667	-0.093007
C64	C	0.872112	-0.633356	-0.045411
C65	C	0.919730	-0.606631	0.002183
C66	C	0.919728	-0.553220	0.002178
C67	C	0.729243	-0.553288	-0.188197
C68	C	0.729249	-0.606700	-0.188188
C69	C	0.776872	-0.633389	-0.140593
C70	C	0.952151	0.000175	-0.087546
C71	C	1.029656	0.000192	-0.088687
C72	C	0.829972	0.000142	0.034634
C73	C	0.828831	0.000137	0.112138
N74	N	0.824515	0.120914	-0.093004
C75	C	0.818997	0.000164	-0.220700
C76	C	0.820138	0.000172	-0.298204
C77	C	0.891922	0.000146	0.157062
C78	C	0.890850	0.000154	0.229886
C79	C	0.826684	0.000143	0.257782
C80	C	0.763585	0.000138	0.212849
C81	C	0.764658	0.000135	0.140026
N82	N	0.777630	-0.028744	0.365782
N83	N	0.776614	-0.028742	0.434960
C84	C	0.823446	0.000153	0.477191
N85	N	0.871342	0.029040	0.447631
N86	N	0.872360	0.029036	0.378447
C87	C	0.825513	0.000147	0.336745
C88	C	0.885379	0.000171	0.601079
C89	C	0.884305	0.000182	0.673904
C90	C	0.757038	0.000161	0.656865
C91	C	0.758114	0.000155	0.584042
C92	C	0.822287	0.000157	0.556154
H93	H	0.597091	0.000137	-0.212725
H94	H	0.937632	0.000175	0.578372
C95	C	0.635107	-0.558699	-0.282293
C96	C	0.676895	-0.523956	-0.240523
H97	H	0.602793	-0.540592	-0.314603
H98	H	0.610085	-0.579536	-0.253288
H99	H	0.664104	-0.579527	-0.307325
H100	H	0.647898	-0.503131	-0.215487
H101	H	0.701919	-0.503111	-0.269532
C102	C	0.635073	-0.398447	-0.282294
C103	C	0.676867	-0.363707	-0.240524
H104	H	0.602757	-0.380336	-0.314599
H105	H	0.610053	-0.419284	-0.253288
H106	H	0.664066	-0.419274	-0.307332
H107	H	0.647875	-0.342882	-0.215481
H108	H	0.701889	-0.342860	-0.269534
C109	C	0.945707	0.000161	0.349086
C110	C	0.960204	0.000159	0.279279
H111	H	0.988524	0.000166	0.379577
H112	H	0.919378	-0.029431	0.357515
H113	H	0.919398	0.029753	0.357512
H114	H	0.986508	-0.029435	0.270852
H115	H	0.986544	0.029754	0.270848
C116	C	0.681804	-0.738952	-0.156011
C117	C	0.724534	-0.769650	-0.192927
H118	H	0.649485	-0.720848	-0.188319
H119	H	0.710158	-0.715391	-0.127674
H120	H	0.656783	-0.759802	-0.127011
H121	H	0.749559	-0.748800	-0.221923
H122	H	0.696177	-0.793214	-0.221276
C123	C	0.966236	-0.195299	0.048643
C124	C	0.924442	-0.230043	0.006879
H125	H	0.998560	-0.213406	0.080943
H126	H	0.937248	-0.174475	0.073680
H127	H	0.991252	-0.174458	0.019627
H128	H	0.899421	-0.250881	0.035895
H129	H	0.953433	-0.250875	-0.018160
C130	C	0.234440	0.000178	-0.212083
C131	C	0.161034	0.000186	-0.224463
H132	H	0.253366	0.000178	-0.255630
H133	H	0.249846	-0.029414	-0.186121
H134	H	0.249891	0.029770	-0.186112
H135	H	0.145583	-0.029409	-0.250430
H136	H	0.145622	0.029780	-0.250437
C137	C	0.688565	0.043747	0.284864
C138	C	0.693053	0.000126	0.243512
H139	H	0.645021	0.043738	0.303796
H140	H	0.691633	0.073333	0.256808
H141	H	0.725992	0.043747	0.322041
H142	H	0.655629	0.000127	0.206331
H143	H	0.689978	-0.029468	0.271569
H144	H	0.935683	0.000191	0.710481
H145	H	0.738068	-0.222507	-0.179404
C146	C	0.735455	-0.130894	-0.261625
C147	C	0.724490	-0.117993	-0.192965
H148	H	0.703139	-0.112773	-0.293917
H149	H	0.728633	-0.166524	-0.268436
H150	H	0.782028	-0.122125	-0.269088
H151	H	0.677918	-0.126765	-0.185501
H152	H	0.731306	-0.082354	-0.186151
H153	H	0.713281	0.000128	0.103449
H154	H	0.704792	0.000155	0.679578
C155	C	0.632213	0.000127	0.574518
C156	C	0.688761	0.000137	0.534657
H157	H	0.589396	0.000114	0.544028
H158	H	0.634445	0.029720	0.603270
H159	H	0.634440	-0.029464	0.603281
H160	H	0.686536	0.029730	0.505897
H161	H	0.686527	-0.029459	0.505892
C162	C	0.492031	0.000163	-0.285304
C163	C	0.452173	0.000159	-0.228753
H164	H	0.461538	0.000181	-0.328119
H165	H	0.520757	-0.029434	-0.283092
H166	H	0.520820	0.029750	-0.283059
H167	H	0.423388	-0.029431	-0.230995
H168	H	0.423435	0.029758	-0.230966
H169	H	0.495885	0.000131	0.020111
C170	C	0.600951	0.000105	0.092698
C171	C	0.640811	0.000103	0.036148
H172	H	0.631442	0.000104	0.135513
H173	H	0.572174	-0.029482	0.090466
H174	H	0.572212	0.029702	0.090470
H175	H	0.669545	-0.029496	0.038373
H176	H	0.669600	0.029693	0.038381
H177	H	0.020970	0.000199	-0.204232
H178	H	0.958509	-0.531466	0.040933
C179	C	-0.029475	0.000200	0.032568
C180	C	0.043931	0.000187	0.044948
H181	H	-0.048401	0.000205	0.076115
H182	H	-0.044930	-0.029388	0.006601
H183	H	-0.044878	0.029796	0.006602
H184	H	0.059334	-0.029412	0.070910
H185	H	0.059392	0.029777	0.070926
H186	H	0.183988	0.000166	0.024713
H187	H	0.910868	-0.125542	-0.006705
C188	C	0.935166	-0.666695	0.097242
C189	C	0.972075	-0.635975	0.054504
H190	H	0.967478	-0.684810	0.129545
H191	H	0.906809	-0.690247	0.068893
H192	H	0.906186	-0.645859	0.122283
H193	H	1.001051	-0.656812	0.029460
H194	H	1.000444	-0.612420	0.082858
C195	C	1.013858	-0.398332	0.096261
C196	C	0.972067	-0.363617	0.054486
H197	H	1.046170	-0.380203	0.128569
H198	H	1.038883	-0.419154	0.067258
H199	H	0.984862	-0.419177	0.121295
H200	H	1.001062	-0.342774	0.029448
H201	H	0.947040	-0.342786	0.083492
H202	H	0.958505	-0.468123	0.040928
C203	C	0.966278	-0.804289	0.048683
C204	C	0.924480	-0.769576	0.006911
H205	H	0.998591	-0.786158	0.080988
H206	H	0.991301	-0.825110	0.019678
H207	H	0.937287	-0.825135	0.073720
H208	H	0.953471	-0.748732	-0.018131
H209	H	0.899455	-0.748746	0.035919
H210	H	0.690468	-0.628453	-0.226950
H211	H	0.738118	-0.874150	-0.179361
H212	H	0.910915	-0.874101	-0.006653
H213	H	0.690442	-0.468210	-0.226959
H214	H	0.944176	0.000149	0.134360
