data_functionalizedCrystal
_audit_creation_method	'MofGen! by Chris Wilmer'
_symmetry_space_group_name_H-M	'P1'
_symmetry_Int_Tables_number	1
_symmetry_cell_setting	triclinic
loop_
_symmetry_equiv_pos_as_xyz
  x,y,z
_cell_length_a	25.639242
_cell_length_b	16.120484
_cell_length_c	16.120256
_cell_angle_alpha	84.383827
_cell_angle_beta	92.869764
_cell_angle_gamma	87.078463
loop_
_atom_site_label
_atom_site_type_symbol
_atom_site_fract_x
_atom_site_fract_y
_atom_site_fract_z
Zn1	Zn	0.772385	0.356869	-0.489652
Zn2	Zn	0.772320	0.489555	-0.356962
Zn3	Zn	0.689622	0.349789	-0.349877
Zn4	Zn	0.680261	0.496587	-0.496662
O5	O	0.728647	0.423200	-0.423288
O6	O	0.845540	0.374490	-0.472082
O7	O	0.765240	0.465108	-0.239061
O8	O	0.704546	0.233764	-0.362519
O9	O	0.845492	0.471973	-0.374595
O10	O	0.765352	0.238965	-0.465212
O11	O	0.704483	0.362423	-0.233855
O12	O	0.615217	0.369243	-0.369316
O13	O	0.688591	0.483960	-0.612694
O14	O	0.608339	0.477095	-0.477159
O15	O	0.756275	0.381309	-0.607544
O16	O	0.756163	0.607452	-0.381392
O17	O	0.688528	0.612619	-0.484029
C18	C	0.721336	0.640365	-0.434259
C19	C	0.718255	0.733270	-0.438980
C20	C	0.592808	0.423164	-0.423230
C21	C	0.534693	0.423170	-0.423226
C22	C	0.721396	0.434209	-0.641293
C23	C	0.718306	0.438900	-0.734194
C24	C	0.170754	0.479445	-0.479396
C25	C	0.116149	0.479451	-0.479409
O26	O	0.084874	0.527255	-0.527117
N27	N	0.092405	0.423226	-0.423344
C28	C	0.123270	0.366986	-0.367267
O29	O	0.098060	0.319162	-0.319581
C30	C	0.177874	0.366976	-0.367258
C31	C	0.201614	0.423211	-0.423322
C32	C	0.194495	0.535675	-0.535455
C33	C	0.249096	0.535670	-0.535440
C34	C	0.279956	0.479435	-0.479366
C35	C	0.256215	0.423206	-0.423307
C36	C	0.208737	0.310733	-0.311186
C37	C	0.263345	0.310728	-0.311183
C38	C	0.287085	0.366963	-0.367246
C39	C	0.341677	0.366967	-0.367218
N40	N	0.365421	0.423192	-0.423283
C41	C	0.334560	0.479426	-0.479357
C42	C	0.008598	0.367008	-0.367291
C43	C	-0.046005	0.367020	-0.367295
C44	C	-0.053122	0.479485	-0.479438
C45	C	0.001482	0.479476	-0.479430
C46	C	0.032341	0.423233	-0.423356
C47	C	0.449227	0.479412	-0.479322
C48	C	0.503833	0.479405	-0.479300
C49	C	0.510946	0.366937	-0.367160
C50	C	0.456344	0.366947	-0.367179
C51	C	0.425486	0.423188	-0.423267
O52	O	0.372985	0.319185	-0.319537
O53	O	0.359777	0.527235	-0.527043
C54	C	0.865017	0.423237	-0.423347
C55	C	0.923130	0.423252	-0.423372
C56	C	0.736001	0.205189	-0.412293
C57	C	0.739134	0.112285	-0.407608
C58	C	0.712632	0.903369	-0.447616
C59	C	0.744755	0.942191	-0.398974
C60	C	0.741627	1.036840	-0.403779
C61	C	0.715760	0.808712	-0.442812
C62	C	0.744761	0.398715	-0.943127
C63	C	0.712648	0.447430	-0.904278
C64	C	0.715797	0.442682	-0.809634
C65	C	0.741612	0.403461	-1.037779
C66	C	0.735902	0.412174	-0.206128
C67	C	0.739101	0.407248	-0.113216
H68	H	0.523159	0.525201	-0.524954
C69	C	0.784502	0.891583	-0.338648
C70	C	0.779728	0.806405	-0.345789
C71	C	0.816325	0.759756	-0.290222
H72	H	0.818784	0.906301	-0.351581
H73	H	0.778275	0.902993	-0.283171
H74	H	0.785958	0.795000	-0.401254
H75	H	0.745453	0.791662	-0.332849
H76	H	0.810098	0.771166	-0.234744
H77	H	0.850605	0.774481	-0.303159
H78	H	0.813087	0.701958	-0.295054
C79	C	0.672846	0.953973	-0.507865
C80	C	0.677603	1.039148	-0.500684
C81	C	0.640955	1.085799	-0.556159
H82	H	0.679020	0.942626	-0.563367
H83	H	0.638580	0.939196	-0.494852
H84	H	0.711861	1.053920	-0.513702
H85	H	0.671423	1.050521	-0.445194
H86	H	0.606689	1.071022	-0.543147
H87	H	0.647132	1.074445	-0.611657
H88	H	0.644174	1.143594	-0.551289
C89	C	0.274965	0.596677	-0.596230
C90	C	0.329391	0.584659	-0.584220
C91	C	0.353234	0.640850	-0.640204
H92	H	0.264623	0.587414	-0.651827
H93	H	0.264566	0.652217	-0.586743
H94	H	0.339785	0.529133	-0.593713
H95	H	0.339747	0.593929	-0.528634
H96	H	0.342836	0.696389	-0.630718
H97	H	0.342889	0.631582	-0.695798
H98	H	0.390165	0.632708	-0.632058
H99	H	0.682788	0.492697	-0.942097
H100	H	0.169373	0.581468	-0.581122
C101	C	0.784557	0.338444	-0.892560
C102	C	0.779819	0.345688	-0.807384
C103	C	0.816476	0.290192	-0.760767
H104	H	0.778379	0.282939	-0.903857
H105	H	0.818819	0.351401	-0.907412
H106	H	0.745565	0.332725	-0.792538
H107	H	0.786002	0.401180	-0.796062
H108	H	0.850739	0.303149	-0.775619
H109	H	0.810295	0.234692	-0.772071
H110	H	0.813270	0.295105	-0.702971
H111	H	0.424108	0.525207	-0.524996
C112	C	0.430664	0.305806	-0.306270
C113	C	0.469380	0.256547	-0.257171
C114	C	0.445748	0.200201	-0.201065
H115	H	0.409494	0.335783	-0.271340
H116	H	0.409544	0.271008	-0.336451
H117	H	0.490491	0.291341	-0.226991
H118	H	0.490552	0.226552	-0.292077
H119	H	0.424628	0.165403	-0.231246
H120	H	0.424579	0.230185	-0.166141
H121	H	0.472013	0.166768	-0.167750
H122	H	0.020807	0.525266	-0.525082
H123	H	-0.078259	0.525272	-0.525099
H124	H	-0.065329	0.321237	-0.321635
C125	C	0.042165	0.306083	-0.306355
C126	C	0.073707	0.350612	-0.255099
C127	C	0.104637	0.294517	-0.198963
H128	H	0.020264	0.272580	-0.272887
H129	H	0.063661	0.271334	-0.336516
H130	H	0.052213	0.385346	-0.224939
H131	H	0.095618	0.384112	-0.288543
H132	H	0.126133	0.259768	-0.229125
H133	H	0.082732	0.261017	-0.165502
H134	H	0.126045	0.324721	-0.164185
C135	C	0.182889	0.249665	-0.250435
C136	C	0.151750	0.198573	-0.295127
C137	C	0.127921	0.142327	-0.239181
H138	H	0.209029	0.216092	-0.217005
H139	H	0.161696	0.279747	-0.215606
H140	H	0.172941	0.168494	-0.329942
H141	H	0.125601	0.232123	-0.328554
H142	H	0.106728	0.172408	-0.204351
H143	H	0.154065	0.108759	-0.205754
H144	H	0.106787	0.107659	-0.269495
C145	C	0.296759	0.249631	-0.250202
C146	C	0.264276	0.200407	-0.201096
C147	C	0.295036	0.144127	-0.144902
H148	H	0.318234	0.214797	-0.280290
H149	H	0.318180	0.279685	-0.215291
H150	H	0.242863	0.170355	-0.236003
H151	H	0.242800	0.235218	-0.170990
H152	H	0.316458	0.174181	-0.109992
H153	H	0.316510	0.109299	-0.174997
H154	H	0.273001	0.110727	-0.111572
C155	C	0.544548	0.305919	-0.306377
C156	C	0.597447	0.317939	-0.318389
C157	C	0.628418	0.261732	-0.262424
H158	H	0.537116	0.315164	-0.250774
H159	H	0.537110	0.250384	-0.315881
H160	H	0.604882	0.373460	-0.308879
H161	H	0.604895	0.308687	-0.373981
H162	H	0.620980	0.206198	-0.271927
H163	H	0.620982	0.270983	-0.206824
H164	H	0.664313	0.269875	-0.270571
