data_functionalizedCrystal
_audit_creation_method	'MofGen! by Chris Wilmer'
_symmetry_space_group_name_H-M	'P1'
_symmetry_Int_Tables_number	1
_symmetry_cell_setting	triclinic
loop_
_symmetry_equiv_pos_as_xyz
  x,y,z
_cell_length_a	16.956984
_cell_length_b	19.188924
_cell_length_c	16.053802
_cell_angle_alpha	92.554672
_cell_angle_beta	87.610701
_cell_angle_gamma	79.597691
loop_
_atom_site_label
_atom_site_type_symbol
_atom_site_fract_x
_atom_site_fract_y
_atom_site_fract_z
O1	O	1.061313	0.025799	-0.069434
O2	O	0.829069	0.050317	-0.069436
O3	O	0.951895	-0.063966	-0.069425
O4	O	0.938487	0.140083	-0.069445
O5	O	0.945135	-0.057700	0.069433
O6	O	0.822309	0.056584	0.069422
O7	O	1.054552	0.032066	0.069424
Zn8	Zn	0.937357	0.045319	0.091470
Zn9	Zn	0.946264	0.037064	-0.091482
O10	O	0.931726	0.146349	0.069413
C11	C	0.795976	0.054706	-0.000007
C12	C	0.707443	0.058439	-0.000007
C13	C	0.675577	-0.003971	0.000000
C14	C	0.592390	-0.000459	-0.000006
C15	C	0.541069	0.065462	-0.000014
C16	C	0.572940	0.127876	-0.000024
C17	C	0.656126	0.124364	-0.000024
C18	C	0.291236	0.082846	-0.000022
C19	C	0.208044	0.086353	-0.000019
C20	C	0.227501	-0.041982	-0.000003
C21	C	0.310687	-0.045488	0.000002
C22	C	0.342551	0.016925	-0.000012
N23	N	0.456038	0.069052	-0.000018
N24	N	0.427581	0.013334	-0.000014
C25	C	0.948082	-0.086820	0.000005
C26	C	0.946781	-0.164253	0.000007
C27	C	0.949859	-0.204035	-0.075685
C28	C	0.948626	-0.276790	-0.075691
C29	C	0.944330	-0.309763	-0.000001
C30	C	0.941247	-0.269972	0.075700
C31	C	0.942473	-0.197217	0.075705
N32	N	0.985050	-0.429277	0.056333
N33	N	0.983888	-0.498391	0.056324
C34	C	0.940636	-0.528969	-0.000010
N35	N	0.898602	-0.487824	-0.056346
N36	N	0.899768	-0.418704	-0.056340
C37	C	0.943001	-0.388653	0.000002
C38	C	0.942376	-0.647640	-0.075714
C39	C	0.941138	-0.720396	-0.075717
C40	C	0.933767	-0.713578	0.075677
C41	C	0.934998	-0.640823	0.075678
C42	C	0.939306	-0.607859	-0.000020
C43	C	1.087645	0.027677	-0.000007
C44	C	1.176179	0.023944	-0.000012
C45	C	0.935540	0.169203	-0.000018
C46	C	0.936841	0.246636	-0.000026
N47	N	0.931284	0.050953	0.216330
N48	N	0.952344	0.031424	-0.216342
C49	C	0.983566	0.002340	0.260028
C50	C	0.979325	0.006288	0.347435
C51	C	0.922805	0.058851	0.391141
C52	C	0.870518	0.107466	0.347436
C53	C	0.874756	0.103515	0.260031
C54	C	0.904294	0.076088	0.652549
C55	C	0.900062	0.080037	0.739960
C56	C	1.008868	-0.021143	0.739952
C57	C	1.013104	-0.025087	0.652546
C58	C	0.960814	0.023526	0.608849
N59	N	0.918471	0.062888	0.480484
N60	N	0.965146	0.019485	0.519507
H61	H	0.317169	0.133667	-0.000039
O62	O	0.944449	-0.763311	-0.157357
H63	H	0.889711	-0.787247	-0.160974
H64	H	0.939962	-0.164827	0.137344
H65	H	0.937747	-0.296824	0.137328
H66	H	0.531148	0.181550	-0.000036
H67	H	0.824495	0.150262	0.383027
H68	H	1.051440	-0.060722	0.775538
O69	O	1.074064	-0.081787	0.605416
H70	H	1.135388	-0.075689	0.622186
O71	O	0.947007	-0.612075	-0.157353
H72	H	0.948925	-0.651961	-0.209989
H73	H	0.166259	0.140037	-0.000022
H74	H	0.930264	-0.740423	0.137305
O75	O	1.044512	-0.054369	0.212896
H76	H	1.038677	-0.048952	0.144775
O77	O	0.931698	-0.597912	0.157317
H78	H	0.928513	-0.633062	0.209950
O79	O	0.818371	0.155950	0.212893
H80	H	0.778362	0.193169	0.257967
O81	O	1.035728	-0.046132	0.394570
H82	H	1.075752	-0.083337	0.349494
O83	O	0.690501	0.191676	-0.000022
H84	H	0.640840	0.238106	-0.000017
H85	H	0.953365	-0.177200	-0.137324
H86	H	0.854035	0.122843	0.775541
H87	H	0.951127	-0.309185	-0.137331
H88	H	0.861719	0.115672	0.616978
H89	H	0.566450	-0.051280	-0.000001
O90	O	0.730930	-0.075072	0.000009
H91	H	0.694793	-0.117879	0.000005
O92	O	0.366041	-0.116589	0.000017
H93	H	0.329907	-0.159397	0.000018
H94	H	0.201549	-0.092796	-0.000001
