data_functionalizedCrystal
_audit_creation_method	'MofGen! by Chris Wilmer'
_symmetry_space_group_name_H-M	'P1'
_symmetry_Int_Tables_number	1
_symmetry_cell_setting	triclinic
loop_
_symmetry_equiv_pos_as_xyz
  x,y,z
_cell_length_a	6.394989
_cell_length_b	8.597340
_cell_length_c	7.681481
_cell_angle_alpha	103.474906
_cell_angle_beta	95.906187
_cell_angle_gamma	94.092678
loop_
_atom_site_label
_atom_site_type_symbol
_atom_site_fract_x
_atom_site_fract_y
_atom_site_fract_z
O1	O	-0.288858	2.105650	0.173048
O2	O	-0.322139	1.642258	0.102741
O3	O	-0.001434	1.880531	0.138891
O4	O	-0.609563	1.867377	0.136898
O5	O	0.038128	1.909857	0.436198
O6	O	-0.282577	1.671584	0.400048
O7	O	-0.249296	2.134976	0.470355
Zn8	Zn	-0.259655	1.907936	0.482405
Zn9	Zn	-0.311780	1.869298	0.090691
O10	O	-0.570001	1.896702	0.434205
C11	C	-0.300988	1.597510	0.242380
C12	C	-0.296880	1.420483	0.215521
N13	N	-0.224079	1.934317	0.749742
C14	C	0.096167	1.892593	0.287143
C15	C	0.332402	1.884643	0.285936
C16	C	-0.270448	2.179724	0.330712
C17	C	-0.274557	2.356749	0.357560
N18	N	-0.347339	1.842929	-0.176644
H19	H	-0.312851	1.339608	0.073351
H20	H	-0.473151	1.749641	0.734005
O21	O	-0.255234	1.453398	0.527079
C22	C	-0.075370	1.564951	0.553446
H23	H	-0.034399	1.580638	0.417186
H24	H	0.063360	1.518923	0.625330
C25	C	-0.171964	1.708524	0.836568
C26	C	-0.121653	1.727802	0.669211
H27	H	-0.200507	1.808977	0.907984
H28	H	-0.293138	1.633366	0.818809
H29	H	-0.056346	1.670162	0.896448
H30	H	-0.237279	1.766144	0.609325
H31	H	-0.000498	1.802971	0.686963
O32	O	-0.073718	2.045530	0.856130
C33	C	0.126977	2.010753	0.805973
H34	H	0.108709	1.935998	0.660742
H35	H	0.205360	1.940356	0.899029
C36	C	0.287438	2.260658	1.000038
C37	C	0.265001	2.168853	0.821657
H38	H	0.372583	2.358180	1.009720
H39	H	0.152228	2.284086	1.033836
H40	H	0.352750	2.201975	1.077565
H41	H	0.199667	2.227527	0.744138
H42	H	0.400205	2.145438	0.787847
