data_functionalizedCrystal
_audit_creation_method	'MofGen! by Chris Wilmer'
_symmetry_space_group_name_H-M	'P1'
_symmetry_Int_Tables_number	1
_symmetry_cell_setting	triclinic
loop_
_symmetry_equiv_pos_as_xyz
  x,y,z
_cell_length_a	17.038272
_cell_length_b	17.019294
_cell_length_c	8.140239
_cell_angle_alpha	86.117515
_cell_angle_beta	90.002900
_cell_angle_gamma	87.244363
loop_
_atom_site_label
_atom_site_type_symbol
_atom_site_fract_x
_atom_site_fract_y
_atom_site_fract_z
O1	O	1.037218	0.171285	-0.160635
O2	O	0.809590	0.168565	-0.160298
O3	O	0.929754	0.055519	-0.144273
O4	O	0.917054	0.284332	-0.176660
O5	O	0.929748	0.055517	0.128954
O6	O	0.809583	0.168564	0.112929
O7	O	1.037212	0.171283	0.112593
Zn8	Zn	0.923396	0.169923	0.156142
Zn9	Zn	0.923405	0.169926	-0.203847
O10	O	0.917047	0.284330	0.096567
C11	C	0.780460	0.166091	-0.023341
C12	C	0.693674	0.158710	-0.022315
C13	C	0.643502	0.226471	-0.031905
C14	C	0.561957	0.219531	-0.030900
C15	C	0.530586	0.144831	-0.020317
C16	C	0.580765	0.077066	-0.010722
C17	C	0.662308	0.084006	-0.011715
C18	C	0.284849	0.120313	-0.016803
C19	C	0.203300	0.113378	-0.015815
C20	C	0.184498	0.255844	-0.035991
C21	C	0.266043	0.262778	-0.036993
C22	C	0.316214	0.195013	-0.027389
C23	C	0.447235	0.137736	-0.019295
C24	C	0.399564	0.202108	-0.028399
C25	C	0.929269	0.026096	-0.003499
C26	C	0.927825	-0.061571	0.008898
C27	C	0.927152	-0.102752	-0.134213
C28	C	0.925789	-0.185124	-0.122559
C29	C	0.925106	-0.226315	0.032207
C30	C	0.925777	-0.185128	0.175328
C31	C	0.927133	-0.102757	0.163673
C32	C	0.921004	-0.475023	0.074848
C33	C	0.919650	-0.557400	0.086493
C34	C	0.919661	-0.557390	-0.211397
C35	C	0.921022	-0.475017	-0.223038
C36	C	0.921689	-0.433838	-0.079916
C37	C	0.923716	-0.310513	0.044122
C38	C	0.923073	-0.349641	-0.091833
C39	C	1.066341	0.173758	-0.024368
C40	C	1.153128	0.181138	-0.025405
C41	C	0.917532	0.313752	-0.044211
C42	C	0.918977	0.401420	-0.056618
N43	N	0.923396	0.169921	0.401824
N44	N	0.923411	0.169921	-0.449529
H45	H	0.555216	0.016243	-0.002081
Cl46	Cl	0.918821	-0.609163	-0.391309
Cl47	Cl	0.918795	-0.609182	0.281071
Cl48	Cl	0.921830	-0.423264	0.254775
Cl49	Cl	0.924908	-0.236910	0.369893
H50	H	0.923162	-0.344059	0.170133
H51	H	0.521109	0.274709	-0.038711
Cl52	Cl	0.682930	0.320384	-0.045221
Cl53	Cl	0.305474	0.356691	-0.050309
Cl54	Cl	0.927979	-0.050986	0.343592
Cl55	Cl	0.347911	0.035121	-0.004731
Cl56	Cl	0.163864	0.019462	-0.002473
Cl57	Cl	0.121421	0.341029	-0.048057
Cl58	Cl	0.923937	-0.297858	-0.286389
H59	H	0.927712	-0.069220	-0.260240
Cl60	Cl	0.725382	-0.001182	0.000349
Cl61	Cl	0.439003	0.296014	-0.041698
Cl62	Cl	0.407790	0.043830	-0.005998
Cl63	Cl	0.921883	-0.423241	-0.417609
Cl64	Cl	0.924944	-0.236891	-0.302480
