data_functionalizedCrystal
_audit_creation_method	'MofGen! by Chris Wilmer'
_symmetry_space_group_name_H-M	'P1'
_symmetry_Int_Tables_number	1
_symmetry_cell_setting	triclinic
loop_
_symmetry_equiv_pos_as_xyz
  x,y,z
_cell_length_a	10.540539
_cell_length_b	9.016244
_cell_length_c	10.540510
_cell_angle_alpha	90.000273
_cell_angle_beta	84.519401
_cell_angle_gamma	89.996218
loop_
_atom_site_label
_atom_site_type_symbol
_atom_site_fract_x
_atom_site_fract_y
_atom_site_fract_z
O1	O	1.685874	-0.123209	0.178898
O2	O	1.316459	-0.123238	0.195754
O3	O	1.509614	-0.123222	0.002617
O4	O	1.492719	-0.123225	0.372035
O5	O	1.509586	0.123458	0.002621
O6	O	1.316431	0.123443	0.195758
O7	O	1.685846	0.123471	0.178902
Cu8	Cu	1.501136	0.145981	0.187330
Cu9	Cu	1.501169	-0.145748	0.187325
O10	O	1.492690	0.123456	0.372039
C11	C	1.269142	0.000098	0.194492
C12	C	1.128194	0.000087	0.190710
C13	C	1.508341	0.000115	-0.044685
C14	C	1.504574	0.000106	-0.185635
C15	C	1.733163	0.000132	0.180164
C16	C	1.874110	0.000133	0.183946
N17	N	1.501121	0.351167	0.187333
C18	C	2.057522	0.000652	0.328865
C19	C	1.910904	0.000121	0.325031
C20	C	1.935766	-0.140741	0.116046
C21	C	2.082310	-0.140884	0.120861
C22	C	2.082847	0.139638	0.117998
C23	C	1.935865	0.141525	0.116699
N24	N	1.501193	-0.350934	0.187312
C25	C	1.397479	0.586191	0.290302
C26	C	1.397708	0.414300	0.290688
C27	C	1.633841	0.413516	0.217467
C28	C	1.633275	0.585461	0.218196
C29	C	1.473362	0.585709	0.053893
C30	C	1.470316	0.413754	0.054758
C31	C	1.638758	0.000681	-0.403090
C32	C	1.642776	0.000118	-0.256495
C33	C	1.433844	-0.140764	-0.230396
C34	C	1.430805	-0.140874	-0.377157
C35	C	1.427895	0.139648	-0.376960
C36	C	1.434450	0.141502	-0.230619
C37	C	1.493964	0.000115	0.419340
C38	C	1.497731	0.000115	0.560290
H39	H	1.868301	0.101101	0.378464
C40	C	1.711483	0.137161	-0.459751
H41	H	1.656498	0.195018	-0.506260
H42	H	1.740078	0.195153	-0.392834
H43	H	1.782731	0.105513	-0.515141
H44	H	2.130080	0.140578	0.016091
C45	C	1.421351	0.644479	0.423278
H46	H	1.358276	0.605952	0.484936
H47	H	1.503311	0.613710	0.443257
H48	H	1.417180	0.749733	0.423680
C49	C	1.500226	-0.282384	-0.188730
H50	H	1.456718	-0.367041	-0.216257
H51	H	1.586007	-0.283641	-0.225726
H52	H	1.498889	-0.283847	-0.098492
H53	H	1.333550	0.150000	-0.181552
C54	C	1.421899	0.358697	0.424396
H55	H	1.422117	0.253332	0.425090
H56	H	1.502043	0.394311	0.445536
H57	H	1.356448	0.394131	0.485053
C58	C	1.878219	-0.282352	0.179761
H59	H	1.816635	-0.255925	0.247732
H60	H	1.838649	-0.339336	0.118777
H61	H	1.943878	-0.339145	0.212112
C62	C	1.740655	0.358261	0.118912
H63	H	1.705173	0.296523	0.058370
H64	H	1.781555	0.440801	0.076546
H65	H	1.801125	0.303340	0.161023
H66	H	2.114405	0.246399	0.163661
C67	C	2.098290	-0.135066	0.403844
H68	H	2.158191	-0.192075	0.351318
H69	H	2.136160	-0.102692	0.477259
H70	H	2.025662	-0.194182	0.429191
C71	C	2.120397	-0.283111	0.188683
H72	H	2.210114	-0.284450	0.192222
H73	H	2.078997	-0.285267	0.272764
H74	H	2.095586	-0.367364	0.142896
H75	H	1.913423	-0.145972	0.012437
C76	C	1.903128	0.153062	-0.022245
H77	H	1.851151	0.071425	-0.041151
H78	H	1.858543	0.242984	-0.033359
H79	H	1.979494	0.151867	-0.077949
C80	C	1.667465	0.355340	0.347479
H81	H	1.600803	0.293073	0.383562
H82	H	1.744614	0.300388	0.336219
H83	H	1.677692	0.436682	0.402878
C84	C	1.264486	0.357348	0.266219
H85	H	1.209735	0.439299	0.255958
H86	H	1.270774	0.298611	0.191063
H87	H	1.230743	0.299022	0.336565
C88	C	1.291176	-0.149565	-0.408230
H89	H	1.236559	-0.153023	-0.331186
H90	H	1.271439	-0.064632	-0.455923
H91	H	1.279386	-0.236441	-0.456732
H92	H	1.298555	0.627577	0.272449
H93	H	1.332103	-0.146010	-0.183007
C94	C	1.345356	0.644328	0.015175
H95	H	1.307686	0.707996	0.080025
H96	H	1.359495	0.697880	-0.062500
H97	H	1.289899	0.563259	0.004146
C98	C	1.666144	0.639628	0.349693
H99	H	1.679711	0.556549	0.402167
H100	H	1.741295	0.698282	0.339679
H101	H	1.597682	0.697449	0.388373
C102	C	1.338419	0.358716	0.023897
H103	H	1.302269	0.297839	0.091513
H104	H	1.284344	0.441378	0.014051
H105	H	1.347279	0.302942	-0.052906
H106	H	1.712925	0.627050	0.146206
H107	H	1.540852	0.370784	-0.025564
H108	H	1.324131	0.140588	-0.399110
C109	C	1.486885	0.283891	-0.434286
H110	H	1.554667	0.260360	-0.497030
H111	H	1.423669	0.338889	-0.472397
H112	H	1.518748	0.341396	-0.368791
H113	H	1.485915	0.245716	-0.202005
C114	C	1.575498	0.640644	-0.049671
H115	H	1.558176	0.601989	-0.130072
H116	H	1.574237	0.745933	-0.052576
H117	H	1.657098	0.607882	-0.030258
H118	H	2.086125	0.101662	0.384600
H119	H	1.692301	-0.099764	-0.446598
C120	C	1.854465	-0.136487	0.397734
H121	H	1.921161	-0.191886	0.429715
H122	H	1.796018	-0.105026	0.466665
H123	H	1.811412	-0.196843	0.341673
C124	C	1.717553	0.136516	-0.216846
H125	H	1.745748	0.192768	-0.290394
H126	H	1.663906	0.196114	-0.160035
H127	H	1.789169	0.104803	-0.175669
H128	H	1.479165	-0.246169	-0.417374
C129	C	2.147131	-0.149574	-0.016202
H130	H	2.083869	-0.153012	-0.074576
H131	H	2.199321	-0.064651	-0.033253
H132	H	2.198176	-0.236460	-0.025337
C133	C	1.718009	-0.136512	-0.218108
H134	H	1.720739	-0.137313	-0.128281
H135	H	1.677358	-0.224145	-0.243636
H136	H	1.802365	-0.132352	-0.258714
H137	H	1.894932	0.245742	0.166315
