data_functionalizedCrystal
_audit_creation_method	'MofGen! by Chris Wilmer'
_symmetry_space_group_name_H-M	'P1'
_symmetry_Int_Tables_number	1
_symmetry_cell_setting	triclinic
loop_
_symmetry_equiv_pos_as_xyz
  x,y,z
_cell_length_a	14.519709
_cell_length_b	12.837943
_cell_length_c	11.892095
_cell_angle_alpha	94.310562
_cell_angle_beta	93.895429
_cell_angle_gamma	90.745458
loop_
_atom_site_label
_atom_site_type_symbol
_atom_site_fract_x
_atom_site_fract_y
_atom_site_fract_z
O1	O	0.234472	-1.382515	-0.093988
O2	O	0.734472	-0.882515	0.406012
O3	O	0.222627	-1.080688	-0.093995
O4	O	0.722627	-0.580688	0.406005
O5	O	0.095003	-1.239604	-0.093981
O6	O	0.595003	-0.739604	0.406019
O7	O	0.362096	-1.223600	-0.094002
O8	O	0.862096	-0.723600	0.405998
O9	O	0.105626	-1.226354	0.094025
O10	O	0.605626	-0.726354	0.594025
O11	O	0.233250	-1.067438	0.094012
O12	O	0.733250	-0.567438	0.594012
O13	O	0.245095	-1.369265	0.094018
O14	O	0.745095	-0.869265	0.594018
Zn15	Zn	0.240859	-1.216248	0.123865
Zn16	Zn	0.740859	-0.716248	0.623865
Zn17	Zn	0.226863	-1.233706	-0.123842
Zn18	Zn	0.726863	-0.733706	0.376158
O19	O	0.372719	-1.210350	0.094005
O20	O	0.872719	-0.710350	0.594005
C21	C	0.223937	-1.035435	0.000008
C22	C	0.723937	-0.535435	0.500008
C23	C	0.212002	-0.920336	0.000006
C24	C	0.712002	-0.420336	0.500006
C25	C	0.065890	-1.232233	0.000022
C26	C	0.565890	-0.732233	0.500022
C27	C	-0.036684	-1.229998	0.000023
C28	C	0.463316	-0.729998	0.500023
C29	C	0.243785	-1.414519	0.000013
C30	C	0.743785	-0.914519	0.500013
C31	C	0.255719	-1.529618	0.000008
C32	C	0.755719	-1.029618	0.500008
C33	C	-0.412293	-1.221771	-0.000007
C34	C	0.087707	-0.721771	0.499993
C35	C	-0.307787	-1.224055	0.000002
C36	C	0.192213	-0.724055	0.500002
C37	C	-0.224492	-1.225884	0.000009
C38	C	0.275508	-0.725884	0.500009
C39	C	-0.119979	-1.228169	0.000016
C40	C	0.380021	-0.728169	0.500016
C41	C	0.401831	-1.217721	-0.000001
C42	C	0.901831	-0.717721	0.499999
C43	C	0.504405	-1.219957	-0.000009
C44	C	1.004405	-0.719957	0.499991
N45	N	0.250411	-1.204341	0.292918
N46	N	0.750411	-0.704341	0.792918
C47	C	0.355473	-0.679644	0.000011
C48	C	0.855473	-0.179644	0.500011
C49	C	0.344264	-0.571497	0.000010
C50	C	0.844264	-0.071497	0.500010
C51	C	0.178377	-0.595894	0.000010
C52	C	0.678377	-0.095894	0.500010
C53	C	0.189586	-0.704041	0.000012
C54	C	0.689586	-0.204041	0.500012
C55	C	0.278137	-0.745911	0.000010
C56	C	0.778137	-0.245911	0.500010
C57	C	0.289344	-0.854060	0.000003
C58	C	0.789344	-0.354060	0.500003
C59	C	0.123458	-0.878455	0.000012
C60	C	0.623458	-0.378455	0.500012
C61	C	0.112249	-0.770308	0.000011
C62	C	0.612249	-0.270308	0.500011
N63	N	0.217304	-1.245621	-0.292895
N64	N	0.717304	-0.745621	0.207105
C65	C	0.150784	-1.328473	0.529576
C66	C	0.650784	-0.828473	1.029576
C67	C	0.157468	-1.320158	0.647918
C68	C	0.657468	-0.820158	1.147918
C69	C	0.270458	-1.179391	0.647944
C70	C	0.770458	-0.679391	1.147944
C71	C	0.263774	-1.187707	0.529603
C72	C	0.763774	-0.687707	1.029603
C73	C	0.203936	-1.262251	0.470423
C74	C	0.703936	-0.762251	0.970423
C75	C	0.197257	-1.270570	0.352080
C76	C	0.697257	-0.770570	0.852080
C77	C	0.310242	-1.129800	0.352108
C78	C	0.810242	-0.629800	0.852108
C79	C	0.316926	-1.121484	0.470449
C80	C	0.816926	-0.621484	0.970449
H81	H	0.427575	-0.713735	0.000008
H82	H	0.927575	-0.213735	0.500008
N83	N	0.044464	-0.946160	0.000025
N84	N	0.544464	-0.446160	0.500025
N85	N	0.036687	-1.003648	0.079272
N86	N	0.536687	-0.503648	0.579272
H87	H	-0.019101	-1.051466	0.079279
H88	H	0.480899	-0.551466	0.579279
H89	H	0.407240	-0.517545	0.000013
H90	H	0.907240	-0.017545	0.500013
H91	H	0.114185	-1.374081	0.696077
H92	H	0.614185	-0.874081	1.196077
N93	N	0.087928	-0.553125	0.000032
N94	N	0.587928	-0.053125	0.500032
N95	N	0.038121	-0.567788	0.079286
N96	N	0.538121	-0.067788	0.579286
H97	H	-0.025760	-0.537582	0.079304
H98	H	0.474240	-0.037582	0.579304
H99	H	0.319170	-1.118692	0.696143
H100	H	0.819170	-0.618692	1.196143
N101	N	0.364557	-1.062165	0.291687
N102	N	0.864557	-0.562165	0.791687
N103	N	0.420993	-1.099813	0.225653
N104	N	0.920993	-0.599813	0.725653
H105	H	0.459358	-1.052052	0.182981
H106	H	0.959358	-0.552052	0.682981
N107	N	0.378054	-1.045341	0.530887
N108	N	0.878054	-0.545341	1.030887
N109	N	0.425507	-0.986222	0.478053
N110	N	0.925507	-0.486222	0.978053
H111	H	0.468681	-0.932444	0.520733
H112	H	0.968681	-0.432444	1.020733
H113	H	0.361447	-0.888149	0.000004
H114	H	0.861447	-0.388149	0.500004
H115	H	0.040154	-0.736201	0.000025
H116	H	0.540154	-0.236201	0.500025
H117	H	0.102068	-1.389177	0.481392
H118	H	0.602068	-0.889177	0.981392
N119	N	0.136076	-1.346660	0.291644
N120	N	0.636076	-0.846660	0.791644
N121	N	0.088583	-1.405737	0.344479
N122	N	0.588583	-0.905737	0.844479
H123	H	0.045347	-1.459453	0.301800
H124	H	0.545347	-0.959453	0.801800
