data_functionalizedCrystal
_audit_creation_method	'MofGen! by Chris Wilmer'
_symmetry_space_group_name_H-M	'P1'
_symmetry_Int_Tables_number	1
_symmetry_cell_setting	triclinic
loop_
_symmetry_equiv_pos_as_xyz
  x,y,z
_cell_length_a	14.519709
_cell_length_b	14.519731
_cell_length_c	7.681481
_cell_angle_alpha	84.245782
_cell_angle_beta	95.739713
_cell_angle_gamma	83.684499
loop_
_atom_site_label
_atom_site_type_symbol
_atom_site_fract_x
_atom_site_fract_y
_atom_site_fract_z
O1	O	1.215185	0.129594	-0.146206
O2	O	1.715185	0.629594	0.353794
O3	O	0.946706	0.143833	-0.146261
O4	O	1.446706	0.643833	0.353739
O5	O	1.088055	0.002475	-0.146216
O6	O	1.588055	0.502475	0.353784
O7	O	1.073837	0.270951	-0.146251
O8	O	1.573837	0.770951	0.353749
O9	O	1.105452	-0.014963	0.146647
O10	O	1.605452	0.485037	0.646647
O11	O	0.964104	0.126395	0.146603
O12	O	1.464104	0.626395	0.646603
O13	O	1.232583	0.112155	0.146657
O14	O	1.732583	0.612155	0.646657
Zn15	Zn	1.101106	0.116506	0.193128
Zn16	Zn	1.601106	0.616506	0.693128
Zn17	Zn	1.078183	0.139482	-0.192732
Zn18	Zn	1.578183	0.639482	0.307268
O19	O	1.091234	0.253513	0.146612
O20	O	1.591234	0.753513	0.646612
C21	C	0.921045	0.134451	0.000164
C22	C	1.421045	0.634451	0.500164
C23	C	0.818662	0.132464	0.000144
C24	C	1.318662	0.632464	0.500144
C25	C	1.096087	-0.040603	0.000216
C26	C	1.596087	0.459397	0.500216
C27	C	1.094091	-0.142984	0.000217
C28	C	1.594091	0.357016	0.500217
C29	C	0.443771	0.125140	0.000225
C30	C	0.943771	0.625140	0.500225
C31	C	0.548077	0.127174	0.000202
C32	C	1.048077	0.627174	0.500202
C33	C	0.631213	0.128802	0.000183
C34	C	1.131213	0.628802	0.500183
C35	C	0.735526	0.130836	0.000163
C36	C	1.235526	0.630836	0.500163
C37	C	1.092469	-0.226128	0.000212
C38	C	1.592469	0.273872	0.500212
C39	C	1.090442	-0.330435	0.000198
C40	C	1.590442	0.169565	0.500198
C41	C	1.088833	-0.413574	0.000187
C42	C	1.588833	0.086426	0.500187
C43	C	1.086806	-0.517889	0.000176
C44	C	1.586806	-0.017889	0.500176
C45	C	1.258244	0.121538	0.000228
C46	C	1.758244	0.621538	0.500228
C47	C	1.360626	0.123525	0.000237
C48	C	1.860626	0.623525	0.500237
C49	C	1.083201	0.296592	0.000177
C50	C	1.583201	0.796592	0.500177
C51	C	1.085197	0.398973	0.000164
C52	C	1.585197	0.898973	0.500164
N53	N	1.116756	0.100826	0.456467
N54	N	1.616756	0.600826	0.956467
N55	N	1.062540	0.155156	-0.456071
N56	N	1.562540	0.655156	0.043929
H57	H	1.007197	0.210610	0.468715
H58	H	1.507197	0.710610	0.968715
H59	H	1.172110	0.045374	0.531691
H60	H	1.672110	0.545374	1.031691
