data_functionalizedCrystal
_audit_creation_method	'MofGen! by Chris Wilmer'
_symmetry_space_group_name_H-M	'P1'
_symmetry_Int_Tables_number	1
_symmetry_cell_setting	triclinic
loop_
_symmetry_equiv_pos_as_xyz
  x,y,z
_cell_length_a	17.699083
_cell_length_b	14.519709
_cell_length_c	16.176319
_cell_angle_alpha	89.992256
_cell_angle_beta	89.998611
_cell_angle_gamma	83.481580
loop_
_atom_site_label
_atom_site_type_symbol
_atom_site_fract_x
_atom_site_fract_y
_atom_site_fract_z
O1	O	1.004413	0.116624	-0.068632
O2	O	1.504413	0.616624	0.431368
O3	O	0.784078	0.131798	-0.068660
O4	O	1.284078	0.631798	0.431340
O5	O	0.900087	-0.010052	-0.068638
O6	O	1.400087	0.489948	0.431362
O7	O	0.888403	0.258474	-0.068654
O8	O	1.388403	0.758474	0.431346
O9	O	0.900071	-0.010061	0.068855
O10	O	1.400071	0.489939	0.568855
O11	O	0.784062	0.131789	0.068833
O12	O	1.284062	0.631789	0.568833
O13	O	1.004397	0.116615	0.068861
O14	O	1.504397	0.616615	0.568861
Cu15	Cu	0.894228	0.124201	0.081401
Cu16	Cu	1.394228	0.624201	0.581401
Cu17	Cu	0.894247	0.124212	-0.081200
Cu18	Cu	1.394247	0.624212	0.418800
O19	O	0.888387	0.258465	0.068839
O20	O	1.388387	0.758465	0.568839
C21	C	0.755871	0.131249	0.000083
C22	C	1.255871	0.631249	0.500083
C23	C	0.671848	0.129618	0.000073
C24	C	1.171848	0.629618	0.500073
C25	C	0.623466	0.212881	0.000068
C26	C	1.123466	0.712881	0.500068
C27	C	0.544518	0.211343	0.000079
C28	C	1.044518	0.711343	0.500079
C29	C	0.513954	0.126541	0.000089
C30	C	1.013954	0.626541	0.500089
C31	C	0.562343	0.043272	0.000096
C32	C	1.062343	0.543272	0.500096
C33	C	0.641289	0.044811	0.000091
C34	C	1.141289	0.544811	0.500091
C35	C	0.243962	0.037064	0.000117
C36	C	0.743962	0.537064	0.500117
C37	C	0.165010	0.035531	0.000119
C38	C	0.665010	0.535531	0.500119
C39	C	0.147191	0.203596	0.000105
C40	C	0.647191	0.703596	0.500105
C41	C	0.226137	0.205135	0.000100
C42	C	0.726137	0.705135	0.500100
C43	C	0.274519	0.121866	0.000112
C44	C	0.774519	0.621866	0.500112
C45	C	0.360123	0.123535	0.000102
C46	C	0.860123	0.623535	0.500102
C47	C	0.428352	0.124872	0.000093
C48	C	0.928352	0.624872	0.500093
C49	C	0.899534	-0.044414	0.000109
C50	C	1.399534	0.455586	0.500109
C51	C	0.897903	-0.146789	0.000109
C52	C	1.397903	0.353211	0.500109
C53	C	0.891896	-0.521659	0.000087
C54	C	1.391896	-0.021659	0.500087
C55	C	0.893564	-0.417358	0.000093
C56	C	1.393564	0.082642	0.500093
C57	C	0.894899	-0.334227	0.000099
C58	C	1.394899	0.165773	0.500099
C59	C	0.896568	-0.229920	0.000104
C60	C	1.396568	0.270080	0.500104
C61	C	1.032603	0.117164	0.000116
C62	C	1.532603	0.617164	0.500116
C63	C	1.116626	0.118795	0.000121
C64	C	1.616626	0.618795	0.500121
C65	C	0.888940	0.292827	0.000090
C66	C	1.388940	0.792827	0.500090
C67	C	0.890572	0.395202	0.000085
C68	C	1.390572	0.895202	0.500085
N69	N	0.894220	0.124193	0.195767
N70	N	1.394220	0.624193	0.695767
N71	N	0.894260	0.124213	-0.195565
N72	N	1.394260	0.624213	0.304435
C73	C	0.945604	0.061408	0.239040
C74	C	1.445604	0.561408	0.739040
C75	C	0.945608	0.061407	0.325588
C76	C	1.445608	0.561407	0.825588
C77	C	0.894231	0.124196	0.368859
C78	C	1.394231	0.624196	0.868859
C79	C	0.842841	0.186985	0.325579
C80	C	1.342841	0.686985	0.825579
C81	C	0.842834	0.186981	0.239034
C82	C	1.342834	0.686981	0.739034
C83	C	0.842867	0.187002	0.674608
C84	C	1.342867	0.687002	1.174608
C85	C	0.842879	0.187003	0.761159
C86	C	1.342879	0.687003	1.261159
C87	C	0.945641	0.061428	0.761161
C88	C	1.445641	0.561428	1.261161
C89	C	0.945634	0.061424	0.674616
C90	C	1.445634	0.561424	1.174616
C91	C	0.894242	0.124209	0.631343
C92	C	1.394242	0.624209	1.131343
C93	C	0.894237	0.124208	0.537499
C94	C	1.394237	0.624208	1.037499
C95	C	0.894238	0.124202	0.462702
C96	C	1.394238	0.624202	0.962702
H97	H	0.107789	0.271397	0.000100
H98	H	0.607789	0.771397	0.500100
H99	H	0.283346	-0.030739	0.000127
H100	H	0.783346	0.469261	0.500127
O101	O	0.787469	0.254746	0.807827
O102	O	1.287469	0.754746	1.307827
H103	H	0.728450	0.243088	0.791240
H104	H	1.228450	0.743088	1.291240
O105	O	0.132043	-0.055939	0.000136
O106	O	0.632043	0.444061	0.500136
H107	H	0.096496	-0.060647	0.056174
H108	H	0.596496	0.439353	0.556174
O109	O	1.001032	-0.006315	0.372258
O110	O	1.501032	0.493685	0.872258
H111	H	0.992400	0.004225	0.439708
H112	H	1.492400	0.504225	0.939708
O113	O	0.787427	0.254715	0.372245
O114	O	1.287427	0.754715	0.872245
H115	H	0.796069	0.244179	0.439696
H116	H	1.296069	0.744179	0.939696
O117	O	0.529385	-0.048197	0.000110
O118	O	1.029385	0.451803	0.500110
H119	H	0.466360	-0.035281	0.000105
H120	H	0.966360	0.464719	0.500105
O121	O	1.001074	-0.006294	0.807833
O122	O	1.501074	0.493706	1.307833
H123	H	0.991347	-0.078175	0.791227
H124	H	1.491347	0.421825	1.291227
H125	H	0.801023	0.238125	0.639382
H126	H	1.301023	0.738125	1.139382
H127	H	0.680683	-0.022990	0.000095
H128	H	1.180683	0.477010	0.500095
H129	H	0.987445	0.010281	0.203814
H130	H	1.487445	0.510281	0.703814
O131	O	1.001046	-0.006308	0.627949
O132	O	1.501046	0.493692	1.127949
H133	H	0.969117	-0.051076	0.588531
H134	H	1.469117	0.448924	1.088531
O135	O	0.656425	0.304350	0.000067
O136	O	1.156425	0.804350	0.500067
H137	H	0.636992	0.344362	-0.055968
H138	H	1.136992	0.844362	0.444032
O139	O	0.787413	0.254692	0.192346
O140	O	1.287413	0.754692	0.692346
H141	H	0.797150	0.326577	0.208928
H142	H	1.297150	0.826577	0.708928
O143	O	0.492333	0.301149	0.000077
O144	O	0.992333	0.801149	0.500077
H145	H	0.503203	0.341738	-0.055971
H146	H	1.003203	0.841738	0.444029
O147	O	0.259105	0.296598	0.000102
O148	O	0.759105	0.796598	0.500102
H149	H	0.212197	0.354240	0.000112
H150	H	0.712197	0.854240	0.500112
