data_functionalizedCrystal
_audit_creation_method	'MofGen! by Chris Wilmer'
_symmetry_space_group_name_H-M	'P1'
_symmetry_Int_Tables_number	1
_symmetry_cell_setting	triclinic
loop_
_symmetry_equiv_pos_as_xyz
  x,y,z
_cell_length_a	21.395362
_cell_length_b	13.032721
_cell_length_c	21.395355
_cell_angle_alpha	97.165964
_cell_angle_beta	89.956060
_cell_angle_gamma	97.222741
loop_
_atom_site_label
_atom_site_type_symbol
_atom_site_fract_x
_atom_site_fract_y
_atom_site_fract_z
Zn1	Zn	0.926247	-0.415745	-0.386233
Zn2	Zn	1.426247	0.084255	0.113767
Zn3	Zn	0.912862	-0.590486	-0.294757
Zn4	Zn	1.412862	-0.090486	0.205243
Zn5	Zn	0.821458	-0.415794	-0.281438
Zn6	Zn	1.321458	0.084206	0.218562
Zn7	Zn	0.808142	-0.590507	-0.399463
Zn8	Zn	1.308142	-0.090507	0.100537
O9	O	0.867177	-0.503133	-0.340473
O10	O	1.367177	-0.003133	0.159527
O11	O	1.012151	-0.438895	-0.374135
O12	O	1.512151	0.061105	0.125865
O13	O	0.900708	-0.567324	-0.205313
O14	O	1.400708	-0.067324	0.294687
O15	O	0.846533	-0.269539	-0.284228
O16	O	1.346533	0.230461	0.215772
O17	O	1.002318	-0.567277	-0.306928
O18	O	1.502318	-0.067277	0.193072
O19	O	0.923520	-0.269504	-0.361220
O20	O	1.423520	0.230496	0.138780
O21	O	0.833554	-0.438978	-0.195527
O22	O	1.333554	0.061022	0.304473
O23	O	0.732011	-0.438999	-0.297057
O24	O	1.232011	0.061001	0.202943
O25	O	0.823837	-0.567313	-0.485385
O26	O	1.323837	-0.067313	0.014615
O27	O	0.722228	-0.567361	-0.383770
O28	O	1.222228	-0.067361	0.116230
O29	O	0.910608	-0.438916	-0.475665
O30	O	1.410608	0.061084	0.024335
O31	O	0.887796	-0.736737	-0.319757
O32	O	1.387796	-0.236737	0.180243
O33	O	0.810859	-0.736753	-0.396685
O34	O	1.310859	-0.236753	0.103315
C35	C	0.704385	-0.503188	-0.340404
C36	C	1.204385	-0.003188	0.159596
C37	C	0.634740	-0.503237	-0.340392
C38	C	1.134740	-0.003237	0.159608
C39	C	0.846447	-0.774665	-0.361116
C40	C	1.346447	-0.274665	0.138884
C41	C	0.837636	-0.890828	-0.369968
C42	C	1.337636	-0.390828	0.130032
C43	C	0.596943	-0.570163	-0.385490
C44	C	1.096943	-0.070163	0.114510
C45	C	0.531509	-0.570138	-0.385516
C46	C	1.031509	-0.070138	0.114484
C47	C	0.503875	-0.503197	-0.340433
C48	C	1.003875	-0.003197	0.159567
C49	C	0.541681	-0.436257	-0.295331
C50	C	1.041681	0.063743	0.204669
C51	C	0.607114	-0.436278	-0.295311
C52	C	1.107114	0.063722	0.204689
C53	C	0.400790	-0.494778	-0.283387
C54	C	0.900790	0.005222	0.216613
C55	C	0.335358	-0.494765	-0.283407
C56	C	0.835358	0.005235	0.216593
C57	C	0.302059	-0.503129	-0.340497
C58	C	0.802059	-0.003129	0.159503
C59	C	0.334199	-0.511527	-0.397570
C60	C	0.834199	-0.011527	0.102430
C61	C	0.399631	-0.511547	-0.397549
C62	C	0.899631	-0.011547	0.102451
C63	C	0.432925	-0.503167	-0.340451
C64	C	0.932925	-0.003167	0.159549
C65	C	0.193311	-0.570031	-0.385627
C66	C	0.693311	-0.070031	0.114373
C67	C	0.127877	-0.569998	-0.385654
C68	C	0.627877	-0.069998	0.114346
C69	C	0.138050	-0.436123	-0.295464
C70	C	0.638050	0.063877	0.204536
C71	C	0.203483	-0.436150	-0.295443
C72	C	0.703483	0.063850	0.204557
C73	C	0.231110	-0.503110	-0.340524
C74	C	0.731110	-0.003110	0.159476
C75	C	0.871809	-0.942574	-0.335881
C76	C	1.371809	-0.442574	0.164119
C77	C	0.862703	-1.062634	-0.345029
C78	C	1.362703	-0.562634	0.154971
C79	C	1.030605	-0.503078	-0.340542
C80	C	1.530605	-0.003078	0.159458
C81	C	1.100248	-0.503055	-0.340571
C82	C	1.600248	-0.003055	0.159429
C83	C	0.867231	-0.503112	-0.503894
C84	C	1.367231	-0.003112	-0.003894
C85	C	0.867254	-0.503103	-0.573535
C86	C	1.367254	-0.003103	-0.073535
C87	C	0.888005	-0.230541	-0.319763
C88	C	1.388005	0.269459	0.180237
C89	C	0.896880	-0.114378	-0.310937
C90	C	1.396880	0.385622	0.189063
C91	C	0.912434	-0.436244	-0.601188
C92	C	1.412434	0.063756	-0.101188
C93	C	0.912436	-0.436199	-0.666620
C94	C	1.412436	0.063801	-0.166620
C95	C	0.867264	-0.503032	-0.704398
C96	C	1.367264	-0.003032	-0.204398
C97	C	0.822076	-0.569895	-0.676738
C98	C	1.322076	-0.069895	-0.176738
C99	C	0.822070	-0.569931	-0.611306
C100	C	1.322070	-0.069931	-0.111306
C101	C	0.855132	-0.597135	-0.815225
C102	C	1.355132	-0.097135	-0.315225
C103	C	0.855142	-0.597102	-0.880656
C104	C	1.355142	-0.097102	-0.380656
C105	C	0.867276	-0.502921	-0.906210
C106	C	1.367276	-0.002921	-0.406210
C107	C	0.879414	-0.408772	-0.866327
C108	C	1.379414	0.091228	-0.366327
C109	C	0.879409	-0.408807	-0.800895
C110	C	1.379409	0.091193	-0.300895
C111	C	0.867264	-0.503000	-0.775348
C112	C	1.367264	-0.003000	-0.275348
C113	C	0.912462	-0.436008	-1.004811
C114	C	1.412462	0.063992	-0.504811
C115	C	0.912460	-0.435961	-1.070245
C116	C	1.412460	0.064039	-0.570245
C117	C	0.822102	-0.569667	-1.080362
C118	C	1.322102	-0.069667	-0.580362
C119	C	0.822101	-0.569704	-1.014930
C120	C	1.322101	-0.069704	-0.514930
C121	C	0.867284	-0.502876	-0.977158
C122	C	1.367284	-0.002876	-0.477158
C123	C	0.867165	-0.503079	-0.177681
C124	C	1.367165	-0.003079	0.322319
C125	C	0.867286	-0.502793	-0.108018
C126	C	1.367286	-0.002793	0.391982
H127	H	0.619432	-0.624686	-0.422199
H128	H	1.119432	-0.124686	0.077801
H129	H	0.889291	-0.332148	-0.768424
H130	H	1.389291	0.167852	-0.268424
H131	H	0.907809	-0.897995	-0.299927
H132	H	1.407809	-0.397995	0.200073
H133	H	0.801641	-0.935409	-0.405926
H134	H	1.301641	-0.435409	0.094074
H135	H	0.785314	-0.624155	-0.992416
H136	H	1.285314	-0.124155	-0.492416
H137	H	0.785316	-0.624073	-1.111120
H138	H	1.285316	-0.124073	-0.611120
F139	F	0.491275	-0.641373	-0.433517
F140	F	0.991275	-0.141373	0.066483
H141	H	0.949249	-0.381586	-0.974056
H142	H	1.449249	0.118414	-0.474056
H143	H	0.427897	-0.487962	-0.236894
H144	H	0.927897	0.012038	0.263106
F145	F	0.842228	-0.697303	-0.923097
F146	F	1.342228	-0.197303	-0.423097
H147	H	0.115552	-0.381613	-0.258760
H148	H	0.615552	0.118387	0.241240
F149	F	0.815651	-1.120896	-0.392033
F150	F	1.315651	-0.620896	0.107967
F151	F	0.943939	-1.056118	-0.263939
F152	F	1.443939	-0.556118	0.236061
H153	H	0.307088	-0.518336	-0.444058
H154	H	0.807088	-0.018336	0.055942
F155	F	0.512271	-0.365010	-0.247354
F156	F	1.012271	0.134990	0.252646
F157	F	0.773981	-0.641095	-0.581876
F158	F	1.273981	-0.141095	-0.081876
H159	H	0.949225	-0.381825	-0.570438
H160	H	1.449225	0.118175	-0.070438
F161	F	0.842231	-0.697384	-0.788035
F162	F	1.342231	-0.197384	-0.288035
F163	F	0.960516	-0.365018	-0.696055
F164	F	1.460516	0.134982	-0.196055
H165	H	0.949251	-0.381510	-1.092757
H166	H	1.449251	0.118490	-0.592757
F167	F	0.892332	-0.308530	-0.893518
F168	F	1.392332	0.191470	-0.393518
H169	H	0.425797	-0.518383	-0.444020
H170	H	0.925797	-0.018383	0.055980
H171	H	0.785294	-0.624308	-0.707501
H172	H	1.285294	-0.124308	-0.207501
F173	F	0.243712	-0.364920	-0.247441
F174	F	0.743712	0.135080	0.252559
H175	H	0.097103	-0.624495	-0.422382
H176	H	0.597103	-0.124495	0.077618
F177	F	0.222716	-0.641289	-0.433608
F178	F	0.722716	-0.141289	0.066392
H179	H	0.309195	-0.487933	-0.236936
H180	H	0.809195	0.012067	0.263064
F181	F	0.647343	-0.365042	-0.247309
F182	F	1.147343	0.134958	0.252691
