data_functionalizedCrystal
_audit_creation_method	'MofGen! by Chris Wilmer'
_symmetry_space_group_name_H-M	'P1'
_symmetry_Int_Tables_number	1
_symmetry_cell_setting	triclinic
loop_
_symmetry_equiv_pos_as_xyz
  x,y,z
_cell_length_a	12.784890
_cell_length_b	19.188925
_cell_length_c	11.295483
_cell_angle_alpha	94.081402
_cell_angle_beta	86.328828
_cell_angle_gamma	78.124554
loop_
_atom_site_label
_atom_site_type_symbol
_atom_site_fract_x
_atom_site_fract_y
_atom_site_fract_z
O1	O	1.417479	-0.000767	-0.098988
O2	O	1.107884	0.029143	-0.098998
O3	O	1.271618	-0.087992	-0.098986
O4	O	1.253745	0.116368	-0.099000
O5	O	1.257237	-0.077718	0.099064
O6	O	1.093503	0.039417	0.099051
O7	O	1.403098	0.009507	0.099062
Cu8	Cu	1.246987	0.025400	0.117140
Cu9	Cu	1.263994	0.013250	-0.117077
O10	O	1.239364	0.126642	0.099049
C11	C	1.061085	0.036225	0.000025
C12	C	0.943064	0.042014	0.000022
C13	C	0.763749	0.114556	0.000015
C14	C	0.874639	0.109122	0.000015
C15	C	0.900592	-0.019666	0.000024
C16	C	0.789702	-0.014232	0.000023
C17	C	0.721283	0.052882	0.000021
C18	C	0.610390	0.058315	0.000029
C19	C	0.636346	-0.070473	0.000029
C20	C	0.747236	-0.075907	0.000029
C21	C	1.263850	-0.108832	0.000038
C22	C	1.262115	-0.186235	0.000035
C23	C	1.346576	-0.752966	0.000008
C24	C	1.348214	-0.680238	0.000019
C25	C	1.252140	-0.629663	0.000015
C26	C	1.154418	-0.651819	0.000032
C27	C	1.152781	-0.724545	0.000033
N28	N	1.187481	-0.508396	-0.067398
N29	N	1.189043	-0.439311	-0.067401
C30	C	1.257065	-0.410543	0.000015
N31	N	1.323484	-0.453474	0.067420
N32	N	1.321926	-0.522567	0.067418
C33	C	1.253904	-0.550803	0.000015
C34	C	1.356557	-0.309535	0.000019
C35	C	1.358191	-0.236805	0.000037
C36	C	1.164392	-0.208388	0.000038
C37	C	1.162760	-0.281117	0.000031
C38	C	1.258846	-0.331686	0.000016
C39	C	1.449897	0.002424	0.000035
C40	C	1.567918	-0.003364	0.000031
C41	C	1.247132	0.147482	0.000023
C42	C	1.248867	0.224885	0.000017
N43	N	1.235033	0.033945	0.281875
N44	N	1.275957	0.004699	-0.281812
C45	C	1.362011	-0.056849	0.531174
C46	C	1.352984	-0.050387	0.655837
C47	C	1.207949	0.053326	0.655867
C48	C	1.216976	0.046865	0.531204
C49	C	1.294010	-0.008224	0.468862
C50	C	1.303041	-0.014682	0.344197
C51	C	1.158001	0.089028	0.344228
C52	C	1.148975	0.095489	0.468891
H53	H	0.909209	0.159344	0.000013
C54	C	0.974858	-0.092557	-0.000234
C55	C	0.963127	-0.135359	-0.102143
C56	C	1.031536	-0.202507	-0.102434
H57	H	0.957088	-0.114641	0.068748
H58	H	1.047000	-0.086987	-0.000307
H59	H	0.891000	-0.140931	-0.102059
H60	H	0.980905	-0.113297	-0.171142
H61	H	1.103678	-0.196937	-0.102507
H62	H	1.013760	-0.224584	-0.033447
H63	H	1.023593	-0.231554	-0.171583
C64	C	1.454353	-0.656232	-0.000252
C65	C	1.519782	-0.687763	-0.102170
C66	C	1.617557	-0.665659	-0.102474
H67	H	1.489035	-0.670397	0.068724
H68	H	1.441610	-0.605680	-0.000320
H69	H	1.532527	-0.738304	-0.102092
H70	H	1.485134	-0.673601	-0.171163
H71	H	1.604815	-0.615107	-0.102541
H72	H	1.652229	-0.679825	-0.033494
H73	H	1.661959	-0.687044	-0.171629
H74	H	0.601767	-0.120698	-0.000061
C75	C	1.464332	-0.212811	-0.000216
C76	C	1.529768	-0.244338	-0.102132
C77	C	1.627549	-0.222244	-0.102414
H78	H	1.499005	-0.226984	0.068761
H79	H	1.451599	-0.162258	-0.000273
H80	H	1.542504	-0.294880	-0.102064
H81	H	1.495130	-0.230169	-0.171126
H82	H	1.614816	-0.171691	-0.102471
H83	H	1.662211	-0.236418	-0.033432
H84	H	1.671956	-0.243626	-0.171567
H85	H	1.424816	-0.794136	0.000002
C86	C	1.445504	-0.116670	0.463312
C87	C	1.394281	-0.159710	0.391713
C88	C	1.471169	-0.214811	0.329164
H89	H	1.484770	-0.144782	0.518128
H90	H	1.493133	-0.096737	0.414613
H91	H	1.346671	-0.179642	0.440408
H92	H	1.355020	-0.131618	0.336875
H93	H	1.518798	-0.194878	0.280465
H94	H	1.510431	-0.242918	0.383988
H95	H	1.436427	-0.244016	0.280569
H96	H	1.076194	-0.610636	0.000032
H97	H	1.083196	-0.299150	0.000030
H98	H	1.408356	-0.089983	0.706569
C99	C	0.821492	-0.148800	-0.000213
C100	C	0.809762	-0.191608	-0.102115
C101	C	0.878157	-0.258759	-0.102385
H102	H	0.803709	-0.170876	0.068774
H103	H	0.893637	-0.143237	-0.000281
H104	H	0.737632	-0.197174	-0.102037
H105	H	0.827553	-0.169555	-0.171119
H106	H	0.950302	-0.253196	-0.102453
H107	H	0.860368	-0.280828	-0.033394
H108	H	0.870214	-0.287811	-0.171529
H109	H	1.086166	-0.167210	0.000045
H110	H	1.086252	0.140340	0.519664
H111	H	1.365768	-0.059537	0.293439
C112	C	1.083989	0.141809	0.276721
C113	C	0.977368	0.138379	0.307081
C114	C	0.909164	0.186997	0.244928
H115	H	1.100252	0.130130	0.193530
H116	H	1.093774	0.188800	0.297177
H117	H	0.967587	0.091398	0.286618
H118	H	0.961071	0.150065	0.390262
H119	H	0.918950	0.233989	0.265383
H120	H	0.925437	0.175314	0.161739
H121	H	0.836815	0.184681	0.265526
C122	C	0.689391	0.187413	0.000264
C123	C	0.617593	0.199583	0.102172
C124	C	0.549090	0.266696	0.102451
H125	H	0.650499	0.188708	-0.068719
H126	H	0.730523	0.223392	0.000331
H127	H	0.576465	0.163613	0.102095
H128	H	0.656455	0.198302	0.171171
H129	H	0.590223	0.302675	0.102517
H130	H	0.510206	0.267984	0.033463
H131	H	0.500374	0.274964	0.171599
C132	C	1.124143	0.113051	0.723510
C133	C	1.021920	0.106442	0.693229
C134	C	0.944687	0.161439	0.755534
H135	H	1.136789	0.157955	0.703146
H136	H	1.128437	0.109926	0.806688
H137	H	1.017628	0.109573	0.610070
H138	H	1.009240	0.061550	0.713596
H139	H	0.948982	0.158314	0.838712
H140	H	0.957343	0.206339	0.735166
H141	H	0.875320	0.156958	0.735006
H142	H	1.073213	-0.742577	0.000043
C143	C	1.460762	-0.364556	-0.000039
C144	C	1.438420	-0.432990	-0.000076
C145	C	1.534387	-0.483691	-0.000144
H146	H	1.495905	-0.354992	0.069009
H147	H	1.505869	-0.362098	-0.069129
H148	H	1.393331	-0.435446	0.069006
H149	H	1.403291	-0.442577	-0.069119
H150	H	1.579494	-0.481233	-0.069233
H151	H	1.569524	-0.474121	0.068906
H152	H	1.519242	-0.530130	-0.000180
H153	H	0.554684	0.112963	0.000033
