data_functionalizedCrystal
_audit_creation_method	'MofGen! by Chris Wilmer'
_symmetry_space_group_name_H-M	'P1'
_symmetry_Int_Tables_number	1
_symmetry_cell_setting	triclinic
loop_
_symmetry_equiv_pos_as_xyz
  x,y,z
_cell_length_a	9.798715
_cell_length_b	10.723024
_cell_length_c	10.723024
_cell_angle_alpha	95.532131
_cell_angle_beta	89.998022
_cell_angle_gamma	90.003391
loop_
_atom_site_label
_atom_site_type_symbol
_atom_site_fract_x
_atom_site_fract_y
_atom_site_fract_z
O1	O	-0.113478	-1.657187	0.175024
O2	O	0.219855	-1.323854	0.508358
O3	O	0.553188	-0.990521	0.841691
O4	O	-0.113483	-1.294035	0.191778
O5	O	0.219851	-0.960702	0.525111
O6	O	0.553184	-0.627368	0.858444
O7	O	-0.113475	-1.483988	0.001825
O8	O	0.219858	-1.150654	0.335158
O9	O	0.553191	-0.817321	0.668492
O10	O	-0.113486	-1.467234	0.364977
O11	O	0.219848	-1.133901	0.698311
O12	O	0.553181	-0.800568	1.031644
O13	O	0.113507	-1.483974	0.001824
O14	O	0.446840	-1.150640	0.335158
O15	O	0.780173	-0.817307	0.668491
O16	O	0.113499	-1.294021	0.191777
O17	O	0.446833	-0.960687	0.525111
O18	O	0.780166	-0.627354	0.858444
O19	O	0.113504	-1.657173	0.175024
O20	O	0.446837	-1.323840	0.508357
O21	O	0.780170	-0.990506	0.841691
Zn22	Zn	0.149540	-1.475595	0.183401
Zn23	Zn	0.482873	-1.142261	0.516734
Zn24	Zn	0.816207	-0.808928	0.850067
Zn25	Zn	-0.149519	-1.475613	0.183401
Zn26	Zn	0.183814	-1.142280	0.516735
Zn27	Zn	0.517148	-0.808947	0.850068
O28	O	0.113496	-1.467220	0.364977
O29	O	0.446830	-1.133887	0.698310
O30	O	0.780163	-0.800554	1.031643
C31	C	0.000008	-1.247528	0.190558
C32	C	0.333341	-0.914195	0.523892
C33	C	0.666674	-0.580862	0.857225
C34	C	0.000006	-1.108974	0.186911
C35	C	0.333339	-0.775641	0.520244
C36	C	0.666673	-0.442307	0.853577
N37	N	0.353640	-1.475591	0.183399
N38	N	0.686973	-1.142258	0.516733
N39	N	1.020306	-0.808924	0.850066
N40	N	-0.353619	-1.475627	0.183393
N41	N	-0.020285	-1.142294	0.516726
N42	N	0.313048	-0.808960	0.850059
C43	C	0.000014	-1.482762	-0.044675
C44	C	0.333347	-1.149428	0.288658
C45	C	0.666681	-0.816095	0.621992
C46	C	0.000009	-1.479114	-0.183229
C47	C	0.333343	-1.145780	0.150104
C48	C	0.666676	-0.812447	0.483437
C49	C	0.421420	-1.555347	0.103292
C50	C	0.754753	-1.222014	0.436625
C51	C	1.088086	-0.888680	0.769959
C52	C	0.578582	-1.555367	0.103288
C53	C	0.911916	-1.222034	0.436621
C54	C	1.245249	-0.888700	0.769954
C55	C	0.000010	-1.703680	0.176243
C56	C	0.333344	-1.370346	0.509577
C57	C	0.666677	-1.037013	0.842910
C58	C	0.000003	-1.842234	0.179891
C59	C	0.333336	-1.508901	0.513224
C60	C	0.666670	-1.175567	0.846558
C61	C	0.000002	-1.033991	0.293198
C62	C	0.333336	-0.700658	0.626532
C63	C	0.666669	-0.367325	0.959865
C64	C	0.000001	-0.890788	0.289431
C65	C	0.333334	-0.557455	0.622764
C66	C	0.666667	-0.224121	0.956097
C67	C	0.000009	-1.585401	-0.258212
C68	C	0.333342	-1.252068	0.075122
C69	C	0.666675	-0.918735	0.408455
C70	C	0.000004	-1.581634	-0.401415
C71	C	0.333337	-1.248301	-0.068082
C72	C	0.666670	-0.914967	0.265251
C73	C	0.000004	-1.468447	0.411477
C74	C	0.333337	-1.135113	0.744810
C75	C	0.666671	-0.801780	1.078143
C76	C	-0.000000	-1.472094	0.550031
C77	C	0.333333	-1.138761	0.883364
C78	C	0.666667	-0.805428	1.216698
H79	H	0.363100	-1.623611	0.034707
H80	H	0.696433	-1.290277	0.368040
H81	H	1.029766	-0.956944	0.701373
H82	H	-0.000008	-0.826355	0.380421
H83	H	0.333325	-0.493022	0.713754
H84	H	0.666658	-0.159689	1.047088
H85	H	0.588102	-1.407345	0.251984
H86	H	0.921436	-1.074012	0.585317
H87	H	1.254769	-0.740679	0.918651
H88	H	0.636870	-1.623654	0.034709
H89	H	0.970203	-1.290321	0.368042
H90	H	1.303537	-0.956987	0.701375
H91	H	0.000018	-1.679187	-0.216390
H92	H	0.333351	-1.345854	0.116944
H93	H	0.666685	-1.012521	0.450277
C94	C	0.000002	-1.349160	-0.362948
C95	C	0.333335	-1.015827	-0.029615
C96	C	0.666668	-0.682493	0.303718
H97	H	0.000008	-1.279948	-0.411988
H98	H	0.333341	-0.946615	-0.078655
H99	H	0.666675	-0.613282	0.254679
H100	H	-0.079148	-1.345845	-0.311580
H101	H	0.254186	-1.012512	0.021753
H102	H	0.587519	-0.679178	0.355087
H103	H	0.079170	-1.345837	-0.311597
H104	H	0.412503	-1.012504	0.021737
H105	H	0.745836	-0.679170	0.355070
H106	H	0.411961	-1.407319	0.251975
H107	H	0.745295	-1.073985	0.585308
H108	H	1.078628	-0.740652	0.918642
H109	H	-0.000026	-1.067152	0.093125
H110	H	0.333307	-0.733818	0.426458
H111	H	0.666640	-0.400485	0.759791
H112	H	0.000007	-1.075814	0.386984
H113	H	0.333341	-0.742480	0.720318
H114	H	0.666674	-0.409147	1.053651
C115	C	0.000000	-0.929255	0.056957
C116	C	0.333334	-0.595921	0.390290
C117	C	0.666667	-0.262588	0.723624
H118	H	-0.000009	-0.880215	-0.012255
H119	H	0.333324	-0.546882	0.321079
H120	H	0.666657	-0.213549	0.654412
H121	H	0.079150	-0.980616	0.053633
H122	H	0.412484	-0.647283	0.386966
H123	H	0.745817	-0.313950	0.720300
H124	H	-0.079167	-0.980613	0.053643
H125	H	0.254166	-0.647280	0.386976
H126	H	0.587500	-0.313947	0.720309
H127	H	0.000009	-1.672624	-0.465848
H128	H	0.333342	-1.339291	-0.132514
H129	H	0.666676	-1.005958	0.200819
H130	H	-0.000001	-1.385328	-0.225051
H131	H	0.333333	-1.051995	0.108282
H132	H	0.666666	-0.718661	0.441615
