data_functionalizedCrystal
_audit_creation_method	'MofGen! by Chris Wilmer'
_symmetry_space_group_name_H-M	'P1'
_symmetry_Int_Tables_number	1
_symmetry_cell_setting	triclinic
loop_
_symmetry_equiv_pos_as_xyz
  x,y,z
_cell_length_a	14.853569
_cell_length_b	27.731996
_cell_length_c	13.330367
_cell_angle_alpha	89.989375
_cell_angle_beta	89.994419
_cell_angle_gamma	83.128476
loop_
_atom_site_label
_atom_site_type_symbol
_atom_site_fract_x
_atom_site_fract_y
_atom_site_fract_z
O1	O	1.195319	0.063112	-0.083391
O2	O	1.695319	0.563112	0.416609
O3	O	0.932735	0.070629	-0.083405
O4	O	1.432735	0.570629	0.416595
O5	O	1.072207	-0.003490	-0.083376
O6	O	1.572207	0.496510	0.416624
O7	O	1.055847	0.137230	-0.083420
O8	O	1.555847	0.637230	0.416580
O9	O	1.072187	-0.003492	0.083471
O10	O	1.572187	0.496508	0.583471
O11	O	0.932715	0.070627	0.083442
O12	O	1.432715	0.570627	0.583442
O13	O	1.195299	0.063110	0.083456
O14	O	1.695299	0.563110	0.583456
Cu15	Cu	1.064005	0.066868	0.098684
Cu16	Cu	1.564005	0.566868	0.598684
Cu17	Cu	1.064029	0.066870	-0.098633
Cu18	Cu	1.564029	0.566870	0.401367
O19	O	1.055827	0.137229	0.083427
O20	O	1.555827	0.637229	0.583427
C21	C	0.899142	0.070287	0.000017
C22	C	1.399142	0.570287	0.500017
C23	C	0.799075	0.069266	0.000013
C24	C	1.299075	0.569266	0.500013
C25	C	1.071861	-0.021500	0.000051
C26	C	1.571861	0.478500	0.500051
C27	C	1.070849	-0.075161	0.000061
C28	C	1.570849	0.424839	0.500061
C29	C	0.763438	0.024759	0.000023
C30	C	1.263438	0.524759	0.500023
C31	C	0.740686	0.112814	0.000007
C32	C	1.240686	0.612814	0.500007
C33	C	0.646668	0.111856	0.000008
C34	C	1.146668	0.611856	0.500008
C35	C	0.611030	0.067349	0.000019
C36	C	1.111030	0.567349	0.500019
C37	C	0.669412	0.023800	0.000028
C38	C	1.169412	0.523800	0.500028
C39	C	0.588279	0.155405	0.000010
C40	C	1.088279	0.655405	0.500010
C41	C	0.494255	0.154449	0.000012
C42	C	0.994255	0.654449	0.500012
C43	C	0.458616	0.109941	0.000015
C44	C	0.958616	0.609941	0.500015
C45	C	0.517004	0.066390	0.000023
C46	C	1.017004	0.566390	0.500023
C47	C	0.481367	0.021882	0.000034
C48	C	0.981367	0.521882	0.500034
C49	C	0.539753	-0.021669	0.000034
C50	C	1.039753	0.478331	0.500034
C51	C	0.633773	-0.020708	0.000031
C52	C	1.133773	0.479292	0.500031
C53	C	0.364596	0.108980	0.000019
C54	C	0.864596	0.608980	0.500019
C55	C	0.387340	0.020923	0.000038
C56	C	0.887340	0.520923	0.500038
C57	C	1.064491	-0.407906	-0.090937
C58	C	1.564491	0.092094	0.409063
C59	C	1.060647	-0.609582	-0.090954
C60	C	1.560647	-0.109582	0.409046
O61	O	1.060121	-0.635655	-0.168303
O62	O	1.560121	-0.135655	0.331697
N63	N	1.060159	-0.634803	-0.000007
N64	N	1.560159	-0.134803	0.499993
C65	C	1.060626	-0.609600	0.090952
C66	C	1.560626	-0.109600	0.590952
O67	O	1.060113	-0.635679	0.168308
O68	O	1.560113	-0.135679	0.668308
C69	C	1.064463	-0.407925	0.090968
C70	C	1.564463	0.092075	0.590968
C71	C	1.064960	-0.382708	0.000015
C72	C	1.564960	0.117292	0.500015
C73	C	1.064988	-0.382689	-0.181883
C74	C	1.564988	0.117311	0.318117
C75	C	1.065953	-0.332273	-0.181877
C76	C	1.565953	0.167727	0.318123
C77	C	1.066423	-0.307075	-0.090926
C78	C	1.566423	0.192925	0.409074
C79	C	1.065926	-0.332292	0.000020
C80	C	1.565926	0.167708	0.500020
C81	C	1.064923	-0.382723	0.181926
C82	C	1.564923	0.117277	0.681926
C83	C	1.065880	-0.332300	0.181922
C84	C	1.565880	0.167700	0.681922
C85	C	1.066378	-0.307083	0.090968
C86	C	1.566378	0.192917	0.590968
C87	C	1.067362	-0.256678	0.090977
C88	C	1.567362	0.243322	0.590977
N89	N	1.067850	-0.231457	0.000030
N90	N	1.567850	0.268543	0.500030
C91	C	1.067380	-0.256656	-0.090922
C92	C	1.567380	0.243344	0.409078
C93	C	1.058613	-0.715483	0.090936
C94	C	1.558613	-0.215483	0.590936
C95	C	1.057655	-0.765902	0.090932
C96	C	1.557655	-0.265902	0.590932
C97	C	1.057675	-0.765880	-0.090974
C98	C	1.557675	-0.265880	0.409026
C99	C	1.058639	-0.715461	-0.090969
C100	C	1.558639	-0.215461	0.409031
C101	C	1.059101	-0.690263	-0.000011
C102	C	1.559101	-0.190263	0.499989
C103	C	1.069410	-0.150779	-0.090904
C104	C	1.569410	0.349221	0.409096
C105	C	1.070379	-0.100359	-0.090890
C106	C	1.570379	0.399641	0.409110
C107	C	1.070354	-0.100385	0.091015
C108	C	1.570354	0.399615	0.591015
C109	C	1.069390	-0.150801	0.091003
C110	C	1.569390	0.349199	0.591003
C111	C	1.068914	-0.175997	0.000035
C112	C	1.568914	0.324003	0.500035
O113	O	1.067878	-0.230573	0.168285
O114	O	1.567878	0.269427	0.668285
O115	O	1.067873	-0.230567	-0.168266
O116	O	1.567873	0.269433	0.331734
C117	C	1.063525	-0.458322	-0.090942
C118	C	1.563525	0.041678	0.409058
C119	C	1.063029	-0.483539	0.000004
C120	C	1.563029	0.016461	0.500004
C121	C	1.063498	-0.458340	0.090956
C122	C	1.563498	0.041660	0.590956
C123	C	1.062071	-0.533958	0.000000
C124	C	1.562071	-0.033958	0.500000
C125	C	1.061602	-0.559156	-0.090951
C126	C	1.561602	-0.059156	0.409049
C127	C	1.062090	-0.533936	-0.181899
C128	C	1.562090	-0.033936	0.318101
C129	C	1.063056	-0.483520	-0.181893
C130	C	1.563056	0.016480	0.318107
C131	C	1.063010	-0.483561	0.181903
C132	C	1.563010	0.016439	0.681903
C133	C	1.062045	-0.533976	0.181890
C134	C	1.562045	-0.033976	0.681890
C135	C	1.061576	-0.559175	0.090939
C136	C	1.561576	-0.059175	0.590939
C137	C	1.228892	0.063452	0.000032
C138	C	1.728892	0.563452	0.500032
C139	C	1.328959	0.064473	0.000029
C140	C	1.828959	0.564473	0.500029
C141	C	1.056173	0.155239	-0.000002
C142	C	1.556173	0.655239	0.499998
C143	C	1.057186	0.208900	-0.000019
C144	C	1.557186	0.708900	0.499981
N145	N	1.063995	0.066867	0.237465
N146	N	1.563995	0.566867	0.737465
N147	N	1.064046	0.066868	-0.237414
N148	N	1.564046	0.566868	0.262586
C149	C	1.002268	0.099677	0.710075
C150	C	1.502268	0.599677	1.210075
C151	C	1.125814	0.034060	0.710069
C152	C	1.625814	0.534060	1.210069
C153	C	1.125804	0.034058	0.605050
C154	C	1.625804	0.534058	1.105050
C155	C	1.064026	0.066867	0.552540
C156	C	1.564026	0.566867	1.052540
C157	C	1.002258	0.099678	0.605047
C158	C	1.502258	0.599678	1.105047
C159	C	1.187576	0.001252	0.552535
C160	C	1.687576	0.501252	1.052535
C161	C	1.187569	0.001249	0.447510
C162	C	1.687569	0.501249	0.947510
C163	C	1.125787	0.034056	0.394998
C164	C	1.625787	0.534056	0.894998
C165	C	1.064016	0.066868	0.447511
C166	C	1.564016	0.566868	0.947511
C167	C	1.002238	0.099677	0.395001
C168	C	1.502238	0.599677	0.895001
C169	C	0.940462	0.132486	0.447513
C170	C	1.440462	0.632486	0.947513
C171	C	0.940475	0.132485	0.552534
C172	C	1.440475	0.632485	1.052534
C173	C	1.125773	0.034058	0.289976
C174	C	1.625773	0.534058	0.789976
C175	C	1.002227	0.099677	0.289972
C176	C	1.502227	0.599677	0.789972
H177	H	0.358333	-0.015320	0.000041
H178	H	0.858333	0.484680	0.500041
H179	H	0.810980	-0.010700	0.000020
H180	H	1.310980	0.489300	0.500020
H181	H	1.064520	-0.403246	0.255990
H182	H	1.564520	0.096754	0.755990
C183	C	0.500539	-0.070626	0.000049
C184	C	1.000539	0.429374	0.500049
N185	N	0.471000	-0.107499	0.000059
N186	N	0.971000	0.392501	0.500059
C187	C	0.300377	0.156884	0.000017
C188	C	0.800377	0.656884	0.500017
N189	N	0.252007	0.192967	0.000012
N190	N	0.752007	0.692967	0.500012
H191	H	0.681319	-0.056165	0.000034
H192	H	1.181319	0.443835	0.500034
C193	C	0.872509	0.168575	0.389737
C194	C	1.372509	0.668575	0.889737
N195	N	0.821328	0.195757	0.346216
N196	N	1.321328	0.695757	0.846216
H197	H	0.890180	0.159197	0.595296
H198	H	1.390180	0.659197	1.095296
H199	H	1.063393	-0.463049	0.255968
H200	H	1.563393	0.036951	0.755968
C201	C	0.934288	0.135783	0.232219
C202	C	1.434288	0.635783	0.732219
N203	N	0.883125	0.162983	0.188720
N204	N	1.383125	0.662983	0.688720
H205	H	0.951969	0.126389	0.752833
H206	H	1.451969	0.626389	1.252833
C207	C	0.627486	0.204359	0.000007
C208	C	1.127486	0.704359	0.500007
N209	N	0.657021	0.241233	0.000004
N210	N	1.157021	0.741233	0.500004
C211	C	1.057117	-0.793636	0.190988
C212	C	1.557117	-0.293636	0.690988
N213	N	1.056705	-0.814522	0.266354
N214	N	1.556705	-0.314522	0.766354
H215	H	0.446724	0.189911	0.000010
H216	H	0.946724	0.689911	0.500010
H217	H	1.176116	0.007350	0.752826
H218	H	1.676116	0.507350	1.252826
H219	H	1.237879	-0.025458	0.595293
H220	H	1.737879	0.474542	1.095293
C221	C	1.070924	-0.072624	-0.190950
C222	C	1.570924	0.427376	0.309050
N223	N	1.071331	-0.051734	-0.266314
N224	N	1.571331	0.448266	0.233686
C225	C	1.255517	-0.034845	0.389757
C226	C	1.755517	0.465155	0.889757
N227	N	1.306692	-0.062034	0.346256
N228	N	1.806692	0.437966	0.846256
H229	H	0.769708	0.149050	0.000005
H230	H	1.269708	0.649050	0.500005
C231	C	1.068902	-0.178488	-0.190973
C232	C	1.568902	0.321512	0.309027
N233	N	1.068530	-0.199359	-0.266345
N234	N	1.568530	0.300641	0.233655
C235	C	1.193723	-0.002030	0.232218
C236	C	1.693723	0.497970	0.732218
N237	N	1.244905	-0.029215	0.188715
N238	N	1.744905	0.470785	0.688715
H239	H	1.066355	-0.311746	-0.255941
H240	H	1.566355	0.188254	0.244059
H241	H	1.064602	-0.403200	-0.255950
H242	H	1.564602	0.096800	0.244050
H243	H	1.059043	-0.694933	-0.165031
H244	H	1.559043	-0.194933	0.334969
H245	H	1.057294	-0.786406	-0.165030
H246	H	1.557294	-0.286406	0.334970
C247	C	1.066392	-0.304586	0.281985
C248	C	1.566392	0.195414	0.781985
N249	N	1.066781	-0.283712	0.357353
N250	N	1.566781	0.216288	0.857353
C251	C	1.059127	-0.687772	0.191004
C252	C	1.559127	-0.187772	0.691004
N253	N	1.059518	-0.666902	0.266376
N254	N	1.559518	-0.166902	0.766376
H255	H	1.068993	-0.171334	0.165064
H256	H	1.568993	0.328666	0.665064
C257	C	1.070862	-0.072656	0.191057
C258	C	1.570862	0.427344	0.691057
N259	N	1.071235	-0.051769	0.266409
N260	N	1.571235	0.448231	0.766409
H261	H	1.063460	-0.462993	-0.255957
H262	H	1.563460	0.037007	0.244043
H263	H	1.061712	-0.554462	-0.255955
H264	H	1.561712	-0.054462	0.244045
H265	H	1.061647	-0.554504	0.255961
H266	H	1.561647	-0.054504	0.755961
