data_functionalizedCrystal
_audit_creation_method	'MofGen! by Chris Wilmer'
_symmetry_space_group_name_H-M	'P1'
_symmetry_Int_Tables_number	1
_symmetry_cell_setting	triclinic
loop_
_symmetry_equiv_pos_as_xyz
  x,y,z
_cell_length_a	12.827893
_cell_length_b	18.050589
_cell_length_c	12.827893
_cell_angle_alpha	90.007221
_cell_angle_beta	90.003786
_cell_angle_gamma	90.028191
loop_
_atom_site_label
_atom_site_type_symbol
_atom_site_fract_x
_atom_site_fract_y
_atom_site_fract_z
Zn1	Zn	1.597417	-0.295788	0.590850
Zn2	Zn	1.930750	0.037546	0.924183
Zn3	Zn	2.264083	0.370879	1.257517
Zn4	Zn	1.597319	-0.419947	0.416111
Zn5	Zn	1.930652	-0.086614	0.749444
Zn6	Zn	2.263986	0.246719	1.082778
Zn7	Zn	1.422705	-0.295776	0.416124
Zn8	Zn	1.756039	0.037558	0.749457
Zn9	Zn	2.089372	0.370891	1.082790
Zn10	Zn	1.422604	-0.419940	0.590811
Zn11	Zn	1.755938	-0.086607	0.924144
Zn12	Zn	2.089271	0.246726	1.257478
O13	O	1.510011	-0.357863	0.503474
O14	O	1.843345	-0.024529	0.836807
O15	O	2.176678	0.308804	1.170141
O16	O	1.743640	-0.312266	0.567681
O17	O	2.076973	0.021068	0.901015
O18	O	2.410306	0.354401	1.234348
O19	O	1.574157	-0.403473	0.269877
O20	O	1.907491	-0.070140	0.603210
O21	O	2.240824	0.263193	0.936543
O22	O	1.445964	-0.191853	0.439323
O23	O	1.779298	0.141481	0.772656
O24	O	2.112631	0.474814	1.105990
O25	O	1.743568	-0.403485	0.439302
O26	O	2.076901	-0.070152	0.772635
O27	O	2.410235	0.263181	1.105968
O28	O	1.574324	-0.191862	0.567694
O29	O	1.907657	0.141472	0.901027
O30	O	2.240991	0.474805	1.234360
O31	O	1.445870	-0.312245	0.269886
O32	O	1.779203	0.021088	0.603219
O33	O	2.112536	0.354422	0.936553
O34	O	1.276456	-0.312238	0.439285
O35	O	1.609789	0.021095	0.772619
O36	O	1.943123	0.354428	1.105952
O37	O	1.445792	-0.403474	0.737052
O38	O	1.779125	-0.070140	1.070385
O39	O	2.112459	0.263193	1.403719
O40	O	1.276382	-0.403462	0.567627
O41	O	1.609715	-0.070128	0.900960
O42	O	1.943048	0.263205	1.234294
O43	O	1.574226	-0.312259	0.737081
O44	O	1.907559	0.021074	1.070414
O45	O	2.240893	0.354408	1.403747
O46	O	1.574059	-0.523871	0.439264
O47	O	1.907393	-0.190538	0.772597
O48	O	2.240726	0.142796	1.105930
O49	O	1.445697	-0.523866	0.567615
O50	O	1.779031	-0.190533	0.900948
O51	O	2.112364	0.142801	1.234282
C52	C	1.238501	-0.357848	0.503454
C53	C	1.571835	-0.024515	0.836787
C54	C	1.905168	0.308818	1.170121
C55	C	1.122348	-0.357860	0.503470
C56	C	1.455682	-0.024527	0.836804
C57	C	1.789015	0.308806	1.170137
C58	C	1.070554	-0.403071	0.566880
C59	C	1.403888	-0.069738	0.900213
C60	C	1.737221	0.263596	1.233547
C61	C	0.950504	-0.403084	0.566898
C62	C	1.283837	-0.069751	0.900232
C63	C	1.617171	0.263583	1.233565
C64	C	1.509885	-0.550815	0.503456
C65	C	1.843218	-0.217482	0.836790
C66	C	2.176552	0.115852	1.170123
C67	C	1.509927	-0.633361	0.503484
C68	C	1.843260	-0.300027	0.836817
C69	C	2.176593	0.033306	1.170151
C70	C	1.440192	-0.832836	0.573257
C71	C	1.773525	-0.499502	0.906590
C72	C	2.106859	-0.166169	1.239924
C73	C	1.414741	-0.882256	0.477900
C74	C	1.748074	-0.548923	0.811233
C75	C	2.081408	-0.215590	1.144567
C76	C	1.510029	-0.784491	0.503498
C77	C	1.843363	-0.451158	0.836831
C78	C	2.176696	-0.117824	1.170164
C79	C	1.535532	-0.882152	0.598865
C80	C	1.868865	-0.548818	0.932199
C81	C	2.202198	-0.215485	1.265532
C82	C	1.510127	-0.930476	0.503519
C83	C	1.843460	-0.597143	0.836853
C84	C	2.176793	-0.263809	1.170186
C85	C	1.484528	-0.832825	0.408090
C86	C	1.817862	-0.499491	0.741424
C87	C	2.151195	-0.166158	1.074757
C88	C	1.605363	-0.832716	0.529120
C89	C	1.938697	-0.499382	0.862453
C90	C	2.272030	-0.166049	1.195787
C91	C	1.579949	-0.882114	0.433697
C92	C	1.913282	-0.548781	0.767031
C93	C	2.246615	-0.215448	1.100364
C94	C	1.509971	-0.700393	0.503487
C95	C	1.843304	-0.367059	0.836820
C96	C	2.176637	-0.033726	1.170153
C97	C	1.510185	-1.014573	0.503519
C98	C	1.843519	-0.681239	0.836853
C99	C	2.176852	-0.347906	1.170186
C100	C	1.782581	-0.357878	0.503494
C101	C	2.115915	-0.024544	0.836828
C102	C	2.449248	0.308789	1.170161
C103	C	1.898734	-0.357884	0.503503
C104	C	2.232068	-0.024551	0.836837
C105	C	2.565401	0.308783	1.170170
C106	C	1.510009	-0.357867	0.776044
C107	C	1.843342	-0.024534	1.109377
C108	C	2.176675	0.308800	1.442711
C109	C	1.510008	-0.357869	0.892197
C110	C	1.843341	-0.024535	1.225530
C111	C	2.176674	0.308798	1.558864
C112	C	1.510166	-0.164157	0.503514
C113	C	1.843500	0.169176	0.836847
C114	C	2.176833	0.502510	1.170181
C115	C	1.510232	-0.081611	0.503531
C116	C	1.843566	0.251722	0.836865
C117	C	2.176899	0.585055	1.170198
C118	C	1.573481	-0.403008	0.943977
C119	C	1.906815	-0.069674	1.277310
C120	C	2.240148	0.263659	1.610644
C121	C	1.573482	-0.403010	1.064028
C122	C	1.906815	-0.069677	1.397361
C123	C	2.240148	0.263656	1.730694
C124	C	1.510006	-0.357875	1.231964
C125	C	1.843339	-0.024542	1.565297
C126	C	2.176673	0.308792	1.898631
C127	C	1.510007	-0.357873	1.115811
C128	C	1.843340	-0.024540	1.449144
C129	C	2.176674	0.308793	1.782477
H130	H	0.905963	-0.441793	0.621183
H131	H	1.239296	-0.108459	0.954516
H132	H	1.572629	0.224874	1.287849
H133	H	1.115088	-0.441765	0.621157
H134	H	1.448422	-0.108432	0.954491
H135	H	1.781755	0.224902	1.287824
H136	H	1.627827	-0.441648	0.899431
H137	H	1.961161	-0.108314	1.232765
H138	H	2.294494	0.225019	1.566098
H139	H	1.077814	-0.319160	0.449201
H140	H	1.411147	0.014173	0.782534
H141	H	1.744481	0.347506	1.115867
H142	H	1.627823	-0.441656	1.108557
H143	H	1.961156	-0.108323	1.441891
H144	H	2.294489	0.225010	1.775224
F145	F	1.362888	-0.804550	0.650258
F146	F	1.696221	-0.471217	0.983591
F147	F	2.029554	-0.137884	1.316924
F148	F	1.657200	-0.910219	0.356515
F149	F	1.990534	-0.576886	0.689849
F150	F	2.323867	-0.243552	1.023182
F151	F	0.956943	-0.307292	0.432535
F152	F	1.290276	0.026042	0.765868
F153	F	1.623609	0.359375	1.099201
F154	F	1.710658	-0.804252	0.557480
F155	F	2.043991	-0.470919	0.890813
F156	F	2.377324	-0.137585	1.224146
F157	F	1.438981	-0.307354	0.950416
F158	F	1.772315	0.025979	1.283750
F159	F	2.105648	0.359313	1.617083
F160	F	1.309418	-0.910698	0.449575
F161	F	1.642752	-0.577364	0.782908
F162	F	1.976085	-0.244031	1.116242
F163	F	1.456266	-0.804625	0.302653
F164	F	1.789600	-0.471291	0.635987
F165	F	2.122933	-0.137958	0.969320
F166	F	1.438967	-0.307362	1.057618
F167	F	1.772300	0.025972	1.390951
F168	F	2.105633	0.359305	1.724285
F169	F	1.563674	-0.910475	0.704270
F170	F	1.897007	-0.577142	1.037603
F171	F	2.230340	-0.243808	1.370936
