data_functionalizedCrystal
_audit_creation_method	'MofGen! by Chris Wilmer'
_symmetry_space_group_name_H-M	'P1'
_symmetry_Int_Tables_number	1
_symmetry_cell_setting	triclinic
loop_
_symmetry_equiv_pos_as_xyz
  x,y,z
_cell_length_a	19.121324
_cell_length_b	19.077105
_cell_length_c	19.076808
_cell_angle_alpha	90.072392
_cell_angle_beta	85.138196
_cell_angle_gamma	89.971547
loop_
_atom_site_label
_atom_site_type_symbol
_atom_site_fract_x
_atom_site_fract_y
_atom_site_fract_z
Zn1	Zn	-0.426783	-1.045509	-0.304069
Zn2	Zn	-0.304408	-1.045715	-0.427013
Zn3	Zn	-0.304814	-0.933000	-0.304773
Zn4	Zn	-0.417323	-0.923635	-0.417237
O5	O	-0.363332	-0.986965	-0.363273
O6	O	-0.414340	-1.143712	-0.324175
O7	O	-0.206162	-1.034769	-0.415183
O8	O	-0.325123	-0.951757	-0.206161
O9	O	-0.324431	-1.143864	-0.414500
O10	O	-0.414733	-1.034417	-0.205644
O11	O	-0.206460	-0.951957	-0.325374
O12	O	-0.315949	-0.833581	-0.315895
O13	O	-0.516877	-0.935797	-0.397839
O14	O	-0.398608	-0.826701	-0.398522
O15	O	-0.523828	-1.025336	-0.314695
O16	O	-0.315257	-1.025689	-0.524234
O17	O	-0.398215	-0.935997	-0.517052
C18	C	-0.356296	-0.804685	-0.356225
C19	C	-0.353302	-0.726704	-0.353226
C20	C	-0.355682	-0.979867	-0.546188
C21	C	-0.352435	-0.976894	-0.624442
C22	C	-0.546553	-0.979499	-0.355098
C23	C	-0.624632	-0.976317	-0.351615
C24	C	-0.661160	-1.017935	-0.396734
C25	C	-0.734523	-1.014946	-0.393452
C26	C	-0.771356	-0.970335	-0.345054
C27	C	-0.734822	-0.928716	-0.299930
C28	C	-0.661461	-0.931709	-0.303209
C29	C	-0.992868	-0.959143	-0.332812
C30	C	-1.066234	-0.956152	-0.329538
C31	C	-1.065930	-1.042383	-0.423060
C32	C	-0.992567	-1.045369	-0.426337
C33	C	-0.956040	-1.003753	-0.381211
C34	C	-0.846345	-0.967277	-0.341700
C35	C	-0.881053	-1.006815	-0.384562
C36	C	-0.180827	-0.994444	-0.371367
C37	C	-0.102763	-0.997769	-0.374657
C38	C	-0.370396	-1.169956	-0.370349
C39	C	-0.373406	-1.247936	-0.373365
C40	C	-0.394859	-0.686505	-0.394907
C41	C	-0.392049	-0.613233	-0.392079
C42	C	-0.347679	-0.580162	-0.347574
C43	C	-0.306121	-0.620367	-0.305888
C44	C	-0.308935	-0.693637	-0.308712
C45	C	-0.334661	-0.361411	-0.334503
C46	C	-0.331849	-0.288135	-0.331684
C47	C	-0.417779	-0.281007	-0.417874
C48	C	-0.420585	-0.354278	-0.420698
C49	C	-0.379030	-0.394477	-0.379009
N50	N	-0.344805	-0.505267	-0.344684
N51	N	-0.381908	-0.469370	-0.381895
C52	C	-0.397600	-1.018499	-0.660872
C53	C	-0.394550	-1.015703	-0.734399
C54	C	-0.346331	-0.971305	-0.771495
C55	C	-0.301164	-0.929695	-0.735059
C56	C	-0.304218	-0.932489	-0.661533
C57	C	-0.332195	-0.958336	-0.991430
C58	C	-0.329143	-0.955548	-1.064961
C59	C	-0.422530	-1.041555	-1.064297
C60	C	-0.425577	-1.044347	-0.990769
C61	C	-0.380412	-1.002735	-0.954340
N62	N	-0.343211	-0.968447	-0.846651
N63	N	-0.383536	-1.005589	-0.879184
C64	C	-0.371028	-0.994108	-0.179644
C65	C	-0.374308	-0.997153	-0.101392
H66	H	-0.631177	-1.054264	-0.436143
N67	N	-0.264111	-0.737002	-0.263762
H68	H	-0.295245	-0.767503	-0.231078
H69	H	-0.235579	-0.704891	-0.235184
H70	H	-0.962582	-1.081684	-0.465759
H71	H	-0.876342	-0.930953	-0.302295
H72	H	-0.764262	-1.048835	-0.430193
N73	N	-0.283476	-0.913464	-0.952146
H74	H	-0.253317	-0.944488	-0.924179
H75	H	-0.312052	-0.880926	-0.919170
N76	N	-1.105950	-0.908014	-0.277345
H77	H	-1.133918	-0.873146	-0.303354
H78	H	-1.071625	-0.882153	-0.249280
N79	N	-0.622064	-0.886823	-0.254539
H80	H	-0.632434	-0.835749	-0.262961
H81	H	-0.570015	-0.895547	-0.263979
H82	H	-0.295722	-0.261211	-0.295434
H83	H	-0.261906	-0.893543	-0.765267
N84	N	-0.436864	-0.569875	-0.437042
H85	H	-0.405726	-0.539372	-0.469721
H86	H	-0.469489	-0.539303	-0.405812
H87	H	-0.464840	-1.080499	-0.960568
H88	H	-0.267441	-0.898609	-0.631871
N89	N	-0.471242	-1.086433	-1.103588
H90	H	-0.461993	-1.077928	-1.155795
H91	H	-0.521512	-1.073916	-1.088066
N92	N	-0.277132	-0.907661	-1.104974
H93	H	-0.248984	-0.881723	-1.070739
H94	H	-0.303180	-0.872852	-1.132973
N95	N	-0.449605	-1.066384	-0.620860
H96	H	-0.440144	-1.116479	-0.636037
H97	H	-0.498811	-1.052856	-0.631000
N98	N	-1.105327	-1.087265	-0.471732
H99	H	-1.157390	-1.078601	-0.462314
H100	H	-1.094899	-1.138320	-0.463287
H101	H	-0.269998	-0.593435	-0.269648
N102	N	-0.442712	-0.722168	-0.442915
H103	H	-0.492885	-0.707803	-0.429328
H104	H	-0.438130	-0.774675	-0.438363
N105	N	-0.953477	-0.914271	-0.284131
H106	H	-0.987944	-0.885560	-0.252973
H107	H	-0.920576	-0.881927	-0.312878
H108	H	-0.451611	-0.248269	-0.451814
N109	N	-0.468437	-0.389947	-0.468704
H110	H	-0.494337	-0.353362	-0.494681
H111	H	-0.503356	-0.420138	-0.439820
H112	H	-0.764817	-0.892396	-0.260520
N113	N	-0.443297	-1.060539	-0.773691
H114	H	-0.474315	-1.089080	-0.739033
H115	H	-0.414753	-1.093043	-0.806728
H116	H	-0.300818	-0.394131	-0.300563
H117	H	-0.851061	-1.043140	-0.423965
