data_functionalizedCrystal
_audit_creation_method	'MofGen! by Chris Wilmer'
_symmetry_space_group_name_H-M	'P1'
_symmetry_Int_Tables_number	1
_symmetry_cell_setting	triclinic
loop_
_symmetry_equiv_pos_as_xyz
  x,y,z
_cell_length_a	12.827893
_cell_length_b	12.827892
_cell_length_c	12.827879
_cell_angle_alpha	89.937559
_cell_angle_beta	89.958596
_cell_angle_gamma	90.015363
loop_
_atom_site_label
_atom_site_type_symbol
_atom_site_fract_x
_atom_site_fract_y
_atom_site_fract_z
Zn1	Zn	1.597900	-0.415648	-0.590843
Zn2	Zn	1.847900	-0.165648	-0.340843
Zn3	Zn	2.097900	0.084352	-0.090843
Zn4	Zn	2.347900	0.334352	0.159157
Zn5	Zn	1.597726	-0.590525	-0.416102
Zn6	Zn	1.847726	-0.340525	-0.166102
Zn7	Zn	2.097726	-0.090525	0.083898
Zn8	Zn	2.347726	0.159475	0.333898
Zn9	Zn	1.423073	-0.415798	-0.416117
Zn10	Zn	1.673073	-0.165798	-0.166117
Zn11	Zn	1.923073	0.084202	0.083883
Zn12	Zn	2.173073	0.334202	0.333883
Zn13	Zn	1.423127	-0.590348	-0.590803
Zn14	Zn	1.673127	-0.340348	-0.340803
Zn15	Zn	1.923127	-0.090348	-0.090803
Zn16	Zn	2.173127	0.159652	0.159197
O17	O	1.510456	-0.503080	-0.503466
O18	O	1.760456	-0.253080	-0.253466
O19	O	2.010456	-0.003080	-0.003466
O20	O	2.260456	0.246920	0.246534
O21	O	1.744113	-0.438857	-0.567674
O22	O	1.994113	-0.188857	-0.317674
O23	O	2.244113	0.061143	-0.067674
O24	O	2.494113	0.311143	0.182326
O25	O	1.574463	-0.567484	-0.269868
O26	O	1.824463	-0.317484	-0.019868
O27	O	2.074463	-0.067484	0.230132
O28	O	2.324463	0.182516	0.480132
O29	O	1.446315	-0.269542	-0.439317
O30	O	1.696315	-0.019542	-0.189317
O31	O	1.946315	0.230458	0.060683
O32	O	2.196315	0.480458	0.310683
O33	O	1.743985	-0.567338	-0.439292
O34	O	1.993985	-0.317338	-0.189292
O35	O	2.243985	-0.067338	0.060708
O36	O	2.493985	0.182662	0.310708
O37	O	1.574759	-0.269432	-0.567688
O38	O	1.824759	-0.019432	-0.317688
O39	O	2.074759	0.230568	-0.067688
O40	O	2.324759	0.480568	0.182312
O41	O	1.446146	-0.439113	-0.269878
O42	O	1.696146	-0.189113	-0.019878
O43	O	1.946146	0.060887	0.230122
O44	O	2.196146	0.310887	0.480122
O45	O	1.276844	-0.438941	-0.439279
O46	O	1.526844	-0.188941	-0.189279
O47	O	1.776844	0.061059	0.060721
O48	O	2.026844	0.311059	0.310721
O49	O	1.446406	-0.567037	-0.737045
O50	O	1.696406	-0.317037	-0.487045
O51	O	1.946406	-0.067037	-0.237045
O52	O	2.196406	0.182963	0.012955
O53	O	1.276883	-0.567182	-0.567620
O54	O	1.526883	-0.317182	-0.317620
O55	O	1.776883	-0.067182	-0.067620
O56	O	2.026883	0.182818	0.182380
O57	O	1.574811	-0.438686	-0.737074
O58	O	1.824811	-0.188686	-0.487074
O59	O	2.074811	0.061314	-0.237074
O60	O	2.324811	0.311314	0.012926
O61	O	1.574514	-0.736737	-0.439254
O62	O	1.824514	-0.486737	-0.189254
O63	O	2.074514	-0.236737	0.060746
O64	O	2.324514	0.013263	0.310746
O65	O	1.446237	-0.736608	-0.567606
O66	O	1.696237	-0.486608	-0.317606
O67	O	1.946237	-0.236608	-0.067606
O68	O	2.196237	0.013392	0.182394
C69	C	1.238946	-0.503060	-0.503447
C70	C	1.488946	-0.253060	-0.253447
C71	C	1.738946	-0.003060	-0.003447
C72	C	1.988946	0.246940	0.246553
C73	C	1.122793	-0.503076	-0.503464
C74	C	1.372793	-0.253076	-0.253464
C75	C	1.622793	-0.003076	-0.003464
C76	C	1.872793	0.246924	0.246536
C77	C	0.951027	-0.439631	-0.567106
C78	C	1.201027	-0.189631	-0.317106
C79	C	1.451027	0.060369	-0.067106
C80	C	1.701027	0.310369	0.182894
C81	C	1.071078	-0.439612	-0.567090
C82	C	1.321078	-0.189612	-0.317090
C83	C	1.571078	0.060388	-0.067090
C84	C	1.821078	0.310388	0.182910
C85	C	1.510391	-0.774590	-0.503447
C86	C	1.760391	-0.524590	-0.253447
C87	C	2.010391	-0.274590	-0.003447
C88	C	2.260391	-0.024590	0.246553
C89	C	1.510459	-0.890743	-0.503473
C90	C	1.760459	-0.640743	-0.253473
C91	C	2.010459	-0.390743	-0.003473
C92	C	2.260459	-0.140743	0.246527
C93	C	1.573989	-0.942390	-0.567052
C94	C	1.823989	-0.692390	-0.317052
C95	C	2.073989	-0.442390	-0.067052
C96	C	2.323989	-0.192390	0.182948
C97	C	1.574060	-1.062440	-0.567081
C98	C	1.824060	-0.812440	-0.317081
C99	C	2.074060	-0.562440	-0.067081
C100	C	2.324060	-0.312440	0.182919
C101	C	1.783026	-0.503101	-0.503486
C102	C	2.033026	-0.253101	-0.253486
C103	C	2.283026	-0.003101	-0.003486
C104	C	2.533026	0.246899	0.246514
C105	C	1.899180	-0.503110	-0.503494
C106	C	2.149180	-0.253110	-0.253494
C107	C	2.399180	-0.003110	-0.003494
C108	C	2.649180	0.246890	0.246506
C109	C	1.510634	-0.502825	-0.776037
C110	C	1.760634	-0.252825	-0.526037
C111	C	2.010634	-0.002825	-0.276037
C112	C	2.260634	0.247175	-0.026037
C113	C	1.510709	-0.502716	-0.892190
C114	C	1.760709	-0.252716	-0.642190
C115	C	2.010709	-0.002716	-0.392190
C116	C	2.260709	0.247284	-0.142190
C117	C	1.510550	-0.230510	-0.503508
C118	C	1.760550	0.019490	-0.253508
C119	C	2.010550	0.269490	-0.003508
C120	C	2.260550	0.519490	0.246492
C121	C	1.510591	-0.114357	-0.503526
C122	C	1.760591	0.135643	-0.253526
C123	C	2.010591	0.385643	-0.003526
C124	C	2.260591	0.635643	0.246474
C125	C	1.510340	-0.503258	-0.231956
C126	C	1.760340	-0.253258	0.018044
C127	C	2.010340	-0.003258	0.268044
C128	C	2.260340	0.246742	0.518044
C129	C	1.510467	-0.503073	-0.115803
C130	C	1.760467	-0.253073	0.134197
C131	C	2.010467	-0.003073	0.384197
C132	C	2.260467	0.246927	0.634197
C133	C	1.573722	-0.438834	0.055739
C134	C	1.823722	-0.188834	0.305739
C135	C	2.073722	0.061166	0.555739
C136	C	2.323722	0.311166	0.805739
C137	C	1.573593	-0.439025	-0.064311
C138	C	1.823593	-0.189025	0.185689
C139	C	2.073593	0.060975	0.435689
C140	C	2.323593	0.310975	0.685689
H141	H	1.115665	-0.385261	-0.621545
H142	H	1.365665	-0.135261	-0.371545
H143	H	1.615665	0.114739	-0.121545
H144	H	1.865665	0.364739	0.128455
F145	F	0.892884	-0.368619	-0.638314
F146	F	1.142884	-0.118619	-0.388314
F147	F	1.392884	0.131381	-0.138314
F148	F	1.642884	0.381381	0.111686
H149	H	1.627762	-0.383998	0.100035
H150	H	1.877762	-0.133998	0.350035
H151	H	2.127762	0.116002	0.600035
H152	H	2.377762	0.366002	0.850035
H153	H	0.943668	-0.557448	-0.449028
H154	H	1.193668	-0.307448	-0.199028
H155	H	1.443668	-0.057448	0.050972
H156	H	1.693668	0.192552	0.300972
F157	F	1.064525	-0.574111	-0.432270
F158	F	1.314525	-0.324111	-0.182270
F159	F	1.564525	-0.074111	0.067730
F160	F	1.814525	0.175889	0.317730
F161	F	1.440062	-0.574385	0.049917
F162	F	1.690062	-0.324385	0.299917
F163	F	1.940062	-0.074385	0.549917
F164	F	2.190062	0.175615	0.799917
H165	H	1.628323	-0.897732	-0.621468
H166	H	1.878323	-0.647732	-0.371468
H167	H	2.128323	-0.397732	-0.121468
H168	H	2.378323	-0.147732	0.128532
H169	H	1.628454	-1.106856	-0.621510
H170	H	1.878454	-0.856856	-0.371510
H171	H	2.128454	-0.606856	-0.121510
H172	H	2.378454	-0.356856	0.128490
H173	H	1.627544	-0.384337	-0.109090
H174	H	1.877544	-0.134337	0.140910
H175	H	2.127544	0.115663	0.390910
H176	H	2.377544	0.365663	0.640910
F177	F	1.439498	-1.056313	-0.432369
F178	F	1.689498	-0.806313	-0.182369
F179	F	1.939498	-0.556313	0.067631
F180	F	2.189498	-0.306313	0.317631
H181	H	1.456116	-0.935403	-0.449068
H182	H	1.706116	-0.685403	-0.199068
H183	H	1.956116	-0.435403	0.050932
H184	H	2.206116	-0.185403	0.300932
F185	F	1.439953	-0.574569	-0.057285
F186	F	1.689953	-0.324569	0.192715
F187	F	1.939953	-0.074569	0.442715
F188	F	2.189953	0.175431	0.692715
