data_functionalizedCrystal
_audit_creation_method	'MofGen! by Chris Wilmer'
_symmetry_space_group_name_H-M	'P1'
_symmetry_Int_Tables_number	1
_symmetry_cell_setting	triclinic
loop_
_symmetry_equiv_pos_as_xyz
  x,y,z
_cell_length_a	21.295416
_cell_length_b	18.215407
_cell_length_c	21.295120
_cell_angle_alpha	89.938081
_cell_angle_beta	90.359211
_cell_angle_gamma	89.963524
loop_
_atom_site_label
_atom_site_type_symbol
_atom_site_fract_x
_atom_site_fract_y
_atom_site_fract_z
Zn1	Zn	0.248466	1.125389	-0.355848
Zn2	Zn	0.354342	1.125184	-0.250575
Zn3	Zn	0.249102	1.002220	-0.250599
Zn4	Zn	0.353712	1.002276	-0.355820
O5	O	0.301406	1.063767	-0.303211
O6	O	0.262508	1.228346	-0.341886
O7	O	0.340912	1.108763	-0.162486
O8	O	0.160928	1.018621	-0.264583
O9	O	0.340295	1.228195	-0.264542
O10	O	0.160461	1.109113	-0.341909
O11	O	0.263592	1.018422	-0.162504
O12	O	0.262982	0.899243	-0.264555
O13	O	0.339221	1.018717	-0.443916
O14	O	0.339838	0.899284	-0.341860
O15	O	0.261897	1.109167	-0.443937
O16	O	0.442348	1.108817	-0.264513
O17	O	0.441886	1.018518	-0.341836
C18	C	0.464958	1.063671	-0.303183
C19	C	0.534926	1.063698	-0.303192
C20	C	0.301411	0.872561	-0.303207
C21	C	0.301429	0.790762	-0.303221
C22	C	0.300418	1.063971	-0.467406
C23	C	0.299997	1.064058	-0.537377
C24	C	0.568012	1.110759	-0.262973
C25	C	0.633754	1.110793	-0.262990
C26	C	0.666408	1.063754	-0.303219
C27	C	0.633313	1.016690	-0.343446
C28	C	0.567572	1.016661	-0.343433
N29	N	0.769652	0.999380	-0.308022
N30	N	0.832103	0.999409	-0.308031
C31	C	0.864482	1.063837	-0.303264
N32	N	0.832051	1.128237	-0.298475
N33	N	0.769594	1.128207	-0.298462
C34	C	0.737693	1.063780	-0.303239
C35	C	0.968854	1.110940	-0.263061
C36	C	1.034598	1.110976	-0.263082
C37	C	1.034156	1.016865	-0.343536
C38	C	0.968413	1.016836	-0.343518
C39	C	0.935766	1.063872	-0.303277
C40	C	1.137215	1.063884	-0.303263
C41	C	1.067247	1.063937	-0.303313
C42	C	0.301401	1.255720	-0.303214
C43	C	0.301398	1.337519	-0.303216
C44	C	0.260913	1.525793	-0.343487
C45	C	0.260919	1.602651	-0.343490
C46	C	0.341918	1.602483	-0.262947
C47	C	0.341915	1.525626	-0.262949
C48	C	0.301409	1.487282	-0.303218
C49	C	0.301418	1.640999	-0.303219
C50	C	0.301425	1.724332	-0.303221
C51	C	0.301403	1.403944	-0.303216
C52	C	0.302344	1.063606	-0.139653
C53	C	0.302588	1.063662	-0.069683
C54	C	0.261875	1.110429	-0.037338
C55	C	0.261557	1.110483	0.028402
C56	C	0.301945	1.063757	0.061795
C57	C	0.342666	1.016987	0.029442
C58	C	0.342987	1.016939	-0.036297
N59	N	0.306671	0.999452	0.165164
N60	N	0.306362	0.999499	0.227613
C61	C	0.300981	1.063899	0.259864
N62	N	0.295908	1.128251	0.227306
N63	N	0.296213	1.128203	0.164851
C64	C	0.301602	1.063804	0.133079
C65	C	0.259921	1.110729	0.363493
C66	C	0.259607	1.110784	0.429235
C67	C	0.340713	1.017281	0.430273
C68	C	0.341030	1.017232	0.364533
C69	C	0.300631	1.063955	0.331146
H70	H	0.541433	1.149060	-0.230208
H71	H	1.060741	0.978568	-0.376294
C72	C	0.214816	1.162233	0.464814
N73	N	0.181077	1.200983	0.491613
H74	H	0.540633	0.978338	-0.376185
H75	H	0.374895	1.494270	-0.230156
C76	C	0.215488	1.162132	0.326766
N77	N	0.182021	1.200851	0.299105
C78	C	0.385142	0.965882	0.467002
N79	N	0.418608	0.927169	0.494669
H80	H	0.660699	1.149119	-0.230238
H81	H	0.659904	0.978391	-0.376203
H82	H	0.374180	0.979146	0.338197
C83	C	0.932941	1.162691	-0.218805
N84	N	0.905892	1.201673	-0.185473
C85	C	0.387092	0.965586	0.066176
N86	N	0.420556	0.926870	0.093843
C87	C	1.070993	1.162749	-0.218835
N88	N	1.098406	1.201744	-0.185506
C89	C	0.217439	1.161831	-0.074059
N90	N	0.183971	1.200550	-0.101719
H91	H	0.227930	1.494576	-0.376277
C92	C	0.932017	0.965079	-0.387776
N93	N	0.904603	0.926102	-0.421120
H94	H	0.376142	0.978854	-0.062632
C95	C	0.216367	1.645009	-0.387787
N96	N	0.182808	1.676912	-0.421153
C97	C	0.386465	1.644668	-0.218646
N98	N	0.420016	1.676440	-0.185275
H99	H	0.228401	1.148566	0.054743
