data_functionalizedCrystal
_audit_creation_method	'MofGen! by Chris Wilmer'
_symmetry_space_group_name_H-M	'P1'
_symmetry_Int_Tables_number	1
_symmetry_cell_setting	triclinic
loop_
_symmetry_equiv_pos_as_xyz
  x,y,z
_cell_length_a	21.395362
_cell_length_b	10.686203
_cell_length_c	21.395355
_cell_angle_alpha	94.377563
_cell_angle_beta	90.048039
_cell_angle_gamma	85.650757
loop_
_atom_site_label
_atom_site_type_symbol
_atom_site_fract_x
_atom_site_fract_y
_atom_site_fract_z
Zn1	Zn	-0.977066	0.501858	-0.335618
Zn2	Zn	-0.985042	0.712826	-0.222839
Zn3	Zn	-0.872283	0.501925	-0.230810
Zn4	Zn	-0.880325	0.712861	-0.327535
O5	O	-0.928679	0.607367	-0.279200
O6	O	-1.065800	0.529800	-0.320705
O7	O	-0.970057	0.684863	-0.136217
O8	O	-0.879479	0.325348	-0.251432
O9	O	-1.071660	0.684798	-0.237846
O10	O	-0.956462	0.325298	-0.328434
O11	O	-0.887213	0.529915	-0.142074
O12	O	-0.785674	0.529949	-0.243593
O13	O	-0.893185	0.684857	-0.416285
O14	O	-0.791582	0.684922	-0.314656
O15	O	-0.964260	0.529834	-0.422224
O16	O	-0.977854	0.889399	-0.230008
O17	O	-0.900919	0.889424	-0.306927
C18	C	-0.765894	0.607448	-0.279113
C19	C	-0.696255	0.607512	-0.279089
C20	C	-0.941142	0.935194	-0.266739
C21	C	-0.946531	1.075439	-0.261429
C22	C	-0.666639	0.688317	-0.316025
C23	C	-0.601203	0.688291	-0.316050
C24	C	-0.565386	0.607475	-0.279126
C25	C	-0.595009	0.526655	-0.242187
C26	C	-0.660444	0.526674	-0.242169
C27	C	-0.461272	0.597319	-0.223098
C28	C	-0.395839	0.597309	-0.223115
C29	C	-0.363562	0.607409	-0.279183
C30	C	-0.396728	0.617546	-0.335235
C31	C	-0.462163	0.617565	-0.335216
C32	C	-0.494432	0.607445	-0.279142
C33	C	-0.262993	0.688191	-0.316149
C34	C	-0.197555	0.688156	-0.316174
C35	C	-0.191363	0.526526	-0.242306
C36	C	-0.256799	0.526554	-0.242287
C37	C	-0.292611	0.607393	-0.279207
C38	C	-0.092100	0.607309	-0.279269
C39	C	-0.161742	0.607337	-0.279251
C40	C	-0.916178	1.278261	-0.291730
C41	C	-0.910835	1.138015	-0.297087
C42	C	-0.928730	0.607342	-0.442625
C43	C	-0.928752	0.607331	-0.512266
C44	C	-0.965758	0.526607	-0.548073
C45	C	-0.965756	0.526553	-0.613511
C46	C	-0.928753	0.607245	-0.643138
C47	C	-0.891739	0.687974	-0.607323
C48	C	-0.891738	0.688017	-0.541887
C49	C	-0.928125	0.720859	-0.742492
C50	C	-0.928130	0.720818	-0.807926
C51	C	-0.928752	0.607112	-0.844964
C52	C	-0.929381	0.493442	-0.816559
C53	C	-0.929380	0.493485	-0.751123
C54	C	-0.928750	0.607207	-0.714092
C55	C	-0.965758	0.526322	-0.951726
C56	C	-0.965750	0.526266	-1.017164
C57	C	-0.891737	0.687699	-1.010975
C58	C	-0.891741	0.687744	-0.945538
C59	C	-0.928754	0.607057	-0.915917
C60	C	-0.928661	0.607302	-0.116415
C61	C	-0.928747	0.606957	-0.046787
H62	H	-0.695793	0.754140	-0.346090
H63	H	-0.162201	0.460718	-0.212245
H64	H	-0.684557	0.460869	-0.212091
H65	H	-0.292152	0.754008	-0.346215
H66	H	-0.370450	0.625769	-0.380890
C67	C	-1.006462	0.437455	-1.056552
N68	N	-1.037127	0.370563	-1.086220
H69	H	-0.876152	1.084298	-0.331678
H70	H	-0.173443	0.753954	-0.346256
C71	C	-0.555609	0.437756	-0.201571
N72	N	-0.525932	0.370792	-0.170979
C73	C	-0.993385	1.148014	-0.214690
N74	N	-1.028675	1.202678	-0.179486
C75	C	-0.851034	0.776463	-1.043562
N76	N	-0.820375	0.843321	-1.068109
H77	H	-0.861610	0.753486	-0.916383
C78	C	-0.498643	0.628715	-0.396871
N79	N	-0.526120	0.637110	-0.443311
C80	C	-0.927438	0.845855	-0.839166
N81	N	-0.926915	0.940037	-0.862694
H82	H	-0.577085	0.754091	-0.346130
H83	H	-0.995897	0.460904	-0.523960
H84	H	-0.927451	0.813429	-0.712342
H85	H	-0.929888	0.400852	-0.846713
C86	C	-0.359362	0.586149	-0.161459
N87	N	-0.331889	0.577737	-0.115018
H88	H	-0.995889	0.460811	-0.642670
H89	H	-0.861609	0.753671	-0.631450
H90	H	-0.929891	0.400932	-0.727998
H91	H	-0.861599	0.753751	-0.512733
C92	C	-0.289378	0.437673	-0.201647
N93	N	-0.313917	0.370723	-0.171036
C94	C	-0.496770	0.586212	-0.161415
N95	N	-0.523506	0.577849	-0.114956
H96	H	-0.995893	0.460615	-0.927607
