data_functionalizedCrystal
_audit_creation_method	'MofGen! by Chris Wilmer'
_symmetry_space_group_name_H-M	'P1'
_symmetry_Int_Tables_number	1
_symmetry_cell_setting	triclinic
loop_
_symmetry_equiv_pos_as_xyz
  x,y,z
_cell_length_a	16.109301
_cell_length_b	11.026607
_cell_length_c	14.586319
_cell_angle_alpha	89.998207
_cell_angle_beta	89.999213
_cell_angle_gamma	96.023749
loop_
_atom_site_label
_atom_site_type_symbol
_atom_site_fract_x
_atom_site_fract_y
_atom_site_fract_z
O1	O	1.126503	0.155971	-0.076179
O2	O	0.887350	0.175382	-0.076193
O3	O	0.987106	-0.010969	-0.076183
O4	O	1.026747	0.342322	-0.076188
O5	O	0.987097	-0.010971	0.076297
O6	O	0.887341	0.175379	0.076288
O7	O	1.126494	0.155969	0.076302
Cu8	Cu	1.006916	0.165674	0.090218
Cu9	Cu	1.006927	0.165677	-0.090108
O10	O	1.026738	0.342319	0.076293
C11	C	0.856253	0.174594	0.000046
C12	C	0.763604	0.172237	0.000040
C13	C	0.557080	0.277333	0.000050
C14	C	0.470027	0.275108	0.000056
C15	C	0.456769	0.054010	0.000055
C16	C	0.543821	0.056235	0.000055
C17	C	0.593975	0.167900	0.000048
C18	C	0.419869	0.163450	0.000053
C19	C	0.325481	0.161038	0.000060
C20	C	0.688369	0.170314	0.000043
C21	C	0.979788	-0.056178	0.000055
C22	C	0.957987	-0.190883	0.000051
C23	C	1.018183	-0.264713	0.000053
C24	C	0.995652	-0.403938	0.000048
C25	C	1.157591	0.156756	0.000062
C26	C	1.250240	0.159114	0.000061
C27	C	1.034056	0.387529	0.000052
C28	C	1.055857	0.522234	0.000051
N29	N	1.006915	0.165671	0.217050
N30	N	1.006934	0.165670	-0.216940
C31	C	1.051109	0.083182	0.452060
C32	C	1.051111	0.083179	0.548041
C33	C	0.962734	0.248163	0.548043
C34	C	0.962728	0.248159	0.452063
C35	C	1.006920	0.165670	0.404074
C36	C	1.006929	0.165671	0.596035
C37	C	1.006930	0.165668	0.700102
C38	C	1.006918	0.165671	0.300001
H39	H	0.573861	-0.032883	0.000056
C40	C	1.110339	-0.210878	0.000062
H41	H	1.145184	-0.275252	0.000057
H42	H	1.121342	-0.162095	0.053236
H43	H	1.121350	-0.162090	-0.053117
C44	C	0.903493	-0.457773	0.000042
H45	H	0.900439	-0.544286	0.000046
H46	H	0.876595	-0.431124	-0.053131
H47	H	0.876592	-0.431137	0.053223
H48	H	0.926755	0.315325	0.587125
H49	H	0.439992	0.364219	0.000059
H50	H	0.926740	0.315331	0.412991
C51	C	0.612246	0.400158	0.000052
H52	H	0.577802	0.465012	0.000062
H53	H	0.646483	0.405631	-0.053121
H54	H	0.646478	0.405615	0.053233
H55	H	0.415924	-0.036904	0.000066
H56	H	1.087093	0.016009	0.587109
C57	C	1.148018	-0.423940	0.000055
H58	H	1.182861	-0.488316	0.000049
H59	H	1.159025	-0.375155	0.053228
H60	H	1.159028	-0.375154	-0.053125
C61	C	0.865832	-0.244724	0.000044
H62	H	0.862778	-0.331236	0.000048
H63	H	0.838934	-0.218075	-0.053128
H64	H	0.838931	-0.218088	0.053225
H65	H	1.087092	0.016013	0.412990
