data_functionalizedCrystal
_audit_creation_method	'MofGen! by Chris Wilmer'
_symmetry_space_group_name_H-M	'P1'
_symmetry_Int_Tables_number	1
_symmetry_cell_setting	triclinic
loop_
_symmetry_equiv_pos_as_xyz
  x,y,z
_cell_length_a	16.109301
_cell_length_b	12.837942
_cell_length_c	15.186229
_cell_angle_alpha	89.996774
_cell_angle_beta	89.999362
_cell_angle_gamma	89.145211
loop_
_atom_site_label
_atom_site_type_symbol
_atom_site_fract_x
_atom_site_fract_y
_atom_site_fract_z
O1	O	1.113716	0.133240	-0.073172
O2	O	0.872971	0.149822	-0.073186
O3	O	0.988005	-0.009370	-0.073174
O4	O	0.998681	0.292432	-0.073184
O5	O	0.987996	-0.009372	0.073283
O6	O	0.872962	0.149820	0.073271
O7	O	1.113707	0.133238	0.073285
Zn8	Zn	0.993333	0.141528	0.096532
Zn9	Zn	0.993345	0.141531	-0.096432
O10	O	0.998673	0.292430	0.073273
C11	C	0.841938	0.149149	0.000041
C12	C	0.749483	0.147135	0.000036
C13	C	0.534343	0.236914	0.000043
C14	C	0.447471	0.235014	0.000049
C15	C	0.452341	0.046138	0.000051
C16	C	0.539211	0.048040	0.000052
C17	C	0.580209	0.143431	0.000043
C18	C	0.406468	0.139629	0.000048
C19	C	0.312278	0.137568	0.000055
C20	C	0.674405	0.145492	0.000039
C21	C	0.984394	-0.047991	0.000054
C22	C	0.973637	-0.163064	0.000052
C23	C	1.102954	-0.404066	0.000041
C24	C	1.092851	-0.512188	0.000039
C25	C	0.943328	-0.487433	0.000040
C26	C	0.953431	-0.379311	0.000042
C27	C	1.033247	-0.337632	0.000044
C28	C	1.043349	-0.229507	0.000052
C29	C	0.893827	-0.204754	0.000046
C30	C	0.883724	-0.312876	0.000044
C31	C	1.144739	0.133911	0.000056
C32	C	1.237195	0.135924	0.000056
C33	C	1.002284	0.331050	0.000043
C34	C	1.013041	0.446124	0.000040
N35	N	0.993331	0.141526	0.228224
N36	N	0.993352	0.141526	-0.228125
C37	C	1.044289	0.071059	0.453952
C38	C	1.044292	0.071057	0.546142
C39	C	0.942388	0.211996	0.546141
C40	C	0.942382	0.211992	0.453953
C41	C	0.993337	0.141525	0.407861
C42	C	0.993346	0.141526	0.592239
C43	C	0.993348	0.141524	0.692195
C44	C	0.993334	0.141526	0.307898
H45	H	1.108339	-0.195574	0.000057
H46	H	1.167943	-0.370130	0.000051
O47	O	0.887427	0.288001	0.404229
H48	H	0.852006	0.337013	0.451765
O49	O	1.099247	-0.004944	0.595859
H50	H	1.143105	0.038712	0.637861
O51	O	1.168033	-0.583848	0.000047
H52	H	1.225228	-0.536696	0.000057
O53	O	0.857247	-0.532395	0.000044
H54	H	0.861937	-0.618740	0.000048
O55	O	0.578567	0.339794	0.000052
H56	H	0.532075	0.404479	0.000064
O57	O	0.397998	0.335842	0.000046
H58	H	0.441104	0.402487	0.000034
H59	H	0.576557	-0.028091	0.000055
O60	O	0.797640	-0.357831	0.000054
H61	H	0.802324	-0.444177	0.000061
O62	O	1.099235	-0.004951	0.404235
H63	H	1.134658	-0.053959	0.451777
O64	O	0.408123	-0.056746	0.000054
H65	H	0.340011	-0.042365	0.000046
H66	H	0.837067	-0.150651	0.000055
O67	O	0.887441	0.288009	0.595852
H68	H	0.896012	0.276184	0.667700
