data_functionalizedCrystal
_audit_creation_method	'MofGen! by Chris Wilmer'
_symmetry_space_group_name_H-M	'P1'
_symmetry_Int_Tables_number	1
_symmetry_cell_setting	triclinic
loop_
_symmetry_equiv_pos_as_xyz
  x,y,z
_cell_length_a	11.169417
_cell_length_b	14.908183
_cell_length_c	11.169409
_cell_angle_alpha	86.666262
_cell_angle_beta	89.980487
_cell_angle_gamma	93.316011
loop_
_atom_site_label
_atom_site_type_symbol
_atom_site_fract_x
_atom_site_fract_y
_atom_site_fract_z
Zn1	Zn	1.807326	-0.359087	-0.650922
Zn2	Zn	2.307326	0.140913	-0.150922
Zn3	Zn	1.795602	-0.509993	-0.438635
Zn4	Zn	2.295602	-0.009993	0.061365
Zn5	Zn	1.606608	-0.359143	-0.450253
Zn6	Zn	2.106608	0.140857	0.049747
Zn7	Zn	1.595011	-0.509921	-0.639286
Zn8	Zn	2.095011	-0.009921	-0.139286
O9	O	1.701137	-0.434536	-0.544774
O10	O	2.201137	0.065464	-0.044774
O11	O	1.973720	-0.379112	-0.622769
O12	O	2.473720	0.120888	-0.122769
O13	O	1.770478	-0.490036	-0.272222
O14	O	2.270478	0.009964	0.227778
O15	O	1.642994	-0.232880	-0.486603
O16	O	2.142994	0.267120	0.013397
O17	O	1.965106	-0.489982	-0.466802
O18	O	2.465106	0.010018	0.033198
O19	O	1.790461	-0.232839	-0.634034
O20	O	2.290461	0.267161	-0.134034
O21	O	1.631625	-0.379208	-0.280758
O22	O	2.131625	0.120792	0.219242
O23	O	1.437120	-0.379137	-0.475321
O24	O	1.937120	0.120863	0.024679
O25	O	1.623229	-0.489859	-0.808784
O26	O	2.123229	0.010141	-0.308784
O27	O	1.428600	-0.489913	-0.614203
O28	O	1.928600	0.010087	-0.114203
O29	O	1.779216	-0.379042	-0.817332
O30	O	2.279216	0.120958	-0.317332
O31	O	1.759233	-0.636240	-0.455520
O32	O	2.259233	-0.136240	0.044480
O33	O	1.611860	-0.636186	-0.602938
O34	O	2.111860	-0.136186	-0.102938
C35	C	1.389313	-0.434524	-0.544761
C36	C	1.889313	0.065476	-0.044761
C37	C	1.255912	-0.434541	-0.544782
C38	C	1.755912	0.065459	-0.044782
C39	C	1.683048	-0.668950	-0.526732
C40	C	2.183048	-0.168950	-0.026732
C41	C	1.675420	-0.769233	-0.519054
C42	C	2.175420	-0.269233	-0.019054
C43	C	1.587953	-0.910674	-0.431410
C44	C	2.087953	-0.410674	0.068590
C45	C	1.595116	-0.816449	-0.438622
C46	C	2.095116	-0.316449	0.061378
C47	C	1.748563	-0.816248	-0.592282
C48	C	2.248563	-0.316248	-0.092282
C49	C	1.741400	-0.910473	-0.585071
C50	C	2.241400	-0.410473	-0.085071
C51	C	1.661094	-0.957682	-0.504630
C52	C	2.161094	-0.457682	-0.004630
C53	C	1.653937	-1.051909	-0.497413
C54	C	2.153937	-0.551909	0.002587
C55	C	1.807378	-1.051706	-0.651080
C56	C	2.307378	-0.551706	-0.151080
C57	C	1.814541	-0.957482	-0.658291
C58	C	2.314541	-0.457482	-0.158291
C59	C	2.014178	-0.434549	-0.544787
C60	C	2.514178	0.065451	-0.044787
C61	C	2.147578	-0.434554	-0.544793
C62	C	2.647578	0.065446	-0.044793
C63	C	1.701237	-0.434436	-0.857824
C64	C	2.201237	0.065564	-0.357824
C65	C	1.701279	-0.434393	-0.991228
C66	C	2.201279	0.065607	-0.491228
C67	C	1.719329	-0.199207	-0.562912
C68	C	2.219329	0.300793	-0.062912
C69	C	1.727081	-0.098924	-0.570642
C70	C	2.227081	0.401076	-0.070642
C71	C	1.701111	-0.434571	-0.232947
C72	C	2.201111	0.065429	0.267053
C73	C	1.701321	-0.434359	-0.099563
C74	C	2.201321	0.065641	0.400437
H75	H	1.588550	-1.090346	-0.431913
H76	H	2.088550	-0.590346	0.068087
Cl77	Cl	1.899340	-1.110808	-0.743125
Cl78	Cl	2.399340	-0.610808	-0.243125
Cl79	Cl	1.487013	-0.970026	-0.330275
Cl80	Cl	1.987013	-0.470026	0.169725
H81	H	1.535556	-0.778177	-0.379000
H82	H	2.035556	-0.278177	0.121000
H83	H	1.879922	-0.919033	-0.723787
H84	H	2.379922	-0.419033	-0.223787
Cl85	Cl	1.849482	-0.756884	-0.693427
Cl86	Cl	2.349482	-0.256884	-0.193427
