data_functionalizedCrystal
_audit_creation_method	'MofGen! by Chris Wilmer'
_symmetry_space_group_name_H-M	'P1'
_symmetry_Int_Tables_number	1
_symmetry_cell_setting	triclinic
loop_
_symmetry_equiv_pos_as_xyz
  x,y,z
_cell_length_a	17.699083
_cell_length_b	10.723023
_cell_length_c	16.776229
_cell_angle_alpha	89.994384
_cell_angle_beta	89.998886
_cell_angle_gamma	83.875281
loop_
_atom_site_label
_atom_site_type_symbol
_atom_site_fract_x
_atom_site_fract_y
_atom_site_fract_z
O1	O	1.005074	0.157797	-0.066175
O2	O	0.784825	0.178327	-0.066201
O3	O	0.900030	-0.013601	-0.066184
O4	O	0.889868	0.349725	-0.066191
O5	O	0.900014	-0.013613	0.066393
O6	O	0.784809	0.178315	0.066376
O7	O	1.005058	0.157785	0.066402
Zn8	Zn	0.894931	0.168048	0.087438
Zn9	Zn	0.894952	0.168064	-0.087237
O10	O	0.889853	0.349714	0.066385
C11	C	0.756615	0.177585	0.000084
C12	C	0.672583	0.175379	0.000075
C13	C	0.624673	0.288036	0.000072
C14	C	0.545716	0.285955	0.000083
C15	C	0.514672	0.171215	0.000090
C16	C	0.562589	0.058549	0.000094
C17	C	0.641544	0.060631	0.000089
C18	C	0.244173	0.050148	0.000114
C19	C	0.165212	0.048075	0.000116
C20	C	0.148345	0.275473	0.000107
C21	C	0.227300	0.277555	0.000103
C22	C	0.275210	0.164889	0.000111
C23	C	0.360823	0.167147	0.000102
C24	C	0.429060	0.168956	0.000094
C25	C	0.899283	-0.060094	0.000104
C26	C	0.897071	-0.198611	0.000101
C27	C	0.896093	-0.260353	-0.068579
C28	C	0.893806	-0.403517	-0.068584
C29	C	1.033267	0.158527	0.000115
C30	C	1.117299	0.160734	0.000120
C31	C	0.890600	0.396206	0.000096
C32	C	0.892812	0.534723	0.000094
N33	N	0.894923	0.168037	0.206650
N34	N	0.894966	0.168065	-0.206448
C35	C	0.945951	0.083086	0.248374
C36	C	0.945956	0.083085	0.331826
C37	C	0.894934	0.168042	0.373552
C38	C	0.843900	0.252997	0.331822
C39	C	0.843893	0.252991	0.248371
C40	C	0.843928	0.253021	0.668369
C41	C	0.843940	0.253023	0.751826
C42	C	0.945990	0.083115	0.751824
C43	C	0.945983	0.083109	0.668373
C44	C	0.894947	0.168060	0.626650
C45	C	0.894942	0.168058	0.536162
C46	C	0.894942	0.168050	0.464039
H47	H	0.252572	0.370988	0.000093
O48	O	0.794465	0.335609	0.627763
C49	C	0.835391	0.412526	0.579499
H50	H	0.894350	0.362694	0.566984
H51	H	0.841023	0.504729	0.611659
C52	C	0.720432	0.500514	0.515608
C53	C	0.792844	0.439305	0.500232
H54	H	0.694186	0.517038	0.466714
H55	H	0.692858	0.448697	0.548127
H56	H	0.725135	0.577343	0.542411
H57	H	0.788140	0.362470	0.473440
H58	H	0.820417	0.491109	0.467707
O59	O	0.995666	0.000700	0.792318
C60	C	1.070687	0.020809	0.771901
H61	H	1.071571	0.120716	0.748958
H62	H	1.092553	-0.048395	0.723459
C63	C	1.120818	-0.121406	0.874204
C64	C	1.121905	0.001305	0.846032
H65	H	1.152413	-0.133442	0.919930
H66	H	1.070275	-0.134958	0.887958
H67	H	1.139037	-0.179062	0.833829
H68	H	1.103676	0.058958	0.886403
H69	H	1.172446	0.014866	0.832287
O70	O	0.499142	0.395355	0.000214
C71	C	0.452954	0.400949	0.068868
H72	H	0.481538	0.337064	0.116866
H73	H	0.395383	0.368817	0.053351
C74	C	0.406554	0.615228	0.041032
C75	C	0.441663	0.536771	0.099987
H76	H	0.399585	0.699009	0.060227
H77	H	0.437669	0.611459	-0.005223
H78	H	0.358581	0.588436	0.028107
H79	H	0.489638	0.563554	0.112904
H80	H	0.410556	0.540548	0.146245
H81	H	0.283172	-0.041591	0.000122
O82	O	0.532397	-0.052879	-0.000040
C83	C	0.487216	-0.060868	-0.068691
H84	H	0.506223	0.004285	-0.116685
H85	H	0.425111	-0.031898	-0.053167
C86	C	0.472735	-0.276760	-0.040874
C87	C	0.496084	-0.196746	-0.099823
H88	H	0.478202	-0.360577	-0.060076
H89	H	0.503172	-0.271377	0.005379
H90	H	0.420983	-0.252603	-0.027942
H91	H	0.547837	-0.220894	-0.112747
H92	H	0.465655	-0.202136	-0.146080
H93	H	0.802354	0.322166	0.365800
H94	H	0.802339	0.322165	0.214400
H95	H	0.896211	-0.251738	0.058897
O96	O	0.135179	-0.063500	0.000163
C97	C	0.194395	-0.162497	0.000152
H98	H	0.248206	-0.127686	0.025248
H99	H	0.205385	-0.197241	-0.063449
C100	C	0.105453	-0.313480	0.021330
C101	C	0.171543	-0.270727	0.052160
H102	H	0.091356	-0.380245	0.053407
H103	H	0.065557	-0.246785	0.021335
H104	H	0.114620	-0.342425	-0.031670
H105	H	0.162372	-0.241769	0.105155
H106	H	0.211437	-0.337420	0.052165
H107	H	0.649942	0.381471	0.000066
H108	H	0.680552	-0.031107	0.000091
O109	O	0.995467	0.000319	0.627943
C110	C	0.982468	-0.123107	0.648458
H111	H	0.921852	-0.123463	0.671366
H112	H	1.024182	-0.159785	0.696954
C113	C	1.068251	-0.207464	0.546275
C114	C	0.993799	-0.207904	0.574405
H115	H	1.075243	-0.259774	0.500598
H116	H	1.077011	-0.124311	0.532456
H117	H	1.103004	-0.238027	0.586696
H118	H	0.959048	-0.177327	0.533988
H119	H	0.985033	-0.291055	0.588216
H120	H	0.802390	0.322208	0.785798
H121	H	0.109327	0.367211	0.000104
H122	H	0.892969	-0.456615	-0.127383
O123	O	0.897025	-0.196818	-0.138672
C124	C	0.832791	-0.107206	-0.142958
H125	H	0.811265	-0.083077	-0.080200
H126	H	0.786181	-0.147238	-0.178685
C127	C	0.881102	-0.017474	-0.261233
C128	C	0.854668	0.012170	-0.184152
H129	H	0.894595	0.056161	-0.286646
H130	H	0.924377	-0.077850	-0.258348
H131	H	0.842256	-0.050836	-0.290996
H132	H	0.893517	0.045515	-0.154388
H133	H	0.811400	0.072554	-0.187033
O134	O	0.893840	-0.402150	0.070319
C135	C	0.892447	-0.487376	0.134173
H136	H	0.914891	-0.585426	0.113066
H137	H	0.831609	-0.487907	0.156391
C138	C	0.915224	-0.326878	0.228349
C139	C	0.942796	-0.447303	0.202426
H140	H	0.946278	-0.302158	0.270453
H141	H	0.916159	-0.269458	0.185330
H142	H	0.864526	-0.327336	0.246858
H143	H	0.993490	-0.446840	0.183909
H144	H	0.941871	-0.504723	0.245444
O145	O	0.995439	0.000361	0.207898
C146	C	0.982492	-0.123116	0.228346
H147	H	0.921891	-0.123563	0.251281
H148	H	1.024240	-0.159833	0.276801
C149	C	1.068246	-0.207242	0.126074
C150	C	0.993814	-0.207793	0.154237
H151	H	1.075233	-0.259477	0.080362
H152	H	1.076972	-0.124054	0.112300
H153	H	1.103028	-0.237837	0.166461
H154	H	0.959034	-0.177184	0.113854
H155	H	0.985083	-0.290978	0.168003
H156	H	0.987506	0.013911	0.365798
