data_functionalizedCrystal
_audit_creation_method	'MofGen! by Chris Wilmer'
_symmetry_space_group_name_H-M	'P1'
_symmetry_Int_Tables_number	1
_symmetry_cell_setting	triclinic
loop_
_symmetry_equiv_pos_as_xyz
  x,y,z
_cell_length_a	15.296720
_cell_length_b	15.297475
_cell_length_c	15.297327
_cell_angle_alpha	91.625546
_cell_angle_beta	72.680778
_cell_angle_gamma	88.382886
loop_
_atom_site_label
_atom_site_type_symbol
_atom_site_fract_x
_atom_site_fract_y
_atom_site_fract_z
Zn1	Zn	-0.823122	-1.116342	0.695081
Zn2	Zn	-0.694497	-1.116246	0.823682
Zn3	Zn	-0.644396	-1.005113	0.644908
Zn4	Zn	-0.814406	-0.946204	0.814903
O5	O	-0.744105	-1.045976	0.744644
O6	O	-0.830675	-1.234042	0.736812
O7	O	-0.562870	-1.126118	0.782644
O8	O	-0.650785	-1.044561	0.526600
O9	O	-0.736174	-1.233972	0.831295
O10	O	-0.782095	-1.126281	0.563461
O11	O	-0.526062	-1.044469	0.651299
O12	O	-0.642333	-0.879585	0.642787
O13	O	-0.940543	-0.944159	0.816332
O14	O	-0.767239	-0.836305	0.767682
O15	O	-0.946946	-1.069159	0.728299
O16	O	-0.727722	-1.068996	0.947482
O17	O	-0.815819	-0.944066	0.941032
C18	C	-0.698404	-0.827423	0.698838
C19	C	-0.678877	-0.733917	0.679267
C20	C	-0.776286	-1.000147	0.976666
C21	C	-0.790099	-0.980613	1.075946
C22	C	-0.977057	-1.000098	0.776933
C23	C	-1.076327	-0.980548	0.790693
C24	C	-1.369491	-1.185768	0.646151
C25	C	-1.276224	-1.204141	0.633225
C26	C	-1.226245	-1.148244	0.672591
C27	C	-1.269543	-1.073971	0.724884
C28	C	-1.362821	-1.055600	0.737817
C29	C	-1.219575	-1.018076	0.764257
C30	C	-1.262873	-0.943803	0.816551
C31	C	-1.356142	-0.925434	0.829480
C32	C	-1.406121	-0.981331	0.790115
C33	C	-1.126296	-1.036448	0.751324
C34	C	-1.119626	-0.906280	0.842991
C35	C	-1.212894	-0.887906	0.855916
C36	C	-0.512061	-1.091736	0.712426
C37	C	-0.412791	-1.111499	0.698449
C38	C	-0.789986	-1.265382	0.790629
C39	C	-0.809537	-1.358880	0.810225
C40	C	-0.883671	-0.380296	0.884531
C41	C	-0.902016	-0.468149	0.902925
C42	C	-0.846233	-0.534595	0.847012
C43	C	-0.772102	-0.513180	0.772701
C44	C	-0.753750	-0.425318	0.754309
C45	C	-0.716312	-0.579617	0.716791
C46	C	-0.642181	-0.558202	0.642480
C47	C	-0.623833	-0.470348	0.624091
C48	C	-0.679616	-0.403902	0.680004
C49	C	-0.734664	-0.667479	0.735183
C50	C	-0.604743	-0.712501	0.604961
C51	C	-0.586398	-0.624648	0.586567
C52	C	-0.711823	-1.092003	0.511723
C53	C	-0.698067	-1.111617	0.412466
C54	C	-0.645759	-1.185880	1.369169
C55	C	-0.632777	-1.204235	1.275889
C56	C	-0.672106	-1.148331	1.225899
C57	C	-0.724420	-1.074069	1.269198
C58	C	-0.737398	-1.055710	1.362485
C59	C	-0.763745	-1.018160	1.219215
C60	C	-0.816059	-0.943898	1.262513
C61	C	-0.829035	-0.925542	1.355791
C62	C	-0.789706	-0.981446	1.405781
C63	C	-0.750767	-1.036520	1.125928
C64	C	-0.842406	-0.906349	1.119243
C65	C	-0.855389	-0.887995	1.212523
H66	H	-1.150302	-1.163209	0.662064
H67	H	-0.563462	-0.452917	0.563590
H68	H	-1.391395	-0.864962	0.872070
O69	O	-0.974132	-0.488903	0.975017
C70	C	-1.056007	-0.453720	0.963503
H71	H	-1.045696	-0.442745	0.887752
H72	H	-1.113265	-0.501284	0.989479
H73	H	-1.075266	-0.388683	1.003966
O74	O	-1.234298	-1.276298	0.582369
C75	C	-1.298412	-1.321706	0.550414
H76	H	-1.357266	-1.274767	0.549316
H77	H	-1.263590	-1.349893	0.478202
H78	H	-1.326225	-1.377175	0.597884
H79	H	-0.871621	-0.865066	1.391038
O80	O	-0.864036	-0.619967	0.864711
C81	C	-0.881408	-0.661659	0.788512
H82	H	-0.848522	-0.624174	0.724346
H83	H	-0.851218	-0.731505	0.779294
H84	H	-0.958530	-0.663012	0.800278
O85	O	-0.661617	-0.318594	0.662110
C86	C	-0.573018	-0.301596	0.666917
H87	H	-0.530056	-0.365378	0.655058
H88	H	-0.539331	-0.253896	0.612110
H89	H	-0.578023	-0.271770	0.737468
O90	O	-0.806567	-0.688321	0.807443
C91	C	-0.774234	-0.737812	0.868610
H92	H	-0.699100	-0.724115	0.858722
H93	H	-0.816173	-0.718894	0.942058
H94	H	-0.781283	-0.810445	0.854514
H95	H	-0.897983	-0.827530	1.247790
O96	O	-0.880733	-0.852149	1.070692
C97	C	-0.940930	-0.899269	1.034680
H98	H	-0.964258	-0.958897	1.077386
H99	H	-1.003117	-0.855471	1.036758
H100	H	-0.904094	-0.921539	0.960776
O101	O	-1.418044	-1.239951	0.607807
C102	C	-1.454016	-1.192828	0.547593
H103	H	-1.411286	-1.133206	0.524283
H104	H	-1.451926	-1.236627	0.485400
H105	H	-1.527923	-1.170546	0.584404
O106	O	-0.937782	-0.315646	0.938724
C107	C	-0.905670	-0.233512	0.906571
H108	H	-0.864463	-0.240864	0.831053
H109	H	-0.966437	-0.185738	0.915019
H110	H	-0.860144	-0.207517	0.947639
H111	H	-1.248160	-0.827432	0.898494
H112	H	-0.559318	-0.766603	0.559433
O113	O	-0.514298	-0.603797	0.514494
C114	C	-0.452968	-0.554303	0.546601
H115	H	-0.462620	-0.568006	0.621689
H116	H	-0.379582	-0.573212	0.504463
H117	H	-0.467109	-0.481670	0.539614
H118	H	-1.482068	-0.966375	0.800636
O119	O	-1.084114	-1.108498	0.700438
C120	C	-1.012173	-1.082627	0.625228
H121	H	-0.989227	-1.015411	0.641426
H122	H	-0.952092	-1.132176	0.611339
H123	H	-1.037025	-1.079374	0.562102
H124	H	-0.708172	-1.096984	1.090683
H125	H	-1.078934	-0.860765	0.875047
H126	H	-0.661531	-1.163279	1.149947
O127	O	-0.581977	-1.276428	1.233985
C128	C	-0.550031	-1.321824	1.298102
H129	H	-0.596466	-1.304419	1.370256
H130	H	-0.550666	-1.395288	1.283672
H131	H	-0.477130	-1.302474	1.292225
H132	H	-0.800276	-0.966508	1.481738
O133	O	-0.607624	-1.240086	1.417863
C134	C	-0.630257	-1.207930	1.509467
H135	H	-0.695183	-1.164284	1.525988
H136	H	-0.642306	-1.265151	1.557248
H137	H	-0.571588	-1.168355	1.519242
