data_functionalizedCrystal
_audit_creation_method	'MofGen! by Chris Wilmer'
_symmetry_space_group_name_H-M	'P1'
_symmetry_Int_Tables_number	1
_symmetry_cell_setting	triclinic
loop_
_symmetry_equiv_pos_as_xyz
  x,y,z
_cell_length_a	12.759401
_cell_length_b	13.897447
_cell_length_c	12.759393
_cell_angle_alpha	90.032074
_cell_angle_beta	90.018567
_cell_angle_gamma	90.018574
loop_
_atom_site_label
_atom_site_type_symbol
_atom_site_fract_x
_atom_site_fract_y
_atom_site_fract_z
Zn1	Zn	1.606220	-0.383983	0.593980
Zn2	Zn	1.606100	-0.545312	0.418298
Zn3	Zn	1.430522	-0.384030	0.418319
Zn4	Zn	1.430496	-0.545235	0.593939
O5	O	1.518334	-0.464640	0.506134
O6	O	1.753225	-0.405396	0.570683
O7	O	1.582769	-0.523970	0.271280
O8	O	1.453890	-0.249042	0.441646
O9	O	1.753137	-0.523924	0.441611
O10	O	1.582975	-0.249007	0.570703
O11	O	1.453773	-0.405477	0.271295
O12	O	1.283498	-0.405402	0.441607
O13	O	1.453846	-0.523792	0.740966
O14	O	1.283478	-0.523838	0.570635
O15	O	1.582949	-0.405321	0.740995
O16	O	1.582744	-0.680283	0.441572
O17	O	1.453729	-0.680227	0.570615
C18	C	1.245367	-0.464617	0.506119
C19	C	1.128590	-0.464631	0.506138
C20	C	1.073768	-0.403030	0.573450
C21	C	0.964043	-0.403048	0.573457
C22	C	0.963975	-0.526277	0.438836
C23	C	1.073697	-0.526253	0.438825
C24	C	1.073806	-0.331887	0.651176
C25	C	0.964082	-0.331906	0.651182
C26	C	1.518249	-0.715254	0.506110
C27	C	1.518309	-0.822468	0.506134
C28	C	1.518359	-0.909538	0.506158
C29	C	1.518433	-1.018770	0.506185
C30	C	1.792368	-0.464663	0.506149
C31	C	1.909144	-0.464673	0.506156
C32	C	1.518408	-0.464543	0.780167
C33	C	1.518439	-0.464501	0.896944
C34	C	1.518449	-0.213047	0.506181
C35	C	1.518498	-0.105833	0.506202
C36	C	1.518322	-0.464667	0.233167
C37	C	1.518494	-0.464437	0.116390
C38	C	1.585673	-0.402807	0.951823
C39	C	1.585698	-0.402772	1.061547
C40	C	1.451253	-0.526133	1.061504
C41	C	1.451223	-0.526163	0.951782
C42	C	1.663297	-0.331589	0.951849
C43	C	1.663322	-0.331554	1.061574
H44	H	0.930047	-0.260910	0.622183
F45	F	1.769677	-0.357696	1.100501
H46	H	1.107869	-0.358726	0.728413
F47	F	1.379650	-0.591812	0.893379
F48	F	0.925196	-0.358183	0.757490
F49	F	1.132040	-0.591794	0.367157
H50	H	1.641535	-0.256887	0.922094
H51	H	1.396526	-0.576334	1.106166
F52	F	1.764293	-0.366589	0.907356
H53	H	0.919267	-0.576448	0.384033
F54	F	1.112728	-0.234202	0.622877
F55	F	1.625159	-0.238823	1.106083
