data_functionalizedCrystal
_audit_creation_method	'MofGen! by Chris Wilmer'
_symmetry_space_group_name_H-M	'P1'
_symmetry_Int_Tables_number	1
_symmetry_cell_setting	triclinic
loop_
_symmetry_equiv_pos_as_xyz
  x,y,z
_cell_length_a	10.654555
_cell_length_b	13.101039
_cell_length_c	10.654550
_cell_angle_alpha	93.399062
_cell_angle_beta	84.485952
_cell_angle_gamma	86.612317
loop_
_atom_site_label
_atom_site_type_symbol
_atom_site_fract_x
_atom_site_fract_y
_atom_site_fract_z
O1	O	-1.674680	0.085142	-0.169563
O2	O	-1.309204	0.085157	-0.186362
O3	O	-1.500345	0.085153	0.004777
O4	O	-1.483539	0.085145	-0.360702
O5	O	-1.486631	-0.085276	-0.008960
O6	O	-1.295490	-0.085273	-0.200099
O7	O	-1.660966	-0.085288	-0.183300
Zn8	Zn	-1.476051	-0.112340	-0.193880
Zn9	Zn	-1.494119	0.112209	-0.175781
O10	O	-1.469825	-0.085284	-0.374439
C11	C	-1.255549	-0.000056	-0.191995
C12	C	-1.116107	-0.000050	-0.188300
N13	N	-1.463728	-0.265588	-0.206232
C14	C	-0.927036	0.092846	-0.175611
C15	C	-1.058059	0.092850	-0.179074
C16	C	-1.043126	-0.092961	-0.194051
C17	C	-0.912107	-0.092965	-0.190578
C18	C	-1.446964	-0.474630	-0.223048
C19	C	-1.523212	-0.525507	-0.146608
C20	C	-1.513884	-0.641826	-0.155965
C21	C	-1.456290	-0.358302	-0.213693
C22	C	-0.714621	-0.000069	-0.177668
C23	C	-0.854065	-0.000058	-0.181365
C24	C	-1.477916	-0.000071	-0.414368
C25	C	-1.481607	-0.000074	-0.553812
N26	N	-1.506452	0.265457	-0.163420
C27	C	-1.369067	-0.000067	-0.633295
C28	C	-1.372544	-0.000050	-0.764315
C29	C	-1.601113	-0.000052	-0.736356
C30	C	-1.597635	-0.000061	-0.605338
C31	C	-1.492255	-0.000058	0.044707
C32	C	-1.488564	-0.000048	0.184151
H33	H	-0.879783	0.168497	-0.168107
H34	H	-0.852691	-0.168623	-0.195263
O35	O	-1.129054	0.183033	-0.173668
C36	C	-1.191989	0.188602	-0.283819
H37	H	-1.200714	0.107938	-0.327035
H38	H	-1.290266	0.227928	-0.258670
H39	H	-1.135883	0.234442	-0.354821
H40	H	-1.595498	-0.481706	-0.074141
H41	H	-1.090400	-0.168603	-0.201555
O42	O	-1.360677	-0.526989	-0.309340
C43	C	-1.277571	-0.589038	-0.246419
H44	H	-1.325312	-0.604968	-0.149793
H45	H	-1.252303	-0.664544	-0.304652
H46	H	-1.187896	-0.547778	-0.233932
O47	O	-1.256380	-0.000249	-0.583195
C48	C	-1.240433	-0.088507	-0.515346
H49	H	-1.301367	-0.150203	-0.551876
H50	H	-1.136932	-0.118128	-0.528619
H51	H	-1.270103	-0.068559	-0.410683
H52	H	-1.280902	-0.000043	-0.829025
H53	H	-1.695578	-0.000053	-0.778325
O54	O	-1.707078	-0.000114	-0.528303
C55	C	-1.810234	-0.000084	-0.601871
H56	H	-1.776622	-0.032346	-0.701969
H57	H	-1.885177	-0.049566	-0.558227
H58	H	-1.852318	0.081680	-0.604906
