data_functionalizedCrystal
_audit_creation_method	'MofGen! by Chris Wilmer'
_symmetry_space_group_name_H-M	'P1'
_symmetry_Int_Tables_number	1
_symmetry_cell_setting	triclinic
loop_
_symmetry_equiv_pos_as_xyz
  x,y,z
_cell_length_a	14.971506
_cell_length_b	15.944545
_cell_length_c	14.048226
_cell_angle_alpha	89.991465
_cell_angle_beta	89.993237
_cell_angle_gamma	83.559280
loop_
_atom_site_label
_atom_site_type_symbol
_atom_site_fract_x
_atom_site_fract_y
_atom_site_fract_z
O1	O	1.186815	0.109544	-0.079172
O2	O	1.520148	0.442878	0.254161
O3	O	1.853482	0.776211	0.587495
O4	O	0.926403	0.122635	-0.079173
O5	O	1.259736	0.455968	0.254160
O6	O	1.593070	0.789302	0.587494
O7	O	1.063723	-0.006178	-0.079161
O8	O	1.397056	0.327155	0.254172
O9	O	1.730390	0.660489	0.587506
O10	O	1.049495	0.238358	-0.079184
O11	O	1.382828	0.571691	0.254150
O12	O	1.716161	0.905024	0.587483
O13	O	1.063707	-0.006186	0.079160
O14	O	1.397040	0.327148	0.412494
O15	O	1.730373	0.660481	0.745827
O16	O	0.926386	0.122628	0.079148
O17	O	1.259720	0.455961	0.412482
O18	O	1.593053	0.789294	0.745815
O19	O	1.186798	0.109537	0.079149
O20	O	1.520132	0.442870	0.412483
O21	O	1.853465	0.776203	0.745816
Zn22	Zn	1.056590	0.116081	0.104286
Zn23	Zn	1.389923	0.449414	0.437619
Zn24	Zn	1.723256	0.782748	0.770953
Zn25	Zn	1.056612	0.116091	-0.104309
Zn26	Zn	1.389945	0.449424	0.229024
Zn27	Zn	1.723278	0.782758	0.562357
O28	O	1.049478	0.238350	0.079138
O29	O	1.382812	0.571683	0.412471
O30	O	1.716145	0.905017	0.745804
C31	C	0.893071	0.122043	-0.000012
C32	C	1.226404	0.455376	0.333321
C33	C	1.559738	0.788710	0.666654
C34	C	0.793777	0.120279	-0.000012
C35	C	1.127110	0.453613	0.333321
C36	C	1.460443	0.786946	0.666655
C37	C	1.063125	-0.037477	0.000001
C38	C	1.396459	0.295857	0.333334
C39	C	1.729792	0.629190	0.666667
C40	C	1.061357	-0.130725	0.000003
C41	C	1.394691	0.202609	0.333337
C42	C	1.728024	0.535942	0.666670
C43	C	0.355418	0.189225	-0.000028
C44	C	0.688751	0.522558	0.333305
C45	C	1.022085	0.855892	0.666638
C46	C	0.448717	0.190875	-0.000033
C47	C	0.782050	0.524209	0.333301
C48	C	1.115383	0.857542	0.666634
C49	C	0.506020	0.115193	-0.000021
C50	C	0.839353	0.448526	0.333312
C51	C	1.172687	0.781859	0.666645
C52	C	0.470021	0.037854	-0.000015
C53	C	0.803354	0.371188	0.333318
C54	C	1.136687	0.704521	0.666651
C55	C	0.376724	0.036205	-0.000018
C56	C	0.710057	0.369538	0.333315
C57	C	1.043391	0.702871	0.666649
C58	C	0.664480	0.041298	-0.000008
C59	C	0.997813	0.374631	0.333326
C60	C	1.331147	0.707964	0.666659
C61	C	0.757783	0.042947	-0.000003
C62	C	1.091117	0.376280	0.333330
C63	C	1.424450	0.709614	0.666663
C64	C	0.736473	0.195968	-0.000022
C65	C	1.069806	0.529302	0.333311
C66	C	1.403139	0.862635	0.666644
C67	C	0.643176	0.194319	-0.000025
C68	C	0.976509	0.527652	0.333308
C69	C	1.309842	0.860985	0.666642
C70	C	0.607183	0.116980	-0.000017
C71	C	0.940516	0.450314	0.333316
C72	C	1.273850	0.783647	0.666649
C73	C	0.970957	-0.401450	-0.000016
C74	C	1.304291	-0.068116	0.333317
C75	C	1.637624	0.265217	0.666650
C76	C	1.014549	-0.350816	-0.078077
C77	C	1.347882	-0.017483	0.255256
C78	C	1.681216	0.315851	0.588589
C79	C	1.055053	-0.466375	-0.000024
C80	C	1.388386	-0.133042	0.333309
C81	C	1.721719	0.200292	0.666643
C82	C	1.014555	-0.350851	0.078015
C83	C	1.347889	-0.017517	0.411348
C84	C	1.681222	0.315816	0.744682
C85	C	1.058146	-0.301458	-0.000009
C86	C	1.391479	0.031875	0.333324
C87	C	1.724812	0.365208	0.666658
C88	C	1.098622	-0.416970	-0.078149
C89	C	1.431955	-0.083636	0.255184
C90	C	1.765289	0.249697	0.588517
C91	C	1.098616	-0.417008	0.078013
C92	C	1.431949	-0.083674	0.411347
C93	C	1.765283	0.249659	0.744680
C94	C	1.142269	-0.366407	-0.000067
C95	C	1.475603	-0.033073	0.333267
C96	C	1.808936	0.300260	0.666600
C97	C	1.053268	-0.561379	-0.000033
C98	C	1.386602	-0.228046	0.333300
C99	C	1.719935	0.105288	0.666633
C100	C	1.059937	-0.206457	-0.000006
C101	C	1.393270	0.126876	0.333327
C102	C	1.726603	0.460210	0.666660
C103	C	1.220130	0.110129	-0.000013
C104	C	1.553464	0.443462	0.333320
C105	C	1.886797	0.776796	0.666653
C106	C	1.319425	0.111893	-0.000020
C107	C	1.652758	0.445226	0.333314
C108	C	1.986091	0.778559	0.666647
C109	C	1.050076	0.269649	-0.000026
C110	C	1.383410	0.602982	0.333307
C111	C	1.716743	0.936315	0.666641
C112	C	1.051844	0.362897	-0.000035
C113	C	1.385177	0.696230	0.333298
C114	C	1.718511	1.029563	0.666632
N115	N	1.056581	0.116074	0.246647
N116	N	1.389915	0.449407	0.579980
N117	N	1.723248	0.782740	0.913313
N118	N	1.056627	0.116092	-0.246670
N119	N	1.389960	0.449425	0.086663
N120	N	1.723294	0.782758	0.419997
C121	C	1.117406	0.059059	0.296470
C122	C	1.450739	0.392392	0.629803
C123	C	1.784073	0.725725	0.963137
C124	C	1.117412	0.059058	0.396128
C125	C	1.450745	0.392392	0.729461
C126	C	1.784079	0.725725	1.062794
C127	C	1.056597	0.116077	0.445960
C128	C	1.389931	0.449411	0.779293
C129	C	1.723264	0.782744	1.112627
C130	C	0.995766	0.173095	0.396130
C131	C	1.329100	0.506428	0.729463
C132	C	1.662433	0.839762	1.062796
C133	C	0.995757	0.173091	0.296474
C134	C	1.329090	0.506424	0.629807
C135	C	1.662423	0.839757	0.963141
C136	C	0.995792	0.173101	0.603844
C137	C	1.329125	0.506434	0.937177
C138	C	1.662459	0.839768	1.270511
C139	C	0.995802	0.173107	0.703507
C140	C	1.329136	0.506440	1.036840
C141	C	1.662469	0.839773	1.370173
C142	C	1.117447	0.059069	0.703498
C143	C	1.450781	0.392402	1.036831
C144	C	1.784114	0.725735	1.370164
C145	C	1.117438	0.059064	0.603842
C146	C	1.450771	0.392398	0.937175
C147	C	1.784105	0.725731	1.270508
C148	C	1.056608	0.116083	0.554018
C149	C	1.389941	0.449417	0.887352
C150	C	1.723274	0.782750	1.220685
H151	H	0.308767	0.250855	-0.000030
H152	H	0.642101	0.584188	0.333303
H153	H	0.975434	0.917522	0.666636
H154	H	1.134118	-0.445736	-0.144217
H155	H	1.467452	-0.112403	0.189117
H156	H	1.800785	0.220930	0.522450
H157	H	0.596521	0.255946	-0.000028
H158	H	0.929854	0.589280	0.333305
H159	H	1.263188	0.922613	0.666639
H160	H	0.478017	0.253847	-0.000049
H161	H	0.811351	0.587180	0.333285
H162	H	1.144684	0.920513	0.666618
H163	H	0.635179	-0.021679	-0.000006
H164	H	0.968512	0.311654	0.333327
H165	H	1.301845	0.644987	0.666660
H166	H	0.898533	-0.417176	-0.000093
H167	H	1.231867	-0.083843	0.333240
H168	H	1.565200	0.249491	0.666574
Cl169	Cl	0.781720	0.293194	-0.000022
Cl170	Cl	1.115053	0.626527	0.333312
Cl171	Cl	1.448386	0.959860	0.666645
Cl172	Cl	0.919315	0.244782	0.541213
Cl173	Cl	1.252649	0.578116	0.874546
Cl174	Cl	1.585982	0.911449	1.207879
H175	H	0.946245	0.219518	0.436709
H176	H	1.279578	0.552852	0.770042
H177	H	1.612912	0.886185	1.103376
Cl178	Cl	1.254170	-0.342368	-0.000132
Cl179	Cl	1.587503	-0.009035	0.333201
Cl180	Cl	1.920837	0.324299	0.666534
H181	H	1.166939	0.012632	0.436693
H182	H	1.500273	0.345965	0.770027
H183	H	1.833606	0.679299	1.103360
Cl184	Cl	0.959730	-0.306196	-0.179971
Cl185	Cl	1.293063	0.027137	0.153362
Cl186	Cl	1.626397	0.360470	0.486696
Cl187	Cl	0.919284	0.244767	0.233840
Cl188	Cl	1.252618	0.578101	0.567173
Cl189	Cl	1.585951	0.911434	0.900506
H190	H	0.804438	-0.018681	-0.000002
H191	H	1.137771	0.314653	0.333331
H192	H	1.471105	0.647986	0.666665
Cl193	Cl	1.153391	-0.461657	0.179910
Cl194	Cl	1.486724	-0.128324	0.513243
Cl195	Cl	1.820057	0.205009	0.846576
H196	H	0.979018	-0.321976	0.144008
H197	H	1.312352	0.011358	0.477341
H198	H	1.645685	0.344691	0.810674
H199	H	1.166977	0.012642	0.744070
H200	H	1.500310	0.345975	1.077403
H201	H	1.833644	0.679309	1.410736
H202	H	0.516685	-0.023768	-0.000012
H203	H	0.850018	0.309566	0.333321
H204	H	1.183351	0.642899	0.666655
H205	H	1.166932	0.012631	0.255903
H206	H	1.500265	0.345964	0.589236
H207	H	1.833599	0.679297	0.922569
Cl208	Cl	0.331475	-0.061017	-0.000007
Cl209	Cl	0.664809	0.272316	0.333326
Cl210	Cl	0.998142	0.605650	0.666660
H211	H	1.166962	0.012639	0.563268
H212	H	1.500295	0.345973	0.896602
H213	H	1.833629	0.679306	1.229935
H214	H	0.946280	0.219537	0.744075
H215	H	1.279613	0.552870	1.077409
H216	H	1.612946	0.886203	1.410742
