data_functionalizedCrystal
_audit_creation_method	'MofGen! by Chris Wilmer'
_symmetry_space_group_name_H-M	'P1'
_symmetry_Int_Tables_number	1
_symmetry_cell_setting	triclinic
loop_
_symmetry_equiv_pos_as_xyz
  x,y,z
_cell_length_a	8.497374
_cell_length_b	12.759399
_cell_length_c	12.759401
_cell_angle_alpha	90.016641
_cell_angle_beta	89.998247
_cell_angle_gamma	89.991562
loop_
_atom_site_label
_atom_site_type_symbol
_atom_site_fract_x
_atom_site_fract_y
_atom_site_fract_z
Zn1	Zn	0.891958	0.418406	-1.606064
Zn2	Zn	0.628160	0.594052	-1.606013
Zn3	Zn	0.628185	0.418393	-1.430422
Zn4	Zn	0.891892	0.594048	-1.430354
O5	O	0.760048	0.506225	-1.518213
O6	O	0.856982	0.441713	-1.753079
O7	O	0.407401	0.570747	-1.582728
O8	O	0.663213	0.271373	-1.453771
O9	O	0.663171	0.570760	-1.753041
O10	O	0.857005	0.271383	-1.582815
O11	O	0.407419	0.441691	-1.453722
O12	O	0.663149	0.441686	-1.283392
O13	O	1.112663	0.570752	-1.453655
O14	O	0.856893	0.570739	-1.283342
O15	O	1.112711	0.441709	-1.582749
O16	O	0.663107	0.741073	-1.582661
O17	O	0.856869	0.741069	-1.453605
C18	C	0.760013	0.779192	-1.518149
C19	C	0.760050	0.895969	-1.518217
C20	C	0.760017	0.506212	-1.245246
C21	C	0.760041	0.506232	-1.128469
C22	C	0.760081	0.506238	-1.792246
C23	C	0.760095	0.506244	-1.909023
C24	C	1.171529	0.506226	-1.518205
C25	C	1.350173	0.506237	-1.518208
C26	C	0.760119	0.232191	-1.518307
C27	C	0.760149	0.115415	-1.518346
C28	C	0.659273	0.950797	-1.585494
C29	C	0.659326	1.060521	-1.585561
C30	C	0.860938	1.060578	-1.451067
C31	C	0.860891	0.950856	-1.451006
C32	C	0.603186	1.210382	-1.709582
C33	C	0.502384	1.265215	-1.776849
C34	C	0.348458	1.229634	-1.793046
C35	C	0.295302	1.139222	-1.741961
C36	C	0.396096	1.084396	-1.674686
C37	C	0.550044	1.119975	-1.658509
C38	C	0.917015	0.800993	-1.326983
C39	C	1.017802	0.746165	-1.259702
C40	C	1.171731	0.781743	-1.243495
C41	C	1.224880	0.872158	-1.294561
C42	C	1.124094	0.926987	-1.361842
C43	C	0.970167	0.891401	-1.378052
C44	C	0.860765	0.573532	-1.073609
C45	C	0.860796	0.573536	-0.963885
C46	C	0.659366	0.438937	-0.963891
C47	C	0.659344	0.438928	-1.073613
C48	C	1.046781	0.611283	-0.813947
C49	C	1.147491	0.678599	-0.759083
C50	C	1.171437	0.781136	-0.794674
C51	C	1.094649	0.816378	-0.885128
C52	C	0.993928	0.749067	-0.939987
C53	C	0.970012	0.646515	-0.904397
C54	C	0.473357	0.401192	-1.223553
C55	C	0.372627	0.333885	-1.278414
C56	C	0.348665	0.231346	-1.242824
C57	C	0.425424	0.196109	-1.152367
C58	C	0.526155	0.263415	-1.097506
C59	C	0.550119	0.365953	-1.133103
H60	H	0.577164	0.906111	-1.640223
F61	F	0.967940	0.645159	-1.131987
H62	H	1.027310	0.527785	-0.784967
F63	F	0.968251	1.119003	-1.379538
H64	H	1.167384	1.000605	-1.403428
H65	H	0.352819	1.010783	-1.633096
F66	F	1.278963	0.723421	-1.171836
F67	F	0.131463	1.101368	-1.759193
H68	H	0.931408	0.777760	-1.013632
F69	F	0.290912	0.371397	-1.374679
F70	F	1.278628	0.852776	-0.736284
H71	H	1.114141	0.899879	-0.914093
H72	H	1.350223	0.901127	-1.281365
F73	F	0.241179	1.287995	-1.864637
H74	H	0.545678	1.338828	-1.818443
F75	F	0.753186	0.763117	-1.344235
F76	F	1.229216	0.641088	-0.662820
H77	H	0.577380	0.384142	-0.919214
F78	F	0.607843	0.225911	-1.001228
F79	F	0.399913	0.086977	-1.114481
F80	F	0.498700	0.510370	-1.261363
F81	F	0.767021	1.248248	-1.692362
H82	H	0.974517	0.672539	-1.218127
F83	F	0.241435	0.159720	-1.301207
