data_functionalizedCrystal
_audit_creation_method	'MofGen! by Chris Wilmer'
_symmetry_space_group_name_H-M	'P1'
_symmetry_Int_Tables_number	1
_symmetry_cell_setting	triclinic
loop_
_symmetry_equiv_pos_as_xyz
  x,y,z
_cell_length_a	14.809374
_cell_length_b	21.606444
_cell_length_c	21.606444
_cell_angle_alpha	60.001331
_cell_angle_beta	81.049458
_cell_angle_gamma	55.129312
loop_
_atom_site_label
_atom_site_type_symbol
_atom_site_fract_x
_atom_site_fract_y
_atom_site_fract_z
Zr1	Zr	0.880592	0.677455	-0.175125
O2	O	0.734623	0.806577	-0.258378
O3	O	0.925340	0.548336	-0.149606
O4	O	0.925328	0.677460	-0.278723
O5	O	0.734642	0.677449	-0.027408
O6	O	1.075759	0.677460	-0.294768
O7	O	0.734635	0.677453	-0.129261
O8	O	1.075780	0.446481	-0.063801
O9	O	0.734621	0.908428	-0.258375
O10	O	1.056688	0.601444	-0.150693
O11	O	0.944429	0.601440	-0.062707
O12	O	0.944415	0.753467	-0.214726
O13	O	0.832156	0.753463	-0.126740
Zr14	Zr	1.120523	0.677449	-0.038270
Zr15	Zr	1.120510	0.677456	-0.200715
Zr16	Zr	0.880604	0.677448	-0.012681
Zr17	Zr	0.880589	0.839895	-0.175119
Zr18	Zr	1.120525	0.515009	-0.038276
O19	O	1.075774	0.806569	-0.063789
O20	O	1.075757	0.806579	-0.294764
O21	O	0.734640	0.806567	-0.027404
O22	O	1.266491	0.548327	0.044983
O23	O	1.266474	0.548337	-0.185992
O24	O	0.925357	0.548326	0.081369
O25	O	1.266472	0.677456	-0.185987
O26	O	1.075786	0.677445	0.065328
O27	O	0.925355	0.677444	0.081373
O28	O	1.266480	0.677451	-0.084134
O29	O	0.925325	0.908429	-0.278715
O30	O	1.075789	0.446476	0.065320
O31	O	1.266493	0.446476	0.044980
O32	O	1.266483	0.446482	-0.084142
O33	O	0.734631	0.908422	-0.129253
O34	O	0.925335	0.908423	-0.149594
O35	O	1.056699	0.601437	0.001331
O36	O	1.168958	0.601441	-0.086655
O37	O	1.056685	0.753464	-0.150688
O38	O	0.944427	0.753460	-0.062702
C39	C	1.000560	0.474264	-0.106705
C40	C	1.000561	0.405304	-0.106707
C41	C	0.700455	0.677451	-0.074689
C42	C	0.598603	0.677450	-0.063825
C43	C	1.059157	0.372908	-0.152636
C44	C	1.059161	0.308108	-0.152631
C45	C	1.000562	0.275710	-0.106701
C46	C	0.941965	0.308108	-0.060767
C47	C	0.941968	0.372902	-0.060768
C48	C	0.941952	0.046799	-0.060759
C49	C	0.941950	-0.017998	-0.060763
C50	C	1.059144	-0.017995	-0.152622
C51	C	1.059147	0.046799	-0.152623
C52	C	1.000556	0.079188	-0.106687
C53	C	1.000554	0.149451	-0.106692
C54	C	1.000557	0.205453	-0.106699
C55	C	0.553190	0.677452	-0.112308
C56	C	0.447921	0.677452	-0.101081
C57	C	1.300659	0.677454	-0.138707
C58	C	1.402511	0.677454	-0.149570
C59	C	1.000542	0.677461	-0.309891
C60	C	1.000537	0.677464	-0.378852
C61	C	1.000554	0.880640	-0.106691
C62	C	1.000553	0.949600	-0.106688
C63	C	0.941931	0.756818	-0.444675
C64	C	0.941941	0.756815	-0.509471
C65	C	1.000550	0.677458	-0.508442
C66	C	1.059163	0.598098	-0.442612
C67	C	1.059159	0.598101	-0.377819
C68	C	1.059181	0.598083	-0.703917
C69	C	1.059177	0.598086	-0.768718
C70	C	0.941962	0.756797	-0.835570
C71	C	0.941958	0.756800	-0.770776
C72	C	1.000576	0.677441	-0.704953
C73	C	1.000566	0.677444	-0.634694
C74	C	1.000554	0.677454	-0.578698
C75	C	1.000572	0.677443	0.096495
C76	C	1.000577	0.677440	0.165457
C77	C	1.300662	0.474265	-0.138713
C78	C	1.402515	0.405306	-0.149579
C79	C	1.000575	0.474255	0.096488
C80	C	1.000582	0.405292	0.165448
C81	C	1.300677	0.474257	0.064480
C82	C	1.402536	0.405294	0.122575
C83	C	0.700437	0.880648	-0.277875
C84	C	0.598579	0.949610	-0.335971
C85	C	0.700452	0.880639	-0.074682
C86	C	0.598599	0.949598	-0.063816
C87	C	1.000539	0.880649	-0.309884
C88	C	1.000532	0.949612	-0.378843
C89	C	1.391743	0.372923	-0.188116
C90	C	1.487435	0.308137	-0.198340
C91	C	1.593899	0.275731	-0.170022
C92	C	1.604669	0.308120	-0.131484
C93	C	1.508978	0.372909	-0.121265
C94	C	1.059188	0.372905	0.231266
C95	C	1.059190	0.308116	0.296067
C96	C	1.000591	0.275711	0.295049
C97	C	0.941977	0.308104	0.229224
C98	C	0.941969	0.372897	0.164425
C99	C	1.508977	0.372911	0.103929
C100	C	1.604693	0.308122	0.158509
C101	C	1.593964	0.275713	0.231735
C102	C	1.487512	0.308103	0.250381
C103	C	1.391798	0.372895	0.195802
C104	C	0.492137	0.982002	-0.317324
C105	C	0.396421	1.046810	-0.371904
C106	C	0.407150	1.079222	-0.445130
C107	C	0.513602	1.046828	-0.463777
C108	C	0.609316	0.982025	-0.409197
C109	C	0.609372	0.981988	-0.025286
C110	C	0.513679	1.046792	-0.015080
C111	C	0.407215	1.079201	-0.043400
C112	C	0.396445	1.046808	-0.081935
C113	C	0.492136	0.982010	-0.092145
C114	C	1.059143	0.981997	-0.377801
C115	C	1.059159	1.046786	-0.442592
C116	C	1.000557	1.079194	-0.508423
C117	C	0.941945	1.046803	-0.509464
C118	C	0.941936	0.982011	-0.444674
H119	H	1.106874	0.281732	-0.190029
H120	H	0.894267	0.281711	0.228405
H121	H	1.478644	0.281774	-0.229720
N122	N	0.281614	1.081740	-0.351785
H123	H	0.289351	1.051363	-0.297114
H124	H	0.239345	1.070472	-0.372436
H125	H	0.894228	0.821421	-0.771620
H126	H	1.106864	0.955620	-0.324204
N127	N	1.520605	0.407830	-0.079696
H128	H	1.602572	0.377463	-0.063309
H129	H	1.483467	0.396543	-0.035839
N130	N	0.724195	0.947048	0.005253
H131	H	0.766524	0.882005	0.040670
H132	H	0.716391	0.977473	0.031166
N133	N	1.122385	0.407854	0.232380
H134	H	1.113497	0.453816	0.181346
H135	H	1.204340	0.358369	0.252296
N136	N	1.122369	0.512513	-0.306821
H137	H	1.181340	0.508982	-0.284463
H138	H	1.159427	0.462290	-0.316056
H139	H	1.305063	0.399308	-0.211187
N140	N	1.697098	0.205846	-0.181045
H141	H	1.743166	0.152071	-0.132225
H142	H	1.743076	0.228465	-0.208567
H143	H	0.894230	-0.044376	-0.023358
H144	H	1.691365	0.281725	-0.108431
N145	N	1.122416	0.273182	0.367057
H146	H	1.159544	0.303539	0.357862
H147	H	1.181331	0.208137	0.389387
H148	H	1.106887	1.073152	-0.441731
H149	H	0.559553	0.677443	-0.014004
N150	N	0.878772	0.407839	-0.011227
H151	H	0.796788	0.434725	-0.023291
H152	H	0.887756	0.453764	-0.018215
H153	H	1.691363	0.281756	0.143314
N154	N	1.122371	0.512491	-0.632927
H155	H	1.113479	0.524528	-0.592033
H156	H	1.204327	0.477826	-0.635658
H157	H	1.000606	0.222953	0.347817
N158	N	0.281610	1.081757	-0.112463
H159	H	0.272607	1.108650	-0.167014
H160	H	0.222710	1.127679	-0.100085
H161	H	0.894197	0.821440	-0.445521
N162	N	1.697203	0.205831	0.290600
H163	H	1.766258	0.190236	0.267669
H164	H	1.697160	0.152105	0.321762
H165	H	1.478793	0.281707	0.310009
N166	N	0.878695	0.947101	-0.445804
H167	H	0.887571	0.901138	-0.394775
H168	H	0.909459	0.920271	-0.477743
N169	N	0.878739	1.081768	-0.580472
H170	H	0.796756	1.108660	-0.577804
H171	H	0.909558	1.032303	-0.589794
H172	H	0.894248	0.399258	0.110835
H173	H	0.483349	0.955640	-0.123517
N174	N	0.878739	0.842395	-0.906567
H175	H	0.887635	0.830357	-0.947460
H176	H	0.909502	0.877053	-0.915848
H177	H	0.522471	1.073155	0.016300
H178	H	1.517734	0.399288	0.044308
N179	N	1.276995	0.407816	0.215919
H180	H	1.284733	0.377448	0.270589
H181	H	1.234739	0.396531	0.195277
H182	H	0.894220	0.821433	-0.563065
H183	H	1.106908	0.533460	-0.767872
N184	N	1.122350	-0.052944	-0.202160
H185	H	1.204332	-0.079825	-0.190096
H186	H	1.091512	-0.003469	-0.254368
N187	N	0.878753	0.273174	-0.011229
H188	H	0.909499	0.246289	0.040998
H189	H	0.887653	0.227248	-0.018258
H190	H	0.483380	0.955616	-0.257703
N191	N	0.303908	1.149105	-0.503993
H192	H	0.326847	1.164725	-0.553214
H193	H	0.257891	1.202819	-0.499037
N194	N	1.000588	1.149073	-0.578296
H195	H	0.967245	1.202833	-0.574759
H196	H	0.954594	1.164625	-0.620130
N197	N	1.122351	0.407857	-0.202180
H198	H	1.159473	0.377498	-0.231274
H199	H	1.181270	0.396580	-0.172035
H200	H	1.106859	0.073179	-0.190026
H201	H	0.522324	1.073226	-0.523404
H202	H	1.106890	0.533484	-0.441779
H203	H	0.592246	0.677450	-0.162125
H204	H	0.695983	0.955652	-0.424388
N205	N	0.304004	1.149086	-0.032384
H206	H	0.303966	1.202849	-0.054956
H207	H	0.304039	1.126450	0.021370
N208	N	0.878755	0.081720	-0.011212
H209	H	0.796773	0.108604	-0.023281
H210	H	0.887732	0.127646	-0.018194
N211	N	0.396203	0.677441	-0.035082
H212	H	0.316637	0.731404	-0.051108
H213	H	0.441052	0.677405	-0.004294
N214	N	0.454231	0.677449	-0.215565
H215	H	0.522102	0.677447	-0.214231
H216	H	0.397693	0.731417	-0.261037
