data_functionalizedCrystal
_audit_creation_method	'MofGen! by Chris Wilmer'
_symmetry_space_group_name_H-M	'P1'
_symmetry_Int_Tables_number	1
_symmetry_cell_setting	triclinic
loop_
_symmetry_equiv_pos_as_xyz
  x,y,z
_cell_length_a	10.654550
_cell_length_b	10.654550
_cell_length_c	9.130313
_cell_angle_alpha	89.999890
_cell_angle_beta	89.996220
_cell_angle_gamma	84.484903
loop_
_atom_site_label
_atom_site_type_symbol
_atom_site_fract_x
_atom_site_fract_y
_atom_site_fract_z
O1	O	1.667834	0.176393	-0.121916
O2	O	1.302356	0.193199	-0.121892
O3	O	1.493498	0.002057	-0.121899
O4	O	1.476692	0.367535	-0.121909
O5	O	1.493496	0.002062	0.121700
O6	O	1.302353	0.193204	0.121707
O7	O	1.667832	0.176398	0.121683
Cu8	Cu	1.485092	0.184802	0.143937
Cu9	Cu	1.485095	0.184796	-0.144146
O10	O	1.476689	0.367540	0.121690
C11	C	1.255556	0.191968	-0.000089
C12	C	1.116113	0.188276	-0.000080
C13	C	1.036627	0.300817	-0.000105
C14	C	0.905607	0.297341	-0.000130
C15	C	0.933570	0.068771	-0.000113
C16	C	1.064588	0.072249	-0.000077
C17	C	1.020482	0.432780	-0.000121
C18	C	0.889461	0.429304	-0.000146
C19	C	1.492263	-0.044739	-0.000101
C20	C	1.488571	-0.184182	-0.000106
C21	C	1.601112	-0.263668	-0.000109
C22	C	1.597636	-0.394688	-0.000119
C23	C	1.369066	-0.366725	-0.000117
C24	C	1.372544	-0.235707	-0.000118
C25	C	1.733075	-0.279813	-0.000104
C26	C	1.729599	-0.410834	-0.000114
C27	C	1.714631	0.177630	-0.000123
C28	C	1.854074	0.181321	-0.000141
C29	C	1.477925	0.414336	-0.000111
C30	C	1.481616	0.553779	-0.000116
N31	N	1.485099	0.184805	0.346560
N32	N	1.485098	0.184782	-0.346769
C33	C	1.569759	0.100196	0.423209
C34	C	1.569756	0.100181	0.576546
C35	C	1.400429	0.269395	0.576571
C36	C	1.400427	0.269403	0.423237
C37	C	1.667523	0.002506	0.423195
C38	C	1.667519	0.002491	0.576532
H39	H	0.843789	0.469187	0.105021
H40	H	1.129302	-0.019393	-0.000036
H41	H	0.891602	-0.025694	-0.000132
H42	H	1.769481	-0.456479	-0.105296
C43	C	1.060119	0.502502	0.137601
C44	C	0.959699	0.555190	0.248600
C45	C	0.999337	0.624908	0.386318
C46	C	1.139396	0.641938	0.413038
C47	C	1.239826	0.589249	0.302036
C48	C	1.200187	0.519531	0.164317
H49	H	0.856011	0.542584	0.228823
H50	H	0.924992	0.663912	0.468489
H51	H	1.168739	0.693548	0.514985
H52	H	1.343514	0.601855	0.321812
H53	H	1.274533	0.480527	0.082147
H54	H	1.758706	0.033094	0.375630
H55	H	1.637006	-0.088732	0.624084
C56	C	1.802794	-0.240140	-0.137820
C57	C	1.940841	-0.291957	-0.164515
C58	C	2.010556	-0.252284	-0.302228
C59	C	1.942224	-0.160794	-0.413247
C60	C	1.804170	-0.108972	-0.386556
C61	C	1.734455	-0.148645	-0.248842
H62	H	1.991431	-0.359688	-0.082329
H63	H	2.112753	-0.290646	-0.321986
H64	H	1.993832	-0.131425	-0.515191
H65	H	1.753580	-0.041241	-0.468742
H66	H	1.632258	-0.110283	-0.229084
C67	C	1.638546	-0.127894	0.366960
C68	C	1.726053	-0.246234	0.407689
C69	C	1.697075	-0.376629	0.351453
C70	C	1.580590	-0.388686	0.254488
C71	C	1.493076	-0.270342	0.213754
C72	C	1.522054	-0.139947	0.269990
H73	H	1.812289	-0.237313	0.479473
H74	H	1.761860	-0.464235	0.381608
H75	H	1.559139	-0.485212	0.212859
H76	H	1.406840	-0.279263	0.141970
H77	H	1.457269	-0.052341	0.239835
H78	H	0.847729	0.479023	-0.102101
H79	H	1.280902	-0.170993	-0.000136
C80	C	1.797882	0.031582	0.632774
C81	C	1.876364	-0.064743	0.729736
C82	C	2.006715	-0.035641	0.785983
C83	C	2.058584	0.089785	0.745269
C84	C	1.980100	0.186118	0.648302
C85	C	1.849750	0.157017	0.592054
H86	H	1.837968	-0.157599	0.759879
H87	H	2.064813	-0.106954	0.857765
H88	H	2.155077	0.111328	0.786907
H89	H	2.018496	0.278974	0.618158
H90	H	1.791652	0.228330	0.520272
H91	H	1.056138	0.474797	-0.105294
H92	H	1.274601	-0.408693	-0.000128
H93	H	1.775096	-0.244184	0.105075
H94	H	1.779319	-0.452592	0.101827
H95	H	1.331480	0.338287	0.360831
H96	H	1.331490	0.338271	0.639019
