data_functionalizedCrystal
_audit_creation_method	'MofGen! by Chris Wilmer'
_symmetry_space_group_name_H-M	'P1'
_symmetry_Int_Tables_number	1
_symmetry_cell_setting	triclinic
loop_
_symmetry_equiv_pos_as_xyz
  x,y,z
_cell_length_a	14.044220
_cell_length_b	14.971482
_cell_length_c	13.101032
_cell_angle_alpha	86.633984
_cell_angle_beta	86.332749
_cell_angle_gamma	91.599257
loop_
_atom_site_label
_atom_site_type_symbol
_atom_site_fract_x
_atom_site_fract_y
_atom_site_fract_z
O1	O	-0.118296	1.201186	-0.085199
O2	O	0.215037	1.534520	0.248134
O3	O	0.548370	1.867853	0.581467
O4	O	-0.133094	0.941952	-0.085204
O5	O	0.200240	1.275285	0.248129
O6	O	0.533573	1.608618	0.581462
O7	O	0.012294	1.067678	-0.085197
O8	O	0.345627	1.401011	0.248136
O9	O	0.678960	1.734344	0.581469
O10	O	-0.263684	1.075460	-0.085206
O11	O	0.069650	1.408794	0.248127
O12	O	0.402983	1.742127	0.581460
O13	O	0.001851	1.058646	0.085233
O14	O	0.335185	1.391979	0.418566
O15	O	0.668518	1.725312	0.751899
O16	O	-0.143536	0.932920	0.085226
O17	O	0.189797	1.266253	0.418559
O18	O	0.523131	1.599586	0.751892
O19	O	-0.128739	1.192154	0.085230
O20	O	0.204595	1.525488	0.418564
O21	O	0.537928	1.858821	0.751897
Zn22	Zn	-0.137795	1.061103	0.112287
Zn23	Zn	0.195538	1.394436	0.445621
Zn24	Zn	0.528871	1.727770	0.778954
Zn25	Zn	-0.124037	1.073003	-0.112261
Zn26	Zn	0.209296	1.406336	0.221072
Zn27	Zn	0.542630	1.739670	0.554405
O28	O	-0.274126	1.066428	0.085224
O29	O	0.059207	1.399762	0.418557
O30	O	0.392541	1.733095	0.751890
C31	C	-0.137654	0.904059	0.000010
C32	C	0.195680	1.237392	0.333343
C33	C	0.529013	1.570726	0.666677
C34	C	-0.135672	0.804606	0.000008
C35	C	0.197661	1.137939	0.333342
C36	C	0.530994	1.471272	0.666675
C37	C	-0.140431	0.752964	0.092911
C38	C	0.192902	1.086298	0.426244
C39	C	0.526235	1.419631	0.759577
C40	C	-0.138555	0.659518	0.092912
C41	C	0.194779	0.992851	0.426245
C42	C	0.528112	1.326184	0.759579
C43	C	-0.131926	0.617714	0.000010
C44	C	0.201408	0.951048	0.333343
C45	C	0.534741	1.284381	0.666676
C46	C	-0.127163	0.669363	-0.092900
C47	C	0.206170	1.002696	0.240433
C48	C	0.539503	1.336030	0.573767
C49	C	-0.129033	0.762808	-0.092900
C50	C	0.204300	1.096141	0.240433
C51	C	0.537633	1.429475	0.573767
C52	C	-0.123269	0.474594	-0.092893
C53	C	0.210065	0.807927	0.240440
C54	C	0.543398	1.141261	0.573773
C55	C	-0.121400	0.381142	-0.092894
C56	C	0.211933	0.714476	0.240440
C57	C	0.545266	1.047809	0.573773
C58	C	-0.132790	0.371304	0.092919
C59	C	0.200543	0.704637	0.426252
C60	C	0.533877	1.037970	0.759585
C61	C	-0.134660	0.464749	0.092919
C62	C	0.198673	0.798082	0.426252
C63	C	0.532007	1.131415	0.759585
C64	C	-0.129899	0.516391	0.000009
C65	C	0.203434	0.849724	0.333342
C66	C	0.536767	1.183057	0.666675
C67	C	-0.304223	1.074351	0.000007
C68	C	0.029110	1.407684	0.333341
C69	C	0.362444	1.741018	0.666674
C70	C	-0.409460	1.084512	0.000004
C71	C	-0.076127	1.417846	0.333337
C72	C	0.257207	1.751179	0.666671
C73	C	-0.602142	1.103089	0.000009
C74	C	-0.268809	1.436422	0.333342
C75	C	0.064524	1.769755	0.666675
C76	C	-0.659695	1.031022	0.000008
C77	C	-0.326362	1.364355	0.333342
C78	C	0.006972	1.697688	0.666675
C79	C	-0.766910	1.041358	0.000011
C80	C	-0.433577	1.374691	0.333344
C81	C	-0.100243	1.708025	0.666678
C82	C	-0.494917	1.092754	0.000006
C83	C	-0.161584	1.426087	0.333339
C84	C	0.171749	1.759421	0.666673
C85	C	0.042391	1.059755	0.000017
C86	C	0.375724	1.393089	0.333350
C87	C	0.709057	1.726422	0.666683
C88	C	0.147628	1.049594	0.000013
C89	C	0.480962	1.382928	0.333347
C90	C	0.814295	1.716261	0.666680
C91	C	-0.124179	1.230047	0.000014
C92	C	0.209155	1.563381	0.333347
C93	C	0.542488	1.896714	0.666680
C94	C	-0.126159	1.329501	0.000009
C95	C	0.207174	1.662834	0.333342
C96	C	0.540507	1.996168	0.666676
N97	N	-0.147185	1.052988	0.265536
N98	N	0.186149	1.386321	0.598869
N99	N	0.519482	1.719655	0.932203
C100	C	-0.101874	1.092156	0.525448
C101	C	0.231460	1.425490	0.858781
C102	C	0.564793	1.758823	1.192114
C103	C	-0.159959	1.041955	0.474572
C104	C	0.173374	1.375288	0.807905
C105	C	0.506707	1.708622	1.141239
C106	C	-0.152850	1.048095	0.358254
C107	C	0.180484	1.381429	0.691587
C108	C	0.513817	1.714762	1.024920
C109	C	-0.108982	1.086017	0.641777
C110	C	0.224351	1.419350	0.975110
C111	C	0.557684	1.752684	1.308443
N112	N	-0.114652	1.081121	0.734490
N113	N	0.218681	1.414454	1.067824
N114	N	0.552015	1.747787	1.401157
H115	H	-0.145837	0.786993	0.168563
H116	H	0.187496	1.120326	0.501896
H117	H	0.520829	1.453660	0.835230
N118	N	-0.032798	1.151849	0.470492
N119	N	0.300535	1.485183	0.803825
N120	N	0.633869	1.818516	1.137159
N121	N	-0.027052	1.156813	0.374710
N122	N	0.306282	1.490147	0.708043
N123	N	0.639615	1.823480	1.041376
H124	H	0.021731	1.198973	0.335885
H125	H	0.355064	1.532306	0.669218
H126	H	0.688397	1.865639	1.002552
H127	H	-0.628446	0.961560	0.000008
H128	H	-0.295113	1.294894	0.333341
H129	H	0.038221	1.628227	0.666675
H130	H	-0.142414	0.617476	0.168563
H131	H	0.190919	0.950809	0.501896
H132	H	0.524252	1.284142	0.835229
H133	H	-0.140064	0.498782	0.168568
H134	H	0.193270	0.832115	0.501901
H135	H	0.526603	1.165448	0.835235
H136	H	-0.633390	1.172544	0.000014
H137	H	-0.300056	1.505878	0.333347
H138	H	0.033277	1.839211	0.666681
H139	H	-0.119392	0.516638	-0.168551
H140	H	0.213941	0.849972	0.164783
H141	H	0.547274	1.183305	0.498116
N142	N	-0.137669	0.318544	0.187817
N143	N	0.195664	0.651877	0.521150
N144	N	0.528998	0.985210	0.854483
N145	N	-0.136005	0.235112	0.187808
N146	N	0.197328	0.568445	0.521141
N147	N	0.530661	0.901778	0.854475
H148	H	-0.139460	0.197845	0.254827
H149	H	0.193873	0.531178	0.588160
H150	H	0.527206	0.864512	0.921493
N151	N	-0.229037	0.982254	0.529528
N152	N	0.104297	1.315587	0.862862
N153	N	0.437630	1.648921	1.196195
N154	N	-0.234790	0.977286	0.625311
N155	N	0.098544	1.310619	0.958644
N156	N	0.431877	1.643952	1.291978
H157	H	-0.283574	0.935125	0.664129
H158	H	0.049759	1.268458	0.997463
H159	H	0.383092	1.601791	1.330796
H160	H	-0.116003	0.347109	-0.168543
H161	H	0.217330	0.680442	0.164790
H162	H	0.550663	1.013776	0.498124
H163	H	-0.125160	0.804854	-0.168551
H164	H	0.208174	1.138187	0.164782
H165	H	0.541507	1.471520	0.498116
N166	N	-0.120371	0.626665	-0.187798
N167	N	0.212962	0.959998	0.145535
N168	N	0.546296	1.293332	0.478869
N169	N	-0.051286	0.578543	-0.208522
N170	N	0.282047	0.911876	0.124812
N171	N	0.615381	1.245210	0.458145
H172	H	-0.046489	0.548388	-0.275546
H173	H	0.286844	0.881721	0.057787
H174	H	0.620178	1.215055	0.391121
