data_functionalizedCrystal
_audit_creation_method	'MofGen! by Chris Wilmer'
_symmetry_space_group_name_H-M	'P1'
_symmetry_Int_Tables_number	1
_symmetry_cell_setting	triclinic
loop_
_symmetry_equiv_pos_as_xyz
  x,y,z
_cell_length_a	12.759395
_cell_length_b	15.299816
_cell_length_c	12.759387
_cell_angle_alpha	80.349460
_cell_angle_beta	90.020509
_cell_angle_gamma	80.351966
loop_
_atom_site_label
_atom_site_type_symbol
_atom_site_fract_x
_atom_site_fract_y
_atom_site_fract_z
Zn1	Zn	1.678553	-0.358969	0.666414
Zn2	Zn	2.178553	0.141031	1.166414
Zn3	Zn	1.708818	-0.509810	0.521161
Zn4	Zn	2.208818	-0.009810	1.021161
Zn5	Zn	1.502861	-0.359018	0.490761
Zn6	Zn	2.002861	0.140982	0.990761
Zn7	Zn	1.533205	-0.509746	0.696788
Zn8	Zn	2.033205	-0.009746	1.196788
O9	O	1.605859	-0.434386	0.593781
O10	O	2.105859	0.065614	1.093781
O11	O	1.829590	-0.378985	0.647157
O12	O	2.329590	0.121015	1.147157
O13	O	1.681464	-0.489855	0.370117
O14	O	2.181464	0.010145	0.870117
O15	O	1.500802	-0.232804	0.488628
O16	O	2.000802	0.267196	0.988628
O17	O	1.851826	-0.489807	0.540441
O18	O	2.351826	0.010193	1.040441
O19	O	1.629882	-0.232768	0.617679
O20	O	2.129882	0.267232	1.117679
O21	O	1.530149	-0.379069	0.347782
O22	O	2.030149	0.120931	0.847782
O23	O	1.359864	-0.379006	0.518080
O24	O	1.859864	0.120994	1.018080
O25	O	1.552519	-0.489698	0.839770
O26	O	2.052519	0.010302	1.339770
O27	O	1.382157	-0.489746	0.669446
O28	O	1.882157	0.010254	1.169446
O29	O	1.659305	-0.378923	0.817455
O30	O	2.159305	0.121077	1.317455
O31	O	1.710887	-0.636010	0.569893
O32	O	2.210887	-0.136010	1.069893
O33	O	1.581865	-0.635962	0.698924
O34	O	2.081865	-0.135962	1.198924
C35	C	1.332889	-0.434375	0.593761
C36	C	1.832889	0.065625	1.093761
C37	C	1.216116	-0.434392	0.593781
C38	C	1.716116	0.065608	1.093781
C39	C	1.239407	-0.549891	0.751220
C40	C	1.739407	-0.049891	1.251220
C41	C	1.196192	-0.607648	0.829944
C42	C	1.696192	-0.107648	1.329944
C43	C	1.086473	-0.607659	0.829959
C44	C	1.586473	-0.107659	1.329959
C45	C	1.019964	-0.549905	0.751243
C46	C	1.519964	-0.049905	1.251243
C47	C	1.063178	-0.492148	0.672520
C48	C	1.563178	0.007852	1.172520
C49	C	1.172901	-0.492146	0.672511
C50	C	1.672901	0.007854	1.172511
C51	C	1.039887	-0.376646	0.515087
C52	C	1.539887	0.123354	1.015087
C53	C	1.149607	-0.376638	0.515066
C54	C	1.649607	0.123362	1.015066
C55	C	0.973377	-0.318892	0.436372
C56	C	1.473377	0.181108	0.936372
C57	C	1.016592	-0.261139	0.357642
C58	C	1.516592	0.238861	0.857642
C59	C	1.126319	-0.261131	0.357630
C60	C	1.626319	0.238869	0.857630
C61	C	1.192821	-0.318881	0.436342
C62	C	1.692821	0.181119	0.936342
C63	C	1.652982	-0.668710	0.641026
C64	C	2.152982	-0.168710	1.141026
C65	C	1.673237	-0.768955	0.661273
C66	C	2.173237	-0.268955	1.161273
C67	C	1.461780	-1.051903	0.449431
C68	C	1.961780	-0.551903	0.949431
C69	C	1.442744	-0.957718	0.430410
C70	C	1.942744	-0.457718	0.930410
C71	C	1.500366	-0.910522	0.488124
C72	C	2.000366	-0.410522	0.988124
C73	C	1.577027	-0.957521	0.564862
C74	C	2.077027	-0.457521	1.064862
C75	C	1.596059	-1.051716	0.583890
C76	C	2.096059	-0.551716	1.083890
C77	C	1.634645	-0.910335	0.622583
C78	C	2.134645	-0.410335	1.122583
C79	C	1.711306	-0.957334	0.699321
C80	C	2.211306	-0.457334	1.199321
C81	C	1.730335	-1.051520	0.718345
C82	C	2.230335	-0.551520	1.218345
C83	C	1.672713	-1.098715	0.660632
C84	C	2.172713	-0.598715	1.160632
C85	C	1.615612	-0.816141	0.603555
C86	C	2.115612	-0.316141	1.103555
C87	C	1.749891	-0.815954	0.738015
C88	C	2.249891	-0.315954	1.238015
C89	C	1.768927	-0.910139	0.757035
C90	C	2.268927	-0.410139	1.257035
C91	C	1.879895	-0.434398	0.593802
C92	C	2.379895	0.065602	1.093802
C93	C	1.996673	-0.434403	0.593811
C94	C	2.496673	0.065597	1.093811
C95	C	1.605921	-0.434298	0.867797
C96	C	2.105921	0.065702	1.367797
C97	C	1.605947	-0.434260	0.984566
C98	C	2.105947	0.065740	1.484566
C99	C	1.558581	-0.199147	0.546374
C100	C	2.058581	0.300853	1.046374
C101	C	1.538434	-0.098902	0.526172
C102	C	2.038434	0.401098	1.026172
C103	C	1.605845	-0.434409	0.320818
C104	C	2.105845	0.065591	0.820818
C105	C	1.605971	-0.434193	0.203998
C106	C	2.105971	0.065807	0.703998
C107	C	1.717154	-0.318917	0.961350
C108	C	2.217154	0.181083	1.461350
C109	C	1.772770	-0.261232	1.004601
C110	C	2.272770	0.238768	1.504601
C111	C	1.772789	-0.261199	1.114316
C112	C	2.272789	0.238801	1.614316
C113	C	1.717184	-0.318856	1.180784
C114	C	2.217184	0.181144	1.680784
C115	C	1.661568	-0.376541	1.137534
C116	C	2.161568	0.123459	1.637534
C117	C	1.661558	-0.376569	1.027815
C118	C	2.161558	0.123431	1.527815
C119	C	1.550356	-0.491877	1.160748
C120	C	2.050356	0.008123	1.660748
C121	C	1.550342	-0.491916	1.051034
C122	C	2.050342	0.008084	1.551034
C123	C	1.494750	-0.549534	1.227216
C124	C	1.994750	-0.049534	1.727216
C125	C	1.439140	-0.607224	1.183967
C126	C	1.939140	-0.107224	1.683967
C127	C	1.439124	-0.607256	1.074245
C128	C	1.939124	-0.107256	1.574245
C129	C	1.494726	-0.549601	1.007784
C130	C	1.994726	-0.049601	1.507784
H131	H	0.930624	-0.549911	0.751270
H132	H	1.430624	-0.049911	1.251270
H133	H	0.884038	-0.318901	0.436394
H134	H	1.384038	0.181099	0.936394
Cl135	Cl	1.279809	-0.680255	0.928889
Cl136	Cl	1.779809	-0.180255	1.428889
Cl137	Cl	1.377344	-0.549895	0.751195
Cl138	Cl	1.877344	-0.049895	1.251195
Cl139	Cl	1.476065	-0.792118	0.464578
Cl140	Cl	1.976065	-0.292118	0.964578
H141	H	1.380326	-0.919454	0.367932
H142	H	1.880326	-0.419454	0.867932
H143	H	1.414868	-1.090338	0.402454
H144	H	1.914868	-0.590338	0.902454
Cl145	Cl	0.932977	-0.188536	0.258704
Cl146	Cl	1.432977	0.311464	0.758704
Cl147	Cl	1.842687	-0.188667	1.168688
Cl148	Cl	2.342687	0.311333	1.668688
H149	H	1.831345	-0.948419	0.819516
H150	H	2.331345	-0.448419	1.319516
Cl151	Cl	1.717198	-0.318804	1.318710
Cl152	Cl	2.217198	0.181196	1.818710
H153	H	1.051288	-0.654685	0.894067
H154	H	1.551288	-0.154685	1.394067
H155	H	1.494765	-0.549499	1.316550
H156	H	1.994765	-0.049499	1.816550
H157	H	1.818041	-0.214288	0.950470
H158	H	2.318041	0.285712	1.450470
Cl159	Cl	1.180634	-0.188513	0.258661
Cl160	Cl	1.680634	0.311487	0.758661
H161	H	1.393864	-0.654159	1.238092
H162	H	1.893864	-0.154159	1.738092
Cl163	Cl	1.826689	-1.110602	0.814837
Cl164	Cl	2.326689	-0.610602	1.314837
Cl165	Cl	1.494716	-0.549639	0.869855
Cl166	Cl	1.994716	-0.049639	1.369855
H167	H	1.282162	-0.318883	0.436337
H168	H	1.782162	0.181117	0.936337
Cl169	Cl	1.696861	-1.217124	0.684321
Cl170	Cl	2.196861	-0.717124	1.184321
Cl171	Cl	1.822333	-0.756630	0.810575
Cl172	Cl	2.322333	-0.256630	1.310575
H173	H	1.553194	-0.777883	0.541075
H174	H	2.053194	-0.277883	1.041075
Cl175	Cl	1.717152	-0.318967	0.823424
Cl176	Cl	2.217152	0.181033	1.323424
Cl177	Cl	1.369196	-0.679774	1.019882
Cl178	Cl	1.869196	-0.179774	1.519882
