data_functionalizedCrystal
_audit_creation_method	'MofGen! by Chris Wilmer'
_symmetry_space_group_name_H-M	'P1'
_symmetry_Int_Tables_number	1
_symmetry_cell_setting	triclinic
loop_
_symmetry_equiv_pos_as_xyz
  x,y,z
_cell_length_a	12.645331
_cell_length_b	12.645330
_cell_length_c	17.077396
_cell_angle_alpha	90.024069
_cell_angle_beta	90.015122
_cell_angle_gamma	90.018103
loop_
_atom_site_label
_atom_site_type_symbol
_atom_site_fract_x
_atom_site_fract_y
_atom_site_fract_z
Zn1	Zn	1.620701	-0.422028	0.443775
Zn2	Zn	1.620592	-0.599313	0.312519
Zn3	Zn	1.443425	-0.422066	0.312533
Zn4	Zn	1.443397	-0.599251	0.443753
O5	O	1.532029	-0.510664	0.378145
O6	O	1.769034	-0.445555	0.426367
O7	O	1.597056	-0.575843	0.202674
O8	O	1.466998	-0.273713	0.329958
O9	O	1.768953	-0.575806	0.329934
O10	O	1.597242	-0.273686	0.426381
O11	O	1.466892	-0.445620	0.202684
O12	O	1.295074	-0.445559	0.329936
O13	O	1.466951	-0.575700	0.553603
O14	O	1.295054	-0.575737	0.426343
O15	O	1.597216	-0.445495	0.553619
O16	O	1.597029	-0.747652	0.329912
O17	O	1.466845	-0.747606	0.426329
C18	C	1.256599	-0.510646	0.378139
C19	C	1.138769	-0.510664	0.378155
C20	C	1.531951	-0.786094	0.378134
C21	C	1.532015	-0.903924	0.378156
C22	C	1.093910	-0.592698	0.438716
C23	C	0.971350	-0.593035	0.438536
C24	C	0.970821	-0.540501	0.295328
C25	C	1.093419	-0.541080	0.295679
C26	C	1.093621	-0.398619	0.399697
C27	C	0.971016	-0.399238	0.401521
C28	C	1.450454	-1.071503	0.438998
C29	C	1.450037	-0.948944	0.438803
C30	C	1.501775	-0.948517	0.295430
C31	C	1.501278	-1.071115	0.295800
C32	C	1.644315	-1.071013	0.399367
C33	C	1.643627	-0.948406	0.401176
C34	C	1.808534	-0.510684	0.378152
C35	C	1.926364	-0.510692	0.378154
C36	C	1.532093	-0.510586	0.582889
C37	C	1.532120	-0.510553	0.670139
C38	C	1.532135	-0.234159	0.378173
C39	C	1.532181	-0.116329	0.378185
C40	C	1.532026	-0.510666	0.174197
C41	C	1.532204	-0.510400	0.086948
C42	C	1.599951	-0.442750	0.711139
C43	C	1.599964	-0.442714	0.793120
C44	C	1.532150	-0.510489	0.834099
C45	C	1.464312	-0.578295	0.793093
C46	C	1.464294	-0.578324	0.711114
C47	C	1.464354	-0.578231	0.963963
C48	C	1.464373	-0.578204	1.045948
C49	C	1.600024	-0.442621	1.045969
C50	C	1.600007	-0.442651	0.963990
C51	C	1.532169	-0.510459	0.922990
H52	H	1.123424	-0.574317	0.500311
O53	O	1.128650	-0.472881	0.239920
C54	C	1.081601	-0.348781	0.138707
C55	C	1.041565	-0.425980	0.201823
H56	H	1.011214	-0.310823	0.107899
H57	H	1.131473	-0.393651	0.094114
H58	H	1.131769	-0.284656	0.167424
H59	H	0.991354	-0.490121	0.173175
H60	H	0.991750	-0.381035	0.246409
O61	O	1.398430	-0.643879	1.085838
C62	C	1.255263	-0.658050	1.178338
C63	C	1.329901	-0.583559	1.133229
H64	H	1.199823	-0.609310	1.216652
H65	H	1.303843	-0.713467	1.216772
H66	H	1.206818	-0.706528	1.134933
H67	H	1.378362	-0.535012	1.176577
H68	H	1.281260	-0.528212	1.094783
H69	H	1.655258	-0.387408	1.079355
H70	H	1.409097	-0.633431	0.930583
O71	O	1.351907	-1.108484	0.422588
C72	C	1.201719	-1.208074	0.468455
C73	C	1.313321	-1.166276	0.487138
H74	H	1.170480	-1.254789	0.520638
H75	H	1.205258	-1.261691	0.414836
H76	H	1.146764	-1.138611	0.456075
H77	H	1.368339	-1.235672	0.499556
H78	H	1.309698	-1.112628	0.540736
H79	H	1.124688	-0.675252	0.424597
H80	H	0.941963	-0.376750	0.462476
O81	O	1.398383	-0.644302	0.671405
C82	C	1.263819	-0.778759	0.680031
C83	C	1.338425	-0.704106	0.725097
H84	H	1.215308	-0.827114	0.723421
H85	H	1.312422	-0.834273	0.641675
H86	H	1.208439	-0.730093	0.641625
H87	H	1.393820	-0.752686	0.763545
H88	H	1.289756	-0.648589	0.763404
H89	H	0.941993	-0.676069	0.424244
O90	O	1.350818	-0.914237	0.422010
C91	C	1.170945	-0.962227	0.391785
C92	C	1.283271	-1.001676	0.410783
H93	H	1.116297	-1.032901	0.382718
H94	H	1.172949	-0.912448	0.336162
H95	H	1.140419	-0.912115	0.442470
H96	H	1.313864	-1.051831	0.360147
H97	H	1.281201	-1.051398	0.466432
H98	H	1.655201	-0.387504	0.826498
H99	H	1.124573	-0.371381	0.459076
O100	O	0.935305	-0.570828	0.511736
C101	C	0.783134	-0.546076	0.594638
C102	C	0.823803	-0.571204	0.511694
H103	H	0.692981	-0.546393	0.594636
H104	H	0.812939	-0.464839	0.613426
H105	H	0.813386	-0.608473	0.637276
H106	H	0.793568	-0.508874	0.468999
H107	H	0.794007	-0.652471	0.492972
O108	O	1.665915	-0.376718	0.924303
C109	C	1.800508	-0.242279	0.932970
C110	C	1.725906	-0.316878	0.978013
H111	H	1.849046	-0.193895	0.976374
H112	H	1.751900	-0.186789	0.894613
H113	H	1.855862	-0.290988	0.894566
H114	H	1.670537	-0.268254	1.016459
H115	H	1.774580	-0.372371	1.016320
O116	O	1.716958	-1.105774	0.346595
C117	C	1.802837	-1.256435	0.288117
C118	C	1.720567	-1.217202	0.347921
H119	H	1.805766	-1.346528	0.289157
H120	H	1.883992	-1.223352	0.303833
H121	H	1.779603	-1.228459	0.227038
H122	H	1.743702	-1.245164	0.409020
H123	H	1.639433	-1.250276	0.332137
H124	H	1.121985	-0.622969	0.277471
H125	H	1.671901	-1.101858	0.458664
O126	O	0.934557	-0.322334	0.352869
C127	C	0.935230	-0.136817	0.320685
C128	C	0.976576	-0.223799	0.375859
H129	H	0.969202	-0.057135	0.339242
H130	H	0.845226	-0.133819	0.323821
H131	H	0.960709	-0.155125	0.258102
H132	H	0.951174	-0.205553	0.438466
H133	H	1.066575	-0.226777	0.372656
H134	H	0.941681	-0.482585	0.248967
H135	H	1.420659	-0.917906	0.277162
H136	H	1.707723	-0.917755	0.360108
H137	H	1.666431	-0.919257	0.462057
H138	H	0.940092	-0.621500	0.276811
O139	O	1.665861	-0.376813	0.671457
C140	C	1.800449	-0.242370	0.680140
C141	C	1.725844	-0.316977	0.725174
H142	H	1.848980	-0.193990	0.723550
H143	H	1.751843	-0.186878	0.641783
H144	H	1.855809	-0.291074	0.641737
H145	H	1.670469	-0.268359	0.763619
H146	H	1.774516	-0.372472	0.763481
H147	H	1.122632	-0.337504	0.355592
O148	O	1.472632	-0.912784	0.511927
C149	C	1.497757	-0.760484	0.594727
C150	C	1.472187	-0.801283	0.511870
H151	H	1.497384	-0.670332	0.594713
H152	H	1.579118	-0.790165	0.613258
H153	H	1.435620	-0.790764	0.637570
H154	H	1.534255	-0.771021	0.468971
H155	H	1.390796	-0.771611	0.493405
O156	O	1.472878	-1.106417	0.512453
C157	C	1.518151	-1.058917	0.644953
C158	C	1.492794	-1.019225	0.561795
H159	H	1.534239	-0.988442	0.684873
H160	H	1.590951	-1.112013	0.643056
H161	H	1.447953	-1.105691	0.668506
H162	H	1.562927	-0.972406	0.538193
H163	H	1.419958	-0.966184	0.563742
O164	O	1.403418	-1.105173	0.274417
C165	C	1.227050	-1.056001	0.235333
C166	C	1.337824	-1.017294	0.259553
H167	H	1.173993	-0.984971	0.223293
H168	H	1.191566	-1.105410	0.284587
H169	H	1.233610	-1.106292	0.180128
H170	H	1.331356	-0.966961	0.314739
H171	H	1.373268	-0.967941	0.210252
O172	O	1.569204	-1.106325	0.239840
C173	C	1.692744	-1.059237	0.138251
C174	C	1.615844	-1.019225	0.201589
H175	H	1.730491	-0.988838	0.107319
H176	H	1.647679	-1.109225	0.093801
H177	H	1.757053	-1.109282	0.166788
H178	H	1.551519	-0.969137	0.173121
H179	H	1.660984	-0.969294	0.246032
H180	H	1.559414	-0.919357	0.248882
H181	H	1.409093	-0.633474	0.826465
