data_functionalizedCrystal
_audit_creation_method	'MofGen! by Chris Wilmer'
_symmetry_space_group_name_H-M	'P1'
_symmetry_Int_Tables_number	1
_symmetry_cell_setting	triclinic
loop_
_symmetry_equiv_pos_as_xyz
  x,y,z
_cell_length_a	10.686285
_cell_length_b	19.805407
_cell_length_c	19.805399
_cell_angle_alpha	89.973922
_cell_angle_beta	94.389466
_cell_angle_gamma	94.370369
loop_
_atom_site_label
_atom_site_type_symbol
_atom_site_fract_x
_atom_site_fract_y
_atom_site_fract_z
Zn1	Zn	-0.502422	-1.055502	0.362228
Zn2	Zn	-0.713433	-1.064138	0.240385
Zn3	Zn	-0.502451	-0.942318	0.249039
Zn4	Zn	-0.713361	-0.950999	0.353521
O5	O	-0.607917	-1.003239	0.301293
O6	O	-0.530431	-1.151365	0.346087
O7	O	-0.685488	-1.047960	0.146814
O8	O	-0.325872	-0.950085	0.271319
O9	O	-0.685460	-1.157710	0.256569
O10	O	-0.325851	-1.033240	0.354479
O11	O	-0.530481	-0.958459	0.153172
O12	O	-0.530411	-0.848752	0.262877
O13	O	-0.685337	-0.964880	0.449395
O14	O	-0.685365	-0.855130	0.339640
O15	O	-0.530361	-1.041658	0.455792
O16	O	-0.889998	-1.056377	0.248127
O17	O	-0.889945	-0.973254	0.331248
C18	C	-0.607885	-0.827382	0.301253
C19	C	-0.607901	-0.752151	0.301250
C20	C	-0.935756	-1.016713	0.287818
C21	C	-1.076007	-1.022540	0.282076
C22	C	-0.688738	-0.293704	0.341210
C23	C	-0.688738	-0.364393	0.341198
C24	C	-0.607935	-0.396390	0.301299
C25	C	-0.527136	-0.357696	0.261404
C26	C	-0.527144	-0.287009	0.261413
C27	C	-0.527103	-0.642768	0.261367
C28	C	-0.527099	-0.713459	0.261363
C29	C	-0.688697	-0.720152	0.341152
C30	C	-0.688705	-0.649465	0.341161
C31	C	-0.607912	-0.610777	0.301264
C32	C	-0.607915	-0.534128	0.301276
C33	C	-0.607924	-0.473037	0.301290
C34	C	-0.278797	-0.989731	0.314836
C35	C	-0.138546	-0.983974	0.320607
C36	C	-0.607837	-1.003274	0.477839
C37	C	-0.607803	-1.003289	0.553073
C38	C	-0.607945	-0.179783	0.301326
C39	C	-0.607943	-0.255015	0.301320
C40	C	-0.607905	-1.003240	0.125438
C41	C	-0.607583	-1.003342	0.050219
C42	C	-0.527103	-1.043268	0.591749
C43	C	-0.527067	-1.043273	0.662439
C44	C	-0.607737	-1.003303	0.694451
C45	C	-0.688441	-0.963319	0.655770
C46	C	-0.688470	-0.963310	0.585081
C47	C	-0.688323	-0.963352	0.940848
C48	C	-0.688291	-0.963366	1.011542
C49	C	-0.526920	-1.043315	1.018206
C50	C	-0.526949	-1.043307	0.947517
C51	C	-0.607647	-1.003320	0.908842
C52	C	-0.607684	-1.003314	0.832192
C53	C	-0.607708	-1.003312	0.771100
H54	H	-0.754532	-0.395891	0.373679
O55	O	-1.074370	-0.939365	0.365282
C56	C	-0.998009	-0.974741	0.412118
H57	H	-1.037723	-1.029677	0.414747
H58	H	-0.996363	-0.950164	0.464249
H59	H	-0.898196	-0.972990	0.395234
O60	O	-1.140325	-1.067253	0.237549
C61	C	-1.270738	-1.063317	0.241536
H62	H	-1.288580	-1.041822	0.293013
H63	H	-1.320824	-1.116083	0.235005
H64	H	-1.308266	-1.028865	0.199813
H65	H	-0.754120	-0.930772	0.681840
O66	O	-0.448620	-1.082113	0.560765
C67	C	-0.377406	-1.117412	0.610063
H68	H	-0.373013	-1.089514	0.660623
H69	H	-0.277997	-1.120549	0.593734
H70	H	-0.423619	-1.170716	0.615696
O71	O	-0.767317	-0.618493	0.379935
C72	C	-0.838610	-0.667799	0.415154
H73	H	-0.842905	-0.718349	0.387245
H74	H	-0.938048	-0.651469	0.418200
H75	H	-0.792531	-0.673450	0.468494
H76	H	-0.461294	-0.739509	0.228871
O77	O	-0.767016	-0.757802	0.379946
C78	C	-0.695277	-0.795754	0.426678
H79	H	-0.599597	-0.802398	0.406818
H80	H	-0.746695	-0.847580	0.433586
H81	H	-0.681531	-0.767976	0.477417
H82	H	-0.461321	-0.611276	0.228878
O83	O	-0.448684	-0.388882	0.222708
C84	C	-0.466019	-0.459569	0.231241
H85	H	-0.507471	-0.470959	0.281735
H86	H	-0.371488	-0.482542	0.230616
H87	H	-0.533113	-0.482367	0.188275
O88	O	-0.448529	-1.082004	0.700040
C89	C	-0.367018	-1.040127	0.744275
H90	H	-0.359240	-0.986495	0.723277
H91	H	-0.269912	-1.060617	0.749071
H92	H	-0.405989	-1.039405	0.796248
O93	O	-0.448466	-1.082150	0.916531
C94	C	-0.377249	-1.117451	0.965826
H95	H	-0.372854	-1.089556	1.016388
H96	H	-0.277841	-1.120586	0.949495
H97	H	-0.423460	-1.170755	0.971457
H98	H	-0.461207	-1.075871	1.049704
H99	H	-0.753985	-0.930814	1.037603
O100	O	-0.766814	-0.924486	0.903386
C101	C	-0.837976	-0.889194	0.946803
H102	H	-0.842356	-0.917114	0.997013
H103	H	-0.937392	-0.886029	0.922281
H104	H	-0.791725	-0.835901	0.956221
H105	H	-0.754172	-0.930748	0.553592
O106	O	-0.767344	-0.262735	0.379989
C107	C	-0.838631	-0.312044	0.415208
H108	H	-0.842933	-0.362591	0.387295
H109	H	-0.938066	-0.295713	0.418262
H110	H	-0.792541	-0.317699	0.468545
O111	O	-0.448539	-0.249523	0.222648
C112	C	-0.377239	-0.292921	0.187417
H113	H	-0.372927	-0.343148	0.215316
H114	H	-0.277807	-0.268403	0.184371
H115	H	-0.423324	-0.302306	0.134077
