data_functionalizedCrystal
_audit_creation_method	'MofGen! by Chris Wilmer'
_symmetry_space_group_name_H-M	'P1'
_symmetry_Int_Tables_number	1
_symmetry_cell_setting	triclinic
loop_
_symmetry_equiv_pos_as_xyz
  x,y,z
_cell_length_a	16.109301
_cell_length_b	10.723023
_cell_length_c	15.186229
_cell_angle_alpha	89.997261
_cell_angle_beta	89.999362
_cell_angle_gamma	83.964514
loop_
_atom_site_label
_atom_site_type_symbol
_atom_site_fract_x
_atom_site_fract_y
_atom_site_fract_z
O1	O	1.104074	0.160391	-0.073171
O2	O	1.604074	0.660391	0.426829
O3	O	0.862130	0.180351	-0.073185
O4	O	1.362130	0.680351	0.426815
O5	O	0.988683	-0.011279	-0.073174
O6	O	1.488683	0.488721	0.426826
O7	O	0.977521	0.352021	-0.073182
O8	O	1.477521	0.852021	0.426818
O9	O	0.988674	-0.011282	0.073283
O10	O	1.488674	0.488718	0.573283
O11	O	0.862121	0.180348	0.073273
O12	O	1.362121	0.680348	0.573273
O13	O	1.104066	0.160388	0.073286
O14	O	1.604066	0.660388	0.573286
Zn15	Zn	0.983092	0.170368	0.096533
Zn16	Zn	1.483092	0.670368	0.596533
Zn17	Zn	0.983103	0.170371	-0.096431
Zn18	Zn	1.483103	0.670371	0.403569
O19	O	0.977512	0.352018	0.073276
O20	O	1.477512	0.852018	0.573276
C21	C	0.831146	0.179541	0.000042
C22	C	1.331146	0.679541	0.500042
C23	C	0.738836	0.177117	0.000037
C24	C	1.238836	0.677117	0.500037
C25	C	0.517199	0.285190	0.000045
C26	C	1.017199	0.785190	0.500045
C27	C	0.430466	0.282903	0.000051
C28	C	0.930466	0.782903	0.500051
C29	C	0.449002	0.055540	0.000052
C30	C	0.949002	0.555540	0.500052
C31	C	0.535735	0.057829	0.000052
C32	C	1.035735	0.557829	0.500052
C33	C	0.569831	0.172658	0.000044
C34	C	1.069831	0.672658	0.500044
C35	C	0.396365	0.168081	0.000050
C36	C	0.896365	0.668081	0.500050
C37	C	0.302324	0.165601	0.000056
C38	C	0.802324	0.665601	0.500056
C39	C	0.663877	0.175139	0.000040
C40	C	1.163877	0.675139	0.500040
C41	C	0.987867	-0.057770	0.000054
C42	C	1.487867	0.442230	0.500054
C43	C	0.985437	-0.196292	0.000051
C44	C	1.485437	0.303708	0.500051
C45	C	0.981837	-0.401219	0.075914
C46	C	1.481837	0.098781	0.575914
C47	C	0.984349	-0.258050	0.075918
C48	C	1.484349	0.241950	0.575918
C49	C	1.135049	0.161198	0.000058
C50	C	1.635049	0.661198	0.500058
C51	C	1.227359	0.163622	0.000057
C52	C	1.727359	0.663622	0.500057
C53	C	0.978329	0.398509	0.000046
C54	C	1.478329	0.898509	0.500046
C55	C	0.980758	0.537031	0.000043
C56	C	1.480758	1.037031	0.500043
N57	N	0.983090	0.170365	0.228225
N58	N	1.483090	0.670365	0.728225
N59	N	0.983111	0.170365	-0.228124
N60	N	1.483111	0.670365	0.271876
C61	C	1.039148	0.085539	0.453953
C62	C	1.539148	0.585539	0.953953
C63	C	1.039150	0.085536	0.546143
C64	C	1.539150	0.585536	1.046143
C65	C	0.927048	0.255194	0.546142
C66	C	1.427048	0.755194	1.046142
C67	C	0.927042	0.255190	0.453954
C68	C	1.427042	0.755190	0.953954
C69	C	0.983097	0.170364	0.407862
C70	C	1.483097	0.670364	0.907862
C71	C	0.983105	0.170365	0.592240
C72	C	1.483105	0.670365	1.092240
C73	C	0.983107	0.170363	0.692196
C74	C	1.483107	0.670363	1.192196
C75	C	0.983093	0.170365	0.307900
C76	C	1.483093	0.670365	0.807900
H77	H	0.421231	-0.037950	0.000064
H78	H	0.921231	0.462050	0.500064
H79	H	1.084791	0.016463	0.583667
H80	H	1.584791	0.516463	1.083667
H81	H	0.881411	0.324259	0.583680
H82	H	1.381411	0.824259	1.083680
F83	F	0.980605	-0.470651	0.160814
F84	F	1.480605	0.029349	0.660814
H85	H	0.984513	-0.249388	-0.064908
H86	H	1.484513	0.250612	0.435092
F87	F	0.867379	0.345472	0.404897
F88	F	1.367379	0.845472	0.904897
F89	F	0.591752	-0.061951	0.000058
F90	F	1.091752	0.438049	0.500058
H91	H	0.544957	0.378691	0.000045
H92	H	1.044957	0.878691	0.500045
F93	F	0.374455	0.402676	0.000052
F94	F	0.874455	0.902676	0.500052
H95	H	0.985281	-0.204947	0.140874
H96	H	1.485281	0.295053	0.640874
H97	H	0.981687	-0.409842	-0.064909
H98	H	1.481687	0.090158	0.435091
H99	H	1.084789	0.016467	0.416427
H100	H	1.584789	0.516467	0.916427
