data_functionalizedCrystal
_audit_creation_method	'MofGen! by Chris Wilmer'
_symmetry_space_group_name_H-M	'P1'
_symmetry_Int_Tables_number	1
_symmetry_cell_setting	triclinic
loop_
_symmetry_equiv_pos_as_xyz
  x,y,z
_cell_length_a	17.038272
_cell_length_b	17.038274
_cell_length_c	15.500227
_cell_angle_alpha	86.974526
_cell_angle_beta	86.956295
_cell_angle_gamma	88.888328
loop_
_atom_site_label
_atom_site_type_symbol
_atom_site_fract_x
_atom_site_fract_y
_atom_site_fract_z
O1	O	1.052162	-0.167138	-0.071861
O2	O	1.385495	0.166195	0.261472
O3	O	1.718828	0.499529	0.594805
O4	O	0.824351	-0.164429	-0.071886
O5	O	1.157685	0.168905	0.261447
O6	O	1.491018	0.502238	0.594780
O7	O	0.936901	-0.051879	-0.071850
O8	O	1.270234	0.281455	0.261483
O9	O	1.603568	0.614788	0.594817
O10	O	0.939612	-0.279688	-0.071898
O11	O	1.272945	0.053645	0.261436
O12	O	1.606278	0.386979	0.594769
O13	O	0.930069	-0.058680	0.072036
O14	O	1.263403	0.274654	0.405370
O15	O	1.596736	0.607987	0.738703
O16	O	0.817519	-0.171230	0.072000
O17	O	1.150853	0.162103	0.405334
O18	O	1.484186	0.495437	0.738667
O19	O	1.045330	-0.173939	0.072025
O20	O	1.378663	0.159394	0.405359
O21	O	1.711997	0.492728	0.738692
Cu22	Cu	0.930801	-0.173205	0.085151
Cu23	Cu	1.264134	0.160128	0.418484
Cu24	Cu	1.597468	0.493461	0.751817
Cu25	Cu	0.938880	-0.165162	-0.085012
Cu26	Cu	1.272213	0.168171	0.248322
Cu27	Cu	1.605547	0.501504	0.581655
O28	O	0.932780	-0.286489	0.071989
O29	O	1.266113	0.046844	0.405322
O30	O	1.599447	0.380178	0.738656
C31	C	0.791643	-0.165366	0.000054
C32	C	1.124976	0.167967	0.333387
C33	C	1.458309	0.501300	0.666721
C34	C	0.704360	-0.158018	0.000046
C35	C	1.037693	0.175315	0.333379
C36	C	1.371026	0.508649	0.666712
C37	C	0.658751	-0.225481	0.000032
C38	C	0.992084	0.107852	0.333366
C39	C	1.325418	0.441186	0.666699
C40	C	0.576739	-0.218573	0.000046
C41	C	0.910072	0.114761	0.333379
C42	C	1.243405	0.448094	0.666712
C43	C	0.540336	-0.144200	0.000066
C44	C	0.873670	0.189133	0.333400
C45	C	1.207003	0.522466	0.666733
C46	C	0.585951	-0.076732	0.000082
C47	C	0.919284	0.256601	0.333416
C48	C	1.252617	0.589934	0.666749
C49	C	0.667961	-0.083642	0.000075
C50	C	1.001295	0.249692	0.333408
C51	C	1.334628	0.583025	0.666742
C52	C	0.292947	-0.119791	0.000094
C53	C	0.626280	0.213542	0.333428
C54	C	0.959614	0.546876	0.666761
C55	C	0.210930	-0.112887	0.000099
C56	C	0.544264	0.220447	0.333432
C57	C	0.877597	0.553780	0.666766
C58	C	0.201724	-0.254728	0.000064
C59	C	0.535057	0.078606	0.333397
C60	C	0.868390	0.411939	0.666731
C61	C	0.283737	-0.261630	0.000052
C62	C	0.617070	0.071703	0.333385
C63	C	0.950403	0.405036	0.666718
C64	C	0.329344	-0.194162	0.000072
C65	C	0.662677	0.139171	0.333406
C66	C	0.996010	0.472504	0.666739
C67	C	0.456507	-0.137137	0.000077
C68	C	0.789840	0.196196	0.333411
C69	C	1.123173	0.529530	0.666744
C70	C	0.413172	-0.201227	0.000067
C71	C	0.746505	0.132107	0.333401
C72	C	1.079838	0.465440	0.666734
C73	C	0.931022	-0.025987	0.000097
C74	C	1.264355	0.307347	0.333431
C75	C	1.597689	0.640680	0.666764
C76	C	0.923673	0.061296	0.000109
C77	C	1.257007	0.394630	0.333443
C78	C	1.590340	0.727963	0.666776
C79	C	1.078038	-0.173001	0.000083
C80	C	1.411372	0.160332	0.333416
C81	C	1.744705	0.493665	0.666750
C82	C	1.165322	-0.180350	0.000086
C83	C	1.498655	0.152984	0.333419
C84	C	1.831988	0.486317	0.666752
N85	N	0.925124	-0.178862	0.204834
N86	N	1.258457	0.154471	0.538167
N87	N	1.591791	0.487804	0.871500
C88	C	0.991136	0.106905	0.000125
C89	C	1.324469	0.440238	0.333458
C90	C	1.657803	0.773571	0.666791
C91	C	0.984227	0.188917	0.000128
C92	C	1.317560	0.522250	0.333461
C93	C	1.650893	0.855583	0.666795
C94	C	0.909854	0.225318	0.000122
C95	C	1.243187	0.558651	0.333455
C96	C	1.576520	0.891985	0.666789
C97	C	0.842386	0.179703	0.000104
C98	C	1.175719	0.513037	0.333438
C99	C	1.509053	0.846370	0.666771
C100	C	0.849296	0.097694	0.000095
C101	C	1.182630	0.431027	0.333428
C102	C	1.515963	0.764360	0.666761
C103	C	0.885442	0.472705	0.000145
C104	C	1.218775	0.806038	0.333478
C105	C	1.552108	1.139371	0.666811
C106	C	0.878536	0.554721	0.000157
C107	C	1.211870	0.888054	0.333490
C108	C	1.545203	1.221387	0.666823
C109	C	1.020378	0.563928	0.000179
C110	C	1.353711	0.897262	0.333512
C111	C	1.687045	1.230595	0.666845
C112	C	1.027281	0.481916	0.000174
C113	C	1.360615	0.815249	0.333508
C114	C	1.693948	1.148583	0.666841
C115	C	0.959814	0.436309	0.000152
C116	C	1.293147	0.769642	0.333485
C117	C	1.626480	1.102976	0.666819
C118	C	0.902789	0.309147	0.000128
C119	C	1.236123	0.642480	0.333462
C120	C	1.569456	0.975814	0.666795
C121	C	0.966879	0.352482	0.000140
C122	C	1.300212	0.685815	0.333473
C123	C	1.633546	1.019149	0.666806
C124	C	0.938657	0.687617	0.000077
C125	C	1.271990	1.020951	0.333411
C126	C	1.605323	1.354284	0.666744
C127	C	0.945999	0.600329	0.000172
C128	C	1.279332	0.933662	0.333505
C129	C	1.612666	1.266996	0.666839
N130	N	0.944563	-0.159500	-0.204695
N131	N	1.277896	0.173834	0.128638
N132	N	1.611229	0.507167	0.461972
C133	C	0.972834	-0.131191	0.250126
C134	C	1.306168	0.202142	0.583459
C135	C	1.639501	0.535476	0.916792
C136	C	0.968549	-0.135477	0.340697
C137	C	1.301882	0.197856	0.674031
C138	C	1.635215	0.531190	1.007364
C139	C	0.916556	-0.187439	0.385975
C140	C	1.249890	0.145894	0.719308
C141	C	1.583223	0.479228	1.052642
C142	C	0.868841	-0.235112	0.340677
C143	C	1.202174	0.098221	0.674010
C144	C	1.535507	0.431554	1.007343
C145	C	0.873123	-0.230822	0.250107
C146	C	1.206456	0.102512	0.583440
C147	C	1.539790	0.435845	0.916774
C148	C	0.901129	-0.202882	0.659437
C149	C	1.234463	0.130451	0.992770
C150	C	1.567796	0.463784	1.326104
C151	C	0.896853	-0.207171	0.750013
C152	C	1.230186	0.126162	1.083346
C153	C	1.563519	0.459496	1.416680
C154	C	0.996560	-0.107534	0.750027
C155	C	1.329893	0.225799	1.083361
C156	C	1.663227	0.559133	1.416694
C157	C	1.000841	-0.103252	0.659456
C158	C	1.334174	0.230082	0.992789
C159	C	1.667508	0.563415	1.326123
C160	C	0.953122	-0.150922	0.614165
C161	C	1.286456	0.182411	0.947499
C162	C	1.619789	0.515745	1.280832
C163	C	0.912176	-0.191823	0.478554
C164	C	1.245510	0.141510	0.811887
C165	C	1.578843	0.474844	1.145220
C166	C	0.957499	-0.146533	0.521588
C167	C	1.290832	0.186800	0.854922
C168	C	1.624166	0.520133	1.188255
H169	H	0.330071	-0.064854	0.000112
H170	H	0.663404	0.268480	0.333445
H171	H	0.996737	0.601813	0.666779
H172	H	1.015175	-0.088882	0.213267
H173	H	1.348509	0.244452	0.546600
H174	H	1.681842	0.577785	0.879933
H175	H	1.007398	-0.096659	0.377574
H176	H	1.340731	0.236675	0.710907
H177	H	1.674064	0.570008	1.044240
Cl178	Cl	0.846817	-0.257148	0.535478
Cl179	Cl	1.180150	0.076186	0.868812
Cl180	Cl	1.513484	0.409519	1.202145
H181	H	0.556305	-0.016177	0.000111
H182	H	0.889638	0.317156	0.333445
H183	H	1.222972	0.650489	0.666778
Cl184	Cl	1.066204	-0.037928	0.602535
Cl185	Cl	1.399538	0.295405	0.935868
Cl186	Cl	1.732871	0.628738	1.269202
Cl187	Cl	0.841145	-0.262812	0.602506
Cl188	Cl	1.174479	0.070521	0.935840
Cl189	Cl	1.507812	0.403854	1.269173
Cl190	Cl	0.519406	-0.303388	0.000023
Cl191	Cl	0.852739	0.029946	0.333357
Cl192	Cl	1.186072	0.363279	0.666690
H193	H	0.442814	-0.261781	0.000055
H194	H	0.776147	0.071553	0.333389
H195	H	1.109480	0.404886	0.666722
H196	H	0.705095	-0.028706	0.000085
H197	H	1.038429	0.304627	0.333419
H198	H	1.371762	0.637961	0.666752
H199	H	0.817969	0.584355	0.000166
H200	H	1.151302	0.917688	0.333499
H201	H	1.484636	1.251022	0.666833
Cl202	Cl	1.022856	-0.081209	0.464667
Cl203	Cl	1.356189	0.252124	0.798001
Cl204	Cl	1.689523	0.585458	1.131334
H205	H	1.035409	-0.068722	0.786911
H206	H	1.368743	0.264611	1.120244
H207	H	1.702076	0.597944	1.453578
H208	H	0.313370	-0.322191	0.000025
H209	H	0.646703	0.011142	0.333358
H210	H	0.980036	0.344475	0.666692
Cl211	Cl	0.800624	0.415381	0.000114
Cl212	Cl	1.133957	0.748714	0.333448
Cl213	Cl	1.467291	1.082048	0.666781
Cl214	Cl	0.803474	-0.300433	0.397595
Cl215	Cl	1.136807	0.032900	0.730929
Cl216	Cl	1.470140	0.366233	1.064262
Cl217	Cl	0.704506	-0.318982	0.000001
Cl218	Cl	1.037839	0.014351	0.333334
Cl219	Cl	1.371172	0.347685	0.666667
Cl220	Cl	1.069042	0.246250	0.000150
Cl221	Cl	1.402375	0.579583	0.333483
Cl222	Cl	1.735708	0.912916	0.666816
H223	H	0.181295	-0.052321	0.000115
H224	H	0.514628	0.281013	0.333448
H225	H	0.847961	0.614346	0.666782
Cl226	Cl	0.410737	-0.043643	0.000099
Cl227	Cl	0.744070	0.289691	0.333432
Cl228	Cl	1.077404	0.623024	0.666766
H229	H	1.087844	0.452284	0.000179
H230	H	1.421177	0.785617	0.333513
H231	H	1.754510	1.118951	0.666846
Cl232	Cl	0.813138	-0.290752	0.193169
Cl233	Cl	1.146471	0.042582	0.526502
Cl234	Cl	1.479805	0.375915	0.859836
Cl235	Cl	0.764482	0.040357	0.000072
Cl236	Cl	1.097815	0.373690	0.333406
Cl237	Cl	1.431149	0.707023	0.666739
H238	H	0.164582	-0.309656	0.000049
H239	H	0.497915	0.023678	0.333382
H240	H	0.831248	0.357011	0.666716
H241	H	0.781830	0.209348	0.000094
H242	H	1.115163	0.542681	0.333427
H243	H	1.448497	0.876015	0.666761
H244	H	0.842234	0.338794	0.000125
H245	H	1.175568	0.672127	0.333459
H246	H	1.508901	1.005461	0.666792
Cl247	Cl	1.084638	0.061151	0.000141
Cl248	Cl	1.417971	0.394484	0.333474
Cl249	Cl	1.751305	0.727818	0.666807
Cl250	Cl	1.105188	0.621267	0.000204
Cl251	Cl	1.438522	0.954600	0.333538
Cl252	Cl	1.771855	1.287934	0.666871
H253	H	0.854512	-0.249488	0.786874
H254	H	1.187845	0.083846	1.120208
H255	H	1.521179	0.417179	1.453541
Cl256	Cl	1.060374	0.306719	0.000142
Cl257	Cl	1.393707	0.640052	0.333476
Cl258	Cl	1.727040	0.973386	0.666809
