data_functionalizedCrystal
_audit_creation_method	'MofGen! by Chris Wilmer'
_symmetry_space_group_name_H-M	'P1'
_symmetry_Int_Tables_number	1
_symmetry_cell_setting	triclinic
loop_
_symmetry_equiv_pos_as_xyz
  x,y,z
_cell_length_a	16.992697
_cell_length_b	16.992700
_cell_length_c	16.053802
_cell_angle_alpha	92.734161
_cell_angle_beta	92.750118
_cell_angle_gamma	89.332188
loop_
_atom_site_label
_atom_site_type_symbol
_atom_site_fract_x
_atom_site_fract_y
_atom_site_fract_z
O1	O	-1.053958	0.163817	-0.069330
O2	O	-0.720624	0.497150	0.264004
O3	O	-0.387291	0.830484	0.597337
O4	O	-0.825559	0.161984	-0.069357
O5	O	-0.492226	0.495317	0.263976
O6	O	-0.158892	0.828651	0.597309
O7	O	-0.938843	0.048701	-0.069322
O8	O	-0.605510	0.382035	0.264011
O9	O	-0.272176	0.715368	0.597344
O10	O	-0.940674	0.277099	-0.069365
O11	O	-0.607341	0.610433	0.263969
O12	O	-0.274007	0.943766	0.597302
O13	O	-0.932606	0.054909	0.069535
O14	O	-0.599272	0.388243	0.402868
O15	O	-0.265939	0.721576	0.736201
O16	O	-0.819322	0.168192	0.069500
O17	O	-0.485988	0.501525	0.402833
O18	O	-0.152655	0.834859	0.736166
O19	O	-1.047721	0.170025	0.069527
O20	O	-0.714387	0.503358	0.402861
O21	O	-0.381054	0.836692	0.736194
Zn22	Zn	-0.932531	0.170094	0.091560
Zn23	Zn	-0.599198	0.503427	0.424893
Zn24	Zn	-0.265864	0.836761	0.758227
Zn25	Zn	-0.940749	0.161915	-0.091390
Zn26	Zn	-0.607415	0.495248	0.241943
Zn27	Zn	-0.274082	0.828581	0.575277
O28	O	-0.934437	0.283307	0.069492
O29	O	-0.601103	0.616641	0.402826
O30	O	-0.267770	0.949974	0.736159
C31	C	-0.793080	0.162732	0.000068
C32	C	-0.459747	0.496065	0.333401
C33	C	-0.126414	0.829399	0.666734
C34	C	-0.705596	0.155703	0.000058
C35	C	-0.372263	0.489036	0.333391
C36	C	-0.038930	0.822369	0.666725
C37	C	-0.659605	0.223520	0.000046
C38	C	-0.326272	0.556853	0.333379
C39	C	0.007061	0.890187	0.666712
C40	C	-0.577404	0.216911	0.000057
C41	C	-0.244071	0.550245	0.333390
C42	C	0.089262	0.883578	0.666724
C43	C	-0.541196	0.142484	0.000075
C44	C	-0.207862	0.475818	0.333408
C45	C	0.125471	0.809151	0.666742
C46	C	-0.587193	0.074662	0.000090
C47	C	-0.253859	0.407996	0.333423
C48	C	0.079474	0.741329	0.666757
C49	C	-0.669392	0.081272	0.000085
C50	C	-0.336059	0.414605	0.333418
C51	C	-0.002725	0.747938	0.666751
C52	C	-0.295881	0.115091	0.000099
C53	C	0.037453	0.448424	0.333432
C54	C	0.370786	0.781757	0.666765
C55	C	-0.213675	0.108486	0.000102
C56	C	0.119658	0.441819	0.333435
C57	C	0.452991	0.775153	0.666768
C58	C	-0.203892	0.250736	0.000070
C59	C	0.129441	0.584069	0.333403
C60	C	0.462774	0.917402	0.666737
C61	C	-0.286094	0.257339	0.000059
C62	C	0.047239	0.590672	0.333393
C63	C	0.380573	0.924005	0.666726
C64	C	-0.332084	0.189517	0.000079
C65	C	0.001250	0.522850	0.333412
C66	C	0.334583	0.856183	0.666746
N67	N	-0.457173	0.135728	0.000084
N68	N	-0.123840	0.469061	0.333417
N69	N	0.209493	0.802394	0.666751
N70	N	-0.416104	0.196274	0.000076
N71	N	-0.082771	0.529608	0.333409
N72	N	0.250562	0.862941	0.666743
C73	C	-0.933369	0.022445	0.000109
C74	C	-0.600035	0.355779	0.333443
C75	C	-0.266702	0.689112	0.666776
C76	C	-0.926340	-0.065039	0.000120
C77	C	-0.593007	0.268295	0.333453
C78	C	-0.259674	0.601628	0.666786
C79	C	-0.879122	-0.556961	0.000038
C80	C	-0.545789	-0.223628	0.333371
C81	C	-0.212456	0.109706	0.666704
C82	C	-0.885731	-0.474760	0.000047
C83	C	-0.552398	-0.141427	0.333380
C84	C	-0.219065	0.191907	0.666713
C85	C	-0.960158	-0.438552	0.000067
C86	C	-0.626825	-0.105219	0.333400
C87	C	-0.293492	0.228115	0.666734
C88	C	-1.027981	-0.484550	0.000070
C89	C	-0.694648	-0.151217	0.333403
C90	C	-0.361314	0.182117	0.666737
C91	C	-1.021371	-0.566750	0.000055
C92	C	-0.688038	-0.233416	0.333388
C93	C	-0.354705	0.099917	0.666722
C94	C	-0.987553	-0.193236	0.000108
C95	C	-0.654220	0.140097	0.333441
C96	C	-0.320886	0.473430	0.666774
C97	C	-0.994158	-0.111030	0.000125
C98	C	-0.660824	0.222303	0.333458
C99	C	-0.327491	0.555636	0.666792
C100	C	-0.851907	-0.101246	0.000100
C101	C	-0.518574	0.232087	0.333433
C102	C	-0.185241	0.565420	0.666767
C103	C	-0.845304	-0.183448	0.000090
C104	C	-0.511971	0.149885	0.333423
C105	C	-0.178637	0.483219	0.666757
C106	C	-0.913127	-0.229439	0.000089
C107	C	-0.579793	0.103895	0.333422
C108	C	-0.246460	0.437228	0.666755
N109	N	-0.966916	-0.354529	0.000079
N110	N	-0.633582	-0.021196	0.333412
N111	N	-0.300249	0.312137	0.666746
N112	N	-0.906369	-0.313460	0.000071
N113	N	-0.573036	0.019873	0.333404
N114	N	-0.239702	0.353207	0.666738
C115	C	-0.080199	0.169276	0.000096
C116	C	0.253134	0.502609	0.333430
C117	C	0.586467	0.835943	0.666763
C118	C	-0.167684	0.176303	0.000089
C119	C	0.165649	0.509636	0.333422
C120	C	0.498982	0.842970	0.666756
C121	C	-0.939911	0.309563	0.000059
C122	C	-0.606578	0.642897	0.333392
C123	C	-0.273244	0.976230	0.666725
C124	C	-0.946940	0.397047	0.000043
C125	C	-0.613606	0.730381	0.333376
C126	C	-0.280273	1.063714	0.666710
N127	N	-0.926928	0.175676	0.216419
N128	N	-0.593595	0.509009	0.549752
N129	N	-0.260262	0.842343	0.883085
N130	N	-0.946357	0.156327	-0.216249
N131	N	-0.613024	0.489660	0.117085
N132	N	-0.279690	0.822994	0.450418
C133	C	-0.975151	0.127494	0.260127
C134	C	-0.641817	0.460827	0.593461
C135	C	-0.308484	0.794160	0.926794
C136	C	-0.971239	0.131406	0.347533
C137	C	-0.637906	0.464740	0.680866
C138	C	-0.304573	0.798073	1.014200
C139	C	-0.919109	0.183506	0.391228
C140	C	-0.585776	0.516839	0.724561
C141	C	-0.252442	0.850172	1.057895
C142	C	-0.870881	0.231690	0.347513
C143	C	-0.537548	0.565024	0.680847
C144	C	-0.204215	0.898357	1.014180
C145	C	-0.874789	0.227773	0.260109
C146	C	-0.541456	0.561106	0.593443
C147	C	-0.208123	0.894440	0.926776
C148	C	-0.902037	0.200594	0.652632
C149	C	-0.568704	0.533927	0.985966
C150	C	-0.235371	0.867261	1.319299
C151	C	-0.898135	0.204509	0.740043
C152	C	-0.564801	0.537843	1.073376
C153	C	-0.231468	0.871176	1.406709
C154	C	-0.998492	0.104224	0.740056
C155	C	-0.665159	0.437557	1.073390
C156	C	-0.331825	0.770891	1.406723
C157	C	-1.002399	0.100315	0.652651
C158	C	-0.669065	0.433648	0.985984
C159	C	-0.335732	0.766981	1.319317
C160	C	-0.954168	0.148496	0.608943
C161	C	-0.620835	0.481829	0.942277
C162	C	-0.287502	0.815163	1.275610
N163	N	-0.915112	0.187508	0.480571
N164	N	-0.581778	0.520842	0.813904
N165	N	-0.248445	0.854175	1.147237
N166	N	-0.958162	0.144489	0.519602
N167	N	-0.624829	0.477823	0.852936
N168	N	-0.291496	0.811156	1.186269
H169	H	-0.315569	0.317944	0.000035
H170	H	0.017764	0.651278	0.333368
H171	H	0.351097	0.984611	0.666702
F172	F	-1.059737	-0.242173	0.000113
F173	F	-0.726403	0.091161	0.333446
F174	F	-0.393070	0.424494	0.666779
F175	F	-0.344816	0.042907	0.000119
F176	F	-0.011482	0.376241	0.333453
F177	F	0.321851	0.709574	0.666786
F178	F	-1.093552	-0.615697	0.000057
F179	F	-0.760219	-0.282364	0.333390
F180	F	-0.426886	0.050969	0.666724
F181	F	-0.766089	-0.221977	0.000066
F182	F	-0.432756	0.111356	0.333400
F183	F	-0.099422	0.444690	0.666733
F184	F	-0.799906	-0.595489	0.000022
F185	F	-0.466573	-0.262155	0.333355
F186	F	-0.133239	0.071178	0.666689
F187	F	-1.022562	0.080124	0.394051
F188	F	-0.689228	0.413458	0.727385
F189	F	-0.355895	0.746791	1.060718
H190	H	-0.557705	0.014063	0.000117
H191	H	-0.224371	0.347396	0.333450
H192	H	0.108962	0.680729	0.666783
H193	H	-0.166439	0.305952	0.000056
H194	H	0.166894	0.639286	0.333389
H195	H	0.500228	0.972619	0.666722
F196	F	-0.850710	0.251874	0.606123
F197	F	-0.517376	0.585207	0.939456
F198	F	-0.184043	0.918541	1.272789
F199	F	-0.813551	-0.425816	0.000034
F200	F	-0.480217	-0.092483	0.333368
F201	F	-0.146884	0.240851	0.666701
F202	F	-0.815396	0.287135	0.394017
F203	F	-0.482062	0.620469	0.727351
F204	F	-0.148729	0.953802	1.060684
H205	H	-0.706837	0.026047	0.000094
H206	H	-0.373504	0.359381	0.333428
H207	H	-0.040171	0.692714	0.666761
H208	H	-1.088581	-0.455063	0.000088
H209	H	-0.755248	-0.121729	0.333422
H210	H	-0.421914	0.211604	0.666755
F211	F	-0.175141	0.029268	0.000135
F212	F	0.158192	0.362601	0.333469
F213	F	0.491526	0.695934	0.666802
F214	F	-0.779731	-0.052294	0.000098
F215	F	-0.446398	0.281039	0.333431
F216	F	-0.113064	0.614372	0.666764
H217	H	-1.054768	-0.081553	0.000142
H218	H	-0.721435	0.251780	0.333476
H219	H	-0.388101	0.585114	0.666809
H220	H	-1.017604	0.085072	0.224557
H221	H	-0.684271	0.418405	0.557890
H222	H	-0.350937	0.751739	0.891223
H223	H	-0.835520	0.267007	0.224522
H224	H	-0.502187	0.600341	0.557856
H225	H	-0.168854	0.933674	0.891189
F226	F	-0.842648	0.259966	0.786541
F227	F	-0.509315	0.593299	1.119874
F228	F	-0.175981	0.926633	1.453207
F229	F	-0.698134	0.302736	0.000021
F230	F	-0.364800	0.636069	0.333354
F231	F	-0.031467	0.969402	0.666687
F232	F	-0.528461	0.289092	0.000040
F233	F	-0.195127	0.622426	0.333373
F234	F	0.138206	0.955759	0.666707
F235	F	-1.057882	0.044866	0.606148
F236	F	-0.724549	0.378199	0.939482
F237	F	-0.391215	0.711532	1.272815
H238	H	-1.037758	0.064996	0.775651
H239	H	-0.704425	0.398329	1.108984
H240	H	-0.371092	0.731663	1.442318
