data_functionalizedCrystal
_audit_creation_method	'MofGen! by Chris Wilmer'
_symmetry_space_group_name_H-M	'P1'
_symmetry_Int_Tables_number	1
_symmetry_cell_setting	triclinic
loop_
_symmetry_equiv_pos_as_xyz
  x,y,z
_cell_length_a	10.654562
_cell_length_b	19.188940
_cell_length_c	9.130313
_cell_angle_alpha	89.998326
_cell_angle_beta	89.996930
_cell_angle_gamma	83.819409
loop_
_atom_site_label
_atom_site_type_symbol
_atom_site_fract_x
_atom_site_fract_y
_atom_site_fract_z
O1	O	1.665755	0.098101	-0.121897
O2	O	1.300082	0.107434	-0.121879
O3	O	1.493465	0.001181	-0.121877
O4	O	1.472372	0.204353	-0.121899
O5	O	1.493462	0.001184	0.121721
O6	O	1.300079	0.107437	0.121720
O7	O	1.665753	0.098103	0.121702
Cu8	Cu	1.482916	0.102770	0.143953
Cu9	Cu	1.482919	0.102767	-0.144131
O10	O	1.472370	0.204356	0.121700
C11	C	1.253297	0.106748	-0.000077
C12	C	1.113898	0.104692	-0.000070
C13	C	1.048386	0.103735	0.132704
C14	C	0.917405	0.101809	0.132680
C15	C	0.917458	0.101800	-0.132905
C16	C	1.048438	0.103722	-0.132879
C17	C	1.113847	0.104706	0.265513
C18	C	1.048334	0.103749	0.398298
C19	C	0.917353	0.101823	0.398274
C20	C	0.851883	0.100853	0.265465
C21	C	1.492778	-0.024833	-0.000078
C22	C	1.490722	-0.102350	-0.000079
C23	C	1.476090	-0.655704	0.132673
C24	C	1.478008	-0.582867	0.132681
C25	C	1.478975	-0.546443	-0.000103
C26	C	1.477990	-0.582859	-0.132905
C27	C	1.476059	-0.655694	-0.132909
N28	N	1.553467	-0.436931	-0.098941
N29	N	1.555304	-0.367741	-0.098928
C30	C	1.484791	-0.326995	-0.000098
N31	N	1.412387	-0.358054	0.098740
N32	N	1.410555	-0.427251	0.098731
C33	C	1.481068	-0.467466	-0.000113
C34	C	1.487847	-0.211609	0.132704
C35	C	1.489757	-0.138770	0.132707
C36	C	1.489752	-0.138764	-0.132883
C37	C	1.487829	-0.211601	-0.132882
C38	C	1.486882	-0.248019	-0.000084
C39	C	1.712537	0.098789	-0.000103
C40	C	1.851936	0.100845	-0.000120
C41	C	1.473056	0.230370	-0.000102
C42	C	1.475112	0.307888	-0.000111
N43	N	1.482923	0.102772	0.346576
N44	N	1.482921	0.102759	-0.346753
C45	C	1.568574	0.055740	0.423228
C46	C	1.568571	0.055731	0.576565
C47	C	1.397261	0.149794	0.576583
C48	C	1.397259	0.149799	0.423249
C49	C	1.654238	0.008713	0.346555
C50	C	1.739898	-0.038322	0.423208
C51	C	1.739895	-0.038331	0.576545
C52	C	1.654232	0.008697	0.653229
H53	H	0.864141	0.101013	-0.241032
H54	H	1.490550	-0.109127	0.240840
H55	H	1.101650	0.104533	0.506427
C56	C	1.257922	0.106821	0.265546
H57	H	1.287529	0.107256	0.363654
H58	H	1.277775	0.147894	0.216494
H59	H	1.297349	0.066605	0.216524
H60	H	1.490524	-0.109107	-0.240999
C61	C	0.845293	0.100769	0.544327
H62	H	0.903041	0.101628	0.623421
H63	H	0.803983	0.059378	0.549854
H64	H	0.784410	0.140667	0.549825
C65	C	0.707807	0.098733	0.265440
H66	H	0.678163	0.098304	0.363537
H67	H	0.687972	0.057657	0.216394
H68	H	0.668398	0.138945	0.216390
H69	H	1.487065	-0.241261	0.240836
C70	C	1.479092	-0.542807	0.278745
H71	H	1.480371	-0.494213	0.259725
H72	H	1.551994	-0.559712	0.333292
H73	H	1.405558	-0.549774	0.333321
H74	H	1.654228	0.008681	0.778086
H75	H	1.327519	0.188083	0.639029
C76	C	1.120504	0.104781	-0.278927
H77	H	1.062759	0.103939	-0.358027
H78	H	1.181390	0.064890	-0.284433
H79	H	1.161810	0.146178	-0.284434
H80	H	1.475317	-0.685351	0.240807
H81	H	1.478773	-0.553198	-0.241019
C82	C	1.475005	-0.695746	-0.278978
H83	H	1.475864	-0.663625	-0.358063
H84	H	1.401046	-0.719198	-0.284501
H85	H	1.547482	-0.729121	-0.284496
H86	H	1.654251	0.008717	0.221701
H87	H	1.487042	-0.241245	-0.241010
H88	H	1.809635	-0.076615	0.360764
H89	H	1.809633	-0.076634	0.638954
C90	C	1.303045	0.201530	0.338919
H91	H	1.315304	0.194791	0.236618
H92	H	1.316412	0.248200	0.364041
H93	H	1.219279	0.193502	0.364055
