data_functionalizedCrystal
_audit_creation_method	'MofGen! by Chris Wilmer'
_symmetry_space_group_name_H-M	'P1'
_symmetry_Int_Tables_number	1
_symmetry_cell_setting	triclinic
loop_
_symmetry_equiv_pos_as_xyz
  x,y,z
_cell_length_a	21.395364
_cell_length_b	12.759400
_cell_length_c	21.395063
_cell_angle_alpha	89.645732
_cell_angle_beta	89.932691
_cell_angle_gamma	90.008930
loop_
_atom_site_label
_atom_site_type_symbol
_atom_site_fract_x
_atom_site_fract_y
_atom_site_fract_z
Zn1	Zn	0.958200	-0.414965	-0.354298
Zn2	Zn	1.458200	0.085035	0.145702
Zn3	Zn	0.958057	-0.591677	-0.249527
Zn4	Zn	1.458057	-0.091677	0.250473
Zn5	Zn	0.853337	-0.416000	-0.249531
Zn6	Zn	1.353337	0.084000	0.250469
Zn7	Zn	0.853417	-0.590590	-0.354271
Zn8	Zn	1.353417	-0.090590	0.145729
O9	O	0.905753	-0.503308	-0.301907
O10	O	1.405753	-0.003308	0.198093
O11	O	1.045859	-0.438429	-0.340409
O12	O	1.545859	0.061571	0.159591
O13	O	0.944072	-0.569261	-0.161847
O14	O	1.444072	-0.069261	0.338153
O15	O	0.867274	-0.268841	-0.263441
O16	O	1.367274	0.231159	0.236559
O17	O	1.045754	-0.568258	-0.263435
O18	O	1.545754	-0.068258	0.236565
O19	O	0.944317	-0.268081	-0.340413
O20	O	1.444317	0.231919	0.159587
O21	O	0.867135	-0.440192	-0.161850
O22	O	1.367135	0.059808	0.338150
O23	O	0.765670	-0.439137	-0.263416
O24	O	1.265670	0.060863	0.236584
O25	O	0.867410	-0.566405	-0.441956
O26	O	1.367410	-0.066405	0.058044
O27	O	0.765728	-0.567408	-0.340368
O28	O	1.265728	-0.067408	0.159632
O29	O	0.944394	-0.437374	-0.441975
O30	O	1.444394	0.062626	0.058025
O31	O	0.944149	-0.738554	-0.263409
O32	O	1.444149	-0.238554	0.236591
O33	O	0.867270	-0.737755	-0.340364
O34	O	1.367270	-0.237755	0.159636
C35	C	0.742965	-0.503268	-0.301889
C36	C	1.242965	-0.003268	0.198111
C37	C	0.673324	-0.503276	-0.301897
C38	C	1.173324	-0.003276	0.198103
C39	C	0.171582	-0.435864	-0.342062
C40	C	0.671582	0.064136	0.157938
C41	C	0.237017	-0.435856	-0.342061
C42	C	0.737017	0.064144	0.157939
C43	C	0.269685	-0.503340	-0.301921
C44	C	0.769685	-0.003340	0.198079
C45	C	0.236913	-0.570856	-0.261789
C46	C	0.736913	-0.070856	0.238211
C47	C	0.171479	-0.570869	-0.261795
C48	C	0.671479	-0.070869	0.238205
C49	C	0.373281	-0.512040	-0.245452
C50	C	0.873281	-0.012040	0.254548
C51	C	0.438714	-0.512019	-0.245446
C52	C	0.938714	-0.012019	0.254554
C53	C	0.471506	-0.503305	-0.301904
C54	C	0.971506	-0.003305	0.198096
C55	C	0.438857	-0.494590	-0.358370
C56	C	0.938857	0.005410	0.141630
C57	C	0.373423	-0.494603	-0.358376
C58	C	0.873423	0.005397	0.141624
C59	C	0.340638	-0.503334	-0.301911
C60	C	0.840638	-0.003334	0.198089
C61	C	0.575224	-0.435790	-0.342036
C62	C	1.075224	0.064210	0.157964
C63	C	0.640660	-0.435790	-0.342037
C64	C	1.140660	0.064210	0.157963
C65	C	0.640554	-0.570784	-0.261759
C66	C	1.140554	-0.070784	0.238241
C67	C	0.575119	-0.570790	-0.261764
C68	C	1.075119	-0.070790	0.238236
C69	C	0.542458	-0.503288	-0.301901
C70	C	1.042458	-0.003288	0.198099
C71	C	0.905720	-0.776276	-0.301897
C72	C	1.405720	-0.276276	0.198103
C73	C	0.905763	-0.893052	-0.301914
C74	C	1.405763	-0.393052	0.198086
C75	C	0.945859	-0.947438	-0.342026
C76	C	1.445859	-0.447438	0.157974
C77	C	0.945888	-1.057162	-0.342041
C78	C	1.445888	-0.557162	0.157959
C79	C	0.865724	-1.058104	-0.261827
C80	C	1.365724	-0.558104	0.238173
C81	C	0.865692	-0.948382	-0.261815
C82	C	1.365692	-0.448382	0.238185
C83	C	0.985930	-0.892108	-0.382124
C84	C	1.485930	-0.392108	0.117876
C85	C	1.026030	-0.946495	-0.422239
C86	C	1.526030	-0.446495	0.077761
C87	C	1.026059	-1.056219	-0.422254
C88	C	1.526059	-0.556219	0.077746
C89	C	0.985989	-1.111556	-0.382155
C90	C	1.485989	-0.611556	0.117845
C91	C	1.069176	-0.503349	-0.301925
C92	C	1.569176	-0.003349	0.198075
C93	C	1.138817	-0.503367	-0.301932
C94	C	1.638817	-0.003367	0.198068
C95	C	0.905927	-0.501653	-0.465336
C96	C	1.405927	-0.001653	0.034664
C97	C	0.906001	-0.500948	-0.534979
C98	C	1.406001	-0.000948	-0.034979
C99	C	0.905803	-0.229275	-0.301931
C100	C	1.405803	0.270725	0.198069
C101	C	0.905824	-0.112498	-0.301941
C102	C	1.405824	0.387502	0.198059
C103	C	0.905615	-0.504881	-0.139114
C104	C	1.405615	-0.004881	0.360886
C105	C	0.905662	-0.505290	-0.069471
C106	C	1.405662	-0.005290	0.430529
C107	C	0.945466	-0.437353	-0.037276
C108	C	1.445466	0.062647	0.462724
C109	C	0.945512	-0.436825	0.028158
C110	C	1.445512	0.063175	0.528158
C111	C	0.905742	-0.504222	0.061394
C112	C	1.405742	-0.004222	0.561394
C113	C	0.865936	-0.572172	0.029191
C114	C	1.365936	-0.072172	0.529191
C115	C	0.865896	-0.572706	-0.036241
C116	C	1.365896	-0.072706	0.463759
C117	C	0.849392	-0.512345	0.165218
C118	C	1.349392	-0.012345	0.665218
C119	C	0.849431	-0.511804	0.230649
C120	C	1.349431	-0.011804	0.730649
C121	C	0.905867	-0.502583	0.263209
C122	C	1.405867	-0.002583	0.763209
C123	C	0.962264	-0.493880	0.230329
C124	C	1.462264	0.006120	0.730329
C125	C	0.962224	-0.494414	0.164897
C126	C	1.462224	0.005586	0.664897
C127	C	0.905782	-0.503652	0.132344
C128	C	1.405782	-0.003652	0.632344
C129	C	0.945723	-0.434070	0.366354
C130	C	1.445723	0.065930	0.866354
C131	C	0.945770	-0.433549	0.431789
C132	C	1.445770	0.066451	0.931789
C133	C	0.866188	-0.568890	0.432821
C134	C	1.366188	-0.068890	0.932821
C135	C	0.866147	-0.569417	0.367388
C136	C	1.366147	-0.069417	0.867388
C137	C	0.905914	-0.502001	0.334158
C138	C	1.405914	-0.002001	0.834158
H139	H	0.346843	-0.487509	-0.404353
H140	H	0.846843	0.012491	0.095647
H141	H	1.058651	-0.901433	-0.454890
H142	H	1.558651	-0.401433	0.045110
H143	H	0.548441	-0.625754	-0.229083
H144	H	1.048441	-0.125754	0.270917
H145	H	1.058706	-1.100497	-0.454922
H146	H	1.558706	-0.600497	0.045078
H147	H	0.833041	-0.904100	-0.229153
H148	H	1.333041	-0.404100	0.270847
H149	H	0.985913	-0.802766	-0.382115
H150	H	1.485913	-0.302766	0.117885
H151	H	0.986008	-1.200901	-0.382178
H152	H	1.486008	-0.700901	0.117822
H153	H	0.465555	-0.487488	-0.404344
H154	H	0.965555	0.012512	0.095656
H155	H	0.833100	-1.103168	-0.229180
H156	H	1.333100	-0.603168	0.270820
C157	C	0.272849	-0.645084	-0.217632
C158	C	0.772849	-0.145084	0.282368
N159	N	0.299916	-0.700996	-0.184372
N160	N	0.799916	-0.200996	0.315628
C161	C	0.474622	-0.521602	-0.183331
C162	C	0.974622	-0.021602	0.316669
N163	N	0.501666	-0.528821	-0.136545
N164	N	1.001666	-0.028821	0.363455
C165	C	0.989216	-0.363202	-0.073824
C166	C	1.489216	0.136798	0.426176
N167	N	1.022169	-0.307352	-0.101354
N168	N	1.522169	0.192648	0.398646
H169	H	0.667152	-0.625740	-0.229081
H170	H	1.167152	-0.125740	0.270919
C171	C	0.787393	-0.521369	0.266810
C172	C	1.287393	-0.021369	0.766810
N173	N	0.740663	-0.528573	0.294045
N174	N	1.240663	-0.028573	0.794045
H175	H	0.346587	-0.519141	-0.199474
H176	H	0.846587	-0.019141	0.300526
C177	C	0.989298	-0.362082	0.063580
C178	C	1.489298	0.137918	0.563580
N179	N	1.022276	-0.305782	0.090257
N180	N	1.522276	0.194218	0.590257
C181	C	1.024261	-0.484855	0.128732
C182	C	1.524261	0.015145	0.628732
N183	N	1.070989	-0.477661	0.101493
N184	N	1.570989	0.022339	0.601493
H185	H	1.008219	-0.486368	0.256838
H186	H	1.508219	0.013632	0.756838
C187	C	0.989474	-0.359922	0.329800
C188	C	1.489474	0.140078	0.829800
N189	N	1.022428	-0.304076	0.302269
N190	N	1.522428	0.195924	0.802269
H191	H	0.144802	-0.625840	-0.229116
H192	H	0.644802	-0.125840	0.270884
C193	C	0.989559	-0.358807	0.467203
C194	C	1.489559	0.141193	0.967203
N195	N	1.022539	-0.302507	0.493878
N196	N	1.522539	0.197493	0.993878
C197	C	0.135658	-0.361618	-0.386220
C198	C	0.635658	0.138382	0.113780
N199	N	0.108600	-0.305697	-0.419482
N200	N	0.608600	0.194303	0.080518
C201	C	0.822442	-0.643030	0.469377
C202	C	1.322442	-0.143030	0.969377
N203	N	0.789492	-0.698876	0.496914
N204	N	1.289492	-0.198876	0.996914
H205	H	0.833732	-0.624734	0.341174
H206	H	1.333732	-0.124734	0.841174
C207	C	0.787305	-0.522488	0.129409
C208	C	1.287305	-0.022488	0.629409
N209	N	0.740542	-0.530128	0.102438
N210	N	1.240542	-0.030128	0.602438
C211	C	0.822188	-0.646307	0.065752
C212	C	1.322188	-0.146307	0.565752
N213	N	0.789236	-0.702148	0.093290
N214	N	1.289236	-0.202148	0.593290
C215	C	0.822102	-0.647438	-0.071657
C216	C	1.322102	-0.147438	0.428343
N217	N	0.789114	-0.703724	-0.098333
N218	N	1.289114	-0.203724	0.401667
H219	H	0.263700	-0.380882	-0.374739
H220	H	0.763700	0.119118	0.125261
H221	H	0.548629	-0.380826	-0.374719
H222	H	1.048629	0.119174	0.125281
H223	H	0.667336	-0.380824	-0.374719
H224	H	1.167336	0.119176	0.125281
