data_functionalizedCrystal
_audit_creation_method	'MofGen! by Chris Wilmer'
_symmetry_space_group_name_H-M	'P1'
_symmetry_Int_Tables_number	1
_symmetry_cell_setting	triclinic
loop_
_symmetry_equiv_pos_as_xyz
  x,y,z
_cell_length_a	10.540539
_cell_length_b	9.065218
_cell_length_c	8.140239
_cell_angle_alpha	89.997198
_cell_angle_beta	89.998610
_cell_angle_gamma	84.770688
loop_
_atom_site_label
_atom_site_type_symbol
_atom_site_fract_x
_atom_site_fract_y
_atom_site_fract_z
O1	O	0.186143	1.959468	-0.136609
O2	O	0.201412	1.530107	-0.136611
O3	O	0.009107	1.754583	-0.136608
O4	O	0.378448	1.734992	-0.136612
O5	O	0.009105	1.754571	0.136619
O6	O	0.201409	1.530095	0.136616
O7	O	0.186141	1.959456	0.136618
Zn8	Zn	0.193775	1.744773	0.179998
Zn9	Zn	0.193778	1.744790	-0.179991
O10	O	0.378446	1.734980	0.136615
C11	C	0.199943	1.475122	0.000003
C12	C	0.195556	1.311301	0.000002
C13	C	-0.038202	1.753108	0.000003
C14	C	-0.179167	1.748712	-0.000006
C15	C	-0.363216	1.580278	-0.000620
C16	C	-0.216582	1.584734	-0.000005
C17	C	-0.240534	1.827619	0.156020
C18	C	-0.387099	1.822022	0.156152
C19	C	-0.387602	1.825372	-0.154558
C20	C	-0.240615	1.826882	-0.156621
C21	C	0.425755	1.736455	0.000001
C22	C	0.566719	1.740851	-0.000001
C23	C	0.187610	2.014441	0.000001
C24	C	0.191997	2.178262	-0.000009
N25	N	0.193772	1.744773	0.425681
N26	N	0.193771	1.744802	-0.425673
H27	H	-0.392055	1.515508	-0.112509
H28	H	-0.215951	1.946435	-0.166043
N29	N	-0.450084	1.978218	0.165578
H30	H	-0.505496	1.999333	0.065574
H31	H	-0.382533	2.050309	0.169685
H32	H	-0.198138	1.772796	0.272130
N33	N	-0.429657	1.755089	-0.311207
H34	H	-0.392117	1.648630	-0.316364
H35	H	-0.399340	1.811146	-0.408722
H36	H	-0.393663	1.515761	0.110642
N37	N	-0.210385	1.987147	0.163688
H38	H	-0.156521	2.009855	0.065865
H39	H	-0.162211	2.004070	0.268245
N40	N	-0.186676	1.750497	-0.309513
H41	H	-0.091394	1.755676	-0.312631
H42	H	-0.226640	1.801297	-0.409758
N43	N	-0.160438	1.502491	-0.148149
H44	H	-0.230941	1.463008	-0.214442
H45	H	-0.098720	1.417351	-0.110755
N46	N	-0.161564	1.501913	0.148395
H47	H	-0.232584	1.462372	0.213672
H48	H	-0.115516	1.571247	0.219362
N49	N	-0.424753	1.744766	0.310638
H50	H	-0.346174	1.714656	0.378011
H51	H	-0.468176	1.653762	0.280273
N52	N	-0.449561	1.982264	-0.155962
H53	H	-0.545196	1.980737	-0.160226
H54	H	-0.419752	2.035924	-0.255526
