data_functionalizedCrystal
_audit_creation_method	'MofGen! by Chris Wilmer'
_symmetry_space_group_name_H-M	'P1'
_symmetry_Int_Tables_number	1
_symmetry_cell_setting	triclinic
loop_
_symmetry_equiv_pos_as_xyz
  x,y,z
_cell_length_a	10.654554
_cell_length_b	10.489741
_cell_length_c	9.730223
_cell_angle_alpha	89.998920
_cell_angle_beta	89.999646
_cell_angle_gamma	84.512959
loop_
_atom_site_label
_atom_site_type_symbol
_atom_site_fract_x
_atom_site_fract_y
_atom_site_fract_z
O1	O	1.667915	0.179184	-0.114294
O2	O	1.302445	0.196247	-0.114296
O3	O	1.493496	0.002114	-0.114287
O4	O	1.476864	0.373317	-0.114303
O5	O	1.493494	0.002119	0.114293
O6	O	1.302443	0.196252	0.114284
O7	O	1.667912	0.179189	0.114286
Zn8	Zn	1.485177	0.187721	0.150577
Zn9	Zn	1.485180	0.187715	-0.150587
O10	O	1.476861	0.373322	0.114277
C11	C	1.255645	0.194996	-0.000006
C12	C	1.116201	0.191244	-0.000006
C13	C	1.492239	-0.045415	0.000003
C14	C	1.488480	-0.187043	0.000000
C15	C	0.905744	0.302025	-0.000014
C16	C	1.036767	0.305551	-0.000014
C17	C	1.064605	0.073401	-0.000012
C18	C	0.933584	0.069877	-0.000021
C19	C	0.889673	0.436055	-0.000010
C20	C	1.020696	0.439582	-0.000010
C21	C	1.366920	-0.255126	-0.000010
C22	C	1.424343	-0.347273	0.112691
C23	C	1.424374	-0.347252	-0.112670
C24	C	1.545953	-0.277324	0.112795
C25	C	1.545967	-0.277294	-0.112668
C26	C	1.603478	-0.369414	0.000061
C27	C	1.714712	0.180440	-0.000007
C28	C	1.854157	0.184192	-0.000015
C29	C	1.478119	0.420851	-0.000015
C30	C	1.481877	0.562478	-0.000022
N31	N	1.485184	0.187725	0.356114
N32	N	1.485183	0.187701	-0.356123
C33	C	1.569804	0.101792	0.428044
C34	C	1.569800	0.101776	0.571927
C35	C	1.400554	0.273638	0.571937
C36	C	1.400553	0.273646	0.428056
C37	C	1.667520	0.002573	0.428039
C38	C	1.667517	0.002557	0.571922
H39	H	0.891588	-0.026074	-0.000040
Br40	Br	1.631628	-0.225591	-0.271485
H41	H	1.129291	-0.019670	-0.000018
Br42	Br	0.820123	0.520233	-0.159441
H43	H	1.764039	0.024414	0.610972
Br44	Br	1.631613	-0.225983	0.271779
Br45	Br	1.069683	0.526942	0.159421
Br46	Br	1.338620	-0.398916	0.271503
Br47	Br	0.813602	0.503550	0.164475
Br48	Br	1.819510	0.054378	0.353642
Br49	Br	1.770209	-0.451873	0.000157
Br50	Br	1.080137	0.510715	-0.164509
H51	H	1.372925	-0.378194	-0.207960
Br52	Br	1.285689	0.390250	0.330434
Br53	Br	1.285699	0.390237	0.669580
H54	H	1.636961	-0.090095	0.616541
H55	H	1.266974	-0.205428	0.000103
H56	H	1.646032	-0.095472	0.388989
