data_functionalizedCrystal
_audit_creation_method	'MofGen! by Chris Wilmer'
_symmetry_space_group_name_H-M	'P1'
_symmetry_Int_Tables_number	1
_symmetry_cell_setting	triclinic
loop_
_symmetry_equiv_pos_as_xyz
  x,y,z
_cell_length_a	17.699083
_cell_length_b	10.723024
_cell_length_c	16.176319
_cell_angle_alpha	89.994397
_cell_angle_beta	89.998611
_cell_angle_gamma	83.875442
loop_
_atom_site_label
_atom_site_type_symbol
_atom_site_fract_x
_atom_site_fract_y
_atom_site_fract_z
O1	O	1.005074	0.157797	-0.068628
O2	O	0.784825	0.178327	-0.068655
O3	O	0.900030	-0.013601	-0.068638
O4	O	0.889869	0.349725	-0.068646
O5	O	0.900014	-0.013613	0.068855
O6	O	0.784809	0.178315	0.068838
O7	O	1.005058	0.157785	0.068865
Cu8	Cu	0.894932	0.168049	0.081406
Cu9	Cu	0.894951	0.168063	-0.081196
O10	O	0.889853	0.349713	0.068848
C11	C	0.756616	0.177585	0.000088
C12	C	0.672584	0.175378	0.000078
C13	C	0.624673	0.288036	0.000076
C14	C	0.545717	0.285955	0.000086
C15	C	0.514672	0.171215	0.000093
C16	C	0.562589	0.058549	0.000098
C17	C	0.641544	0.060631	0.000093
C18	C	0.244173	0.050148	0.000118
C19	C	0.165212	0.048075	0.000121
C20	C	0.148346	0.275473	0.000112
C21	C	0.227301	0.277555	0.000107
C22	C	0.275210	0.164889	0.000116
C23	C	0.360824	0.167147	0.000106
C24	C	0.429060	0.168956	0.000097
C25	C	0.899283	-0.060094	0.000107
C26	C	0.897070	-0.198610	0.000104
C27	C	0.961533	-0.274698	0.000111
C28	C	0.959248	-0.417863	0.000108
C29	C	1.033268	0.158527	0.000120
C30	C	1.117300	0.160734	0.000125
C31	C	0.890601	0.396206	0.000100
C32	C	0.892813	0.534723	0.000098
N33	N	0.894924	0.168038	0.195771
N34	N	0.894965	0.168064	-0.195561
C35	C	0.945953	0.083087	0.239042
C36	C	0.945957	0.083085	0.325590
C37	C	0.894935	0.168042	0.368863
C38	C	0.843901	0.252997	0.325586
C39	C	0.843894	0.252992	0.239040
C40	C	0.843927	0.253021	0.674614
C41	C	0.843940	0.253022	0.761165
C42	C	0.945989	0.083115	0.761163
C43	C	0.945983	0.083109	0.674618
C44	C	0.894946	0.168059	0.631348
C45	C	0.894942	0.168058	0.537503
C46	C	0.894943	0.168050	0.462706
H47	H	0.252572	0.370988	0.000098
C48	C	0.095647	0.399408	0.000108
H49	H	0.125445	0.468039	0.000092
H50	H	0.064496	0.403331	0.048055
H51	H	0.064496	0.403320	-0.047845
H52	H	0.802355	0.322167	0.360824
H53	H	1.014433	-0.483241	0.000117
H54	H	0.802389	0.322207	0.796397
C55	C	0.787796	0.346472	0.627027
H56	H	0.757419	0.397078	0.665197
H57	H	0.756055	0.301654	0.593274
H58	H	0.815291	0.398363	0.593259
H59	H	0.987507	0.013911	0.360821
C60	C	0.787766	0.346443	0.191441
H61	H	0.757385	0.397050	0.229607
H62	H	0.756028	0.301619	0.157687
H63	H	0.815261	0.398332	0.157672
H64	H	0.680552	-0.031107	0.000094
H65	H	0.837625	-0.399906	0.000098
C66	C	0.528442	-0.067663	0.000104
H67	H	0.474557	-0.052770	0.000097
H68	H	0.544847	-0.114047	0.048050
H69	H	0.544848	-0.114031	-0.047849
H70	H	0.649943	0.381471	0.000069
C71	C	0.131064	-0.078145	0.000136
H72	H	0.170905	-0.144948	0.000149
H73	H	0.100613	-0.083686	-0.047808
H74	H	0.100615	-0.083673	0.048092
C75	C	1.038376	-0.219531	0.000123
H76	H	1.029831	-0.130545	0.000130
H77	H	1.066360	-0.246993	-0.047819
H78	H	1.066343	-0.247008	0.048081
C79	C	0.820225	-0.253772	0.000089
H80	H	0.780078	-0.187470	0.000079
H81	H	0.816583	-0.303944	0.048032
H82	H	0.816600	-0.303917	-0.047868
H83	H	0.987544	0.013939	0.796403
C84	C	1.002076	-0.010369	0.191449
H85	H	1.032462	-0.060970	0.229619
H86	H	1.033810	0.034446	0.157677
H87	H	0.974575	-0.062263	0.157698
C88	C	0.296866	-0.073775	0.000116
H89	H	0.348336	-0.056110	0.000120
H90	H	0.287389	-0.120825	-0.047830
H91	H	0.287392	-0.120839	0.048070
C92	C	0.493018	0.409879	0.000081
H93	H	0.522816	0.478511	0.000066
H94	H	0.461870	0.413796	0.048031
H95	H	0.461866	0.413793	-0.047869
C96	C	1.002103	-0.010347	0.627021
H97	H	1.032491	-0.060951	0.665188
H98	H	1.033836	0.034469	0.593248
H99	H	0.974600	-0.062238	0.593272
