data_functionalizedCrystal
_audit_creation_method	'MofGen! by Chris Wilmer'
_symmetry_space_group_name_H-M	'P1'
_symmetry_Int_Tables_number	1
_symmetry_cell_setting	triclinic
loop_
_symmetry_equiv_pos_as_xyz
  x,y,z
_cell_length_a	10.540514
_cell_length_b	10.540539
_cell_length_c	10.268362
_cell_angle_alpha	89.999200
_cell_angle_beta	90.005154
_cell_angle_gamma	84.520326
loop_
_atom_site_label
_atom_site_type_symbol
_atom_site_fract_x
_atom_site_fract_y
_atom_site_fract_z
O1	O	1.685907	0.178741	0.108310
O2	O	2.185907	0.678741	0.608310
O3	O	1.316490	0.195631	0.108308
O4	O	1.816490	0.695631	0.608308
O5	O	1.509626	0.002479	0.108308
O6	O	2.009626	0.502479	0.608308
O7	O	1.492770	0.371893	0.108311
O8	O	1.992770	0.871893	0.608311
O9	O	1.509608	0.002485	-0.108293
O10	O	2.009608	0.502485	0.391707
O11	O	1.316471	0.195637	-0.108292
O12	O	1.816471	0.695637	0.391708
O13	O	1.685888	0.178748	-0.108291
O14	O	2.185888	0.678748	0.391709
Cu15	Cu	1.501178	0.187193	-0.128069
Cu16	Cu	2.001178	0.687193	0.371931
Cu17	Cu	1.501200	0.187185	0.128086
Cu18	Cu	2.001200	0.687185	0.628086
O19	O	1.492752	0.371900	-0.108290
O20	O	1.992752	0.871900	0.391710
C21	C	1.269177	0.194374	0.000008
C22	C	1.769177	0.694374	0.500008
C23	C	1.128227	0.190605	0.000007
C24	C	1.628227	0.690605	0.500007
C25	C	1.508353	-0.044821	0.000010
C26	C	2.008353	0.455179	0.500010
C27	C	1.504571	-0.185769	0.000017
C28	C	2.004571	0.314231	0.500017
C29	C	1.057522	0.328745	0.000011
C30	C	1.557522	0.828745	0.500011
C31	C	0.910908	0.324871	0.000510
C32	C	1.410908	0.824871	0.500510
C33	C	0.935900	0.115474	0.123463
C34	C	1.435900	0.615474	0.623463
C35	C	1.082440	0.120328	0.123560
C36	C	1.582440	0.620328	0.623560
C37	C	1.082821	0.118291	-0.122764
C38	C	1.582821	0.618291	0.377236
C39	C	0.935842	0.116958	-0.124380
C40	C	1.435842	0.616958	0.375620
C41	C	1.359652	-0.369182	0.000502
C42	C	1.859652	0.130818	0.500502
C43	C	1.363486	-0.222564	0.000015
C44	C	1.863486	0.277436	0.500015
C45	C	1.572457	-0.247429	-0.123673
C46	C	2.072457	0.252571	0.376327
C47	C	1.567642	-0.393973	-0.123777
C48	C	2.067642	0.106027	0.376223
C49	C	1.570532	-0.394499	0.122538
C50	C	2.070532	0.105501	0.622538
C51	C	1.571832	-0.247517	0.124174
C52	C	2.071832	0.252483	0.624174
C53	C	1.733201	0.180004	0.000013
C54	C	2.233201	0.680004	0.500013
C55	C	1.874151	0.183774	0.000022
C56	C	2.374151	0.683774	0.500022
C57	C	1.494025	0.419199	0.000011
C58	C	1.994025	0.919199	0.500011
C59	C	1.497807	0.560147	0.000012
C60	C	1.997807	1.060147	0.500012
N61	N	1.501172	0.187198	-0.308235
N62	N	2.001172	0.687198	0.191765
C63	C	1.501181	0.187199	-0.426077
C64	C	2.001181	0.687199	0.073923
C65	C	1.501197	0.187187	-0.573915
C66	C	2.001197	0.687187	-0.073915
N67	N	1.501216	0.187171	0.308252
N68	N	2.001216	0.687171	0.808252
H69	H	0.868237	0.378590	-0.087958
H70	H	1.368237	0.878590	0.412042
H71	H	1.309679	-0.180801	-0.088799
H72	H	1.809679	0.319199	0.411201
F73	F	1.293666	-0.166872	0.115906
F74	F	1.793666	0.333128	0.615906
H75	H	1.672437	-0.441734	0.123371
H76	H	2.172437	0.058266	0.623371
H77	H	1.110672	0.170206	0.216188
H78	H	1.610672	0.670206	0.716188
F79	F	1.507417	-0.193515	0.243792
F80	F	2.007417	0.306485	0.743792
F81	F	1.095442	0.402274	-0.115226
F82	F	1.595442	0.902274	0.384774
F83	F	1.145191	-0.012302	0.130440
F84	F	1.645191	0.487698	0.630440
H85	H	1.304139	-0.399382	-0.087701
H86	H	1.804139	0.100618	0.412299
F87	F	1.700261	-0.456687	-0.131125
F88	F	2.200261	0.043313	0.368875
F89	F	0.904223	-0.017467	-0.134613
F90	F	1.404223	0.482533	0.365387
F91	F	1.286812	-0.406558	0.116440
F92	F	1.786812	0.093442	0.616440
F93	F	0.880322	0.176745	0.244000
F94	F	1.380322	0.676745	0.744000
H95	H	1.517455	-0.422165	-0.216238
H96	H	2.017455	0.077835	0.283762
F97	F	0.856367	0.394777	0.116854
F98	F	1.356367	0.894777	0.616854
F99	F	0.906736	-0.019981	0.129012
F100	F	1.406736	0.480019	0.629012
H101	H	1.525284	-0.204822	-0.215719
H102	H	2.025284	0.295178	0.284281
F103	F	1.097036	0.400919	0.115547
F104	F	1.597036	0.900919	0.615547
H105	H	1.676065	-0.225084	-0.128271
H106	H	2.176065	0.274916	0.371729
H107	H	0.894839	0.166872	-0.215704
H108	H	1.394839	0.666872	0.284296
F109	F	1.510851	-0.435725	0.245076
F110	F	2.010851	0.064275	0.745076
F111	F	1.144607	-0.014882	-0.124338
F112	F	1.644607	0.485118	0.375662
H113	H	1.114307	0.164278	-0.216358
H114	H	1.614307	0.664278	0.283642
H115	H	1.674694	-0.223305	0.131643
H116	H	2.174694	0.276695	0.631643
