data_functionalizedCrystal
_audit_creation_method	'MofGen! by Chris Wilmer'
_symmetry_space_group_name_H-M	'P1'
_symmetry_Int_Tables_number	1
_symmetry_cell_setting	triclinic
loop_
_symmetry_equiv_pos_as_xyz
  x,y,z
_cell_length_a	10.723024
_cell_length_b	10.723024
_cell_length_c	9.798715
_cell_angle_alpha	90.002605
_cell_angle_beta	89.997513
_cell_angle_gamma	95.532131
loop_
_atom_site_label
_atom_site_type_symbol
_atom_site_fract_x
_atom_site_fract_y
_atom_site_fract_z
O1	O	1.657187	-0.175024	-0.113452
O2	O	1.990521	0.158309	0.219881
O3	O	2.323854	0.491642	0.553215
O4	O	1.294035	-0.191778	-0.113463
O5	O	1.627368	0.141556	0.219871
O6	O	1.960702	0.474889	0.553204
O7	O	1.483988	-0.001825	-0.113450
O8	O	1.817321	0.331508	0.219883
O9	O	2.150654	0.664842	0.553217
O10	O	1.467234	-0.364977	-0.113465
O11	O	1.800568	-0.031644	0.219869
O12	O	2.133901	0.301689	0.553202
O13	O	1.483974	-0.001824	0.113532
O14	O	1.817307	0.331509	0.446866
O15	O	2.150640	0.664842	0.780199
O16	O	1.294021	-0.191777	0.113519
O17	O	1.627354	0.141556	0.446853
O18	O	1.960687	0.474889	0.780186
O19	O	1.657173	-0.175024	0.113530
O20	O	1.990506	0.158309	0.446864
O21	O	2.323840	0.491643	0.780197
Zn22	Zn	1.475595	-0.183401	0.149563
Zn23	Zn	1.808928	0.149933	0.482897
Zn24	Zn	2.142261	0.483266	0.816230
Zn25	Zn	1.475613	-0.183401	-0.149496
Zn26	Zn	1.808947	0.149932	0.183838
Zn27	Zn	2.142280	0.483265	0.517171
O28	O	1.467220	-0.364977	0.113517
O29	O	1.800554	-0.031643	0.446851
O30	O	2.133887	0.301690	0.780184
C31	C	1.247528	-0.190558	0.000027
C32	C	1.580862	0.142775	0.333360
C33	C	1.914195	0.476108	0.666694
C34	C	1.108974	-0.186911	0.000023
C35	C	1.442307	0.146423	0.333356
C36	C	1.775641	0.479756	0.666690
C37	C	1.482762	0.044675	0.000040
C38	C	1.816095	0.378008	0.333373
C39	C	2.149428	0.711342	0.666707
C40	C	1.479114	0.183229	0.000037
C41	C	1.812447	0.516563	0.333370
C42	C	2.145780	0.849896	0.666704
N43	N	1.475591	-0.183399	0.353663
N44	N	1.808924	0.149934	0.686996
N45	N	2.142258	0.483267	1.020330
C46	C	1.703680	-0.176243	0.000038
C47	C	2.037013	0.157090	0.333371
C48	C	2.370346	0.490423	0.666704
C49	C	1.842234	-0.179891	0.000033
C50	C	2.175567	0.153442	0.333366
C51	C	2.508901	0.486776	0.666699
C52	C	1.917217	-0.073603	0.000035
C53	C	2.250550	0.259730	0.333368
C54	C	2.583883	0.593063	0.666702
C55	C	2.060420	-0.077371	0.000030
C56	C	2.393753	0.255962	0.333363
C57	C	2.727087	0.589296	0.666697
C58	C	1.585401	0.258212	0.000039
C59	C	1.918735	0.591545	0.333372
C60	C	2.252068	0.924878	0.666706
C61	C	1.581634	0.401415	0.000036
C62	C	1.914967	0.734749	0.333369
C63	C	2.248301	1.068082	0.666702
C64	C	1.468447	0.588523	0.000027
C65	C	1.801780	0.921857	0.333361
C66	C	2.135113	1.255190	0.666694
C67	C	1.472094	0.449969	0.000031
C68	C	1.805428	0.783302	0.333364
C69	C	2.138761	1.116636	0.666697
N70	N	1.475627	-0.183393	-0.353595
N71	N	1.808960	0.149941	-0.020262
N72	N	2.142294	0.483274	0.313071
C73	C	1.555347	-0.103292	0.421445
C74	C	1.888680	0.230041	0.754778
C75	C	2.222014	0.563375	1.088112
C76	C	1.555367	-0.103288	0.578608
C77	C	1.888700	0.230046	0.911941
C78	C	2.222034	0.563379	1.245275
H79	H	1.875395	0.020182	0.000062
H80	H	2.208728	0.353516	0.333395
H81	H	2.542061	0.686849	0.666729
H82	H	1.385328	0.225051	0.000026
H83	H	1.718661	0.558385	0.333359
H84	H	2.051995	0.891718	0.666692
Br85	Br	1.361790	-0.297701	0.450854
Br86	Br	1.695124	0.035633	0.784188
Br87	Br	2.028457	0.368966	1.117521
Br88	Br	1.668819	0.011335	0.324254
Br89	Br	2.002152	0.344668	0.657588
Br90	Br	2.335486	0.678001	0.990921
Br91	Br	1.911926	-0.336217	0.000039
Br92	Br	2.245259	-0.002883	0.333372
Br93	Br	2.578593	0.330450	0.666706
H94	H	1.623654	-0.034709	0.636898
H95	H	1.956987	0.298625	0.970231
H96	H	2.290321	0.631958	1.303564
Br97	Br	2.167804	0.074296	0.000017
Br98	Br	2.501138	0.407629	0.333350
Br99	Br	2.834471	0.740963	0.666684
H100	H	2.044549	-0.277906	0.000015
H101	H	2.377882	0.055427	0.333349
H102	H	2.711216	0.388761	0.666682
Br103	Br	1.733301	0.508799	0.000055
Br104	Br	2.066634	0.842133	0.333388
Br105	Br	2.399968	1.175466	0.666722
H106	H	1.679187	0.216390	0.000050
H107	H	2.012521	0.549723	0.333383
H108	H	2.345854	0.883056	0.666716
Br109	Br	1.320422	0.342592	0.000044
Br110	Br	1.653755	0.675926	0.333377
Br111	Br	1.987089	1.009259	0.666711
H112	H	1.407345	-0.251984	0.588124
H113	H	1.740679	0.081349	0.921457
H114	H	2.074012	0.414683	1.254790
