data_functionalizedCrystal
_audit_creation_method	'MofGen! by Chris Wilmer'
_symmetry_space_group_name_H-M	'P1'
_symmetry_Int_Tables_number	1
_symmetry_cell_setting	triclinic
loop_
_symmetry_equiv_pos_as_xyz
  x,y,z
_cell_length_a	15.538191
_cell_length_b	11.026607
_cell_length_c	10.066323
_cell_angle_alpha	79.266239
_cell_angle_beta	84.768133
_cell_angle_gamma	102.070945
loop_
_atom_site_label
_atom_site_type_symbol
_atom_site_fract_x
_atom_site_fract_y
_atom_site_fract_z
O1	O	1.177708	0.344494	0.113510
O2	O	0.925558	0.214114	0.113506
O3	O	1.030736	0.446753	0.113503
O4	O	1.072530	0.111854	0.113513
O5	O	1.050748	0.491237	-0.113471
O6	O	0.945571	0.258598	-0.113468
O7	O	1.197720	0.388978	-0.113465
Zn8	Zn	1.074823	0.330850	-0.149503
Zn9	Zn	1.048456	0.272241	0.149545
O10	O	1.092543	0.156338	-0.113461
C11	C	0.902782	0.222714	0.000019
C12	C	0.805099	0.182082	0.000018
N13	N	1.092824	0.370853	-0.353596
C14	C	1.033031	0.510809	0.000017
C15	C	1.010045	0.635398	0.000022
C16	C	0.448854	0.585756	0.000026
C17	C	0.357068	0.547547	0.000028
C18	C	0.371069	0.332628	0.000035
C19	C	0.462859	0.370821	0.000026
C20	C	0.501744	0.497386	0.000023
C21	C	0.515749	0.282451	0.000023
C22	C	0.607531	0.320640	0.000021
C23	C	0.646423	0.447199	0.000023
C24	C	0.593526	0.535575	0.000022
C25	C	0.476861	0.155884	0.000035
C26	C	0.529751	0.067514	0.000032
C27	C	0.621536	0.105704	0.000021
C28	C	0.660427	0.232263	0.000022
C29	C	0.674432	0.017327	0.000022
C30	C	0.766214	0.055516	0.000020
C31	C	0.752209	0.270452	0.000021
C32	C	1.220496	0.380376	0.000026
C33	C	1.318178	0.421007	0.000036
C34	C	1.090247	0.092282	0.000028
C35	C	1.113232	-0.032309	0.000032
C36	C	1.073512	0.737158	0.000025
C37	C	1.049756	0.865928	0.000029
C38	C	1.054707	0.286153	-0.421402
C39	C	1.068582	0.316962	-0.578559
N40	N	1.030460	0.232250	0.353638
H41	H	0.721156	0.478286	0.000040
H42	H	0.783872	0.373516	0.000010
H43	H	0.625189	0.638639	0.000011
H44	H	0.977828	0.874130	0.000037
H45	H	0.987555	0.136917	-0.588072
H46	H	1.135733	0.466175	-0.411891
H47	H	1.145435	0.728948	0.000017
H48	H	1.111494	0.412290	-0.636850
H49	H	0.480517	0.688820	0.000016
H50	H	1.185151	0.959469	0.000136
H51	H	0.938121	0.643607	0.000030
H52	H	0.339395	0.229577	0.000043
H53	H	0.314007	0.619518	0.000033
H54	H	0.498078	-0.035537	0.000040
H55	H	0.402126	0.124794	0.000041
H56	H	0.642757	-0.085725	0.000038
H57	H	0.809280	-0.016441	0.000005
H58	H	1.011805	0.190826	-0.363109
