data_functionalizedCrystal
_audit_creation_method	'MofGen! by Chris Wilmer'
_symmetry_space_group_name_H-M	'P1'
_symmetry_Int_Tables_number	1
_symmetry_cell_setting	triclinic
loop_
_symmetry_equiv_pos_as_xyz
  x,y,z
_cell_length_a	19.188930
_cell_length_b	17.666332
_cell_length_c	19.188924
_cell_angle_alpha	89.991448
_cell_angle_beta	83.143372
_cell_angle_gamma	89.976766
loop_
_atom_site_label
_atom_site_type_symbol
_atom_site_fract_x
_atom_site_fract_y
_atom_site_fract_z
O1	O	0.926147	-0.063195	0.087169
O2	O	0.722836	-0.063144	0.098903
O3	O	0.830361	-0.063162	-0.008620
O4	O	0.818622	-0.063177	0.194692
O5	O	0.830343	0.062735	-0.008625
O6	O	0.722817	0.062753	0.098898
O7	O	0.926129	0.062702	0.087163
Cu8	Cu	0.824471	0.074223	0.093030
Cu9	Cu	0.824493	-0.074665	0.093037
O10	O	0.818603	0.062720	0.194687
C11	C	0.696815	-0.000189	0.098521
C12	C	0.619311	-0.000169	0.097380
N13	N	0.824461	0.178942	0.093025
N14	N	0.824509	-0.179384	0.093036
C15	C	0.574386	-0.000185	0.160471
C16	C	0.501562	-0.000193	0.159399
C17	C	0.473667	-0.000200	0.095233
C18	C	0.518602	-0.000180	0.032134
C19	C	0.591424	-0.000164	0.033207
N20	N	0.365694	-0.043075	0.046188
N21	N	0.296516	-0.043092	0.045172
C22	C	0.254258	-0.000246	0.091995
N23	N	0.283791	0.042607	0.139882
N24	N	0.352976	0.042620	0.140899
C25	C	0.394704	-0.000217	0.094062
C26	C	0.130368	-0.000271	0.153928
C27	C	0.057543	-0.000274	0.152854
C28	C	0.074585	-0.000268	0.025586
C29	C	0.147409	-0.000257	0.026663
C30	C	0.175295	-0.000262	0.090835
C31	C	0.952149	-0.000255	0.087546
C32	C	1.029654	-0.000280	0.088687
C33	C	0.829973	-0.000213	-0.034634
C34	C	0.828834	-0.000210	-0.112138
C35	C	0.872088	0.218544	0.045437
C36	C	0.872092	0.297791	0.045433
C37	C	0.824475	0.337434	0.093030
C38	C	0.776839	0.297823	0.140622
C39	C	0.776831	0.218577	0.140619
N40	N	0.815398	0.461850	0.154838
N41	N	0.815409	0.537130	0.154838
C42	C	0.824494	0.576198	0.093040
N43	N	0.833581	0.537142	0.031239
N44	N	0.833573	0.461855	0.031240
C45	C	0.824478	0.423363	0.093038
C46	C	0.872128	0.701729	0.045444
C47	C	0.872128	0.780978	0.045440
C48	C	0.776878	0.781009	0.140634
C49	C	0.776875	0.701761	0.140633
C50	C	0.824504	0.662126	0.093038
C51	C	0.828313	-0.068837	-0.148534
C52	C	0.827233	-0.068842	-0.221357
C53	C	0.826688	-0.000217	-0.257783
C54	C	0.827205	0.068418	-0.221378
C55	C	0.828278	0.068421	-0.148556
N56	N	0.864728	0.050849	-0.377448
N57	N	0.863710	0.050841	-0.446627
C58	C	0.823454	-0.000224	-0.477192
N59	N	0.784262	-0.051292	-0.435967
N60	N	0.785283	-0.051286	-0.366783
C61	C	0.825524	-0.000214	-0.336746
C62	C	0.821761	-0.068861	-0.592550
C63	C	0.820676	-0.068864	-0.665374
C64	C	0.820656	0.068399	-0.665394
C65	C	0.821734	0.068399	-0.592571
C66	C	0.822289	-0.000233	-0.556154
C67	C	0.818992	-0.000231	0.220700
C68	C	0.820131	-0.000238	0.298205
H69	H	0.464976	-0.000205	0.210777
H70	H	0.051874	-0.000321	-0.026659
H71	H	0.828763	-0.124722	-0.118888
O72	O	0.488522	-0.000187	-0.037077
H73	H	0.430336	-0.000209	-0.027225
O74	O	0.639882	-0.000150	-0.034847
H75	H	0.673436	0.051173	-0.037404
H76	H	0.826804	-0.124728	-0.250996
H77	H	0.738104	0.813285	0.179386
H78	H	0.597086	-0.000191	0.212725
H79	H	0.820249	-0.124750	-0.695006
H80	H	0.822164	0.124282	-0.562938
O81	O	0.195872	-0.000246	-0.041386
H82	H	0.164243	-0.000256	-0.086186
O83	O	0.725453	0.175862	0.191946
H84	H	0.733444	0.114098	0.183943
H85	H	0.910869	0.186275	0.006681
H86	H	0.910909	0.669457	0.006688
H87	H	0.910878	0.330041	0.006680
O88	O	0.820065	0.142418	-0.704671
H89	H	0.867841	0.175318	-0.697065
O90	O	0.160449	-0.000261	0.223141
H91	H	0.193240	-0.051572	0.226685
H92	H	0.826760	0.124293	-0.251040
O93	O	0.828853	0.142442	-0.109295
H94	H	0.828298	0.190163	-0.146855
O95	O	0.009082	-0.000289	0.220905
H96	H	0.040711	-0.000296	0.265705
H97	H	0.738067	0.330104	0.179375
O98	O	0.923509	0.823691	-0.005886
H99	H	0.914799	0.808490	-0.060297
O100	O	0.725513	0.659040	0.191968
H101	H	0.692406	0.699917	0.225070
O102	O	0.822346	-0.142880	-0.553262
H103	H	0.821789	-0.190603	-0.590806
