data_functionalizedCrystal
_audit_creation_method	'MofGen! by Chris Wilmer'
_symmetry_space_group_name_H-M	'P1'
_symmetry_Int_Tables_number	1
_symmetry_cell_setting	triclinic
loop_
_symmetry_equiv_pos_as_xyz
  x,y,z
_cell_length_a	13.635800
_cell_length_b	7.076078
_cell_length_c	7.190378
_cell_angle_alpha	83.157426
_cell_angle_beta	119.389020
_cell_angle_gamma	117.701375
loop_
_atom_site_label
_atom_site_type_symbol
_atom_site_fract_x
_atom_site_fract_y
_atom_site_fract_z
V1	V	-2.149233	-0.291748	-0.663533
O2	O	-2.101116	0.017474	-0.652438
O3	O	-2.161847	-0.581810	-0.657518
O4	O	-2.167044	-0.285745	-0.953596
O5	O	-2.095884	-0.280641	-0.354309
V6	V	-2.380833	-0.254941	-0.626727
O7	O	-2.302152	-0.372489	-0.744270
O8	O	-2.453012	-0.174201	-0.545989
O9	O	-2.256615	0.035121	-0.632742
O10	O	-2.487648	-0.564163	-0.637822
O11	O	-2.492881	-0.266049	-0.935950
O12	O	-2.251419	-0.260944	-0.336663
V13	V	-1.880826	-0.254941	-0.626727
O14	O	-1.934175	-0.266049	-0.935950
O15	O	-1.863015	-0.260944	-0.336663
O16	O	-1.868211	0.035121	-0.632742
O17	O	-1.928942	-0.564163	-0.637822
V18	V	-1.649226	-0.291748	-0.663533
O19	O	-1.727906	-0.174201	-0.545989
O20	O	-1.577046	-0.372489	-0.744270
O21	O	-1.778640	-0.285745	-0.953596
O22	O	-1.537178	-0.280641	-0.354309
O23	O	-1.542411	0.017474	-0.652438
O24	O	-1.773443	-0.581810	-0.657518
C25	C	-2.095432	0.347432	-0.646668
C26	C	-2.158195	0.105859	-0.643602
C27	C	-1.875007	-0.274900	-0.024343
C28	C	-1.931496	-0.271820	-0.265914
C29	C	-2.155077	-0.271901	-1.265921
C30	C	-2.098574	-0.274926	-1.024342
C31	C	-1.938111	0.105867	-0.643594
C32	C	-1.885917	0.347440	-0.646656
