data_functionalizedCrystal
_audit_creation_method	'MofGen! by Chris Wilmer'
_symmetry_space_group_name_H-M	'P1'
_symmetry_Int_Tables_number	1
_symmetry_cell_setting	triclinic
loop_
_symmetry_equiv_pos_as_xyz
  x,y,z
_cell_length_a	29.839135
_cell_length_b	16.959453
_cell_length_c	16.959447
_cell_angle_alpha	90.028432
_cell_angle_beta	90.018945
_cell_angle_gamma	90.027802
loop_
_atom_site_label
_atom_site_type_symbol
_atom_site_fract_x
_atom_site_fract_y
_atom_site_fract_z
Zn1	Zn	-0.686782	0.314627	-0.447017
Zn2	Zn	-0.686730	0.446820	-0.314842
Zn3	Zn	-0.611661	0.314663	-0.314843
Zn4	Zn	-0.611633	0.446772	-0.446970
O5	O	-0.649201	0.380721	-0.380918
O6	O	-0.749642	0.332168	-0.429502
O7	O	-0.676762	0.429324	-0.204232
O8	O	-0.621659	0.204048	-0.332396
O9	O	-0.749604	0.429289	-0.332395
O10	O	-0.676850	0.204021	-0.429503
O11	O	-0.621609	0.332229	-0.204232
O12	O	-0.548790	0.332183	-0.332351
O13	O	-0.621612	0.429208	-0.557587
O14	O	-0.548769	0.429243	-0.429424
O15	O	-0.676823	0.332122	-0.557621
O16	O	-0.676735	0.557424	-0.332350
O17	O	-0.621561	0.557389	-0.429423
C18	C	-0.532479	0.380712	-0.380883
C19	C	-0.482544	0.380727	-0.380887
C20	C	-0.172918	0.330216	-0.431553
C21	C	0.014755	0.330217	-0.431574
O22	O	0.039006	0.287258	-0.474616
N23	N	0.038241	0.380707	-0.380942
C24	C	0.014805	0.431196	-0.330297
O25	O	0.039087	0.474134	-0.287226
C26	C	-0.172867	0.431190	-0.330273
C27	C	-0.196350	0.380703	-0.380914
C28	C	-0.196401	0.279733	-0.482189
C29	C	-0.243316	0.279736	-0.482187
C30	C	-0.266749	0.330222	-0.431547
C31	C	-0.243266	0.380706	-0.380911
C32	C	-0.196302	0.481674	-0.279624
C33	C	-0.243223	0.481667	-0.279621
C34	C	-0.266706	0.431180	-0.330263
C35	C	-0.313614	0.431196	-0.330269
N36	N	-0.337099	0.380706	-0.380901
C37	C	-0.313667	0.330220	-0.431540
C38	C	0.113336	0.431196	-0.330314
C39	C	0.160253	0.431199	-0.330321
C40	C	0.160200	0.330219	-0.431597
C41	C	0.113282	0.330221	-0.431594
C42	C	0.089850	0.380707	-0.380947
C43	C	-0.412192	0.330231	-0.431531
C44	C	-0.459112	0.330241	-0.431527
C45	C	-0.459055	0.431217	-0.330248
C46	C	-0.412139	0.431210	-0.330255
C47	C	-0.388709	0.380711	-0.380900
O48	O	-0.337893	0.474126	-0.287243
O49	O	-0.337957	0.287275	-0.474593
C50	C	-0.126002	0.330213	-0.431556
C51	C	-0.102519	0.380696	-0.380919
C52	C	-0.125952	0.431183	-0.330280
C53	C	-0.055602	0.380699	-0.380926
C54	C	-0.032169	0.330212	-0.431565
C55	C	-0.055655	0.279723	-0.482197
C56	C	-0.102570	0.279726	-0.482195
C57	C	-0.102466	0.481672	-0.279648
C58	C	-0.055551	0.481666	-0.279655
C59	C	-0.032118	0.431179	-0.330294
C60	C	-0.649152	0.586087	-0.380899
C61	C	-0.649172	0.673944	-0.380917
C62	C	0.233620	0.380724	-0.380951
C63	C	0.183686	0.380712	-0.380960
C64	C	-0.620431	0.715228	-0.431425
C65	C	-0.677934	0.715212	-0.330430
C66	C	-0.677955	0.797758	-0.330448
C67	C	-0.649214	0.839043	-0.380956
C68	C	-0.620452	0.797782	-0.431446
C69	C	-0.706720	0.839026	-0.279965
C70	C	-0.706743	0.921576	-0.279982
C71	C	-0.678000	0.962863	-0.330486
C72	C	-0.649236	0.921596	-0.380978
C73	C	-0.620495	0.962881	-0.431486
C74	C	-0.591728	0.921616	-0.481974
C75	C	-0.591708	0.839068	-0.481951
C76	C	-0.678020	1.045411	-0.330509
C77	C	-0.620516	1.045435	-0.431507
C78	C	-0.649220	0.380655	-0.587086
C79	C	-0.649228	0.380627	-0.674943
C80	C	-0.649261	1.174552	-0.380967
C81	C	-0.649279	1.086696	-0.381017
C82	C	-0.620536	0.431092	-1.046404
C83	C	-0.678028	0.329996	-1.046434
C84	C	-0.678016	0.330013	-0.963888
C85	C	-0.649264	0.380571	-0.922596
C86	C	-0.620524	0.431112	-0.963850
C87	C	-0.706759	0.279478	-0.922628
C88	C	-0.706749	0.279493	-0.840077
C89	C	-0.677994	0.330048	-0.798784
C90	C	-0.649252	0.380591	-0.840043
C91	C	-0.620500	0.431149	-0.798751
C92	C	-0.591755	0.481688	-0.840008
C93	C	-0.591769	0.481667	-0.922557
C94	C	-0.677980	0.330069	-0.716235
C95	C	-0.620488	0.431169	-0.716197
C96	C	-0.649209	0.380729	-0.175552
C97	C	-0.649288	0.380534	-0.087696
H98	H	-0.177327	0.238616	-0.523426
C99	C	-0.170481	0.537203	-0.223911
H100	H	-0.191162	0.567257	-0.193748
H101	H	-0.152173	0.571689	-0.254074
H102	H	-0.152182	0.506915	-0.189521
H103	H	-0.701337	0.681596	-0.289312
H104	H	-0.121686	0.238614	-0.523432
H105	H	-0.393019	0.472330	-0.289028
H106	H	0.179287	0.289112	-0.472830
H107	H	-0.730154	0.238340	-0.806492
H108	H	-0.568368	0.522816	-0.956156
H109	H	-0.701444	1.079005	-0.289408
H110	H	-0.730166	0.955167	-0.238871
C111	C	-0.560075	0.793680	-0.537494
H112	H	-0.542959	0.830088	-0.567576
H113	H	-0.577243	0.761428	-0.571954
H114	H	-0.540502	0.761528	-0.507216
C115	C	-0.484836	0.486744	-0.274545
H116	H	-0.516142	0.479503	-0.281794
H117	H	-0.477139	0.539870	-0.286011
H118	H	-0.477140	0.475098	-0.221455
H119	H	-0.568347	0.522856	-0.806377
H120	H	-0.036568	0.238617	-0.523432
H121	H	-0.597070	0.472333	-0.682583
H122	H	-0.597131	0.472238	-1.079999
C123	C	-0.588901	1.090842	-0.487069
H124	H	-0.571770	1.054442	-0.517136
H125	H	-0.569349	1.123104	-0.456808
H126	H	-0.606085	1.122984	-0.521555
C127	C	-0.560116	0.967031	-0.537534
H128	H	-0.542983	0.930638	-0.567604
H129	H	-0.540565	0.999295	-0.507271
H130	H	-0.577302	0.999173	-0.572016
C131	C	-0.588791	0.669842	-0.486959
H132	H	-0.592895	0.614766	-0.479719
H133	H	-0.558615	0.683433	-0.475342
H134	H	-0.595352	0.683320	-0.540086
H135	H	-0.730123	0.805409	-0.238847
H136	H	0.179369	0.472319	-0.289093
H137	H	-0.701439	0.288838	-1.080059
C138	C	-0.484941	0.274700	-0.487231
H139	H	-0.464263	0.244627	-0.517382
H140	H	-0.503243	0.304976	-0.521619
H141	H	-0.503246	0.240219	-0.457048
C142	C	-0.029724	0.537204	-0.223945
H143	H	-0.050404	0.567264	-0.193783
H144	H	-0.011415	0.571685	-0.254112
H145	H	-0.011427	0.506915	-0.189554
H146	H	-0.121540	0.522784	-0.238409
C147	C	-0.738386	0.223871	-0.968045
H148	H	-0.755506	0.193782	-0.931653
H149	H	-0.721217	0.189421	-1.000254
H150	H	-0.757955	0.254110	-1.000242
C151	C	-0.386426	0.274690	-0.487246
H152	H	-0.407137	0.244635	-0.517405
H153	H	-0.368125	0.240206	-0.457083
H154	H	-0.368125	0.304976	-0.521640
C155	C	-0.269142	0.224189	-0.537882
H156	H	-0.248461	0.194118	-0.568030
H157	H	-0.287446	0.254456	-0.572274
H158	H	-0.287444	0.189707	-0.507695
H159	H	-0.701385	0.288923	-0.682647
H160	H	0.094262	0.472310	-0.289069
H161	H	0.094165	0.289109	-0.472829
H162	H	-0.262299	0.522778	-0.238376
