data_functionalizedCrystal
_audit_creation_method	'MofGen! by Chris Wilmer'
_symmetry_space_group_name_H-M	'P1'
_symmetry_Int_Tables_number	1
_symmetry_cell_setting	triclinic
loop_
_symmetry_equiv_pos_as_xyz
  x,y,z
_cell_length_a	17.077404
_cell_length_b	12.759399
_cell_length_c	17.077396
_cell_angle_alpha	90.026002
_cell_angle_beta	90.019501
_cell_angle_gamma	90.015341
loop_
_atom_site_label
_atom_site_type_symbol
_atom_site_fract_x
_atom_site_fract_y
_atom_site_fract_z
Zn1	Zn	1.200097	-0.418260	0.443856
Zn2	Zn	1.200022	-0.593961	0.312596
Zn3	Zn	1.068829	-0.418297	0.312604
Zn4	Zn	1.068815	-0.593898	0.443820
O5	O	1.134441	-0.506104	0.378219
O6	O	1.309934	-0.441578	0.426456
O7	O	1.182593	-0.570700	0.202750
O8	O	1.086279	-0.271271	0.330034
O9	O	1.309879	-0.570664	0.330020
O10	O	1.182721	-0.271244	0.426464
O11	O	1.086206	-0.441641	0.202756
O12	O	0.958980	-0.441580	0.329998
O13	O	1.086255	-0.570558	0.553671
O14	O	0.958970	-0.570594	0.426402
O15	O	1.182708	-0.441517	0.553698
O16	O	1.182580	-0.740973	0.329984
O17	O	1.086182	-0.740927	0.426394
C18	C	0.930493	-0.506085	0.378197
C19	C	0.843243	-0.506102	0.378207
C20	C	0.802268	-0.573381	0.428323
C21	C	0.720287	-0.573383	0.428336
C22	C	0.679284	-0.506111	0.378227
C23	C	0.720264	-0.438825	0.328108
C24	C	0.802243	-0.438818	0.328100
C25	C	0.549394	-0.438846	0.328127
C26	C	0.467410	-0.438854	0.328134
C27	C	0.467438	-0.573410	0.428363
C28	C	0.549417	-0.573404	0.428355
C29	C	0.590393	-0.506119	0.378235
C30	C	1.134392	-0.779071	0.378201
C31	C	1.134444	-0.895848	0.378220
C32	C	1.184695	-0.950699	0.328076
C33	C	1.184746	-1.060423	0.328103
C34	C	1.084286	-1.060435	0.428418
C35	C	1.084240	-0.950713	0.428395
C36	C	1.277400	-1.210298	0.300171
C37	C	1.327645	-1.265152	0.250016
C38	C	1.339725	-1.229604	0.173426
C39	C	1.301549	-1.139202	0.146975
C40	C	1.251299	-1.084353	0.197127
C41	C	1.239233	-1.119900	0.273728
C42	C	0.991585	-0.800836	0.456318
C43	C	0.941330	-0.745985	0.506466
C44	C	0.929242	-0.781532	0.583058
C45	C	0.967404	-0.871938	0.609505
C46	C	1.017658	-0.926789	0.559357
C47	C	1.029748	-0.891234	0.482766
C48	C	1.339185	-0.506124	0.378241
C49	C	1.426435	-0.506132	0.378251
C50	C	1.134488	-0.506026	0.582963
C51	C	1.134508	-0.505993	0.670213
C52	C	1.134510	-0.232071	0.378254
C53	C	1.134540	-0.115294	0.378269
C54	C	1.134438	-0.506105	0.174271
C55	C	1.134570	-0.505842	0.087022
C56	C	1.184733	-0.438796	0.711219
C57	C	1.184742	-0.438761	0.793199
C58	C	1.134531	-0.505930	0.834173
C59	C	1.084300	-0.573130	0.793161
C60	C	1.084288	-0.573159	0.711182
C61	C	1.084332	-0.573066	0.964032
C62	C	1.084346	-0.573039	1.046016
C63	C	1.184787	-0.438669	1.046048
C64	C	1.184774	-0.438698	0.964069
C65	C	1.134545	-0.505900	0.923064
H66	H	1.225575	-0.906030	0.287222
O67	O	0.427672	-0.638920	0.476966
C68	C	0.402610	-0.817702	0.514859
C69	C	0.447685	-0.743630	0.459763
H70	H	0.418786	-0.902374	0.500981
H71	H	0.336966	-0.806239	0.506256
H72	H	0.418750	-0.799314	0.578174
H73	H	0.431611	-0.761972	0.396428
H74	H	0.513319	-0.755106	0.468434
H75	H	0.582754	-0.384046	0.287321
O76	O	0.842137	-0.373614	0.279376
C77	C	0.934618	-0.359296	0.173377
C78	C	0.889501	-0.433262	0.228518
H79	H	0.972910	-0.407493	0.132233
H80	H	0.973075	-0.304437	0.209442
H81	H	0.891218	-0.311192	0.137598
H82	H	0.932844	-0.481435	0.264309
H83	H	0.851033	-0.488052	0.192408
H84	H	1.225665	-0.384010	0.930711
O85	O	1.035631	-0.638233	1.085941
C86	C	0.991087	-0.697653	1.212223
C87	C	1.046314	-0.623794	1.167106
H88	H	0.999693	-0.685989	1.277852
H89	H	1.004826	-0.782409	1.196162
H90	H	0.927807	-0.679187	1.196045
H91	H	1.109613	-0.642165	1.183259
H92	H	1.032508	-0.539060	1.183171
O93	O	1.214305	-0.996535	0.171329
C94	C	1.193687	-0.877431	0.063821
C95	C	1.235640	-0.976891	0.092943
H96	H	1.210907	-0.861530	0.000439
H97	H	1.211413	-0.807887	0.101838
H98	H	1.127629	-0.889287	0.067617
H99	H	1.301705	-0.965137	0.089148
H100	H	1.217850	-1.046399	0.054922
H101	H	1.001429	-0.771879	0.393953
O102	O	1.054830	-1.014493	0.585126
C103	C	1.144322	-1.088576	0.679125
C104	C	1.102287	-0.989172	0.650014
H105	H	1.182688	-1.068143	0.731601
H106	H	1.182370	-1.121673	0.630168
H107	H	1.098978	-1.149525	0.697188
H108	H	1.147577	-0.928151	0.631961
H109	H	1.064225	-0.956162	0.698992
O110	O	1.035451	-0.638412	0.832839
C111	C	0.935863	-0.771741	0.824148
C112	C	0.991130	-0.697840	0.779119
H113	H	0.900028	-0.819824	0.780735
H114	H	0.894784	-0.723542	0.862509
H115	H	0.971909	-0.826622	0.862547
H116	H	0.955148	-0.642945	0.740678
H117	H	1.032212	-0.746105	0.740807
O118	O	1.233539	-0.373234	1.085786
C119	C	1.271666	-0.194510	1.110919
C120	C	1.216417	-0.268491	1.065852
H121	H	1.257832	-0.109810	1.094831
H122	H	1.334967	-0.212891	1.094793
H123	H	1.263066	-0.206068	1.176546
H124	H	1.224947	-0.256975	1.000214
H125	H	1.153137	-0.250093	1.082043
O126	O	1.313392	-1.104794	0.072558
C127	C	1.379203	-1.133516	-0.050384
C128	C	1.365873	-1.172588	0.033880
H129	H	1.421621	-1.188320	-0.081684
H130	H	1.404816	-1.051021	-0.048810
H131	H	1.320986	-1.132315	-0.083058
H132	H	1.424058	-1.173856	0.066604
H133	H	1.340224	-1.255059	0.032250
H134	H	0.686872	-0.384046	0.287312
H135	H	1.380636	-1.274273	0.132589
H136	H	0.434026	-0.384062	0.287340
O137	O	1.364645	-1.353069	0.275630
C138	C	1.384714	-1.538431	0.257538
C139	C	1.342751	-1.438952	0.228468
H140	H	1.367042	-1.607889	0.219412
H141	H	1.367449	-1.554502	0.320886
H142	H	1.450771	-1.526528	0.253808
H143	H	1.276687	-1.450780	0.232146
H144	H	1.360081	-1.422913	0.165134
H145	H	1.043418	-0.627773	0.930647
O146	O	1.035526	-0.638338	0.671226
C147	C	0.991024	-0.697975	0.544916
C148	C	1.046277	-0.624092	0.590067
H149	H	0.999708	-0.686500	0.479292
H150	H	0.927718	-0.679511	0.560968
H151	H	1.004779	-0.782676	0.561071
H152	H	1.032592	-0.539366	0.573937
H153	H	1.109566	-0.642647	0.574012
H154	H	1.225624	-0.384103	0.677864
O155	O	1.265815	-1.244852	0.374592
C156	C	1.324589	-1.285315	0.499261
C157	C	1.337823	-1.246183	0.414997
H158	H	1.382794	-1.286383	0.531957
H159	H	1.299063	-1.367858	0.497684
H160	H	1.282092	-1.230599	0.530540
H161	H	1.380335	-1.300823	0.383668
H162	H	1.363310	-1.163621	0.416628
H163	H	1.225642	-0.384045	0.826582
H164	H	0.957561	-0.900881	0.671873
O165	O	0.680606	-0.638849	0.477035
C166	C	0.689286	-0.772294	0.576459
C167	C	0.734322	-0.698216	0.521336
H168	H	0.732695	-0.820296	0.612303
H169	H	0.650906	-0.827233	0.540380
H170	H	0.650906	-0.724130	0.617544
H171	H	0.772744	-0.746295	0.480240
H172	H	0.772652	-0.643274	0.557464
O173	O	1.035541	-1.113896	0.477076
C174	C	0.991117	-1.282934	0.521599
C175	C	1.046351	-1.222524	0.466443
H176	H	0.999849	-1.370770	0.513033
H177	H	0.927804	-1.261520	0.507751
H178	H	1.004847	-1.261223	0.584895
H179	H	1.032691	-1.244203	0.403129
H180	H	1.109648	-1.243943	0.480359
O181	O	0.880443	-0.728379	0.631872
C182	C	0.822733	-0.718695	0.760414
C183	C	0.877983	-0.779013	0.705201
H184	H	0.820739	-0.759595	0.819717
H185	H	0.761388	-0.716562	0.734111
H186	H	0.845215	-0.635217	0.768301
H187	H	0.855573	-0.862517	0.697292
H188	H	0.939318	-0.781060	0.731528
O189	O	0.904297	-0.658072	0.480896
C190	C	0.884323	-0.472682	0.498940
C191	C	0.926293	-0.572168	0.527990
H192	H	0.902103	-0.403200	0.536991
H193	H	0.818253	-0.484444	0.502704
H194	H	0.901585	-0.456743	0.435574
H195	H	0.909096	-0.588164	0.591362
H196	H	0.992354	-0.560357	0.524168
H197	H	0.835647	-0.628165	0.469125
H198	H	0.582801	-0.628188	0.469153
