data_functionalizedCrystal
_audit_creation_method	'MofGen! by Chris Wilmer'
_symmetry_space_group_name_H-M	'P1'
_symmetry_Int_Tables_number	1
_symmetry_cell_setting	triclinic
loop_
_symmetry_equiv_pos_as_xyz
  x,y,z
_cell_length_a	19.188930
_cell_length_b	10.654550
_cell_length_c	9.130313
_cell_angle_alpha	90.001310
_cell_angle_beta	89.983113
_cell_angle_gamma	83.814842
loop_
_atom_site_label
_atom_site_type_symbol
_atom_site_fract_x
_atom_site_fract_y
_atom_site_fract_z
O1	O	-0.927169	-0.156771	0.122267
O2	O	-0.723996	-0.177876	0.122166
O3	O	-0.830254	0.015514	0.122214
O4	O	-0.820911	-0.350162	0.122220
O5	O	-0.830247	0.015503	-0.121385
O6	O	-0.723989	-0.177888	-0.121433
O7	O	-0.927162	-0.156783	-0.121332
Cu8	Cu	-0.825575	-0.167336	-0.143625
Cu9	Cu	-0.825583	-0.167323	0.144459
O10	O	-0.820904	-0.350173	-0.121379
C11	C	-0.829564	0.062292	0.000416
C12	C	-0.827512	0.201692	0.000420
C13	C	-0.697977	-0.177199	0.000354
C14	C	-0.620459	-0.175147	0.000315
C15	C	-0.953181	-0.157460	0.000484
C16	C	-1.030699	-0.159512	0.000532
C17	C	-0.576277	-0.288622	0.000340
C18	C	-0.503441	-0.286695	0.000356
C19	C	-0.474789	-0.171286	0.000377
C20	C	-0.518981	-0.057795	0.000344
C21	C	-0.591816	-0.059726	0.000313
N22	N	-0.366235	-0.083066	0.083342
N23	N	-0.297044	-0.081239	0.083374
C24	C	-0.255343	-0.165461	0.000466
N25	N	-0.285444	-0.251598	-0.082456
N26	N	-0.354641	-0.253428	-0.082482
C27	C	-0.395813	-0.169179	0.000409
C28	C	-0.132183	-0.276855	0.000507
C29	C	-0.059345	-0.274922	0.000514
C30	C	-0.074887	-0.046020	0.000516
C31	C	-0.147723	-0.047955	0.000494
C32	C	-0.176366	-0.163376	0.000497
C33	C	-0.821594	-0.396951	0.000422
C34	C	-0.823646	-0.536351	0.000428
N35	N	-0.825574	-0.167345	-0.346247
C36	C	-0.890075	0.282501	0.000446
C37	C	-0.888142	0.413481	0.000456
C38	C	-0.761078	0.382829	0.000405
C39	C	-0.763011	0.251852	0.000407
C40	C	-0.963434	0.300199	0.000469
C41	C	-0.961502	0.431179	0.000478
C42	C	-0.868284	-0.243316	-0.422890
C43	C	-0.868294	-0.243293	-0.576227
C44	C	-0.782878	-0.091324	-0.576265
C45	C	-0.782872	-0.091342	-0.422931
C46	C	-0.917596	-0.331058	-0.422869
C47	C	-0.917606	-0.331035	-0.576206
N48	N	-0.825590	-0.167304	0.347082
H49	H	-0.599593	-0.382607	0.000345
F50	F	-0.990483	0.491464	0.137966
H51	H	-0.748111	-0.029445	-0.638720
H52	H	-0.023372	-0.367332	0.000526
F53	F	-0.989566	-0.289204	-0.368411
H54	H	-0.895621	-0.426092	-0.375342
H55	H	-0.712067	0.186060	0.000405
F56	F	-0.986339	-0.278003	-0.638310
H57	H	-0.989140	0.473519	-0.101452
F58	F	-0.737411	-0.010488	-0.341368
H59	H	-0.183697	0.044449	0.000482
F60	F	-0.895131	-0.460951	-0.630648
F61	F	-0.692436	0.436225	0.000395
F62	F	-0.456410	-0.407476	0.000379
H63	H	-0.051560	0.047949	0.000623
H64	H	-0.495648	0.036172	0.000381
F65	F	-0.993954	0.254263	-0.137002
F66	F	-0.162669	-0.399694	0.000498
F67	F	-0.638839	0.061056	0.000286
H68	H	-0.992131	0.271453	0.102422
