data_functionalizedCrystal
_audit_creation_method	'MofGen! by Chris Wilmer'
_symmetry_space_group_name_H-M	'P1'
_symmetry_Int_Tables_number	1
_symmetry_cell_setting	triclinic
loop_
_symmetry_equiv_pos_as_xyz
  x,y,z
_cell_length_a	6.817900
_cell_length_b	7.190334
_cell_length_c	16.418049
_cell_angle_alpha	89.291947
_cell_angle_beta	103.389670
_cell_angle_gamma	60.611776
loop_
_atom_site_label
_atom_site_type_symbol
_atom_site_fract_x
_atom_site_fract_y
_atom_site_fract_z
V1	V	-4.222718	0.665743	-0.114549
O2	O	-4.206744	0.652297	0.006879
O3	O	-4.172661	0.661933	-0.228453
O4	O	-4.259887	0.955758	-0.112183
O5	O	-4.118914	0.356439	-0.110195
V6	V	-4.695473	0.628657	-0.100096
O7	O	-4.507597	0.747093	-0.146252
O8	O	-4.860791	0.547307	-0.068392
O9	O	-4.522323	0.632467	0.013808
O10	O	-4.828843	0.642103	-0.221524
O11	O	-4.916673	0.937962	-0.104449
O12	O	-4.435097	0.338643	-0.102461
C13	C	-4.014490	0.651623	-0.256239
C14	C	-4.055420	0.650441	-0.349353
C15	C	-4.334809	0.658430	-0.567827
C16	C	-4.373261	0.657338	-0.655318
C17	C	-4.002743	0.635984	-0.646817
C18	C	-3.964302	0.637091	-0.559328
C19	C	-4.130337	0.648304	-0.519835
C20	C	-4.207230	0.646105	-0.694815
C21	C	-4.248920	0.644921	-0.789677
C22	C	-4.088647	0.649492	-0.424967
C23	C	-4.125766	1.026422	-0.107922
C24	C	-4.239526	1.267971	-0.106718
C25	C	-4.343834	0.642772	0.041590
C26	C	-4.282147	0.643968	0.134704
H27	H	-3.867567	0.626851	-0.678983
H28	H	-4.539762	0.665588	-0.694390
H29	H	-4.470007	0.667557	-0.535674
H30	H	-3.797792	0.628853	-0.520252
