data_functionalizedCrystal
_audit_creation_method	'MofGen! by Chris Wilmer'
_symmetry_space_group_name_H-M	'P1'
_symmetry_Int_Tables_number	1
_symmetry_cell_setting	triclinic
loop_
_symmetry_equiv_pos_as_xyz
  x,y,z
_cell_length_a	10.654550
_cell_length_b	17.038272
_cell_length_c	9.130313
_cell_angle_alpha	89.995195
_cell_angle_beta	89.999724
_cell_angle_gamma	87.798243
loop_
_atom_site_label
_atom_site_type_symbol
_atom_site_fract_x
_atom_site_fract_y
_atom_site_fract_z
O1	O	1.678042	0.109878	-0.121691
O2	O	1.313536	0.120346	-0.121718
O3	O	1.493623	0.001285	-0.121693
O4	O	1.497955	0.228940	-0.121716
O5	O	1.493609	0.001281	0.121906
O6	O	1.313522	0.120343	0.121881
O7	O	1.678029	0.109875	0.121908
Cu8	Cu	1.495774	0.115108	0.144137
Cu9	Cu	1.495790	0.115113	-0.143947
O10	O	1.497942	0.228936	0.121883
C11	C	1.266660	0.119576	0.000078
C12	C	1.127003	0.117276	0.000068
C13	C	1.489675	-0.027867	0.000106
C14	C	1.477918	-0.114726	0.000104
C15	C	1.054026	0.187378	0.000065
C16	C	0.922805	0.185213	0.000091
C17	C	0.937548	0.042838	0.000116
C18	C	1.068767	0.045004	0.000101
C19	C	1.585862	-0.164237	0.000114
C20	C	1.574808	-0.245849	0.000099
C21	C	1.455808	-0.277949	0.000085
C22	C	1.347855	-0.228431	0.000072
C23	C	1.358911	-0.146820	0.000076
C24	C	1.416750	-0.523925	0.000063
C25	C	1.405702	-0.605542	0.000063
C26	C	1.632655	-0.622955	0.000088
C27	C	1.643701	-0.541341	0.000101
C28	C	1.535748	-0.491831	0.000079
C29	C	1.444505	-0.361369	0.000075
C30	C	1.547052	-0.408412	0.000079
C31	C	1.724905	0.110645	0.000108
C32	C	1.864561	0.112945	0.000109
C33	C	1.501889	0.258088	0.000081
C34	C	1.513646	0.344947	0.000072
N35	N	1.495772	0.115105	0.346759
N36	N	1.495802	0.115110	-0.346570
C37	C	1.575545	0.062407	0.423422
C38	C	1.575557	0.062407	0.576759
C39	C	1.416019	0.167810	0.576757
C40	C	1.416002	0.167806	0.423423
H41	H	1.101438	0.246227	0.000049
C42	C	0.842536	0.262324	0.000077
H43	H	0.896017	0.305674	0.000044
H44	H	0.791047	0.264444	0.085031
H45	H	0.791035	0.264435	-0.084877
C46	C	0.873484	-0.036655	0.000133
H47	H	0.784882	-0.027907	0.000126
H48	H	0.898021	-0.065553	0.085081
H49	H	0.898014	-0.065546	-0.084826
H50	H	1.351035	0.210719	0.360999
C51	C	1.149046	-0.032112	0.000097
H52	H	1.095572	-0.075465	0.000097
H53	H	1.200550	-0.034225	0.085039
H54	H	1.200532	-0.034222	-0.084868
C55	C	1.716763	-0.128935	0.000129
H56	H	1.779466	-0.170114	0.000119
H57	H	1.725792	-0.097465	0.085078
H58	H	1.725797	-0.097457	-0.084829
H59	H	1.740603	-0.515213	0.000112
C60	C	1.663286	0.004440	0.339090
H61	H	1.651864	0.011990	0.236789
H62	H	1.644079	-0.047852	0.364232
H63	H	1.748057	0.013434	0.364211
H64	H	1.328847	-0.483623	0.000045
C65	C	1.693547	-0.300308	0.000125
H66	H	1.766001	-0.269503	0.000155
H67	H	1.693969	-0.332504	-0.084823
H68	H	1.693936	-0.332509	0.085084
H69	H	1.720544	-0.663274	0.000102
C70	C	1.274797	-0.640850	0.000023
H71	H	1.212087	-0.599675	-0.000008
H72	H	1.265749	-0.672330	0.084965
H73	H	1.265793	-0.672319	-0.084942
C74	C	1.216958	-0.263739	0.000061
H75	H	1.225832	-0.319434	0.000076
H76	H	1.172147	-0.246783	-0.084889
H77	H	1.172146	-0.246788	0.085018
H78	H	1.640514	0.019495	0.639174
H79	H	1.643941	-0.382273	0.000058
C80	C	1.240177	-0.092355	0.000065
H81	H	1.263803	-0.039153	0.000054
H82	H	1.191729	-0.102153	0.085005
H83	H	1.191753	-0.102149	-0.084902
H84	H	1.347615	-0.387514	0.000067
C85	C	1.328247	0.225760	0.661084
H86	H	1.280714	0.257133	0.593461
H87	H	1.376893	0.258600	0.720906
H88	H	1.272953	0.197289	0.720892
