data_functionalizedCrystal
_audit_creation_method	'MofGen! by Chris Wilmer'
_symmetry_space_group_name_H-M	'P1'
_symmetry_Int_Tables_number	1
_symmetry_cell_setting	triclinic
loop_
_symmetry_equiv_pos_as_xyz
  x,y,z
_cell_length_a	14.853576
_cell_length_b	9.065218
_cell_length_c	8.140239
_cell_angle_alpha	90.002802
_cell_angle_beta	89.997539
_cell_angle_gamma	95.672816
loop_
_atom_site_label
_atom_site_type_symbol
_atom_site_fract_x
_atom_site_fract_y
_atom_site_fract_z
O1	O	0.132190	-1.957785	-0.136613
O2	O	0.143033	-1.528285	-0.136615
O3	O	0.006468	-1.754501	-0.136608
O4	O	0.268756	-1.731569	-0.136621
O5	O	0.006466	-1.754488	0.136619
O6	O	0.143032	-1.528273	0.136612
O7	O	0.132189	-1.957772	0.136614
Zn8	Zn	0.137610	-1.743021	0.179993
Zn9	Zn	0.137612	-1.743037	-0.179995
O10	O	0.268755	-1.731557	0.136606
C11	C	0.141991	-1.473313	-0.000002
C12	C	0.138875	-1.309532	-0.000003
C13	C	-0.027130	-1.753453	0.000004
C14	C	-0.127236	-1.750333	-0.000002
C15	C	0.133232	-2.012744	-0.000003
C16	C	0.136348	-2.176526	-0.000013
C17	C	-0.174261	-1.748871	-0.148945
C18	C	-0.174276	-1.748874	0.148937
C19	C	-0.268332	-1.745950	0.148938
C20	C	-0.315356	-1.744489	-0.000006
C21	C	-0.268326	-1.745951	-0.148950
C22	C	-0.315371	-1.744503	0.297879
C23	C	-0.409432	-1.741580	0.297885
C24	C	-0.456458	-1.740108	0.148939
C25	C	-0.409421	-1.741569	-0.000010
C26	C	-0.456446	-1.740107	-0.148954
C27	C	-0.409410	-1.741557	-0.297905
C28	C	-0.315351	-1.744479	-0.297895
C29	C	-0.550517	-1.737187	0.148929
C30	C	-0.550511	-1.737187	-0.148958
C31	C	0.302352	-1.732604	-0.000009
C32	C	0.402458	-1.735725	-0.000014
N33	N	0.137608	-1.743020	0.425676
N34	N	0.137607	-1.743049	-0.425678
H35	H	-0.588791	-1.735986	-0.270248
H36	H	-0.447721	-1.740399	0.419170
H37	H	-0.277047	-1.745665	-0.419163
O38	O	-0.596293	-1.735582	0.293495
C39	C	-0.693289	-1.604546	0.466435
C40	C	-0.641508	-1.606194	0.302630
H41	H	-0.729842	-1.499932	0.473889
H42	H	-0.744785	-1.706271	0.473883
H43	H	-0.643512	-1.606176	0.572862
H44	H	-0.691216	-1.604514	0.196109
H45	H	-0.589998	-1.504479	0.295325
O46	O	-0.128462	-1.750095	-0.293524
C47	C	-0.013137	-1.625638	-0.466447
C48	C	-0.064921	-1.624082	-0.302639
H49	H	0.038234	-1.523752	-0.473885
H50	H	0.023564	-1.730100	-0.473918
H51	H	-0.062928	-1.624169	-0.572871
H52	H	-0.015192	-1.625497	-0.196121
H53	H	-0.101636	-1.519628	-0.295311
H54	H	-0.447711	-1.740376	-0.419175
H55	H	-0.135983	-1.750076	0.270200
O56	O	-0.269549	-1.745866	0.442405
C57	C	-0.124652	-1.750449	0.574415
C58	C	-0.176435	-1.748876	0.410616
H59	H	-0.049362	-1.752915	0.548771
H60	H	-0.135677	-1.646694	0.647900
H61	H	-0.150598	-1.853020	0.647851
H62	H	-0.150521	-1.646374	0.337047
H63	H	-0.165409	-1.852700	0.337256
