data_functionalizedCrystal
_audit_creation_method	'MofGen! by Chris Wilmer'
_symmetry_space_group_name_H-M	'P1'
_symmetry_Int_Tables_number	1
_symmetry_cell_setting	triclinic
loop_
_symmetry_equiv_pos_as_xyz
  x,y,z
_cell_length_a	15.995350
_cell_length_b	14.519709
_cell_length_c	13.596369
_cell_angle_alpha	90.006934
_cell_angle_beta	89.998321
_cell_angle_gamma	96.413740
loop_
_atom_site_label
_atom_site_type_symbol
_atom_site_fract_x
_atom_site_fract_y
_atom_site_fract_z
O1	O	1.111164	-0.118875	-0.081710
O2	O	1.444498	0.214459	0.251623
O3	O	1.777831	0.547792	0.584956
O4	O	0.867411	-0.133554	-0.081731
O5	O	1.200744	0.199779	0.251603
O6	O	1.534078	0.533113	0.584936
O7	O	0.995750	0.008036	-0.081711
O8	O	1.329084	0.341369	0.251622
O9	O	1.662417	0.674703	0.584956
O10	O	0.982825	-0.260464	-0.081730
O11	O	1.316158	0.072869	0.251604
O12	O	1.649492	0.406202	0.584937
O13	O	0.995738	0.008043	0.081872
O14	O	1.329071	0.341377	0.415205
O15	O	1.662404	0.674710	0.748539
O16	O	0.867398	-0.133546	0.081852
O17	O	1.200732	0.199787	0.415186
O18	O	1.534065	0.533120	0.748519
O19	O	1.111152	-0.118867	0.081873
O20	O	1.444485	0.214466	0.415206
O21	O	1.777818	0.547799	0.748539
Zn22	Zn	0.989273	-0.126206	0.107835
Zn23	Zn	1.322606	0.207128	0.441168
Zn24	Zn	1.655940	0.540461	0.774501
Zn25	Zn	0.989290	-0.126215	-0.107693
Zn26	Zn	1.322623	0.207118	0.225641
Zn27	Zn	1.655956	0.540451	0.558974
O28	O	0.982812	-0.260457	0.081853
O29	O	1.316145	0.072876	0.415186
O30	O	1.649479	0.406210	0.748520
C31	C	0.995142	0.042398	0.000081
C32	C	1.328475	0.375732	0.333414
C33	C	1.661808	0.709065	0.666747
C34	C	0.993337	0.144776	0.000081
C35	C	1.326670	0.478110	0.333414
C36	C	1.660003	0.811443	0.666748
C37	C	0.836209	-0.132943	0.000058
C38	C	1.169542	0.200390	0.333392
C39	C	1.502876	0.533723	0.666725
C40	C	0.743256	-0.131124	0.000051
C41	C	1.076589	0.202209	0.333384
C42	C	1.409923	0.535543	0.666717
C43	C	0.405499	-0.124590	0.000072
C44	C	0.738832	0.208743	0.333405
C45	C	1.072165	0.542077	0.666738
C46	C	0.452782	-0.023752	0.000444
C47	C	0.786115	0.309581	0.333777
C48	C	1.119448	0.642914	0.667110
C49	C	0.549475	-0.025572	0.000068
C50	C	0.882808	0.307761	0.333401
C51	C	1.216141	0.641094	0.666735
C52	C	0.573064	-0.127831	0.000062
C53	C	0.906397	0.205502	0.333395
C54	C	1.239731	0.538836	0.666728
C55	C	0.532059	-0.177572	-0.093352
C56	C	0.865392	0.155761	0.239982
C57	C	1.198725	0.489095	0.573315
C58	C	0.435419	-0.175039	-0.093423
C59	C	0.768752	0.158295	0.239911
C60	C	1.102086	0.491628	0.573244
C61	C	0.435069	-0.177114	0.092601
C62	C	0.768402	0.156220	0.425935
C63	C	1.101735	0.489553	0.759268
C64	C	0.532014	-0.177090	0.093829
C65	C	0.865347	0.156244	0.427162
C66	C	1.198681	0.489577	0.760496
C67	C	0.667764	-0.129668	0.000053
C68	C	1.001098	0.203665	0.333386
C69	C	1.334431	0.536999	0.666720
C70	C	0.310798	-0.122756	0.000074
C71	C	0.644131	0.210577	0.333407
C72	C	0.977465	0.543911	0.666741
C73	C	1.142354	-0.119478	0.000082
C74	C	1.475687	0.213856	0.333415
C75	C	1.809020	0.547189	0.666748
C76	C	1.235307	-0.121297	0.000083
C77	C	1.568640	0.212036	0.333416
C78	C	1.901973	0.545370	0.666749
C79	C	0.983421	-0.294819	0.000059
C80	C	1.316754	0.038514	0.333393
C81	C	1.650088	0.371847	0.666726
C82	C	0.985226	-0.397197	0.000052
C83	C	1.318559	-0.063864	0.333386
C84	C	1.651893	0.269469	0.666719
N85	N	0.989267	-0.126198	0.254927
N86	N	1.322601	0.207135	0.588260
N87	N	1.655934	0.540468	0.921593
C88	C	0.986691	0.519660	0.000055
C89	C	1.320024	0.852993	0.333388
C90	C	1.653358	1.186327	0.666721
C91	C	0.988537	0.415355	0.000062
C92	C	1.321870	0.748689	0.333396
C93	C	1.655203	1.082022	0.666729
C94	C	0.990014	0.332221	0.000069
C95	C	1.323347	0.665555	0.333402
C96	C	1.656680	0.998888	0.666735
C97	C	0.991859	0.227910	0.000075
C98	C	1.325193	0.561244	0.333408
C99	C	1.658526	0.894577	0.666741
N100	N	0.989302	-0.126215	-0.254785
N101	N	1.322635	0.207118	0.078549
N102	N	1.655968	0.540451	0.411882
C103	C	0.989289	-0.126216	0.656218
C104	C	1.322622	0.207117	0.989551
C105	C	1.655955	0.540450	1.322884
C106	C	0.989280	-0.126215	0.544566
C107	C	1.322614	0.207119	0.877900
C108	C	1.655947	0.540452	1.211233
C109	C	0.989278	-0.126208	0.455576
C110	C	1.322612	0.207125	0.788909
C111	C	1.655945	0.540459	1.122242
C112	C	0.989269	-0.126205	0.343917
C113	C	1.322603	0.207129	0.677251
C114	C	1.655936	0.540462	1.010584
H115	H	0.577840	0.013526	0.067031
H116	H	0.911173	0.346860	0.400364
H117	H	1.244506	0.680193	0.733698
H118	H	0.414478	-0.144144	0.163406
H119	H	0.747812	0.189189	0.496740
H120	H	1.081145	0.522522	0.830073
H121	H	0.403282	-0.249072	-0.097666
H122	H	0.736615	0.084261	0.235667
H123	H	1.069948	0.417594	0.569000
H124	H	0.434194	0.016558	0.067434
H125	H	0.767527	0.349891	0.400768
H126	H	1.100861	0.683225	0.734101
H127	H	0.403419	-0.251460	0.093229
H128	H	0.736752	0.081873	0.426562
H129	H	1.070085	0.415206	0.759895
H130	H	0.547490	-0.251660	0.099467
H131	H	0.880824	0.081674	0.432800
H132	H	1.214157	0.415007	0.766134
H133	H	0.560387	-0.143030	-0.162867
H134	H	0.893720	0.190303	0.170466
H135	H	1.227053	0.523636	0.503799
H136	H	0.559271	-0.140779	0.162936
H137	H	0.892604	0.192554	0.496269
H138	H	1.225938	0.525888	0.829603
H139	H	0.577279	0.013785	-0.067006
H140	H	0.910612	0.347118	0.266327
H141	H	1.243946	0.680451	0.599661
H142	H	0.433133	0.016366	-0.066172
H143	H	0.766466	0.349700	0.267161
H144	H	1.099800	0.683033	0.600495
H145	H	0.417062	-0.138772	-0.163247
H146	H	0.750395	0.194562	0.170086
H147	H	1.083729	0.527895	0.503419
H148	H	0.546296	-0.252699	-0.096830
H149	H	0.879630	0.080634	0.236504
H150	H	1.212963	0.413968	0.569837
