data_functionalizedCrystal
_audit_creation_method	'MofGen! by Chris Wilmer'
_symmetry_space_group_name_H-M	'P1'
_symmetry_Int_Tables_number	1
_symmetry_cell_setting	triclinic
loop_
_symmetry_equiv_pos_as_xyz
  x,y,z
_cell_length_a	11.169417
_cell_length_b	16.959454
_cell_length_c	11.169409
_cell_angle_alpha	89.967114
_cell_angle_beta	89.979436
_cell_angle_gamma	90.020954
loop_
_atom_site_label
_atom_site_type_symbol
_atom_site_fract_x
_atom_site_fract_y
_atom_site_fract_z
Zn1	Zn	1.834890	-0.314599	-0.678538
Zn2	Zn	2.334890	0.185401	-0.178538
Zn3	Zn	1.834743	-0.446806	-0.477852
Zn4	Zn	2.334743	0.053194	0.022148
Zn5	Zn	1.634173	-0.314648	-0.477872
Zn6	Zn	2.134173	0.185352	0.022128
Zn7	Zn	1.634149	-0.446742	-0.678497
Zn8	Zn	2.134149	0.053258	-0.178497
O9	O	1.734489	-0.380699	-0.578190
O10	O	2.234489	0.119301	-0.078190
O11	O	2.002820	-0.332144	-0.651925
O12	O	2.502820	0.167856	-0.151925
O13	O	1.808085	-0.429322	-0.309905
O14	O	2.308085	0.070678	0.190095
O15	O	1.660870	-0.204030	-0.504516
O16	O	2.160870	0.295970	-0.004516
O17	O	2.002712	-0.429275	-0.504482
O18	O	2.502712	0.070725	-0.004482
O19	O	1.808336	-0.203995	-0.651944
O20	O	2.308336	0.296005	-0.151944
O21	O	1.660728	-0.332226	-0.309920
O22	O	2.160728	0.167774	0.190080
O23	O	1.466220	-0.332163	-0.504477
O24	O	1.966220	0.167837	-0.004477
O25	O	1.660829	-0.429166	-0.846452
O26	O	2.160829	0.070834	-0.346452
O27	O	1.466203	-0.429213	-0.651875
O28	O	1.966203	0.070787	-0.151875
O29	O	1.808313	-0.332081	-0.846482
O30	O	2.308313	0.167919	-0.346482
O31	O	1.808062	-0.557408	-0.504443
O32	O	2.308062	-0.057408	-0.004443
O33	O	1.660687	-0.557361	-0.651856
O34	O	2.160687	-0.057361	-0.151856
C35	C	1.422664	-0.380687	-0.578174
C36	C	1.922664	0.119313	-0.078174
C37	C	1.289264	-0.380701	-0.578196
C38	C	1.789264	0.119299	-0.078196
C39	C	1.734388	-0.586065	-0.578169
C40	C	2.234388	-0.086065	-0.078169
C41	C	1.734455	-0.673922	-0.578201
C42	C	2.234455	-0.173922	-0.078201
C43	C	1.657862	-1.045403	-0.654940
C44	C	2.157862	-0.545403	-0.154940
C45	C	1.811450	-1.045392	-0.501562
C46	C	2.311450	-0.545392	-0.001562
C47	C	1.811408	-0.962846	-0.501551
C48	C	2.311408	-0.462846	-0.001551
C49	C	1.734591	-0.921575	-0.578234
C50	C	2.234591	-0.421575	-0.078234
C51	C	1.657815	-0.962849	-0.654928
C52	C	2.157815	-0.462849	-0.154928
C53	C	1.888173	-0.921565	-0.424850
C54	C	2.388173	-0.421565	0.075150
C55	C	1.888134	-0.839014	-0.424835
C56	C	2.388134	-0.339014	0.075165
C57	C	1.811321	-0.797741	-0.501525
C58	C	2.311321	-0.297741	-0.001525
C59	C	1.734544	-0.839021	-0.578223
C60	C	2.234544	-0.339021	-0.078223
C61	C	1.657726	-0.797750	-0.654906
C62	C	2.157726	-0.297750	-0.154906
C63	C	1.580954	-0.839028	-0.731611
C64	C	2.080954	-0.339028	-0.231611
C65	C	1.581003	-0.921576	-0.731618
C66	C	2.081003	-0.421576	-0.231618
C67	C	1.811272	-0.715193	-0.501518
C68	C	2.311272	-0.215193	-0.001518
C69	C	1.657679	-0.715196	-0.654895
C70	C	2.157679	-0.215196	-0.154895
C71	C	2.047531	-0.380711	-0.578206
C72	C	2.547531	0.119289	-0.078206
C73	C	2.180931	-0.380717	-0.578213
C74	C	2.680931	0.119283	-0.078213
C75	C	1.734585	-0.380611	-0.891232
C76	C	2.234585	0.119389	-0.391232
C77	C	1.734626	-0.380574	-1.024633
C78	C	2.234626	0.119426	-0.524633
C79	C	1.734622	-0.174531	-0.578237
C80	C	2.234622	0.325469	-0.078237
C81	C	1.734679	-0.086674	-0.578257
C82	C	2.234679	0.413326	-0.078257
C83	C	1.734462	-0.380729	-0.266365
C84	C	2.234462	0.119271	0.233635
C85	C	1.734653	-0.380544	-0.132966
C86	C	2.234653	0.119456	0.367034
H87	H	1.595129	-0.681598	-0.717344
H88	H	2.095129	-0.181598	-0.217344
Cl89	Cl	1.908016	-1.097276	-0.405167
Cl90	Cl	2.408016	-0.597276	0.094833
Cl91	Cl	1.984656	-0.787129	-0.328419
Cl92	Cl	2.484656	-0.287129	0.171581
H93	H	1.518403	-0.805415	-0.794042
H94	H	2.018403	-0.305415	-0.294042
Cl95	Cl	1.484496	-0.973473	-0.828035
Cl96	Cl	1.984496	-0.473473	-0.328035
H97	H	1.950705	-0.955174	-0.362410
H98	H	2.450705	-0.455174	0.137590
Cl99	Cl	1.561358	-1.097292	-0.751369
Cl100	Cl	2.061358	-0.597292	-0.251369
Cl101	Cl	1.907765	-0.663304	-0.405084
Cl102	Cl	2.407765	-0.163304	0.094916
