data_functionalizedCrystal
_audit_creation_method	'MofGen! by Chris Wilmer'
_symmetry_space_group_name_H-M	'P1'
_symmetry_Int_Tables_number	1
_symmetry_cell_setting	triclinic
loop_
_symmetry_equiv_pos_as_xyz
  x,y,z
_cell_length_a	23.532407
_cell_length_b	22.610064
_cell_length_c	23.532407
_cell_angle_alpha	90.000603
_cell_angle_beta	82.848678
_cell_angle_gamma	90.002839
loop_
_atom_site_label
_atom_site_type_symbol
_atom_site_fract_x
_atom_site_fract_y
_atom_site_fract_z
O1	O	0.755263	0.049117	0.069127
O2	O	0.589400	0.049135	0.079130
O3	O	0.677333	0.049114	-0.008803
O4	O	0.667330	0.049137	0.157060
O5	O	0.677318	-0.049255	-0.008790
O6	O	0.589385	-0.049234	0.079143
O7	O	0.755248	-0.049252	0.069140
Zn8	Zn	0.672314	-0.064862	0.074144
Zn9	Zn	0.672334	0.064744	0.074127
O10	O	0.667315	-0.049232	0.157073
C11	C	0.568176	-0.000048	0.078882
C12	C	0.504959	-0.000041	0.078116
N13	N	0.672304	-0.153314	0.074155
C14	C	0.105856	-0.000061	0.125350
C15	C	0.046456	-0.000065	0.124638
O16	O	0.009711	-0.000081	0.168424
N17	N	0.023830	-0.000071	0.072362
C18	C	0.060607	-0.000080	0.020794
O19	O	0.035908	-0.000086	-0.023737
C20	C	0.120006	-0.000080	0.021506
C21	C	0.142629	-0.000068	0.073785
C22	C	0.128479	-0.000050	0.177625
C23	C	0.187876	-0.000045	0.178336
C24	C	0.224649	-0.000052	0.126772
C25	C	0.202025	-0.000063	0.074497
C26	C	0.156783	-0.000093	-0.030062
C27	C	0.216185	-0.000094	-0.029345
C28	C	0.238808	-0.000082	0.022934
C29	C	0.298194	-0.000065	0.023643
N30	N	0.320820	-0.000059	0.075920
C31	C	0.284048	-0.000052	0.127484
C32	C	-0.064135	-0.000080	0.019302
C33	C	-0.123533	-0.000075	0.018589
C34	C	-0.137680	-0.000061	0.122434
C35	C	-0.078281	-0.000062	0.123146
C36	C	-0.041509	-0.000074	0.071578
C37	C	0.408784	-0.000042	0.128974
C38	C	0.468186	-0.000034	0.129680
C39	C	0.482329	-0.000051	0.025836
C40	C	0.422932	-0.000055	0.025129
C41	C	0.386160	-0.000052	0.076702
O42	O	0.334974	-0.000052	-0.020119
O43	O	0.308755	-0.000054	0.172007
C44	C	0.711273	-0.561965	0.035196
C45	C	0.711276	-0.623884	0.035192
O46	O	0.744384	-0.655911	0.002076
N47	N	0.672334	-0.654851	0.074115
C48	C	0.633383	-0.623895	0.113041
O49	O	0.600259	-0.655920	0.146147
C50	C	0.633377	-0.561976	0.113042
C51	C	0.672326	-0.531013	0.074120
C52	C	0.750218	-0.531001	-0.003724
C53	C	0.750215	-0.469085	-0.003719
C54	C	0.711268	-0.438133	0.035206
C55	C	0.672323	-0.469097	0.074125
C56	C	0.594424	-0.531021	0.151965
C57	C	0.594422	-0.469098	0.151962
C58	C	0.633370	-0.438134	0.113040
C59	C	0.633374	-0.376229	0.113054
N60	N	0.672316	-0.345262	0.074131
C61	C	0.711263	-0.376214	0.035207
C62	C	0.633396	-0.753928	0.113035
C63	C	0.633403	-0.815846	0.113037
C64	C	0.711296	-0.815831	0.035187
C65	C	0.711291	-0.753913	0.035188
C66	C	0.672338	-0.722962	0.074112
C67	C	0.711255	-0.246187	0.035220
C68	C	0.711251	-0.184266	0.035230
C69	C	0.633357	-0.184286	0.113078
C70	C	0.633363	-0.246202	0.113071
C71	C	0.672314	-0.277151	0.074137
O72	O	0.600281	-0.344163	0.146152
O73	O	0.744376	-0.344182	0.002101
C74	C	0.776472	-0.000069	0.069388
C75	C	0.839689	-0.000071	0.070154
C76	C	0.677071	-0.000072	-0.030013
C77	C	0.676305	-0.000076	-0.093230
N78	N	0.672349	0.153196	0.074111
C79	C	0.723539	-0.000049	-0.492333
C80	C	0.722827	-0.000044	-0.551733
O81	O	0.766613	-0.000027	-0.588478
N82	N	0.670551	-0.000039	-0.574359
C83	C	0.618983	-0.000032	-0.537582
O84	O	0.574452	-0.000027	-0.562281
C85	C	0.619695	-0.000033	-0.478182
C86	C	0.671974	-0.000044	-0.455560
C87	C	0.775814	-0.000060	-0.469710
C88	C	0.776525	-0.000065	-0.410313
C89	C	0.724961	-0.000060	-0.373540
C90	C	0.672685	-0.000050	-0.396164
C91	C	0.568127	-0.000022	-0.441406
C92	C	0.568844	-0.000021	-0.382004
C93	C	0.621123	-0.000033	-0.359381
C94	C	0.621832	-0.000050	-0.299995
N95	N	0.674109	-0.000056	-0.277368
C96	C	0.725673	-0.000061	-0.314141
C97	C	0.617491	-0.000031	-0.662324
C98	C	0.616778	-0.000034	-0.721722
C99	C	0.720623	-0.000045	-0.735869
C100	C	0.721335	-0.000046	-0.676470
C101	C	0.669767	-0.000036	-0.639698
C102	C	0.727163	-0.000073	-0.189405
C103	C	0.727869	-0.000081	-0.130003
C104	C	0.624025	-0.000067	-0.115860
C105	C	0.623318	-0.000062	-0.175257
C106	C	0.674891	-0.000063	-0.212029
O107	O	0.578070	-0.000065	-0.263215
O108	O	0.770196	-0.000058	-0.289433
C109	C	0.667577	-0.000045	0.178283
C110	C	0.668343	-0.000036	0.241500
H111	H	0.486602	-0.000024	0.172255
O112	O	0.251882	0.000003	-0.079455
C113	C	0.241660	0.050935	-0.111229
H114	H	0.221192	0.086547	-0.081049
H115	H	0.283931	0.068035	-0.134317
H116	H	0.211590	0.039408	-0.144013
H117	H	0.742969	-0.159057	0.003535
O118	O	0.517974	-0.000031	-0.024304
C119	C	0.485275	-0.000057	-0.070602
H120	H	0.440858	0.018568	-0.055898
H121	H	0.507391	0.028496	-0.106713
H122	H	0.481134	-0.047253	-0.086634
H123	H	0.562700	-0.443901	0.183658
H124	H	0.742973	-0.271379	0.003516
H125	H	0.781929	-0.443878	-0.035414
O126	O	0.770662	-0.000017	-0.771678
C127	C	0.758817	-0.000025	-0.828954
H128	H	0.714098	0.018599	-0.830978
H129	H	0.791705	0.028537	-0.856049
H130	H	0.761072	-0.047216	-0.846150
O131	O	0.209752	-0.000067	0.229171
C132	C	0.164549	-0.000049	0.274524
H133	H	0.124283	-0.018672	0.258788
H134	H	0.176754	-0.028607	0.311047
H135	H	0.156057	0.047145	0.290410
O136	O	0.788111	-0.560970	-0.041558
C137	C	0.822467	-0.520351	-0.075913
H138	H	0.822962	-0.476216	-0.052560
H139	H	0.868002	-0.538225	-0.084831
H140	H	0.804220	-0.513768	-0.118129
O141	O	0.595474	-0.276192	0.150900
C142	C	0.561109	-0.235592	0.185266
H143	H	0.560606	-0.191450	0.161926
H144	H	0.515577	-0.253480	0.194176
H145	H	0.579353	-0.229015	0.227485
O146	O	0.595602	-0.154147	0.150909
C147	C	0.625895	-0.118337	0.185901
H148	H	0.670590	-0.109062	0.162998
H149	H	0.602074	-0.074795	0.195024
H150	H	0.629516	-0.142195	0.227978
O151	O	0.772169	-0.000024	-0.654592
C152	C	0.817524	-0.000045	-0.699793
H153	H	0.801793	0.018577	-0.740059
H154	H	0.854049	0.028512	-0.687586
H155	H	0.833407	-0.047240	-0.708284
H156	H	0.575496	-0.000028	-0.632386
O157	O	0.373151	-0.000009	0.179124
C158	C	0.405867	-0.000011	0.225410
H159	H	0.450282	0.018610	0.210684
H160	H	0.383764	0.028557	0.261514
H161	H	0.410009	-0.047199	0.241460
O162	O	0.749143	-0.723929	-0.002678
C163	C	0.783528	-0.764533	-0.037019
H164	H	0.760185	-0.808673	-0.037540
H165	H	0.792476	-0.746648	-0.082548
H166	H	0.825728	-0.771112	-0.018740
O167	O	0.400887	-0.000141	-0.025619
C168	C	0.366968	-0.051102	-0.029139
H169	H	0.351925	-0.068081	0.015836
H170	H	0.328194	-0.039655	-0.051619
H171	H	0.393357	-0.086776	-0.054480
H172	H	0.743008	-0.841044	0.003492
O173	O	0.825946	0.000012	-0.505367
C174	C	0.857709	0.050960	-0.495162
H175	H	0.843456	0.067950	-0.450026
H176	H	0.905229	0.039491	-0.499590
H177	H	0.850128	0.086634	-0.527617
H178	H	0.138375	-0.000103	-0.072634
O179	O	0.777298	0.000002	-0.225061
C180	C	0.809061	0.050949	-0.214853
H181	H	0.794811	0.067934	-0.169715
H182	H	0.856581	0.039481	-0.219285
H183	H	0.801477	0.086626	-0.247304
H184	H	0.580748	-0.000069	-0.193677
H185	H	0.601694	-0.841052	0.144737
O186	O	0.595538	-0.723957	0.150910
C187	C	0.561164	-0.764572	0.185251
H188	H	0.584516	-0.808705	0.185768
H189	H	0.552216	-0.746690	0.230781
H190	H	0.518964	-0.771164	0.166975
O191	O	0.556533	-0.560997	0.189795
C192	C	0.522169	-0.520389	0.224152
H193	H	0.521666	-0.476253	0.200800
H194	H	0.476638	-0.538276	0.233069
H195	H	0.540415	-0.513800	0.266369
H196	H	0.770443	-0.000092	-0.111587
H197	H	-0.141947	-0.000076	-0.023982
H198	H	0.819097	-0.000072	-0.391900
H199	H	0.574207	-0.000035	-0.740136
O200	O	0.092706	0.000039	0.227682
C201	C	0.057942	0.050997	0.230379
H202	H	0.055177	0.067970	0.185191
H203	H	0.013180	0.039548	0.251867
H204	H	0.077355	0.086677	0.256261
H205	H	0.525555	-0.000009	-0.459814
O206	O	0.518696	-0.000038	-0.346365
C207	C	0.472406	-0.000012	-0.379075
H208	H	0.487119	-0.018635	-0.423491
H209	H	0.436290	-0.028565	-0.356968
H210	H	0.456378	0.047185	-0.383216
O211	O	-0.056403	-0.000080	0.173980
C212	C	-0.101604	-0.000057	0.219335
H213	H	-0.141871	-0.018680	0.203604
H214	H	-0.089398	-0.028611	0.255861
H215	H	-0.110093	0.047139	0.235217
O216	O	0.573953	0.000044	-0.080109
C217	C	0.571284	0.050983	-0.045318
H218	H	0.600540	0.086585	-0.067238
H219	H	0.525376	0.068095	-0.038379
H220	H	0.585778	0.039461	-0.002205
O221	O	-0.028497	-0.000055	-0.030847
C222	C	-0.061211	-0.000074	-0.077135
H223	H	-0.105625	0.018548	-0.062415
H224	H	-0.039105	0.028483	-0.113247
H225	H	-0.065356	-0.047268	-0.093171
H226	H	-0.167632	-0.000059	0.164421
