data_functionalizedCrystal
_audit_creation_method	'MofGen! by Chris Wilmer'
_symmetry_space_group_name_H-M	'P1'
_symmetry_Int_Tables_number	1
_symmetry_cell_setting	triclinic
loop_
_symmetry_equiv_pos_as_xyz
  x,y,z
_cell_length_a	19.288840
_cell_length_b	11.792254
_cell_length_c	18.366186
_cell_angle_alpha	89.993617
_cell_angle_beta	89.983729
_cell_angle_gamma	83.662307
loop_
_atom_site_label
_atom_site_type_symbol
_atom_site_fract_x
_atom_site_fract_y
_atom_site_fract_z
O1	O	0.922171	0.141446	-0.060672
O2	O	0.720017	0.160575	-0.060647
O3	O	0.825995	-0.014234	-0.060655
O4	O	0.816193	0.316255	-0.060664
O5	O	0.825977	-0.014243	0.060445
O6	O	0.719999	0.160566	0.060453
O7	O	0.922153	0.141437	0.060428
Zn8	Zn	0.821073	0.151000	0.079667
Zn9	Zn	0.821097	0.151012	-0.079886
O10	O	0.816175	0.316246	0.060436
C11	C	0.694128	0.159960	-0.000094
C12	C	0.617013	0.158126	-0.000084
C13	C	0.580814	0.157250	-0.066097
C14	C	0.508358	0.155515	-0.066106
C15	C	0.472104	0.154633	-0.000098
C16	C	0.508311	0.155515	0.065924
C17	C	0.580765	0.157262	0.065931
C18	C	0.362373	0.085385	0.050465
C19	C	0.289921	0.083631	0.050456
C20	C	0.248630	0.149250	-0.000117
C21	C	0.279801	0.216608	-0.050691
C22	C	0.352256	0.218355	-0.050684
C23	C	0.393539	0.152739	-0.000098
C24	C	0.133865	0.146494	-0.066144
C25	C	0.061406	0.144766	-0.066150
C26	C	0.061362	0.144755	0.065882
C27	C	0.133818	0.146495	0.065886
C28	C	0.170066	0.147359	-0.000129
C29	C	0.825369	-0.056520	-0.000105
C30	C	0.823521	-0.182505	-0.000105
C31	C	0.822019	-0.284818	-0.000108
C32	C	0.820141	-0.413176	-0.000114
C33	C	0.948042	0.142052	-0.000127
C34	C	1.025157	0.143886	-0.000141
C35	C	0.816802	0.358532	-0.000115
C36	C	0.818650	0.484517	-0.000120
N37	N	0.821062	0.150992	0.188559
N38	N	0.821114	0.151011	-0.188777
C39	C	0.868005	0.073624	0.226655
C40	C	0.868009	0.073619	0.302883
C41	C	0.821077	0.151001	0.341011
C42	C	0.774126	0.228375	0.302905
C43	C	0.774118	0.228370	0.226679
C44	C	0.812370	0.254413	0.461769
C45	C	0.812382	0.254419	0.537994
C46	C	0.821097	0.151015	0.576119
C47	C	0.829815	0.047601	0.538009
C48	C	0.829807	0.047596	0.461782
C49	C	0.821080	0.151014	0.423666
C50	C	0.868047	0.073636	0.696871
C51	C	0.868047	0.073629	0.773100
C52	C	0.774167	0.228395	0.773120
C53	C	0.774164	0.228391	0.696893
C54	C	0.821108	0.151013	0.658772
H55	H	0.377632	0.273203	-0.091863
H56	H	0.163292	0.147201	0.119641
H57	H	0.395987	0.031947	0.091651
C58	C	0.468431	0.154543	0.138533
N59	N	0.438393	0.153814	0.193224
H60	H	0.735952	0.291396	0.804164
H61	H	0.906237	0.010615	0.333907
C62	C	0.722573	0.313585	0.654984
N63	N	0.683728	0.377782	0.623420
H64	H	0.264547	0.028779	0.091633
H65	H	0.836903	-0.036607	0.430756
C66	C	0.919679	-0.011505	0.815006
N67	N	0.958566	-0.075635	0.846571
C68	C	0.839400	-0.066153	0.579940
N69	N	0.846620	-0.151829	0.611526
H70	H	0.906270	0.010626	0.665832
H71	H	0.610238	0.157977	0.119689
H72	H	0.805288	0.338625	0.569018
C73	C	0.919638	-0.011505	0.184727
N74	N	0.958526	-0.075629	0.153146
C75	C	0.802782	0.368173	0.419840
N76	N	0.795561	0.453854	0.388260
H77	H	0.031934	0.144059	-0.119908
H78	H	0.163378	0.147210	-0.119897
H79	H	0.735912	0.291379	0.333953
H80	H	0.246183	0.270046	-0.091870
H81	H	0.031844	0.144044	0.119627
C82	C	0.468532	0.154543	-0.138728
N83	N	0.438537	0.153808	-0.193428
H84	H	0.610323	0.157954	-0.119851
C85	C	0.722506	0.313533	0.184771
N86	N	0.683642	0.377698	0.153205
