data_functionalizedCrystal
_audit_creation_method	'MofGen! by Chris Wilmer'
_symmetry_space_group_name_H-M	'P1'
_symmetry_Int_Tables_number	1
_symmetry_cell_setting	triclinic
loop_
_symmetry_equiv_pos_as_xyz
  x,y,z
_cell_length_a	10.654549
_cell_length_b	11.026607
_cell_length_c	10.065875
_cell_angle_alpha	79.268236
_cell_angle_beta	98.831836
_cell_angle_gamma	96.535397
loop_
_atom_site_label
_atom_site_type_symbol
_atom_site_fract_x
_atom_site_fract_y
_atom_site_fract_z
O1	O	1.719274	0.153055	0.113457
O2	O	1.357329	0.169323	0.113466
O3	O	1.508303	-0.015716	0.113458
O4	O	1.568300	0.338094	0.113466
O5	O	1.479547	0.019711	-0.113529
O6	O	1.328572	0.204750	-0.113521
O7	O	1.690518	0.188482	-0.113530
Zn8	Zn	1.504979	0.202241	-0.149564
Zn9	Zn	1.542867	0.155564	0.149501
O10	O	1.539543	0.373521	-0.113521
C11	C	1.295893	0.185842	-0.000026
C12	C	1.155675	0.182268	-0.000022
C13	C	0.968078	0.287850	-0.000025
C14	C	1.099831	0.291216	-0.000017
C15	C	1.079760	0.069944	-0.000022
C16	C	0.948011	0.066578	-0.000020
C17	C	1.482857	-0.043307	-0.000034
C18	C	1.449863	-0.178299	-0.000028
C19	C	1.540966	-0.251338	-0.000029
C20	C	1.506868	-0.390860	-0.000023
C21	C	1.751953	0.171962	-0.000035
C22	C	1.892173	0.175536	-0.000029
C23	C	1.564990	0.401111	-0.000026
C24	C	1.597985	0.536102	-0.000023
N25	N	1.479131	0.234096	-0.353668
C26	C	1.533864	0.166640	-0.421450
C27	C	1.513982	0.191166	-0.578617
N28	N	1.568723	0.123699	0.353605
H29	H	0.886207	-0.024888	-0.000019
Cl30	Cl	1.700369	-0.188420	-0.000024
H31	H	1.346623	-0.219061	-0.000017
Cl32	Cl	1.347461	-0.453777	-0.000005
H33	H	1.701246	-0.423160	0.000077
H34	H	1.630300	0.047780	-0.588078
Cl35	Cl	1.195250	0.432417	-0.000007
H36	H	1.125240	-0.018765	-0.000018
H37	H	1.595437	0.090725	-0.363130
Cl38	Cl	1.418895	0.308366	-0.668647
Cl39	Cl	1.384047	0.351292	-0.443704
H40	H	0.922619	0.376570	-0.000031
