data_functionalizedCrystal
_audit_creation_method	'MofGen! by Chris Wilmer'
_symmetry_space_group_name_H-M	'P1'
_symmetry_Int_Tables_number	1
_symmetry_cell_setting	triclinic
loop_
_symmetry_equiv_pos_as_xyz
  x,y,z
_cell_length_a	16.109301
_cell_length_b	19.288865
_cell_length_c	17.766277
_cell_angle_alpha	90.011603
_cell_angle_beta	90.006641
_cell_angle_gamma	83.298864
loop_
_atom_site_label
_atom_site_type_symbol
_atom_site_fract_x
_atom_site_fract_y
_atom_site_fract_z
O1	O	-1.102832	-0.089282	-0.062555
O2	O	-0.860732	-0.100392	-0.062569
O3	O	-0.988778	0.006277	-0.062547
O4	O	-0.974787	-0.195951	-0.062577
O5	O	-0.988755	0.006282	0.062642
O6	O	-0.860710	-0.100387	0.062620
O7	O	-1.102810	-0.089276	0.062633
Cu8	Cu	-0.981758	-0.094831	0.074057
Cu9	Cu	-0.981784	-0.094838	-0.073993
O10	O	-0.974764	-0.195945	0.062611
C11	C	-0.988316	0.032157	0.000050
C12	C	-0.986965	0.109264	0.000056
C13	C	-0.829748	-0.099940	0.000024
C14	C	-0.737457	-0.098590	0.000020
C15	C	-1.133794	-0.089729	0.000039
C16	C	-1.226085	-0.091078	0.000038
C17	C	-0.514979	-0.158748	0.000020
C18	C	-0.428263	-0.157475	0.000025
C19	C	-0.448570	-0.030916	0.000041
C20	C	-0.535284	-0.032190	0.000041
C21	C	-0.568486	-0.096108	0.000027
C22	C	-0.395056	-0.093561	0.000031
C23	C	-0.301034	-0.092180	0.000037
C24	C	-0.662513	-0.097489	0.000023
C25	C	-0.975226	-0.221825	0.000013
C26	C	-0.976577	-0.298932	0.000002
N27	N	-0.981745	-0.094826	0.178188
C28	C	-1.062096	0.153781	0.000064
C29	C	-1.060827	0.226231	0.000052
C30	C	-0.984421	0.254161	0.000047
C31	C	-0.909280	0.209634	0.000036
C32	C	-0.910552	0.137185	0.000040
C33	C	-0.924350	0.362593	0.043895
C34	C	-0.923082	0.435041	0.043895
C35	C	-0.980496	0.477616	0.000030
C36	C	-1.039193	0.447735	-0.043825
C37	C	-1.040465	0.375287	-0.043821
C38	C	-0.983034	0.332718	0.000042
C39	C	-1.054256	0.600692	0.000024
C40	C	-1.052983	0.673143	0.000007
C41	C	-0.901434	0.656544	-0.000002
C42	C	-0.902709	0.584095	0.000008
C43	C	-0.979122	0.556173	0.000024
N44	N	-0.981803	-0.094837	-0.178123
C45	C	-1.038462	-0.047616	0.217584
C46	C	-1.038467	-0.047613	0.296386
C47	C	-0.981763	-0.094832	0.335788
C48	C	-0.925035	-0.142045	0.296382
C49	C	-0.925026	-0.142042	0.217582
C50	C	-0.970632	-0.158093	0.460616
C51	C	-0.970647	-0.158096	0.539415
C52	C	-0.981785	-0.094840	0.578834
C53	C	-0.992926	-0.031577	0.539445
C54	C	-0.992917	-0.031575	0.460645
C55	C	-0.981765	-0.094840	0.421234
C56	C	-1.038510	-0.047623	0.703677
C57	C	-1.038509	-0.047619	0.782480
C58	C	-0.925081	-0.142057	0.782475
C59	C	-0.925078	-0.142055	0.703673
C60	C	-0.981797	-0.094839	0.664279
H61	H	-0.542008	-0.210794	0.000014
H62	H	-0.878865	-0.180490	0.328467
C63	C	-0.858518	0.467906	0.092129
H64	H	-0.865989	0.517151	0.085852
H65	H	-0.803726	0.450006	0.076699
H66	H	-0.866020	0.456844	0.143601
C67	C	-0.369408	-0.226379	0.000011
H68	H	-0.401604	-0.264626	-0.000003
H69	H	-0.335153	-0.228514	0.043667
H70	H	-0.335165	-0.228513	-0.043651
C71	C	-0.412045	0.039388	0.000047
H72	H	-0.352737	0.031177	0.000037
H73	H	-0.430420	0.065186	0.043704
H74	H	-0.430435	0.065173	-0.043613
C75	C	-0.958398	-0.227681	0.582736
H76	H	-0.951750	-0.265354	0.547975
H77	H	-1.005891	-0.231552	0.613463
H78	H	-0.909984	-0.229073	0.613487
H79	H	-0.841529	0.547848	0.000005
C80	C	-1.138302	0.569971	0.000033
H81	H	-1.128300	0.520447	0.000045
H82	H	-1.169235	0.585241	-0.043623
H83	H	-1.169218	0.585266	0.043695
H84	H	-1.001995	0.019932	0.571539
C85	C	-0.862706	-0.193998	0.660331
H86	H	-0.870820	-0.187233	0.607758
H87	H	-0.871566	-0.240355	0.673235
H88	H	-0.807245	-0.186442	0.673254
H89	H	-0.578853	0.018823	0.000049
C90	C	-0.958386	-0.227679	0.417262
H91	H	-0.951766	-0.265355	0.452005
H92	H	-0.909970	-0.229077	0.386529
H93	H	-1.005880	-0.231540	0.386515
H94	H	-0.878840	-0.180487	0.185504
C95	C	-1.146147	0.123070	0.000069
H96	H	-1.190711	0.159963	0.000064
H97	H	-1.149790	0.095159	0.043724
H98	H	-1.149798	0.095147	-0.043594
C99	C	-1.143474	0.275208	0.000066
H100	H	-1.189164	0.248202	0.000081
H101	H	-1.146141	0.303809	-0.043589
H102	H	-1.146110	0.303820	0.043729
H103	H	-1.088256	0.350962	-0.079530
C104	C	-1.102348	0.494557	-0.092084
H105	H	-1.093179	0.541984	-0.085815
H106	H	-1.157562	0.488715	-0.076663
H107	H	-1.095250	0.481866	-0.143551
H108	H	-1.114166	0.709389	0.000010
H109	H	-1.084644	-0.009169	0.185512
C110	C	-1.100888	0.004319	0.660340
H111	H	-1.134660	0.032444	0.695093
H112	H	-1.135399	-0.020674	0.629587
H113	H	-1.071082	0.033242	0.629614
H114	H	-0.839224	0.679284	-0.000009
C115	C	-0.825237	0.240354	0.000033
H116	H	-0.835239	0.289878	0.000040
H117	H	-0.794319	0.225064	-0.043624
H118	H	-0.794306	0.225079	0.043693
C119	C	-1.100896	0.004316	0.825820
H120	H	-1.092772	-0.002440	0.878394
H121	H	-1.156350	-0.003243	0.812897
H122	H	-1.092040	0.050679	0.812916
H123	H	-0.877594	0.327934	0.079619
C124	C	-0.827906	0.088212	0.000033
H125	H	-0.839607	0.041065	0.000033
H126	H	-0.796552	0.096685	0.043683
H127	H	-0.796578	0.096665	-0.043634
C128	C	-1.100859	0.004318	0.339731
H129	H	-1.134639	0.032436	0.304983
H130	H	-1.071070	0.033240	0.370487
H131	H	-1.135373	-0.020688	0.370455
C132	C	-0.862708	-0.193996	0.825808
H133	H	-0.870838	-0.187240	0.878381
H134	H	-0.807250	-0.186439	0.812905
H135	H	-0.871565	-0.240358	0.812880
H136	H	-1.001986	0.019936	0.428578
