data_functionalizedCrystal
_audit_creation_method	'MofGen! by Chris Wilmer'
_symmetry_space_group_name_H-M	'P1'
_symmetry_Int_Tables_number	1
_symmetry_cell_setting	triclinic
loop_
_symmetry_equiv_pos_as_xyz
  x,y,z
_cell_length_a	12.759401
_cell_length_b	13.031981
_cell_length_c	12.759393
_cell_angle_alpha	82.782247
_cell_angle_beta	89.978811
_cell_angle_gamma	97.191589
loop_
_atom_site_label
_atom_site_type_symbol
_atom_site_fract_x
_atom_site_fract_y
_atom_site_fract_z
Zn1	Zn	1.553145	-0.416057	-0.540877
Zn2	Zn	2.053145	0.083943	-0.040877
Zn3	Zn	1.530723	-0.590873	-0.342853
Zn4	Zn	2.030723	-0.090873	0.157147
Zn5	Zn	1.377440	-0.416111	-0.365201
Zn6	Zn	1.877440	0.083889	0.134799
Zn7	Zn	1.355130	-0.590792	-0.518496
Zn8	Zn	1.855130	-0.090792	-0.018496
O9	O	1.454110	-0.503458	-0.441857
O10	O	1.954110	-0.003458	0.058143
O11	O	1.697190	-0.439258	-0.514622
O12	O	2.197190	0.060742	-0.014622
O13	O	1.510343	-0.567747	-0.198789
O14	O	2.010343	-0.067747	0.301211
O15	O	1.419468	-0.269838	-0.407225
O16	O	1.919468	0.230162	0.092775
O17	O	1.680717	-0.567695	-0.369134
O18	O	2.180717	-0.067695	0.130866
O19	O	1.548557	-0.269799	-0.536293
O20	O	2.048557	0.230201	-0.036293
O21	O	1.397727	-0.439350	-0.215208
O22	O	1.897727	0.060650	0.284792
O23	O	1.227461	-0.439272	-0.385523
O24	O	1.727461	0.060728	0.114477
O25	O	1.381444	-0.567557	-0.668493
O26	O	1.881444	-0.067557	-0.168493
O27	O	1.211070	-0.567609	-0.498148
O28	O	1.711070	-0.067609	0.001852
O29	O	1.526924	-0.439180	-0.684937
O30	O	2.026924	0.060820	-0.184937
O31	O	1.488710	-0.737128	-0.347433
O32	O	1.988710	-0.237128	0.152567
O33	O	1.359703	-0.737069	-0.476477
O34	O	1.859703	-0.237069	0.023523
C35	C	1.181145	-0.503438	-0.441832
C36	C	1.681145	-0.003438	0.058168
C37	C	1.064366	-0.503455	-0.441844
C38	C	1.564366	-0.003455	0.058156
C39	C	0.891203	-0.570248	-0.366045
C40	C	1.391203	-0.070248	0.133955
C41	C	1.000930	-0.570229	-0.366017
C42	C	1.500930	-0.070229	0.133983
C43	C	1.018072	-0.436688	-0.517695
C44	C	1.518072	0.063312	-0.017695
C45	C	0.908348	-0.436703	-0.517717
C46	C	1.408348	0.063297	-0.017717
C47	C	0.881307	-0.647350	-0.278477
C48	C	1.381307	-0.147350	0.221523
C49	C	0.991034	-0.647331	-0.278450
C50	C	1.491034	-0.147331	0.221550
C51	C	1.419381	-0.775023	-0.407124
C52	C	1.919381	-0.275023	0.092876
C53	C	1.404620	-0.891200	-0.392300
C54	C	1.904620	-0.391200	0.107700
C55	C	1.461869	-0.942892	-0.449614
C56	C	1.961869	-0.442892	0.050386
C57	C	1.446615	-1.062967	-0.434295
C58	C	1.946615	-0.562967	0.065705
C59	C	1.728140	-0.503480	-0.441882
C60	C	2.228140	-0.003480	0.058118
C61	C	1.844916	-0.503489	-0.441893
C62	C	2.344916	-0.003489	0.058107
C63	C	1.454197	-0.503353	-0.715904
C64	C	1.954197	-0.003353	-0.215904
C65	C	1.454234	-0.503308	-0.832686
C66	C	1.954234	-0.003308	-0.332686
C67	C	1.489002	-0.230833	-0.476748
C68	C	1.989002	0.269167	0.023252
C69	C	1.503871	-0.114656	-0.491617
C70	C	2.003871	0.385344	0.008383
C71	C	1.529995	-0.436456	-0.896113
C72	C	2.029995	0.063544	-0.396113
C73	C	1.530025	-0.436418	-1.005842
C74	C	2.030025	0.063582	-0.505842
C75	C	1.378527	-0.570094	-0.988707
C76	C	1.878527	-0.070094	-0.488707
C77	C	1.378494	-0.570126	-0.878981
C78	C	1.878494	-0.070126	-0.378981
C79	C	1.617464	-0.359282	-0.906006
C80	C	2.117464	0.140718	-0.406006
C81	C	1.617494	-0.359244	-1.015735
C82	C	2.117494	0.140756	-0.515735
C83	C	1.454093	-0.503488	-0.168886
C84	C	1.954093	-0.003488	0.331114
C85	C	1.454297	-0.503239	-0.052141
C86	C	1.954297	-0.003239	0.447859
H87	H	0.854265	-0.625582	-0.199933
H88	H	1.354265	-0.125582	0.300067
H89	H	0.870666	-0.382333	-0.579473
H90	H	1.370666	0.117667	-0.079473
F91	F	1.325789	-0.949541	-0.313343
F92	F	1.825789	-0.449541	0.186657
H93	H	1.564178	-1.070022	-0.552036
H94	H	2.064178	-0.570022	-0.052036
H95	H	1.316798	-0.624559	-0.827343
H96	H	1.816798	-0.124559	-0.327343
H97	H	1.606029	-0.278336	-0.886595
H98	H	2.106029	0.221664	-0.386595
H99	H	1.696097	-0.380925	-1.042746
H100	H	2.196097	0.119075	-0.542746
F101	F	1.592150	-0.258762	-1.073085
F102	F	2.092150	0.241238	-0.573085
F103	F	0.823993	-0.747905	-0.303560
F104	F	1.323993	-0.247905	0.196440
F105	F	1.040318	-0.609305	-0.182336
F106	F	1.540318	-0.109305	0.317664
F107	F	1.085589	-0.365614	-0.598389
F108	F	1.585589	0.134386	-0.098389
H109	H	1.691032	-0.388301	-0.868265
H110	H	2.191032	0.111699	-0.368265
H111	H	1.010480	-0.728303	-0.289752
H112	H	1.510480	-0.228303	0.210248
F113	F	1.540686	-0.884551	-0.528587
F114	F	2.040686	-0.384551	-0.028587
F115	F	1.297924	-0.641201	-1.037986
F116	F	1.797924	-0.141201	-0.537986
F117	F	1.367778	-1.121304	-0.355333
F118	F	1.867778	-0.621304	0.144667
