data_functionalizedCrystal
_audit_creation_method	'MofGen! by Chris Wilmer'
_symmetry_space_group_name_H-M	'P1'
_symmetry_Int_Tables_number	1
_symmetry_cell_setting	triclinic
loop_
_symmetry_equiv_pos_as_xyz
  x,y,z
_cell_length_a	12.759401
_cell_length_b	12.594516
_cell_length_c	12.759393
_cell_angle_alpha	90.028605
_cell_angle_beta	90.020473
_cell_angle_gamma	90.017577
loop_
_atom_site_label
_atom_site_type_symbol
_atom_site_fract_x
_atom_site_fract_y
_atom_site_fract_z
Zn1	Zn	1.606252	-0.423641	0.594038
Zn2	Zn	1.606140	-0.601659	0.418366
Zn3	Zn	1.430552	-0.423700	0.418373
Zn4	Zn	1.430538	-0.601583	0.594003
O5	O	1.518370	-0.512646	0.506195
O6	O	1.753258	-0.447263	0.570746
O7	O	1.582807	-0.578109	0.271345
O8	O	1.453911	-0.274746	0.441693
O9	O	1.753176	-0.578052	0.441680
O10	O	1.582997	-0.274703	0.570754
O11	O	1.453803	-0.447363	0.271351
O12	O	1.283529	-0.447289	0.441659
O13	O	1.453888	-0.577922	0.741029
O14	O	1.283519	-0.577979	0.570694
O15	O	1.582984	-0.447190	0.741054
O16	O	1.582794	-0.750595	0.441646
O17	O	1.453780	-0.750539	0.570686
C18	C	1.245403	-0.512633	0.506174
C19	C	1.128626	-0.512653	0.506190
C20	C	1.518302	-0.789187	0.506185
C21	C	1.518368	-0.907492	0.506215
C22	C	1.073787	-0.580807	0.573272
C23	C	0.964063	-0.580811	0.573293
C24	C	0.964028	-0.444504	0.439140
C25	C	1.073750	-0.444496	0.439125
C26	C	0.814165	-0.619002	0.697155
C27	C	0.759321	-0.687172	0.764229
C28	C	0.794917	-0.791045	0.780181
C29	C	0.885353	-0.826769	0.729045
C30	C	0.940191	-0.758604	0.661964
C31	C	0.904598	-0.654716	0.646031
C32	C	1.223650	-0.406316	0.315262
C33	C	1.278489	-0.338155	0.248175
C34	C	1.242896	-0.234281	0.232212
C35	C	1.152456	-0.198561	0.283330
C36	C	1.097616	-0.266721	0.350417
C37	C	1.133217	-0.370595	0.366381
C38	C	1.448191	-0.976754	0.576351
C39	C	1.422590	-1.047624	0.480484
C40	C	1.544064	-1.047421	0.602099
C41	C	1.492717	-0.976804	0.410297
C42	C	1.614236	-0.976595	0.531977
C43	C	1.588672	-1.047433	0.436044
C44	C	1.792404	-0.512660	0.506216
C45	C	1.909180	-0.512666	0.506226
C46	C	1.518447	-0.512541	0.780228
C47	C	1.518479	-0.512496	0.897005
C48	C	1.518468	-0.235025	0.506228
C49	C	1.518510	-0.116720	0.506242
C50	C	1.518355	-0.512674	0.233228
C51	C	1.518526	-0.512418	0.116451
C52	C	1.585726	-0.444373	1.061613
C53	C	1.585706	-0.444414	0.951889
C54	C	1.451276	-0.580550	0.951851
C55	C	1.451302	-0.580513	1.061573
C56	C	1.709590	-0.406443	0.801960
C57	C	1.776781	-0.338380	0.747118
C58	C	1.792958	-0.234513	0.782748
C59	C	1.741928	-0.198687	0.873219
C60	C	1.674729	-0.266744	0.928055
C61	C	1.658572	-0.370626	0.892426
C62	C	1.327417	-0.618473	1.211504
C63	C	1.260212	-0.686525	1.266342
C64	C	1.244024	-0.790395	1.230714
C65	C	1.295035	-0.826217	1.140241
C66	C	1.362241	-0.758164	1.085403
C67	C	1.378430	-0.654297	1.121038
H68	H	1.118464	-0.636302	0.627883
H69	H	1.023980	-0.237626	0.392047
C70	C	0.674483	-0.654393	0.929035
C71	C	0.659926	-0.647900	0.820450
H72	H	0.613118	-0.630157	0.963740
H73	H	0.732363	-0.611409	0.948894
H74	H	0.687825	-0.726024	0.948111
H75	H	0.646591	-0.576268	0.801372
H76	H	0.602029	-0.690884	0.800583
H77	H	1.352130	-0.367248	0.206551
C78	C	1.267668	-0.970706	0.629076
C79	C	1.367938	-0.934844	0.656301
H80	H	1.218124	-0.944825	0.678427
H81	H	1.266731	-1.046116	0.629196
H82	H	1.250143	-0.945482	0.561143
H83	H	1.385466	-0.960074	0.724230
H84	H	1.368879	-0.859418	0.656191
C85	C	1.180561	-0.032092	0.196118
C86	C	1.113326	-0.084377	0.265790
H87	H	1.156406	0.038402	0.185292
H88	H	1.181571	-0.068908	0.131140
H89	H	1.249303	-0.030297	0.224681
H90	H	1.044585	-0.086178	0.237223
H91	H	1.112305	-0.047551	0.330781
C92	C	1.314730	-1.200915	0.450476
C93	C	1.313232	-1.089749	0.451072
H94	H	1.247217	-1.226916	0.432317
H95	H	1.333411	-1.226123	0.518094
H96	H	1.364569	-1.225096	0.400596
H97	H	1.263398	-1.065568	0.500957
H98	H	1.294538	-1.064530	0.383444
C99	C	1.445352	-1.021005	0.233436
C100	C	1.463325	-0.935114	0.300814
H101	H	1.427211	-0.995263	0.165847
H102	H	1.389619	-1.063067	0.260094
H103	H	1.507047	-1.062926	0.228659
H104	H	1.401627	-0.893197	0.305597
H105	H	1.519063	-0.893034	0.274149
C106	C	1.790896	-1.020042	0.580564
C107	C	1.723566	-0.934441	0.561426
H108	H	1.858390	-0.994014	0.598760
H109	H	1.795972	-1.062635	0.519324
H110	H	1.763995	-1.061521	0.636602
H111	H	1.750463	-0.892966	0.505383
H112	H	1.718494	-0.891830	0.622673
H113	H	1.648079	-1.078272	0.376676
C114	C	1.390069	-0.212642	0.116953
C115	C	1.303175	-0.159358	0.158463
H116	H	1.427281	-0.166383	0.071431
H117	H	1.367065	-0.273138	0.078871
H118	H	1.434801	-0.234527	0.172408
H119	H	1.258438	-0.137480	0.103008
H120	H	1.326178	-0.098843	0.196546
C121	C	1.499662	-1.053609	0.784838
C122	C	1.573337	-1.089295	0.711547
H123	H	1.517733	-1.079453	0.852408
H124	H	1.432102	-1.078979	0.766068
H125	H	1.499200	-0.978191	0.785755
H126	H	1.573793	-1.164714	0.710624
H127	H	1.640915	-1.063930	0.730322
C128	C	1.908190	-0.213076	0.635543
C129	C	1.866820	-0.159699	0.722471
H130	H	1.953797	-0.166894	0.598334
H131	H	1.852684	-0.234910	0.590828
H132	H	1.946163	-0.273616	0.658518
H133	H	1.828841	-0.099163	0.699495
H134	H	1.922336	-0.137850	0.767194
H135	H	1.013823	-0.787690	0.620329
H136	H	0.785182	-0.534416	0.684184
H137	H	1.640464	-0.388925	1.106292
H138	H	0.914321	-0.911357	0.742030
C139	C	1.647030	-0.121833	1.047196
C140	C	1.618646	-0.227379	1.027500
H141	H	1.612415	-0.097536	1.108597
H142	H	1.627212	-0.078846	0.989350
H143	H	1.720714	-0.117543	1.057015
H144	H	1.544962	-0.231668	1.017673
H145	H	1.638457	-0.270378	1.085359
C146	C	1.364114	-0.517832	0.374886
C147	C	1.262776	-0.520502	0.332811
H148	H	1.388268	-0.588326	0.385710
H149	H	1.363097	-0.481019	0.439865
H150	H	1.409706	-0.482352	0.327604
H151	H	1.217182	-0.555975	0.380096
H152	H	1.263787	-0.557330	0.267822
C153	C	1.829467	-0.032338	0.845144
C154	C	1.759706	-0.084506	0.912378
H155	H	1.840447	0.038151	0.869328
H156	H	1.800894	-0.030534	0.776419
H157	H	1.894377	-0.069243	0.844104
H158	H	1.694792	-0.047606	0.913412
H159	H	1.788275	-0.086304	0.981121
H160	H	1.396543	-0.635988	0.907155
H161	H	1.818330	-0.367560	0.673457
H162	H	1.696435	-0.491023	0.772948
H163	H	1.403778	-0.787340	1.011734
H164	H	1.281857	-0.910796	1.111232
C165	C	1.128787	-0.811830	1.377929
C166	C	1.170153	-0.865202	1.290996
H167	H	1.083192	-0.858019	1.415145
H168	H	1.090813	-0.751299	1.354965
H169	H	1.184306	-0.789992	1.422644
H170	H	1.114634	-0.887033	1.246277
H171	H	1.208128	-0.925752	1.313959
H172	H	1.218643	-0.657336	1.339987
H173	H	1.340598	-0.533896	1.240525
H174	H	0.919334	-0.389015	0.384537
H175	H	0.750256	-0.846550	0.834795
