data_functionalizedCrystal
_audit_creation_method	'MofGen! by Chris Wilmer'
_symmetry_space_group_name_H-M	'P1'
_symmetry_Int_Tables_number	1
_symmetry_cell_setting	triclinic
loop_
_symmetry_equiv_pos_as_xyz
  x,y,z
_cell_length_a	18.050590
_cell_length_b	19.805405
_cell_length_c	19.805399
_cell_angle_alpha	89.970699
_cell_angle_beta	89.997050
_cell_angle_gamma	90.015577
loop_
_atom_site_label
_atom_site_type_symbol
_atom_site_fract_x
_atom_site_fract_y
_atom_site_fract_z
Zn1	Zn	1.135329	-0.269675	-0.382411
Zn2	Zn	1.135236	-0.382863	-0.269220
Zn3	Zn	1.011140	-0.269672	-0.269269
Zn4	Zn	1.011100	-0.382806	-0.382399
O5	O	1.073201	-0.326254	-0.325825
O6	O	1.239241	-0.284714	-0.367381
O7	O	1.118752	-0.367871	-0.174510
O8	O	1.027670	-0.174956	-0.284303
O9	O	1.239173	-0.367873	-0.284219
O10	O	1.118911	-0.174958	-0.367428
O11	O	1.027579	-0.284710	-0.174546
O12	O	0.907210	-0.284654	-0.284291
O13	O	1.027602	-0.367776	-0.477117
O14	O	0.907181	-0.367773	-0.367408
O15	O	1.118872	-0.284659	-0.477126
O16	O	1.118713	-0.477572	-0.284208
O17	O	1.027511	-0.477530	-0.367360
C18	C	1.073118	-0.502110	-0.325792
C19	C	1.073150	-0.577342	-0.325801
C20	C	0.880249	-0.326208	-0.325854
C21	C	0.797703	-0.326204	-0.325882
C22	C	1.120685	-0.612685	-0.282548
C23	C	1.120716	-0.683374	-0.282563
C24	C	1.073209	-0.718717	-0.325828
C25	C	1.025672	-0.683369	-0.369085
C26	C	1.025644	-0.612682	-0.369073
C27	C	1.025781	-0.968442	-0.369135
C28	C	1.025811	-1.039134	-0.369142
C29	C	1.120853	-1.039134	-0.282625
C30	C	1.120826	-0.968447	-0.282613
C31	C	1.073292	-0.933105	-0.325873
C32	C	1.073259	-0.856456	-0.325857
C33	C	1.073237	-0.795365	-0.325840
C34	C	0.598258	-0.371534	-0.370974
C35	C	0.548864	-0.309817	-0.387633
C36	C	0.646573	-0.326242	-0.325849
C37	C	0.548885	-0.387994	-0.309190
C38	C	0.500588	-0.326284	-0.325819
C39	C	0.598266	-0.264493	-0.342540
C40	C	0.598292	-0.342711	-0.264069
C41	C	0.548920	-0.280952	-0.280704
C42	C	0.730671	-0.326219	-0.325869
C43	C	0.416491	-0.326300	-0.325799
C44	C	1.266907	-0.326301	-0.325796
C45	C	1.349453	-0.326321	-0.325784
C46	C	1.073243	-0.326211	-0.502367
C47	C	1.073261	-0.326193	-0.577599
C48	C	1.073305	-0.149711	-0.325872
C49	C	1.073350	-0.074479	-0.325893
C50	C	1.120786	-0.282912	-0.612949
C51	C	1.120794	-0.282892	-0.683638
C52	C	1.073279	-0.326158	-0.718975
C53	C	1.025748	-0.369441	-0.683620
C54	C	1.025737	-0.369456	-0.612933
C55	C	1.025790	-0.369378	-0.968694
C56	C	1.025806	-0.369360	-1.039386
C57	C	1.120847	-0.282813	-1.039398
C58	C	1.120836	-0.282829	-0.968711
C59	C	1.073303	-0.326109	-0.933363
C60	C	1.073294	-0.326129	-0.856714
C61	C	1.073291	-0.326142	-0.795622
C62	C	1.073202	-0.326247	-0.149969
C63	C	1.073329	-0.326075	-0.074737
H64	H	1.159368	-0.583913	-0.247315
F65	F	0.626671	-0.360914	-0.195805
H66	H	1.159508	-0.939673	-0.247381
F67	F	0.520532	-0.456229	-0.290788
F68	F	0.975053	-0.575067	-0.415109
F69	F	0.975201	-0.415440	-0.931082
H70	H	0.619924	-0.409768	-0.409177
H71	H	0.986993	-0.712151	-0.404314
F72	F	0.626496	-0.196236	-0.361019
F73	F	0.520486	-0.291627	-0.455904
F74	F	0.520780	-0.230856	-0.230809
H75	H	1.159481	-0.247682	-0.584183
H76	H	1.159496	-0.247650	-0.712417
H77	H	0.987076	-0.939672	-0.404357
F78	F	1.171410	-0.236783	-0.931106
F79	F	1.171434	-0.236748	-1.077025
H80	H	1.159560	-1.067919	-0.247404
H81	H	0.987111	-0.404593	-1.068156
F82	F	0.975152	-0.415520	-0.575312
F83	F	1.171312	-0.720986	-0.236530
F84	F	0.975245	-1.076748	-0.415193
H85	H	0.987058	-0.404666	-0.712398
