data_functionalizedCrystal
_audit_creation_method	'MofGen! by Chris Wilmer'
_symmetry_space_group_name_H-M	'P1'
_symmetry_Int_Tables_number	1
_symmetry_cell_setting	triclinic
loop_
_symmetry_equiv_pos_as_xyz
  x,y,z
_cell_length_a	10.686154
_cell_length_b	10.685741
_cell_length_c	10.686551
_cell_angle_alpha	89.636396
_cell_angle_beta	89.693980
_cell_angle_gamma	90.321389
loop_
_atom_site_label
_atom_site_type_symbol
_atom_site_fract_x
_atom_site_fract_y
_atom_site_fract_z
Zn1	Zn	-1.997321	-0.304149	-0.583886
Zn2	Zn	-1.663988	0.029184	-0.250553
Zn3	Zn	-1.330655	0.362518	0.082781
Zn4	Zn	-1.999668	-0.529886	-0.390036
Zn5	Zn	-1.666335	-0.196552	-0.056703
Zn6	Zn	-1.333001	0.136781	0.276630
Zn7	Zn	-1.774064	-0.336043	-0.392444
Zn8	Zn	-1.440730	-0.002710	-0.059111
Zn9	Zn	-1.107397	0.330624	0.274223
Zn10	Zn	-1.805889	-0.527349	-0.615629
Zn11	Zn	-1.472556	-0.194016	-0.282295
Zn12	Zn	-1.139222	0.139317	0.051038
O13	O	-1.894235	-0.424357	-0.495499
O14	O	-1.560902	-0.091023	-0.162165
O15	O	-1.227569	0.242310	0.171168
O16	O	-2.172164	-0.321807	-0.543879
O17	O	-1.838830	0.011526	-0.210546
O18	O	-1.505497	0.344859	0.122787
O19	O	-1.957404	-0.518581	-0.215825
O20	O	-1.624071	-0.185248	0.117508
O21	O	-1.290738	0.148086	0.450842
O22	O	-1.789378	-0.157278	-0.405562
O23	O	-1.456045	0.176055	-0.072229
O24	O	-1.122712	0.509388	0.261104
O25	O	-2.173888	-0.487655	-0.401459
O26	O	-1.840555	-0.154322	-0.068125
O27	O	-1.507221	0.179012	0.265208
O28	O	-1.953405	-0.133846	-0.546214
O29	O	-1.620071	0.199487	-0.212880
O30	O	-1.286738	0.532821	0.120453
O31	O	-1.791654	-0.376166	-0.217594
O32	O	-1.458320	-0.042832	0.115739
O33	O	-1.124987	0.290501	0.449073
O34	O	-1.603754	-0.373707	-0.436342
O35	O	-1.270421	-0.040373	-0.103009
O36	O	-0.937087	0.292960	0.230325
O37	O	-1.843620	-0.483332	-0.785948
O38	O	-1.510286	-0.149999	-0.452615
O39	O	-1.176953	0.183334	-0.119282
O40	O	-1.627136	-0.514258	-0.600315
O41	O	-1.293803	-0.180925	-0.266982
O42	O	-0.960469	0.152408	0.066352
O43	O	-1.984264	-0.319348	-0.762627
O44	O	-1.650931	0.013985	-0.429294
O45	O	-1.317598	0.347319	-0.095960
O46	O	-1.988264	-0.704083	-0.432238
O47	O	-1.654931	-0.370750	-0.098905
O48	O	-1.321597	-0.037416	0.234428
O49	O	-1.845895	-0.702220	-0.597980
O50	O	-1.512562	-0.368886	-0.264647
O51	O	-1.179229	-0.035553	0.068686
C52	C	-1.570191	-0.447169	-0.522035
C53	C	-1.236858	-0.113836	-0.188702
C54	C	-0.903525	0.219498	0.144632
C55	C	-1.431568	-0.456956	-0.533419
C56	C	-1.098235	-0.123622	-0.200086
C57	C	-0.764902	0.209711	0.133248
C58	C	-1.920823	-0.748401	-0.518317
C59	C	-1.587490	-0.415068	-0.184984
C60	C	-1.254157	-0.081735	0.148350
C61	C	-1.932315	-0.887017	-0.528111
C62	C	-1.598982	-0.553684	-0.194778
C63	C	-1.265648	-0.220351	0.138555
C64	C	-1.917230	-0.397499	-0.820807
C65	C	-1.583897	-0.064166	-0.487474
C66	C	-1.250564	0.269167	-0.154140
C67	C	-1.927029	-0.386055	-0.959434
C68	C	-1.593696	-0.052721	-0.626101
C69	C	-1.260362	0.280612	-0.292767
C70	C	-1.219544	-0.401445	-0.468851
C71	C	-0.886210	-0.068112	-0.135517
C72	C	-0.552877	0.265222	0.197816
C73	C	-1.358167	-0.391652	-0.457472
C74	C	-1.024833	-0.058319	-0.124138
C75	C	-0.691500	0.275015	0.209195
C76	C	-1.867580	-0.099042	-0.472616
C77	C	-1.534246	0.234291	-0.139282
C78	C	-1.200913	0.567624	0.194051
C79	C	-1.856220	0.039587	-0.462864
C80	C	-1.522887	0.372921	-0.129531
C81	C	-1.189554	0.706254	0.203802
C82	C	-1.871395	-0.451015	-0.171444
C83	C	-1.538061	-0.117681	0.161890
C84	C	-1.204728	0.215652	0.495223
C85	C	-1.861808	-0.462091	-0.032773
C86	C	-1.528475	-0.128758	0.300560
C87	C	-1.195142	0.204576	0.633894
H88	H	-1.388354	-0.520364	-0.607149
H89	H	-1.055021	-0.187031	-0.273815
H90	H	-0.721687	0.146303	0.059518
H91	H	-1.990374	-0.312201	-1.002704
H92	H	-1.657041	0.021133	-0.669371
H93	H	-1.323707	0.354466	-0.336038
H94	H	-2.006158	0.069764	-0.591426
H95	H	-1.672825	0.403097	-0.258093
H96	H	-1.339491	0.736430	0.075241
F97	F	-1.759706	0.096079	-0.380087
F98	F	-1.426372	0.429413	-0.046754
F99	F	-1.093039	0.762746	0.286579
H100	H	-1.798477	-0.535948	-0.989508
H101	H	-1.465144	-0.202615	-0.656175
H102	H	-1.131811	0.130718	-0.322841
H103	H	-1.401375	-0.328257	-0.383740
H104	H	-1.068042	0.005077	-0.050406
H105	H	-0.734708	0.338410	0.282927
