data_functionalizedCrystal
_audit_creation_method	'MofGen! by Chris Wilmer'
_symmetry_space_group_name_H-M	'P1'
_symmetry_Int_Tables_number	1
_symmetry_cell_setting	triclinic
loop_
_symmetry_equiv_pos_as_xyz
  x,y,z
_cell_length_a	27.732048
_cell_length_b	27.732048
_cell_length_c	26.809956
_cell_angle_alpha	90.003258
_cell_angle_beta	90.012074
_cell_angle_gamma	97.357346
loop_
_atom_site_label
_atom_site_type_symbol
_atom_site_fract_x
_atom_site_fract_y
_atom_site_fract_z
O1	O	-0.057510	0.640931	0.041407
O2	O	0.275823	0.974264	0.374741
O3	O	0.609157	1.307598	0.708074
O4	O	-0.066256	0.500138	0.041421
O5	O	0.267078	0.833471	0.374755
O6	O	0.600411	1.166804	0.708088
O7	O	0.008514	0.574907	0.041421
O8	O	0.341847	0.908240	0.374754
O9	O	0.675180	1.241574	0.708087
O10	O	-0.132280	0.566162	0.041408
O11	O	0.201054	0.899495	0.374742
O12	O	0.534387	1.232828	0.708075
O13	O	0.008502	0.574893	-0.041539
O14	O	0.341836	0.908226	0.291795
O15	O	0.675169	1.241560	0.625128
O16	O	-0.066267	0.500123	-0.041538
O17	O	0.267066	0.833457	0.291795
O18	O	0.600400	1.166790	0.625129
O19	O	-0.057522	0.640917	-0.041552
O20	O	0.275812	0.974250	0.291782
O21	O	0.609145	1.307584	0.625115
Zn22	Zn	-0.061896	0.570518	-0.054716
Zn23	Zn	0.271437	0.903851	0.278617
Zn24	Zn	0.604771	1.237185	0.611950
Zn25	Zn	-0.061881	0.570536	0.054586
Zn26	Zn	0.271452	0.903870	0.387919
Zn27	Zn	0.604786	1.237203	0.721253
O28	O	-0.132291	0.566147	-0.041551
O29	O	0.201042	0.899481	0.291782
O30	O	0.534376	1.232814	0.625116
C31	C	-0.066078	0.482124	-0.000056
C32	C	0.267256	0.815457	0.333277
C33	C	0.600589	1.148790	0.666610
C34	C	-0.065525	0.428469	-0.000051
C35	C	0.267808	0.761802	0.333283
C36	C	0.601142	1.095135	0.666616
C37	C	-0.106229	0.089654	-0.000076
C38	C	0.227105	0.422987	0.333258
C39	C	0.560438	0.756320	0.666591
C40	C	-0.104178	-0.112006	-0.000080
C41	C	0.229156	0.221327	0.333253
C42	C	0.562489	0.554661	0.666587
O43	O	-0.141398	-0.143262	-0.000105
O44	O	0.191935	0.190072	0.333228
O45	O	0.525268	0.523405	0.666562
N46	N	-0.059843	-0.131130	-0.000075
N47	N	0.273491	0.202204	0.333258
N48	N	0.606824	0.535537	0.666591
C49	C	-0.016017	-0.099835	-0.000073
C50	C	0.317316	0.233498	0.333261
C51	C	0.650650	0.566832	0.666594
O52	O	0.021740	-0.120728	-0.000074
O53	O	0.355073	0.212605	0.333259
O54	O	0.688407	0.545938	0.666593
C55	C	-0.018068	0.101824	-0.000072
C56	C	0.315265	0.435157	0.333261
C57	C	0.648598	0.768490	0.666595
C58	C	-0.062407	0.120944	-0.000072
C59	C	0.270927	0.454278	0.333262
C60	C	0.604260	0.787611	0.666595
C61	C	-0.150563	0.108775	-0.000076
C62	C	0.182770	0.442108	0.333257
C63	C	0.516103	0.775442	0.666591
C64	C	-0.151076	0.159187	-0.000072
C65	C	0.182258	0.492520	0.333261
C66	C	0.515591	0.825853	0.666594
C67	C	-0.107253	0.190477	-0.000068
C68	C	0.226080	0.523811	0.333265
C69	C	0.559413	0.857144	0.666598
C70	C	-0.062919	0.171356	-0.000068
C71	C	0.270415	0.504690	0.333265
C72	C	0.603748	0.838023	0.666599
C73	C	0.025757	0.133117	-0.000073
C74	C	0.359090	0.466451	0.333260
C75	C	0.692423	0.799784	0.666594
C76	C	0.025240	0.183535	-0.000074
C77	C	0.358573	0.516868	0.333259
C78	C	0.691906	0.850201	0.666593
C79	C	-0.019098	0.202655	-0.000074
C80	C	0.314235	0.535989	0.333259
C81	C	0.647568	0.869322	0.666593
C82	C	-0.019609	0.253059	-0.000060
C83	C	0.313724	0.586392	0.333273
C84	C	0.647058	0.919725	0.666607
N85	N	-0.063944	0.272183	-0.000065
N86	N	0.269389	0.605516	0.333268
N87	N	0.602723	0.938849	0.666602
C88	C	-0.107766	0.240892	-0.000069
C89	C	0.225567	0.574225	0.333264
C90	C	0.558900	0.907559	0.666598
C91	C	-0.014943	-0.205709	-0.000072
C92	C	0.318390	0.127624	0.333261
C93	C	0.651724	0.460957	0.666595
C94	C	-0.014430	-0.256124	-0.000071
C95	C	0.318903	0.077210	0.333262
C96	C	0.652237	0.410543	0.666595
C97	C	-0.102591	-0.268291	-0.000080
C98	C	0.230742	0.065042	0.333254
C99	C	0.564076	0.398376	0.666587
C100	C	-0.103104	-0.217876	-0.000077
C101	C	0.230230	0.115458	0.333256
C102	C	0.563563	0.448791	0.666590
C103	C	-0.059278	-0.186585	-0.000077
C104	C	0.274055	0.146748	0.333256
C105	C	0.607388	0.480081	0.666590
C106	C	-0.108839	0.346761	-0.000061
C107	C	0.224495	0.680094	0.333273
C108	C	0.557828	1.013428	0.666606
C109	C	-0.109347	0.397178	-0.000055
C110	C	0.223986	0.730511	0.333279
C111	C	0.557319	1.063845	0.666612
C112	C	-0.021186	0.409341	-0.000049
C113	C	0.312147	0.742674	0.333284
C114	C	0.645480	1.076008	0.666618
C115	C	-0.020678	0.358929	-0.000052
C116	C	0.312656	0.692262	0.333281
C117	C	0.645989	1.025595	0.666614
C118	C	-0.064508	0.327639	-0.000060
C119	C	0.268825	0.660973	0.333274
C120	C	0.602159	0.994306	0.666607
O121	O	0.017592	0.284343	-0.000041
O122	O	0.350925	0.617676	0.333292
O123	O	0.684259	0.951009	0.666626
O124	O	-0.145518	0.261794	-0.000079
O125	O	0.187816	0.595128	0.333254
O126	O	0.521149	0.928461	0.666588
C127	C	-0.105716	0.039242	-0.000080
C128	C	0.227617	0.372575	0.333254
C129	C	0.560950	0.705908	0.666587
C130	C	-0.061382	0.020120	-0.000079
C131	C	0.271951	0.353454	0.333254
C132	C	0.605285	0.686787	0.666587
C133	C	-0.017560	0.051411	-0.000075
C134	C	0.315774	0.384744	0.333258
C135	C	0.649107	0.718078	0.666591
C136	C	-0.060869	-0.030294	-0.000079
C137	C	0.272464	0.303039	0.333255
C138	C	0.605798	0.636373	0.666588
C139	C	-0.104691	-0.061585	-0.000083
C140	C	0.228642	0.271749	0.333251
C141	C	0.561975	0.605082	0.666584
C142	C	-0.149026	-0.042461	-0.000087
C143	C	0.184307	0.290872	0.333246
C144	C	0.517640	0.624206	0.666579
C145	C	-0.149539	0.007951	-0.000084
C146	C	0.183795	0.341284	0.333250
C147	C	0.517128	0.674618	0.666583
C148	C	0.026775	0.032287	-0.000071
C149	C	0.360109	0.365621	0.333263
C150	C	0.693442	0.698954	0.666596
C151	C	0.027284	-0.018125	-0.000074
C152	C	0.360617	0.315208	0.333260
C153	C	0.693951	0.648541	0.666593
C154	C	-0.016538	-0.049416	-0.000078
C155	C	0.316795	0.283917	0.333256
C156	C	0.650129	0.617251	0.666589
C157	C	-0.150292	0.566338	-0.000073
C158	C	0.183041	0.899671	0.333260
C159	C	0.516374	1.233005	0.666594
C160	C	-0.203947	0.566891	-0.000078
C161	C	0.129386	0.900224	0.333255
C162	C	0.462720	1.233557	0.666589
C163	C	-0.542762	0.526187	-0.000050
C164	C	-0.209429	0.859520	0.333283
C165	C	0.123904	1.192854	0.666617
C166	C	-0.744422	0.528238	-0.000044
C167	C	-0.411088	0.861571	0.333289
C168	C	-0.077755	1.194905	0.666622
O169	O	-0.775677	0.491017	-0.000019
O170	O	-0.442344	0.824351	0.333315
O171	O	-0.109011	1.157684	0.666648
N172	N	-0.763546	0.572573	-0.000049
N173	N	-0.430212	0.905907	0.333284
N174	N	-0.096879	1.239240	0.666617
C175	C	-0.732251	0.616399	-0.000053
C176	C	-0.398918	0.949732	0.333281
C177	C	-0.065584	1.283065	0.666614
O178	O	-0.753144	0.654156	-0.000052
O179	O	-0.419811	0.987489	0.333282
O180	O	-0.086477	1.320822	0.666615
C181	C	-0.530592	0.614347	-0.000055
C182	C	-0.197259	0.947681	0.333279
C183	C	0.136074	1.281014	0.666612
C184	C	-0.511472	0.570009	-0.000055
C185	C	-0.178138	0.903343	0.333279
C186	C	0.155195	1.236676	0.666612
C187	C	-0.523641	0.481853	-0.000049
C188	C	-0.190308	0.815186	0.333284
C189	C	0.143026	1.148519	0.666617
C190	C	-0.473229	0.481340	-0.000054
C191	C	-0.139896	0.814674	0.333280
C192	C	0.193438	1.148007	0.666613
C193	C	-0.441938	0.525162	-0.000058
C194	C	-0.108605	0.858496	0.333275
C195	C	0.224728	1.191829	0.666608
C196	C	-0.461060	0.569497	-0.000059
C197	C	-0.127726	0.902830	0.333274
C198	C	0.205607	1.236164	0.666608
C199	C	-0.499299	0.658172	-0.000054
C200	C	-0.165965	0.991506	0.333279
C201	C	0.167368	1.324839	0.666612
C202	C	-0.448881	0.657656	-0.000054
C203	C	-0.115548	0.990989	0.333280
C204	C	0.217785	1.324322	0.666613
C205	C	-0.429761	0.613317	-0.000054
C206	C	-0.096427	0.946651	0.333280
C207	C	0.236906	1.279984	0.666613
C208	C	-0.379357	0.612807	-0.000068
C209	C	-0.046024	0.946140	0.333266
C210	C	0.287310	1.279474	0.666599
N211	N	-0.360233	0.568472	-0.000063
N212	N	-0.026900	0.901805	0.333271
N213	N	0.306433	1.235138	0.666604
C214	C	-0.391524	0.524649	-0.000058
C215	C	-0.058191	0.857983	0.333275
C216	C	0.275143	1.191316	0.666609
C217	C	-0.838125	0.617473	-0.000052
C218	C	-0.504792	0.950806	0.333281
C219	C	-0.171458	1.284139	0.666614
C220	C	-0.888539	0.617986	-0.000053
C221	C	-0.555206	0.951319	0.333281
C222	C	-0.221873	1.284652	0.666614
C223	C	-0.900707	0.529825	-0.000044
C224	C	-0.567374	0.863158	0.333290
C225	C	-0.234040	1.196491	0.666623
C226	C	-0.850291	0.529312	-0.000047
C227	C	-0.516958	0.862646	0.333287
C228	C	-0.183625	1.195979	0.666620
C229	C	-0.819001	0.573138	-0.000047
C230	C	-0.485668	0.906471	0.333286
C231	C	-0.152335	1.239804	0.666619
C232	C	-0.285655	0.523577	-0.000067
C233	C	0.047679	0.856910	0.333266
C234	C	0.381012	1.190244	0.666600
C235	C	-0.235238	0.523069	-0.000073
C236	C	0.098096	0.856402	0.333260
C237	C	0.431429	1.189735	0.666593
C238	C	-0.223075	0.611229	-0.000080
C239	C	0.110259	0.944563	0.333253
C240	C	0.443592	1.277896	0.666587
C241	C	-0.273487	0.611738	-0.000076
C242	C	0.059846	0.945071	0.333257
C243	C	0.393179	1.278405	0.666590
C244	C	-0.304777	0.567908	-0.000068
C245	C	0.028557	0.901241	0.333265
C246	C	0.361890	1.234575	0.666598
O247	O	-0.348073	0.650008	-0.000088
O248	O	-0.014740	0.983341	0.333246
O249	O	0.318594	1.316674	0.666579
O250	O	-0.370621	0.486898	-0.000048
O251	O	-0.037288	0.820231	0.333285
O252	O	0.296045	1.153565	0.666619
C253	C	-0.593174	0.526699	-0.000046
C254	C	-0.259841	0.860033	0.333287
C255	C	0.073493	1.193366	0.666621
C256	C	-0.612295	0.571034	-0.000046
C257	C	-0.278962	0.904367	0.333287
C258	C	0.054371	1.237700	0.666620
C259	C	-0.581005	0.614856	-0.000051
C260	C	-0.247671	0.948189	0.333282
C261	C	0.085662	1.281523	0.666615
C262	C	-0.662710	0.571547	-0.000047
C263	C	-0.329377	0.904880	0.333287
C264	C	0.003957	1.238213	0.666620
C265	C	-0.694001	0.527725	-0.000042
C266	C	-0.360667	0.861058	0.333291
C267	C	-0.027334	1.194391	0.666625
C268	C	-0.674877	0.483389	-0.000037
C269	C	-0.341543	0.816723	0.333296
C270	C	-0.008210	1.150056	0.666630
C271	C	-0.624465	0.482877	-0.000041
C272	C	-0.291131	0.816210	0.333292
C273	C	0.042202	1.149544	0.666626
C274	C	-0.600129	0.659191	-0.000056
C275	C	-0.266795	0.992525	0.333277
C276	C	0.066538	1.325858	0.666610
C277	C	-0.650541	0.659700	-0.000053
C278	C	-0.317208	0.993033	0.333281
C279	C	0.016126	1.326367	0.666614
C280	C	-0.681832	0.615878	-0.000048
C281	C	-0.348498	0.949211	0.333285
C282	C	-0.015165	1.282544	0.666619
C283	C	0.026515	0.574716	-0.000056
C284	C	0.359848	0.908050	0.333277
C285	C	0.693182	1.241383	0.666610
C286	C	0.080170	0.574164	-0.000048
C287	C	0.413503	0.907497	0.333285
C288	C	0.746837	1.240830	0.666619
C289	C	-0.057699	0.658931	-0.000073
C290	C	0.275634	0.992264	0.333260
C291	C	0.608967	1.325598	0.666594
C292	C	-0.058252	0.712586	-0.000076
C293	C	0.275081	1.045919	0.333258
C294	C	0.608414	1.379252	0.666591
N295	N	-0.061906	0.570509	-0.129312
N296	N	0.271427	0.903842	0.204021
N297	N	0.604761	1.237175	0.537354
C298	C	-0.028781	0.603640	-0.473939
C299	C	0.304552	0.936973	-0.140605
C300	C	0.637885	1.270307	0.192728
C301	C	-0.028774	0.603652	-0.682817
C302	C	0.304559	0.936985	-0.349483
C303	C	0.637893	1.270318	-0.016150
O304	O	-0.000613	0.631801	-0.709821
O305	O	0.332720	0.965135	-0.376487
O306	O	0.666054	1.298468	-0.043154
N307	N	-0.061870	0.570539	-0.708940
N308	N	0.271463	0.903873	-0.375606
N309	N	0.604796	1.237206	-0.042273
C310	C	-0.094969	0.537419	-0.682840
C311	C	0.238364	0.870753	-0.349507
C312	C	0.571698	1.204086	-0.016173
O313	O	-0.123116	0.509252	-0.709852
O314	O	0.210217	0.842585	-0.376519
O315	O	0.543550	1.175919	-0.043185
C316	C	-0.094974	0.537406	-0.473963
C317	C	0.238360	0.870739	-0.140630
C318	C	0.571693	1.204073	0.192703
C319	C	-0.061878	0.570524	-0.447843
C320	C	0.271455	0.903857	-0.114510
C321	C	0.604788	1.237191	0.218824
C322	C	0.004312	0.636755	-0.447818
C323	C	0.337645	0.970088	-0.114485
C324	C	0.670978	1.303422	0.218848
C325	C	0.004308	0.636754	-0.395602
C326	C	0.337641	0.970087	-0.062269
C327	C	0.670975	1.303420	0.271065
C328	C	-0.028789	0.603637	-0.369506
C329	C	0.304544	0.936971	-0.036173
C330	C	0.637877	1.270304	0.297160
C331	C	-0.061882	0.570522	-0.395627
C332	C	0.271451	0.903856	-0.062293
C333	C	0.604784	1.237189	0.271040
C334	C	-0.128070	0.504284	-0.447865
C335	C	0.205264	0.837618	-0.114531
C336	C	0.538597	1.170951	0.218802
C337	C	-0.128067	0.504283	-0.395642
C338	C	0.205266	0.837616	-0.062309
C339	C	0.538599	1.170950	0.271025
C340	C	-0.094972	0.537401	-0.369522
C341	C	0.238362	0.870734	-0.036188
C342	C	0.571695	1.204068	0.297145
C343	C	-0.094983	0.537405	-0.317314
C344	C	0.238350	0.870738	0.016019
C345	C	0.571683	1.204071	0.349352
N346	N	-0.061887	0.570517	-0.291191
N347	N	0.271447	0.903850	0.042142
N348	N	0.604780	1.237184	0.375475
C349	C	-0.028790	0.603633	-0.317287
C350	C	0.304544	0.936967	0.016046
C351	C	0.637877	1.270300	0.349379
C352	C	-0.094965	0.537429	-0.792503
C353	C	0.238368	0.870763	-0.459170
C354	C	0.571702	1.204096	-0.125837
C355	C	-0.094964	0.537433	-0.844722
C356	C	0.238369	0.870767	-0.511389
C357	C	0.571702	1.204100	-0.178055
C358	C	-0.028768	0.603665	-0.844695
C359	C	0.304565	0.936998	-0.511362
C360	C	0.637898	1.270332	-0.178028
C361	C	-0.028772	0.603663	-0.792475
C362	C	0.304562	0.936996	-0.459142
C363	C	0.637895	1.270330	-0.125809
C364	C	-0.061868	0.570542	-0.766380
C365	C	0.271465	0.903875	-0.433047
C366	C	0.604798	1.237209	-0.099714
C367	C	-0.028801	0.603628	-0.207629
C368	C	0.304533	0.936961	0.125704
C369	C	0.637866	1.270295	0.459037
C370	C	-0.028809	0.603625	-0.155408
C371	C	0.304524	0.936958	0.177925
C372	C	0.637858	1.270292	0.511258
C373	C	-0.095003	0.537392	-0.155440
C374	C	0.238330	0.870725	0.177893
C375	C	0.571664	1.204058	0.511227
C376	C	-0.094997	0.537396	-0.207656
C377	C	0.238337	0.870730	0.125677
C378	C	0.571670	1.204063	0.459010
C379	C	-0.061892	0.570516	-0.233750
C380	C	0.271442	0.903850	0.099584
C381	C	0.604775	1.237183	0.432917
O382	O	-0.123126	0.509266	-0.290278
O383	O	0.210208	0.842599	0.043055
O384	O	0.543541	1.175933	0.376389
O385	O	-0.000640	0.631789	-0.290266
O386	O	0.332694	0.965123	0.043067
O387	O	0.666027	1.298456	0.376400
C388	C	-0.028777	0.603642	-0.526155
C389	C	0.304556	0.936975	-0.192822
C390	C	0.637889	1.270308	0.140512
C391	C	-0.061870	0.570527	-0.552275
C392	C	0.271463	0.903860	-0.218942
C393	C	0.604796	1.237193	0.114391
C394	C	-0.094968	0.537410	-0.526180
C395	C	0.238366	0.870744	-0.192846
C396	C	0.571699	1.204077	0.140487
C397	C	-0.061870	0.570531	-0.604494
C398	C	0.271463	0.903864	-0.271161
C399	C	0.604797	1.237197	0.062172
C400	C	-0.028773	0.603647	-0.630590
C401	C	0.304560	0.936980	-0.297257
C402	C	0.637894	1.270314	0.036076
C403	C	0.004324	0.636759	-0.604467
C404	C	0.337657	0.970093	-0.271134
C405	C	0.670990	1.303426	0.062199
C406	C	0.004320	0.636758	-0.552251
C407	C	0.337653	0.970091	-0.218918
C408	C	0.670986	1.303425	0.114416
C409	C	-0.128064	0.504298	-0.552303
C410	C	0.205269	0.837631	-0.218969
C411	C	0.538603	1.170965	0.114364
C412	C	-0.128058	0.504303	-0.604519
C413	C	0.205276	0.837636	-0.271186
C414	C	0.538609	1.170969	0.062148
C415	C	-0.094961	0.537419	-0.630615
C416	C	0.238373	0.870752	-0.297281
C417	C	0.571706	1.204086	0.036052
N418	N	-0.061867	0.570549	0.129182
N419	N	0.271466	0.903883	0.462515
N420	N	0.604799	1.237216	0.795849
H421	H	-0.138273	-0.293777	-0.000083
H422	H	0.195061	0.039557	0.333250
H423	H	0.528394	0.372890	0.666584
H424	H	0.031266	0.663722	-0.469061
H425	H	0.364599	0.997056	-0.135728
H426	H	0.697932	1.330389	0.197605
H427	H	-0.834727	0.493208	-0.000049
H428	H	-0.501394	0.826542	0.333285
H429	H	-0.168061	1.159875	0.666618
H430	H	-0.145454	0.412743	-0.000054
H431	H	0.187879	0.746076	0.333279
H432	H	0.521213	1.079410	0.666612
Cl433	Cl	-0.136578	0.495789	-0.759704
Cl434	Cl	0.196756	0.829122	-0.426370
Cl435	Cl	0.530089	1.162456	-0.093037
Cl436	Cl	0.045930	0.678392	-0.637284
Cl437	Cl	0.379263	1.011725	-0.303950
Cl438	Cl	0.712596	1.345059	0.029383
Cl439	Cl	-0.714223	0.428299	-0.000033
Cl440	Cl	-0.380890	0.761633	0.333301
Cl441	Cl	-0.047557	1.094966	0.666634
H442	H	-0.514857	0.694277	-0.000054
H443	H	-0.181524	1.027610	0.333279
H444	H	0.151809	1.360944	0.666613
Cl445	Cl	0.012799	0.645263	-0.122574
Cl446	Cl	0.346132	0.978596	0.210759
Cl447	Cl	0.679466	1.311929	0.544092
H448	H	-0.144530	0.321291	-0.000068
H449	H	0.188804	0.654624	0.333265
H450	H	0.522137	0.987957	0.666598
Cl451	Cl	-0.940053	0.474734	-0.000037
Cl452	Cl	-0.606720	0.808068	0.333296
Cl453	Cl	-0.273386	1.141401	0.666629
H454	H	0.021674	-0.271687	-0.000064
H455	H	0.355008	0.061646	0.333269
H456	H	0.688341	0.394980	0.666603
Cl457	Cl	-0.206818	0.183216	-0.000076
Cl458	Cl	0.126515	0.516550	0.333258
Cl459	Cl	0.459849	0.849883	0.666591
H460	H	0.031269	0.663725	-0.530988
H461	H	0.364603	0.997059	-0.197654
H462	H	0.697936	1.330392	0.135679
Cl463	Cl	-0.912570	0.673727	-0.000060
Cl464	Cl	-0.579237	1.007061	0.333273
Cl465	Cl	-0.245904	1.340394	0.666606
Cl466	Cl	-0.169670	0.462666	-0.637350
Cl467	Cl	0.163664	0.796000	-0.304017
Cl468	Cl	0.496997	1.129333	0.029317
Cl469	Cl	-0.600435	0.427135	-0.000039
Cl470	Cl	-0.267102	0.760468	0.333294
Cl471	Cl	0.066231	1.093801	0.666627
H472	H	0.063392	-0.033688	-0.000070
H473	H	0.396725	0.299645	0.333263
H474	H	0.730059	0.632979	0.666597
Cl475	Cl	0.045918	0.678386	-0.362771
Cl476	Cl	0.379252	1.011719	-0.029438
Cl477	Cl	0.712585	1.345052	0.303896
H478	H	-0.186251	0.083302	-0.000081
H479	H	0.147083	0.416636	0.333252
H480	H	0.480416	0.749969	0.666585
Cl481	Cl	0.035062	0.334890	-0.000055
Cl482	Cl	0.368395	0.668224	0.333278
Cl483	Cl	0.701729	1.001557	0.666612
H484	H	-0.001822	0.630630	-0.771211
H485	H	0.331511	0.963964	-0.437878
H486	H	0.664844	1.297297	-0.104544
H487	H	-0.812652	0.653163	-0.000054
H488	H	-0.479319	0.986496	0.333280
H489	H	-0.145985	1.319829	0.666613
Cl490	Cl	-0.674571	0.715445	-0.000052
Cl491	Cl	-0.341238	1.048778	0.333281
Cl492	Cl	-0.007905	1.382112	0.666614
Cl493	Cl	0.081872	0.071617	-0.000066
Cl494	Cl	0.415206	0.404951	0.333268
Cl495	Cl	0.748539	0.738284	0.666601
Cl496	Cl	-0.409548	0.712754	-0.000053
Cl497	Cl	-0.076214	1.046087	0.333280
Cl498	Cl	0.257119	1.379421	0.666614
Cl499	Cl	0.012840	0.645296	-0.877512
Cl500	Cl	0.346173	0.978629	-0.544178
Cl501	Cl	0.679506	1.311962	-0.210845
H502	H	0.020747	-0.180236	-0.000072
H503	H	0.354080	0.153097	0.333261
H504	H	0.687414	0.486430	0.666594
H505	H	-0.289056	0.647842	-0.000084
H506	H	0.044277	0.981175	0.333250
H507	H	0.377611	1.314508	0.666583
Cl508	Cl	-0.183729	0.666317	-0.000089
Cl509	Cl	0.149604	0.999650	0.333244
Cl510	Cl	0.482938	1.332984	0.666577
Cl511	Cl	0.080338	0.222868	-0.000075
Cl512	Cl	0.413671	0.556201	0.333258
Cl513	Cl	0.747005	0.889535	0.666592
Cl514	Cl	-0.560799	0.714288	-0.000064
Cl515	Cl	-0.227465	1.047621	0.333269
Cl516	Cl	0.105868	1.380955	0.666602
Cl517	Cl	0.012817	0.645266	-0.240424
Cl518	Cl	0.346150	0.978600	0.092909
Cl519	Cl	0.679484	1.311933	0.426243
Cl520	Cl	-0.136578	0.495804	-0.877553
Cl521	Cl	0.196755	0.829137	-0.544220
Cl522	Cl	0.530089	1.162471	-0.210887
H523	H	-0.155015	0.477330	-0.531059
H524	H	0.178318	0.810663	-0.197726
H525	H	0.511651	1.143997	0.135607
Cl526	Cl	-0.169677	0.462641	-0.362841
Cl527	Cl	0.163657	0.795974	-0.029507
Cl528	Cl	0.496990	1.129308	0.303826
H529	H	-0.219673	0.486962	-0.000076
H530	H	0.113660	0.820295	0.333258
H531	H	0.446994	1.153628	0.666591
Cl532	Cl	-0.169676	0.462647	-0.480691
Cl533	Cl	0.163657	0.795981	-0.147358
Cl534	Cl	0.496990	1.129314	0.185976
Cl535	Cl	-0.205281	0.031981	-0.000084
Cl536	Cl	0.128052	0.365314	0.333249
Cl537	Cl	0.461386	0.698647	0.666583
Cl538	Cl	-0.204117	-0.081807	-0.000090
Cl539	Cl	0.129217	0.251526	0.333243
Cl540	Cl	0.462550	0.584859	0.666576
Cl541	Cl	-0.136609	0.495766	-0.240492
Cl542	Cl	0.196724	0.829099	0.092842
Cl543	Cl	0.530058	1.162433	0.426175
H544	H	-0.121952	0.510430	-0.134184
H545	H	0.211382	0.843764	0.199149
H546	H	0.544715	1.177097	0.532482
Cl547	Cl	0.081500	0.109093	-0.000065
Cl548	Cl	0.414833	0.442426	0.333268
Cl549	Cl	0.748166	0.775759	0.666602
H550	H	-0.457666	0.445236	-0.000049
H551	H	-0.124333	0.778569	0.333284
H552	H	0.209001	1.111902	0.666617
Cl553	Cl	-0.158845	-0.193844	-0.000078
Cl554	Cl	0.174489	0.139490	0.333255
Cl555	Cl	0.507822	0.472823	0.666588
H556	H	-0.311125	0.487886	-0.000060
H557	H	0.022208	0.821220	0.333273
H558	H	0.355542	1.154553	0.666606
Cl559	Cl	-0.562970	0.426754	-0.000043
Cl560	Cl	-0.229636	0.760087	0.333291
Cl561	Cl	0.103697	1.093421	0.666624
H562	H	0.014492	0.434827	-0.000044
H563	H	0.347826	0.768160	0.333289
H564	H	0.681159	1.101494	0.666623
