data_functionalizedCrystal
_audit_creation_method	'MofGen! by Chris Wilmer'
_symmetry_space_group_name_H-M	'P1'
_symmetry_Int_Tables_number	1
_symmetry_cell_setting	triclinic
loop_
_symmetry_equiv_pos_as_xyz
  x,y,z
_cell_length_a	14.044220
_cell_length_b	13.330367
_cell_length_c	14.853559
_cell_angle_alpha	89.997552
_cell_angle_beta	88.410166
_cell_angle_gamma	89.997392
loop_
_atom_site_label
_atom_site_type_symbol
_atom_site_fract_x
_atom_site_fract_y
_atom_site_fract_z
O1	O	1.257990	-0.083308	0.217373
O2	O	0.982011	-0.083334	0.209529
O3	O	1.127377	-0.083319	0.082805
O4	O	1.112624	-0.083322	0.344097
O5	O	1.127355	0.083528	0.082800
O6	O	0.981990	0.083514	0.209524
O7	O	1.257969	0.083539	0.217368
Cu8	Cu	1.119977	0.098761	0.213445
Cu9	Cu	1.120002	-0.098555	0.213451
O10	O	1.112603	0.083525	0.344092
C11	C	0.946681	0.000087	0.206093
C12	C	0.841443	0.000077	0.195851
N13	N	1.119967	0.237542	0.213441
N14	N	1.120021	-0.237337	0.213449
C15	C	0.648757	0.000097	0.177127
C16	C	0.591217	0.000100	0.249766
C17	C	0.484000	0.000111	0.239347
C18	C	0.755984	0.000086	0.187544
C19	C	1.293298	0.000117	0.220804
C20	C	1.398537	0.000120	0.231046
C21	C	1.126699	0.000103	0.049161
C22	C	1.124700	0.000097	-0.051082
C23	C	1.055632	0.710159	0.269540
C24	C	1.184399	0.710140	0.157357
C25	C	1.184388	0.605121	0.157353
C26	C	1.119999	0.552617	0.213445
C27	C	1.055621	0.605131	0.269540
C28	C	1.248771	0.552600	0.101266
C29	C	1.248764	0.447575	0.101261
C30	C	1.184370	0.395069	0.157348
C31	C	1.119988	0.447589	0.213445
C32	C	1.055599	0.395084	0.269537
C33	C	0.991213	0.447603	0.325629
C34	C	0.991227	0.552624	0.325628
C35	C	1.184356	0.290047	0.157350
C36	C	1.055589	0.290056	0.269537
C37	C	1.116233	-0.090852	-0.474926
C38	C	1.116210	0.091051	-0.474926
C39	C	1.118095	0.091052	-0.380743
C40	C	1.119048	0.000099	-0.333648
C41	C	1.118116	-0.090854	-0.380734
C42	C	1.119018	0.182004	-0.333649
C43	C	1.120903	0.182008	-0.239460
C44	C	1.121863	0.091055	-0.192363
C45	C	1.120931	0.000098	-0.239456
C46	C	1.121885	-0.090855	-0.192360
C47	C	1.120960	-0.181813	-0.239452
C48	C	1.119076	-0.181808	-0.333637
C49	C	1.123747	0.091049	-0.098177
C50	C	1.123768	-0.090857	-0.098169
C51	C	1.113281	0.000101	0.377736
C52	C	1.115280	0.000100	0.477978
H53	H	0.622478	0.000094	0.319778
O54	O	0.928762	0.396640	0.380249
C55	C	0.873369	0.364541	0.532525
C56	C	0.944157	0.422305	0.470776
H57	H	0.885778	0.385285	0.605727
H58	H	0.884429	0.280447	0.522967
H59	H	0.797438	0.385179	0.514580
H60	H	1.020116	0.401751	0.488682
H61	H	0.933014	0.506384	0.480343
H62	H	1.301200	0.595352	0.055602
O63	O	0.611314	0.000052	0.093672
C64	C	0.468747	0.000114	0.007073
C65	C	0.511038	0.000147	0.101635
H66	H	0.387668	0.000212	0.013479
H67	H	0.493572	-0.069733	-0.031141
H68	H	0.493701	0.069917	-0.031132
H69	H	0.486103	-0.069609	0.139915
H70	H	0.486218	0.070040	0.139780
O71	O	0.993004	0.239213	0.324110
C72	C	0.865242	0.250315	0.435338
C73	C	0.936081	0.308020	0.373595
H74	H	0.819188	0.305921	0.475349
H75	H	0.906169	0.201169	0.483758
H76	H	0.817880	0.201125	0.392562
H77	H	0.983461	0.357265	0.416299
H78	H	0.895095	0.357102	0.325171
H79	H	0.938806	0.595391	0.371297
O80	O	0.992958	0.761125	0.323924
C81	C	0.828196	0.793228	0.363437
C82	C	0.899070	0.735462	0.301776
H83	H	0.752272	0.772485	0.345565
H84	H	0.839175	0.877321	0.353795
H85	H	0.840681	0.772590	0.436652
H86	H	0.886628	0.756017	0.228538
H87	H	0.888073	0.651383	0.311496
H88	H	1.301190	0.404821	0.055587
O89	O	1.246895	0.761034	0.102742
C90	C	1.302182	0.793231	-0.049549
C91	C	1.231371	0.735506	0.012207
H92	H	1.289642	0.772629	-0.122760
H93	H	1.378144	0.772558	-0.031739
H94	H	1.291137	0.877307	-0.039861
H95	H	1.242329	0.651416	0.002553
H96	H	1.155434	0.756263	-0.005617
H97	H	1.236783	0.247291	0.111684
H98	H	1.124548	-0.164922	-0.059830
H99	H	1.121729	-0.255867	-0.201094
H100	H	1.115483	-0.164908	-0.513272
O101	O	1.118125	-0.270067	-0.379519
C102	C	1.115278	-0.350675	-0.524622
C103	C	1.116335	-0.250652	-0.472770
H104	H	1.113851	-0.335012	-0.600026
H105	H	1.049347	-0.395545	-0.503245
H106	H	1.181929	-0.395523	-0.508977
H107	H	1.049729	-0.205722	-0.488389
H108	H	1.182310	-0.205858	-0.494153
O109	O	1.115413	0.179463	-0.520573
C110	C	1.196916	0.334915	-0.553050
C111	C	1.197923	0.234828	-0.501287
H112	H	1.263627	0.379697	-0.537491
H113	H	1.131039	0.379832	-0.531591
H114	H	1.195361	0.319275	-0.628451
H115	H	1.199511	0.250377	-0.425876
H116	H	1.263792	0.189942	-0.522821
O117	O	1.118051	0.270438	-0.379254
C118	C	1.118277	0.450864	-0.369329
C119	C	1.119351	0.350781	-0.317563
H120	H	1.119348	0.515848	-0.319475
H121	H	1.051093	0.455470	-0.410481
H122	H	1.183672	0.455363	-0.416368
H123	H	1.054003	0.346215	-0.270477
H124	H	1.186578	0.346218	-0.276470
H125	H	1.121660	0.256072	-0.201127
O126	O	1.124666	0.179484	-0.052574
C127	C	1.124332	0.359910	-0.062514
C128	C	1.123321	0.259825	-0.114271
H129	H	1.123225	0.424891	-0.112373
H130	H	1.191512	0.364555	-0.021359
H131	H	1.058933	0.364372	-0.015478
H132	H	1.188675	0.255295	-0.161354
H133	H	1.056099	0.255222	-0.155367
