data_functionalizedCrystal
_audit_creation_method	'MofGen! by Chris Wilmer'
_symmetry_space_group_name_H-M	'P1'
_symmetry_Int_Tables_number	1
_symmetry_cell_setting	triclinic
loop_
_symmetry_equiv_pos_as_xyz
  x,y,z
_cell_length_a	10.723024
_cell_length_b	12.996460
_cell_length_c	10.723022
_cell_angle_alpha	89.999097
_cell_angle_beta	84.467548
_cell_angle_gamma	90.005942
loop_
_atom_site_label
_atom_site_type_symbol
_atom_site_fract_x
_atom_site_fract_y
_atom_site_fract_z
O1	O	1.657192	0.085557	0.175019
O2	O	2.157192	0.585557	0.675019
O3	O	1.294039	0.085561	0.191772
O4	O	1.794039	0.585561	0.691772
O5	O	1.483993	0.085555	0.001819
O6	O	1.983993	0.585555	0.501819
O7	O	1.467238	0.085563	0.364972
O8	O	1.967238	0.585563	0.864972
O9	O	1.483968	-0.085579	0.001830
O10	O	1.983968	0.414421	0.501830
O11	O	1.294014	-0.085573	0.191783
O12	O	1.794014	0.414427	0.691783
O13	O	1.657167	-0.085576	0.175030
O14	O	2.157167	0.414424	0.675030
Cu15	Cu	1.475588	-0.101201	0.183407
Cu16	Cu	1.975588	0.398799	0.683407
Cu17	Cu	1.475618	0.101185	0.183395
Cu18	Cu	1.975618	0.601185	0.683395
O19	O	1.467213	-0.085571	0.364983
O20	O	1.967213	0.414429	0.864983
C21	C	1.247527	-0.000006	0.190558
C22	C	1.747527	0.499994	0.690558
C23	C	1.108973	-0.000005	0.186911
C24	C	1.608973	0.499995	0.686911
N25	N	1.475577	-0.243548	0.183416
N26	N	1.975577	0.256452	0.683416
C27	C	1.033990	-0.000002	0.293199
C28	C	1.533990	0.499998	0.793199
C29	C	0.890786	-0.000000	0.289431
C30	C	1.390786	0.500000	0.789431
C31	C	1.475583	-0.336654	0.183419
C32	C	1.975583	0.163346	0.683419
C33	C	1.475594	-0.453459	0.183411
C34	C	1.975594	0.046541	0.683411
C35	C	1.475610	-0.546557	0.183397
C36	C	1.975610	-0.046557	0.683397
C37	C	1.475623	-0.663370	0.183390
C38	C	1.975623	-0.163370	0.683390
C39	C	1.703679	-0.000008	0.176243
C40	C	2.203679	0.499992	0.676243
C41	C	1.842233	-0.000002	0.179891
C42	C	2.342233	0.499998	0.679891
C43	C	1.482762	-0.000011	-0.044675
C44	C	1.982762	0.499989	0.455325
C45	C	1.479115	-0.000007	-0.183229
C46	C	1.979115	0.499993	0.316771
N47	N	1.475639	0.243532	0.183376
N48	N	1.975639	0.743532	0.683376
C49	C	1.581631	-0.000003	-0.401408
C50	C	2.081631	0.499997	0.098592
C51	C	1.585403	-0.000006	-0.258205
C52	C	2.085403	0.499994	0.241795
C53	C	1.468444	-0.000003	0.411477
C54	C	1.968444	0.499997	0.911477
C55	C	1.472091	0.000000	0.550031
C56	C	1.972091	0.500000	1.050031
H57	H	1.075811	-0.000006	0.386984
H58	H	1.575811	0.499994	0.886984
Br59	Br	0.949611	0.000006	0.028219
Br60	Br	1.449611	0.500006	0.528219
Br61	Br	0.783401	0.000016	0.441098
Br62	Br	1.283401	0.500016	0.941098
H63	H	1.381103	-0.000007	-0.385526
H64	H	1.881103	0.499993	0.114474
H65	H	1.067151	0.000020	0.093125
H66	H	1.567151	0.500020	0.593125
Br67	Br	1.322782	0.000009	-0.252900
Br68	Br	1.822782	0.500009	0.247100
H69	H	1.672620	-0.000008	-0.465850
H70	H	2.172620	0.499992	0.034150
Br71	Br	1.741731	0.000002	-0.188526
Br72	Br	2.241731	0.500002	0.311474
