data_functionalizedCrystal
_audit_creation_method	'MofGen! by Chris Wilmer'
_symmetry_space_group_name_H-M	'P1'
_symmetry_Int_Tables_number	1
_symmetry_cell_setting	triclinic
loop_
_symmetry_equiv_pos_as_xyz
  x,y,z
_cell_length_a	16.625547
_cell_length_b	16.625545
_cell_length_c	21.395356
_cell_angle_alpha	89.974643
_cell_angle_beta	89.972180
_cell_angle_gamma	90.025495
loop_
_atom_site_label
_atom_site_type_symbol
_atom_site_fract_x
_atom_site_fract_y
_atom_site_fract_z
Zn1	Zn	1.232687	-0.321023	-0.354342
Zn2	Zn	1.232576	-0.455860	-0.249569
Zn3	Zn	1.097842	-0.321045	-0.249571
Zn4	Zn	1.097812	-0.455818	-0.354301
O5	O	1.165229	-0.388436	-0.301946
O6	O	1.345505	-0.338918	-0.340460
O7	O	1.214669	-0.438003	-0.161891
O8	O	1.115788	-0.208210	-0.263487
O9	O	1.345423	-0.437982	-0.263484
O10	O	1.214859	-0.208194	-0.340462
O11	O	1.115681	-0.338955	-0.161893
O12	O	0.985005	-0.338914	-0.263448
O13	O	1.115737	-0.437910	-0.441985
O14	O	0.984984	-0.437931	-0.340393
O15	O	1.214830	-0.338877	-0.442015
O16	O	1.214640	-0.568687	-0.263444
O17	O	1.115630	-0.568656	-0.340391
C18	C	0.955738	-0.388421	-0.301916
C19	C	0.866117	-0.388434	-0.301919
C20	C	0.793335	-0.388435	-0.301926
C21	C	0.702026	-0.388439	-0.301942
C22	C	0.629250	-0.388447	-0.301958
C23	C	0.537936	-0.388452	-0.301973
C24	C	1.165142	-0.597927	-0.301926
C25	C	1.165178	-0.687548	-0.301939
C26	C	1.165209	-0.760331	-0.301951
C27	C	1.165256	-0.851639	-0.301965
C28	C	1.165298	-0.924416	-0.301973
C29	C	1.165344	-1.015730	-0.301986
C30	C	1.375538	-0.388453	-0.301976
C31	C	1.465159	-0.388460	-0.301989
C32	C	1.165293	-0.388387	-0.465369
C33	C	1.165320	-0.388365	-0.535011
C34	C	1.165339	-0.178128	-0.301980
C35	C	1.165386	-0.088506	-0.301994
C36	C	1.113790	-0.336785	-0.567715
C37	C	1.113787	-0.336770	-0.633150
C38	C	1.165329	-0.388327	-0.665879
C39	C	1.216862	-0.439917	-0.633167
C40	C	1.216857	-0.439936	-0.567733
C41	C	1.237977	-0.394666	-0.769570
C42	C	1.237983	-0.394641	-0.835003
C43	C	1.165342	-0.388272	-0.867700
C44	C	1.092693	-0.381911	-0.834956
C45	C	1.092688	-0.381931	-0.769522
C46	C	1.165339	-0.388312	-0.736831
C47	C	1.113805	-0.336673	-0.971357
C48	C	1.113801	-0.336664	-1.036793
C49	C	1.216882	-0.439807	-1.036809
C50	C	1.216879	-0.439820	-0.971373
C51	C	1.165342	-0.388249	-0.938651
C52	C	1.165212	-0.388428	-0.139158
C53	C	1.165342	-0.388222	-0.069518
H54	H	1.071821	-0.294795	-0.541076
H55	H	1.033535	-0.376753	-0.742864
H56	H	1.071827	-0.294763	-0.659783
H57	H	1.258822	-0.481938	-0.541105
C58	C	1.012781	-0.374929	-0.870914
H59	H	1.023184	-0.375844	-0.914573
H60	H	0.987009	-0.325849	-0.860198
H61	H	0.978856	-0.418804	-0.860162
C62	C	1.057099	-0.279968	-0.935360
H63	H	1.026396	-0.249257	-0.964211
H64	H	1.087948	-0.244840	-0.909847
H65	H	1.021952	-0.310832	-0.909820
H66	H	1.071833	-0.294664	-1.063420
H67	H	1.297138	-0.399817	-0.861658
H68	H	1.258850	-0.481784	-1.063456
H69	H	1.297135	-0.399846	-0.742953
H70	H	1.258842	-0.481820	-0.944745
C71	C	1.273558	-0.496625	-0.669166
H72	H	1.266187	-0.489220	-0.712821
H73	H	1.261731	-0.550803	-0.658431
H74	H	1.327741	-0.484826	-0.658460
