data_functionalizedCrystal
_audit_creation_method	'MofGen! by Chris Wilmer'
_symmetry_space_group_name_H-M	'P1'
_symmetry_Int_Tables_number	1
_symmetry_cell_setting	triclinic
loop_
_symmetry_equiv_pos_as_xyz
  x,y,z
_cell_length_a	12.759395
_cell_length_b	12.594516
_cell_length_c	12.759387
_cell_angle_alpha	89.970353
_cell_angle_beta	89.981185
_cell_angle_gamma	90.017589
loop_
_atom_site_label
_atom_site_type_symbol
_atom_site_fract_x
_atom_site_fract_y
_atom_site_fract_z
Zn1	Zn	1.606241	-0.423630	-0.594022
Zn2	Zn	1.606133	-0.601651	-0.418349
Zn3	Zn	1.430545	-0.423692	-0.418359
Zn4	Zn	1.430528	-0.601572	-0.593989
O5	O	1.518362	-0.512636	-0.506180
O6	O	1.753248	-0.447252	-0.570729
O7	O	1.582803	-0.578103	-0.271330
O8	O	1.453904	-0.274738	-0.441679
O9	O	1.753168	-0.578044	-0.441663
O10	O	1.582987	-0.274693	-0.570738
O11	O	1.453799	-0.447357	-0.271336
O12	O	1.283521	-0.447281	-0.441646
O13	O	1.453875	-0.577909	-0.741014
O14	O	1.283509	-0.577968	-0.570681
O15	O	1.582971	-0.447176	-0.741039
O16	O	1.582786	-0.750586	-0.441631
O17	O	1.453770	-0.750528	-0.570672
C18	C	1.245394	-0.512623	-0.506162
C19	C	1.128617	-0.512643	-0.506179
C20	C	1.128643	-0.648949	-0.640325
C21	C	1.073795	-0.717110	-0.707401
C22	C	0.964073	-0.717123	-0.707414
C23	C	0.909197	-0.648965	-0.640346
C24	C	0.964045	-0.580804	-0.573270
C25	C	1.073769	-0.580801	-0.573262
C26	C	0.964020	-0.444495	-0.439130
C27	C	1.073741	-0.444486	-0.439111
C28	C	0.909144	-0.376337	-0.372062
C29	C	0.963992	-0.308180	-0.304979
C30	C	1.073720	-0.308171	-0.304968
C31	C	1.128589	-0.376325	-0.372034
C32	C	1.518293	-0.789177	-0.506169
C33	C	1.518359	-0.907483	-0.506200
C34	C	1.448181	-0.976743	-0.576336
C35	C	1.422582	-1.047615	-0.480469
C36	C	1.544054	-1.047410	-0.602083
C37	C	1.492710	-0.976796	-0.410282
C38	C	1.614226	-0.976585	-0.531961
C39	C	1.588664	-1.047425	-0.436028
C40	C	1.792395	-0.512650	-0.506198
C41	C	1.909172	-0.512656	-0.506206
C42	C	1.518433	-0.512526	-0.780213
C43	C	1.518463	-0.512479	-0.896990
C44	C	1.518459	-0.235015	-0.506213
C45	C	1.518501	-0.116710	-0.506227
C46	C	1.384140	-0.376325	-0.897016
C47	C	1.316998	-0.308226	-0.951890
C48	C	1.317029	-0.308187	-1.061612
C49	C	1.384208	-0.376257	-1.116462
C50	C	1.451351	-0.444356	-1.061588
C51	C	1.451314	-0.444385	-0.951864
C52	C	1.585667	-0.580515	-1.061562
C53	C	1.585642	-0.580549	-0.951840
C54	C	1.652845	-0.648584	-1.116413
C55	C	1.719995	-0.716679	-1.061539
C56	C	1.719961	-0.716714	-0.951810
C57	C	1.652784	-0.648648	-0.896967
C58	C	1.518351	-0.512669	-0.233212
C59	C	1.518524	-0.512416	-0.116436
H60	H	1.118371	-0.252658	-0.250354
C61	C	1.243888	-0.234458	-0.892390
C62	C	1.139935	-0.257631	-0.919052
C63	C	1.072554	-0.189712	-0.864255
H64	H	1.259160	-0.162901	-0.910340
H65	H	1.253413	-0.244241	-0.819175
H66	H	1.130414	-0.247839	-0.992251
H67	H	1.124630	-0.329176	-0.901100
H68	H	1.082080	-0.199495	-0.791039
H69	H	1.087836	-0.118158	-0.882208
H70	H	1.002014	-0.205431	-0.882329
H71	H	1.652754	-0.648666	-0.807625
H72	H	1.217930	-0.376327	-0.372029
C73	C	1.792964	-0.790692	-1.120900
C74	C	1.851748	-0.850352	-1.049364
C75	C	1.918970	-0.918554	-1.104013
H76	H	1.838859	-0.750088	-1.163722
H77	H	1.752786	-0.837109	-1.163664
H78	H	1.891923	-0.803942	-1.006618
H79	H	1.805880	-0.890978	-1.006540
H80	H	1.878792	-0.964970	-1.146777
H81	H	1.964858	-0.877941	-1.146833
H82	H	1.958856	-0.959048	-1.055485
H83	H	1.565729	-1.078428	-0.683160
H84	H	1.384116	-0.376341	-0.807675
C85	C	1.244303	-0.234193	-1.121330
C86	C	1.303843	-0.165981	-1.184356
C87	C	1.236883	-0.097814	-1.239393
H88	H	1.204263	-0.193558	-1.073075
H89	H	1.198541	-0.274862	-1.164185
H90	H	1.349586	-0.125315	-1.141504
H91	H	1.343881	-0.206586	-1.232631
H92	H	1.191122	-0.138483	-1.282249
H93	H	1.196846	-0.057187	-1.191130
H94	H	1.277270	-0.051531	-1.282170
H95	H	0.919416	-0.772620	-0.762038
H96	H	1.341575	-1.078837	-0.458703
H97	H	1.388727	-0.945706	-0.635562
H98	H	0.819856	-0.648972	-0.640371
H99	H	1.648073	-1.078265	-0.376659
H100	H	1.118487	-0.772600	-0.762008
C101	C	0.790017	-0.376153	-0.372182
C102	C	0.753740	-0.274866	-0.399193
C103	C	0.644007	-0.274661	-0.399323
H104	H	0.765034	-0.394406	-0.304387
H105	H	0.765169	-0.426461	-0.421764
H106	H	0.778577	-0.224574	-0.349614
H107	H	0.778694	-0.256592	-0.466988
H108	H	0.619159	-0.324969	-0.448905
H109	H	0.619034	-0.292918	-0.331526
H110	H	0.619379	-0.205943	-0.417659
C111	C	1.463645	-0.935411	-0.302231
C112	C	1.463840	-0.824248	-0.303496
C113	C	1.437053	-0.786085	-0.203986
H114	H	1.513192	-0.960064	-0.252290
H115	H	1.395780	-0.960264	-0.283819
H116	H	1.531695	-0.799405	-0.321895
H117	H	1.414292	-0.799567	-0.353416
H118	H	1.369187	-0.810938	-0.185575
H119	H	1.486602	-0.810745	-0.154053
H120	H	1.437172	-0.710658	-0.204834
H121	H	1.384218	-0.376229	-1.205803
C122	C	1.722178	-0.935004	-0.561257
C123	C	1.748602	-0.970694	-0.661753
C124	C	1.848033	-0.932396	-0.688794
H125	H	1.772364	-0.960231	-0.512242
H126	H	1.721509	-0.859577	-0.560462
H127	H	1.749279	-1.046105	-0.662541
H128	H	1.698443	-0.945469	-0.710790
H129	H	1.847364	-0.856970	-0.687998
H130	H	1.898209	-0.957627	-0.639773
H131	H	1.865970	-0.956599	-0.756986
H132	H	1.217984	-0.648953	-0.640314
H133	H	1.652861	-0.648553	-1.205754
H134	H	1.774640	-0.772165	-0.907138
H135	H	0.919303	-0.252687	-0.250383
