data_functionalizedCrystal
_audit_creation_method	'MofGen! by Chris Wilmer'
_symmetry_space_group_name_H-M	'P1'
_symmetry_Int_Tables_number	1
_symmetry_cell_setting	triclinic
loop_
_symmetry_equiv_pos_as_xyz
  x,y,z
_cell_length_a	12.811438
_cell_length_b	10.868271
_cell_length_c	12.837942
_cell_angle_alpha	90.000785
_cell_angle_beta	89.413151
_cell_angle_gamma	84.571681
loop_
_atom_site_label
_atom_site_type_symbol
_atom_site_fract_x
_atom_site_fract_y
_atom_site_fract_z
O1	O	1.406631	-0.054663	0.139706
O2	O	1.102569	-0.020726	0.154889
O3	O	1.247858	-0.036950	-0.003635
O4	O	1.261342	-0.038439	0.298229
O5	O	1.247844	-0.241593	-0.003629
O6	O	1.102555	-0.225369	0.154894
O7	O	1.406617	-0.259306	0.139711
Zn8	Zn	1.254584	-0.274829	0.147303
Zn9	Zn	1.254602	-0.005203	0.147297
O10	O	1.261328	-0.243083	0.298235
C11	C	1.063373	-0.118674	0.154040
C12	C	0.946602	-0.105641	0.151489
C13	C	0.782022	0.024265	0.147891
C14	C	0.891739	0.012030	0.150287
C15	C	0.891739	-0.211085	0.150292
C16	C	0.782022	-0.198850	0.147896
C17	C	0.727167	-0.081171	0.146697
C18	C	0.617447	-0.068937	0.144308
C19	C	0.617449	-0.292050	0.144306
C20	C	0.727166	-0.304286	0.146702
N21	N	1.254579	-0.458843	0.147307
C22	C	1.254587	-0.570181	0.147308
C23	C	1.254600	-0.709860	0.147298
C24	C	1.445813	-0.161356	0.140560
C25	C	1.562585	-0.174380	0.143111
C26	C	1.243296	-0.138762	-0.042272
C27	C	1.229710	-0.137244	-0.157408
N28	N	1.254615	0.178810	0.147284
C29	C	1.393038	-0.155447	-0.397659
C30	C	1.380277	-0.154021	-0.505840
C31	C	1.191430	-0.132956	-0.481954
C32	C	1.204190	-0.134382	-0.373773
C33	C	1.304997	-0.145630	-0.331630
C34	C	1.317757	-0.147065	-0.223446
C35	C	1.128910	-0.125992	-0.199562
C36	C	1.116149	-0.124565	-0.307743
C37	C	1.265891	-0.141267	0.336872
C38	C	1.279477	-0.142778	0.452008
H39	H	0.572786	0.026883	0.143337
H40	H	0.737358	0.120084	0.146926
F41	F	0.950137	-0.336317	0.151566
F42	F	1.473983	-0.164466	-0.576111
H43	H	1.034075	-0.115403	-0.342071
H44	H	0.771844	-0.400096	0.147674
H45	H	0.936398	0.097887	0.151259
F46	F	0.559060	-0.404270	0.143042
H47	H	1.399839	-0.156228	-0.189136
H48	H	1.109357	-0.123786	-0.516286
H49	H	1.475119	-0.164618	-0.363346
F50	F	1.035205	-0.115556	-0.129280
