data_functionalizedCrystal
_audit_creation_method	'MofGen! by Chris Wilmer'
_symmetry_space_group_name_H-M	'P1'
_symmetry_Int_Tables_number	1
_symmetry_cell_setting	triclinic
loop_
_symmetry_equiv_pos_as_xyz
  x,y,z
_cell_length_a	10.489741
_cell_length_b	14.519731
_cell_length_c	12.996460
_cell_angle_alpha	89.992872
_cell_angle_beta	89.997126
_cell_angle_gamma	84.114014
loop_
_atom_site_label
_atom_site_type_symbol
_atom_site_fract_x
_atom_site_fract_y
_atom_site_fract_z
O1	O	1.692713	0.130115	-0.085506
O2	O	1.321391	0.142328	-0.085522
O3	O	1.516883	0.002038	-0.085504
O4	O	1.497221	0.270405	-0.085524
O5	O	1.516863	0.002030	0.085630
O6	O	1.321371	0.142320	0.085612
O7	O	1.692693	0.130107	0.085628
Cu8	Cu	1.507030	0.136213	0.101246
Cu9	Cu	1.507054	0.136222	-0.101140
O10	O	1.497201	0.270397	0.085610
C11	C	1.273859	0.141402	0.000043
C12	C	1.132258	0.138642	0.000037
C13	C	1.515951	-0.032330	0.000063
C14	C	1.513191	-0.134726	0.000063
C15	C	1.510948	-0.217882	0.000061
C16	C	1.508145	-0.322206	0.000053
C17	C	1.505920	-0.405357	0.000046
C18	C	1.503117	-0.509688	0.000040
C19	C	1.065039	0.049379	0.000053
C20	C	0.972487	0.091550	-0.084326
C21	C	0.972501	0.091564	0.084399
C22	C	1.041571	0.180849	-0.084412
C23	C	1.041594	0.180850	0.084389
C24	C	0.949069	0.223086	-0.000011
C25	C	1.740225	0.131033	0.000061
C26	C	1.881826	0.133793	0.000060
C27	C	1.498132	0.304766	0.000041
C28	C	1.500893	0.407161	0.000033
N29	N	1.507022	0.136206	0.243593
N30	N	1.507072	0.136222	-0.243487
C31	C	1.507052	0.136223	0.663407
C32	C	1.507040	0.136221	0.546602
C33	C	1.507038	0.136215	0.453504
C34	C	1.507024	0.136212	0.336691
H35	H	1.115486	-0.024000	-0.000047
O36	O	0.936100	0.046588	-0.169533
C37	C	0.972986	0.092914	-0.258357
H38	H	1.055615	0.135042	-0.238689
H39	H	0.888261	0.141164	-0.287831
C40	C	0.914626	-0.030313	-0.366291
C41	C	1.016120	0.021424	-0.342137
H42	H	0.941228	-0.074409	-0.417974
H43	H	0.889770	-0.061522	-0.306450
H44	H	0.844031	0.009905	-0.390848
H45	H	1.086707	-0.018793	-0.317570
H46	H	1.040989	0.052625	-0.401977
O47	O	1.078019	0.225961	-0.169510
C48	C	1.138992	0.303802	-0.139410
H49	H	1.178073	0.292963	-0.057981
H50	H	1.066954	0.368144	-0.141442
C51	C	1.202113	0.329871	-0.313794
C52	C	1.250123	0.316554	-0.213785
H53	H	1.270660	0.337741	-0.359674
H54	H	1.161030	0.277430	-0.334074
H55	H	1.142081	0.383488	-0.315473
H56	H	1.310141	0.262932	-0.212105
H57	H	1.291219	0.368987	-0.193506
H58	H	0.941904	0.053775	0.155735
O59	O	0.889249	0.310732	-0.000249
C60	C	0.924488	0.357445	-0.089320
H61	H	0.957632	0.304722	-0.151217
H62	H	1.005809	0.400920	-0.070001
C63	C	0.767648	0.485719	-0.053080
C64	C	0.808346	0.420964	-0.129105
H65	H	0.696009	0.524904	-0.077619
H66	H	0.743909	0.454250	0.006932
H67	H	0.835426	0.521939	-0.036987
H68	H	0.740574	0.384738	-0.145187
H69	H	0.832071	0.452429	-0.189120
O70	O	1.078385	0.225880	0.169408
C71	C	1.212348	0.228562	0.167709
H72	H	1.248429	0.220551	0.085130
H73	H	1.260139	0.169677	0.216700
C74	C	1.201070	0.331695	0.312651
C75	C	1.245384	0.321864	0.211225
H76	H	1.221450	0.389246	0.339497
H77	H	1.110817	0.329886	0.313798
H78	H	1.240900	0.282619	0.353463
H79	H	1.205542	0.370932	0.170412
H80	H	1.335631	0.323683	0.210071
