data_functionalizedCrystal
_audit_creation_method	'MofGen! by Chris Wilmer'
_symmetry_space_group_name_H-M	'P1'
_symmetry_Int_Tables_number	1
_symmetry_cell_setting	triclinic
loop_
_symmetry_equiv_pos_as_xyz
  x,y,z
_cell_length_a	10.540510
_cell_length_b	10.654550
_cell_length_c	9.130313
_cell_angle_alpha	89.999890
_cell_angle_beta	89.999498
_cell_angle_gamma	84.499107
loop_
_atom_site_label
_atom_site_type_symbol
_atom_site_fract_x
_atom_site_fract_y
_atom_site_fract_z
O1	O	1.685838	0.176808	-0.121804
O2	O	1.316415	0.193524	-0.121805
O3	O	1.509620	0.002429	-0.121799
O4	O	1.492633	0.367903	-0.121810
O5	O	1.509618	0.002434	0.121800
O6	O	1.316412	0.193529	0.121794
O7	O	1.685836	0.176814	0.121794
Cu8	Cu	1.501124	0.185172	0.144037
Cu9	Cu	1.501127	0.185165	-0.144047
O10	O	1.492630	0.367908	0.121789
C11	C	1.508372	-0.044367	-0.000002
C12	C	1.504640	-0.183811	-0.000007
C13	C	1.269110	0.192280	-0.000006
C14	C	1.128162	0.188554	-0.000006
C15	C	1.618396	-0.263269	-0.000002
C16	C	1.614882	-0.394290	-0.000012
C17	C	1.383845	-0.366384	-0.000026
C18	C	1.387361	-0.235365	-0.000026
C19	C	1.751784	-0.279381	0.000012
C20	C	1.748270	-0.410403	0.000002
C21	C	0.910658	0.321307	-0.000569
C22	C	1.057253	0.325282	-0.000012
C23	C	1.083426	0.118565	0.139100
C24	C	0.936666	0.115559	0.139207
C25	C	0.936863	0.112705	-0.137810
C26	C	1.083202	0.119190	-0.139640
C27	C	1.733140	0.178057	-0.000008
C28	C	1.874089	0.181783	-0.000018
C29	C	1.493879	0.414704	-0.000012
C30	C	1.497611	0.554148	-0.000017
N31	N	1.501131	0.185175	0.346659
N32	N	1.501129	0.185152	-0.346670
C33	C	1.586705	0.100587	0.423314
C34	C	1.586701	0.100572	0.576651
C35	C	1.415547	0.269744	0.576665
C36	C	1.415545	0.269752	0.423331
C37	C	1.685523	0.002921	0.423307
C38	C	1.685520	0.002906	0.576644
H39	H	1.294729	-0.170674	-0.000050
H40	H	1.086580	0.380035	-0.099732
H41	H	1.798527	-0.452149	0.101945
Cl42	Cl	1.827814	0.050198	0.349867
H43	H	1.345864	0.338603	0.639107
H44	H	1.803957	-0.250013	-0.101927
H45	H	1.288360	-0.408375	-0.000043
Cl46	Cl	0.902724	-0.045787	-0.139255
Cl47	Cl	0.843456	0.403085	0.152571
Cl48	Cl	1.637892	-0.137936	0.650069
H49	H	1.783073	0.024449	0.618260
H50	H	1.794258	-0.243742	0.105193
Cl51	Cl	1.810507	-0.480871	-0.162380
H52	H	0.868687	0.374572	-0.100331
Cl53	Cl	1.101084	0.410327	0.154205
Cl54	Cl	1.156632	-0.036847	0.147091
Cl55	Cl	1.159002	-0.034935	-0.152602
Cl56	Cl	0.874540	0.189417	0.299740
Cl57	Cl	0.901212	-0.042320	0.149055
H58	H	1.114261	0.167175	0.242619
H59	H	0.894301	0.155821	-0.243245
H60	H	1.111803	0.170113	-0.242549
Cl61	Cl	1.652059	-0.146120	0.359041
Cl62	Cl	1.307947	0.376076	0.326964
