data_functionalizedCrystal
_audit_creation_method	'MofGen! by Chris Wilmer'
_symmetry_space_group_name_H-M	'P1'
_symmetry_Int_Tables_number	1
_symmetry_cell_setting	triclinic
loop_
_symmetry_equiv_pos_as_xyz
  x,y,z
_cell_length_a	12.759401
_cell_length_b	12.759400
_cell_length_c	12.827885
_cell_angle_alpha	89.969506
_cell_angle_beta	89.981745
_cell_angle_gamma	90.014845
loop_
_atom_site_label
_atom_site_type_symbol
_atom_site_fract_x
_atom_site_fract_y
_atom_site_fract_z
Zn1	Zn	1.606253	-0.418211	-0.590810
Zn2	Zn	1.606148	-0.593927	-0.416068
Zn3	Zn	1.430556	-0.418263	-0.416087
Zn4	Zn	1.430544	-0.593849	-0.590772
O5	O	1.518375	-0.506062	-0.503434
O6	O	1.753260	-0.441531	-0.567638
O7	O	1.582817	-0.570678	-0.269834
O8	O	1.453911	-0.271235	-0.439289
O9	O	1.753183	-0.570628	-0.439256
O10	O	1.582995	-0.271197	-0.567657
O11	O	1.453810	-0.441619	-0.269849
O12	O	1.283533	-0.441544	-0.439252
O13	O	1.453891	-0.570496	-0.737013
O14	O	1.283524	-0.570546	-0.567591
O15	O	1.582984	-0.441456	-0.737041
O16	O	1.582805	-0.740937	-0.439219
O17	O	1.453789	-0.740880	-0.567573
C18	C	1.245408	-0.506043	-0.503420
C19	C	1.128631	-0.506060	-0.503439
C20	C	1.073792	-0.573339	-0.570155
C21	C	0.964068	-0.573352	-0.570166
C22	C	0.964032	-0.438804	-0.436736
C23	C	1.073754	-0.438787	-0.436731
C24	C	1.128669	-0.640612	-0.636862
C25	C	1.073830	-0.707898	-0.703583
C26	C	0.964106	-0.707911	-0.703594
C27	C	0.909221	-0.640639	-0.636885
C28	C	1.518313	-0.779030	-0.503412
C29	C	1.518382	-0.895806	-0.503438
C30	C	1.585635	-0.950663	-0.436678
C31	C	1.585700	-1.060387	-0.436710
C32	C	1.451249	-1.060388	-0.570265
C33	C	1.451191	-0.950666	-0.570238
C34	C	1.652827	-0.895804	-0.369878
C35	C	1.720084	-0.950660	-0.303112
C36	C	1.720149	-1.060384	-0.303144
C37	C	1.652956	-1.115252	-0.369943
C38	C	1.792408	-0.506082	-0.503449
C39	C	1.909185	-0.506091	-0.503455
C40	C	1.518448	-0.505961	-0.776005
C41	C	1.518478	-0.505918	-0.892158
C42	C	1.518466	-0.232029	-0.503479
C43	C	1.518505	-0.115252	-0.503498
C44	C	1.454662	-0.442043	-0.943949
C45	C	1.454692	-0.441997	-1.064000
C46	C	1.518363	-0.506087	-0.231924
C47	C	1.518536	-0.505834	-0.115772
H48	H	0.919459	-0.762690	-0.757929
H49	H	1.653022	-1.204596	-0.369972
C50	C	1.852992	-0.961681	-0.171105
C51	C	1.793943	-0.890356	-0.229692
H52	H	1.898594	-0.924452	-0.125783
H53	H	1.807262	-1.004547	-0.131110
H54	H	1.893179	-1.004406	-0.216693
H55	H	1.753750	-0.847636	-0.184103
H56	H	1.839679	-0.847473	-0.269690
C57	C	0.752062	-0.713858	-0.709599
C58	C	0.788610	-0.640616	-0.636934
H59	H	0.677603	-0.713839	-0.709632
H60	H	0.776947	-0.695773	-0.777044
H61	H	0.776836	-0.781638	-0.691391
H62	H	0.763841	-0.572834	-0.655147
H63	H	0.763714	-0.658695	-0.569475
H64	H	1.400000	-0.387396	-0.899413
H65	H	0.919336	-0.384036	-0.382424
H66	H	1.396543	-1.105069	-0.624649
H67	H	1.396428	-0.906001	-0.624601
C68	C	1.313512	-0.427462	-1.186854
C69	C	1.380925	-0.368171	-1.124113
H70	H	1.267965	-0.381882	-1.223960
H71	H	1.353571	-0.467491	-1.234894
H72	H	1.273268	-0.473211	-1.144252
H73	H	1.421174	-0.322427	-1.166716
H74	H	1.340861	-0.328124	-1.076067
C75	C	1.532941	-0.647097	-0.992892
C76	C	1.592298	-0.579669	-1.055662
H77	H	1.578480	-0.692683	-0.955783
H78	H	1.492896	-0.607051	-0.944854
H79	H	1.487205	-0.687299	-1.035474
H80	H	1.638029	-0.539462	-1.013078
H81	H	1.632361	-0.619719	-1.103705
C82	C	1.285869	-0.713848	-0.709493
C83	C	1.249279	-0.640596	-0.636854
H84	H	1.360327	-0.713832	-0.709489
H85	H	1.261034	-0.781616	-0.691298
H86	H	1.261072	-0.695761	-0.776961
H87	H	1.274069	-0.658687	-0.569385
H88	H	1.274124	-0.572814	-0.655044
C89	C	1.062706	-0.305817	-0.304818
C90	C	1.134041	-0.364847	-0.363382
H91	H	1.099927	-0.260174	-0.259531
H92	H	1.019938	-0.265682	-0.350415
H93	H	1.019884	-0.351563	-0.264777
H94	H	1.176858	-0.319100	-0.403430
H95	H	1.176827	-0.404984	-0.317780
H96	H	1.118524	-0.762661	-0.757902
H97	H	1.573135	-0.560571	-0.936694
H98	H	1.652779	-0.806461	-0.369842
C99	C	1.861625	-1.183580	-0.288865
C100	C	1.794151	-1.120645	-0.229800
H101	H	1.907334	-1.220763	-0.243591
H102	H	1.821621	-1.231985	-0.328601
H103	H	1.901693	-1.140667	-0.334447
H104	H	1.754078	-1.163559	-0.184223
H105	H	1.834160	-1.072234	-0.190046
