data_functionalizedCrystal
_audit_creation_method	'MofGen! by Chris Wilmer'
_symmetry_space_group_name_H-M	'P1'
_symmetry_Int_Tables_number	1
_symmetry_cell_setting	triclinic
loop_
_symmetry_equiv_pos_as_xyz
  x,y,z
_cell_length_a	17.699097
_cell_length_b	17.699083
_cell_length_c	16.176319
_cell_angle_alpha	90.007696
_cell_angle_beta	89.988988
_cell_angle_gamma	96.714278
loop_
_atom_site_label
_atom_site_type_symbol
_atom_site_fract_x
_atom_site_fract_y
_atom_site_fract_z
O1	O	1.004072	-0.095761	-0.068817
O2	O	0.783695	-0.108203	-0.068804
O3	O	0.900110	0.008207	-0.068803
O4	O	0.887658	-0.212171	-0.068817
O5	O	0.900094	0.008214	0.068690
O6	O	0.783679	-0.108195	0.068690
O7	O	1.004056	-0.095754	0.068676
Cu8	Cu	0.893867	-0.101974	0.081237
Cu9	Cu	0.893885	-0.101983	-0.081364
O10	O	0.887642	-0.212163	0.068676
C11	C	0.755491	-0.107752	-0.000055
C12	C	0.671473	-0.106409	-0.000050
C13	C	0.155764	-0.098184	-0.075030
C14	C	0.234708	-0.099440	-0.075026
C15	C	0.274165	-0.100065	-0.000076
C16	C	0.234675	-0.099427	0.074876
C17	C	0.155733	-0.098165	0.074871
C18	C	0.553039	-0.104514	0.074898
C19	C	0.631986	-0.105778	0.074897
C20	C	0.632014	-0.105789	-0.075000
C21	C	0.553072	-0.104527	-0.075005
C22	C	0.513589	-0.103885	-0.000054
C23	C	0.427989	-0.102521	-0.000059
C24	C	0.359763	-0.101434	-0.000069
C25	C	0.899656	0.036408	-0.000057
C26	C	0.898317	0.120426	-0.000056
C27	C	1.032261	-0.096205	-0.000074
C28	C	1.116279	-0.097547	-0.000084
C29	C	0.888096	-0.240364	-0.000073
C30	C	0.889435	-0.324382	-0.000078
N31	N	0.893859	-0.101967	0.195602
C32	C	0.966650	0.169044	-0.000059
C33	C	0.965388	0.247987	-0.000066
C34	C	0.895792	0.278311	-0.000065
C35	C	0.827454	0.229687	-0.000064
C36	C	0.828717	0.150745	-0.000063
C37	C	0.822359	0.548050	-0.000071
C38	C	0.821101	0.626998	-0.000070
C39	C	0.959030	0.645292	-0.000074
C40	C	0.960293	0.566350	-0.000073
C41	C	0.891955	0.517733	-0.000077
C42	C	0.893325	0.432134	-0.000070
C43	C	0.894422	0.363909	-0.000065
N44	N	0.893899	-0.101983	-0.195730
C45	C	0.945423	-0.050442	0.238867
C46	C	0.945426	-0.050441	0.325414
C47	C	0.893869	-0.101970	0.368695
C48	C	0.842300	-0.153498	0.325425
C49	C	0.842293	-0.153494	0.238879
C50	C	0.842326	-0.153512	0.674453
C51	C	0.842338	-0.153513	0.761004
C52	C	0.945459	-0.050459	0.760988
C53	C	0.945452	-0.050455	0.674442
C54	C	0.893881	-0.101980	0.631179
C55	C	0.893876	-0.101979	0.537335
C56	C	0.893877	-0.101975	0.462538
H57	H	0.266853	-0.099954	-0.136055
H58	H	0.520949	-0.104022	-0.136038
C59	C	1.002133	0.006259	0.373001
N60	N	1.044840	0.048975	0.408843
C61	C	0.112300	-0.097468	0.157318
N62	N	0.079587	-0.096942	0.219419
H63	H	0.123642	-0.097680	-0.136064
C64	C	0.785575	-0.210182	0.191289
N65	N	0.742853	-0.252882	0.155445
H66	H	1.021032	0.287569	-0.000067
C67	C	0.785614	-0.210196	0.808612
N68	N	0.742891	-0.252887	0.844470
C69	C	1.002140	0.006245	0.191265
N70	N	1.044859	0.048946	0.155414
H71	H	0.987437	-0.008498	0.639205
H72	H	0.987450	-0.008502	0.796221
H73	H	1.014674	0.684886	-0.000075
C74	C	0.675453	-0.106486	-0.157449
N75	N	0.708170	-0.107011	-0.219548
C76	C	0.675389	-0.106459	0.157353
N77	N	0.708079	-0.106971	0.219455
C78	C	0.785694	-0.210288	0.626875
N79	N	0.743070	-0.253091	0.591037
H80	H	0.800318	-0.195451	0.360669
C81	C	0.744536	0.660352	-0.000075
N82	N	0.686871	0.685475	-0.000079
H83	H	0.520903	-0.103980	0.135928
H84	H	0.266808	-0.099931	0.135903
C85	C	0.750897	0.263046	-0.000056
N86	N	0.693233	0.288172	-0.000043
C87	C	1.036854	0.532999	-0.000075
N88	N	1.094521	0.507880	-0.000080
H89	H	1.023323	0.144360	-0.000055
H90	H	0.766714	0.508475	-0.000074
C91	C	0.753545	0.097266	-0.000058
N92	N	0.696923	0.056985	-0.000056
