data_functionalizedCrystal
_audit_creation_method	'MofGen! by Chris Wilmer'
_symmetry_space_group_name_H-M	'P1'
_symmetry_Int_Tables_number	1
_symmetry_cell_setting	triclinic
loop_
_symmetry_equiv_pos_as_xyz
  x,y,z
_cell_length_a	17.077404
_cell_length_b	12.827892
_cell_length_c	17.077396
_cell_angle_alpha	89.975123
_cell_angle_beta	89.980499
_cell_angle_gamma	90.015617
loop_
_atom_site_label
_atom_site_type_symbol
_atom_site_fract_x
_atom_site_fract_y
_atom_site_fract_z
Zn1	Zn	1.200096	-0.416027	-0.443862
Zn2	Zn	1.200020	-0.590789	-0.312605
Zn3	Zn	1.068827	-0.416063	-0.312610
Zn4	Zn	1.068812	-0.590727	-0.443828
O5	O	1.134439	-0.503402	-0.378226
O6	O	1.309932	-0.439220	-0.426463
O7	O	1.182591	-0.567653	-0.202758
O8	O	1.086278	-0.269823	-0.330038
O9	O	1.309877	-0.567617	-0.330028
O10	O	1.182720	-0.269796	-0.426468
O11	O	1.086205	-0.439282	-0.202763
O12	O	0.958978	-0.439222	-0.330005
O13	O	1.086253	-0.567511	-0.553680
O14	O	0.958968	-0.567547	-0.426410
O15	O	1.182706	-0.439160	-0.553705
O16	O	1.182577	-0.737017	-0.329995
O17	O	1.086179	-0.736971	-0.426404
C18	C	0.930491	-0.503383	-0.378205
C19	C	0.843241	-0.503400	-0.378214
C20	C	0.802266	-0.570319	-0.428332
C21	C	0.720285	-0.570321	-0.428344
C22	C	0.679282	-0.503409	-0.378235
C23	C	0.720263	-0.436482	-0.328115
C24	C	0.802242	-0.436475	-0.328107
C25	C	0.549393	-0.436502	-0.328134
C26	C	0.467408	-0.436510	-0.328140
C27	C	0.467436	-0.570349	-0.428371
C28	C	0.549415	-0.570342	-0.428363
C29	C	0.590391	-0.503416	-0.378242
C30	C	1.134390	-0.774912	-0.378213
C31	C	1.134440	-0.891065	-0.378233
C32	C	1.182198	-0.942837	-0.330579
C33	C	1.182251	-1.062888	-0.330599
C34	C	1.339183	-0.503421	-0.378249
C35	C	1.426433	-0.503430	-0.378258
C36	C	1.134486	-0.503325	-0.582971
C37	C	1.134506	-0.503292	-0.670221
C38	C	1.134509	-0.230831	-0.378257
C39	C	1.134540	-0.114678	-0.378271
C40	C	1.184731	-0.436454	-0.711225
C41	C	1.184741	-0.436419	-0.793206
C42	C	1.134529	-0.503228	-0.834180
C43	C	1.084298	-0.570069	-0.793170
C44	C	1.084285	-0.570098	-0.711191
C45	C	1.084330	-0.570007	-0.964040
C46	C	1.084344	-0.569980	-1.046025
C47	C	1.184785	-0.436327	-1.046055
C48	C	1.184772	-0.436356	-0.964076
C49	C	1.134543	-0.503199	-0.923071
C50	C	1.134437	-0.503403	-0.174279
C51	C	1.134568	-0.503141	-0.087029
H52	H	1.223048	-0.898288	-0.289769
C53	C	0.422370	-0.643968	-0.483508
C54	C	0.365982	-0.725956	-0.449393
C55	C	0.320912	-0.799578	-0.504525
C56	C	0.332232	-0.791213	-0.593771
C57	C	0.388623	-0.709222	-0.627891
C58	C	0.433692	-0.635600	-0.572759
H59	H	0.357600	-0.732151	-0.383324
H60	H	0.279168	-0.860273	-0.479267
H61	H	0.298869	-0.845713	-0.634582
H62	H	0.397004	-0.703027	-0.693960
H63	H	0.475436	-0.574905	-0.598017
C64	C	1.237490	-1.123026	-0.275480
C65	C	1.237465	-1.243071	-0.275579
C66	C	1.292706	-1.303212	-0.220458
C67	C	1.347973	-1.243307	-0.165238
C68	C	1.348000	-1.123255	-0.165137
C69	C	1.292759	-1.063114	-0.220258
H70	H	1.196552	-1.287423	-0.316457
H71	H	1.292686	-1.392083	-0.220532
H72	H	1.388866	-1.287827	-0.124434
H73	H	1.388913	-1.078904	-0.124259
H74	H	1.292779	-0.974244	-0.220184
H75	H	1.043412	-0.624463	-0.826538
H76	H	0.582752	-0.381995	-0.287327
C77	C	0.675158	-0.362876	-0.272995
C78	C	0.618823	-0.280902	-0.307123
C79	C	0.573719	-0.207297	-0.252001
C80	C	0.584949	-0.215667	-0.162752
C81	C	0.641286	-0.297645	-0.128620
C82	C	0.686391	-0.371250	-0.183741
H83	H	0.610508	-0.274703	-0.373195
H84	H	0.532014	-0.146611	-0.277269
H85	H	0.551560	-0.161180	-0.121948
H86	H	0.649602	-0.303844	-0.062548
H87	H	0.728095	-0.431935	-0.158474
C88	C	1.079255	-0.951240	-0.433372
C89	C	1.017731	-1.026403	-0.399262
C90	C	0.962544	-1.086575	-0.454403
C91	C	0.968880	-1.071585	-0.543654
C92	C	1.030407	-0.996419	-0.577768
C93	C	1.085594	-0.936247	-0.522627
H94	H	1.013039	-1.037503	-0.333190
H95	H	0.916998	-1.142218	-0.429149
H96	H	0.928027	-1.116128	-0.584472
H97	H	1.035099	-0.985319	-0.643841
H98	H	1.131140	-0.880604	-0.547881
C99	C	1.029138	-0.643506	-1.091099
C100	C	0.973904	-0.717052	-1.046000
C101	C	0.918713	-0.790599	-1.091074
C102	C	0.918756	-0.790599	-1.181248
C103	C	0.973993	-0.717050	-1.226352
C104	C	1.029184	-0.643503	-1.181278
H105	H	0.973869	-0.717054	-0.979243
H106	H	0.877823	-0.845045	-1.057684
H107	H	0.877901	-0.845043	-1.214615
H108	H	0.974027	-0.717048	-1.293109
H109	H	1.070073	-0.589058	-1.214667
H110	H	1.093647	-1.070163	-0.419068
H111	H	0.835645	-0.624811	-0.469134
C112	C	1.239966	-0.362961	-0.666156
C113	C	1.233590	-0.244158	-0.677441
C114	C	1.288825	-0.170660	-0.632375
C115	C	1.350435	-0.215965	-0.576024
C116	C	1.356814	-0.334774	-0.564736
C117	C	1.301579	-0.408272	-0.609803
H118	H	1.187980	-0.210615	-0.719158
H119	H	1.284102	-0.082710	-0.640731
H120	H	1.391323	-0.161557	-0.542663
H121	H	1.402424	-0.368317	-0.523019
H122	H	1.306302	-0.496222	-0.601446
H123	H	1.225641	-0.381995	-0.826588
C124	C	1.240007	-0.362866	-0.919004
C125	C	1.233634	-0.244063	-0.930285
C126	C	1.288868	-0.170570	-0.885213
C127	C	1.350475	-0.215881	-0.828860
C128	C	1.356850	-0.334690	-0.817577
C129	C	1.301616	-0.408183	-0.862648
H130	H	1.188027	-0.210515	-0.972003
H131	H	1.284148	-0.082619	-0.893567
H132	H	1.391362	-0.161477	-0.795496
H133	H	1.402457	-0.368238	-0.775858
H134	H	1.306336	-0.496134	-0.854295
C135	C	1.029084	-0.643536	-0.918927
C136	C	0.939849	-0.635011	-0.930173
C137	C	0.884612	-0.708543	-0.885057
C138	C	0.918609	-0.790600	-0.828694
C139	C	1.007848	-0.799128	-0.817444
C140	C	1.063086	-0.725596	-0.862561
H141	H	0.914679	-0.574265	-0.971899
H142	H	0.818551	-0.702229	-0.893385
H143	H	0.877719	-0.845032	-0.795295
H144	H	1.033019	-0.859874	-0.775719
H145	H	1.129147	-0.731910	-0.854233
C146	C	1.029041	-0.643624	-0.666079
C147	C	0.939808	-0.635086	-0.677334
C148	C	0.884561	-0.708610	-0.632222
C149	C	0.918546	-0.790671	-0.575856
C150	C	1.007784	-0.799212	-0.564599
C151	C	1.063032	-0.725689	-0.609711
H152	H	0.914646	-0.574336	-0.719062
H153	H	0.818501	-0.702287	-0.640555
H154	H	0.877649	-0.845098	-0.542461
H155	H	1.032947	-0.859962	-0.522871
H156	H	1.129092	-0.732012	-0.601377
H157	H	1.225683	-0.381900	-1.079445
H158	H	0.686927	-0.624815	-0.469154
H159	H	0.434025	-0.382012	-0.287346
H160	H	0.582798	-0.624834	-0.469163
H161	H	0.835603	-0.381977	-0.287300
