data_functionalizedCrystal
_audit_creation_method	'MofGen! by Chris Wilmer'
_symmetry_space_group_name_H-M	'P1'
_symmetry_Int_Tables_number	1
_symmetry_cell_setting	triclinic
loop_
_symmetry_equiv_pos_as_xyz
  x,y,z
_cell_length_a	17.699083
_cell_length_b	22.010155
_cell_length_c	17.699083
_cell_angle_alpha	90.003354
_cell_angle_beta	96.716985
_cell_angle_gamma	90.002416
loop_
_atom_site_label
_atom_site_type_symbol
_atom_site_fract_x
_atom_site_fract_y
_atom_site_fract_z
O1	O	1.004081	0.050441	-0.095701
O2	O	0.783703	0.050461	-0.108153
O3	O	0.900118	0.050445	0.008262
O4	O	0.887666	0.050457	-0.212116
O5	O	0.900097	-0.050605	0.008245
O6	O	0.783682	-0.050589	-0.108171
O7	O	1.004060	-0.050609	-0.095718
Cu8	Cu	0.893869	-0.059826	-0.101946
Cu9	Cu	0.893894	0.059678	-0.101925
O10	O	0.887645	-0.050593	-0.212134
C11	C	0.755495	-0.000061	-0.107716
C12	C	0.671477	-0.000054	-0.106377
C13	C	0.622856	-0.000050	-0.174711
C14	C	0.543913	-0.000058	-0.173448
C15	C	0.513592	-0.000065	-0.103852
C16	C	0.562219	-0.000071	-0.035513
C17	C	0.641161	-0.000067	-0.036776
C18	C	0.243856	-0.000086	-0.030418
C19	C	0.164908	-0.000088	-0.029160
C20	C	0.146608	-0.000077	-0.167090
C21	C	0.225550	-0.000074	-0.168353
C22	C	0.274170	-0.000082	-0.100015
C23	C	0.359769	-0.000075	-0.101384
C24	C	0.427995	-0.000069	-0.102481
N25	N	0.893857	-0.143878	-0.101960
C26	C	0.945446	-0.563665	-0.050384
C27	C	0.945449	-0.627272	-0.050379
O28	O	0.989282	-0.660170	-0.006537
N29	N	0.893894	-0.659085	-0.101910
C30	C	0.842326	-0.627288	-0.153444
O31	O	0.798474	-0.660188	-0.197274
C32	C	0.842319	-0.563681	-0.153445
C33	C	0.893884	-0.531871	-0.101916
C34	C	0.997005	-0.531855	0.001142
C35	C	0.997002	-0.468252	0.001135
C36	C	0.945440	-0.436458	-0.050397
C37	C	0.893881	-0.468268	-0.101922
C38	C	0.790749	-0.531884	-0.204975
C39	C	0.790746	-0.468274	-0.204971
C40	C	0.842310	-0.436464	-0.153442
C41	C	0.842316	-0.372872	-0.153460
N42	N	0.893872	-0.341059	-0.101929
C43	C	0.945434	-0.372852	-0.050398
C44	C	0.842343	-0.760865	-0.153437
C45	C	0.842352	-0.824471	-0.153440
C46	C	0.945475	-0.824451	-0.050374
C47	C	0.945468	-0.760845	-0.050375
C48	C	0.893898	-0.729052	-0.101906
C49	C	0.945424	-0.239281	-0.050415
C50	C	0.945419	-0.175672	-0.050428
C51	C	0.842294	-0.175697	-0.153491
C52	C	0.842302	-0.239300	-0.153481
C53	C	0.893870	-0.271090	-0.101937
O54	O	0.798504	-0.339934	-0.197278
O55	O	0.989272	-0.339944	-0.006568
C56	C	1.032268	-0.000085	-0.096156
C57	C	1.116286	-0.000089	-0.097494
C58	C	0.899662	-0.000080	0.036451
C59	C	0.898323	-0.000080	0.120469
N60	N	0.893912	0.143730	-0.101905
C61	C	0.888102	-0.000067	-0.240322
C62	C	0.889440	-0.000063	-0.324340
C63	C	0.966656	-0.000087	0.169090
C64	C	0.965394	-0.000082	0.248033
C65	C	0.895798	-0.000073	0.278354
C66	C	0.827459	-0.000065	0.229727
C67	C	0.828722	-0.000066	0.150785
C68	C	0.822364	-0.000059	0.548090
C69	C	0.821106	-0.000060	0.627038
C70	C	0.959036	-0.000075	0.645338
C71	C	0.960299	-0.000076	0.566396
C72	C	0.891961	-0.000064	0.517776
C73	C	0.893330	-0.000069	0.432177
C74	C	0.894427	-0.000073	0.363951
H75	H	0.647537	-0.000044	-0.231384
H76	H	1.016971	-0.000086	0.541714
H77	H	0.537526	-0.000085	0.021154
H78	H	0.770792	-0.000054	0.254420
C79	C	0.785575	-0.140716	-0.210167
H80	H	0.792956	-0.098279	-0.202779
H81	H	0.793687	-0.151138	-0.260674
H82	H	0.735081	-0.151143	-0.201996
C83	C	1.002182	-0.725859	0.006312
H84	H	1.032886	-0.753910	0.037003
H85	H	1.033635	-0.701042	-0.020870
H86	H	0.975011	-0.701051	0.037790
C87	C	0.744548	-0.000046	0.660393
H88	H	0.753587	-0.000053	0.714371
H89	H	0.716428	0.035197	0.643702
H90	H	0.716407	-0.035284	0.643692
C91	C	0.258899	-0.000069	-0.244909
H92	H	0.218635	-0.000074	-0.285426
H93	H	0.289316	0.035170	-0.248265
H94	H	0.289311	-0.035311	-0.248270
C95	C	1.002186	-0.859432	0.006318
H96	H	0.994794	-0.901869	-0.001059
H97	H	1.052683	-0.849010	-0.001830
H98	H	0.994051	-0.849006	0.056823
C99	C	0.490433	-0.000053	-0.248615
H100	H	0.519797	-0.000040	-0.290244
H101	H	0.459258	-0.035293	-0.251000
H102	H	0.459257	0.035189	-0.250980
H103	H	1.021038	-0.000089	0.287617
C104	C	1.053715	-0.433269	0.057826
H105	H	1.084414	-0.461321	0.088519
H106	H	1.085172	-0.408453	0.030649
H107	H	1.026541	-0.408460	0.089302
C108	C	0.093127	-0.000072	-0.242264
H109	H	0.122493	-0.000059	-0.283892
H110	H	0.061950	-0.035311	-0.244652
H111	H	0.061954	0.035170	-0.244628
C112	C	0.785632	-0.859455	-0.210122
H113	H	0.754922	-0.831404	-0.240806
H114	H	0.812790	-0.884272	-0.241598
H115	H	0.754177	-0.884263	-0.182925
H116	H	0.748760	-0.557775	-0.246934
C117	C	0.694644	-0.000065	0.038390
H118	H	0.665282	-0.000063	0.080021
H119	H	0.725822	-0.035301	0.040761
H120	H	0.725817	0.035180	0.040768
C121	C	1.034208	-0.000078	0.698822
H122	H	1.023492	-0.000069	0.750180
H123	H	1.062745	-0.035320	0.689644
H124	H	1.062757	0.035161	0.689643
C125	C	0.753558	-0.000058	0.097298
H126	H	0.764277	-0.000053	0.045941
H127	H	0.725002	-0.035292	0.106469
H128	H	0.725026	0.035190	0.106480
C129	C	1.053733	-0.566818	0.057828
H130	H	1.084437	-0.538755	0.088505
H131	H	1.026582	-0.591635	0.089308
H132	H	1.085194	-0.591625	0.030635
H133	H	0.766718	-0.000049	0.508512
C134	C	0.131557	-0.000102	0.047400
H135	H	0.171819	-0.000112	0.087919
H136	H	0.101143	0.035135	0.050769
H137	H	0.101141	-0.035346	0.050744
H138	H	0.283434	-0.000094	0.025228
H139	H	0.987412	-0.149774	-0.008467
H140	H	0.987415	-0.265157	-0.008442
H141	H	0.800350	-0.734983	-0.195406
C142	C	0.734021	-0.433306	-0.261660
H143	H	0.703321	-0.461364	-0.292349
H144	H	0.702567	-0.408491	-0.234478
H145	H	0.761189	-0.408497	-0.293141
C146	C	0.785555	-0.274292	-0.210133
H147	H	0.754835	-0.246245	-0.240812
H148	H	0.812683	-0.299126	-0.241616
H149	H	0.754112	-0.299085	-0.182902
H150	H	1.023330	-0.000098	0.144409
