data_functionalizedCrystal
_audit_creation_method	'MofGen! by Chris Wilmer'
_symmetry_space_group_name_H-M	'P1'
_symmetry_Int_Tables_number	1
_symmetry_cell_setting	triclinic
loop_
_symmetry_equiv_pos_as_xyz
  x,y,z
_cell_length_a	21.395364
_cell_length_b	19.805405
_cell_length_c	21.395356
_cell_angle_alpha	89.970920
_cell_angle_beta	89.976411
_cell_angle_gamma	90.041362
loop_
_atom_site_label
_atom_site_type_symbol
_atom_site_fract_x
_atom_site_fract_y
_atom_site_fract_z
Zn1	Zn	0.957872	-0.269210	-0.354255
Zn2	Zn	0.957784	-0.382398	-0.249475
Zn3	Zn	0.853089	-0.269258	-0.249492
Zn4	Zn	0.853064	-0.382392	-0.354216
O5	O	0.905452	-0.325815	-0.301860
O6	O	1.045538	-0.284207	-0.340366
O7	O	0.943870	-0.367413	-0.161800
O8	O	0.867036	-0.174535	-0.263413
O9	O	1.045474	-0.367366	-0.263384
O10	O	0.944019	-0.174500	-0.340382
O11	O	0.866950	-0.284289	-0.161812
O12	O	0.765408	-0.284283	-0.263374
O13	O	0.866993	-0.367356	-0.441899
O14	O	0.765389	-0.367402	-0.340314
O15	O	0.943995	-0.284202	-0.441928
O16	O	0.943846	-0.477114	-0.263346
O17	O	0.866908	-0.477110	-0.340298
C18	C	0.742665	-0.325848	-0.301842
C19	C	0.673023	-0.325878	-0.301849
C20	C	0.640366	-0.282648	-0.341996
C21	C	0.574931	-0.282630	-0.341998
C22	C	0.542155	-0.325854	-0.301861
C23	C	0.574820	-0.369087	-0.261707
C24	C	0.640254	-0.369099	-0.261701
C25	C	0.438435	-0.386809	-0.296822
C26	C	0.373002	-0.386799	-0.296832
C27	C	0.340334	-0.325817	-0.301875
C28	C	0.373108	-0.264844	-0.306921
C29	C	0.438542	-0.264856	-0.306915
C30	C	0.471203	-0.325846	-0.301862
C31	C	0.236725	-0.282564	-0.342026
C32	C	0.171288	-0.282545	-0.342024
C33	C	0.171179	-0.369008	-0.261736
C34	C	0.236614	-0.369021	-0.261735
C35	C	0.269383	-0.325800	-0.301883
C36	C	0.905382	-0.501671	-0.301829
C37	C	0.905409	-0.576903	-0.301837
C38	C	0.945509	-0.612227	-0.261810
C39	C	0.945536	-0.682915	-0.261824
C40	C	0.905458	-0.718278	-0.301862
C41	C	0.865356	-0.682949	-0.341894
C42	C	0.865333	-0.612262	-0.341883
C43	C	0.865449	-0.968023	-0.341940
C44	C	0.865474	-1.038715	-0.341947
C45	C	0.945651	-1.038675	-0.261882
C46	C	0.945628	-0.967988	-0.261871
C47	C	0.905529	-0.932666	-0.301904
C48	C	0.905501	-0.856017	-0.301889
C49	C	0.905482	-0.794925	-0.301874
C50	C	1.068875	-0.325782	-0.301878
C51	C	1.138517	-0.325768	-0.301885
C52	C	0.905501	-0.325773	-0.465283
C53	C	0.905522	-0.325755	-0.534924
C54	C	0.905540	-0.149272	-0.301904
C55	C	0.905577	-0.074040	-0.301923
C56	C	0.865481	-0.282468	-0.567634
C57	C	0.865479	-0.282455	-0.633069
C58	C	0.905529	-0.325723	-0.665793
C59	C	0.945573	-0.369018	-0.633075
C60	C	0.945570	-0.369035	-0.567641
C61	C	0.961982	-0.331028	-0.769479
C62	C	0.961986	-0.331007	-0.834912
C63	C	0.905540	-0.325677	-0.867614
C64	C	0.849087	-0.320353	-0.834874
C65	C	0.849083	-0.320369	-0.769440
C66	C	0.905537	-0.325710	-0.736745
C67	C	0.865493	-0.282374	-0.971276
C68	C	0.865490	-0.282366	-1.036712
C69	C	0.945589	-0.368926	-1.036717
C70	C	0.945587	-0.368937	-0.971281
C71	C	0.905540	-0.325658	-0.938565
C72	C	0.905439	-0.325808	-0.139072
C73	C	0.905540	-0.325635	-0.069431
H74	H	0.548336	-0.247424	-0.374689
N75	N	0.988735	-0.574084	-0.218627
H76	H	0.979033	-0.586430	-0.173853
H77	H	1.033483	-0.586342	-0.228457
H78	H	0.978260	-0.939198	-0.229266
H79	H	0.978194	-0.404185	-0.944649
H80	H	0.803118	-0.316036	-0.742786
H81	H	0.978179	-0.404284	-0.541009
H82	H	0.667043	-0.247454	-0.374687
N83	N	0.473664	-0.452588	-0.291382
H84	H	0.520089	-0.443345	-0.292140
H85	H	0.462186	-0.475527	-0.250796
H86	H	0.548130	-0.404280	-0.229026
H87	H	0.832883	-0.247133	-0.944636
H88	H	0.666843	-0.404303	-0.229008
N89	N	1.022871	-0.336748	-0.870221
H90	H	1.058628	-0.340138	-0.839577
H91	H	1.021944	-0.378447	-0.897359
H92	H	0.465223	-0.215210	-0.311021
H93	H	0.803123	-0.316008	-0.861498
N94	N	0.988901	-1.076773	-0.218699
H95	H	0.982838	-1.126920	-0.224780
H96	H	1.033641	-1.064358	-0.228484
H97	H	0.832681	-0.583502	-0.374477
H98	H	0.346511	-0.215187	-0.311027
N99	N	0.272072	-0.235956	-0.385333
H100	H	0.318480	-0.242532	-0.379246
H101	H	0.260637	-0.246568	-0.430058
H102	H	0.144700	-0.247338	-0.374715
N103	N	0.271842	-0.415648	-0.218434
H104	H	0.241152	-0.443028	-0.193007
H105	H	0.298979	-0.447013	-0.243882
H106	H	0.978189	-0.711673	-0.229230
H107	H	0.144493	-0.404201	-0.229055
N108	N	0.337655	-0.452557	-0.291388
H109	H	0.349037	-0.482907	-0.327559
H110	H	0.349018	-0.475469	-0.250774
N111	N	0.822244	-1.076859	-0.385131
H112	H	0.796838	-1.043757	-0.410492
H113	H	0.847745	-1.106140	-0.414150
H114	H	0.832797	-0.939268	-0.374536
H115	H	0.832728	-0.711748	-0.374496
H116	H	0.832879	-0.247118	-1.063344
H117	H	0.832869	-0.247228	-0.541000
N118	N	0.822290	-0.235766	-0.668360
H119	H	0.796919	-0.208352	-0.637705
H120	H	0.847816	-0.204435	-0.695525
H121	H	0.978200	-0.404154	-1.063360
N122	N	1.022866	-0.336790	-0.734210
H123	H	1.058628	-0.340157	-0.764878
H124	H	1.028708	-0.295559	-0.707071
N125	N	0.988766	-0.415692	-0.668365
H126	H	0.982693	-0.409114	-0.714781
H127	H	1.033519	-0.405157	-0.656946
