data_functionalizedCrystal
_audit_creation_method	'MofGen! by Chris Wilmer'
_symmetry_space_group_name_H-M	'P1'
_symmetry_Int_Tables_number	1
_symmetry_cell_setting	triclinic
loop_
_symmetry_equiv_pos_as_xyz
  x,y,z
_cell_length_a	10.967926
_cell_length_b	22.610064
_cell_length_c	10.967829
_cell_angle_alpha	102.132222
_cell_angle_beta	87.248880
_cell_angle_gamma	77.886047
loop_
_atom_site_label
_atom_site_type_symbol
_atom_site_fract_x
_atom_site_fract_y
_atom_site_fract_z
O1	O	1.657115	-0.101881	0.175020
O2	O	2.157115	0.398119	0.675020
O3	O	1.293986	-0.063160	0.191775
O4	O	1.793986	0.436840	0.691775
O5	O	1.483917	-0.101883	0.001820
O6	O	1.983917	0.398117	0.501820
O7	O	1.467184	-0.063159	0.364975
O8	O	1.967184	0.436841	0.864975
O9	O	1.483860	-0.200246	0.001819
O10	O	1.983860	0.299754	0.501819
O11	O	1.293930	-0.161524	0.191774
O12	O	1.793930	0.338476	0.691774
O13	O	1.657059	-0.200245	0.175019
O14	O	2.157059	0.299755	0.675019
Zn15	Zn	1.475485	-0.196502	0.183397
Zn16	Zn	1.975485	0.303498	0.683397
Zn17	Zn	1.475559	-0.066903	0.183398
Zn18	Zn	1.975559	0.433097	0.683398
O19	O	1.467128	-0.161522	0.364975
O20	O	1.967128	0.338478	0.864975
C21	C	1.247461	-0.107727	0.190555
C22	C	1.747461	0.392273	0.690555
C23	C	1.108915	-0.093977	0.186908
C24	C	1.608915	0.406023	0.686908
N25	N	1.475444	-0.284950	0.183395
N26	N	1.975444	0.215050	0.683395
C27	C	1.047118	-0.138802	0.185282
C28	C	1.547118	0.361198	0.685282
C29	C	0.903924	-0.124592	0.181512
C30	C	1.403924	0.375408	0.681512
C31	C	1.551890	-0.693599	0.259764
C32	C	2.051890	-0.193599	0.759764
C33	C	1.551906	-0.755521	0.259761
C34	C	2.051906	-0.255521	0.759761
O35	O	1.616854	-0.787542	0.324683
O36	O	2.116854	-0.287542	0.824683
N37	N	1.475583	-0.786503	0.183384
N38	N	1.975583	-0.286503	0.683384
C39	C	1.399249	-0.755561	0.106995
C40	C	1.899249	-0.255561	0.606995
O41	O	1.334333	-0.787600	0.042029
O42	O	1.834333	-0.287600	0.542029
C43	C	1.399241	-0.693642	0.106992
C44	C	1.899241	-0.193642	0.606992
C45	C	1.475560	-0.662661	0.183384
C46	C	1.975560	-0.162661	0.683384
C47	C	1.628204	-0.662618	0.336148
C48	C	2.128204	-0.162618	0.836148
C49	C	1.628186	-0.600701	0.336152
C50	C	2.128186	-0.100701	0.836152
C51	C	1.551855	-0.569763	0.259772
C52	C	2.051855	-0.069763	0.759772
C53	C	1.475542	-0.600744	0.183388
C54	C	1.975542	-0.100744	0.683388
C55	C	1.322915	-0.662703	0.030598
C56	C	1.822915	-0.162703	0.530598
C57	C	1.322914	-0.600780	0.030601
C58	C	1.822914	-0.100780	0.530601
C59	C	1.399232	-0.569799	0.106992
C60	C	1.899232	-0.069799	0.606992
C61	C	1.399193	-0.507888	0.107012
C62	C	1.899193	-0.007888	0.607012
N63	N	1.475516	-0.476906	0.183390
N64	N	1.975516	0.023094	0.683390
C65	C	1.551847	-0.507844	0.259770
C66	C	2.051847	-0.007844	0.759770
C67	C	1.399274	-0.885596	0.107005
C68	C	1.899274	-0.385596	0.607005
C69	C	1.399274	-0.947513	0.107014
C70	C	1.899274	-0.447513	0.607014
C71	C	1.551933	-0.947469	0.259778
C72	C	2.051933	-0.447469	0.759778
C73	C	1.551925	-0.885549	0.259775
C74	C	2.051925	-0.385549	0.759775
C75	C	1.475597	-0.854615	0.183382
C76	C	1.975597	-0.354615	0.683382
C77	C	1.551803	-0.377812	0.259774
C78	C	2.051803	0.122188	0.759774
C79	C	1.551775	-0.315887	0.259775
C80	C	2.051775	0.184113	0.759775
C81	C	1.399121	-0.315938	0.107006
C82	C	1.899121	0.184062	0.607006
C83	C	1.399144	-0.377856	0.107009
C84	C	1.899144	0.122144	0.607009
C85	C	1.475495	-0.408792	0.183397
C86	C	1.975495	0.091208	0.683397
O87	O	1.334282	-0.475829	0.042119
O88	O	1.834282	0.024171	0.542119
O89	O	1.616764	-0.475800	0.324712
O90	O	2.116764	0.024200	0.824712
C91	C	1.703584	-0.155677	0.176239
C92	C	2.203584	0.344323	0.676239
C93	C	1.842129	-0.169423	0.179886
C94	C	2.342129	0.330577	0.679886
C95	C	1.482667	-0.155679	-0.044681
C96	C	1.982667	0.344321	0.455319
C97	C	1.479012	-0.169426	-0.183236
C98	C	1.979012	0.330574	0.316764
N99	N	1.475611	0.021543	0.183389
N100	N	1.975611	0.521543	0.683389
C101	C	1.477411	-0.124599	-0.245002
C102	C	1.977411	0.375401	0.254998
C103	C	1.473633	-0.138807	-0.388207
C104	C	1.973633	0.361193	0.111793
C105	C	1.468378	-0.107725	0.411475
C106	C	1.968378	0.392275	0.911475
C107	C	1.472033	-0.093974	0.550031
C108	C	1.972033	0.406026	1.050031
H109	H	1.100223	-0.187699	0.186673
H110	H	1.600223	0.312301	0.686673
H111	H	1.472199	-0.187705	-0.441339
H112	H	1.972199	0.312295	0.058661
F113	F	1.477138	-0.233337	-0.252684
F114	F	1.977138	0.266663	0.247316
H115	H	1.336984	-0.403079	0.044821
H116	H	1.836984	0.096921	0.544821
H117	H	0.850825	-0.075692	0.180111
H118	H	1.350825	0.424308	0.680111
H119	H	0.895227	-0.218324	0.181280
H120	H	1.395227	0.281676	0.681280
H121	H	1.690368	-0.687802	0.398346
H122	H	2.190368	-0.187802	0.898346
H123	H	1.473445	-0.045072	-0.396836
H124	H	1.973445	0.454928	0.103164
H125	H	1.336971	-0.290737	0.044823
H126	H	1.836971	0.209263	0.544823
H127	H	1.690338	-0.575483	0.398353
H128	H	2.190338	-0.075483	0.898353
H129	H	1.055812	-0.045081	0.185507
H130	H	1.555812	0.454919	0.685507
H131	H	1.613922	-0.290665	0.321988
H132	H	2.113922	0.209335	0.821988
H133	H	1.337113	-0.972729	0.044823
H134	H	1.837113	-0.472729	0.544823
F135	F	1.633065	-0.410727	0.341073
F136	F	2.133065	0.089273	0.841073
F137	F	1.633157	-0.852584	0.341077
F138	F	2.133157	-0.352584	0.841077
F139	F	1.479298	-0.060690	-0.175556
F140	F	1.979298	0.439310	0.324444
F141	F	1.633177	-0.980407	0.341064
F142	F	2.133177	-0.480407	0.841064
H143	H	1.337106	-0.860411	0.044801
H144	H	1.837106	-0.360411	0.544801
F145	F	1.241684	-0.695662	-0.050710
F146	F	1.741684	-0.195662	0.449290
H147	H	1.260757	-0.575596	-0.031610
H148	H	1.760757	-0.075596	0.468390
