data_functionalizedCrystal
_audit_creation_method	'MofGen! by Chris Wilmer'
_symmetry_space_group_name_H-M	'P1'
_symmetry_Int_Tables_number	1
_symmetry_cell_setting	triclinic
loop_
_symmetry_equiv_pos_as_xyz
  x,y,z
_cell_length_a	6.817900
_cell_length_b	17.982959
_cell_length_c	10.773894
_cell_angle_alpha	96.506974
_cell_angle_beta	96.645922
_cell_angle_gamma	102.451857
loop_
_atom_site_label
_atom_site_type_symbol
_atom_site_fract_x
_atom_site_fract_y
_atom_site_fract_z
V1	V	-3.943879	-0.102609	-0.389451
O2	O	-3.938325	0.007812	-0.381502
O3	O	-3.890812	-0.206227	-0.387303
O4	O	-3.861680	-0.099767	-0.559069
O5	O	-3.967659	-0.099386	-0.208547
V6	V	-4.432491	-0.089551	-0.367751
O7	O	-4.193973	-0.131254	-0.437053
O8	O	-4.632593	-0.060907	-0.320150
O9	O	-4.262351	0.014067	-0.369899
O10	O	-4.555442	-0.199972	-0.375700
O11	O	-4.526107	-0.092774	-0.548656
O12	O	-4.291483	-0.092393	-0.198133
C13	C	-3.735771	-0.231527	-0.381292
C14	C	-3.773445	-0.316228	-0.380667
C15	C	-3.698609	-0.095725	-0.600395
C16	C	-3.712655	-0.094086	-0.739062
C17	C	-3.971817	-0.359856	-0.386614
C18	C	-4.007205	-0.439442	-0.386034
C19	C	-3.844216	-0.475398	-0.379497
C20	C	-3.645828	-0.431764	-0.373553
C21	C	-3.610444	-0.352180	-0.374142
C22	C	-3.788521	-0.752717	-0.371177
C23	C	-3.823921	-0.832306	-0.370584
C24	C	-4.185282	-0.839979	-0.383068
C25	C	-4.149898	-0.760395	-0.383657
C26	C	-3.951516	-0.716769	-0.377720
C27	C	-3.913147	-0.630473	-0.378352
C28	C	-3.882580	-0.561692	-0.378856
C29	C	-3.890602	-0.096926	-0.806939
C30	C	-3.905123	-0.095233	-0.950258
C31	C	-4.080734	0.039363	-0.375906
C32	C	-4.022297	0.124063	-0.376540
C33	C	-4.117897	-0.096438	-0.156800
C34	C	-4.083090	-0.098072	-0.018132
H35	H	-4.168736	-0.474962	-0.390878
N36	N	-3.470023	-0.470538	-0.366483
H37	H	-3.522534	-0.527574	-0.366998
H38	H	-3.373472	-0.448102	-0.286127
H39	H	-4.104545	-0.330586	-0.391925
N40	N	-4.270671	-0.102948	-0.954576
H41	H	-4.295718	-0.151111	-0.913141
H42	H	-4.391299	-0.104577	-1.019630
H43	H	-4.346818	-0.875510	-0.387904
N44	N	-3.648119	-0.871089	-0.363532
H45	H	-3.517074	-0.831377	-0.359862
H46	H	-3.666436	-0.910785	-0.440738
H47	H	-3.763511	-0.091543	-0.998244
N48	N	-3.525076	-0.089199	-0.802615
H49	H	-3.562037	-0.088680	-0.895989
H50	H	-3.466412	-0.135187	-0.789474
N51	N	-4.078188	-0.101810	-0.743394
H52	H	-4.136930	-0.055827	-0.756444
H53	H	-4.041089	-0.102354	-0.650043
N54	N	-4.325693	-0.721616	-0.390720
H55	H	-4.456736	-0.761332	-0.394409
H56	H	-4.330348	-0.695608	-0.468968
H57	H	-3.448912	-0.316659	-0.369304
N58	N	-3.574554	-0.705678	-0.364775
H59	H	-3.490231	-0.711011	-0.284221
H60	H	-3.577016	-0.649826	-0.366201
