data_functionalizedCrystal
_audit_creation_method	'MofGen! by Chris Wilmer'
_symmetry_space_group_name_H-M	'P1'
_symmetry_Int_Tables_number	1
_symmetry_cell_setting	triclinic
loop_
_symmetry_equiv_pos_as_xyz
  x,y,z
_cell_length_a	21.395362
_cell_length_b	19.077068
_cell_length_c	19.077314
_cell_angle_alpha	90.121627
_cell_angle_beta	87.737128
_cell_angle_gamma	92.343691
loop_
_atom_site_label
_atom_site_type_symbol
_atom_site_fract_x
_atom_site_fract_y
_atom_site_fract_z
Zn1	Zn	0.933787	-0.263507	0.408882
Zn2	Zn	1.433787	0.236493	0.908882
Zn3	Zn	0.933369	-0.385736	0.296088
Zn4	Zn	1.433369	0.114264	0.796088
Zn5	Zn	0.833046	-0.268278	0.291352
Zn6	Zn	1.333046	0.231722	0.791352
Zn7	Zn	0.824608	-0.381017	0.413515
Zn8	Zn	1.324608	0.118983	0.913515
O9	O	0.881203	-0.324635	0.352459
O10	O	1.381203	0.175365	0.852459
O11	O	1.021408	-0.279700	0.393963
O12	O	1.521408	0.220300	0.893963
O13	O	0.923417	-0.374126	0.197130
O14	O	1.423417	0.125874	0.697130
O15	O	0.850115	-0.169310	0.303021
O16	O	1.350115	0.330690	0.803021
O17	O	1.021102	-0.369501	0.311094
O18	O	1.521102	0.130499	0.811094
O19	O	0.924129	-0.165805	0.389370
O20	O	1.424129	0.334195	0.889370
O21	O	0.849710	-0.287830	0.193650
O22	O	1.349710	0.212170	0.693650
O23	O	0.744250	-0.283254	0.307514
O24	O	1.244250	0.216746	0.807514
O25	O	0.835735	-0.361457	0.511230
O26	O	1.335735	0.138543	1.011230
O27	O	0.738050	-0.366083	0.397266
O28	O	1.238050	0.133917	0.897266
O29	O	0.915948	-0.275124	0.507826
O30	O	1.415948	0.224876	1.007826
O31	O	0.915236	-0.483445	0.315586
O32	O	1.415236	0.016555	0.815586
O33	O	0.835330	-0.479978	0.401859
O34	O	1.335330	0.020022	0.901859
C35	C	0.718416	-0.324675	0.352379
C36	C	1.218416	0.175325	0.852379
C37	C	0.648774	-0.324709	0.352362
C38	C	1.148774	0.175291	0.852362
C39	C	0.612850	-0.367900	0.399031
C40	C	1.112850	0.132100	0.899031
C41	C	0.547414	-0.367881	0.399062
C42	C	1.047414	0.132119	0.899062
C43	C	0.517905	-0.324679	0.352411
C44	C	1.017905	0.175321	0.852411
C45	C	0.553838	-0.281480	0.305738
C46	C	1.053838	0.218520	0.805738
C47	C	0.619273	-0.281494	0.305714
C48	C	1.119273	0.218506	0.805714
C49	C	0.416568	-0.321569	0.288926
C50	C	0.916568	0.178431	0.788926
C51	C	0.351135	-0.321559	0.288949
C52	C	0.851135	0.178441	0.788949
C53	C	0.316084	-0.324630	0.352487
C54	C	0.816084	0.175370	0.852487
C55	C	0.346473	-0.327726	0.416003
C56	C	0.846473	0.172274	0.916003
C57	C	0.411908	-0.327741	0.415979
C58	C	0.911908	0.172259	0.915979
C59	C	0.446953	-0.324659	0.352433
C60	C	0.946953	0.175341	0.852433
C61	C	0.209206	-0.367804	0.399193
C62	C	0.709206	0.132196	0.899193
C63	C	0.143769	-0.367780	0.399225
C64	C	0.643769	0.132220	0.899225
C65	C	0.150195	-0.281383	0.305895
C66	C	0.650195	0.218617	0.805895
C67	C	0.215630	-0.281402	0.305870
C68	C	0.715630	0.218598	0.805870
C69	C	0.245132	-0.324617	0.352518
C70	C	0.745132	0.175383	0.852518
C71	C	0.874338	-0.507208	0.359755
C72	C	1.374338	-0.007208	0.859755
C73	C	0.871458	-0.585313	0.362899
C74	C	1.371458	-0.085313	0.862899
C75	C	0.911738	-0.623787	0.319496
C76	C	1.411738	-0.123787	0.819496
C77	C	0.909032	-0.697174	0.322458
C78	C	1.409032	-0.197174	0.822458
C79	C	0.866044	-0.732086	0.368820
C80	C	1.366044	-0.232086	0.868820
C81	C	0.825763	-0.693607	0.412227
C82	C	1.325763	-0.193607	0.912227
C83	C	0.828472	-0.620221	0.409269
C84	C	1.328472	-0.120221	0.909269
C85	C	0.853481	-0.951376	0.382485
C86	C	1.353481	-0.451376	0.882485
C87	C	0.850774	-1.024768	0.385439
C88	C	1.350774	-0.524768	0.885439
C89	C	0.934045	-1.028330	0.295670
C90	C	1.434045	-0.528330	0.795670
C91	C	0.936747	-0.954942	0.292712
C92	C	1.436747	-0.454942	0.792712
C93	C	0.896468	-0.916469	0.336123
C94	C	1.396468	-0.416469	0.836123
N95	N	0.863277	-0.807100	0.371847
N96	N	1.363277	-0.307100	0.871847
N97	N	0.899239	-0.841457	0.333099
N98	N	1.399239	-0.341457	0.833099
C99	C	1.044624	-0.324594	0.352540
C100	C	1.544624	0.175406	0.852540
C101	C	1.114265	-0.324577	0.352574
C102	C	1.614265	0.175423	0.852574
C103	C	0.874947	-0.317232	0.535737
C104	C	1.374947	0.182768	1.035737
C105	C	0.872281	-0.314078	0.613839
C106	C	1.372281	0.185922	1.113839
C107	C	0.888110	-0.141348	0.345150
C108	C	1.388110	0.358652	0.845150
C109	C	0.891054	-0.063242	0.342036
C110	C	1.391054	0.436758	0.842036
C111	C	0.887472	-0.331957	0.169892
C112	C	1.387472	0.168043	0.669892
C113	C	0.890267	-0.334914	0.091783
C114	C	1.390267	0.165086	0.591783
C115	C	0.909400	-0.357523	0.652346
C116	C	1.409400	0.142477	1.152346
C117	C	0.906896	-0.354550	0.725731
C118	C	1.406896	0.145450	1.225731
C119	C	0.867268	-0.308135	0.760608
C120	C	1.367268	0.191865	1.260608
C121	C	0.830146	-0.264685	0.722095
C122	C	1.330146	0.235315	1.222095
C123	C	0.832655	-0.267655	0.648712
C124	C	1.332655	0.232345	1.148712
C125	C	0.855654	-0.294433	0.979886
C126	C	1.355654	0.205567	1.479886
C127	C	0.853147	-0.291469	1.053275
C128	C	1.353147	0.208531	1.553275
C129	C	0.929898	-0.381333	1.056906
C130	C	1.429898	0.118667	1.556906
C131	C	0.932400	-0.384301	0.983521
C132	C	1.432400	0.115699	1.483521
C133	C	0.895281	-0.340849	0.945015
C134	C	1.395281	0.159151	1.445015
N135	N	0.864705	-0.305098	0.835619
N136	N	1.364705	0.194902	1.335619
N137	N	0.897847	-0.343884	0.870005
N138	N	1.397847	0.156116	1.370005
H139	H	0.317936	-0.330226	0.467742
H140	H	0.817936	0.169774	0.967742
N141	N	0.815631	-0.247558	0.938360
N142	N	1.315631	0.252442	1.438360
H143	H	0.790149	-0.217703	0.971591
H144	H	1.290149	0.282297	1.471591
H145	H	0.786595	-0.277386	0.909030
H146	H	1.286595	0.222614	1.409030
N147	N	0.785021	-0.578727	0.456080
N148	N	1.285021	-0.078727	0.956080
H149	H	0.758105	-0.549482	0.426258
H150	H	1.258105	-0.049482	0.926258
H151	H	0.810515	-0.546958	0.487445
H152	H	1.310515	-0.046958	0.987445
N153	N	0.105021	-0.414373	0.449561
N154	N	0.605021	0.085627	0.949561
H155	H	0.059091	-0.407805	0.442501
H156	H	0.559091	0.092195	0.942501
H157	H	0.115194	-0.401495	0.499326
H158	H	0.615194	0.098505	0.999326
H159	H	0.820683	-0.920057	0.417830
H160	H	1.320683	-0.420057	0.917830
H161	H	0.797883	-0.226890	0.750497
H162	H	1.297883	0.273110	1.250497
N163	N	0.792623	-0.220791	0.607175
N164	N	1.292623	0.279209	1.107175
H165	H	0.767138	-0.190937	0.640403
H166	H	1.267138	0.309063	1.140403
H167	H	0.763590	-0.250630	0.577851
H168	H	1.263590	0.249370	1.077851
N169	N	0.975142	-0.434363	0.945907
N170	N	1.475142	0.065637	1.445907
H171	H	1.019884	-0.422922	0.958264
H172	H	1.519884	0.077078	1.458264
H173	H	0.971044	-0.429628	0.893588
H174	H	1.471044	0.070372	1.393588
N175	N	0.810399	-0.241416	1.090905
N176	N	1.310399	0.258584	1.590905
H177	H	0.822453	-0.191715	1.076152
H178	H	1.322453	0.308285	1.576152
H179	H	0.814466	-0.246206	1.143224
H180	H	1.314466	0.253794	1.643224
H181	H	0.941832	-0.728497	0.287114
H182	H	1.441832	-0.228497	0.787114
H183	H	0.790763	-0.722038	0.449979
H184	H	1.290763	-0.222038	0.949979
N185	N	0.644670	-0.414507	0.449343
N186	N	1.144670	0.085493	0.949343
H187	H	0.611978	-0.441866	0.478913
H188	H	1.111978	0.058134	0.978913
H189	H	0.671816	-0.384647	0.480759
H190	H	1.171816	0.115353	0.980759
H191	H	0.436649	-0.330259	0.467696
H192	H	0.936649	0.169741	0.967696
N193	N	0.508656	-0.414466	0.449401
N194	N	1.008656	0.085534	0.949401
H195	H	0.537274	-0.441843	0.478949
H196	H	1.037274	0.058157	0.978949
H197	H	0.481231	-0.448089	0.422047
H198	H	0.981231	0.051911	0.922047
H199	H	0.233228	-0.402988	0.437180
H200	H	0.733228	0.097012	0.937180
N201	N	0.952139	-0.407590	0.614734
N202	N	1.452139	0.092410	1.114734
H203	H	0.975274	-0.434659	0.650268
H204	H	1.475274	0.065341	1.150268
H205	H	0.983254	-0.380213	0.583159
H206	H	1.483254	0.119787	1.083159
H207	H	0.937123	-0.389928	0.757080
H208	H	1.437123	0.110072	1.257080
N209	N	0.118377	-0.234779	0.255582
N210	N	0.618377	0.265221	0.755582
H211	H	0.071473	-0.241322	0.262680
H212	H	0.571473	0.258678	0.762680
H213	H	0.131079	-0.247668	0.205809
H214	H	0.631079	0.252332	0.705809
H215	H	0.960119	-0.416708	1.088266
H216	H	1.460119	0.083292	1.588266
N217	N	0.983119	-0.917288	0.242715
N218	N	1.483119	-0.417288	0.742715
H219	H	1.012278	-0.885637	0.270088
H220	H	1.512278	-0.385637	0.770088
H221	H	0.959869	-0.888241	0.208902
H222	H	1.459869	-0.388241	0.708902
H223	H	0.244881	-0.246235	0.267863
H224	H	0.744881	0.253765	0.767863
H225	H	0.326397	-0.319043	0.237230
H226	H	0.826397	0.180957	0.737230
H227	H	0.529808	-0.246303	0.267756
H228	H	1.029808	0.253697	0.767756
N229	N	0.454371	-0.318252	0.220392
N230	N	0.954371	0.181748	0.720392
H231	H	0.425192	-0.316295	0.180160
H232	H	0.925192	0.183705	0.680160
H233	H	0.480112	-0.361330	0.215499
H234	H	0.980112	0.138670	0.715499
H235	H	0.648523	-0.246320	0.267710
H236	H	1.148523	0.253680	0.767710
H237	H	0.946741	-0.595366	0.281741
H238	H	1.446741	-0.095366	0.781741
H239	H	0.966839	-1.059662	0.260329
H240	H	1.466839	-0.559662	0.760329
H241	H	0.815775	-1.053190	0.423204
H242	H	1.315775	-0.553190	0.923204
