data_functionalizedCrystal
_audit_creation_method	'MofGen! by Chris Wilmer'
_symmetry_space_group_name_H-M	'P1'
_symmetry_Int_Tables_number	1
_symmetry_cell_setting	triclinic
loop_
_symmetry_equiv_pos_as_xyz
  x,y,z
_cell_length_a	15.298206
_cell_length_b	15.297327
_cell_length_c	15.298013
_cell_angle_alpha	91.640710
_cell_angle_beta	72.630534
_cell_angle_gamma	88.422996
loop_
_atom_site_label
_atom_site_type_symbol
_atom_site_fract_x
_atom_site_fract_y
_atom_site_fract_z
Zn1	Zn	1.225004	-0.504412	0.384937
Zn2	Zn	1.725004	-0.004412	0.884937
Zn3	Zn	1.216231	-0.674493	0.265013
Zn4	Zn	1.716231	-0.174493	0.765013
Zn5	Zn	1.096427	-0.504429	0.256388
Zn6	Zn	1.596427	-0.004429	0.756388
Zn7	Zn	1.046177	-0.615643	0.435135
Zn8	Zn	1.546177	-0.115643	0.935135
O9	O	1.145960	-0.574744	0.335368
O10	O	1.645960	-0.074744	0.835368
O11	O	1.348819	-0.551594	0.351630
O12	O	1.848819	-0.051594	0.851630
O13	O	1.217696	-0.676569	0.138874
O14	O	1.717696	-0.176569	0.638874
O15	O	1.138185	-0.386704	0.248823
O16	O	1.638185	0.113296	0.748823
O17	O	1.342373	-0.676552	0.263523
O18	O	1.842373	-0.176552	0.763523
O19	O	1.232650	-0.386691	0.343267
O20	O	1.732650	0.113309	0.843267
O21	O	1.129677	-0.551625	0.132538
O22	O	1.629677	-0.051625	0.632538
O23	O	0.964783	-0.494561	0.297498
O24	O	1.464783	0.005439	0.797498
O25	O	1.052541	-0.576252	0.553471
O26	O	1.552541	-0.076252	1.053471
O27	O	0.927865	-0.576270	0.428823
O28	O	1.427865	-0.076270	0.928823
O29	O	1.183925	-0.494531	0.516591
O30	O	1.683925	0.005469	1.016591
O31	O	1.168971	-0.784409	0.312198
O32	O	1.668971	-0.284409	0.812198
O33	O	1.044033	-0.741173	0.437186
O34	O	1.544033	-0.241173	0.937186
C35	C	0.913918	-0.529032	0.367672
C36	C	1.413918	-0.029032	0.867672
C37	C	0.814643	-0.509492	0.381517
C38	C	1.314643	-0.009492	0.881517
C39	C	0.771335	-0.435318	0.434006
C40	C	1.271335	0.064682	0.934006
C41	C	0.678062	-0.416951	0.447014
C42	C	1.178062	0.083049	0.947014
C43	C	0.628086	-0.472760	0.407542
C44	C	1.128086	0.027240	0.907542
C45	C	0.671392	-0.546939	0.355058
C46	C	1.171392	-0.046939	0.855058
C47	C	0.764676	-0.565304	0.342042
C48	C	1.264676	-0.065304	0.842042
C49	C	0.621426	-0.602745	0.315579
C50	C	1.121426	-0.102745	0.815579
C51	C	0.664732	-0.676924	0.263095
C52	C	1.164732	-0.176924	0.763095
C53	C	0.758007	-0.695286	0.250082
C54	C	1.258007	-0.195286	0.750082
C55	C	0.807983	-0.639478	0.289554
C56	C	1.307983	-0.139478	0.789554
C57	C	0.528143	-0.584380	0.328595
C58	C	1.028143	-0.084380	0.828595
C59	C	0.521483	-0.714365	0.236632
C60	C	1.021483	-0.214365	0.736632
C61	C	0.614756	-0.732732	0.223623
C62	C	1.114756	-0.232732	0.723623
C63	C	1.100119	-0.793316	0.381091
C64	C	1.600119	-0.293316	0.881091
C65	C	1.080585	-0.886832	0.400670
C66	C	1.580585	-0.386832	0.900670
C67	C	1.285894	-1.240365	0.195688
C68	C	1.785894	-0.740365	0.695688
C69	C	1.304247	-1.152503	0.177289
C70	C	1.804247	-0.652503	0.677289
C71	C	1.248333	-1.086081	0.233132
C72	C	1.748333	-0.586081	0.733132
C73	C	1.174063	-1.107530	0.307379
C74	C	1.674063	-0.607530	0.807379
C75	C	1.155704	-1.195401	0.325777
C76	C	1.655704	-0.695401	0.825777
C77	C	1.118144	-1.041117	0.363221
C78	C	1.618144	-0.541117	0.863221
C79	C	1.043874	-1.062565	0.437467
C80	C	1.543874	-0.562565	0.937467
C81	C	1.025519	-1.150428	0.455862
C82	C	1.525519	-0.650428	0.955862
C83	C	1.081432	-1.216850	0.400018
C84	C	1.581432	-0.716850	0.900018
C85	C	1.136503	-0.953246	0.344823
C86	C	1.636503	-0.453246	0.844823
C87	C	1.006313	-0.908281	0.474912
C88	C	1.506313	-0.408281	0.974912
C89	C	0.987960	-0.996144	0.493311
C90	C	1.487960	-0.496144	0.993311
C91	C	1.378907	-0.620636	0.302939
C92	C	1.878907	-0.120636	0.802939
C93	C	1.478175	-0.640192	0.289120
C94	C	1.978175	-0.140192	0.789120
C95	C	1.113606	-0.528825	0.568347
C96	C	1.613606	-0.028825	1.068347
C97	C	1.099819	-0.509257	0.667629
C98	C	1.599819	-0.009257	1.167629
C99	C	1.192001	-0.355320	0.289483
C100	C	1.692001	0.144680	0.789483
C101	C	1.211622	-0.261814	0.269930
C102	C	1.711622	0.238186	0.769930
C103	C	1.244266	-0.714315	0.960677
C104	C	1.744266	-0.214315	1.460677
C105	C	1.257214	-0.732704	0.867399
C106	C	1.757214	-0.232704	1.367399
C107	C	1.217866	-0.676844	0.817452
C108	C	1.717866	-0.176844	1.317452
C109	C	1.165569	-0.602591	0.860792
C110	C	1.665569	-0.102591	1.360792
C111	C	1.152613	-0.584204	0.954081
C112	C	1.652613	-0.084204	1.454081
C113	C	1.126214	-0.546733	0.810856
C114	C	1.626214	-0.046733	1.310856
C115	C	1.073916	-0.472480	0.854196
C116	C	1.573916	0.027520	1.354196
C117	C	1.060964	-0.454095	0.947475
C118	C	1.560964	0.045905	1.447475
C119	C	1.100311	-0.509956	0.997423
C120	C	1.600311	-0.009956	1.497423
C121	C	1.139169	-0.565120	0.717567
C122	C	1.639169	-0.065120	1.217567
C123	C	1.047517	-0.435009	0.710970
C124	C	1.547517	0.064991	1.210970
C125	C	1.034569	-0.416619	0.804248
C126	C	1.534569	0.083381	1.304248
C127	C	1.178177	-0.620502	1.103301
C128	C	1.678177	-0.120502	1.603301
C129	C	1.191963	-0.640067	1.004019
C130	C	1.691963	-0.140067	1.504019
H131	H	0.793266	-0.755682	0.207338
H132	H	1.293266	-0.255682	0.707338
H133	H	0.552140	-0.457799	0.418134
H134	H	1.052140	0.042201	0.918134
Cl135	Cl	0.968824	-0.323277	0.858744
Cl136	Cl	1.468824	0.176723	1.358744
H137	H	1.181757	-0.625574	0.682286
H138	H	1.681757	-0.125574	1.182286
Cl139	Cl	1.397617	-1.125544	0.083962
Cl140	Cl	1.897617	-0.625544	0.583962
Cl141	Cl	1.084039	-0.486839	1.114691
Cl142	Cl	1.584039	0.013161	1.614691
Cl143	Cl	0.458663	-0.784526	0.187002
Cl144	Cl	0.958663	-0.284526	0.687002
Cl145	Cl	0.925244	-0.662569	0.273209
Cl146	Cl	1.425244	-0.162569	0.773209
H147	H	1.228411	-0.691822	0.741501
H148	H	1.728411	-0.191822	1.241501
H149	H	0.960782	-0.854200	0.520383
H150	H	1.460782	-0.354200	1.020383
H151	H	1.263280	-1.014541	0.218146
H152	H	1.763280	-0.514541	0.718146
Cl153	Cl	0.669209	-0.825982	0.157644
Cl154	Cl	1.169209	-0.325982	0.657644
H155	H	1.015477	-0.389523	0.670304
H156	H	1.515477	0.110477	1.170304
H157	H	0.812036	-0.389884	0.466133
H158	H	1.312036	0.110116	0.966133
H159	H	0.965034	-1.167887	0.516310
H160	H	1.465034	-0.667887	1.016310
Cl161	Cl	0.995175	-0.360775	1.001970
Cl162	Cl	1.495175	0.139225	1.501970
H163	H	1.276289	-0.759793	1.001355
H164	H	1.776289	-0.259793	1.501355
Cl165	Cl	1.058051	-1.327311	0.422834
Cl166	Cl	1.558051	-0.827311	0.922834
H167	H	0.492893	-0.523982	0.371326
H168	H	0.992893	-0.023982	0.871326
Cl169	Cl	0.623626	-0.323705	0.512994
Cl170	Cl	1.123626	0.176295	1.012994
Cl171	Cl	1.229868	-0.926292	0.251488
Cl172	Cl	1.729868	-0.426292	0.751488
Cl173	Cl	1.322959	-0.826045	0.812920
Cl174	Cl	1.822959	-0.326045	1.312920
H175	H	1.331406	-1.294451	0.150224
H176	H	1.831406	-0.794451	0.650224
Cl177	Cl	0.894595	-1.023120	0.586647
Cl178	Cl	1.394595	-0.523120	1.086647
