data_functionalizedCrystal
_audit_creation_method	'MofGen! by Chris Wilmer'
_symmetry_space_group_name_H-M	'P1'
_symmetry_Int_Tables_number	1
_symmetry_cell_setting	triclinic
loop_
_symmetry_equiv_pos_as_xyz
  x,y,z
_cell_length_a	21.395364
_cell_length_b	18.050590
_cell_length_c	21.395355
_cell_angle_alpha	90.018036
_cell_angle_beta	90.024516
_cell_angle_gamma	90.014317
loop_
_atom_site_label
_atom_site_type_symbol
_atom_site_fract_x
_atom_site_fract_y
_atom_site_fract_z
Zn1	Zn	0.957912	-0.295829	0.354263
Zn2	Zn	1.207912	-0.045829	0.604263
Zn3	Zn	1.457912	0.204171	0.854263
Zn4	Zn	1.707912	0.454171	1.104263
Zn5	Zn	0.957837	-0.420001	0.249486
Zn6	Zn	1.207837	-0.170001	0.499486
Zn7	Zn	1.457837	0.079999	0.749486
Zn8	Zn	1.707837	0.329999	0.999486
Zn9	Zn	0.853127	-0.295820	0.249500
Zn10	Zn	1.103127	-0.045820	0.499500
Zn11	Zn	1.353127	0.204180	0.749500
Zn12	Zn	1.603127	0.454180	0.999500
Zn13	Zn	0.853118	-0.419973	0.354227
Zn14	Zn	1.103118	-0.169973	0.604227
Zn15	Zn	1.353118	0.080027	0.854227
Zn16	Zn	1.603118	0.330027	1.104227
O17	O	0.905498	-0.357906	0.301869
O18	O	1.155498	-0.107906	0.551869
O19	O	1.405498	0.142094	0.801869
O20	O	1.655498	0.392094	1.051869
O21	O	1.045580	-0.312317	0.340374
O22	O	1.295580	-0.062317	0.590374
O23	O	1.545580	0.187683	0.840374
O24	O	1.795580	0.437683	1.090374
O25	O	0.943919	-0.403536	0.161810
O26	O	1.193919	-0.153536	0.411810
O27	O	1.443919	0.096464	0.661810
O28	O	1.693919	0.346464	0.911810
O29	O	0.867062	-0.191897	0.263418
O30	O	1.117062	0.058103	0.513418
O31	O	1.367062	0.308103	0.763418
O32	O	1.617062	0.558103	1.013418
O33	O	1.045525	-0.403545	0.263395
O34	O	1.295525	-0.153545	0.513395
O35	O	1.545525	0.096455	0.763395
O36	O	1.795525	0.346455	1.013395
O37	O	0.944047	-0.191904	0.340387
O38	O	1.194047	0.058096	0.590387
O39	O	1.444047	0.308096	0.840387
O40	O	1.694047	0.558096	1.090387
O41	O	0.866989	-0.312301	0.161820
O42	O	1.116989	-0.062301	0.411820
O43	O	1.366989	0.187699	0.661820
O44	O	1.616989	0.437699	0.911820
O45	O	0.765448	-0.312274	0.263382
O46	O	1.015448	-0.062274	0.513382
O47	O	1.265448	0.187726	0.763382
O48	O	1.515448	0.437726	1.013382
O49	O	0.867047	-0.403497	0.441909
O50	O	1.117047	-0.153497	0.691909
O51	O	1.367047	0.096503	0.941909
O52	O	1.617047	0.346503	1.191909
O53	O	0.765442	-0.403488	0.340325
O54	O	1.015442	-0.153488	0.590325
O55	O	1.265442	0.096512	0.840325
O56	O	1.515442	0.346512	1.090325
O57	O	0.944039	-0.312289	0.441936
O58	O	1.194039	-0.062289	0.691936
O59	O	1.444039	0.187711	0.941936
O60	O	1.694039	0.437711	1.191936
O61	O	0.943910	-0.523922	0.263360
O62	O	1.193910	-0.273922	0.513360
O63	O	1.443910	-0.023922	0.763360
O64	O	1.693910	0.226078	1.013360
O65	O	0.866974	-0.523901	0.340312
O66	O	1.116974	-0.273901	0.590312
O67	O	1.366974	-0.023901	0.840312
O68	O	1.616974	0.226099	1.090312
C69	C	0.742711	-0.357877	0.301851
C70	C	0.992711	-0.107877	0.551851
C71	C	1.242711	0.142123	0.801851
C72	C	1.492711	0.392123	1.051851
C73	C	0.673070	-0.357883	0.301859
C74	C	0.923070	-0.107883	0.551859
C75	C	1.173070	0.142117	0.801859
C76	C	1.423070	0.392117	1.051859
C77	C	0.171302	-0.310515	0.342026
C78	C	0.421302	-0.060515	0.592026
C79	C	0.671302	0.189485	0.842026
C80	C	0.921302	0.439485	1.092026
C81	C	0.236737	-0.310510	0.342026
C82	C	0.486737	-0.060510	0.592026
C83	C	0.736737	0.189490	0.842026
C84	C	0.986737	0.439490	1.092026
C85	C	0.269431	-0.357929	0.301883
C86	C	0.519431	-0.107929	0.551883
C87	C	0.769431	0.142071	0.801883
C88	C	1.019431	0.392071	1.051883
C89	C	0.236685	-0.405370	0.261749
C90	C	0.486685	-0.155370	0.511749
C91	C	0.736685	0.094630	0.761749
C92	C	0.986685	0.344630	1.011749
C93	C	0.171251	-0.405379	0.261754
C94	C	0.421251	-0.155379	0.511754
C95	C	0.671251	0.094621	0.761754
C96	C	0.921251	0.344621	1.011754
C97	C	0.373069	-0.363679	0.245416
C98	C	0.623069	-0.113679	0.495416
C99	C	0.873069	0.136321	0.745416
C100	C	1.123069	0.386321	0.995416
C101	C	0.438502	-0.363665	0.245409
C102	C	0.688502	-0.113665	0.495409
C103	C	0.938502	0.136335	0.745409
C104	C	1.188502	0.386335	0.995409
C105	C	0.471252	-0.357904	0.301866
C106	C	0.721252	-0.107904	0.551866
C107	C	0.971252	0.142096	0.801866
C108	C	1.221252	0.392096	1.051866
C109	C	0.438561	-0.352142	0.358331
C110	C	0.688561	-0.102142	0.608331
C111	C	0.938561	0.147858	0.858331
C112	C	1.188561	0.397858	1.108331
C113	C	0.373127	-0.352152	0.358337
C114	C	0.623127	-0.102152	0.608337
C115	C	0.873127	0.147848	0.858337
C116	C	1.123127	0.397848	1.108337
C117	C	0.340384	-0.357924	0.301873
C118	C	0.590384	-0.107924	0.551873
C119	C	0.840384	0.142076	0.801873
C120	C	1.090384	0.392076	1.051873
C121	C	0.574943	-0.310463	0.342000
C122	C	0.824943	-0.060463	0.592000
C123	C	1.074943	0.189537	0.842000
C124	C	1.324943	0.439537	1.092000
C125	C	0.640380	-0.310463	0.342001
C126	C	0.890380	-0.060463	0.592001
C127	C	1.140380	0.189537	0.842001
C128	C	1.390380	0.439537	1.092001
C129	C	0.640326	-0.405319	0.261718
C130	C	0.890326	-0.155319	0.511718
C131	C	1.140326	0.094681	0.761718
C132	C	1.390326	0.344681	1.011718
C133	C	0.574891	-0.405323	0.261723
C134	C	0.824891	-0.155323	0.511723
C135	C	1.074891	0.094677	0.761723
C136	C	1.324891	0.344677	1.011723
C137	C	0.542203	-0.357892	0.301863
C138	C	0.792203	-0.107892	0.551863
C139	C	1.042203	0.142108	0.801863
C140	C	1.292203	0.392108	1.051863
C141	C	0.905450	-0.550858	0.301844
C142	C	1.155450	-0.300858	0.551844
C143	C	1.405450	-0.050858	0.801844
C144	C	1.655450	0.199142	1.051844
C145	C	0.905487	-0.633404	0.301854
C146	C	1.155487	-0.383404	0.551854
C147	C	1.405487	-0.133404	0.801854
C148	C	1.655487	0.116596	1.051854
C149	C	0.947412	-0.832839	0.260066
C150	C	1.197412	-0.582839	0.510066
C151	C	1.447412	-0.332839	0.760066
C152	C	1.697412	-0.082839	1.010066
C153	C	0.962722	-0.882185	0.317250
C154	C	1.212722	-0.632185	0.567250
C155	C	1.462722	-0.382185	0.817250
C156	C	1.712722	-0.132185	1.067250
C157	C	0.905523	-0.784534	0.301879
C158	C	1.155523	-0.534534	0.551879
C159	C	1.405523	-0.284534	0.801879
C160	C	1.655523	-0.034534	1.051879
C161	C	0.890276	-0.882270	0.244721
C162	C	1.140276	-0.632270	0.494721
C163	C	1.390276	-0.382270	0.744721
C164	C	1.640276	-0.132270	0.994721
C165	C	0.905558	-0.930519	0.301898
C166	C	1.155558	-0.680519	0.551898
C167	C	1.405558	-0.430519	0.801898
C168	C	1.655558	-0.180519	1.051898
C169	C	0.920862	-0.832793	0.359093
C170	C	1.170862	-0.582793	0.609093
C171	C	1.420862	-0.332793	0.859093
C172	C	1.670862	-0.082793	1.109093
C173	C	0.848390	-0.832873	0.286526
C174	C	1.098390	-0.582873	0.536526
C175	C	1.348390	-0.332873	0.786526
C176	C	1.598390	-0.082873	1.036526
C177	C	0.863678	-0.882197	0.343749
C178	C	1.113678	-0.632197	0.593749
C179	C	1.363678	-0.382197	0.843749
C180	C	1.613678	-0.132197	1.093749
C181	C	0.905504	-0.700436	0.301867
C182	C	1.155504	-0.450436	0.551867
C183	C	1.405504	-0.200436	0.801867
C184	C	1.655504	0.049564	1.051867
C185	C	0.905577	-1.014616	0.301917
C186	C	1.155577	-0.764616	0.551917
C187	C	1.405577	-0.514616	0.801917
C188	C	1.655577	-0.264616	1.051917
C189	C	1.068922	-0.357935	0.301887
C190	C	1.318922	-0.107935	0.551887
C191	C	1.568922	0.142065	0.801887
C192	C	1.818922	0.392065	1.051887
C193	C	1.138563	-0.357947	0.301894
C194	C	1.388563	-0.107947	0.551894
C195	C	1.638563	0.142053	0.801894
C196	C	1.888563	0.392053	1.051894
C197	C	0.905550	-0.357891	0.465292
C198	C	1.155550	-0.107891	0.715292
C199	C	1.405550	0.142109	0.965292
C200	C	1.655550	0.392109	1.215292
C201	C	0.905573	-0.357885	0.534933
C202	C	1.155573	-0.107885	0.784933
C203	C	1.405573	0.142115	1.034933
C204	C	1.655573	0.392115	1.284933
C205	C	0.905564	-0.164200	0.301908
C206	C	1.155564	0.085800	0.551908
C207	C	1.405564	0.335800	0.801908
C208	C	1.655564	0.585800	1.051908
C209	C	0.905592	-0.081655	0.301924
C210	C	1.155592	0.168345	0.551924
C211	C	1.405592	0.418345	0.801924
C212	C	1.655592	0.668345	1.051924
C213	C	0.905483	-0.357867	0.139081
C214	C	1.155483	-0.107867	0.389081
C215	C	1.405483	0.142133	0.639081
C216	C	1.655483	0.392133	0.889081
C217	C	0.905582	-0.357665	0.069440
C218	C	1.155582	-0.107665	0.319440
C219	C	1.405582	0.142335	0.569440
C220	C	1.655582	0.392335	0.819440
C221	C	0.945660	-0.310391	0.567662
C222	C	1.195660	-0.060391	0.817662
C223	C	1.445660	0.189609	1.067662
C224	C	1.695660	0.439609	1.317662
C225	C	0.945659	-0.310359	0.633097
C226	C	1.195659	-0.060359	0.883097
C227	C	1.445659	0.189641	1.133097
C228	C	1.695659	0.439641	1.383097
C229	C	0.905578	-0.357834	0.665802
C230	C	1.155578	-0.107834	0.915802
C231	C	1.405578	0.142166	1.165802
C232	C	1.655578	0.392166	1.415802
C233	C	0.865482	-0.405331	0.633066
C234	C	1.115482	-0.155331	0.883066
C235	C	1.365482	0.094669	1.133066
C236	C	1.615482	0.344669	1.383066
C237	C	0.865480	-0.405356	0.567632
C238	C	1.115480	-0.155356	0.817632
C239	C	1.365480	0.094644	1.067632
C240	C	1.615480	0.344644	1.317632
C241	C	0.900614	-0.424703	0.769468
C242	C	1.150614	-0.174703	1.019468
C243	C	1.400614	0.075297	1.269468
C244	C	1.650614	0.325297	1.519468
C245	C	0.900620	-0.424678	0.834901
C246	C	1.150620	-0.174678	1.084901
C247	C	1.400620	0.075322	1.334901
C248	C	1.650620	0.325322	1.584901
C249	C	0.905581	-0.357755	0.867623
C250	C	1.155581	-0.107755	1.117623
C251	C	1.405581	0.142245	1.367623
C252	C	1.655581	0.392245	1.617623
C253	C	0.910549	-0.290854	0.834904
C254	C	1.160549	-0.040854	1.084904
C255	C	1.410549	0.209146	1.334904
C256	C	1.660549	0.459146	1.584904
C257	C	0.910546	-0.290880	0.769469
C258	C	1.160546	-0.040880	1.019469
C259	C	1.410546	0.209120	1.269469
C260	C	1.660546	0.459120	1.519469
C261	C	0.905575	-0.357811	0.736754
C262	C	1.155575	-0.107811	0.986754
C263	C	1.405575	0.142189	1.236754
C264	C	1.655575	0.392189	1.486754
C265	C	0.945670	-0.310223	0.971303
C266	C	1.195670	-0.060223	1.221303
C267	C	1.445670	0.189777	1.471303
C268	C	1.695670	0.439777	1.721303
C269	C	0.945665	-0.310190	1.036740
C270	C	1.195665	-0.060190	1.286740
C271	C	1.445665	0.189810	1.536740
C272	C	1.695665	0.439810	1.786740
C273	C	0.865491	-0.405169	1.036708
C274	C	1.115491	-0.155169	1.286708
C275	C	1.365491	0.094831	1.536708
C276	C	1.615491	0.344831	1.786708
C277	C	0.865493	-0.405195	0.971272
C278	C	1.115493	-0.155195	1.221272
C279	C	1.365493	0.094805	1.471272
C280	C	1.615493	0.344805	1.721272
C281	C	0.905586	-0.357723	0.938574
C282	C	1.155586	-0.107723	1.188574
C283	C	1.405586	0.142277	1.438574
C284	C	1.655586	0.392277	1.688574
H285	H	0.548328	-0.271841	0.374685
H286	H	0.798328	-0.021841	0.624685
H287	H	1.048328	0.228159	0.874685
H288	H	1.298328	0.478159	1.124685
Cl289	Cl	0.809009	-0.915452	0.398415
Cl290	Cl	1.059009	-0.665452	0.648415
Cl291	Cl	1.309009	-0.415452	0.898415
Cl292	Cl	1.559009	-0.165452	1.148415
Cl293	Cl	1.002120	-0.799374	0.205528
Cl294	Cl	1.252120	-0.549374	0.455528
Cl295	Cl	1.502120	-0.299374	0.705528
Cl296	Cl	1.752120	-0.049374	0.955528
H297	H	0.263309	-0.443981	0.229066
H298	H	0.513309	-0.193981	0.479066
H299	H	0.763309	0.056019	0.729066
H300	H	1.013309	0.306019	0.979066
H301	H	0.667035	-0.271840	0.374686
H302	H	0.917035	-0.021840	0.624686
H303	H	1.167035	0.228160	0.874686
H304	H	1.417035	0.478160	1.124686
H305	H	0.144595	-0.444006	0.229074
H306	H	0.394595	-0.194006	0.479074
H307	H	0.644595	0.055994	0.729074
H308	H	0.894595	0.305994	0.979074
Cl309	Cl	0.916788	-0.206717	0.876032
Cl310	Cl	1.166788	0.043283	1.126032
Cl311	Cl	1.416788	0.293283	1.376032
Cl312	Cl	1.666788	0.543283	1.626032
H313	H	0.832853	-0.443874	0.944625
H314	H	1.082853	-0.193874	1.194625
H315	H	1.332853	0.056126	1.444625
H316	H	1.582853	0.306126	1.694625
Cl317	Cl	0.130212	-0.250893	0.392493
Cl318	Cl	0.380212	-0.000893	0.642493
Cl319	Cl	0.630212	0.249107	0.892493
Cl320	Cl	0.880212	0.499107	1.142493
Cl321	Cl	0.479725	-0.344889	0.429309
Cl322	Cl	0.729725	-0.094889	0.679309
Cl323	Cl	0.979725	0.155111	0.929309
Cl324	Cl	1.229725	0.405111	1.179309
Cl325	Cl	1.037343	-0.915613	0.337330
Cl326	Cl	1.287343	-0.665613	0.587330
Cl327	Cl	1.537343	-0.415613	0.837330
Cl328	Cl	1.787343	-0.165613	1.087330
H329	H	0.933724	-0.811153	0.407481
H330	H	1.183724	-0.561153	0.657481
H331	H	1.433724	-0.311153	0.907481
H332	H	1.683724	-0.061153	1.157481
H333	H	0.832832	-0.444031	0.540985
H334	H	1.082832	-0.194031	0.790985
H335	H	1.332832	0.055969	1.040985
H336	H	1.582832	0.305969	1.290985
Cl337	Cl	0.681422	-0.464938	0.211258
Cl338	Cl	0.931422	-0.214938	0.461258
Cl339	Cl	1.181422	0.035062	0.711258
Cl340	Cl	1.431422	0.285062	0.961258
Cl341	Cl	0.773788	-0.799406	0.266433
Cl342	Cl	1.023788	-0.549406	0.516433
Cl343	Cl	1.273788	-0.299406	0.766433
Cl344	Cl	1.523788	-0.049406	1.016433
Cl345	Cl	0.870344	-0.915824	0.170080
Cl346	Cl	1.120344	-0.665824	0.420080
Cl347	Cl	1.370344	-0.415824	0.670080
Cl348	Cl	1.620344	-0.165824	0.920080
H349	H	0.978307	-0.271734	0.541043
H350	H	1.228307	-0.021734	0.791043
H351	H	1.478307	0.228266	1.041043
H352	H	1.728307	0.478266	1.291043
Cl353	Cl	0.916786	-0.206780	0.728339
Cl354	Cl	1.166786	0.043220	0.978339
Cl355	Cl	1.416786	0.293220	1.228339
Cl356	Cl	1.666786	0.543220	1.478339
Cl357	Cl	0.533731	-0.464944	0.211259
Cl358	Cl	0.783731	-0.214944	0.461259
Cl359	Cl	1.033731	0.035056	0.711259
Cl360	Cl	1.283731	0.285056	0.961259
Cl361	Cl	0.996047	-0.250633	0.674249
Cl362	Cl	1.246047	-0.000633	0.924249
Cl363	Cl	1.496047	0.249367	1.174249
Cl364	Cl	1.746047	0.499367	1.424249
Cl365	Cl	0.815091	-0.465011	0.674180
Cl366	Cl	1.065091	-0.215011	0.924180
Cl367	Cl	1.315091	0.034989	1.174180
Cl368	Cl	1.565091	0.284989	1.424180
Cl369	Cl	0.479592	-0.370894	0.174424
Cl370	Cl	0.729592	-0.120894	0.424424
Cl371	Cl	0.979592	0.129106	0.674424
Cl372	Cl	1.229592	0.379106	0.924424
Cl373	Cl	0.996068	-0.250542	0.930194
Cl374	Cl	1.246068	-0.000542	1.180194
Cl375	Cl	1.496068	0.249458	1.430194
Cl376	Cl	1.746068	0.499458	1.680194
H377	H	0.346409	-0.368374	0.199439
H378	H	0.596409	-0.118374	0.449439
H379	H	0.846409	0.131626	0.699439
H380	H	1.096409	0.381626	0.949439
H381	H	0.978308	-0.271510	1.063386
H382	H	1.228308	-0.021510	1.313386
H383	H	1.478308	0.228490	1.563386
H384	H	1.728308	0.478490	1.813386
H385	H	0.832849	-0.443816	1.063335
H386	H	1.082849	-0.193816	1.313335
H387	H	1.332849	0.056184	1.563335
H388	H	1.582849	0.306184	1.813335
Cl389	Cl	0.894395	-0.508845	0.728339
Cl390	Cl	1.144395	-0.258845	0.978339
Cl391	Cl	1.394395	-0.008845	1.228339
Cl392	Cl	1.644395	0.241155	1.478339
Cl393	Cl	0.277903	-0.250874	0.392479
Cl394	Cl	0.527903	-0.000874	0.642479
Cl395	Cl	0.777903	0.249126	0.892479
Cl396	Cl	1.027903	0.499126	1.142479
Cl397	Cl	0.332032	-0.344915	0.429318
Cl398	Cl	0.582032	-0.094915	0.679318
Cl399	Cl	0.832032	0.155085	0.929318
Cl400	Cl	1.082032	0.405085	1.179318
Cl401	Cl	0.894382	-0.508782	0.876027
Cl402	Cl	1.144382	-0.258782	1.126027
Cl403	Cl	1.394382	-0.008782	1.376027
Cl404	Cl	1.644382	0.241218	1.626027
