data_functionalizedCrystal
_audit_creation_method	'MofGen! by Chris Wilmer'
_symmetry_space_group_name_H-M	'P1'
_symmetry_Int_Tables_number	1
_symmetry_cell_setting	triclinic
loop_
_symmetry_equiv_pos_as_xyz
  x,y,z
_cell_length_a	17.699083
_cell_length_b	8.559649
_cell_length_c	16.776229
_cell_angle_alpha	89.994739
_cell_angle_beta	89.998886
_cell_angle_gamma	76.530840
loop_
_atom_site_label
_atom_site_type_symbol
_atom_site_fract_x
_atom_site_fract_y
_atom_site_fract_z
O1	O	0.992507	0.202110	-0.066174
O2	O	0.770623	0.228404	-0.066200
O3	O	0.901113	-0.017421	-0.066184
O4	O	0.862017	0.447935	-0.066190
O5	O	0.901098	-0.017436	0.066393
O6	O	0.770608	0.228389	0.066377
O7	O	0.992492	0.202095	0.066403
Zn8	Zn	0.881548	0.215240	0.087439
Zn9	Zn	0.881567	0.215259	-0.087236
O10	O	0.862002	0.447920	0.066387
C11	C	0.742473	0.227455	0.000085
C12	C	0.658616	0.224628	0.000075
C13	C	0.601734	0.368922	0.000074
C14	C	0.522943	0.366257	0.000084
C15	C	0.501037	0.219296	0.000090
C16	C	0.557926	0.074990	0.000094
C17	C	0.636715	0.077657	0.000090
C18	C	0.240179	0.064231	0.000114
C19	C	0.161383	0.061575	0.000116
C20	C	0.126407	0.352831	0.000108
C21	C	0.205196	0.355498	0.000104
C22	C	0.262078	0.211193	0.000112
C23	C	0.347512	0.214085	0.000102
C24	C	0.415605	0.216402	0.000094
C25	C	0.904069	-0.076970	0.000103
C26	C	0.912888	-0.254384	0.000100
C27	C	1.020643	0.203044	0.000116
C28	C	1.104499	0.205871	0.000120
C29	C	0.859047	0.507469	0.000098
C30	C	0.850227	0.684883	0.000096
N31	N	0.881540	0.215225	0.206650
N32	N	0.881581	0.215261	-0.206447
C33	C	0.939335	0.106418	0.248374
C34	C	0.939339	0.106417	0.331827
C35	C	0.881552	0.215231	0.373553
C36	C	0.823752	0.324043	0.331823
C37	C	0.823745	0.324036	0.248372
C38	C	0.823777	0.324075	0.668370
C39	C	0.823790	0.324077	0.751827
C40	C	0.939371	0.106456	0.751824
C41	C	0.939364	0.106448	0.668374
C42	C	0.881563	0.215254	0.626651
C43	C	0.881558	0.215252	0.536163
C44	C	0.881559	0.215242	0.464040
H45	H	0.683029	-0.039842	0.000091
C46	C	0.760212	0.443777	0.797724
N47	N	0.712327	0.533929	0.832294
H48	H	0.789834	-0.231386	0.000091
H49	H	0.973285	-0.338124	0.000113
H50	H	0.286484	-0.053271	0.000122
C51	C	1.002906	-0.013289	0.202483
N52	N	1.050788	-0.103462	0.167920
H53	H	0.080083	0.470330	0.000106
C54	C	0.760280	0.443971	0.622486
N55	N	0.712481	0.534357	0.587924
C56	C	1.002901	-0.013318	0.377719
N57	N	1.050773	-0.103522	0.412285
H58	H	0.986422	0.017847	0.634403
H59	H	0.143552	-0.058106	0.000123
H60	H	0.986435	0.017855	0.785804
C61	C	0.533826	-0.086669	0.000103
N62	N	0.515675	-0.208435	0.000106
C63	C	0.760172	0.443745	0.202476
N64	N	0.712287	0.533914	0.167908
C65	C	0.625822	0.530594	0.000068
N66	N	0.643963	0.652370	0.000067
C67	C	0.460375	0.524993	0.000096
N68	N	0.413247	0.644559	0.000112
C69	C	0.760179	0.443726	0.377725
N70	N	0.712294	0.533872	0.412298
H71	H	0.223027	0.475168	0.000095
