data_functionalizedCrystal
_audit_creation_method	'MofGen! by Chris Wilmer'
_symmetry_space_group_name_H-M	'P1'
_symmetry_Int_Tables_number	1
_symmetry_cell_setting	triclinic
loop_
_symmetry_equiv_pos_as_xyz
  x,y,z
_cell_length_a	14.044220
_cell_length_b	15.944551
_cell_length_c	12.503572
_cell_angle_alpha	93.522593
_cell_angle_beta	86.164750
_cell_angle_gamma	88.343808
loop_
_atom_site_label
_atom_site_type_symbol
_atom_site_fract_x
_atom_site_fract_y
_atom_site_fract_z
O1	O	1.263178	0.198062	-0.089210
O2	O	1.763178	0.698062	0.410790
O3	O	0.987210	0.190753	-0.089237
O4	O	1.487210	0.690753	0.410763
O5	O	1.132730	0.072697	-0.089213
O6	O	1.632730	0.572697	0.410787
O7	O	1.117659	0.316117	-0.089234
O8	O	1.617659	0.816117	0.410766
O9	O	1.121786	0.081592	0.089427
O10	O	1.621786	0.581592	0.589427
O11	O	0.976267	0.199647	0.089403
O12	O	1.476267	0.699647	0.589403
O13	O	1.252235	0.206956	0.089430
O14	O	1.752235	0.706956	0.589430
Cu15	Cu	1.113251	0.204114	0.105728
Cu16	Cu	1.613251	0.704114	0.605728
Cu17	Cu	1.126194	0.193595	-0.105535
Cu18	Cu	1.626194	0.693595	0.394465
O19	O	1.106715	0.325012	0.089406
O20	O	1.606715	0.825012	0.589406
C21	C	0.946424	0.192001	0.000079
C22	C	1.446424	0.692001	0.500079
C23	C	0.841198	0.182459	0.000069
C24	C	1.341198	0.682459	0.500069
C25	C	0.648534	0.165017	0.000092
C26	C	1.148534	0.665017	0.500092
C27	C	0.590906	0.232688	0.000091
C28	C	1.090906	0.732688	0.500091
C29	C	0.483701	0.222983	0.000104
C30	C	0.983701	0.722983	0.500104
C31	C	0.755749	0.174721	0.000079
C32	C	1.255749	0.674721	0.500079
C33	C	1.126632	0.045804	0.000107
C34	C	1.626632	0.545804	0.500107
C35	C	1.124756	-0.047583	0.000107
C36	C	1.624756	0.452417	0.500107
C37	C	1.030073	-0.269530	0.000083
C38	C	1.530073	0.230470	0.500083
C39	C	1.068645	-0.322870	0.088168
C40	C	1.568645	0.177130	0.588168
C41	C	1.121363	-0.218563	0.000099
C42	C	1.621363	0.281437	0.500099
C43	C	1.079457	-0.331621	-0.087957
C44	C	1.579457	0.168379	0.412043
C45	C	1.118079	-0.383722	0.000086
C46	C	1.618079	0.116278	0.500086
C47	C	1.159956	-0.270669	0.088256
C48	C	1.659956	0.229331	0.588256
C49	C	1.170759	-0.279418	-0.087948
C50	C	1.670759	0.220582	0.412052
C51	C	1.209396	-0.332734	0.000158
C52	C	1.709396	0.167266	0.500158
C53	C	1.123252	-0.123419	0.000107
C54	C	1.623252	0.376581	0.500107
C55	C	1.116197	-0.478865	0.000085
C56	C	1.616197	0.021135	0.500085
C57	C	1.293021	0.205708	0.000111
C58	C	1.793021	0.705708	0.500111
C59	C	1.398247	0.215249	0.000114
C60	C	1.898247	0.715249	0.500114
C61	C	1.112813	0.351905	0.000083
C62	C	1.612813	0.851905	0.500083
C63	C	1.114689	0.445291	0.000076
C64	C	1.614689	0.945291	0.500076
N65	N	1.104155	0.211512	0.254318
N66	N	1.604155	0.711512	0.754318
N67	N	1.135297	0.186191	-0.254126
N68	N	1.635297	0.686191	0.245874
C69	C	1.090774	0.222403	0.473431
C70	C	1.590774	0.722403	0.973431
C71	C	1.148675	0.175303	0.526768
C72	C	1.648675	0.675303	1.026768
C73	C	1.141230	0.181362	0.648690
C74	C	1.641230	0.681362	1.148690
C75	C	1.098218	0.216344	0.351498
C76	C	1.598218	0.716344	0.851498
H77	H	0.622081	0.297911	0.000080
H78	H	1.122081	0.797911	0.500080
H79	H	0.617360	0.099799	0.000104
H80	H	1.117360	0.599799	0.500104
C81	C	1.228136	-0.253537	-0.187271
C82	C	1.728136	0.246463	0.312729
C83	C	1.169836	-0.204429	-0.247118
C84	C	1.669836	0.295571	0.252882
C85	C	1.222653	-0.180561	-0.338622
C86	C	1.722653	0.319439	0.161378
H87	H	1.250867	-0.302313	-0.229855
H88	H	1.750867	0.197687	0.270145
H89	H	1.280777	-0.221864	-0.166156
H90	H	1.780777	0.278136	0.333844
H91	H	1.117212	-0.236102	-0.268234
H92	H	1.617212	0.263898	0.231766
H93	H	1.147104	-0.155642	-0.204566
H94	H	1.647104	0.344358	0.295434
H95	H	1.275294	-0.148888	-0.317507
H96	H	1.775294	0.351112	0.182493
H97	H	1.245382	-0.229342	-0.381197
H98	H	1.745382	0.270658	0.118803
H99	H	1.183107	-0.147233	-0.379234
H100	H	1.683107	0.352767	0.120766
H101	H	1.045395	-0.358298	-0.162431
H102	H	1.545395	0.141702	0.337569
H103	H	1.035617	0.267275	0.519330
H104	H	1.535617	0.767275	1.019330
H105	H	1.203838	0.130429	0.480864
H106	H	1.703838	0.630429	0.980864
H107	H	0.954293	-0.241893	0.000164
H108	H	1.454293	0.258107	0.500164
H109	H	1.025471	-0.342162	0.162629
H110	H	1.525471	0.157838	0.662629
H111	H	1.193969	-0.244078	0.162806
H112	H	1.693969	0.255922	0.662806
C113	C	1.310521	-0.369325	0.000451
C114	C	1.810521	0.130675	0.500451
C115	C	1.352204	-0.338194	0.092840
C116	C	1.852204	0.161806	0.592840
C117	C	1.445351	-0.371893	0.093159
C118	C	1.945351	0.128107	0.593159
H119	H	1.347098	-0.353760	-0.061449
H120	H	1.847098	0.146240	0.438551
H121	H	1.308851	-0.428873	-0.000084
H122	H	1.808851	0.071127	0.499916
H123	H	1.353879	-0.278659	0.093365
H124	H	1.853879	0.221341	0.593365
H125	H	1.315654	-0.353757	0.154755
H126	H	1.815654	0.146243	0.654755
H127	H	1.443681	-0.431441	0.092623
H128	H	1.943681	0.068559	0.592623
H129	H	1.481919	-0.356326	0.031255
H130	H	1.981919	0.143674	0.531255
H131	H	1.473641	-0.350782	0.155848
H132	H	1.973641	0.149218	0.655848
