data_functionalizedCrystal
_audit_creation_method	'MofGen! by Chris Wilmer'
_symmetry_space_group_name_H-M	'P1'
_symmetry_Int_Tables_number	1
_symmetry_cell_setting	triclinic
loop_
_symmetry_equiv_pos_as_xyz
  x,y,z
_cell_length_a	29.839131
_cell_length_b	12.827893
_cell_length_c	12.827885
_cell_angle_alpha	90.021189
_cell_angle_beta	89.963179
_cell_angle_gamma	89.960561
loop_
_atom_site_label
_atom_site_type_symbol
_atom_site_fract_x
_atom_site_fract_y
_atom_site_fract_z
Zn1	Zn	-0.178855	-1.597481	-0.590851
Zn2	Zn	-0.253992	-1.597295	-0.416090
Zn3	Zn	-0.178875	-1.422722	-0.416119
Zn4	Zn	-0.253956	-1.422628	-0.590784
O5	O	-0.216420	-1.510031	-0.503461
O6	O	-0.188829	-1.743692	-0.567684
O7	O	-0.244051	-1.574100	-0.269857
O8	O	-0.116005	-1.446021	-0.439338
O9	O	-0.244032	-1.743556	-0.439288
O10	O	-0.115991	-1.574415	-0.567713
O11	O	-0.188862	-1.445841	-0.269879
O12	O	-0.188827	-1.276473	-0.439273
O13	O	-0.243971	-1.445861	-0.737029
O14	O	-0.243990	-1.276404	-0.567598
O15	O	-0.188794	-1.574324	-0.737078
O16	O	-0.316855	-1.574008	-0.439223
O17	O	-0.316828	-1.445681	-0.567570
C18	C	-0.216407	-1.238522	-0.503432
C19	C	-0.216412	-1.122368	-0.503444
C20	C	-0.243750	-1.070577	-0.566844
C21	C	-0.243757	-0.950527	-0.566859
C22	C	-0.333142	-1.509843	-0.503409
C23	C	-0.383077	-1.509858	-0.503422
C24	C	-0.692721	-1.576973	-0.436728
C25	C	-0.880394	-1.577102	-0.436769
O26	O	-0.904660	-1.634016	-0.380024
N27	N	-0.903862	-1.510248	-0.503540
C28	C	-0.880408	-1.443362	-0.570310
O29	O	-0.904675	-1.386509	-0.627111
C30	C	-0.692736	-1.443239	-0.570274
C31	C	-0.669271	-1.510090	-0.503491
C32	C	-0.669256	-1.643819	-0.369952
C33	C	-0.622341	-1.643782	-0.369938
C34	C	-0.598890	-1.576899	-0.436701
C35	C	-0.622355	-1.510053	-0.503478
C36	C	-0.669283	-1.376359	-0.637049
C37	C	-0.622362	-1.376336	-0.637036
C38	C	-0.598897	-1.443187	-0.570253
C39	C	-0.551990	-1.443133	-0.570227
N40	N	-0.528522	-1.509987	-0.503456
C41	C	-0.551972	-1.576870	-0.436693
C42	C	-0.978939	-1.443430	-0.570323
C43	C	-1.025857	-1.443459	-0.570331
C44	C	-1.025839	-1.577201	-0.436791
C45	C	-0.978921	-1.577165	-0.436778
C46	C	-0.955471	-1.510284	-0.503552
C47	C	-0.453447	-1.576787	-0.436669
C48	C	-0.406527	-1.576741	-0.436659
C49	C	-0.406548	-1.443003	-0.570202
C50	C	-0.453464	-1.443045	-0.570210
C51	C	-0.476912	-1.509945	-0.503440
O52	O	-0.527695	-1.386257	-0.626951
O53	O	-0.527698	-1.633731	-0.379917
C54	C	-0.739637	-1.577010	-0.436742
C55	C	-0.763102	-1.510164	-0.503518
C56	C	-0.739651	-1.443281	-0.570281
C57	C	-0.810020	-1.510193	-0.503526
C58	C	-0.833470	-1.577076	-0.436763
C59	C	-0.810002	-1.643930	-0.369992
C60	C	-0.763087	-1.643893	-0.369979
C61	C	-0.763119	-1.376427	-0.637052
C62	C	-0.810034	-1.376468	-0.637059
C63	C	-0.833485	-1.443351	-0.570296
C64	C	-0.099241	-1.510249	-0.503536
C65	C	-0.049307	-1.510342	-0.503568
C66	C	-0.216377	-1.510103	-0.776031
C67	C	-0.216358	-1.510133	-0.892184
C68	C	-0.216429	-0.782602	-0.503482
C69	C	-0.216424	-0.898755	-0.503470
C70	C	-0.189050	-1.573708	-0.943994
C71	C	-0.189030	-1.573740	-1.064044
C72	C	-0.216430	-1.510021	-0.231951
C73	C	-0.216322	-1.510193	-0.115798
H74	H	-0.193010	-1.077832	-0.449180
H75	H	-0.603272	-1.321874	-0.691414
N76	N	-0.247296	-1.438082	-1.056811
H77	H	-0.268109	-1.480535	-1.011516
H78	H	-0.228996	-1.389728	-1.011593
H79	H	-0.239720	-1.455722	-0.936705
N80	N	-1.051135	-1.649351	-0.364787
H81	H	-1.043003	-1.633169	-0.290100
H82	H	-1.084409	-1.639190	-0.375020
H83	H	-0.165683	-1.628108	-0.899472
N84	N	-0.381221	-1.648857	-0.364631
H85	H	-0.361720	-1.697244	-0.407140
H86	H	-0.361815	-1.606332	-0.316167
N87	N	-0.185417	-0.957746	-0.431574
H88	H	-0.153321	-0.938856	-0.447930
H89	H	-0.192386	-0.938742	-0.356889
N90	N	-0.274750	-1.129557	-0.638733
H91	H	-0.270352	-1.206956	-0.628531
H92	H	-0.306834	-1.110480	-0.622344
N93	N	-0.158061	-1.645849	-1.123049
H94	H	-0.162438	-1.635653	-1.200445
H95	H	-0.125971	-1.629656	-1.104046
N96	N	-0.478733	-1.648942	-0.364656
H97	H	-0.456743	-1.691276	-0.322356
H98	H	-0.498233	-1.606447	-0.316258
N99	N	-0.835337	-1.304349	-0.709091
H100	H	-0.827136	-1.320539	-0.783765
H101	H	-0.868610	-1.314543	-0.698892
H102	H	-0.267163	-0.905987	-0.621135
H103	H	-0.472570	-1.388613	-0.624593
H104	H	-0.603238	-1.698221	-0.315561
H105	H	-0.688344	-1.698289	-0.315585
H106	H	-0.959818	-1.631602	-0.382399
H107	H	-1.044958	-1.389013	-0.624702
H108	H	-0.743985	-1.698329	-0.315598
N109	N	-0.953648	-1.371282	-0.642337
H110	H	-0.961786	-1.387469	-0.717019
H111	H	-0.961863	-1.296663	-0.625939
N112	N	-0.694584	-1.304250	-0.709074
H113	H	-0.672603	-1.261885	-0.751363
H114	H	-0.714017	-1.346770	-0.757483
H115	H	-0.387448	-1.388545	-0.624557
N116	N	-0.835300	-1.716060	-0.297973
H117	H	-0.868582	-1.705930	-0.308121
H118	H	-0.827065	-1.790682	-0.314301
H119	H	-0.744029	-1.321964	-0.691420
