data_functionalizedCrystal
_audit_creation_method	'MofGen! by Chris Wilmer'
_symmetry_space_group_name_H-M	'P1'
_symmetry_Int_Tables_number	1
_symmetry_cell_setting	triclinic
loop_
_symmetry_equiv_pos_as_xyz
  x,y,z
_cell_length_a	15.944551
_cell_length_b	15.021413
_cell_length_c	15.944480
_cell_angle_alpha	90.010117
_cell_angle_beta	96.515708
_cell_angle_gamma	90.002826
loop_
_atom_site_label
_atom_site_type_symbol
_atom_site_fract_x
_atom_site_fract_y
_atom_site_fract_z
O1	O	1.114501	0.073927	-0.108324
O2	O	1.614501	0.573927	0.391676
O3	O	0.869948	0.073948	-0.121681
O4	O	1.369948	0.573948	0.378319
O5	O	0.998934	0.073945	0.007276
O6	O	1.498934	0.573945	0.507276
O7	O	0.985516	0.073930	-0.237282
O8	O	1.485516	0.573930	0.262718
O9	O	0.998913	-0.074120	0.007258
O10	O	1.498913	0.425880	0.507258
O11	O	0.869928	-0.074117	-0.121700
O12	O	1.369928	0.425883	0.378300
O13	O	1.114481	-0.074137	-0.108343
O14	O	1.614481	0.425863	0.391657
Zn15	Zn	0.992201	-0.097635	-0.115024
Zn16	Zn	1.492201	0.402365	0.384976
Zn17	Zn	0.992228	0.097446	-0.115000
Zn18	Zn	1.492228	0.597446	0.385000
O19	O	0.985495	-0.074134	-0.237300
O20	O	1.485495	0.425866	0.262700
C21	C	0.838644	-0.000082	-0.121136
C22	C	1.338644	0.499918	0.378864
C23	C	0.745399	-0.000073	-0.119473
C24	C	1.245399	0.499927	0.380527
N25	N	0.992189	-0.230773	-0.115040
N26	N	1.492189	0.269227	0.384960
C27	C	0.932537	-0.470455	-0.174642
C28	C	1.432537	0.029545	0.325358
C29	C	1.008433	-0.529797	-0.190950
C30	C	1.508433	-0.029797	0.309050
C31	C	0.992210	-0.412380	-0.115019
C32	C	1.492210	0.087620	0.384981
C33	C	0.916335	-0.529779	-0.098730
C34	C	1.416335	-0.029779	0.401270
C35	C	0.992224	-0.587804	-0.115001
C36	C	1.492224	-0.087804	0.384999
C37	C	1.068145	-0.470416	-0.131365
C38	C	1.568145	0.029584	0.368635
C39	C	0.975997	-0.470393	-0.039112
C40	C	1.475997	0.029607	0.460888
C41	C	1.051948	-0.529708	-0.055388
C42	C	1.551948	-0.029708	0.444612
C43	C	0.992201	-0.311322	-0.115032
C44	C	1.492201	0.188678	0.384968
C45	C	0.992242	-0.688859	-0.114987
C46	C	1.492242	-0.188859	0.385013
C47	C	0.530563	-0.000085	-0.035566
C48	C	1.030563	0.499915	0.464434
C49	C	0.469543	0.072916	-0.074521
C50	C	0.969543	0.572916	0.425479
C51	C	0.574674	-0.000083	-0.116466
C52	C	1.074674	0.499917	0.383534
C53	C	0.469545	-0.073064	-0.074558
C54	C	0.969545	0.426936	0.425442
C55	C	0.409762	-0.000097	-0.113555
C56	C	0.909762	0.499903	0.386445
C57	C	0.514882	0.072978	-0.155443
C58	C	1.014882	0.572978	0.344557
C59	C	0.514890	-0.073067	-0.155469
C60	C	1.014890	0.426933	0.344531
C61	C	0.453888	-0.000048	-0.194482
C62	C	0.953888	0.499952	0.305518
C63	C	0.669675	-0.000075	-0.118141
C64	C	1.169675	0.499925	0.381859
C65	C	0.314761	-0.000100	-0.111887
C66	C	0.814761	0.499900	0.388113
C67	C	1.145785	-0.000106	-0.108888
C68	C	1.645785	0.499894	0.391112
C69	C	1.239031	-0.000109	-0.110551
C70	C	1.739031	0.499891	0.389449
C71	C	0.998377	-0.000083	0.038562
C72	C	1.498377	0.499917	0.538562
C73	C	0.996739	-0.000072	0.131811
C74	C	1.496739	0.499928	0.631811
N75	N	0.992247	0.230583	-0.114977
N76	N	1.492247	0.730583	0.385023
C77	C	1.072670	-0.000094	0.367572
C78	C	1.572670	0.499906	0.867572
C79	C	1.031741	0.072913	0.418150
C80	C	1.531741	0.572913	0.918150
C81	C	0.993702	-0.000082	0.302533
C82	C	1.493702	0.499918	0.802533
C83	C	1.031703	-0.073067	0.418108
C84	C	1.531703	0.426933	0.918108
C85	C	0.990775	-0.000095	0.467444
C86	C	1.490775	0.499905	0.967444
C87	C	0.952795	0.072985	0.351882
C88	C	1.452795	0.572985	0.851882
C89	C	0.952768	-0.073060	0.351837
C90	C	1.452768	0.426940	0.851837
C91	C	0.911781	-0.000036	0.402381
C92	C	1.411781	0.499964	0.902381
C93	C	0.995391	-0.000073	0.207533
C94	C	1.495391	0.499927	0.707533
C95	C	0.989081	-0.000097	0.562441
C96	C	1.489081	0.499903	1.062441
C97	C	0.986063	-0.000103	0.731416
C98	C	1.486063	0.499897	1.231416
C99	C	0.987736	-0.000106	0.638171
C100	C	1.487736	0.499894	1.138171
H101	H	0.882124	-0.444438	-0.225104
H102	H	1.382124	0.055562	0.274896
Br103	Br	0.436066	-0.175926	-0.017518
Br104	Br	0.936066	0.324074	0.482482
Br105	Br	0.398589	0.000007	-0.306500
Br106	Br	0.898589	0.500007	0.193500
Br107	Br	0.548418	-0.175946	-0.212468
Br108	Br	1.048418	0.324054	0.287532
H109	H	0.563913	0.000009	0.031574
H110	H	1.063913	0.500009	0.531574
H111	H	1.132331	-0.444449	-0.145210
H112	H	1.632331	0.055551	0.354790
H113	H	0.919473	0.134772	0.323070
H114	H	1.419473	0.634772	0.823070
H115	H	0.962246	-0.444279	0.025052
H116	H	1.462246	0.055721	0.525052
H117	H	0.852162	-0.555858	-0.084962
H118	H	1.352162	-0.055858	0.415038
Br119	Br	0.436057	0.175793	-0.017482
Br120	Br	0.936057	0.675793	0.482518
Br121	Br	1.087336	0.175778	0.466409
Br122	Br	1.587336	0.675778	0.966409
Br123	Br	0.798328	0.000035	0.428163
Br124	Br	1.298328	0.500035	0.928163
Br125	Br	1.186034	0.000012	0.341521
Br126	Br	1.686034	0.500012	0.841521
H127	H	0.534869	0.134762	-0.189627
H128	H	1.034869	0.634762	0.310373
H129	H	1.102473	-0.555562	-0.004956
H130	H	1.602473	-0.055562	0.495044
H131	H	1.022159	-0.555890	-0.255134
H132	H	1.522159	-0.055890	0.244866
Br133	Br	0.897235	-0.175931	0.303529
Br134	Br	1.397235	0.324069	0.803529
Br135	Br	1.087297	-0.175933	0.466316
Br136	Br	1.587297	0.324067	0.966316
