data_functionalizedCrystal
_audit_creation_method	'MofGen! by Chris Wilmer'
_symmetry_space_group_name_H-M	'P1'
_symmetry_Int_Tables_number	1
_symmetry_cell_setting	triclinic
loop_
_symmetry_equiv_pos_as_xyz
  x,y,z
_cell_length_a	13.596369
_cell_length_b	12.837943
_cell_length_c	12.784890
_cell_angle_alpha	83.967749
_cell_angle_beta	89.999966
_cell_angle_gamma	89.994445
loop_
_atom_site_label
_atom_site_type_symbol
_atom_site_fract_x
_atom_site_fract_y
_atom_site_fract_z
O1	O	-0.081772	1.350775	0.273809
O2	O	0.418228	1.850775	0.773809
O3	O	-0.081778	1.050189	0.260282
O4	O	0.418222	1.550189	0.760282
O5	O	-0.081770	1.222479	0.114546
O6	O	0.418230	1.722479	0.614546
O7	O	-0.081780	1.178485	0.419545
O8	O	0.418220	1.678485	0.919545
O9	O	0.081813	1.222457	0.114554
O10	O	0.581813	1.722457	0.614554
O11	O	0.081805	1.050167	0.260291
O12	O	0.581805	1.550167	0.760291
O13	O	0.081811	1.350753	0.273817
O14	O	0.581811	1.850753	0.773817
Zn15	Zn	0.107780	1.200457	0.267055
Zn16	Zn	0.607780	1.700457	0.767055
Zn17	Zn	-0.107747	1.200485	0.267044
Zn18	Zn	0.392253	1.700485	0.767044
O19	O	0.081802	1.178463	0.419554
O20	O	0.581802	1.678463	0.919554
C21	C	0.000013	1.011969	0.255717
C22	C	0.500013	1.511969	0.755717
C23	C	0.000011	0.898121	0.242089
C24	C	0.500011	1.398121	0.742089
C25	C	0.000019	0.642394	0.405921
C26	C	0.500019	1.142394	0.905921
C27	C	0.000018	0.535422	0.393122
C28	C	0.500018	1.035422	0.893122
C29	C	0.000014	0.577202	0.203691
C30	C	0.500014	1.077202	0.703691
C31	C	0.000015	0.684174	0.216491
C32	C	0.500015	1.184174	0.716491
C33	C	0.000016	0.716765	0.317609
C34	C	0.500016	1.216765	0.817609
C35	C	0.000010	0.823740	0.330408
C36	C	0.500010	1.323740	0.830408
C37	C	0.000014	0.865518	0.140979
C38	C	0.500014	1.365518	0.640979
C39	C	0.000012	0.758546	0.128179
C40	C	0.500012	1.258546	0.628179
N41	N	0.254872	1.200445	0.267062
N42	N	0.754872	1.700445	0.767062
C43	C	0.343870	1.200449	0.267066
C44	C	0.843870	1.700449	0.767066
C45	C	0.455521	1.200459	0.267061
C46	C	0.955521	1.700459	0.767061
C47	C	0.544512	1.200473	0.267051
C48	C	1.044512	1.700473	0.767051
C49	C	0.656170	1.200484	0.267046
C50	C	1.156170	1.700484	0.767046
N51	N	0.745161	1.200498	0.267036
N52	N	1.245161	1.700498	0.767036
C53	C	0.000021	1.225330	0.075240
C54	C	0.500021	1.725330	0.575240
C55	C	0.000019	1.233843	-0.041892
C56	C	0.500019	1.733843	0.458108
C57	C	0.000018	1.388973	0.278382
C58	C	0.500018	1.888973	0.778382
C59	C	0.000014	1.502821	0.292010
C60	C	0.500014	2.002821	0.792010
C61	C	0.000020	1.340544	-0.210061
C62	C	0.500020	1.840544	0.289939
C63	C	0.000021	1.332551	-0.100006
C64	C	0.500021	1.832551	0.399994
C65	C	0.000018	1.143122	-0.093841
C66	C	0.500018	1.643122	0.406159
C67	C	0.000016	1.151114	-0.203896
C68	C	0.500016	1.651114	0.296104
C69	C	0.000015	1.249829	-0.262003
C70	C	0.500015	1.749829	0.237997
C71	C	0.000007	1.257821	-0.372060
C72	C	0.500007	1.757821	0.127940
C73	C	0.000010	1.068392	-0.365893
C74	C	0.500010	1.568392	0.134107
C75	C	0.000012	1.060399	-0.255838
C76	C	0.500012	1.560399	0.244162
C77	C	0.000010	1.175612	0.458859
C78	C	0.500010	1.675612	0.958859
C79	C	0.000005	1.167099	0.575991
C80	C	0.500005	1.667099	1.075991
H81	H	0.000018	0.668929	0.488255
H82	H	0.500018	1.168929	0.988255
H83	H	0.000026	1.406421	-0.057719
H84	H	0.500026	1.906421	0.442281
H85	H	0.000025	1.062753	-0.046512
H86	H	0.500025	1.562753	0.453488
H87	H	0.000016	0.980029	-0.208513
H88	H	0.500016	1.480029	0.291487
H89	H	0.000022	0.474870	0.465035
H90	H	0.500022	0.974870	0.965035
Br91	Br	0.000006	0.867971	0.467637
Br92	Br	0.500006	1.367971	0.967637
Br93	Br	-0.000001	0.945270	-0.436390
Br94	Br	0.499999	1.445270	0.063610
H95	H	0.000094	0.550647	0.121365
H96	H	0.500094	1.050647	0.621365
H97	H	0.000023	0.731995	0.045851
H98	H	0.500023	1.231995	0.545851
H99	H	0.000005	0.926085	0.069068
H100	H	0.500005	1.426085	0.569068
Br101	Br	-0.000001	1.391788	-0.450919
Br102	Br	0.499999	1.891788	0.049081
Br103	Br	-0.000003	1.474509	-0.288925
Br104	Br	0.499997	1.974509	0.211075
