data_functionalizedCrystal
_audit_creation_method	'MofGen! by Chris Wilmer'
_symmetry_space_group_name_H-M	'P1'
_symmetry_Int_Tables_number	1
_symmetry_cell_setting	triclinic
loop_
_symmetry_equiv_pos_as_xyz
  x,y,z
_cell_length_a	12.811445
_cell_length_b	12.811487
_cell_length_c	15.186229
_cell_angle_alpha	95.428765
_cell_angle_beta	84.565222
_cell_angle_gamma	84.561825
loop_
_atom_site_label
_atom_site_type_symbol
_atom_site_fract_x
_atom_site_fract_y
_atom_site_fract_z
O1	O	1.393290	0.141403	-0.173193
O2	O	1.087773	0.156769	-0.147571
O3	O	1.248216	-0.003670	-0.173190
O4	O	1.232847	0.301842	-0.147574
O5	O	1.248205	-0.003673	-0.026732
O6	O	1.087763	0.156766	-0.001113
O7	O	1.393279	0.141401	-0.026735
Zn8	Zn	1.240519	0.149083	0.009329
Zn9	Zn	1.240533	0.149086	-0.183635
O10	O	1.232837	0.301840	-0.001116
C11	C	1.048660	0.155905	-0.071288
C12	C	0.932131	0.153323	-0.062190
C13	C	1.247348	-0.042779	-0.103016
C14	C	1.244767	-0.159306	-0.112118
C15	C	0.713168	0.148494	-0.204776
C16	C	0.603679	0.146068	-0.196231
C17	C	0.603660	0.146054	-0.036555
C18	C	0.713150	0.148479	-0.045100
C19	C	0.767900	0.149698	-0.129214
C20	C	0.877392	0.152116	-0.137758
C21	C	0.877371	0.152109	0.021918
C22	C	0.767881	0.149683	0.030463
C23	C	1.239924	-0.378292	0.030461
C24	C	1.237499	-0.487780	0.021913
C25	C	1.237499	-0.487773	-0.137762
C26	C	1.239924	-0.378285	-0.129214
C27	C	1.241135	-0.323548	-0.045099
C28	C	1.243553	-0.214057	-0.036551
C29	C	1.243561	-0.214054	-0.196227
C30	C	1.241135	-0.323542	-0.204775
C31	C	1.432392	0.142264	-0.103019
C32	C	1.548921	0.144846	-0.112124
C33	C	1.233704	0.340948	-0.071292
C34	C	1.236285	0.457476	-0.062196
N35	N	1.240517	0.149081	0.141022
N36	N	1.240544	0.149081	-0.315329
C37	C	1.311585	0.078062	0.355401
C38	C	1.311589	0.078060	0.447590
C39	C	1.169468	0.220102	0.470287
C40	C	1.169460	0.220099	0.378099
C41	C	1.240525	0.149080	0.320658
C42	C	1.240536	0.149081	0.505035
C43	C	1.240539	0.149079	0.604991
C44	C	1.240521	0.149081	0.220696
H45	H	0.921968	0.153107	-0.206248
H46	H	0.757747	0.149481	-0.273265
H47	H	1.240153	-0.368124	-0.273259
O48	O	1.244871	-0.155012	-0.277734
H49	H	1.246766	-0.069682	-0.257663
H50	H	0.559120	0.145090	-0.257762
O51	O	1.241231	-0.319243	0.121178
H52	H	1.239986	-0.375705	0.172285
H53	H	1.369449	0.020233	0.308634
O54	O	1.388245	0.001476	0.485066
H55	H	1.437664	-0.047896	0.429634
O56	O	1.092833	0.296712	0.532239
H57	H	1.104784	0.284794	0.602180
H58	H	0.921945	0.153088	0.083446
O59	O	0.544473	0.145782	0.054251
H60	H	0.459097	0.144269	0.047525
O61	O	1.092817	0.296703	0.340616
H62	H	1.043414	0.346099	0.396044
H63	H	1.244524	-0.169490	0.031940
O64	O	1.236185	-0.546829	0.103410
H65	H	1.237427	-0.490368	0.163333
O66	O	1.236193	-0.546817	-0.228480
H67	H	1.234298	-0.632147	-0.221725
H68	H	0.723288	0.148695	0.098946
