data_functionalizedCrystal
_audit_creation_method	'MofGen! by Chris Wilmer'
_symmetry_space_group_name_H-M	'P1'
_symmetry_Int_Tables_number	1
_symmetry_cell_setting	triclinic
loop_
_symmetry_equiv_pos_as_xyz
  x,y,z
_cell_length_a	18.101398
_cell_length_b	18.050589
_cell_length_c	18.050582
_cell_angle_alpha	89.981795
_cell_angle_beta	89.979764
_cell_angle_gamma	90.023488
loop_
_atom_site_label
_atom_site_type_symbol
_atom_site_fract_x
_atom_site_fract_y
_atom_site_fract_z
Zn1	Zn	1.132106	-0.295800	-0.420040
Zn2	Zn	1.132017	-0.419984	-0.295860
Zn3	Zn	1.008274	-0.295802	-0.295853
Zn4	Zn	1.008222	-0.419943	-0.419997
O5	O	1.070155	-0.357882	-0.357937
O6	O	1.235727	-0.312290	-0.403589
O7	O	1.115587	-0.403528	-0.191934
O8	O	1.024759	-0.191877	-0.312342
O9	O	1.235662	-0.403527	-0.312354
O10	O	1.115738	-0.191876	-0.403582
O11	O	1.024673	-0.312292	-0.191929
O12	O	0.904634	-0.312253	-0.312300
O13	O	1.024671	-0.403457	-0.523927
O14	O	0.904596	-0.403459	-0.403508
O15	O	1.115688	-0.312250	-0.523959
O16	O	1.115536	-0.523903	-0.312311
O17	O	1.024585	-0.523873	-0.403514
C18	C	0.877744	-0.357852	-0.357899
C19	C	0.795430	-0.357857	-0.357900
C20	C	0.496339	-0.357903	-0.357962
C21	C	0.527663	-0.300232	-0.300857
C22	C	0.613282	-0.300387	-0.300613
C23	C	0.644722	-0.357880	-0.357931
C24	C	0.613609	-0.436109	-0.336553
C25	C	0.527964	-0.435788	-0.336156
C26	C	0.527947	-0.338025	-0.436581
C27	C	0.613598	-0.336283	-0.436152
C28	C	0.728581	-0.357871	-0.357915
C29	C	0.412480	-0.357917	-0.357977
C30	C	1.070065	-0.550834	-0.357925
C31	C	1.070095	-0.633380	-0.357945
C32	C	1.020684	-0.832841	-0.407524
C33	C	1.002637	-0.882274	-0.339755
C34	C	1.070167	-0.784510	-0.357954
C35	C	1.088251	-0.882160	-0.425731
C36	C	1.070236	-0.930495	-0.357970
C37	C	1.052085	-0.832856	-0.290149
C38	C	1.137730	-0.832737	-0.376172
C39	C	1.119709	-0.882147	-0.308356
C40	C	1.070126	-0.700412	-0.357947
C41	C	1.070278	-1.014592	-0.357970
C42	C	1.263316	-0.357913	-0.357977
C43	C	1.345631	-0.357926	-0.357994
C44	C	1.070184	-0.357849	-0.551643
C45	C	1.070196	-0.357835	-0.634189
C46	C	1.070265	-0.164177	-0.357966
C47	C	1.070311	-0.081631	-0.357978
C48	C	1.020739	-0.407366	-0.833622
C49	C	1.088304	-0.425525	-0.883021
C50	C	1.070233	-0.357779	-0.785319
C51	C	1.002705	-0.339599	-0.883002
C52	C	1.070262	-0.357725	-0.931305
C53	C	1.137833	-0.375973	-0.833631
C54	C	1.052188	-0.290016	-0.833608
C55	C	1.119800	-0.308149	-0.882984
C56	C	1.070215	-0.357811	-0.701221
C57	C	1.070287	-0.357692	-1.015401
C58	C	1.070168	-0.357861	-0.164985
C59	C	1.070299	-0.357666	-0.082440
H60	H	0.507241	-0.480212	-0.375935
H61	H	0.945585	-0.324245	-0.904690
H62	H	1.103584	-0.482808	-0.904726
C63	C	1.018708	-0.863666	-0.165127
C64	C	1.031383	-0.803748	-0.212757
H65	H	1.005930	-0.845694	-0.117349
H66	H	0.979413	-0.893014	-0.183965
H67	H	1.062190	-0.892920	-0.161754
H68	H	0.987899	-0.774498	-0.216134
H69	H	1.070680	-0.774388	-0.193914
H70	H	0.506371	-0.281974	-0.456019
H71	H	1.161716	-0.266192	-0.904521
C72	C	0.964390	-0.463025	-0.726789
C73	C	0.964288	-0.464043	-0.804355
H74	H	0.929539	-0.498013	-0.708722
H75	H	1.012243	-0.475452	-0.709165
H76	H	0.951444	-0.414919	-0.709877
H77	H	0.977240	-0.512148	-0.821267
H78	H	0.916424	-0.451621	-0.821987
H79	H	0.633938	-0.278715	-0.452272
C80	C	1.214090	-0.725772	-0.396091
C81	C	1.214801	-0.803336	-0.396991
H82	H	1.261673	-0.707623	-0.408945
H83	H	1.178799	-0.708161	-0.430807
H84	H	1.201328	-0.708932	-0.347905
H85	H	1.227558	-0.820177	-0.445179
H86	H	1.250103	-0.820955	-0.362273
H87	H	0.978776	-0.811191	-0.449383
C88	C	0.686466	-0.462733	-0.444480
C89	C	0.641102	-0.495676	-0.390936
H90	H	0.703442	-0.499509	-0.478051
H91	H	0.659148	-0.426315	-0.470774
H92	H	0.727579	-0.440046	-0.420927
H93	H	0.599985	-0.518359	-0.414489
H94	H	0.668420	-0.532108	-0.364640
C95	C	1.214240	-0.396672	-0.726915
C96	C	1.214964	-0.396800	-0.804484
H97	H	1.261855	-0.409536	-0.708922
H98	H	1.201339	-0.348709	-0.709589
H99	H	1.179041	-0.431695	-0.709627
H100	H	1.250159	-0.361772	-0.821772
H101	H	1.227874	-0.444770	-0.821817
C102	C	0.561314	-0.430329	-0.526301
C103	C	0.500599	-0.394725	-0.494025
H104	H	0.544425	-0.465336	-0.561756
H105	H	0.591840	-0.394695	-0.550048
H106	H	0.588845	-0.455111	-0.488985
H107	H	0.473070	-0.369938	-0.531340
H108	H	0.470060	-0.430364	-0.470277
C109	C	0.719818	-0.462249	-0.261331
C110	C	0.642537	-0.459250	-0.259804
H111	H	0.737681	-0.476524	-0.213948
H112	H	0.735255	-0.497416	-0.297270
H113	H	0.738930	-0.414835	-0.273800
H114	H	0.623424	-0.506665	-0.247341
H115	H	0.627093	-0.424080	-0.223854
H116	H	0.634318	-0.242377	-0.314013
C117	C	0.960744	-0.193811	-0.829149
C118	C	1.031534	-0.212711	-0.804273
H119	H	0.947987	-0.146088	-0.811032
H120	H	0.960163	-0.193335	-0.881763
H121	H	0.926073	-0.229186	-0.811510
H122	H	1.066207	-0.177339	-0.821916
H123	H	1.032121	-0.213181	-0.751647
H124	H	1.161585	-0.903660	-0.266395
C125	C	0.873777	-0.886770	-0.370925
C126	C	0.925548	-0.911652	-0.318955
H127	H	0.826186	-0.904909	-0.358088
H128	H	0.873083	-0.834156	-0.371208
H129	H	0.886946	-0.904382	-0.418724
H130	H	0.912382	-0.894036	-0.271156
H131	H	0.926239	-0.964278	-0.318664
C132	C	1.056935	-0.886501	-0.554900
C133	C	1.108868	-0.911394	-0.503098
H134	H	1.069663	-0.904544	-0.602664
H135	H	1.009310	-0.904194	-0.541625
H136	H	1.056620	-0.833879	-0.555550
H137	H	1.109179	-0.964017	-0.502445
H138	H	1.156505	-0.893705	-0.516377
H139	H	0.507089	-0.242045	-0.314109
H140	H	0.506119	-0.313224	-0.242940
H141	H	0.633740	-0.313527	-0.242357
H142	H	0.635002	-0.375228	-0.480979
H143	H	0.507957	-0.452647	-0.278682
