data_functionalizedCrystal
_audit_creation_method	'MofGen! by Chris Wilmer'
_symmetry_space_group_name_H-M	'P1'
_symmetry_Int_Tables_number	1
_symmetry_cell_setting	triclinic
loop_
_symmetry_equiv_pos_as_xyz
  x,y,z
_cell_length_a	16.959453
_cell_length_b	16.959455
_cell_length_c	18.215399
_cell_angle_alpha	90.019469
_cell_angle_beta	89.971469
_cell_angle_gamma	89.982504
loop_
_atom_site_label
_atom_site_type_symbol
_atom_site_fract_x
_atom_site_fract_y
_atom_site_fract_z
Zn1	Zn	-0.314800	-1.208402	-0.416106
Zn2	Zn	0.185200	-0.708402	0.083894
Zn3	Zn	-0.446985	-1.208309	-0.293038
Zn4	Zn	0.053015	-0.708309	0.206962
Zn5	Zn	-0.314813	-1.076221	-0.293054
Zn6	Zn	0.185187	-0.576221	0.206946
Zn7	Zn	-0.446928	-1.076189	-0.416064
Zn8	Zn	0.053072	-0.576189	0.083936
O9	O	-0.380882	-1.142280	-0.354565
O10	O	0.119118	-0.642280	0.145435
O11	O	-0.332353	-1.319001	-0.399791
O12	O	0.167647	-0.819001	0.100209
O13	O	-0.429482	-1.190761	-0.190056
O14	O	0.070518	-0.690761	0.309944
O15	O	-0.204200	-1.093807	-0.309401
O16	O	0.295800	-0.593807	0.190599
O17	O	-0.429469	-1.318932	-0.309374
O18	O	0.070531	-0.818932	0.190626
O19	O	-0.204191	-1.190920	-0.399807
O20	O	0.295809	-0.690920	0.100193
O21	O	-0.332375	-1.093717	-0.190067
O22	O	0.167625	-0.593717	0.309933
O23	O	-0.332320	-0.965606	-0.309360
O24	O	0.167680	-0.465606	0.190640
O25	O	-0.429372	-1.093753	-0.519054
O26	O	0.070628	-0.593753	-0.019054
O27	O	-0.429384	-0.965583	-0.399735
O28	O	0.070616	-0.465583	0.100265
O29	O	-0.332298	-1.190890	-0.519084
O30	O	0.167702	-0.690890	-0.019084
O31	O	-0.557589	-1.190731	-0.309334
O32	O	-0.057589	-0.690731	0.190666
O33	O	-0.557547	-1.093663	-0.399720
O34	O	-0.057547	-0.593663	0.100280
C35	C	-0.380848	-0.936914	-0.354545
C36	C	0.119152	-0.436914	0.145455
C37	C	-0.380852	-0.849057	-0.354554
C38	C	0.119148	-0.349057	0.145446
C39	C	-0.330273	-0.477570	-0.307596
C40	C	0.169727	0.022430	0.192404
C41	C	-0.431504	-0.477594	-0.401558
C42	C	0.068496	0.022406	0.098442
C43	C	-0.431496	-0.560140	-0.401554
C44	C	0.068504	-0.060140	0.098446
C45	C	-0.380877	-0.601405	-0.354570
C46	C	0.119123	-0.101405	0.145430
C47	C	-0.330265	-0.560123	-0.307589
C48	C	0.169735	-0.060123	0.192411
C49	C	-0.482112	-0.601428	-0.448529
C50	C	0.017888	-0.101428	0.051471
C51	C	-0.482107	-0.683979	-0.448527
C52	C	0.017893	-0.183979	0.051473
C53	C	-0.431483	-0.725245	-0.401546
C54	C	0.068517	-0.225245	0.098454
C55	C	-0.380869	-0.683958	-0.354564
C56	C	0.119131	-0.183958	0.145436
C57	C	-0.330249	-0.725223	-0.307580
C58	C	0.169751	-0.225223	0.192420
C59	C	-0.279630	-0.683938	-0.260601
C60	C	0.220370	-0.183938	0.239399
C61	C	-0.279641	-0.601389	-0.260608
C62	C	0.220359	-0.101389	0.239392
C63	C	-0.431472	-0.807793	-0.401539
C64	C	0.068528	-0.307793	0.098461
C65	C	-0.330241	-0.807776	-0.307574
C66	C	0.169759	-0.307776	0.192426
C67	C	-0.586248	-1.142205	-0.354537
C68	C	-0.086248	-0.642205	0.145463
C69	C	-0.674104	-1.142245	-0.354549
C70	C	-0.174104	-0.642245	0.145451
C71	C	-0.715452	-1.091744	-0.307446
C72	C	-0.215452	-0.591744	0.192554
C73	C	-0.715311	-1.192779	-0.401669
C74	C	-0.215311	-0.692779	0.098331
C75	C	-0.797857	-1.192816	-0.401685
C76	C	-0.297857	-0.692816	0.098315
C77	C	-0.839204	-1.142315	-0.354581
C78	C	-0.339204	-0.642315	0.145419
C79	C	-0.798005	-1.091777	-0.307462
C80	C	-0.298005	-0.591777	0.192538
C81	C	-0.839062	-1.243347	-0.448809
C82	C	-0.339062	-0.743347	0.051191
C83	C	-0.921613	-1.243386	-0.448827
C84	C	-0.421613	-0.743386	0.051173
C85	C	-0.962961	-1.192888	-0.401719
C86	C	-0.462961	-0.692888	0.098281
C87	C	-0.921757	-1.142349	-0.354597
C88	C	-0.421757	-0.642349	0.145403
C89	C	-0.963104	-1.091848	-0.307494
C90	C	-0.463104	-0.591848	0.192506
C91	C	-0.921902	-1.041312	-0.260368
C92	C	-0.421902	-0.541312	0.239632
C93	C	-0.839354	-1.041280	-0.260354
C94	C	-0.339354	-0.541280	0.239646
C95	C	-1.045510	-1.192920	-0.401733
C96	C	-0.545510	-0.692920	0.098267
C97	C	-1.045658	-1.091882	-0.307510
C98	C	-0.545658	-0.591882	0.192490
C99	C	-0.174713	-1.142378	-0.354610
C100	C	0.325287	-0.642378	0.145390
C101	C	-0.086857	-1.142419	-0.354629
C102	C	0.413143	-0.642419	0.145371
C103	C	-0.380827	-1.142328	-0.546518
C104	C	0.119173	-0.642328	-0.046518
C105	C	-0.380804	-1.142349	-0.628317
C106	C	0.119196	-0.642349	-0.128317
C107	C	-0.380907	-0.348449	-0.354582
C108	C	0.119093	0.151551	0.145418
C109	C	-0.380893	-0.436305	-0.354580
C110	C	0.119107	0.063695	0.145420
C111	C	-0.330210	-1.192946	-0.816529
C112	C	0.169790	-0.692946	-0.316529
C113	C	-0.330187	-1.192955	-0.893387
C114	C	0.169813	-0.692955	-0.393387
C115	C	-0.431275	-1.091808	-0.893344
C116	C	0.068725	-0.591808	-0.393344
C117	C	-0.431294	-1.091795	-0.816487
C118	C	0.068706	-0.591795	-0.316487
C119	C	-0.380762	-1.142369	-0.778081
C120	C	0.119238	-0.642369	-0.278081
C121	C	-0.380721	-1.142391	-0.931797
C122	C	0.119279	-0.642391	-0.431797
C123	C	-0.380696	-1.142401	-1.015131
C124	C	0.119304	-0.642401	-0.515131
C125	C	-0.380786	-1.142358	-0.694742
C126	C	0.119214	-0.642358	-0.194742
C127	C	-0.380879	-1.142278	-0.163359
C128	C	0.119121	-0.642278	0.336641
C129	C	-0.380679	-1.142410	-0.081561
C130	C	0.119321	-0.642410	0.418439
H131	H	-0.289059	-0.443952	-0.269349
H132	H	0.210941	0.056048	0.230651
Cl133	Cl	-0.545738	-0.735872	-0.507587
Cl134	Cl	-0.045738	-0.235872	-0.007587
H135	H	-0.289021	-1.234139	-0.924688
H136	H	0.210979	-0.734139	-0.424688
H137	H	-0.472687	-0.841404	-0.439786
H138	H	0.027313	-0.341404	0.060214
H139	H	-1.079053	-1.234056	-0.440112
H140	H	-0.579053	-0.734056	0.059888
H141	H	-0.955153	-1.284537	-0.487198
H142	H	-0.455153	-0.784537	0.012802
Cl143	Cl	-0.266682	-1.256521	-0.768250
Cl144	Cl	0.233318	-0.756521	-0.268250
Cl145	Cl	-0.266596	-0.859645	-0.248508
Cl146	Cl	0.233404	-0.359645	0.251492
H147	H	-0.472418	-1.050634	-0.924623
H148	H	0.027582	-0.550634	-0.424623
H149	H	-0.472721	-0.443992	-0.439806
H150	H	0.027279	0.056008	0.060194
H151	H	-0.238419	-0.717546	-0.222343
H152	H	0.261581	-0.217546	0.277657
H153	H	-0.472459	-1.050603	-0.785182
H154	H	0.027541	-0.550603	-0.285182
H155	H	-1.079317	-1.050759	-0.269150
H156	H	-0.579317	-0.550759	0.230850
Cl157	Cl	-0.787080	-1.306814	-0.508035
Cl158	Cl	-0.287080	-0.806814	-0.008035
H159	H	-0.238431	-0.567768	-0.222360
H160	H	0.261569	-0.067768	0.277640
H161	H	-0.681903	-1.050600	-0.269074
H162	H	-0.181903	-0.550600	0.230926
H163	H	-0.523330	-0.567824	-0.486776
H164	H	-0.023330	-0.067824	0.013224
H165	H	-0.955578	-1.000190	-0.222020
H166	H	-0.455578	-0.500190	0.277980
Cl167	Cl	-0.787552	-0.977751	-0.201119
Cl168	Cl	-0.287552	-0.477751	0.298881
Cl169	Cl	-0.663331	-1.256251	-0.460891
Cl170	Cl	-0.163331	-0.756251	0.039109
