data_functionalizedCrystal
_audit_creation_method	'MofGen! by Chris Wilmer'
_symmetry_space_group_name_H-M	'P1'
_symmetry_Int_Tables_number	1
_symmetry_cell_setting	triclinic
loop_
_symmetry_equiv_pos_as_xyz
  x,y,z
_cell_length_a	15.995292
_cell_length_b	15.995350
_cell_length_c	15.072220
_cell_angle_alpha	89.998899
_cell_angle_beta	89.986330
_cell_angle_gamma	96.519505
loop_
_atom_site_label
_atom_site_type_symbol
_atom_site_fract_x
_atom_site_fract_y
_atom_site_fract_z
O1	O	1.111026	-0.107689	-0.073802
O2	O	1.444360	0.225644	0.259531
O3	O	1.777693	0.558977	0.592865
O4	O	0.867244	-0.121068	-0.073798
O5	O	1.200578	0.212266	0.259535
O6	O	1.533911	0.545599	0.592869
O7	O	0.995799	0.007511	-0.073799
O8	O	1.329133	0.340844	0.259534
O9	O	1.662466	0.674177	0.592867
O10	O	0.982471	-0.236267	-0.073801
O11	O	1.315805	0.097066	0.259533
O12	O	1.649138	0.430399	0.592866
O13	O	0.995767	0.007503	0.073766
O14	O	1.329101	0.340837	0.407099
O15	O	1.662434	0.674170	0.740432
O16	O	0.867213	-0.121075	0.073767
O17	O	1.200546	0.212259	0.407100
O18	O	1.533879	0.545592	0.740434
O19	O	1.110994	-0.107696	0.073763
O20	O	1.444328	0.225637	0.407096
O21	O	1.777661	0.558970	0.740430
Zn22	Zn	0.989098	-0.114387	0.097194
Zn23	Zn	1.322432	0.218947	0.430528
Zn24	Zn	1.655765	0.552280	0.763861
Zn25	Zn	0.989140	-0.114377	-0.097229
Zn26	Zn	1.322474	0.218956	0.236104
Zn27	Zn	1.655807	0.552289	0.569437
O28	O	0.982440	-0.236275	0.073764
O29	O	1.315773	0.097059	0.407098
O30	O	1.649106	0.430392	0.740431
C31	C	0.836033	-0.120527	-0.000015
C32	C	1.169366	0.212807	0.333318
C33	C	1.502699	0.546140	0.666652
C34	C	0.743080	-0.118894	-0.000014
C35	C	1.076413	0.214439	0.333320
C36	C	1.409747	0.547772	0.666653
C37	C	0.405341	-0.112893	-0.000024
C38	C	0.738675	0.220440	0.333310
C39	C	1.072008	0.553774	0.666643
C40	C	0.428654	-0.205697	-0.000354
C41	C	0.761987	0.127636	0.332980
C42	C	1.095320	0.460969	0.666313
C43	C	0.525329	-0.207461	-0.000017
C44	C	0.858663	0.125872	0.333316
C45	C	1.191996	0.459205	0.666649
C46	C	0.572897	-0.115871	-0.000019
C47	C	0.906231	0.217462	0.333314
C48	C	1.239564	0.550796	0.666648
C49	C	0.543777	-0.069477	0.084245
C50	C	0.877111	0.263856	0.417578
C51	C	1.210444	0.597189	0.750912
C52	C	0.446987	-0.068360	0.084312
C53	C	0.780320	0.264973	0.417645
C54	C	1.113653	0.598307	0.750979
C55	C	0.447168	-0.066457	-0.083497
C56	C	0.780501	0.266877	0.249836
C57	C	1.113834	0.600210	0.583169
C58	C	0.543660	-0.069896	-0.084607
C59	C	0.876994	0.263438	0.248726
C60	C	1.210327	0.596771	0.582059
C61	C	0.667593	-0.117549	-0.000014
C62	C	1.000927	0.215784	0.333320
C63	C	1.334260	0.549118	0.666653
C64	C	0.310646	-0.111212	-0.000023
C65	C	0.643979	0.222121	0.333310
C66	C	0.977312	0.555454	0.666644
C67	C	0.995232	0.038702	-0.000018
C68	C	1.328566	0.372035	0.333315
C69	C	1.661899	0.705368	0.666648
C70	C	0.993580	0.131652	-0.000023
C71	C	1.326914	0.464985	0.333310
C72	C	1.660247	0.798318	0.666643
C73	C	1.142206	-0.108237	-0.000022
C74	C	1.475539	0.225096	0.333311
C75	C	1.808873	0.558429	0.666645
C76	C	1.235159	-0.109870	-0.000029
C77	C	1.568492	0.223464	0.333304
C78	C	1.901826	0.556797	0.666638
C79	C	0.983006	-0.267466	-0.000018
C80	C	1.316340	0.065868	0.333315
C81	C	1.649673	0.399201	0.666648
C82	C	0.984658	-0.360416	-0.000019
C83	C	1.317992	-0.027082	0.333314
C84	C	1.651325	0.306251	0.666647
N85	N	0.989076	-0.114393	0.229883
N86	N	1.322409	0.218941	0.563216
N87	N	1.655743	0.552274	0.896550
C88	C	0.987648	0.469398	-0.000020
C89	C	1.320981	0.802731	0.333313
C90	C	1.654315	1.136065	0.666646
C91	C	0.896094	0.421945	-0.000350
C92	C	1.229427	0.755278	0.332984
C93	C	1.562760	1.088612	0.666317
C94	C	0.897746	0.325255	-0.000017
C95	C	1.231079	0.658588	0.333316
C96	C	1.564413	0.991922	0.666649
C97	C	0.990591	0.301838	-0.000022
C98	C	1.323924	0.635171	0.333311
C99	C	1.657257	0.968505	0.666644
C100	C	1.035730	0.342921	0.084242
C101	C	1.369064	0.676254	0.417576
C102	C	1.702397	1.009588	0.750909
C103	C	1.033430	0.439556	0.084313
C104	C	1.366764	0.772890	0.417646
C105	C	1.700097	1.106223	0.750979
C106	C	1.035358	0.439923	-0.083496
C107	C	1.368691	0.773256	0.249837
C108	C	1.702025	1.106589	0.583170
C109	C	1.035336	0.342978	-0.084610
C110	C	1.368670	0.676311	0.248723
C111	C	1.702003	1.009644	0.582057
C112	C	0.992259	0.207141	-0.000021
C113	C	1.325592	0.540474	0.333313
C114	C	1.658925	0.873808	0.666646
C115	C	0.985983	0.564095	-0.000016
C116	C	1.319316	0.897429	0.333317
C117	C	1.652650	1.230762	0.666650
N118	N	0.989169	-0.114365	-0.229918
N119	N	1.322503	0.218969	0.103415
N120	N	1.655836	0.552302	0.436749
C121	C	0.989139	-0.114374	0.589085
C122	C	1.322472	0.218959	0.922418
C123	C	1.655805	0.552293	1.255751
C124	C	0.920120	-0.182943	0.551478
C125	C	1.253454	0.150390	0.884812
C126	C	1.586787	0.483724	1.218145
C127	C	0.920279	-0.183193	0.448653
C128	C	1.253612	0.150140	0.781986
C129	C	1.586945	0.483473	1.115319
C130	C	0.989107	-0.114383	0.410880
C131	C	1.322440	0.218950	0.744214
C132	C	1.655773	0.552283	1.077547
C133	C	1.076474	-0.133447	0.448170
C134	C	1.409807	0.199887	0.781504
C135	C	1.743141	0.533220	1.114837
C136	C	1.076087	-0.133934	0.551028
C137	C	1.409421	0.199399	0.884361
C138	C	1.742754	0.532733	1.217695
C139	C	0.971569	-0.026538	0.551186
C140	C	1.304902	0.306795	0.884519
C141	C	1.638235	0.640129	1.217852
C142	C	0.969564	-0.027124	0.448322
C143	C	1.302897	0.306209	0.781656
C144	C	1.636231	0.639542	1.114989
C145	C	0.989094	-0.114387	0.310167
C146	C	1.322428	0.218947	0.643500
C147	C	1.655761	0.552280	0.976834
C148	C	0.989157	-0.114372	0.689798
C149	C	1.322490	0.218961	1.023131
C150	C	1.655824	0.552294	1.356465
H151	H	0.400671	-0.241465	-0.060784
H152	H	0.734004	0.091868	0.272550
H153	H	1.067337	0.425201	0.605883
Br154	Br	0.838604	0.277871	-0.100695
Br155	Br	1.171938	0.611204	0.232638
Br156	Br	1.505271	0.944537	0.565971
Br157	Br	0.838157	0.278786	0.100831
Br158	Br	1.171490	0.612119	0.434164
Br159	Br	1.504823	0.945453	0.767498
H160	H	0.905296	-0.012657	0.423951
H161	H	1.238629	0.320677	0.757285
H162	H	1.571962	0.654010	1.090618
H163	H	0.432436	-0.000316	0.088138
H164	H	0.765769	0.333018	0.421472
H165	H	1.099102	0.666351	0.754805
H166	H	0.399622	-0.241273	0.059736
H167	H	0.732956	0.092061	0.393070
H168	H	1.066289	0.425394	0.726403
H169	H	1.000488	0.457848	0.147305
H170	H	1.333821	0.791181	0.480639
H171	H	1.667154	1.124514	0.813972
Br172	Br	1.102902	-0.238995	0.405221
Br173	Br	1.436235	0.094338	0.738554
Br174	Br	1.769569	0.427671	1.071888
H175	H	0.418854	-0.095461	-0.147365
H176	H	0.752187	0.237872	0.185969
H177	H	1.085521	0.571206	0.519302
Br178	Br	0.983435	0.295605	0.188767
Br179	Br	1.316768	0.628938	0.522101
Br180	Br	1.650102	0.962271	0.855434
H181	H	0.543720	-0.244020	0.060489
H182	H	0.877053	0.089313	0.393823
H183	H	1.210386	0.422646	0.727156
Br184	Br	0.596878	0.042863	0.089464
Br185	Br	0.930211	0.376197	0.422797
Br186	Br	1.263545	0.709530	0.756130
H187	H	0.909244	-0.008203	0.577177
H188	H	1.242578	0.325131	0.910511
H189	H	1.575911	0.658464	1.243844
H190	H	0.420156	-0.100496	0.147302
H191	H	0.753490	0.232837	0.480636
H192	H	1.086823	0.566170	0.813969
Br193	Br	1.055457	0.058510	0.591714
Br194	Br	1.388790	0.391843	0.925048
Br195	Br	1.722124	0.725177	1.258381
Br196	Br	0.811521	-0.164316	0.592724
Br197	Br	1.144854	0.169017	0.926057
Br198	Br	1.478187	0.502351	1.259391
H199	H	0.544369	-0.243790	-0.060423
H200	H	0.877702	0.089543	0.272910
H201	H	1.211035	0.422876	0.606243
Br202	Br	0.938939	-0.291846	0.407618
Br203	Br	1.272272	0.041488	0.740952
Br204	Br	1.605606	0.374821	1.074285
H205	H	0.576631	-0.003044	-0.089698
H206	H	0.909965	0.330289	0.243635
H207	H	1.243298	0.663623	0.576969
H208	H	0.563823	-0.101701	0.146956
H209	H	0.897156	0.231633	0.480289
H210	H	1.230490	0.564966	0.813622
Br211	Br	1.148187	0.317392	-0.093106
Br212	Br	1.481520	0.650726	0.240227
Br213	Br	1.814854	0.984059	0.573561
H214	H	0.859650	0.441528	0.059742
H215	H	1.192983	0.774862	0.393076
H216	H	1.526316	1.108195	0.726409
H217	H	1.005438	0.460459	-0.147364
H218	H	1.338771	0.793793	0.185969
H219	H	1.672105	1.127126	0.519303
H220	H	0.562243	-0.103675	-0.146945
H221	H	0.895577	0.229658	0.186388
H222	H	1.228910	0.562991	0.519721
Br223	Br	1.164173	-0.053767	0.592493
Br224	Br	1.497506	0.279567	0.925826
Br225	Br	1.830839	0.612900	1.259160
Br226	Br	0.980791	0.297016	-0.188527
Br227	Br	1.314125	0.630349	0.144806
Br228	Br	1.647458	0.963683	0.478139
Br229	Br	0.938570	-0.290978	0.594522
Br230	Br	1.271903	0.042355	0.927855
Br231	Br	1.605236	0.375689	1.261188
H232	H	1.016568	0.026291	0.422614
H233	H	1.349901	0.359624	0.755947
H234	H	1.683235	0.692957	1.089280
Br235	Br	1.147866	0.492882	-0.084449
Br236	Br	1.481199	0.826215	0.248885
Br237	Br	1.814533	1.159549	0.582218
H238	H	0.859513	0.440472	-0.060777
H239	H	1.192847	0.773805	0.272556
H240	H	1.526180	1.107139	0.605889
H241	H	0.855337	-0.171838	0.423443
H242	H	1.188670	0.161495	0.756776
H243	H	1.522004	0.494829	1.090109
H244	H	0.433174	0.001853	-0.084068
H245	H	0.766508	0.335187	0.249265
H246	H	1.099841	0.668520	0.582598
H247	H	1.100648	0.471818	0.088132
H248	H	1.433981	0.805151	0.421466
H249	H	1.767314	1.138485	0.754799
Br250	Br	1.149420	0.319406	0.089464
Br251	Br	1.482753	0.652739	0.422798
Br252	Br	1.816087	0.986073	0.756131
H253	H	1.091570	-0.197991	0.575009
H254	H	1.424903	0.135342	0.908342
H255	H	1.758237	0.468675	1.241676
H256	H	1.129060	-0.084832	0.423701
H257	H	1.462393	0.248501	0.757034
H258	H	1.795726	0.581834	1.090367
