data_functionalizedCrystal
_audit_creation_method	'MofGen! by Chris Wilmer'
_symmetry_space_group_name_H-M	'P1'
_symmetry_Int_Tables_number	1
_symmetry_cell_setting	triclinic
loop_
_symmetry_equiv_pos_as_xyz
  x,y,z
_cell_length_a	13.897449
_cell_length_b	13.897441
_cell_length_c	13.897448
_cell_angle_alpha	90.029627
_cell_angle_beta	89.981028
_cell_angle_gamma	89.981404
loop_
_atom_site_label
_atom_site_type_symbol
_atom_site_fract_x
_atom_site_fract_y
_atom_site_fract_z
Zn1	Zn	1.474682	-0.545381	0.383960
Zn2	Zn	1.808016	-0.212048	0.717294
Zn3	Zn	2.141349	0.121285	1.050627
Zn4	Zn	1.474582	-0.384083	0.545279
Zn5	Zn	1.807916	-0.050749	0.878613
Zn6	Zn	2.141249	0.282584	1.211946
Zn7	Zn	1.313377	-0.384100	0.384004
Zn8	Zn	1.646711	-0.050766	0.717337
Zn9	Zn	1.980044	0.282567	1.050670
Zn10	Zn	1.313353	-0.545335	0.545219
Zn11	Zn	1.646686	-0.212002	0.878552
Zn12	Zn	1.980020	0.121331	1.211885
O13	O	1.393999	-0.464725	0.464616
O14	O	1.727332	-0.131391	0.797949
O15	O	2.060665	0.201942	1.131282
O16	O	1.609651	-0.523997	0.405367
O17	O	1.942984	-0.190663	0.738700
O18	O	2.276317	0.142670	1.072034
O19	O	1.453166	-0.249103	0.523929
O20	O	1.786500	0.084230	0.857263
O21	O	2.119833	0.417564	1.190596
O22	O	1.334827	-0.405520	0.249016
O23	O	1.668160	-0.072187	0.582350
O24	O	2.001494	0.261146	0.915683
O25	O	1.609577	-0.405491	0.523887
O26	O	1.942910	-0.072158	0.857221
O27	O	2.276244	0.261175	1.190554
O28	O	1.453337	-0.524013	0.248985
O29	O	1.786670	-0.190680	0.582318
O30	O	2.120004	0.142653	0.915651
O31	O	1.334730	-0.249116	0.405441
O32	O	1.668063	0.084218	0.738774
O33	O	2.001397	0.417551	1.072107
O34	O	1.178393	-0.405476	0.405382
O35	O	1.511726	-0.072142	0.738715
O36	O	1.845059	0.261191	1.072049
O37	O	1.334785	-0.680323	0.523784
O38	O	1.668119	-0.346990	0.857117
O39	O	2.001452	-0.013656	1.190451
O40	O	1.178375	-0.523935	0.523826
O41	O	1.511708	-0.190601	0.857159
O42	O	1.845041	0.142732	1.190493
O43	O	1.453313	-0.680357	0.405308
O44	O	1.786647	-0.347023	0.738642
O45	O	2.119980	-0.013690	1.071975
O46	O	1.453143	-0.405447	0.680253
O47	O	1.786476	-0.072113	1.013586
O48	O	2.119810	0.261220	1.346920
O49	O	1.334688	-0.523918	0.680208
O50	O	1.668022	-0.190585	1.013542
O51	O	2.001355	0.142748	1.346875
C52	C	1.143384	-0.464703	0.464603
C53	C	1.476718	-0.131369	0.797936
C54	C	1.810051	0.201964	1.131269
C55	C	1.036171	-0.464716	0.464620
C56	C	1.369504	-0.131383	0.797954
C57	C	1.702837	0.201951	1.131287
C58	C	1.394058	-0.716318	0.464535
C59	C	1.727391	-0.382984	0.797868
C60	C	2.060724	-0.049651	1.131201
C61	C	1.394083	-0.823532	0.464500
C62	C	1.727416	-0.490198	0.797833
C63	C	2.060750	-0.156865	1.131167
C64	C	1.393928	-0.464697	0.715230
C65	C	1.727262	-0.131363	1.048563
C66	C	2.060595	0.201970	1.381897
C67	C	1.393987	-0.464717	0.822444
C68	C	1.727320	-0.131384	1.155777
C69	C	2.060653	0.201950	1.489111
C70	C	0.839875	-0.464741	0.464624
C71	C	1.173209	-0.131408	0.797957
C72	C	1.506542	0.201925	1.131290
C73	C	0.949108	-0.464725	0.464619
C74	C	1.282441	-0.131391	0.797952
C75	C	1.615775	0.201942	1.131286
C76	C	1.645592	-0.464747	0.464629
C77	C	1.978925	-0.131414	0.797963
C78	C	2.312258	0.201919	1.131296
C79	C	1.752806	-0.464757	0.464635
C80	C	2.086139	-0.131424	0.797968
C81	C	2.419472	0.201910	1.131302
C82	C	1.394103	-0.910602	0.464473
C83	C	1.727436	-0.577268	0.797806
C84	C	2.060769	-0.243935	1.131139
C85	C	1.394130	-1.019834	0.464429
C86	C	1.727464	-0.686501	0.797763
C87	C	2.060797	-0.353167	1.131096
C88	C	1.393995	-0.214110	0.464627
C89	C	1.727329	0.119223	0.797960
C90	C	2.060662	0.452556	1.131293
C91	C	1.394157	-0.106897	0.464389
C92	C	1.727491	0.226436	0.797723
C93	C	2.060824	0.559770	1.131056
C94	C	1.394096	-0.464774	0.213023
C95	C	1.727429	-0.131440	0.546356
C96	C	2.060762	0.201893	0.879689
C97	C	1.394137	-0.464795	0.105809
C98	C	1.727470	-0.131461	0.439142
C99	C	2.060804	0.201872	0.772475
C100	C	1.394088	-0.464778	1.018739
C101	C	1.727421	-0.131444	1.352072
C102	C	2.060754	0.201889	1.685406
C103	C	1.394029	-0.464747	0.909506
C104	C	1.727362	-0.131413	1.242840
C105	C	2.060695	0.201920	1.576173
