data_functionalizedCrystal
_audit_creation_method	'MofGen! by Chris Wilmer'
_symmetry_space_group_name_H-M	'P1'
_symmetry_Int_Tables_number	1
_symmetry_cell_setting	triclinic
loop_
_symmetry_equiv_pos_as_xyz
  x,y,z
_cell_length_a	12.837943
_cell_length_b	11.295501
_cell_length_c	10.654550
_cell_angle_alpha	94.561700
_cell_angle_beta	89.656922
_cell_angle_gamma	94.169432
loop_
_atom_site_label
_atom_site_type_symbol
_atom_site_fract_x
_atom_site_fract_y
_atom_site_fract_z
O1	O	1.384090	0.098998	0.335046
O2	O	1.082169	0.099006	0.318906
O3	O	1.240071	0.098997	0.144994
O4	O	1.226188	0.099007	0.508958
O5	O	1.227480	-0.099053	0.128391
O6	O	1.069578	-0.099045	0.302303
O7	O	1.371499	-0.099052	0.318443
Cu8	Cu	1.219389	-0.117132	0.308857
Cu9	Cu	1.234279	0.117086	0.328492
O10	O	1.213597	-0.099044	0.492355
C11	C	1.037213	-0.000019	0.305152
C12	C	0.922020	-0.000016	0.288890
C13	C	0.682466	-0.000028	0.484393
C14	C	0.574230	-0.000026	0.469119
C15	C	0.597310	-0.000019	0.243068
C16	C	0.705546	-0.000021	0.258342
C17	C	0.748120	-0.000024	0.379009
C18	C	0.856358	-0.000017	0.394282
C19	C	0.879435	-0.000018	0.168232
C20	C	0.771199	-0.000017	0.152958
N21	N	1.208923	-0.281869	0.295047
C22	C	1.320077	-0.531159	0.441765
C23	C	1.312176	-0.655822	0.431319
C24	C	1.185227	-0.655862	0.263705
C25	C	1.193128	-0.531198	0.274151
C26	C	1.260554	-0.468851	0.363185
C27	C	1.268448	-0.344185	0.373636
C28	C	1.141506	-0.344227	0.206016
C29	C	1.133605	-0.468891	0.195570
C30	C	1.416454	-0.000025	0.332198
C31	C	1.531649	-0.000020	0.348461
C32	C	1.232756	-0.000027	0.089783
C33	C	1.229706	-0.000022	-0.049992
N34	N	1.244752	0.281822	0.342293
C35	C	1.322676	-0.000028	-0.119333
C36	C	1.319805	-0.000020	-0.250667
C37	C	1.130985	-0.000005	-0.243307
C38	C	1.133858	-0.000005	-0.111975
C39	C	1.431690	-0.000042	-0.123584
C40	C	1.428819	-0.000034	-0.254917
C41	C	1.220912	-0.000018	0.547566
C42	C	1.223962	-0.000014	0.687342
H43	H	0.932903	-0.000007	0.082420
O44	O	0.723719	0.000134	0.601677
C45	C	0.743695	0.102784	0.808131
C46	C	0.696898	0.102733	0.675363
H47	H	0.722047	0.185739	0.867735
H48	H	0.711431	0.019960	0.854007
H49	H	0.832325	0.102725	0.800906
H50	H	0.608268	0.102834	0.682477
H51	H	0.729243	0.185550	0.629536
H52	H	0.520778	-0.000033	0.554934
H53	H	1.058153	0.000017	-0.055521
H54	H	1.052948	0.000011	-0.293789
O55	O	1.471514	-0.099001	-0.307485
C56	C	1.552318	-0.279248	-0.271316
C57	C	1.503974	-0.167238	-0.211619
H58	H	1.578595	-0.334436	-0.193836
H59	H	1.491733	-0.334585	-0.333153
H60	H	1.622489	-0.251594	-0.331167
H61	H	1.433813	-0.194785	-0.151707
H62	H	1.564625	-0.111927	-0.149855
H63	H	0.562621	-0.000116	0.144818
O64	O	1.385649	-0.470772	0.528283
C65	C	1.510669	-0.483884	0.693500
C66	C	1.436469	-0.552417	0.595550
H67	H	1.551760	-0.549865	0.747930
H68	H	1.571293	-0.425541	0.643535
H69	H	1.463820	-0.425496	0.761611
H70	H	1.483230	-0.610870	0.527412
H71	H	1.375843	-0.610685	0.645599
H72	H	0.736520	-0.000028	0.054713
H73	H	1.323345	-0.293424	0.446136
H74	H	1.360647	-0.706548	0.495306
H75	H	1.093032	-0.293483	0.142036
H76	H	1.130343	-0.706647	0.191205
O77	O	1.068126	-0.529640	0.109193
C78	C	0.999664	-0.721703	0.018831
C79	C	1.073847	-0.653060	0.116725
H80	H	1.004281	-0.821500	0.024869
H81	H	0.916211	-0.697237	0.038606
H82	H	1.023638	-0.697179	-0.079529
H83	H	1.049968	-0.677547	0.215123
H84	H	1.157282	-0.677532	0.096840
O85	O	1.488691	0.098953	-0.074755
C86	C	1.507139	0.313425	-0.053025
C87	C	1.442481	0.201416	-0.108371
H88	H	1.469815	0.396294	-0.080205
H89	H	1.509462	0.313527	0.053930
H90	H	1.590061	0.313368	-0.091904
H91	H	1.359529	0.201399	-0.069589
H92	H	1.440245	0.201357	-0.215325
H93	H	1.467201	0.085478	-0.289796
O94	O	0.897542	-0.000074	0.511576
C95	C	0.863225	-0.000019	0.734179
C96	C	0.816449	0.000023	0.601412
H97	H	0.797686	0.000084	0.806850
H98	H	0.908015	-0.082923	0.740106
H99	H	0.918622	0.082845	0.753874
H100	H	0.761008	-0.082785	0.581631
H101	H	0.771722	0.082981	0.595552
O102	O	1.466365	-0.102104	-0.084904
C103	C	1.427747	-0.274277	0.031645
C104	C	1.388392	-0.158747	-0.012189
H105	H	1.364734	-0.320093	0.090466
H106	H	1.446468	-0.336230	-0.053961
H107	H	1.501217	-0.251986	0.090955
H108	H	1.314900	-0.180927	-0.071474
H109	H	1.369743	-0.096826	0.073471
