data_functionalizedCrystal
_audit_creation_method	'MofGen! by Chris Wilmer'
_symmetry_space_group_name_H-M	'P1'
_symmetry_Int_Tables_number	1
_symmetry_cell_setting	triclinic
loop_
_symmetry_equiv_pos_as_xyz
  x,y,z
_cell_length_a	18.101389
_cell_length_b	12.827893
_cell_length_c	12.827892
_cell_angle_alpha	89.986398
_cell_angle_beta	89.985749
_cell_angle_gamma	90.018746
loop_
_atom_site_label
_atom_site_type_symbol
_atom_site_fract_x
_atom_site_fract_y
_atom_site_fract_z
Zn1	Zn	-0.418750	-1.597646	-0.416193
Zn2	Zn	-0.294917	-1.597547	-0.590923
Zn3	Zn	-0.294923	-1.422895	-0.416191
Zn4	Zn	-0.418718	-1.422873	-0.590887
O5	O	-0.356827	-1.510240	-0.503548
O6	O	-0.402334	-1.743869	-0.439387
O7	O	-0.191285	-1.574347	-0.567758
O8	O	-0.311365	-1.446126	-0.269955
O9	O	-0.311355	-1.743796	-0.567760
O10	O	-0.402340	-1.574516	-0.269956
O11	O	-0.191289	-1.446030	-0.439383
O12	O	-0.311334	-1.276656	-0.439349
O13	O	-0.522355	-1.446089	-0.567699
O14	O	-0.402285	-1.276640	-0.567697
O15	O	-0.522379	-1.574495	-0.439352
O16	O	-0.311324	-1.574326	-0.737154
O17	O	-0.402280	-1.445993	-0.737128
C18	C	-0.356807	-1.238730	-0.503520
C19	C	-0.356816	-1.122577	-0.503533
C20	C	-0.401760	-0.950768	-0.567153
C21	C	-0.401751	-1.070818	-0.567141
C22	C	-0.549989	-1.510301	-0.503522
C23	C	-0.632303	-1.510326	-0.503510
C24	C	-0.931394	-1.510387	-0.503315
C25	C	-0.900054	-1.429320	-0.583810
C26	C	-0.814436	-1.429539	-0.584184
C27	C	-0.783012	-1.510356	-0.503412
C28	C	-0.814111	-1.620466	-0.533308
C29	C	-0.899756	-1.620014	-0.533836
C30	C	-0.899815	-1.482302	-0.392744
C31	C	-0.814164	-1.479853	-0.393382
C32	C	-0.699152	-1.510345	-0.503465
C33	C	-1.015254	-1.510405	-0.503264
C34	C	-0.164417	-1.510240	-0.503499
C35	C	-0.082103	-1.510417	-0.503216
C36	C	-0.356814	-1.510175	-0.775058
C37	C	-0.356833	-1.510243	-0.891211
C38	C	-0.356842	-0.782810	-0.503569
C39	C	-0.356833	-0.898964	-0.503556
C40	C	-0.311875	-1.573821	-0.942974
C41	C	-0.311894	-1.573892	-1.063025
C42	C	-0.356856	-1.510334	-0.230978
C43	C	-0.356869	-1.510374	-0.114825
H44	H	-0.440227	-0.906243	-0.621613
N45	N	-0.263584	-1.642050	-0.887069
N46	N	-0.263642	-1.641903	-0.789627
H47	H	-0.229537	-1.690094	-0.750143
N48	N	-0.924849	-1.649878	-0.635224
N49	N	-0.964437	-1.729006	-0.645965
H50	H	-0.982158	-1.750097	-0.717572
N51	N	-0.925888	-1.326579	-0.560600
N52	N	-0.963110	-1.277507	-0.626375
H53	H	-0.981360	-1.204943	-0.609985
H54	H	-0.273402	-1.628321	-1.107540
N55	N	-0.927071	-1.452352	-0.685994
N56	N	-0.969306	-1.528212	-0.699792
H57	H	-0.988388	-1.544482	-0.771958
H58	H	-0.395358	-1.455935	-1.070317
N59	N	-0.308582	-0.954811	-0.435220
N60	N	-0.313609	-0.942722	-0.338793
H61	H	-0.279533	-0.982162	-0.290526
H62	H	-0.793957	-1.448083	-0.666142
N63	N	-0.405128	-1.442019	-0.947118
N64	N	-0.378996	-1.375545	-1.008118
H65	H	-0.413105	-1.327360	-1.047602
H66	H	-0.793408	-1.347889	-0.565475
N67	N	-0.925760	-1.698357	-0.463477
N68	N	-0.880653	-1.753196	-0.414145
H69	H	-0.899014	-1.808527	-0.364455
H70	H	-0.440219	-1.115369	-0.621584
H71	H	-0.318354	-1.078034	-0.449078
N72	N	-0.787235	-1.650840	-0.633640
N73	N	-0.831665	-1.668758	-0.706035
H74	H	-0.812686	-1.690204	-0.776899
H75	H	-0.793758	-1.682490	-0.476521
H76	H	-0.921405	-1.403405	-0.365506
H77	H	-0.793837	-1.398822	-0.370837
N78	N	-0.787324	-1.548520	-0.314157
N79	N	-0.744612	-1.621387	-0.337604
H80	H	-0.725655	-1.669892	-0.281654
H81	H	-0.920084	-1.541348	-0.332770
