data_functionalizedCrystal
_audit_creation_method	'MofGen! by Chris Wilmer'
_symmetry_space_group_name_H-M	'P1'
_symmetry_Int_Tables_number	1
_symmetry_cell_setting	triclinic
loop_
_symmetry_equiv_pos_as_xyz
  x,y,z
_cell_length_a	15.995350
_cell_length_b	9.065218
_cell_length_c	15.072220
_cell_angle_alpha	90.012623
_cell_angle_beta	89.998899
_cell_angle_gamma	84.254130
loop_
_atom_site_label
_atom_site_type_symbol
_atom_site_fract_x
_atom_site_fract_y
_atom_site_fract_z
O1	O	0.122766	1.957529	0.073780
O2	O	0.132836	1.528007	0.073781
O3	O	0.006003	1.754509	0.073779
O4	O	0.249600	1.731027	0.073781
O5	O	0.006009	1.754453	-0.073786
O6	O	0.132843	1.527951	-0.073784
O7	O	0.122773	1.957473	-0.073785
Zn8	Zn	0.127809	1.742703	-0.097214
Zn9	Zn	0.127800	1.742777	0.097209
O10	O	0.249606	1.730971	-0.073784
C11	C	0.131872	1.473015	-0.000002
C12	C	0.128978	1.309240	-0.000001
C13	C	-0.025196	1.753510	-0.000001
C14	C	-0.118169	1.750600	0.000004
C15	C	-0.455995	1.740148	0.000001
C16	C	-0.409785	1.578837	0.000332
C17	C	-0.313072	1.581748	-0.000001
C18	C	-0.288396	1.745332	0.000003
C19	C	-0.328866	1.824864	-0.084263
C20	C	-0.425532	1.820812	-0.084333
C21	C	-0.425873	1.824208	0.083476
C22	C	-0.328928	1.824170	0.084589
C23	C	-0.193676	1.748271	0.000001
C24	C	-0.550716	1.737214	-0.000004
C25	C	0.280805	1.731969	-0.000001
C26	C	0.373778	1.734880	-0.000000
C27	C	0.123737	2.012465	-0.000001
C28	C	0.126631	2.176239	0.000004
N29	N	0.127815	1.742663	-0.229903
C30	C	0.127797	1.742774	-0.589104
C31	C	0.195429	1.621170	-0.551497
C32	C	0.195682	1.621449	-0.448671
C33	C	0.127806	1.742718	-0.410900
C34	C	0.148055	1.896651	-0.448192
C35	C	0.148537	1.895969	-0.551050
C36	C	0.039723	1.711817	-0.551205
C37	C	0.040282	1.708285	-0.448342
C38	C	0.127809	1.742696	-0.310187
C39	C	0.127795	1.742806	-0.689818
N40	N	0.127788	1.742828	0.229898
H41	H	-0.285127	1.519228	0.060404
H42	H	0.024942	1.595050	-0.423969
C43	C	-0.276061	1.496666	-0.081739
H44	H	-0.216758	1.498142	-0.082217
H45	H	-0.299192	1.542392	-0.134158
H46	H	-0.289388	1.396954	-0.079261
C47	C	-0.450850	1.742385	-0.169421
H48	H	-0.402077	1.713290	-0.203617
H49	H	-0.488319	1.808281	-0.203113
H50	H	-0.477759	1.657172	-0.154023
H51	H	-0.302123	1.766022	0.146927
H52	H	0.183445	1.507027	-0.423460
C53	C	0.179160	1.466095	-0.584955
H54	H	0.130979	1.474117	-0.622165
H55	H	0.169941	1.404273	-0.535759
H56	H	0.226525	1.424232	-0.617606
H57	H	0.212804	1.923249	-0.575031
C58	C	0.084605	2.021874	-0.584659
H59	H	0.058459	2.073221	-0.535448
H60	H	0.043152	1.981310	-0.619690
H61	H	0.112771	2.088786	-0.619562
C62	C	0.283193	1.647504	-0.586392
H63	H	0.278798	1.732288	-0.623778
H64	H	0.305868	1.563288	-0.619139
H65	H	0.319057	1.663214	-0.537781
H66	H	-0.456732	1.943142	0.084044
C67	C	0.283939	1.648160	-0.415412
H68	H	0.319776	1.658898	-0.464765
H69	H	0.306066	1.566232	-0.380434
H70	H	0.280425	1.735861	-0.380531
H71	H	-0.300901	1.769579	-0.146973
H72	H	0.211597	1.924582	-0.422422
C73	C	0.013827	1.563440	-0.586277
H74	H	0.056493	1.518979	-0.624365
H75	H	-0.037362	1.580674	-0.618311
H76	H	0.006396	1.499108	-0.537784
C77	C	-0.031018	1.820171	-0.413626
H78	H	-0.008238	1.889663	-0.375678
H79	H	-0.070278	1.768980	-0.381515
H80	H	-0.058514	1.870929	-0.462277
H81	H	-0.010621	1.800497	-0.575524
C82	C	0.083355	2.021827	-0.415139
H83	H	0.096778	2.113905	-0.438475
H84	H	0.084564	2.025351	-0.352166
H85	H	0.028802	2.003456	-0.434400
C86	C	-0.435478	1.491753	0.081962
H87	H	-0.406900	1.394710	0.080923
H88	H	-0.494403	1.485577	0.080847
H89	H	-0.420966	1.541242	0.134483
C90	C	-0.436907	1.492075	-0.080838
H91	H	-0.408703	1.394736	-0.080123
H92	H	-0.422877	1.541295	-0.133613
H93	H	-0.495883	1.486647	-0.078841
C94	C	-0.467887	1.980791	-0.089512
H95	H	-0.425994	2.047968	-0.091571
H96	H	-0.502254	2.001162	-0.038701
H97	H	-0.501533	1.991942	-0.141479
H98	H	-0.313829	1.945044	-0.087394
C99	C	-0.306961	1.985330	0.091468
H100	H	-0.272635	2.006743	0.042621
H101	H	-0.277524	1.997846	0.145250
H102	H	-0.357181	2.050837	0.090753
C103	C	-0.454156	1.752992	0.169757
H104	H	-0.484603	1.671316	0.155675
H105	H	-0.489093	1.824182	0.202662
H106	H	-0.406214	1.719502	0.204155
