data_functionalizedCrystal
_audit_creation_method	'MofGen! by Chris Wilmer'
_symmetry_space_group_name_H-M	'P1'
_symmetry_Int_Tables_number	1
_symmetry_cell_setting	triclinic
loop_
_symmetry_equiv_pos_as_xyz
  x,y,z
_cell_length_a	21.395362
_cell_length_b	12.759394
_cell_length_c	21.395355
_cell_angle_alpha	89.985423
_cell_angle_beta	89.956060
_cell_angle_gamma	90.030716
loop_
_atom_site_label
_atom_site_type_symbol
_atom_site_fract_x
_atom_site_fract_y
_atom_site_fract_z
Zn1	Zn	0.957929	-0.417943	-0.354603
Zn2	Zn	1.457929	0.082057	0.145397
Zn3	Zn	0.957860	-0.593608	-0.249833
Zn4	Zn	1.457860	-0.093608	0.250167
Zn5	Zn	0.853143	-0.417992	-0.249804
Zn6	Zn	1.353143	0.082008	0.250196
Zn7	Zn	0.853142	-0.593629	-0.354537
Zn8	Zn	1.353142	-0.093629	0.145463
O9	O	0.905518	-0.505793	-0.302194
O10	O	1.405518	-0.005793	0.197806
O11	O	1.045597	-0.441216	-0.340744
O12	O	1.545597	0.058784	0.159256
O13	O	0.943941	-0.570323	-0.162151
O14	O	1.443941	-0.070323	0.337849
O15	O	0.867073	-0.270964	-0.263721
O16	O	1.367073	0.229036	0.236279
O17	O	1.045547	-0.570276	-0.263770
O18	O	1.545547	-0.070276	0.236230
O19	O	0.944058	-0.270928	-0.340717
O20	O	1.444058	0.229072	0.159283
O21	O	0.867006	-0.441299	-0.162130
O22	O	1.367006	0.058701	0.337870
O23	O	0.765465	-0.441320	-0.263658
O24	O	1.265465	0.058680	0.236342
O25	O	0.867070	-0.570313	-0.442224
O26	O	1.367070	-0.070313	0.057776
O27	O	0.765464	-0.570360	-0.340605
O28	O	1.265464	-0.070360	0.159395
O29	O	0.944056	-0.441237	-0.442272
O30	O	1.444056	0.058763	0.057728
O31	O	0.943940	-0.740632	-0.263706
O32	O	1.443940	-0.240632	0.236294
O33	O	0.867003	-0.740647	-0.340632
O34	O	1.367003	-0.240647	0.159368
C35	C	0.742731	-0.505848	-0.302121
C36	C	1.242731	-0.005848	0.197879
C37	C	0.673089	-0.505897	-0.302105
C38	C	1.173089	-0.005897	0.197895
C39	C	0.640392	-0.573178	-0.342112
C40	C	1.140392	-0.073178	0.157888
C41	C	0.574957	-0.573152	-0.342139
C42	C	1.074957	-0.073152	0.157861
C43	C	0.542221	-0.505857	-0.302150
C44	C	1.042221	-0.005857	0.197850
C45	C	0.574927	-0.438564	-0.262141
C46	C	1.074927	0.061436	0.237859
C47	C	0.640361	-0.438584	-0.262118
C48	C	1.140361	0.061416	0.237882
C49	C	0.438495	-0.497393	-0.245744
C50	C	0.938495	0.002607	0.254256
C51	C	0.373062	-0.497380	-0.245766
C52	C	0.873062	0.002620	0.254234
C53	C	0.340401	-0.505788	-0.302219
C54	C	0.840401	-0.005788	0.197781
C55	C	0.373180	-0.514231	-0.358653
C56	C	0.873180	-0.014231	0.141347
C57	C	0.438614	-0.514252	-0.358631
C58	C	0.938614	-0.014252	0.141369
C59	C	0.471269	-0.505827	-0.302170
C60	C	0.971269	-0.005827	0.197830
C61	C	0.236751	-0.573044	-0.342259
C62	C	0.736751	-0.073044	0.157741
C63	C	0.171314	-0.573011	-0.342288
C64	C	0.671314	-0.073011	0.157712
C65	C	0.171285	-0.438429	-0.262284
C66	C	0.671285	0.061571	0.237716
C67	C	0.236720	-0.438456	-0.262260
C68	C	0.736720	0.061544	0.237740
C69	C	0.269449	-0.505770	-0.302247
C70	C	0.769449	-0.005770	0.197753
C71	C	0.905481	-0.778760	-0.302179
C72	C	1.405481	-0.278760	0.197821
C73	C	0.905522	-0.895537	-0.302193
C74	C	1.405522	-0.395537	0.197807
C75	C	0.985696	-0.895467	-0.222150
C76	C	1.485696	-0.395467	0.277850
C77	C	1.025799	-0.950293	-0.182136
C78	C	1.525799	-0.450293	0.317864
C79	C	1.025836	-1.060015	-0.182153
C80	C	1.525836	-0.560015	0.317847
C81	C	0.985766	-1.114913	-0.222190
C82	C	1.485766	-0.614913	0.277810
C83	C	0.945663	-1.060087	-0.262204
C84	C	1.445663	-0.560087	0.237796
C85	C	0.945629	-0.950363	-0.262182
C86	C	1.445629	-0.450363	0.237818
C87	C	0.865493	-1.060157	-0.342250
C88	C	1.365493	-0.560157	0.157750
C89	C	0.865453	-0.950435	-0.342230
C90	C	1.365453	-0.450435	0.157770
C91	C	0.825424	-1.115055	-0.382286
C92	C	1.325424	-0.615055	0.117714
C93	C	0.785317	-1.060229	-0.422298
C94	C	1.285317	-0.560229	0.077702
C95	C	0.785281	-0.950501	-0.422279
C96	C	1.285281	-0.450501	0.077721
C97	C	0.825349	-0.895609	-0.382244
C98	C	1.325349	-0.395609	0.117756
C99	C	1.068942	-0.505738	-0.302267
C100	C	1.568942	-0.005738	0.197733
C101	C	1.138583	-0.505714	-0.302299
C102	C	1.638583	-0.005714	0.197701
C103	C	0.905570	-0.505772	-0.465618
C104	C	1.405570	-0.005772	0.034382
C105	C	0.905593	-0.505762	-0.535259
C106	C	1.405593	-0.005762	-0.035259
C107	C	0.905573	-0.231759	-0.302223
C108	C	1.405573	0.268241	0.197777
C109	C	0.905597	-0.114983	-0.302235
C110	C	1.405597	0.385017	0.197765
C111	C	0.945678	-0.438550	-0.567998
C112	C	1.445678	0.061450	-0.067998
C113	C	0.945677	-0.438505	-0.633433
C114	C	1.445677	0.061495	-0.133433
C115	C	0.905597	-0.505691	-0.666127
C116	C	1.405597	-0.005691	-0.166127
C117	C	0.865505	-0.572908	-0.633380
C118	C	1.365505	-0.072908	-0.133380
C119	C	0.865502	-0.572944	-0.567946
C120	C	1.365502	-0.072944	-0.067946
C121	C	0.900637	-0.600292	-0.769795
C122	C	1.400637	-0.100292	-0.269795
C123	C	0.900644	-0.600258	-0.835228
C124	C	1.400644	-0.100258	-0.335228
C125	C	0.905601	-0.505580	-0.867948
C126	C	1.405601	-0.005580	-0.367948
C127	C	0.910565	-0.410933	-0.835227
C128	C	1.410565	0.089067	-0.335227
C129	C	0.910563	-0.410968	-0.769793
C130	C	1.410563	0.089032	-0.269793
C131	C	0.905595	-0.505659	-0.737080
C132	C	1.405595	-0.005659	-0.237080
C133	C	0.945688	-0.438313	-0.971640
C134	C	1.445688	0.061687	-0.471640
C135	C	0.945682	-0.438266	-1.037076
C136	C	1.445682	0.061734	-0.537076
C137	C	0.865513	-0.572679	-1.037022
C138	C	1.365513	-0.072679	-0.537022
C139	C	0.865515	-0.572716	-0.971586
C140	C	1.365515	-0.072716	-0.471586
C141	C	0.905606	-0.505535	-0.938899
C142	C	1.405606	-0.005535	-0.438899
C143	C	0.905503	-0.505738	-0.139407
C144	C	1.405503	-0.005738	0.360593
C145	C	0.905602	-0.505451	-0.069766
C146	C	1.405602	-0.005451	0.430234
H147	H	0.263400	-0.627850	-0.374822
H148	H	0.763400	-0.127850	0.125178
H149	H	0.985662	-0.806126	-0.222124
H150	H	1.485662	-0.306126	0.277876
H151	H	1.058425	-0.905585	-0.149540
H152	H	1.558425	-0.405585	0.350460
C153	C	0.916015	-0.306869	-0.733799
C154	C	1.416015	0.193131	-0.233799
H155	H	0.915306	-0.320455	-0.690144
H156	H	1.415306	0.179545	-0.190144
H157	H	0.881940	-0.262681	-0.744495
H158	H	1.381940	0.237319	-0.244495
H159	H	0.954169	-0.273254	-0.744546
H160	H	1.454169	0.226746	-0.244546
C161	C	0.741248	-1.120612	-0.466336
C162	C	1.241248	-0.620612	0.033664
H163	H	0.717359	-1.072248	-0.490166
H164	H	1.217359	-0.572248	0.009834
H165	H	0.713975	-1.163495	-0.442347
H166	H	1.213975	-0.663495	0.057653
H167	H	0.765227	-1.163336	-0.493674
H168	H	1.265227	-0.663336	0.006326
H169	H	1.058494	-1.104654	-0.149573
H170	H	1.558494	-0.604654	0.350427
C171	C	0.741169	-0.890201	-0.466297
C172	C	1.241169	-0.390201	0.033703
H173	H	0.717311	-0.938614	-0.490139
H174	H	1.217311	-0.438614	0.009861
H175	H	0.765111	-0.847328	-0.493616
H176	H	1.265111	-0.347328	0.006384
H177	H	0.713859	-0.847473	-0.442289
H178	H	1.213859	-0.347473	0.057711
C179	C	0.895047	-0.704425	-0.733809
C180	C	1.395047	-0.204425	-0.233809
H181	H	0.892059	-0.760780	-0.762666
H182	H	1.392059	-0.260780	-0.262666
H183	H	0.858695	-0.702935	-0.708307
H184	H	1.358695	-0.202935	-0.208307
H185	H	0.930908	-0.713800	-0.708260
H186	H	1.430908	-0.213800	-0.208260
H187	H	0.978324	-0.383527	-1.063732
H188	H	1.478324	0.116473	-0.563732
H189	H	0.263343	-0.383675	-0.229680
H190	H	0.763343	0.116325	0.270320
C191	C	0.538920	-0.364542	-0.218153
C192	C	1.038920	0.135458	0.281847
H193	H	0.495267	-0.374172	-0.223892
H194	H	0.995267	0.125828	0.276108
H195	H	0.549683	-0.293977	-0.227393
H196	H	1.049683	0.206023	0.272607
H197	H	0.549592	-0.379821	-0.176034
H198	H	1.049592	0.120179	0.323966
H199	H	0.144693	-0.627797	-0.374870
H200	H	0.644693	-0.127797	0.125130
H201	H	0.832870	-0.627608	-0.660004
H202	H	1.332870	-0.127608	-0.160004
H203	H	0.832877	-0.627454	-0.944930
H204	H	1.332877	-0.127454	-0.444930
C205	C	0.135284	-0.364392	-0.218304
C206	C	0.635284	0.135608	0.281696
H207	H	0.091630	-0.374015	-0.224046
H208	H	0.591630	0.125985	0.275954
H209	H	0.146053	-0.293832	-0.227548
H210	H	0.646053	0.206168	0.272452
H211	H	0.145950	-0.379664	-0.176182
H212	H	0.645950	0.120336	0.323818
C213	C	0.821431	-0.646589	-1.072977
C214	C	1.321431	-0.146589	-0.572977
H215	H	0.827176	-0.636949	-1.116637
H216	H	1.327176	-0.136949	-0.616637
H217	H	0.779335	-0.631243	-1.062223
H218	H	1.279335	-0.131243	-0.562223
H219	H	0.830595	-0.717184	-1.062261
H220	H	1.330595	-0.217184	-0.562261
C221	C	0.825312	-0.774919	-0.382226
C222	C	1.325312	-0.274919	0.117774
H223	H	0.795689	-0.750126	-0.411788
H224	H	1.295689	-0.250126	0.088212
H225	H	0.865734	-0.750020	-0.393101
H226	H	1.365734	-0.250020	0.106899
H227	H	0.814481	-0.750153	-0.341775
H228	H	1.314481	-0.250153	0.158225
C229	C	0.538982	-0.647102	-0.386184
C230	C	1.038982	-0.147102	0.113816
H231	H	0.567846	-0.687177	-0.410005
H232	H	1.067846	-0.187177	0.089995
H233	H	0.513522	-0.606916	-0.413521
H234	H	1.013522	-0.106916	0.086479
H235	H	0.513392	-0.692832	-0.362206
H236	H	1.013392	-0.192832	0.137794
H237	H	0.978322	-0.383844	-0.541388
H238	H	1.478322	0.116156	-0.041388
C239	C	0.337011	-0.488092	-0.183692
C240	C	0.837011	0.011908	0.316308
H241	H	0.365833	-0.483067	-0.150068
H242	H	0.865833	0.016933	0.349932
H243	H	0.311453	-0.548280	-0.178126
H244	H	0.811453	-0.048280	0.321874
H245	H	0.311513	-0.427179	-0.184583
H246	H	0.811513	0.072821	0.315417
C247	C	0.474417	-0.488086	-0.183645
C248	C	0.974417	0.011914	0.316355
H249	H	0.445525	-0.483053	-0.150040
H250	H	0.945525	0.016947	0.349960
H251	H	0.499958	-0.427183	-0.184534
H252	H	0.999958	0.072817	0.315466
H253	H	0.499922	-0.548279	-0.178047
H254	H	0.999922	-0.048279	0.321953
C255	C	0.676329	-0.364579	-0.218106
C256	C	1.176329	0.135421	0.281894
H257	H	0.647464	-0.324498	-0.194291
H258	H	1.147464	0.175502	0.305709
H259	H	0.701905	-0.318873	-0.242111
H260	H	1.201905	0.181127	0.257889
H261	H	0.701804	-0.404718	-0.190753
H262	H	1.201804	0.095282	0.309247
C263	C	0.474672	-0.523534	-0.420700
C264	C	0.974672	-0.023534	0.079300
H265	H	0.518319	-0.522350	-0.412599
H266	H	1.018319	-0.022350	0.087401
H267	H	0.464005	-0.466447	-0.447121
H268	H	0.964005	0.033553	0.052879
H269	H	0.463944	-0.587549	-0.440670
H270	H	0.963944	-0.087549	0.059330
C271	C	0.821415	-0.646896	-0.531931
C272	C	1.321415	-0.146896	-0.031931
H273	H	0.797548	-0.686911	-0.560772
H274	H	1.297548	-0.186911	-0.060772
H275	H	0.794123	-0.606740	-0.506378
H276	H	1.294123	-0.106740	-0.006378
H277	H	0.845384	-0.692681	-0.506431
H278	H	1.345384	-0.192681	-0.006431
C279	C	0.337261	-0.523477	-0.420755
C280	C	0.837261	-0.023477	0.079245
H281	H	0.293597	-0.522243	-0.412689
H282	H	0.793597	-0.022243	0.087311
H283	H	0.347977	-0.587489	-0.440721
H284	H	0.847977	-0.087489	0.059279
H285	H	0.348042	-0.466386	-0.447164
H286	H	0.848042	0.033614	0.052836
C287	C	0.825465	-1.235745	-0.382311
C288	C	1.325465	-0.735745	0.117689
H289	H	0.795862	-1.260586	-0.411889
H290	H	1.295862	-0.760586	0.088111
H291	H	0.814654	-1.260629	-0.341872
H292	H	1.314654	-0.760629	0.158128
H293	H	0.865904	-1.260480	-0.393201
H294	H	1.365904	-0.760480	0.106799
H295	H	0.985805	-1.204254	-0.222206
H296	H	1.485805	-0.704254	0.277794
H297	H	0.978318	-0.383766	-0.660095
H298	H	1.478318	0.116234	-0.160095
C299	C	0.916426	-0.306843	-0.871210
C300	C	1.416426	0.193157	-0.371210
H301	H	0.915833	-0.320391	-0.914866
H302	H	1.415833	0.179609	-0.414866
H303	H	0.954675	-0.273702	-0.860361
H304	H	1.454675	0.226298	-0.360361
H305	H	0.882495	-0.262246	-0.860609
H306	H	1.382495	0.237754	-0.360609
C307	C	0.989778	-0.364412	-0.935679
C308	C	1.489778	0.135588	-0.435679
H309	H	0.984043	-0.374069	-0.892019
H310	H	1.484043	0.125931	-0.392019
H311	H	0.980624	-0.293818	-0.946390
H312	H	1.480624	0.206182	-0.446390
H313	H	1.031875	-0.379774	-0.946436
H314	H	1.531875	0.120226	-0.446436
C315	C	0.676390	-0.647207	-0.386102
C316	C	1.176390	-0.147207	0.113898
H317	H	0.647541	-0.687267	-0.409937
H318	H	1.147541	-0.187267	0.090063
H319	H	0.701873	-0.692933	-0.362082
H320	H	1.201873	-0.192933	0.137918
H321	H	0.701960	-0.607084	-0.413438
H322	H	1.201960	-0.107084	0.086562
C323	C	0.895182	-0.704363	-0.871215
C324	C	1.395182	-0.204363	-0.371215
H325	H	0.892217	-0.760753	-0.842358
H326	H	1.392217	-0.260753	-0.342358
H327	H	0.931087	-0.713583	-0.896768
H328	H	1.431087	-0.213583	-0.396768
H329	H	0.858860	-0.702986	-0.896713
H330	H	1.358860	-0.202986	-0.396713
