data_functionalizedCrystal
_audit_creation_method	'MofGen! by Chris Wilmer'
_symmetry_space_group_name_H-M	'P1'
_symmetry_Int_Tables_number	1
_symmetry_cell_setting	triclinic
loop_
_symmetry_equiv_pos_as_xyz
  x,y,z
_cell_length_a	21.395364
_cell_length_b	16.120484
_cell_length_c	21.395355
_cell_angle_alpha	92.880721
_cell_angle_beta	89.975448
_cell_angle_gamma	92.940493
loop_
_atom_site_label
_atom_site_type_symbol
_atom_site_fract_x
_atom_site_fract_y
_atom_site_fract_z
Zn1	Zn	0.945243	-0.331679	-0.366896
Zn2	Zn	0.939844	-0.471078	-0.267429
Zn3	Zn	0.840457	-0.331716	-0.262134
Zn4	Zn	0.835125	-0.471093	-0.372169
O5	O	0.890167	-0.401391	-0.317157
O6	O	1.032206	-0.350149	-0.353710
O7	O	0.926632	-0.452600	-0.179049
O8	O	0.858848	-0.215042	-0.271608
O9	O	1.028239	-0.452565	-0.280632
O10	O	0.935835	-0.215016	-0.348577
O11	O	0.853613	-0.350212	-0.175159
O12	O	0.752071	-0.350226	-0.276722
O13	O	0.849761	-0.452590	-0.459148
O14	O	0.748153	-0.452626	-0.357564
O15	O	0.930664	-0.350164	-0.455273
O16	O	0.921461	-0.587748	-0.285746
O17	O	0.844525	-0.587759	-0.362698
C18	C	0.727378	-0.401432	-0.317141
C19	C	0.657735	-0.401469	-0.317150
C20	C	0.881845	-0.618005	-0.325382
C21	C	0.878343	-0.710673	-0.328922
C22	C	0.627107	-0.348229	-0.355267
C23	C	0.561672	-0.348207	-0.355269
C24	C	0.526868	-0.401440	-0.317160
C25	C	0.557504	-0.454684	-0.279035
C26	C	0.622938	-0.454699	-0.279030
C27	C	0.420288	-0.476521	-0.314983
C28	C	0.354856	-0.476508	-0.314992
C29	C	0.325049	-0.401394	-0.317172
C30	C	0.360683	-0.326291	-0.319356
C31	C	0.426117	-0.326306	-0.319351
C32	C	0.455916	-0.401430	-0.317161
C33	C	0.223469	-0.348125	-0.355293
C34	C	0.158034	-0.348101	-0.355290
C35	C	0.153867	-0.454586	-0.279061
C36	C	0.219301	-0.454602	-0.279060
C37	C	0.254099	-0.401373	-0.317180
C38	C	0.871951	-0.880338	-0.335397
C39	C	0.908496	-0.921604	-0.298927
C40	C	0.904939	-1.016012	-0.302530
C41	C	0.875506	-0.785922	-0.331795
C42	C	1.053592	-0.401351	-0.317174
C43	C	1.123234	-0.401334	-0.317181
C44	C	0.890220	-0.401375	-0.480580
C45	C	0.890242	-0.401367	-0.550221
C46	C	0.898539	-0.183932	-0.308914
C47	C	0.902106	-0.091264	-0.305401
C48	C	0.932367	-0.348032	-0.580918
C49	C	0.932368	-0.347996	-0.646352
C50	C	0.890249	-0.401311	-0.681087
C51	C	0.848117	-0.454650	-0.650383
C52	C	0.848113	-0.454678	-0.584950
C53	C	0.882418	-0.476381	-0.787612
C54	C	0.882426	-0.476354	-0.853044
C55	C	0.890257	-0.401222	-0.882905
C56	C	0.898093	-0.326115	-0.847325
C57	C	0.898089	-0.326144	-0.781892
C58	C	0.890248	-0.401285	-0.752039
C59	C	0.932384	-0.347843	-0.984552
C60	C	0.932381	-0.347806	-1.049987
C61	C	0.848132	-0.454468	-1.054017
C62	C	0.848133	-0.454498	-0.988583
C63	C	0.890262	-0.401186	-0.953855
C64	C	0.890153	-0.401348	-0.154368
C65	C	0.890261	-0.401120	-0.084718
H66	H	0.655435	-0.304885	-0.386306
H67	H	0.133098	-0.304742	-0.386329
H68	H	0.444550	-0.537693	-0.313207
C69	C	0.801784	-0.513293	-0.688593
N70	N	0.766882	-0.557461	-0.717373
C71	C	0.954367	-0.873547	-0.253086
N72	N	0.988913	-0.837346	-0.218557
C73	C	0.327902	-0.243658	-0.321748
N74	N	0.303208	-0.181421	-0.323549
H75	H	0.813834	-0.497934	-0.963590
H76	H	0.966672	-0.304620	-0.552645
H77	H	0.244239	-0.497960	-0.248024
H78	H	0.813807	-0.498110	-0.559957
H79	H	0.325847	-0.537661	-0.313217
C80	C	0.826072	-0.928395	-0.381225
N81	N	0.791513	-0.964602	-0.415738
H82	H	0.251803	-0.304777	-0.386328
C83	C	0.906700	-0.243527	-0.742757
N84	N	0.913182	-0.181298	-0.713280
C85	C	0.527974	-0.289641	-0.397206
N86	N	0.502594	-0.245531	-0.428795
H87	H	0.529163	-0.498026	-0.248007
H88	H	0.647875	-0.498055	-0.247990
C89	C	0.978714	-0.289325	-0.680125
N90	N	1.013623	-0.245136	-0.705562
C91	C	0.906706	-0.243463	-0.880166
N92	N	0.913194	-0.181212	-0.904905
C93	C	0.978722	-0.289193	-0.946348
N94	N	1.013622	-0.245016	-0.917575
C95	C	0.978723	-0.289128	-1.083753
N96	N	1.013629	-0.244931	-1.109186
H97	H	0.813833	-0.497869	-1.082298
H98	H	0.876049	-0.537511	-0.882008
H99	H	0.455128	-0.265154	-0.321127
C100	C	0.115586	-0.513143	-0.237140
N101	N	0.086749	-0.557249	-0.205564
H102	H	0.875874	-0.537547	-0.763305
