data_functionalizedCrystal
_audit_creation_method	'MofGen! by Chris Wilmer'
_symmetry_space_group_name_H-M	'P1'
_symmetry_Int_Tables_number	1
_symmetry_cell_setting	triclinic
loop_
_symmetry_equiv_pos_as_xyz
  x,y,z
_cell_length_a	12.759401
_cell_length_b	16.625546
_cell_length_c	12.759393
_cell_angle_alpha	90.036194
_cell_angle_beta	90.018567
_cell_angle_gamma	90.021512
loop_
_atom_site_label
_atom_site_type_symbol
_atom_site_fract_x
_atom_site_fract_y
_atom_site_fract_z
Zn1	Zn	1.606199	-0.320975	0.593950
Zn2	Zn	1.606069	-0.455831	0.418255
Zn3	Zn	1.430501	-0.321014	0.418289
Zn4	Zn	1.430465	-0.455767	0.593897
O5	O	1.518308	-0.388397	0.506098
O6	O	1.753202	-0.338874	0.570651
O7	O	1.582740	-0.437991	0.271239
O8	O	1.453876	-0.208177	0.441627
O9	O	1.753107	-0.437953	0.441570
O10	O	1.582961	-0.208147	0.570684
O11	O	1.453751	-0.338942	0.271263
O12	O	1.283475	-0.338879	0.441575
O13	O	1.453816	-0.437843	0.740925
O14	O	1.283449	-0.437881	0.570594
O15	O	1.582927	-0.338811	0.740964
O16	O	1.582706	-0.568655	0.441519
O17	O	1.453691	-0.568608	0.570561
C18	C	1.245341	-0.388378	0.506083
C19	C	1.128564	-0.388389	0.506102
C20	C	1.073745	-0.336896	0.573419
C21	C	0.964021	-0.336912	0.573425
C22	C	0.963945	-0.439920	0.438795
C23	C	1.073668	-0.439900	0.438784
C24	C	1.128642	-0.285386	0.640736
C25	C	1.073822	-0.233889	0.708060
C26	C	0.964098	-0.233905	0.708066
C27	C	0.909194	-0.285416	0.640750
C28	C	1.518209	-0.597888	0.506054
C29	C	1.518263	-0.687509	0.506070
C30	C	1.518446	-1.015684	0.506179
C31	C	1.518392	-0.924376	0.506152
C32	C	1.518353	-0.851599	0.506124
C33	C	1.518301	-0.760285	0.506098
C34	C	1.792342	-0.388416	0.506113
C35	C	1.909118	-0.388425	0.506119
C36	C	1.518382	-0.388315	0.780131
C37	C	1.518413	-0.388281	0.896908
C38	C	1.518437	-0.178088	0.506165
C39	C	1.518492	-0.088467	0.506193
C40	C	1.518296	-0.388420	0.233130
C41	C	1.518468	-0.388227	0.116354
C42	C	1.585650	-0.336710	0.951792
C43	C	1.585675	-0.336681	1.061516
C44	C	1.451223	-0.439800	1.061462
C45	C	1.451194	-0.439824	0.951740
C46	C	1.652870	-0.285167	0.896959
C47	C	1.720113	-0.233593	0.951843
C48	C	1.720138	-0.233564	1.061567
C49	C	1.652920	-0.285108	1.116408
H50	H	1.118303	-0.481830	0.383969
H51	H	1.217985	-0.285367	0.640738
O52	O	1.792649	-0.177938	1.120777
H53	H	1.875094	-0.191785	1.099731
H54	H	1.396427	-0.481805	0.907053
O55	O	1.792606	-0.177997	0.892701
H56	H	1.875057	-0.191825	0.913773
H57	H	0.919234	-0.481860	0.383991
H58	H	1.396497	-0.481765	1.106122
O59	O	0.790847	-0.285435	0.640750
H60	H	0.761948	-0.240976	0.698872
O61	O	1.652838	-0.285205	0.778615
H62	H	1.631635	-0.224398	0.749697
H63	H	1.118533	-0.191945	0.762860
H64	H	0.919467	-0.191968	0.762876
H65	H	1.652934	-0.285071	1.205752
