data_functionalizedCrystal
_audit_creation_method	'MofGen! by Chris Wilmer'
_symmetry_space_group_name_H-M	'P1'
_symmetry_Int_Tables_number	1
_symmetry_cell_setting	triclinic
loop_
_symmetry_equiv_pos_as_xyz
  x,y,z
_cell_length_a	14.519731
_cell_length_b	17.038272
_cell_length_c	16.098538
_cell_angle_alpha	87.079695
_cell_angle_beta	92.744038
_cell_angle_gamma	87.400204
loop_
_atom_site_label
_atom_site_type_symbol
_atom_site_fract_x
_atom_site_fract_y
_atom_site_fract_z
O1	O	1.235560	0.099092	0.069259
O2	O	0.968008	0.111146	0.069260
O3	O	1.100193	-0.008699	0.069253
O4	O	1.103374	0.218937	0.069266
O5	O	1.092469	-0.001725	-0.069259
O6	O	0.960284	0.118119	-0.069252
O7	O	1.227836	0.106066	-0.069254
Zn8	Zn	1.092834	0.113199	-0.091245
Zn9	Zn	1.103010	0.104012	0.091251
O10	O	1.095650	0.225910	-0.069246
C11	C	0.929743	0.114068	0.000004
C12	C	0.827234	0.112375	0.000005
C13	C	0.743984	0.111000	0.000008
C14	C	0.639544	0.109282	0.000008
C15	C	0.556301	0.107918	0.000008
C16	C	0.451854	0.106200	0.000010
C17	C	1.093439	-0.034345	-0.000003
C18	C	1.084809	-0.121153	-0.000003
C19	C	1.164041	-0.171133	-0.000004
C20	C	1.155928	-0.252698	0.000004
C21	C	1.068580	-0.284280	0.000007
C22	C	0.989342	-0.234293	0.000011
C23	C	0.997457	-0.152730	0.000009
C24	C	1.039912	-0.530087	0.000019
C25	C	1.031803	-0.611656	0.000018
C26	C	1.198389	-0.630055	0.000013
C27	C	1.206496	-0.548490	0.000006
C28	C	1.127258	-0.498510	0.000014
C29	C	1.060285	-0.367652	0.000013
C30	C	1.135555	-0.415140	0.000014
C31	C	1.266101	0.103144	0.000004
C32	C	1.368611	0.104836	0.000010
C33	C	1.102405	0.251556	0.000012
C34	C	1.111035	0.338364	0.000017
N35	N	1.085895	0.119469	-0.215793
C36	C	1.142023	0.068621	-0.259382
C37	C	1.137179	0.073014	-0.346570
C38	C	1.076210	0.128260	-0.390169
C39	C	1.020076	0.179111	-0.346575
C40	C	1.024916	0.174714	-0.259388
C41	C	1.058662	0.144189	-0.653418
C42	C	1.053827	0.148585	-0.740612
C43	C	1.170930	0.042486	-0.740601
C44	C	1.175769	0.038096	-0.653412
C45	C	1.119631	0.088944	-0.609825
C46	C	1.071259	0.132754	-0.479290
C47	C	1.124578	0.084446	-0.520706
N48	N	1.109955	0.097736	0.215800
H49	H	1.235168	-0.145426	-0.000012
H50	H	1.191675	0.023636	-0.223889
Br51	Br	1.213350	0.004001	-0.405729
H52	H	0.989166	-0.393375	0.000013
Br53	Br	0.937323	0.254085	-0.405742
Br54	Br	0.988516	0.207731	-0.538463
Br55	Br	1.254095	-0.372278	0.000017
Br56	Br	1.258516	-0.036878	-0.594241
H57	H	1.216633	0.001087	-0.776097
Br58	Br	0.971081	0.223572	-0.799776
Br59	Br	1.305920	-0.697887	0.000002
H60	H	1.012954	0.185593	-0.617937
H61	H	0.979209	0.216119	-0.223899
H62	H	1.174216	0.039462	-0.485205
Br63	Br	0.913252	-0.654516	0.000014
Br64	Br	0.870799	-0.277154	0.000029
Br65	Br	0.889924	-0.084898	0.000017
Br66	Br	1.325044	-0.505635	0.000028
H67	H	1.220447	-0.293389	0.000001
Br68	Br	0.932374	-0.462268	0.000035
