data_functionalizedCrystal
_audit_creation_method	'MofGen! by Chris Wilmer'
_symmetry_space_group_name_H-M	'P1'
_symmetry_Int_Tables_number	1
_symmetry_cell_setting	triclinic
loop_
_symmetry_equiv_pos_as_xyz
  x,y,z
_cell_length_a	12.759401
_cell_length_b	12.759400
_cell_length_c	21.395356
_cell_angle_alpha	89.976483
_cell_angle_beta	89.985734
_cell_angle_gamma	90.014356
loop_
_atom_site_label
_atom_site_type_symbol
_atom_site_fract_x
_atom_site_fract_y
_atom_site_fract_z
Zn1	Zn	1.606202	-0.418297	-0.354245
Zn2	Zn	1.606112	-0.593991	-0.249476
Zn3	Zn	1.430519	-0.418326	-0.249485
Zn4	Zn	1.430492	-0.593933	-0.354220
O5	O	1.518331	-0.506137	-0.301856
O6	O	1.753211	-0.441615	-0.340353
O7	O	1.582793	-0.570725	-0.161799
O8	O	1.453873	-0.271301	-0.263396
O9	O	1.753145	-0.570697	-0.263380
O10	O	1.582946	-0.271280	-0.340362
O11	O	1.453786	-0.441664	-0.161806
O12	O	1.283495	-0.441608	-0.263372
O13	O	1.453827	-0.570599	-0.441901
O14	O	1.283475	-0.570627	-0.340320
O15	O	1.582919	-0.441559	-0.441919
O16	O	1.582767	-0.741005	-0.263356
O17	O	1.453740	-0.740962	-0.340311
C18	C	1.245364	-0.506115	-0.301845
C19	C	1.128587	-0.506131	-0.301855
C20	C	1.518269	-0.779104	-0.301843
C21	C	1.518338	-0.895881	-0.301859
C22	C	0.963968	-0.573263	-0.261732
C23	C	1.073692	-0.573242	-0.261722
C24	C	1.073753	-0.439030	-0.341997
C25	C	0.964031	-0.439047	-0.342005
C26	C	0.909078	-0.640385	-0.221601
C27	C	0.963904	-0.707485	-0.181457
C28	C	1.073629	-0.707464	-0.181447
C29	C	1.128526	-0.640343	-0.221579
C30	C	1.585597	-0.950730	-0.261832
C31	C	1.585662	-1.060454	-0.261852
C32	C	1.451200	-1.060470	-0.341925
C33	C	1.451141	-0.950748	-0.341909
C34	C	1.652795	-0.895863	-0.221782
C35	C	1.720058	-0.950712	-0.181752
C36	C	1.720123	-1.060436	-0.181772
C37	C	1.652924	-1.115311	-0.221821
C38	C	1.792365	-0.506159	-0.301868
C39	C	1.909141	-0.506169	-0.301873
C40	C	1.518380	-0.506069	-0.465280
C41	C	1.518401	-0.506041	-0.534921
C42	C	1.518423	-0.232104	-0.301883
C43	C	1.518461	-0.115327	-0.301895
C44	C	1.585718	-0.438682	-1.036728
C45	C	1.585710	-0.438708	-0.971292
C46	C	1.518491	-0.505901	-0.938559
C47	C	1.451294	-0.573092	-0.971267
C48	C	1.451312	-0.573073	-1.036702
C49	C	1.423804	-0.514220	-0.834886
C50	C	1.423785	-0.514233	-0.769453
C51	C	1.518437	-0.505968	-0.736739
C52	C	1.613112	-0.497668	-0.769465
C53	C	1.613129	-0.497649	-0.834899
C54	C	1.518465	-0.505930	-0.867607
C55	C	1.585626	-0.438813	-0.633086
C56	C	1.585619	-0.438846	-0.567649
C57	C	1.451194	-0.573225	-0.567626
C58	C	1.451210	-0.573198	-0.633061
C59	C	1.518424	-0.505986	-0.665787
C60	C	1.518343	-0.506128	-0.139069
C61	C	1.518526	-0.505861	-0.069428
H62	H	0.919200	-0.762127	-0.148780
H63	H	0.919390	-0.384409	-0.374688
H64	H	1.652747	-0.806520	-0.221760
H65	H	1.118265	-0.762093	-0.148756
C66	C	1.249220	-0.640320	-0.221567
H67	H	1.274013	-0.689896	-0.191914
H68	H	1.274043	-0.572495	-0.210801
H69	H	1.274063	-0.658581	-0.261981
H70	H	0.819735	-0.640412	-0.221606
C71	C	1.793967	-0.890355	-0.137700
H72	H	1.784289	-0.817153	-0.143415
H73	H	1.864561	-0.908264	-0.146904
H74	H	1.778631	-0.908404	-0.095597
C75	C	1.659662	-0.364764	-1.072723
H76	H	1.699685	-0.324765	-1.043872
H77	H	1.619498	-0.318978	-1.098256
H78	H	1.705440	-0.404956	-1.098243
H79	H	1.118459	-0.384384	-0.374672
H80	H	1.774899	-1.105092	-0.149182
C81	C	1.659611	-0.364796	-0.935315
H82	H	1.699636	-0.324759	-0.964177
H83	H	1.705373	-0.404981	-0.909781
H84	H	1.619404	-0.319029	-0.909798
H85	H	1.652990	-1.204656	-0.221838
C86	C	1.377280	-1.120830	-0.385970
H87	H	1.386941	-1.194032	-0.380243
H88	H	1.392598	-1.102792	-0.428074
H89	H	1.306686	-1.102912	-0.376755
C90	C	1.377163	-0.890410	-0.385939
H91	H	1.337143	-0.938799	-0.409789
H92	H	1.417310	-0.847548	-0.413250
H93	H	1.331383	-0.847667	-0.361941
H94	H	1.690216	-0.490894	-0.861543
C95	C	1.717234	-0.488571	-0.733489
H96	H	1.703670	-0.489782	-0.689831
H97	H	1.750846	-0.424608	-0.744222
H98	H	1.761416	-0.545726	-0.744208
C99	C	1.659569	-0.364898	-0.669087
H100	H	1.699599	-0.324903	-0.640238
H101	H	1.619404	-0.319108	-0.694617
H102	H	1.705342	-0.405091	-0.694610
H103	H	1.640343	-0.384144	-0.541026
H104	H	1.396467	-0.627939	-0.540975
C105	C	1.377285	-0.647083	-0.669033
H106	H	1.337243	-0.687099	-0.640169
H107	H	1.417464	-0.692854	-0.694557
H108	H	1.331524	-0.606873	-0.694559
H109	H	1.346695	-0.520990	-0.742812
C110	C	1.319680	-0.523310	-0.870866
H111	H	1.263294	-0.528239	-0.842005
H112	H	1.321029	-0.584201	-0.896385
H113	H	1.310474	-0.463081	-0.896398
H114	H	1.396565	-0.627803	-0.944612
H115	H	1.396594	-0.627779	-1.063326
