data_functionalizedCrystal
_audit_creation_method	'MofGen! by Chris Wilmer'
_symmetry_space_group_name_H-M	'P1'
_symmetry_Int_Tables_number	1
_symmetry_cell_setting	triclinic
loop_
_symmetry_equiv_pos_as_xyz
  x,y,z
_cell_length_a	11.792241
_cell_length_b	16.109311
_cell_length_c	15.186229
_cell_angle_alpha	89.994947
_cell_angle_beta	89.999155
_cell_angle_gamma	96.170438
loop_
_atom_site_label
_atom_site_type_symbol
_atom_site_fract_x
_atom_site_fract_y
_atom_site_fract_z
O1	O	-1.505913	0.113953	-0.073146
O2	O	-1.005913	0.613953	0.426854
O3	O	-1.175470	0.125697	-0.073167
O4	O	-0.675470	0.625697	0.426833
O5	O	-1.349763	-0.001163	-0.073147
O6	O	-0.849763	0.498837	0.426853
O7	O	-1.331620	0.240812	-0.073166
O8	O	-0.831620	0.740812	0.426834
O9	O	-1.349751	-0.001165	0.073310
O10	O	-0.849751	0.498835	0.573310
O11	O	-1.175458	0.125695	0.073291
O12	O	-0.675458	0.625695	0.573291
O13	O	-1.505902	0.113951	0.073311
O14	O	-1.005902	0.613951	0.573311
Zn15	Zn	-1.340678	0.119823	0.096554
Zn16	Zn	-0.840678	0.619823	0.596554
Zn17	Zn	-1.340693	0.119825	-0.096410
Zn18	Zn	-0.840693	0.619825	0.403590
O19	O	-1.331609	0.240811	0.073292
O20	O	-0.831609	0.740811	0.573292
C21	C	-1.133180	0.124958	0.000059
C22	C	-0.633180	0.624958	0.500059
C23	C	-1.007185	0.122750	0.000052
C24	C	-0.507185	0.622750	0.500052
C25	C	-1.548192	0.114689	0.000083
C26	C	-1.048192	0.614689	0.500083
C27	C	-1.674187	0.116897	0.000085
C28	C	-1.174187	0.616897	0.500085
C29	C	-1.349020	-0.032142	0.000082
C30	C	-0.849020	0.467858	0.500082
C31	C	-1.346811	-0.124447	0.000083
C32	C	-0.846811	0.375553	0.500083
C33	C	-0.776508	0.118690	0.000077
C34	C	-0.276508	0.618690	0.500077
C35	C	-0.904874	0.120946	0.000063
C36	C	-0.404874	0.620946	0.500063
N37	N	-1.340676	0.119820	0.228247
N38	N	-0.840676	0.619820	0.728247
C39	C	-1.332351	0.271790	0.000061
C40	C	-0.832351	0.771790	0.500061
C41	C	-1.334561	0.364095	0.000054
C42	C	-0.834561	0.864095	0.500054
C43	C	-1.341739	0.663201	-0.079764
C44	C	-0.841739	1.163201	0.420236
C45	C	-1.339659	0.576471	-0.079769
C46	C	-0.839659	1.076471	0.420231
C47	C	-1.339630	0.576453	0.079907
C48	C	-0.839630	1.076453	0.579907
C49	C	-1.341702	0.663182	0.079911
C50	C	-0.841702	1.163182	0.579911
C51	C	-1.342762	0.706554	0.000074
C52	C	-0.842762	1.206554	0.500074
C53	C	-1.338610	0.533094	0.000063
C54	C	-0.838610	1.033094	0.500063
C55	C	-1.336354	0.439057	0.000058
C56	C	-0.836354	0.939057	0.500058
C57	C	-1.345015	0.800597	0.000079
C58	C	-0.845015	1.300597	0.500079
N59	N	-1.340705	0.119821	-0.228102
N60	N	-0.840705	0.619821	0.271898
C61	C	-1.417879	0.063666	0.453978
C62	C	-0.917879	0.563666	0.953978
C63	C	-1.417883	0.063664	0.546168
C64	C	-0.917883	0.563664	1.046168
C65	C	-1.263493	0.175978	0.546160
C66	C	-0.763493	0.675978	1.046160
C67	C	-1.263485	0.175975	0.453972
C68	C	-0.763485	0.675975	0.953972
C69	C	-1.340684	0.119820	0.407884
C70	C	-0.840684	0.619820	0.907884
C71	C	-1.340696	0.119821	0.592261
C72	C	-0.840696	0.619821	1.092261
C73	C	-1.340699	0.119819	0.692217
C74	C	-0.840699	0.619819	1.192217
C75	C	-1.340680	0.119821	0.307921
C76	C	-0.840680	0.619821	0.807921
H77	H	-1.342599	0.698512	-0.144773
H78	H	-0.842599	1.198512	0.355227
H79	H	-1.200618	0.221703	0.416439
H80	H	-0.700618	0.721703	0.916439
H81	H	-1.200641	0.221699	0.583694
H82	H	-0.700641	0.721699	1.083694
H83	H	-1.338823	0.541177	-0.144781
H84	H	-0.838823	1.041177	0.355219
H85	H	-1.480740	0.017937	0.583696
H86	H	-0.980740	0.517937	1.083696
H87	H	-1.338769	0.541129	0.144908
H88	H	-0.838769	1.041129	0.644908
H89	H	-1.480738	0.017940	0.416456
H90	H	-0.980738	0.517940	0.916456
H91	H	-1.342528	0.698481	0.144928
H92	H	-0.842528	1.198481	0.644928
