data_functionalizedCrystal
_audit_creation_method	'MofGen! by Chris Wilmer'
_symmetry_space_group_name_H-M	'P1'
_symmetry_Int_Tables_number	1
_symmetry_cell_setting	triclinic
loop_
_symmetry_equiv_pos_as_xyz
  x,y,z
_cell_length_a	17.000383
_cell_length_b	17.019294
_cell_length_c	15.186229
_cell_angle_alpha	86.117288
_cell_angle_beta	89.993486
_cell_angle_gamma	79.506204
loop_
_atom_site_label
_atom_site_type_symbol
_atom_site_fract_x
_atom_site_fract_y
_atom_site_fract_z
O1	O	1.056067	0.028436	-0.075445
O2	O	1.556067	0.528436	0.424555
O3	O	0.824302	0.057066	-0.077604
O4	O	1.324302	0.557066	0.422396
O5	O	0.946650	-0.072530	-0.067779
O6	O	1.446650	0.427470	0.432221
O7	O	0.933719	0.158032	-0.085270
O8	O	1.433719	0.658032	0.414730
O9	O	0.946642	-0.072531	0.078678
O10	O	1.446642	0.427469	0.578678
O11	O	0.824294	0.057065	0.068853
O12	O	1.324294	0.557065	0.568853
O13	O	1.056058	0.028435	0.071013
O14	O	1.556058	0.528435	0.571013
Zn15	Zn	0.940175	0.042750	0.093186
Zn16	Zn	1.440175	0.542750	0.593186
Zn17	Zn	0.940186	0.042751	-0.099778
Zn18	Zn	1.440186	0.542751	0.400222
O19	O	0.933711	0.158031	0.061188
O20	O	1.433711	0.658031	0.561188
C21	C	0.794642	0.058603	-0.004490
C22	C	1.294642	0.558603	0.495510
C23	C	0.706279	0.063175	-0.004832
C24	C	1.206279	0.563175	0.495168
C25	C	0.946155	-0.101886	0.007675
C26	C	1.446155	0.398114	0.507675
C27	C	0.944684	-0.189354	0.014305
C28	C	1.444684	0.310646	0.514305
C29	C	0.206028	0.092699	-0.007105
C30	C	0.706028	0.592699	0.492895
C31	C	0.289056	0.088397	-0.006778
C32	C	0.789056	0.588397	0.493222
C33	C	0.340136	0.013720	-0.001106
C34	C	0.840136	0.513720	0.498894
C35	C	0.308184	-0.056658	0.004230
C36	C	0.808184	0.443342	0.504230
C37	C	0.225157	-0.052355	0.003897
C38	C	0.725157	0.447645	0.503897
C39	C	0.591300	-0.002900	0.000170
C40	C	1.091300	0.497100	0.500170
C41	C	0.674332	-0.007198	0.000506
C42	C	1.174332	0.492802	0.500506
C43	C	0.655199	0.137857	-0.010504
C44	C	1.155199	0.637857	0.489496
C45	C	0.572171	0.142154	-0.010831
C46	C	1.072171	0.642154	0.489169
C47	C	0.540227	0.071775	-0.005500
C48	C	1.040227	0.571775	0.494500
C49	C	0.425004	0.009321	-0.000769
C50	C	0.925004	0.509321	0.499231
C51	C	0.455360	0.076175	-0.005843
C52	C	0.955360	0.576175	0.494157
C53	C	0.944000	-0.230442	-0.062413
C54	C	1.444000	0.269558	0.437587
C55	C	0.942613	-0.312627	-0.056181
C56	C	1.442613	0.187373	0.443819
C57	C	0.941916	-0.353723	0.026771
C58	C	1.441916	0.146277	0.526771
C59	C	0.942598	-0.312629	0.103495
C60	C	1.442598	0.187371	0.603495
C61	C	0.943980	-0.230445	0.097262
C62	C	1.443980	0.269555	0.597262
C63	C	0.937740	-0.601866	0.049586
C64	C	1.437740	-0.101866	0.549586
C65	C	0.936361	-0.684057	0.055814
C66	C	1.436361	-0.184057	0.555814
C67	C	0.936373	-0.684049	-0.103863
C68	C	1.436373	-0.184049	0.396137
C69	C	0.937760	-0.601864	-0.110089
C70	C	1.437760	-0.101864	0.389911
C71	C	0.938438	-0.560776	-0.033365
C72	C	1.438438	-0.060776	0.466635
C73	C	0.940501	-0.437730	0.033144
C74	C	1.440501	0.062270	0.533144
C75	C	0.939847	-0.476770	-0.039738
C76	C	1.439847	0.023230	0.460262
C77	C	1.085718	0.026898	-0.002103
C78	C	1.585718	0.526898	0.497897
C79	C	1.174082	0.022326	-0.001767
C80	C	1.674082	0.522326	0.498233
C81	C	0.934205	0.187387	-0.014268
C82	C	1.434205	0.687387	0.485732
C83	C	0.935676	0.274855	-0.020904
C84	C	1.435676	0.774855	0.479096
N85	N	0.940173	0.042748	0.224879
N86	N	1.440173	0.542748	0.724879
N87	N	0.940193	0.042746	-0.231470
N88	N	1.440193	0.542746	0.268530
C89	C	0.994367	-0.014621	0.454951
C90	C	1.494367	0.485379	0.954951
C91	C	0.994370	-0.014623	0.547141
C92	C	1.494370	0.485377	1.047141
C93	C	0.885994	0.100118	0.538451
C94	C	1.385994	0.600118	1.038451
C95	C	0.885988	0.100116	0.446263
C96	C	1.385988	0.600116	0.946263
C97	C	0.940179	0.042747	0.404516
C98	C	1.440179	0.542747	0.904516
C99	C	0.940187	0.042747	0.588893
C100	C	1.440187	0.542747	1.088893
C101	C	0.940190	0.042745	0.688850
C102	C	1.440190	0.542745	1.188850
C103	C	0.940176	0.042748	0.304553
C104	C	1.440176	0.542748	0.804553
H105	H	0.164444	0.153508	-0.011717
H106	H	0.664444	0.653508	0.488283
O107	O	1.052804	-0.076501	0.409919
O108	O	1.552804	0.423499	0.909919
H109	H	1.090478	-0.116398	0.460482
H110	H	1.590478	0.383602	0.960482
O111	O	0.944727	-0.186124	0.180007
O112	O	1.444727	0.313876	0.680007
H113	H	0.944020	-0.228508	0.238737
H114	H	1.444020	0.271492	0.738737
H115	H	0.841858	0.146832	0.405196
H116	H	1.341858	0.646832	0.905196
H117	H	1.038494	-0.061337	0.588203
H118	H	1.538494	0.438663	1.088203
O119	O	0.941861	-0.356960	0.192964
O120	O	1.441861	0.143040	0.692964
H121	H	0.887012	-0.383626	0.198810
H122	H	1.387012	0.116374	0.698810
H123	H	0.315063	0.145702	-0.011133
H124	H	0.815063	0.645702	0.488867
H125	H	0.413768	0.136976	-0.010465
H126	H	0.913768	0.636976	0.489535
H127	H	0.841873	0.146827	0.572452
H128	H	1.341873	0.646827	1.072452
H129	H	0.939936	-0.471201	0.100684
H130	H	1.439936	0.028799	0.600684
O131	O	0.517078	0.222697	-0.016947
O132	O	1.017078	0.722697	0.483053
H133	H	0.553242	0.270911	-0.020609
H134	H	1.053242	0.770911	0.479391
H135	H	0.942058	-0.346078	-0.118653
H136	H	1.442058	0.153922	0.381347
O137	O	0.689650	0.213764	-0.016258
O138	O	1.189650	0.713764	0.483742
H139	H	0.727023	0.215277	-0.076067
H140	H	1.227023	0.715277	0.423933
O141	O	0.729431	-0.087745	0.006613
O142	O	1.229431	0.412255	0.506613
H143	H	0.693270	-0.135961	0.010255
H144	H	1.193270	0.364039	0.510255
O145	O	0.940592	-0.432446	-0.129206
O146	O	1.440592	0.067554	0.370794
H147	H	0.994554	-0.459009	-0.165481
H148	H	1.494554	0.040991	0.334519
O149	O	0.556849	-0.078804	0.005942
O150	O	1.056849	0.421196	0.505942
H151	H	0.606319	-0.131451	0.009957
H152	H	1.106319	0.368549	0.509957
H153	H	0.935820	-0.717511	-0.166327
H154	H	1.435820	-0.217511	0.333673
H155	H	0.349780	-0.117461	0.008843
H156	H	0.849780	0.382539	0.508843
O157	O	0.938495	-0.557534	-0.199558
O158	O	1.438495	-0.057534	0.300442
H159	H	0.937774	-0.599911	-0.251860
H160	H	1.437774	-0.099911	0.248140
H161	H	0.199148	-0.109661	0.008242
H162	H	0.699148	0.390339	0.508242
H163	H	0.466602	-0.051481	0.003852
H164	H	0.966602	0.448519	0.503852
O165	O	0.944743	-0.186119	-0.151885
O166	O	1.444743	0.313881	0.348115
H167	H	0.998701	-0.212686	-0.188164
H168	H	1.498701	0.287314	0.311836
O169	O	0.935601	-0.728386	0.145287
O170	O	1.435601	-0.228386	0.645287
H171	H	0.936295	-0.686007	0.197592
H172	H	1.436295	-0.186007	0.697592
H173	H	0.938308	-0.568426	0.112061
H174	H	1.438308	-0.068426	0.612061
