data_functionalizedCrystal
_audit_creation_method	'MofGen! by Chris Wilmer'
_symmetry_space_group_name_H-M	'P1'
_symmetry_Int_Tables_number	1
_symmetry_cell_setting	triclinic
loop_
_symmetry_equiv_pos_as_xyz
  x,y,z
_cell_length_a	10.654550
_cell_length_b	10.654550
_cell_length_c	9.130313
_cell_angle_alpha	90.004369
_cell_angle_beta	89.997082
_cell_angle_gamma	95.515070
loop_
_atom_site_label
_atom_site_type_symbol
_atom_site_fract_x
_atom_site_fract_y
_atom_site_fract_z
O1	O	1.667839	-0.176399	-0.121779
O2	O	1.302361	-0.193205	-0.121787
O3	O	1.493503	-0.002063	-0.121774
O4	O	1.476697	-0.367541	-0.121792
O5	O	1.493490	-0.002057	0.121825
O6	O	1.302348	-0.193199	0.121812
O7	O	1.667826	-0.176393	0.121819
Cu8	Cu	1.485086	-0.184796	0.144058
Cu9	Cu	1.485101	-0.184802	-0.144025
O10	O	1.476684	-0.367535	0.121807
C11	C	1.255556	-0.191968	0.000012
C12	C	1.116113	-0.188276	0.000009
C13	C	1.492263	0.044738	0.000025
C14	C	1.488571	0.184181	0.000023
C15	C	1.714631	-0.177630	0.000018
C16	C	1.854074	-0.181322	0.000011
N17	N	1.485084	-0.184790	0.346681
C18	C	1.933560	-0.068780	0.000011
C19	C	2.064580	-0.072257	0.000016
C20	C	2.036617	-0.300826	0.000013
C21	C	1.905599	-0.297349	0.000019
C22	C	1.477925	-0.414336	0.000005
C23	C	1.481616	-0.553779	-0.000003
C24	C	1.601112	0.263667	0.000024
C25	C	1.597636	0.394688	0.000006
C26	C	1.369066	0.366725	-0.000009
C27	C	1.372544	0.235706	-0.000001
N28	N	1.485113	-0.184798	-0.346648
C29	C	1.569751	-0.100188	0.423339
C30	C	1.569763	-0.100189	0.576675
C31	C	1.400437	-0.269404	0.576684
C32	C	1.400420	-0.269396	0.423350
H33	H	1.891613	0.025696	0.000007
Br34	Br	1.758576	0.193744	0.000058
H35	H	1.689279	0.459401	0.000005
H36	H	2.129293	0.019386	0.000018
H37	H	1.274601	0.408693	-0.000025
H38	H	1.280893	0.170985	-0.000007
H39	H	2.078585	-0.395291	0.000017
H40	H	1.331508	-0.338290	0.639122
H41	H	1.331468	-0.338290	0.360931
H42	H	1.840878	-0.388999	0.000024
H43	H	1.638687	-0.031295	0.360919
Br44	Br	1.684666	0.014638	0.680708
