data_functionalizedCrystal
_audit_creation_method	'MofGen! by Chris Wilmer'
_symmetry_space_group_name_H-M	'P1'
_symmetry_Int_Tables_number	1
_symmetry_cell_setting	triclinic
loop_
_symmetry_equiv_pos_as_xyz
  x,y,z
_cell_length_a	14.519709
_cell_length_b	17.699083
_cell_length_c	13.596369
_cell_angle_alpha	89.999551
_cell_angle_beta	90.004651
_cell_angle_gamma	96.518421
loop_
_atom_site_label
_atom_site_type_symbol
_atom_site_fract_x
_atom_site_fract_y
_atom_site_fract_z
O1	O	-1.223441	0.099215	0.081649
O2	O	-0.954914	0.110899	0.081677
O3	O	-1.096764	-0.005110	0.081672
O4	O	-1.081591	0.215225	0.081654
O5	O	-1.096762	-0.005117	-0.081911
O6	O	-0.954912	0.110892	-0.081906
O7	O	-1.223439	0.099208	-0.081934
Zn8	Zn	-1.089175	0.105049	-0.107892
Zn9	Zn	-1.089178	0.105058	0.107635
O10	O	-1.081589	0.215217	-0.081929
C11	C	-0.920556	0.110351	-0.000110
C12	C	-0.818181	0.108719	-0.000099
C13	C	-1.096219	-0.033312	-0.000115
C14	C	-1.094588	-0.117335	-0.000101
C15	C	-1.257797	0.099756	-0.000144
C16	C	-1.360171	0.101388	-0.000149
C17	C	-0.443311	0.102712	-0.000143
C18	C	-0.547612	0.104380	-0.000130
C19	C	-0.630743	0.105716	-0.000120
C20	C	-0.735050	0.107384	-0.000109
C21	C	-1.082134	0.243420	-0.000140
C22	C	-1.083765	0.327442	-0.000147
N23	N	-1.089180	0.105042	-0.254984
C24	C	-1.000502	0.375825	-0.000138
C25	C	-1.002040	0.454773	-0.000127
C26	C	-1.086842	0.485336	-0.000131
C27	C	-1.170111	0.436948	-0.000137
C28	C	-1.168572	0.358001	-0.000142
C29	C	-1.176319	0.755328	-0.000118
C30	C	-1.177852	0.834281	-0.000117
C31	C	-1.009787	0.852100	-0.000104
C32	C	-1.008248	0.773154	-0.000108
C33	C	-1.091517	0.724772	-0.000109
C34	C	-1.089848	0.639168	-0.000119
C35	C	-1.088511	0.570939	-0.000128
N36	N	-1.089181	0.105059	0.254727
C37	C	-1.089176	0.105051	0.656018
C38	C	-1.089174	0.105056	0.544367
C39	C	-1.089177	0.105055	0.455376
C40	C	-1.089177	0.105060	0.343718
H41	H	-0.934239	0.494163	-0.000117
H42	H	-1.244122	0.715945	-0.000125
H43	H	-1.239158	0.461838	-0.000143
C44	C	-0.907218	0.342212	-0.000128
H45	H	-0.857851	0.382337	-0.000110
H46	H	-0.903117	0.311786	-0.057171
H47	H	-0.903130	0.311786	0.056926
H48	H	-0.939194	0.748274	-0.000110
C49	C	-1.271136	0.867903	-0.000118
H50	H	-1.260123	0.921850	-0.000127
H51	H	-1.305412	0.851306	0.056925
H52	H	-1.305414	0.851304	-0.057172
C53	C	-0.918192	0.905322	-0.000088
H54	H	-0.931249	0.956717	-0.000074
H55	H	-0.883411	0.896049	-0.057130
H56	H	-0.883415	0.896039	0.056967
H57	H	-1.236373	0.318608	-0.000145
