data_functionalizedCrystal
_audit_creation_method	'MofGen! by Chris Wilmer'
_symmetry_space_group_name_H-M	'P1'
_symmetry_Int_Tables_number	1
_symmetry_cell_setting	triclinic
loop_
_symmetry_equiv_pos_as_xyz
  x,y,z
_cell_length_a	13.635800
_cell_length_b	11.020350
_cell_length_c	11.102288
_cell_angle_alpha	92.402157
_cell_angle_beta	71.394311
_cell_angle_gamma	72.704752
loop_
_atom_site_label
_atom_site_type_symbol
_atom_site_fract_x
_atom_site_fract_y
_atom_site_fract_z
V1	V	2.048034	-0.396255	-0.175831
O2	O	2.027697	-0.388711	0.008458
O3	O	2.036475	-0.393545	-0.348651
O4	O	2.033053	-0.569075	-0.173123
O5	O	2.031144	-0.211966	-0.168286
V6	V	2.287015	-0.374212	-0.153788
O7	O	2.184762	-0.444606	-0.224183
O8	O	2.375386	-0.325860	-0.105436
O9	O	2.186971	-0.376922	0.019032
O10	O	2.366050	-0.381755	-0.338077
O11	O	2.362604	-0.558501	-0.161333
O12	O	2.190393	-0.201392	-0.156497
V13	V	2.548034	-0.396255	-0.175831
O14	O	2.527697	-0.388711	0.008458
O15	O	2.536475	-0.393545	-0.348651
O16	O	2.533053	-0.569075	-0.173123
O17	O	2.531144	-0.211966	-0.168286
V18	V	2.787015	-0.374212	-0.153788
O19	O	2.684762	-0.444606	-0.224183
O20	O	2.875386	-0.325860	-0.105436
O21	O	2.686971	-0.376922	0.019032
O22	O	2.866050	-0.381755	-0.338077
O23	O	2.862604	-0.558501	-0.161333
O24	O	2.690393	-0.201392	-0.156497
C25	C	1.961753	-0.387294	-0.390781
C26	C	1.993007	-0.386230	-0.532064
C27	C	2.099571	-0.392070	-0.604912
C28	C	2.128934	-0.391081	-0.737664
C29	C	1.945158	-0.378404	-0.724706
C30	C	1.915799	-0.379403	-0.591958
C31	C	1.957386	-0.611198	-0.166875
C32	C	1.985863	-0.752479	-0.165804
C33	C	2.093365	-0.383170	0.061155
C34	C	2.051730	-0.384242	0.202437
C35	C	2.097731	-0.159262	-0.162748
C36	C	2.058873	-0.017979	-0.163812
C37	C	1.918633	0.174691	-0.171644
C38	C	1.955140	0.041939	-0.170652
C39	C	2.126108	0.054860	-0.157976
C40	C	2.089604	0.187608	-0.158977
C41	C	2.461753	-0.387294	-0.390781
C42	C	2.493007	-0.386230	-0.532064
C43	C	2.457386	-0.611198	-0.166875
C44	C	2.485863	-0.752479	-0.165804
C45	C	2.593365	-0.383170	0.061155
C46	C	2.551730	-0.384242	0.202437
C47	C	2.597731	-0.159262	-0.162748
C48	C	2.558873	-0.017979	-0.163812
C49	C	2.599571	-0.392070	-0.604912
C50	C	2.628934	-0.391081	-0.737664
C51	C	2.445158	-0.378404	-0.724706
C52	C	2.415799	-0.379403	-0.591958
C53	C	2.591120	-0.825328	-0.171649
C54	C	2.617870	-0.958076	-0.170638
C55	C	2.434095	-0.945115	-0.157944
C56	C	2.407345	-0.812368	-0.158945
H57	H	2.162440	-0.397628	-0.556150
H58	H	1.900392	-0.017354	-0.175409
H59	H	1.829020	-0.374651	-0.532643
H60	H	2.321626	-0.753051	-0.154177
Cl61	Cl	2.256520	-0.020468	-0.149387
H62	H	2.144358	0.246907	-0.154226
Cl63	Cl	2.750198	-1.049652	-0.177986
Cl64	Cl	2.689827	-0.750042	-0.180264
Cl65	Cl	2.335400	-1.020416	-0.149339
Cl66	Cl	2.696636	-0.400665	-0.529623
H67	H	2.382301	-0.372843	-0.773487
Cl68	Cl	2.262904	-0.398427	-0.829240
Cl69	Cl	1.788219	0.250005	-0.180231
Cl70	Cl	2.762904	-0.398427	-0.829240
H71	H	2.329020	-0.374651	-0.532643
Cl72	Cl	1.848103	-0.369814	-0.800009
