data_functionalizedCrystal
_audit_creation_method	'MofGen! by Chris Wilmer'
_symmetry_space_group_name_H-M	'P1'
_symmetry_Int_Tables_number	1
_symmetry_cell_setting	triclinic
loop_
_symmetry_equiv_pos_as_xyz
  x,y,z
_cell_length_a	21.295419
_cell_length_b	19.077432
_cell_length_c	19.076919
_cell_angle_alpha	89.934943
_cell_angle_beta	87.719625
_cell_angle_gamma	87.741771
loop_
_atom_site_label
_atom_site_type_symbol
_atom_site_fract_x
_atom_site_fract_y
_atom_site_fract_z
Zn1	Zn	0.959068	-0.295446	0.386087
Zn2	Zn	1.459068	0.204554	0.886087
Zn3	Zn	0.967437	-0.408230	0.263864
Zn4	Zn	1.467437	0.091770	0.763864
Zn5	Zn	0.857860	-0.290775	0.268593
Zn6	Zn	1.357860	0.209225	0.768593
Zn7	Zn	0.858161	-0.412943	0.381330
Zn8	Zn	1.358161	0.087057	0.881330
O9	O	0.910632	-0.351849	0.324969
O10	O	1.410632	0.148151	0.824969
O11	O	1.048267	-0.310390	0.369885
O12	O	1.548267	0.189610	0.869885
O13	O	0.956277	-0.388722	0.166160
O14	O	1.456277	0.111278	0.666160
O15	O	0.867657	-0.193065	0.288149
O16	O	1.367657	0.306935	0.788149
O17	O	1.054415	-0.393252	0.280089
O18	O	1.554415	0.106748	0.780089
O19	O	0.942014	-0.196497	0.374471
O20	O	1.442014	0.303503	0.874471
O21	O	0.875771	-0.302428	0.169635
O22	O	1.375771	0.197572	0.669635
O23	O	0.769811	-0.306998	0.283537
O24	O	1.269811	0.193002	0.783537
O25	O	0.868171	-0.401285	0.480292
O26	O	1.368171	0.098715	0.980292
O27	O	0.770033	-0.396755	0.366364
O28	O	1.270033	0.103245	0.866364
O29	O	0.942307	-0.314960	0.483787
O30	O	1.442307	0.185040	0.983787
O31	O	0.956570	-0.507185	0.275476
O32	O	1.456570	-0.007185	0.775476
O33	O	0.876285	-0.510647	0.361778
O34	O	1.376285	-0.010647	0.861778
C35	C	0.917385	-0.534412	0.317613
C36	C	1.417385	-0.034412	0.817613
C37	C	0.920331	-0.612514	0.314489
C38	C	1.420331	-0.112514	0.814489
C39	C	0.747082	-0.351882	0.324947
C40	C	1.247082	0.148118	0.824947
C41	C	0.677115	-0.351913	0.324954
C42	C	1.177115	0.148087	0.824954
C43	C	0.879889	-0.651034	0.357918
C44	C	1.379889	-0.151034	0.857918
C45	C	0.882660	-0.724419	0.354980
C46	C	1.382660	-0.224419	0.854980
C47	C	0.925876	-0.759284	0.308617
C48	C	1.425876	-0.259284	0.808617
C49	C	0.966320	-0.720759	0.265184
C50	C	1.466320	-0.220759	0.765184
C51	C	0.963545	-0.647375	0.268119
C52	C	1.463545	-0.147375	0.768119
C53	C	0.938656	-0.978563	0.295023
C54	C	1.438656	-0.478563	0.795023
C55	C	0.941428	-1.051952	0.292094
C56	C	1.441428	-0.551952	0.792094
C57	C	0.857767	-1.055607	0.381889
C58	C	1.357767	-0.555607	0.881889
C59	C	0.854999	-0.982222	0.384822
C60	C	1.354999	-0.482222	0.884822
C61	C	0.895441	-0.943703	0.341387
C62	C	1.395441	-0.443703	0.841387
N63	N	0.928711	-0.834295	0.305615
N64	N	1.428711	-0.334295	0.805615
N65	N	0.892603	-0.868693	0.344386
N66	N	1.392603	-0.368693	0.844386
C67	C	0.641069	-0.308843	0.371778
C68	C	1.141069	0.191157	0.871778
C69	C	0.575326	-0.308824	0.371782
C70	C	1.075326	0.191176	0.871782
C71	C	0.545631	-0.351889	0.324968
C72	C	1.045631	0.148111	0.824968
C73	C	0.581684	-0.394961	0.278136
C74	C	1.081684	0.105039	0.778136
C75	C	0.647426	-0.394974	0.278129
C76	C	1.147426	0.105026	0.778129
N77	N	0.444847	-0.413149	0.317013
N78	N	0.944847	0.086851	0.817013
N79	N	0.382395	-0.413135	0.317023
N80	N	0.882395	0.086865	0.817023
C81	C	0.347554	-0.351853	0.324985
C82	C	0.847554	0.148147	0.824985
N83	N	0.377525	-0.290584	0.332950
N84	N	0.877525	0.209416	0.832950
N85	N	0.439983	-0.290598	0.332943
N86	N	0.939983	0.209402	0.832943
C87	C	0.474345	-0.351880	0.324970
C88	C	0.974345	0.148120	0.824970
C89	C	0.240222	-0.308759	0.371815
C90	C	0.740222	0.191241	0.871815
C91	C	0.174478	-0.308738	0.371814
C92	C	0.674478	0.191262	0.871814
C93	C	0.180838	-0.394882	0.278171
C94	C	0.680838	0.105118	0.778171
C95	C	0.246581	-0.394896	0.278169
C96	C	0.746581	0.105104	0.778169
C97	C	0.276269	-0.351835	0.324995
C98	C	0.776269	0.148165	0.824995
C99	C	1.074820	-0.351816	0.324990
C100	C	1.574820	0.148184	0.824990
C101	C	1.144787	-0.351802	0.324999
C102	C	1.644787	0.148198	0.824999
C103	C	0.904339	-0.359169	0.508249
C104	C	1.404339	0.140831	1.008249
C105	C	0.901657	-0.362288	0.586352
C106	C	1.401657	0.137712	1.086352
C107	C	0.903868	-0.168573	0.332368
C108	C	1.403868	0.331427	0.832368
C109	C	0.900986	-0.090472	0.335522
C110	C	1.400986	0.409528	0.835522
C111	C	0.916934	-0.344506	0.142403
C112	C	1.416934	0.155494	0.642403
C113	C	0.919730	-0.341189	0.064309
C114	C	1.419730	0.158811	0.564309
C115	C	0.938994	-0.318811	0.624866
C116	C	1.438994	0.181189	1.124866
C117	C	0.936467	-0.321739	0.698252
C118	C	1.436467	0.178261	1.198252
C119	C	0.896606	-0.368149	0.733123
C120	C	1.396606	0.131851	1.233123
C121	C	0.859265	-0.411628	0.694604
C122	C	1.359265	0.088372	1.194604
C123	C	0.861789	-0.408696	0.621219
C124	C	1.361789	0.091304	1.121219
C125	C	0.884914	-0.381735	0.952405
C126	C	1.384914	0.118265	1.452405
C127	C	0.882393	-0.384666	1.025795
C128	C	1.382393	0.115334	1.525795
C129	C	0.959595	-0.294776	1.029438
C130	C	1.459595	0.205224	1.529438
C131	C	0.962119	-0.291851	0.956051
C132	C	1.462119	0.208149	1.456051
C133	C	0.924775	-0.335327	0.917539
C134	C	1.424775	0.164673	1.417539
N135	N	0.894023	-0.371145	0.808135
N136	N	1.394023	0.128855	1.308135
N137	N	0.927355	-0.332327	0.842528
N138	N	1.427355	0.167673	1.342528
H139	H	0.849722	-0.755779	0.390337
H140	H	1.349722	-0.255779	0.890337
H141	H	0.145130	-0.273661	0.409942
H142	H	0.645130	0.226339	0.909942
C143	C	1.005960	-0.240794	0.917691
C144	C	1.505960	0.259206	1.417691
C145	C	1.058237	-0.269214	0.866018
C146	C	1.558237	0.230786	1.366018
C147	C	1.102078	-0.218158	0.827655
C148	C	1.602078	0.281842	1.327655
C149	C	1.093641	-0.138682	0.840966
C150	C	1.593641	0.361318	1.340966
C151	C	1.041361	-0.110258	0.892641
C152	C	1.541361	0.389742	1.392641
C153	C	0.997520	-0.161314	0.931004
C154	C	1.497520	0.338686	1.431004
H155	H	1.064485	-0.328050	0.856162
H156	H	1.564485	0.171950	1.356162
H157	H	1.140779	-0.239200	0.789402
H158	H	1.640779	0.260800	1.289402
H159	H	1.126095	-0.100887	0.812568
H160	H	1.626095	0.399113	1.312568
H161	H	1.035114	-0.051421	0.902497
H162	H	1.535114	0.448579	1.402497
H163	H	0.958819	-0.140272	0.969258
H164	H	1.458819	0.359728	1.469258
H165	H	0.275929	-0.429971	0.240043
H166	H	0.775929	0.070029	0.740043
C167	C	0.687081	-0.442358	0.226624
C168	C	1.187081	0.057642	0.726624
C169	C	0.733258	-0.498792	0.254755
C170	C	1.233258	0.001208	0.754755
C171	C	0.772914	-0.546178	0.203251
C172	C	1.272914	-0.046178	0.703251
C173	C	0.766394	-0.537129	0.123615
C174	C	1.266394	-0.037129	0.623615
C175	C	0.720214	-0.480692	0.095479
C176	C	1.220214	0.019308	0.595479
C177	C	0.680558	-0.433306	0.146983
C178	C	1.180558	0.066694	0.646983
H179	H	0.738087	-0.505493	0.313710
H180	H	1.238087	-0.005493	0.813710
H181	H	0.807099	-0.587957	0.224079
H182	H	1.307099	-0.087957	0.724079
H183	H	0.795750	-0.572206	0.085488
H184	H	1.295750	-0.072206	0.585488
H185	H	0.715386	-0.473991	0.036524
H186	H	1.215386	0.026009	0.536524
H187	H	0.646373	-0.391528	0.126155
H188	H	1.146373	0.108472	0.626155
H189	H	0.545972	-0.273748	0.409910
H190	H	1.045972	0.226252	0.909910
H191	H	0.976624	-1.080337	0.254340
H192	H	1.476624	-0.580337	0.754340
H193	H	0.971456	-0.281021	0.596479
H194	H	1.471456	0.218979	1.096479
H195	H	0.831379	-0.444092	0.589862
H196	H	1.331379	0.055908	1.089862
C197	C	0.843830	-0.429564	0.910062
C198	C	1.343830	0.070436	1.410062
C199	C	0.771713	-0.424238	0.920398
C200	C	1.271713	0.075762	1.420398
C201	C	0.730623	-0.472070	0.878059
C202	C	1.230623	0.027930	1.378059
C203	C	0.761648	-0.525228	0.825385
C204	C	1.261648	-0.025228	1.325385
C205	C	0.833769	-0.530556	0.815047
C206	C	1.333769	-0.030556	1.315047
C207	C	0.874860	-0.482724	0.857386
C208	C	1.374860	0.017276	1.357386
H209	H	0.748743	-0.384886	0.959392
H210	H	1.248743	0.115114	1.459392
H211	H	0.677234	-0.468126	0.885712
H212	H	1.177234	0.031874	1.385712
H213	H	0.731231	-0.560637	0.794043
H214	H	1.231231	-0.060637	1.294043
H215	H	0.856740	-0.569909	0.776053
H216	H	1.356740	-0.069909	1.276053
H217	H	0.928248	-0.486668	0.849733
H218	H	1.428248	0.013332	1.349733
H219	H	0.989997	-0.259379	1.060802
H220	H	1.489997	0.240621	1.560802
C221	C	1.008034	-0.604999	0.220350
C222	C	1.508034	-0.104999	0.720350
C223	C	0.980786	-0.552405	0.167169
C224	C	1.480786	-0.052405	0.667169
C225	C	1.025274	-0.510030	0.119396
C226	C	1.525274	-0.010030	0.619396
C227	C	1.097010	-0.520249	0.124805
C228	C	1.597010	-0.020249	0.624805
C229	C	1.124261	-0.572847	0.177988
C230	C	1.624261	-0.072847	0.677988
C231	C	1.079774	-0.615222	0.225761
C232	C	1.579774	-0.115222	0.725761
H233	H	0.927679	-0.544837	0.163163
H234	H	1.427679	-0.044837	0.663163
H235	H	1.005100	-0.471094	0.080026
H236	H	1.505100	0.028906	0.580026
H237	H	1.129942	-0.488881	0.089441
H238	H	1.629942	0.011119	0.589441
H239	H	1.177368	-0.580414	0.181994
H240	H	1.677368	-0.080414	0.681994
H241	H	1.099948	-0.654157	0.265131
H242	H	1.599948	-0.154157	0.765131
C243	C	0.832349	-0.612686	0.408917
C244	C	1.332349	-0.112686	0.908917
C245	C	0.761377	-0.622642	0.402698
C246	C	1.261377	-0.122642	0.902698
C247	C	0.713834	-0.584296	0.453697
C248	C	1.213834	-0.084296	0.953697
C249	C	0.737263	-0.535994	0.510915
C250	C	1.237263	-0.035994	1.010915
C251	C	0.808239	-0.526036	0.517136
C252	C	1.308239	-0.026036	1.017136
C253	C	0.855782	-0.564382	0.466137
C254	C	1.355782	-0.064382	0.966137
H255	H	0.744029	-0.658400	0.360340
H256	H	1.244029	-0.158400	0.860340
H257	H	0.661292	-0.591668	0.449091
H258	H	1.161292	-0.091668	0.949091
H259	H	0.702069	-0.507608	0.548667
H260	H	1.202069	-0.007608	1.048667
H261	H	0.825586	-0.490277	0.559495
H262	H	1.325586	0.009723	1.059495
H263	H	0.908323	-0.557010	0.470743
H264	H	1.408323	-0.057010	0.970743
H265	H	0.819809	-0.953837	0.422574
H266	H	1.319809	-0.453837	0.922574
C267	C	0.272885	-0.261387	0.423315
C268	C	0.772885	0.238613	0.923315
C269	C	0.233232	-0.214000	0.474815
C270	C	0.733232	0.286000	0.974815
C271	C	0.265892	-0.166629	0.526314
C272	C	0.765892	0.333371	1.026314
C273	C	0.338206	-0.166644	0.526313
C274	C	0.838206	0.333356	1.026313
C275	C	0.377863	-0.214034	0.474812
C276	C	0.877863	0.285966	0.974812
C277	C	0.345202	-0.261405	0.423312
C278	C	0.845202	0.238595	0.923312
H279	H	0.179697	-0.213987	0.474817
H280	H	0.679697	0.286013	0.974817
H281	H	0.236535	-0.131548	0.564439
H282	H	0.736535	0.368452	1.064439
H283	H	0.362383	-0.131577	0.564436
H284	H	0.862383	0.368423	1.064436
H285	H	0.431397	-0.214047	0.474809
H286	H	0.931397	0.285953	0.974809
H287	H	0.374560	-0.296486	0.385187
H288	H	0.874560	0.203514	0.885187
H289	H	0.156660	-0.429946	0.240055
H290	H	0.656660	0.070054	0.740055
H291	H	0.824841	-1.086977	0.417251
H292	H	1.324841	-0.586977	0.917251
H293	H	0.971586	-0.947207	0.259658
H294	H	1.471586	-0.447207	0.759658
H295	H	1.001505	-0.749151	0.227432
H296	H	1.501505	-0.249151	0.727432
C297	C	0.549023	-0.442334	0.226641
C298	C	1.049023	0.057666	0.726641
C299	C	0.588676	-0.489712	0.175133
C300	C	1.088676	0.010288	0.675133
C301	C	0.556015	-0.537083	0.123633
C302	C	1.056015	-0.037083	0.623633
C303	C	0.483702	-0.537075	0.123641
C304	C	0.983702	-0.037075	0.623641
C305	C	0.444045	-0.489694	0.175151
C306	C	0.944045	0.010306	0.675151
C307	C	0.476705	-0.442324	0.226651
C308	C	0.976705	0.057676	0.726651
H309	H	0.642210	-0.489720	0.175125
H310	H	1.142210	0.010280	0.675125
H311	H	0.585372	-0.572158	0.085502
H312	H	1.085372	-0.072158	0.585502
H313	H	0.459524	-0.572142	0.085518
H314	H	0.959524	-0.072142	0.585518
H315	H	0.390510	-0.489687	0.175158
H316	H	0.890510	0.010313	0.675158
H317	H	0.447348	-0.407249	0.264781
H318	H	0.947348	0.092751	0.764781
C319	C	0.673726	-0.261470	0.423278
C320	C	1.173726	0.238530	0.923278
C321	C	0.634071	-0.214088	0.474781
C322	C	1.134071	0.285912	0.974781
C323	C	0.666729	-0.166714	0.526280
C324	C	1.166729	0.333286	1.026280
C325	C	0.739042	-0.166721	0.526275
C326	C	1.239042	0.333279	1.026275
C327	C	0.778701	-0.214105	0.474770
C328	C	1.278701	0.285895	0.974770
C329	C	0.746043	-0.261479	0.423272
C330	C	1.246043	0.238521	0.923272
H331	H	0.580536	-0.214081	0.474786
H332	H	1.080536	0.285919	0.974786
H333	H	0.637370	-0.131637	0.564407
H334	H	1.137370	0.368363	1.064407
H335	H	0.763218	-0.131651	0.564397
H336	H	1.263218	0.368349	1.064397
H337	H	0.832236	-0.214112	0.474765
H338	H	1.332236	0.285888	0.974765
H339	H	0.775402	-0.296556	0.385145
H340	H	1.275402	0.203444	0.885145
H341	H	0.966872	-0.286337	0.729607
H342	H	1.466872	0.213663	1.229607
H343	H	0.849932	-0.422460	1.054185
H344	H	1.349932	0.077540	1.554185
H345	H	0.826806	-0.449413	0.723002
H346	H	1.326806	0.050587	1.223002
