data_functionalizedCrystal
_audit_creation_method	'MofGen! by Chris Wilmer'
_symmetry_space_group_name_H-M	'P1'
_symmetry_Int_Tables_number	1
_symmetry_cell_setting	triclinic
loop_
_symmetry_equiv_pos_as_xyz
  x,y,z
_cell_length_a	14.044220
_cell_length_b	14.519709
_cell_length_c	13.596369
_cell_angle_alpha	89.998664
_cell_angle_beta	90.001331
_cell_angle_gamma	91.565489
loop_
_atom_site_label
_atom_site_type_symbol
_atom_site_fract_x
_atom_site_fract_y
_atom_site_fract_z
O1	O	1.258086	-0.222362	0.081691
O2	O	0.982103	-0.214338	0.081716
O3	O	1.127412	-0.084702	0.081694
O4	O	1.112778	-0.351999	0.081713
O5	O	1.127394	-0.084708	-0.081889
O6	O	0.982086	-0.214345	-0.081867
O7	O	1.258068	-0.222369	-0.081892
Zn8	Zn	1.120074	-0.218358	-0.107852
Zn9	Zn	1.120098	-0.218349	0.107676
O10	O	1.112760	-0.352005	-0.081870
C11	C	0.946774	-0.210829	-0.000073
C12	C	0.841531	-0.200352	-0.000064
C13	C	1.126721	-0.050290	-0.000098
C14	C	1.124677	0.052256	-0.000098
N15	N	1.120065	-0.218363	-0.254944
C16	C	0.648837	-0.181197	-0.000084
C17	C	0.591329	-0.255505	-0.000083
C18	C	0.484108	-0.244848	-0.000095
C19	C	0.756068	-0.191854	-0.000073
C20	C	1.293398	-0.225878	-0.000101
C21	C	1.398641	-0.236355	-0.000104
C22	C	1.113451	-0.386417	-0.000076
C23	C	1.115494	-0.488963	-0.000070
C24	C	1.117153	0.427758	-0.000072
C25	C	1.119243	0.323282	-0.000079
C26	C	1.120915	0.240010	-0.000086
C27	C	1.123005	0.135527	-0.000092
C28	C	1.120070	-0.218366	-0.343942
C29	C	1.120079	-0.218360	-0.455593
C30	C	1.120091	-0.218351	-0.544583
C31	C	1.120102	-0.218346	-0.656242
N32	N	1.120114	-0.218337	0.254767
H33	H	0.622622	-0.327127	-0.000073
F34	F	0.607938	-0.087589	-0.000094
