data_functionalizedCrystal
_audit_creation_method	'MofGen! by Chris Wilmer'
_symmetry_space_group_name_H-M	'P1'
_symmetry_Int_Tables_number	1
_symmetry_cell_setting	triclinic
loop_
_symmetry_equiv_pos_as_xyz
  x,y,z
_cell_length_a	10.723024
_cell_length_b	9.730217
_cell_length_c	10.723024
_cell_angle_alpha	90.002100
_cell_angle_beta	84.467869
_cell_angle_gamma	90.001111
loop_
_atom_site_label
_atom_site_type_symbol
_atom_site_fract_x
_atom_site_fract_y
_atom_site_fract_z
O1	O	1.657183	0.114277	0.175025
O2	O	1.294031	0.114282	0.191778
O3	O	1.483984	0.114274	0.001826
O4	O	1.467230	0.114285	0.364978
O5	O	1.483978	-0.114306	0.001824
O6	O	1.294025	-0.114298	0.191777
O7	O	1.657177	-0.114303	0.175023
Zn8	Zn	1.475600	-0.150593	0.183400
Zn9	Zn	1.475608	0.150571	0.183402
O10	O	1.467224	-0.114295	0.364976
C11	C	1.247528	-0.000008	0.190558
C12	C	1.108974	-0.000006	0.186911
N13	N	1.475604	-0.356129	0.183397
C14	C	1.033991	-0.000002	0.293198
C15	C	0.890788	-0.000001	0.289431
C16	C	1.643876	-0.356126	0.015244
C17	C	1.728021	-0.428065	-0.068830
C18	C	1.728034	-0.571945	-0.068830
C19	C	1.643890	-0.643889	0.015249
C20	C	1.559746	-0.571951	0.099322
C21	C	1.559745	-0.428068	0.099316
C22	C	1.391469	-0.571954	0.267468
C23	C	1.391460	-0.428074	0.267477
C24	C	1.307326	-0.643898	0.351547
C25	C	1.223185	-0.571960	0.435628
C26	C	1.223177	-0.428071	0.435626
C27	C	1.307316	-0.356135	0.351550
C28	C	1.703680	-0.000010	0.176243
C29	C	1.842234	-0.000003	0.179891
C30	C	1.482762	-0.000014	-0.044675
C31	C	1.479114	-0.000009	-0.183229
N32	N	1.475614	0.356108	0.183395
C33	C	1.585401	-0.000009	-0.258212
C34	C	1.581634	-0.000004	-0.401415
C35	C	1.468447	-0.000004	0.411477
C36	C	1.472094	0.000000	0.550031
H37	H	1.075814	-0.000007	0.386984
C38	C	1.819386	-0.349705	-0.159907
C39	C	1.801425	-0.208303	-0.141865
C40	C	1.885605	-0.136081	-0.225703
H41	H	1.805288	-0.373084	-0.243402
H42	H	1.902781	-0.373238	-0.145502
H43	H	1.718050	-0.184779	-0.156280
H44	H	1.815533	-0.184883	-0.058387
H45	H	1.968999	-0.159615	-0.211298
H46	H	1.871499	-0.159472	-0.309193
H47	H	1.873437	-0.040133	-0.213466
C48	C	1.307459	-0.199922	0.351310
C49	C	1.399133	-0.152322	0.259664
C50	C	1.399292	-0.008426	0.259390
H51	H	1.325251	-0.167189	0.431151
H52	H	1.227585	-0.167333	0.333424
H53	H	1.478990	-0.184897	0.277558
H54	H	1.381362	-0.185017	0.179810
H55	H	1.319417	0.024163	0.241504
H56	H	1.417081	0.024293	0.339235
H57	H	1.461483	0.023889	0.197202
C58	C	1.053464	-0.000076	0.061724
C59	C	1.150393	-0.000112	-0.035603
C60	C	1.099310	-0.000194	-0.150945
H61	H	1.003261	0.079613	0.055557
H62	H	1.003277	-0.079820	0.055663
H63	H	1.200559	0.079623	-0.029545
H64	H	1.200604	-0.079795	-0.029477
H65	H	1.049123	-0.079938	-0.157006
H66	H	1.049107	0.079496	-0.157100
H67	H	1.165067	-0.000232	-0.216996
H68	H	1.643885	-0.238972	0.015246
C69	C	1.350618	-0.000068	-0.364282
C70	C	1.248831	-0.000095	-0.436839
C71	C	1.136909	-0.000175	-0.357938
H72	H	1.347125	0.079619	-0.312889
H73	H	1.347226	-0.079813	-0.312945
H74	H	1.252221	0.079642	-0.488154
H75	H	1.252283	-0.079776	-0.488230
H76	H	1.133517	-0.079920	-0.306602
H77	H	1.133429	0.079513	-0.306549
H78	H	1.067834	-0.000206	-0.407157
C79	C	0.804946	0.000289	0.410805
C80	C	0.828119	0.117907	0.480173
C81	C	0.749051	0.118230	0.591985
H82	H	0.820431	-0.079328	0.458199
H83	H	0.720097	0.000365	0.392200
H84	H	0.912948	0.117818	0.498781
H85	H	0.812626	0.197543	0.432817
H86	H	0.664202	0.118307	0.573380
H87	H	0.764542	0.038609	0.639368
H88	H	0.764755	0.198038	0.639059
C89	C	1.819520	-0.649809	-0.160171
C90	C	1.893221	-0.556018	-0.233790
C91	C	1.977518	-0.627696	-0.317938
H92	H	1.774333	-0.705948	-0.212644
H93	H	1.871915	-0.705903	-0.114833
H94	H	1.840833	-0.499948	-0.279125
H95	H	1.938436	-0.499877	-0.181351
H96	H	2.029913	-0.683790	-0.272599
H97	H	1.932320	-0.683832	-0.370402
H98	H	2.027542	-0.564070	-0.367890
C99	C	1.131762	-0.350220	0.527049
C100	C	1.058105	-0.444027	0.600693
C101	C	0.973891	-0.372367	0.684938
H102	H	1.079321	-0.294091	0.481823
H103	H	1.177051	-0.294118	0.579487
H104	H	1.012819	-0.500105	0.548262
H105	H	1.110512	-0.500159	0.645946
H106	H	1.019180	-0.316265	0.737375
H107	H	0.921458	-0.316241	0.639701
H108	H	0.923912	-0.436004	0.734923
H109	H	1.307334	-0.761053	0.351538
C110	C	1.710338	-0.000083	-0.202221
C111	C	1.689236	-0.000120	-0.071315
C112	C	1.804300	-0.000207	-0.019698
H113	H	1.756565	0.079605	-0.229068
H114	H	1.756473	-0.079827	-0.229144
H115	H	1.643121	0.079616	-0.044403
H116	H	1.643028	-0.079802	-0.044433
H117	H	1.850435	-0.079951	-0.046621
H118	H	1.850519	0.079482	-0.046555
H119	H	1.789999	-0.000245	0.069126
H120	H	1.643896	-0.761044	0.015233
H121	H	0.906659	0.000002	0.088896
H122	H	1.154676	-0.630546	0.504074
H123	H	1.672624	-0.000009	-0.465848
H124	H	1.385328	0.000001	-0.225051
