data_functionalizedCrystal
_audit_creation_method	'MofGen! by Chris Wilmer'
_symmetry_space_group_name_H-M	'P1'
_symmetry_Int_Tables_number	1
_symmetry_cell_setting	triclinic
loop_
_symmetry_equiv_pos_as_xyz
  x,y,z
_cell_length_a	19.121102
_cell_length_b	25.639239
_cell_length_c	19.121595
_cell_angle_alpha	87.532787
_cell_angle_beta	85.004847
_cell_angle_gamma	87.592882
loop_
_atom_site_label
_atom_site_type_symbol
_atom_site_fract_x
_atom_site_fract_y
_atom_site_fract_z
Zn1	Zn	1.092561	-0.228829	-0.443666
Zn2	Zn	1.087429	-0.319836	-0.325992
Zn3	Zn	0.969882	-0.228836	-0.321002
Zn4	Zn	0.974834	-0.312651	-0.438607
O5	O	1.031176	-0.272538	-0.382317
O6	O	1.190342	-0.243905	-0.432263
O7	O	1.067616	-0.310774	-0.226865
O8	O	0.986231	-0.155671	-0.337302
O9	O	1.186572	-0.310768	-0.345808
O10	O	1.076362	-0.155666	-0.427423
O11	O	0.981255	-0.243917	-0.223199
O12	O	0.872076	-0.236950	-0.332396
O13	O	0.994671	-0.298522	-0.537743
O14	O	0.875715	-0.298528	-0.418801
O15	O	1.081164	-0.236938	-0.541460
O16	O	1.072418	-0.392046	-0.340902
O17	O	0.989695	-0.386768	-0.423640
C18	C	0.848365	-0.266961	-0.374508
C19	C	0.770158	-0.264587	-0.371184
C20	C	0.735326	-0.295585	-0.414538
C21	C	0.661843	-0.293347	-0.411418
C22	C	0.623193	-0.260114	-0.364941
C23	C	0.658030	-0.229113	-0.321586
C24	C	0.731512	-0.231348	-0.324709
C25	C	0.401228	-0.251757	-0.353265
C26	C	0.327741	-0.249525	-0.350143
C27	C	0.331559	-0.313759	-0.439978
C28	C	0.405043	-0.315994	-0.443094
C29	C	0.439873	-0.284990	-0.399742
C30	C	0.548081	-0.257828	-0.361749
C31	C	0.514984	-0.287274	-0.402937
C32	C	1.031057	-0.408378	-0.382280
C33	C	1.031071	-0.466492	-0.382290
C34	C	1.074371	-0.829595	-0.339317
C35	C	1.074399	-0.884200	-0.339328
O36	O	1.111090	-0.914763	-0.302750
N37	N	1.031302	-0.908779	-0.382369
C38	C	0.988180	-0.878751	-0.425407
O39	O	0.951526	-0.904672	-0.462019
C40	C	0.988157	-0.824147	-0.425400
C41	C	1.031251	-0.799570	-0.382351
C42	C	1.117462	-0.805018	-0.296272
C43	C	1.117433	-0.750417	-0.296261
C44	C	1.074313	-0.720393	-0.339294
C45	C	1.031222	-0.744969	-0.382340
C46	C	0.945039	-0.794120	-0.468442
C47	C	0.945020	-0.739512	-0.468431
C48	C	0.988114	-0.714936	-0.425382
C49	C	0.988073	-0.660344	-0.425362
N50	N	1.031170	-0.635764	-0.382321
C51	C	1.074290	-0.665789	-0.339287
C52	C	0.988234	-0.993423	-0.425420
C53	C	0.988253	-1.048025	-0.425425
C54	C	1.074473	-1.053471	-0.339346
C55	C	1.074449	-0.998867	-0.339338
C56	C	1.031330	-0.968843	-0.382379
C57	C	1.074226	-0.551122	-0.339266
C58	C	1.074191	-0.496516	-0.339256
C59	C	0.987974	-0.491076	-0.425338
C60	C	0.988006	-0.545677	-0.425345
C61	C	1.031137	-0.575699	-0.382307
O62	O	0.951403	-0.629747	-0.461923
O63	O	1.110944	-0.639861	-0.302689
C64	C	1.214702	-0.278137	-0.390156
C65	C	1.292909	-0.280523	-0.393497
C66	C	1.039042	-0.266927	-0.565847
C67	C	1.042394	-0.264537	-0.644056
C68	C	1.031316	-0.136167	-0.382371
C69	C	1.031376	-0.078055	-0.382393
C70	C	0.998937	-0.295474	-0.678865
C71	C	1.002093	-0.293228	-0.752351
C72	C	1.048702	-0.260041	-0.791027
C73	C	1.092163	-0.229102	-0.756214
C74	C	1.089011	-0.231352	-0.682729
C75	C	1.060475	-0.251648	-1.013001
C76	C	1.063623	-0.249400	-1.086491
C77	C	0.973553	-0.313527	-1.082624
C78	C	0.970402	-0.315771	-1.009137
C79	C	1.013866	-0.284834	-0.974330
C80	C	1.051926	-0.257743	-0.866142
C81	C	1.010644	-0.287135	-0.899217
C82	C	1.023382	-0.278090	-0.199503
C83	C	1.020166	-0.280337	-0.121300
H84	H	0.296274	-0.222457	-0.312300
O85	O	0.765385	-0.201180	-0.282694
C86	C	0.809659	-0.167532	-0.324645
H87	H	0.789905	-0.161999	-0.379131
H88	H	0.809432	-0.128067	-0.299331
H89	H	0.865440	-0.185320	-0.329395
H90	H	1.152526	-0.730410	-0.261209
H91	H	0.633486	-0.318590	-0.446721
O92	O	0.442479	-0.348287	-0.488305
C93	C	0.395977	-0.375179	-0.525889
H94	H	0.343721	-0.352097	-0.526156
H95	H	0.419593	-0.379774	-0.582216
H96	H	0.387014	-0.415408	-0.499688
O97	O	1.108847	-0.217177	-1.124168
C98	C	1.102319	-0.221837	-1.196492
H99	H	1.048426	-0.236988	-1.204201
H100	H	1.108339	-0.181968	-1.224641
H101	H	1.144912	-0.250321	-1.219117
H102	H	1.124398	-0.206159	-0.654388
O103	O	0.620524	-0.196753	-0.276513
C104	C	0.639204	-0.144736	-0.292774
H105	H	0.661825	-0.141058	-0.349853
H106	H	0.590644	-0.117612	-0.284721
H107	H	0.680248	-0.133475	-0.256899
H108	H	1.089875	-0.230721	-0.897640
H109	H	0.303192	-0.339000	-0.475274
H110	H	0.938168	-0.338714	-1.110972
O111	O	0.772762	-0.327879	-0.459749
C112	C	0.726256	-0.354767	-0.497333
H113	H	0.674001	-0.331685	-0.497594
H114	H	0.749869	-0.359359	-0.553662
H115	H	0.717295	-0.394998	-0.471137
O116	O	0.959907	-0.323359	-0.786082
C117	C	0.974473	-0.376485	-0.768767
H118	H	0.999236	-0.380020	-0.716568
H119	H	0.923559	-0.398456	-0.764067
H120	H	1.012400	-0.393939	-0.811662
H121	H	1.152579	-0.829458	-0.261229
H122	H	1.109586	-1.077926	-0.304308
O123	O	0.434945	-0.221623	-0.311084
C124	C	0.385073	-0.191803	-0.269406
H125	H	0.332570	-0.211703	-0.264686
H126	H	0.403922	-0.188495	-0.214884
H127	H	0.378397	-0.151099	-0.294945
O128	O	0.552498	-0.319496	-0.448184
C129	C	0.537564	-0.305474	-0.517580
H130	H	0.517550	-0.262986	-0.520383
H131	H	0.587385	-0.310424	-0.554382
H132	H	0.495682	-0.331673	-0.534090
H133	H	0.953155	-1.068031	-0.460473
O134	O	0.510495	-0.225621	-0.316531
C135	C	0.465983	-0.255429	-0.269221
H136	H	0.487904	-0.297411	-0.265700
H137	H	0.462818	-0.238080	-0.215084
H138	H	0.411234	-0.254902	-0.288620
H139	H	1.109283	-0.476508	-0.304198
O140	O	1.102577	-0.221550	-0.979126
C141	C	1.060711	-0.187850	-0.934949
H142	H	1.006910	-0.205017	-0.921642
H143	H	1.087163	-0.183271	-0.884507
H144	H	1.054206	-0.148013	-0.962974
H145	H	1.109349	-0.575560	-0.304222
H146	H	0.932459	-0.342804	-0.977653
O147	O	0.903069	-0.710426	-0.510264
C148	C	0.865059	-0.743832	-0.548273
H149	H	0.861428	-0.783572	-0.519350
H150	H	0.809928	-0.726181	-0.553372
H151	H	0.893084	-0.748756	-0.602830
O152	O	1.116378	-0.975079	-0.297504
C153	C	1.154422	-1.013295	-0.259510
H154	H	1.158083	-1.051400	-0.288444
H155	H	1.209541	-0.999400	-0.254412
H156	H	1.126408	-1.019986	-0.204953
O157	O	0.946273	-0.964338	-0.467246
C158	C	0.908258	-0.997747	-0.505246
H159	H	0.904634	-1.037486	-0.476320
H160	H	0.853124	-0.980098	-0.510336
H161	H	0.936274	-1.002672	-0.559806
H162	H	0.972698	-0.314158	-0.867724
O163	O	1.137401	-0.196793	-0.793703
C164	C	1.121296	-0.144763	-0.775118
H165	H	1.091963	-0.144488	-0.720608
H166	H	1.171994	-0.122946	-0.774780
H167	H	1.086912	-0.124784	-0.814936
O168	O	0.903281	-0.818042	-0.510306
C169	C	0.945273	-0.849398	-0.557514
H170	H	0.997551	-0.859936	-0.535012
H171	H	0.917023	-0.886649	-0.565721
H172	H	0.955201	-0.826966	-0.609982
H173	H	0.952864	-0.466622	-0.460373
O174	O	0.946223	-0.569531	-0.467262
C175	C	0.964532	-0.554463	-0.538052
H176	H	1.020885	-0.541005	-0.544044
H177	H	0.959957	-0.589118	-0.572561
H178	H	0.927561	-0.521083	-0.554794
O179	O	0.953758	-0.327744	-0.641222
C180	C	0.991966	-0.364042	-0.600429
H181	H	1.044835	-0.347563	-0.591705
H182	H	0.961086	-0.371756	-0.547527
H183	H	1.000874	-0.402156	-0.629066
