data_functionalizedCrystal
_audit_creation_method	'MofGen! by Chris Wilmer'
_symmetry_space_group_name_H-M	'P1'
_symmetry_Int_Tables_number	1
_symmetry_cell_setting	triclinic
loop_
_symmetry_equiv_pos_as_xyz
  x,y,z
_cell_length_a	16.120484
_cell_length_b	21.395362
_cell_length_c	21.395355
_cell_angle_alpha	90.043940
_cell_angle_beta	92.880721
_cell_angle_gamma	87.057600
loop_
_atom_site_label
_atom_site_type_symbol
_atom_site_fract_x
_atom_site_fract_y
_atom_site_fract_z
Zn1	Zn	-0.331659	-0.945244	-0.367215
Zn2	Zn	-0.471058	-0.939845	-0.267746
Zn3	Zn	-0.331698	-0.840458	-0.262418
Zn4	Zn	-0.471075	-0.835126	-0.372451
O5	O	-0.401372	-0.890168	-0.317458
O6	O	-0.350127	-1.032207	-0.354059
O7	O	-0.452580	-0.926633	-0.179362
O8	O	-0.215024	-0.858849	-0.271898
O9	O	-0.452543	-1.028240	-0.280979
O10	O	-0.214995	-0.935836	-0.348892
O11	O	-0.350193	-0.853614	-0.175447
O12	O	-0.350210	-0.752072	-0.276976
O13	O	-0.452572	-0.849761	-0.459434
O14	O	-0.452609	-0.748154	-0.357817
O15	O	-0.350144	-0.930665	-0.455587
O16	O	-0.587728	-0.921462	-0.286057
O17	O	-0.587741	-0.844526	-0.362983
C18	C	-0.617986	-0.881846	-0.325680
C19	C	-0.710654	-0.878344	-0.329218
C20	C	-0.401416	-0.727379	-0.317387
C21	C	-0.401455	-0.657736	-0.317372
C22	C	-0.401328	-1.053593	-0.317529
C23	C	-0.401310	-1.123235	-0.317560
C24	C	-0.880320	-0.871952	-0.335692
C25	C	-0.921584	-0.908497	-0.299234
C26	C	-1.015992	-0.904940	-0.302836
C27	C	-0.785903	-0.875507	-0.332091
C28	C	-0.183913	-0.898540	-0.309217
C29	C	-0.091245	-0.902107	-0.305705
C30	C	-0.401355	-0.890221	-0.480880
C31	C	-0.401348	-0.890243	-0.550521
C32	C	-0.454845	-0.622997	-0.359409
C33	C	-0.454825	-0.557562	-0.359436
C34	C	-0.401423	-0.526869	-0.317415
C35	C	-0.348022	-0.561617	-0.275375
C36	C	-0.348039	-0.627050	-0.275354
C37	C	-0.394707	-0.423400	-0.260754
C38	C	-0.394696	-0.357967	-0.260775
C39	C	-0.401369	-0.325050	-0.317482
C40	C	-0.408069	-0.357574	-0.374171
C41	C	-0.408085	-0.423007	-0.374149
C42	C	-0.401399	-0.455918	-0.317434
C43	C	-0.454740	-0.219359	-0.359552
C44	C	-0.454713	-0.153924	-0.359580
C45	C	-0.347915	-0.157979	-0.275514
C46	C	-0.347937	-0.223414	-0.275492
C47	C	-0.401354	-0.254100	-0.317510
C48	C	-0.348011	-0.932368	-0.581232
C49	C	-0.347976	-0.932369	-0.646666
C50	C	-0.401291	-0.890250	-0.681388
C51	C	-0.454632	-0.848117	-0.650669
C52	C	-0.454660	-0.848114	-0.585236
C53	C	-0.476362	-0.882419	-0.787910
C54	C	-0.476335	-0.882427	-0.853342
C55	C	-0.401203	-0.890258	-0.883205
C56	C	-0.326096	-0.898094	-0.847628
C57	C	-0.326124	-0.898090	-0.782195
C58	C	-0.401266	-0.890249	-0.752339
C59	C	-0.347823	-0.932385	-0.984867
C60	C	-0.347786	-0.932382	-1.050302
C61	C	-0.454449	-0.848133	-1.054304
C62	C	-0.454479	-0.848134	-0.988870
C63	C	-0.401167	-0.890263	-0.954155
C64	C	-0.401329	-0.890154	-0.154668
C65	C	-0.401101	-0.890262	-0.085019
H66	H	-0.915892	-0.837996	-0.369606
O67	O	-0.290374	-0.260889	-0.230137
H68	H	-0.253245	-0.228554	-0.200914
O69	O	-0.874467	-0.953479	-0.254305
H70	H	-0.891179	-0.942141	-0.205743
O71	O	-0.512004	-0.802703	-0.955732
H72	H	-0.474692	-0.772266	-0.924483
H73	H	-0.537528	-0.875875	-0.763601
H74	H	-0.498340	-0.647977	-0.393624
O75	O	-0.511952	-0.802704	-1.091748
H76	H	-0.497663	-0.754080	-1.078611
H77	H	-0.498301	-0.529272	-0.393669
H78	H	-0.413500	-0.330774	-0.420348
H79	H	-0.413538	-0.449485	-0.420307
O80	O	-0.512137	-0.802687	-0.688112
H81	H	-0.503162	-0.809769	-0.738773
H82	H	-0.304430	-0.132990	-0.241303
H83	H	-0.389246	-0.331492	-0.214616
H84	H	-0.498230	-0.244345	-0.393769
O85	O	-0.512411	-0.116445	-0.404843
H86	H	-0.549600	-0.148777	-0.434021
O87	O	-0.290317	-0.977820	-0.947424
H88	H	-0.327638	-1.008266	-0.919065
O89	O	-0.290450	-0.977800	-0.679812
H90	H	-0.304746	-1.026426	-0.667845
H91	H	-0.264916	-0.904471	-0.871941
H92	H	-0.389270	-0.450195	-0.214573
O93	O	-0.290441	-0.528517	-0.230039
H94	H	-0.299411	-0.477180	-0.237107
H95	H	-0.304559	-0.655335	-0.241122
O96	O	-0.290511	-0.977803	-0.543789
H97	H	-0.253412	-1.007093	-0.576141
H98	H	-0.264969	-0.904469	-0.753231
H99	H	-0.304348	-0.966684	-1.075305
O100	O	-0.557337	-0.873969	-0.891714
H101	H	-0.609584	-0.868508	-0.859957
O102	O	-0.512171	-0.802665	-0.552105
H103	H	-0.549235	-0.773371	-0.587238
