data_functionalizedCrystal
_audit_creation_method	'MofGen! by Chris Wilmer'
_symmetry_space_group_name_H-M	'P1'
_symmetry_Int_Tables_number	1
_symmetry_cell_setting	triclinic
loop_
_symmetry_equiv_pos_as_xyz
  x,y,z
_cell_length_a	17.038278
_cell_length_b	17.019294
_cell_length_c	7.681481
_cell_angle_alpha	80.410874
_cell_angle_beta	96.139434
_cell_angle_gamma	87.243447
loop_
_atom_site_label
_atom_site_type_symbol
_atom_site_fract_x
_atom_site_fract_y
_atom_site_fract_z
O1	O	1.028444	0.179546	-0.173662
O2	O	0.800836	0.176808	-0.173248
O3	O	0.921874	0.062938	-0.155973
O4	O	0.907407	0.293416	-0.190937
O5	O	0.936772	0.048888	0.139016
O6	O	0.815734	0.162759	0.121741
O7	O	1.043342	0.165496	0.121327
Zn8	Zn	0.931903	0.161897	0.168370
Zn9	Zn	0.912275	0.180407	-0.220291
O10	O	0.922305	0.279366	0.104052
C11	C	0.779178	0.167292	-0.025376
C12	C	0.692449	0.159859	-0.024249
C13	C	0.202425	0.114193	-0.017328
C14	C	0.283917	0.121183	-0.018378
C15	C	0.314709	0.196427	-0.029800
C16	C	0.264006	0.264685	-0.040156
C17	C	0.182517	0.257694	-0.039093
C18	C	0.560256	0.221125	-0.033542
C19	C	0.641752	0.228112	-0.034609
C20	C	0.661657	0.084608	-0.012827
C21	C	0.580165	0.077624	-0.011776
C22	C	0.529470	0.145882	-0.022123
C23	C	0.398006	0.203574	-0.030879
C24	C	0.446175	0.138734	-0.021031
C25	C	0.929068	0.026278	-0.003987
C26	C	0.928300	-0.062027	0.009398
C27	C	0.919820	-0.095850	-0.145111
C28	C	0.919093	-0.178821	-0.132529
C29	C	0.926852	-0.227969	0.034563
C30	C	0.935330	-0.194141	0.189084
C31	C	0.936051	-0.111170	0.176501
C32	C	0.925077	-0.478869	0.080602
C33	C	0.924358	-0.561845	0.093174
C34	C	0.908119	-0.546520	-0.228441
C35	C	0.908845	-0.463549	-0.241010
C36	C	0.917319	-0.429728	-0.086489
C37	C	0.926112	-0.312780	0.047428
C38	C	0.918053	-0.344918	-0.099355
C39	C	1.065000	0.175012	-0.026549
C40	C	1.151729	0.182446	-0.027688
C41	C	0.915110	0.316027	-0.047938
C42	C	0.915878	0.404332	-0.061335
N43	N	0.945305	0.149263	0.433621
N44	N	0.898879	0.193035	-0.485541
H45	H	0.325192	0.065603	-0.009934
H46	H	0.289084	0.325951	-0.049446
N47	N	0.716331	0.010988	-0.001649
H48	H	0.745065	0.015890	-0.110952
H49	H	0.756058	0.005524	0.107818
H50	H	0.931993	-0.451344	0.206425
N51	N	0.932738	-0.614860	0.273402
H52	H	0.884345	-0.646472	0.285313
H53	H	0.981299	-0.652733	0.286124
N54	N	0.836096	0.252215	0.405900
H55	H	0.861830	0.293027	0.323204
H56	H	0.797876	0.223121	0.333939
H57	H	0.901218	-0.574066	-0.354242
N58	N	0.910059	-0.215310	-0.299176
H59	H	0.905296	-0.171588	-0.406937
H60	H	0.957919	-0.252534	-0.300298
H61	H	0.911731	-0.304898	-0.235402
N62	N	1.008095	0.090088	0.542200
H63	H	0.982366	0.049275	0.624901
H64	H	1.037635	0.062278	0.460056
N65	N	0.169216	0.033036	-0.005022
H66	H	0.213701	-0.009140	0.001386
H67	H	0.141362	0.021804	0.105248
N68	N	0.546955	-0.003532	0.000549
H69	H	0.591438	-0.045712	0.006958
H70	H	0.519102	-0.014761	0.110822
N71	N	0.900479	-0.410541	-0.421231
H72	H	0.894996	-0.444558	-0.517206
H73	H	0.851959	-0.372615	-0.433938
H74	H	0.942946	-0.083633	0.302319
N75	N	0.674966	0.309272	-0.046929
H76	H	0.630487	0.351453	-0.053317
H77	H	0.713869	0.310086	0.061510
H78	H	0.941643	-0.234163	0.325135
H79	H	0.518989	0.276707	-0.041975
N80	N	0.412961	0.057582	-0.008696
H81	H	0.374070	0.056694	-0.117121
H82	H	0.457483	0.015442	-0.002236
H83	H	0.932432	-0.352805	0.183476
N84	N	0.431214	0.284732	-0.043216
H85	H	0.470104	0.285626	0.065209
H86	H	0.459017	0.295982	-0.153559
N87	N	0.127835	0.331307	-0.050226
H88	H	0.159706	0.380035	-0.057616
H89	H	0.088059	0.336748	-0.159604
H90	H	0.913506	-0.055839	-0.281176
