data_functionalizedCrystal
_audit_creation_method	'MofGen! by Chris Wilmer'
_symmetry_space_group_name_H-M	'P1'
_symmetry_Int_Tables_number	1
_symmetry_cell_setting	triclinic
loop_
_symmetry_equiv_pos_as_xyz
  x,y,z
_cell_length_a	14.519710
_cell_length_b	10.654550
_cell_length_c	9.730223
_cell_angle_alpha	90.000193
_cell_angle_beta	90.000734
_cell_angle_gamma	95.917476
loop_
_atom_site_label
_atom_site_type_symbol
_atom_site_fract_x
_atom_site_fract_y
_atom_site_fract_z
O1	O	1.224716	-0.164618	-0.114256
O2	O	0.956339	-0.184004	-0.114265
O3	O	1.096698	0.008488	-0.114255
O4	O	1.084357	-0.357109	-0.114266
O5	O	1.096696	0.008483	0.114325
O6	O	0.956338	-0.184009	0.114315
O7	O	1.224714	-0.164622	0.114324
Zn8	Zn	1.090526	-0.174316	0.150611
Zn9	Zn	1.090528	-0.174310	-0.150553
O10	O	1.084355	-0.357114	0.114314
C11	C	0.921974	-0.183103	0.000024
C12	C	0.819579	-0.180396	0.000020
C13	C	1.259079	-0.165524	0.000032
C14	C	1.361475	-0.168231	0.000026
C15	C	1.095791	0.055275	0.000033
C16	C	1.093080	0.194692	0.000028
C17	C	1.736422	-0.178198	0.000025
C18	C	1.632100	-0.175430	0.000025
C19	C	1.548952	-0.173215	0.000024
C20	C	1.444623	-0.170446	0.000027
C21	C	1.085262	-0.403901	0.000023
C22	C	1.087973	-0.543318	0.000018
N23	N	1.090531	-0.174320	0.356148
C24	C	1.175721	0.274972	0.000035
C25	C	1.173168	0.405968	0.000025
C26	C	1.005326	0.376391	0.000007
C27	C	1.007880	0.245397	0.000007
C28	C	1.272623	0.292049	0.000051
C29	C	1.270070	0.423046	0.000041
N30	N	1.090530	-0.174297	-0.356089
C31	C	1.152698	-0.089113	0.428078
C32	C	1.152695	-0.089098	0.571961
C33	C	1.028356	-0.259507	0.571970
C34	C	1.028355	-0.259516	0.428090
C35	C	1.224487	0.009267	0.428074
C36	C	1.224485	0.009283	0.571957
H37	H	0.940586	0.180037	-0.000017
H38	H	0.977733	-0.328870	0.630562
H39	H	1.208741	0.105649	0.389022
H40	H	0.935959	0.417692	-0.000010
H41	H	1.310526	0.263058	-0.095601
C42	C	1.314309	0.244311	0.133385
N43	N	1.345706	0.208353	0.233814
H44	H	1.299356	0.468972	-0.098652
C45	C	0.960038	-0.353345	0.348972
N46	N	0.908607	-0.424060	0.289380
C47	C	1.319385	0.479937	0.129277
N48	N	1.356526	0.522787	0.226616
C49	C	1.314945	-0.031178	0.367781
N50	N	1.383079	-0.061641	0.322367
H51	H	1.202078	0.100290	0.616574
H52	H	1.295354	-0.011554	0.611009
