data_functionalizedCrystal
_audit_creation_method	'MofGen! by Chris Wilmer'
_symmetry_space_group_name_H-M	'P1'
_symmetry_Int_Tables_number	1
_symmetry_cell_setting	triclinic
loop_
_symmetry_equiv_pos_as_xyz
  x,y,z
_cell_length_a	20.875652
_cell_length_b	14.446369
_cell_length_c	20.875625
_cell_angle_alpha	61.744975
_cell_angle_beta	92.967984
_cell_angle_gamma	62.437331
loop_
_atom_site_label
_atom_site_type_symbol
_atom_site_fract_x
_atom_site_fract_y
_atom_site_fract_z
Zr1	Zr	0.590735	1.075799	-0.105838
O2	O	0.486995	1.257934	-0.204454
O3	O	0.622541	0.886047	-0.075608
O4	O	0.615847	1.078460	-0.209182
O5	O	0.498966	1.066077	0.034487
O6	O	0.717483	1.089223	-0.212910
O7	O	0.493689	1.065521	-0.070880
O8	O	0.729459	0.745031	0.026029
O9	O	0.486990	1.410269	-0.204453
O10	O	0.711952	0.974948	-0.065496
O11	O	0.640040	0.967330	0.015920
O12	O	0.632157	1.193872	-0.141346
O13	O	0.560245	1.186255	-0.059930
Zr14	Zr	0.761249	1.093851	0.056264
Zr15	Zr	0.752834	1.092964	-0.111784
Zr16	Zr	0.599151	1.076685	0.062210
Zr17	Zr	0.590729	1.318755	-0.105836
Zr18	Zr	0.761256	0.850895	0.056262
O19	O	0.729443	1.283602	0.026034
O20	O	0.717478	1.282342	-0.212908
O21	O	0.498961	1.259195	0.034488
O22	O	0.864990	0.911716	0.154880
O23	O	0.853024	0.910455	-0.084062
O24	O	0.634507	0.887308	0.163335
O25	O	0.853019	1.103573	-0.084060
O26	O	0.736138	1.091189	0.159608
O27	O	0.634502	1.080426	0.163336
O28	O	0.858295	1.104129	0.021306
O29	O	0.615837	1.423913	-0.209179
O30	O	0.736148	0.745736	0.159605
O31	O	0.864994	0.759381	0.154879
O32	O	0.858305	0.758676	0.021303
O33	O	0.493680	1.410974	-0.070877
O34	O	0.622526	1.424618	-0.075603
O35	O	0.719827	0.975778	0.091772
O36	O	0.791740	0.983395	0.010356
O37	O	0.711945	1.202319	-0.065494
O38	O	0.640033	1.194702	0.015922
C39	C	0.676001	0.780923	-0.024790
C40	C	0.676004	0.677782	-0.024791
C41	C	0.473232	1.063353	-0.017350
C42	C	0.404417	1.056066	-0.014826
C43	C	0.021549	1.002736	0.003655
C44	C	0.086204	1.009592	0.001275
C45	C	0.076876	1.127299	-0.039504
C46	C	0.002887	1.238156	-0.077911
C47	C	-0.061767	1.231298	-0.075536
C48	C	0.265774	1.160064	-0.050858
C49	C	0.330436	1.166914	-0.053229
C50	C	0.413749	0.938350	0.025957
C51	C	0.349090	0.931502	0.028333
C52	C	0.275106	1.042359	-0.010078
N53	N	0.142964	1.134311	-0.041935
N54	N	0.209021	1.035346	-0.007651
C55	C	0.721103	0.536243	-0.076373
C56	C	0.721383	0.643197	-0.076171
C57	C	0.715180	0.555071	0.059372
C58	C	0.715513	0.447727	0.059089
C59	C	0.591697	0.609594	-0.056667
C60	C	0.591743	0.718072	-0.058404
C61	C	0.878753	1.106297	-0.032224
C62	C	0.947568	1.113584	-0.034748
C63	C	0.665466	1.083716	-0.234989
C64	C	0.661893	1.083339	-0.306330
C65	C	0.675984	1.388726	-0.024784
C66	C	0.675981	1.491868	-0.024783
C67	C	0.716207	1.089093	-0.341900
C68	C	0.712852	1.088728	-0.408928
C69	C	0.655180	1.082618	-0.440389
C70	C	0.600864	1.076860	-0.404813
C71	C	0.604222	1.077216	-0.337783
C72	C	0.639134	1.080909	-0.640638
C73	C	0.635778	1.080557	-0.707674
C74	C	0.747768	1.092422	-0.711784
C75	C	0.751118	1.092786	-0.644755
C76	C	0.696805	1.087021	-0.609183
N77	N	0.651748	1.082249	-0.508904
N78	N	0.700241	1.087381	-0.540666
C79	C	0.686519	1.085934	0.185416
C80	C	0.690092	1.086311	0.256756
C81	C	0.878761	0.802395	-0.032227
C82	C	0.947579	0.706541	-0.034752
C83	C	0.686528	0.782033	0.185413
C84	C	0.690103	0.679268	0.256753
C85	C	0.889288	0.803504	0.177976
C86	C	0.961678	0.708027	0.246791
C87	C	0.462697	1.366145	-0.227550
C88	C	0.390306	1.461623	-0.296365
C89	C	0.473224	1.367255	-0.017347
C90	C	0.404406	1.463109	-0.014822
C91	C	0.665457	1.387617	-0.234987
C92	C	0.661882	1.490382	-0.306327
C93	C	0.938248	0.657117	-0.075539
C94	C	1.002903	0.567065	-0.077927
C95	C	1.076888	0.526431	-0.039523
C96	C	1.086218	0.575864	0.001265
C97	C	1.021564	0.665921	0.003648
C98	C	0.733431	0.635418	0.329856
C99	C	0.736788	0.538872	0.396893
C100	C	0.696821	0.486173	0.390827
C101	C	0.653488	0.530032	0.317716
C102	C	0.650127	0.626581	0.250680
C103	C	1.033218	0.667166	0.236609
C104	C	1.101242	0.577469	0.301262
C105	C	1.097726	0.528627	0.376097
C106	C	1.026178	0.569496	0.386278
C107	C	0.958156	0.659199	0.321625
C108	C	0.318767	1.502495	-0.286183
C109	C	0.250742	1.592223	-0.350836
C110	C	0.254259	1.641070	-0.425671
C111	C	0.325807	1.600194	-0.435852
C112	C	0.393829	1.510475	-0.371199
C113	C	0.413737	1.512542	0.025958
C114	C	0.349081	1.602622	0.028327
C115	C	0.275095	1.643259	-0.010079
C116	C	0.265766	1.593821	-0.050864
C117	C	0.330420	1.503750	-0.053237
C118	C	0.701858	1.543052	-0.300235
C119	C	0.698513	1.639599	-0.367260
C120	C	0.655188	1.683481	-0.440377
C121	C	0.615211	1.630802	-0.446467
C122	C	0.618560	1.534250	-0.379442
H123	H	0.029154	0.906886	0.036865
H124	H	0.473974	1.479463	0.057238
H125	H	1.159493	0.544203	0.292959
F126	F	0.359025	0.806222	0.071743
H127	H	-0.122006	1.321562	-0.106809
H128	H	0.452078	1.477198	-0.379499
H129	H	0.356692	1.642859	0.061542
F130	F	1.170129	0.433156	0.444899
F131	F	0.492489	0.820377	0.066836
H132	H	0.559995	1.072528	-0.308821
H133	H	1.146465	0.542767	0.032532
H134	H	0.737138	1.507339	-0.240706
F135	F	0.992957	0.514467	-0.121337
H136	H	0.614847	0.662271	0.191159
F137	F	0.882020	0.702669	0.332474
F138	F	0.686536	0.581261	-0.157707
F139	F	0.674570	0.579842	0.111604
H140	H	1.036096	0.706921	0.175681
F141	F	0.569098	1.677525	-0.524289
H142	H	0.772077	0.503174	0.456416
H143	H	0.776748	0.523032	0.085310
H144	H	0.731067	1.682481	-0.362286
H145	H	0.694832	0.729734	-0.138230
H146	H	0.198865	1.714124	-0.478308
F147	F	0.187019	1.637080	-0.091733
H148	H	0.322812	1.463503	-0.086443
H149	H	0.791988	1.097114	-0.740752
H150	H	0.322833	1.262770	-0.086416
H151	H	0.315889	1.462728	-0.225255
F152	F	1.145693	0.430581	-0.042065
H153	H	0.328661	1.639977	-0.496789
F154	F	0.574390	1.074056	-0.741153
H155	H	1.023326	0.529716	0.447216
H156	H	0.192493	1.625487	-0.342532
H157	H	0.652467	1.762101	-0.494946
H158	H	-0.004704	1.333995	-0.111118
H159	H	0.205542	1.250332	-0.082133
H160	H	0.222456	1.716601	-0.008140
H161	H	0.586003	1.491376	-0.384413
H162	H	0.146441	0.919328	0.032535
H163	H	0.553908	1.071877	-0.430429
F164	F	0.802550	0.602825	-0.047437
F165	F	0.801774	0.427587	-0.047920
H166	H	0.777648	0.363552	0.084810
H167	H	0.685032	0.414542	0.099434
F168	F	1.031507	0.718506	0.047066
F169	F	0.549539	0.656856	-0.136265
H170	H	0.562521	0.805470	-0.120396
H171	H	0.554908	0.746296	-0.024462
H172	H	0.557861	0.581219	-0.019228
F173	F	0.777587	1.095605	-0.308427
F174	F	0.775976	0.691484	0.336330
F175	F	0.581328	1.074779	-0.602786
F176	F	0.610956	0.473931	0.311271
F177	F	0.859513	0.700349	-0.116419
H178	H	0.757079	1.093412	-0.437889
F179	F	0.700406	0.383414	0.462180
H180	H	0.798080	1.097761	-0.619141
