data_functionalizedCrystal
_audit_creation_method	'MofGen! by Chris Wilmer'
_symmetry_space_group_name_H-M	'P1'
_symmetry_Int_Tables_number	1
_symmetry_cell_setting	triclinic
loop_
_symmetry_equiv_pos_as_xyz
  x,y,z
_cell_length_a	14.853569
_cell_length_b	14.853559
_cell_length_c	9.798715
_cell_angle_alpha	89.999043
_cell_angle_beta	89.998286
_cell_angle_gamma	83.633509
loop_
_atom_site_label
_atom_site_type_symbol
_atom_site_fract_x
_atom_site_fract_y
_atom_site_fract_z
O1	O	1.196359	0.117709	-0.113422
O2	O	0.933900	0.131729	-0.113437
O3	O	1.072144	-0.006511	-0.113428
O4	O	1.058115	0.255950	-0.113431
O5	O	1.072134	-0.006511	0.113554
O6	O	0.933889	0.131729	0.113545
O7	O	1.196349	0.117709	0.113560
Zn8	Zn	1.065118	0.124719	0.149591
Zn9	Zn	1.065131	0.124719	-0.149468
O10	O	1.058105	0.255949	0.113551
C11	C	0.900306	0.131094	0.000052
C12	C	0.800222	0.129189	0.000045
C13	C	0.763848	0.046178	0.000042
C14	C	0.742554	0.210411	0.000055
C15	C	0.648520	0.208625	0.000056
C16	C	0.612146	0.125614	0.000053
C17	C	0.669806	0.044389	0.000047
C18	C	0.590853	0.289848	0.000075
C19	C	0.496812	0.288065	0.000079
C20	C	0.460437	0.205053	0.000065
C21	C	0.518103	0.123825	0.000058
C22	C	0.481729	0.040813	0.000055
C23	C	0.539394	-0.040416	0.000038
C24	C	0.633430	-0.038623	0.000034
C25	C	0.366401	0.203260	0.000069
C26	C	0.387687	0.039024	0.000060
C27	C	1.071505	-0.040100	0.000061
C28	C	1.069604	-0.140184	0.000053
C29	C	1.061546	-0.563359	-0.123676
C30	C	1.061535	-0.563354	0.123789
C31	C	1.063328	-0.469321	0.123790
C32	C	1.064229	-0.422302	0.000057
C33	C	1.063337	-0.469317	-0.123678
C34	C	1.064211	-0.422298	0.247523
C35	C	1.066004	-0.328259	0.247529
C36	C	1.066911	-0.281239	0.123794
C37	C	1.066020	-0.328260	0.000054
C38	C	1.066921	-0.281241	-0.123679
C39	C	1.066036	-0.328261	-0.247421
C40	C	1.064244	-0.422297	-0.247413
C41	C	1.068703	-0.187203	0.123787
C42	C	1.068712	-0.187199	-0.123682
C43	C	1.229943	0.118345	0.000068
C44	C	1.330027	0.120249	0.000066
C45	C	1.058744	0.289538	0.000059
C46	C	1.060645	0.389622	0.000058
N47	N	1.065115	0.124718	0.353691
N48	N	1.065141	0.124713	-0.353568
C49	C	1.123162	0.066421	0.421472
C50	C	1.123176	0.066418	0.578634
H51	H	0.620476	0.357431	0.000087
H52	H	1.063473	-0.460587	0.348260
H53	H	0.680389	-0.104755	0.000023
Br54	Br	0.418562	0.398301	0.000093
H55	H	1.015426	0.174623	0.412012
Br56	Br	1.069945	-0.123396	-0.291616
Br57	Br	1.063050	-0.486115	-0.415332
Br58	Br	0.288146	0.313490	0.000114
H59	H	0.772176	0.277995	0.000067
H60	H	1.069403	-0.148921	0.224535
H61	H	1.172845	0.016509	0.363152
H62	H	1.060795	-0.601641	0.224527
H63	H	1.060829	-0.601647	-0.224423
Br64	Br	1.067198	-0.264453	0.415459
H65	H	1.172876	0.016510	0.636923
H66	H	0.358079	-0.028574	0.000050
H67	H	1.015445	0.174630	0.588153
H68	H	0.810803	-0.019956	0.000023
Br69	Br	0.490018	-0.153070	0.000052
H70	H	1.066763	-0.289965	-0.348165
