data_functionalizedCrystal
_audit_creation_method	'MofGen! by Chris Wilmer'
_symmetry_space_group_name_H-M	'P1'
_symmetry_Int_Tables_number	1
_symmetry_cell_setting	triclinic
loop_
_symmetry_equiv_pos_as_xyz
  x,y,z
_cell_length_a	17.639617
_cell_length_b	13.897447
_cell_length_c	13.897433
_cell_angle_alpha	89.929755
_cell_angle_beta	78.738166
_cell_angle_gamma	101.205126
loop_
_atom_site_label
_atom_site_type_symbol
_atom_site_fract_x
_atom_site_fract_y
_atom_site_fract_z
Zn1	Zn	1.208891	-0.085561	-0.844167
Zn2	Zn	1.708891	0.414439	-0.344167
Zn3	Zn	1.208735	-0.247037	-0.682833
Zn4	Zn	1.708735	0.252963	-0.182833
Zn5	Zn	1.076614	-0.118330	-0.650193
Zn6	Zn	1.576614	0.381670	-0.150193
Zn7	Zn	1.076659	-0.279416	-0.811443
Zn8	Zn	1.576659	0.220584	-0.311443
O9	O	1.142725	-0.182586	-0.747159
O10	O	1.642725	0.317414	-0.247159
O11	O	1.319502	-0.079717	-0.850120
O12	O	1.819502	0.420283	-0.350120
O13	O	1.191125	-0.230126	-0.543501
O14	O	1.691125	0.269874	-0.043501
O15	O	1.094207	0.021010	-0.675959
O16	O	1.594207	0.521010	-0.175959
O17	O	1.319388	-0.198352	-0.731589
O18	O	1.819388	0.301648	-0.231589
O19	O	1.191390	0.045085	-0.818470
O20	O	1.691390	0.545085	-0.318470
O21	O	1.094057	-0.135566	-0.519520
O22	O	1.594057	0.364434	-0.019520
O23	O	0.965988	-0.166962	-0.644228
O24	O	1.465988	0.333038	-0.144228
O25	O	1.094284	-0.253538	-0.950787
O26	O	1.594284	0.246462	-0.450787
O27	O	0.966020	-0.285312	-0.762698
O28	O	1.466020	0.214688	-0.262698
O29	O	1.191433	-0.111114	-0.974828
O30	O	1.691433	0.388886	-0.474828
O31	O	1.191169	-0.386325	-0.699859
O32	O	1.691169	0.113675	-0.199859
O33	O	1.094133	-0.410114	-0.794348
O34	O	1.594133	0.089886	-0.294348
C35	C	0.937318	-0.233207	-0.696371
C36	C	1.437318	0.266793	-0.196371
C37	C	0.849444	-0.254886	-0.674666
C38	C	1.349444	0.245114	-0.174666
C39	C	0.560707	-0.017870	-0.912284
C40	C	1.060707	0.482130	-0.412284
C41	C	0.478136	-0.038265	-0.891870
C42	C	0.978136	0.461735	-0.391870
C43	C	0.478039	-0.161596	-0.768266
C44	C	0.978039	0.338404	-0.268266
C45	C	0.560612	-0.141214	-0.788673
C46	C	1.060612	0.358786	-0.288673
C47	C	0.601939	-0.069350	-0.860682
C48	C	1.101939	0.430650	-0.360682
C49	C	0.601844	-0.192694	-0.737071
C50	C	1.101844	0.307306	-0.237071
C51	C	0.684409	-0.172310	-0.757473
C52	C	1.184409	0.327690	-0.257473
C53	C	0.725742	-0.100447	-0.829477
C54	C	1.225742	0.399553	-0.329477
C55	C	0.684504	-0.048966	-0.881085
C56	C	1.184504	0.451034	-0.381085
C57	C	0.560515	-0.264553	-0.665057
C58	C	1.060515	0.235447	-0.165057
C59	C	0.601747	-0.316032	-0.613455
C60	C	1.101747	0.183968	-0.113455
C61	C	0.684314	-0.295654	-0.633862
C62	C	1.184314	0.204346	-0.133862
C63	C	0.725647	-0.223791	-0.705866
C64	C	1.225647	0.276209	-0.205866
C65	C	0.725552	-0.347135	-0.582255
C66	C	1.225552	0.152865	-0.082255
C67	C	0.808117	-0.326751	-0.602657
C68	C	1.308117	0.173249	-0.102657
C69	C	0.808212	-0.203407	-0.726268
C70	C	1.308212	0.296593	-0.226268
C71	C	1.142660	-0.433216	-0.747121
C72	C	1.642660	0.066784	-0.247121
C73	C	1.142705	-0.540419	-0.747154
C74	C	1.642705	-0.040419	-0.247154
C75	C	1.142743	-0.627479	-0.747186
C76	C	1.642743	-0.127479	-0.247186
C77	C	1.142799	-0.736698	-0.747224
C78	C	1.642799	-0.236698	-0.247224
C79	C	1.348933	-0.131768	-0.798146
C80	C	1.848933	0.368232	-0.298146
C81	C	1.436807	-0.110112	-0.819873
C82	C	1.936807	0.389888	-0.319873
C83	C	1.142881	-0.182282	-0.998791
C84	C	1.642881	0.317718	-0.498791
C85	C	1.142947	-0.182153	-1.106022
C86	C	1.642947	0.317847	-0.606022
C87	C	1.142811	0.069028	-0.747224
C88	C	1.642811	0.569028	-0.247224
C89	C	1.142848	0.176251	-0.747251
C90	C	1.642848	0.676251	-0.247251
C91	C	1.142615	-0.182807	-0.496517
C92	C	1.642615	0.317193	0.003483
C93	C	1.142701	-0.182627	-0.389325
C94	C	1.642701	0.317373	0.110675
C95	C	1.142877	-0.182300	-0.193074
C96	C	1.642877	0.317700	0.306926
C97	C	1.142782	-0.182484	-0.302282
C98	C	1.642782	0.317516	0.197718
H99	H	0.718156	0.009550	-0.939725
H100	H	1.218156	0.509550	-0.439725
H101	H	0.841689	-0.368671	-0.560638
H102	H	1.341689	0.131329	-0.060638
H103	H	0.594358	0.040646	-0.970925
H104	H	1.094358	0.540646	-0.470925
N105	N	0.436030	0.014309	-0.944618
N106	N	0.936030	0.514309	-0.444618
N107	N	0.472943	0.078453	-1.008922
N108	N	0.972943	0.578453	-0.508922
H109	H	0.443206	0.115575	-1.046184
H110	H	0.943206	0.615575	-0.546184
H111	H	0.444379	-0.220105	-0.709633
H112	H	0.944379	0.279895	-0.209633
H113	H	0.493285	-0.281125	-0.648427
H114	H	0.993285	0.218875	-0.148427
H115	H	0.568087	-0.374541	-0.554822
H116	H	1.068087	0.125459	-0.054822
N117	N	0.683332	-0.420520	-0.508684
N118	N	1.183332	0.079480	-0.008684
N119	N	0.637224	-0.397925	-0.435880
N120	N	1.137224	0.102075	0.064120
H121	H	0.607406	-0.449753	-0.383917
H122	H	1.107406	0.050247	0.116083
H123	H	0.792972	-0.083848	-0.846084
H124	H	1.292972	0.416152	-0.346084
N125	N	0.850425	-0.129989	-0.799820
N126	N	1.350425	0.370011	-0.299820
N127	N	0.841204	-0.043255	-0.791297
N128	N	1.341204	0.456745	-0.291297
H129	H	0.871017	0.008596	-0.843238
H130	H	1.371017	0.508596	-0.343238
