data_functionalizedCrystal
_audit_creation_method	'MofGen! by Chris Wilmer'
_symmetry_space_group_name_H-M	'P1'
_symmetry_Int_Tables_number	1
_symmetry_cell_setting	triclinic
loop_
_symmetry_equiv_pos_as_xyz
  x,y,z
_cell_length_a	11.804365
_cell_length_b	10.723024
_cell_length_c	10.723024
_cell_angle_alpha	84.467869
_cell_angle_beta	101.946168
_cell_angle_gamma	78.037866
loop_
_atom_site_label
_atom_site_type_symbol
_atom_site_fract_x
_atom_site_fract_y
_atom_site_fract_z
O1	O	0.099016	-1.682181	-0.150049
O2	O	0.099020	-1.319030	-0.166801
O3	O	0.099013	-1.508981	0.023150
O4	O	0.099022	-1.492230	-0.340000
O5	O	-0.099041	-1.458974	-0.026806
O6	O	-0.099034	-1.269022	-0.216757
O7	O	-0.099038	-1.632174	-0.200005
Cu8	Cu	-0.117120	-1.446032	-0.212943
Cu9	Cu	0.117102	-1.505171	-0.153864
O10	O	-0.099032	-1.442223	-0.389956
C11	C	-0.000007	-1.247527	-0.190560
C12	C	-0.000005	-1.108973	-0.186912
N13	N	-0.281859	-1.404446	-0.254495
C14	C	-0.000012	-1.482758	0.044672
C15	C	-0.000008	-1.479112	0.183227
C16	C	-0.655816	-1.646632	-0.012496
C17	C	-0.531156	-1.678090	0.018944
C18	C	-0.468825	-1.609681	-0.049413
C19	C	-0.531168	-1.509809	-0.149215
C20	C	-0.655841	-1.478354	-0.180664
C21	C	-0.468850	-1.441404	-0.217582
C22	C	-0.531193	-1.341532	-0.317384
C23	C	-0.655853	-1.310081	-0.348827
C24	C	-0.718184	-1.378490	-0.280470
C25	C	-0.344177	-1.472859	-0.186132
C26	C	-0.344202	-1.304582	-0.354301
C27	C	-0.468863	-1.273123	-0.385740
N28	N	0.281841	-1.546768	-0.112302
C29	C	-0.000009	-1.703678	-0.176246
C30	C	-0.000003	-1.842233	-0.179892
C31	C	-0.000002	-1.033991	-0.293199
C32	C	-0.000000	-0.890788	-0.289431
C33	C	-0.000003	-1.468446	-0.411478
C34	C	0.000000	-1.472094	-0.550031
C35	C	-0.000007	-1.585400	0.258210
C36	C	-0.000003	-1.581633	0.401414
H37	H	-0.293429	-1.554175	-0.104874
Cl38	Cl	-0.000017	-1.044411	-0.042109
H39	H	-0.367321	-1.635300	-0.023810
H40	H	-0.000008	-1.672622	0.465846
H41	H	-0.000016	-1.679183	0.216386
H42	H	0.000001	-1.385328	0.225052
Cl43	Cl	-0.000002	-1.098549	-0.438005
H44	H	-0.519638	-1.191805	-0.467002
Cl45	Cl	0.000013	-0.791319	-0.429918
Cl46	Cl	0.000002	-0.941700	-0.039395
H47	H	-0.000008	-1.381097	0.385542
Cl48	Cl	-0.874907	-1.338935	-0.319991
H49	H	-0.706574	-1.702328	0.043145
Cl50	Cl	-0.734229	-1.184543	-0.474306
Cl51	Cl	-0.452785	-1.803636	0.144401
H52	H	-0.293454	-1.248879	-0.409966
