data_functionalizedCrystal
_audit_creation_method	'MofGen! by Chris Wilmer'
_symmetry_space_group_name_H-M	'P1'
_symmetry_Int_Tables_number	1
_symmetry_cell_setting	triclinic
loop_
_symmetry_equiv_pos_as_xyz
  x,y,z
_cell_length_a	11.169417
_cell_length_b	13.031981
_cell_length_c	11.169409
_cell_angle_alpha	82.780222
_cell_angle_beta	89.980487
_cell_angle_gamma	97.193279
loop_
_atom_site_label
_atom_site_type_symbol
_atom_site_fract_x
_atom_site_fract_y
_atom_site_fract_z
Zn1	Zn	1.774262	-0.416001	-0.617782
Zn2	Zn	2.274262	0.083999	-0.117782
Zn3	Zn	1.748641	-0.590825	-0.391569
Zn4	Zn	2.248641	-0.090825	0.108431
Zn5	Zn	1.573538	-0.416066	-0.417108
Zn6	Zn	2.073538	0.083934	0.082892
Zn7	Zn	1.548058	-0.590741	-0.592227
Zn8	Zn	2.048058	-0.090741	-0.092227
O9	O	1.661125	-0.503409	-0.504672
O10	O	2.161125	-0.003409	-0.004672
O11	O	1.938811	-0.439200	-0.587781
O12	O	2.438811	0.060800	-0.087781
O13	O	1.725355	-0.567705	-0.226998
O14	O	2.225355	-0.067705	0.273002
O15	O	1.621550	-0.269791	-0.465111
O16	O	2.121550	0.230209	0.034889
O17	O	1.919988	-0.567643	-0.421583
O18	O	2.419988	-0.067643	0.078417
O19	O	1.769021	-0.269743	-0.612546
O20	O	2.269021	0.230257	-0.112546
O21	O	1.596707	-0.439310	-0.245761
O22	O	2.096707	0.060690	0.254239
O23	O	1.402209	-0.439229	-0.440331
O24	O	1.902209	0.060771	0.059669
O25	O	1.578123	-0.567500	-0.763576
O26	O	2.078123	-0.067500	-0.263576
O27	O	1.383489	-0.567562	-0.568990
O28	O	1.883489	-0.067562	-0.068990
O29	O	1.744314	-0.439119	-0.782351
O30	O	2.244314	0.060881	-0.282351
O31	O	1.700648	-0.737081	-0.396803
O32	O	2.200648	-0.237081	0.103197
O33	O	1.553280	-0.737019	-0.544226
O34	O	2.053280	-0.237019	-0.044226
C35	C	1.349302	-0.503394	-0.504660
C36	C	1.849302	-0.003394	-0.004660
C37	C	1.215899	-0.503414	-0.504680
C38	C	1.715899	-0.003414	-0.004680
C39	C	1.621451	-0.774976	-0.464996
C40	C	2.121451	-0.274976	0.035004
C41	C	1.604589	-0.891153	-0.448063
C42	C	2.104589	-0.391153	0.051937
C43	C	1.669989	-0.942842	-0.513533
C44	C	2.169989	-0.442842	-0.013533
C45	C	1.652562	-1.062917	-0.496033
C46	C	2.152562	-0.562917	0.003967
C47	C	1.974165	-0.503423	-0.504684
C48	C	2.474165	-0.003423	-0.004684
C49	C	2.107564	-0.503430	-0.504689
C50	C	2.607564	-0.003430	-0.004689
C51	C	1.661234	-0.503292	-0.817731
C52	C	2.161234	-0.003292	-0.317731
C53	C	1.661280	-0.503243	-0.951138
C54	C	2.161280	-0.003243	-0.451138
C55	C	1.700986	-0.230781	-0.544528
C56	C	2.200986	0.269219	-0.044528
C57	C	1.717972	-0.114603	-0.561512
C58	C	2.217972	0.385397	-0.061512
C59	C	1.661096	-0.503449	-0.192841
C60	C	2.161096	-0.003449	0.307159
C61	C	1.661325	-0.503204	-0.059477
C62	C	2.161325	-0.003204	0.440523
H63	H	1.738878	-0.898201	-0.582545
H64	H	2.238878	-0.398201	-0.082545
Cl65	Cl	1.546181	-1.131830	-0.389490
Cl66	Cl	2.046181	-0.631830	0.110510
H67	H	1.786866	-1.069966	-0.630529
H68	H	2.286866	-0.569966	-0.130529
Cl69	Cl	1.498213	-0.960069	-0.341525
Cl70	Cl	1.998213	-0.460069	0.158475
