data_functionalizedCrystal
_audit_creation_method	'MofGen! by Chris Wilmer'
_symmetry_space_group_name_H-M	'P1'
_symmetry_Int_Tables_number	1
_symmetry_cell_setting	triclinic
loop_
_symmetry_equiv_pos_as_xyz
  x,y,z
_cell_length_a	12.759401
_cell_length_b	16.120444
_cell_length_c	12.759393
_cell_angle_alpha	92.863624
_cell_angle_beta	89.980316
_cell_angle_gamma	92.925610
loop_
_atom_site_label
_atom_site_type_symbol
_atom_site_fract_x
_atom_site_fract_y
_atom_site_fract_z
Zn1	Zn	1.584963	-0.331877	-0.615185
Zn2	Zn	2.084963	0.168123	-0.115185
Zn3	Zn	1.575911	-0.471315	-0.448401
Zn4	Zn	2.075911	0.028685	0.051599
Zn5	Zn	1.409262	-0.331918	-0.439524
Zn6	Zn	1.909262	0.168082	0.060476
Zn7	Zn	1.400312	-0.471249	-0.624034
Zn8	Zn	1.900312	0.028751	-0.124034
O9	O	1.492612	-0.401590	-0.531786
O10	O	1.992612	0.098410	-0.031786
O11	O	1.730782	-0.350385	-0.593073
O12	O	2.230782	0.149615	-0.093073
O13	O	1.553762	-0.452869	-0.300205
O14	O	2.053762	0.047131	0.199795
O15	O	1.440103	-0.215247	-0.455408
O16	O	1.940103	0.284753	0.044592
O17	O	1.724132	-0.452829	-0.470537
O18	O	2.224132	0.047171	0.029463
O19	O	1.569190	-0.215217	-0.584465
O20	O	2.069190	0.284783	-0.084465
O21	O	1.431326	-0.350455	-0.293683
O22	O	1.931326	0.149545	0.206317
O23	O	1.261054	-0.350390	-0.463988
O24	O	1.761054	0.149610	0.036012
O25	O	1.424848	-0.452716	-0.769879
O26	O	1.924848	0.047284	-0.269879
O27	O	1.254479	-0.452756	-0.599547
O28	O	1.754479	0.047244	-0.099547
O29	O	1.560511	-0.350320	-0.763377
O30	O	2.060511	0.149680	-0.263377
O31	O	1.545083	-0.587972	-0.479117
O32	O	2.045083	-0.087972	0.020883
O33	O	1.416071	-0.587923	-0.608154
O34	O	1.916071	-0.087923	-0.108154
C35	C	1.219646	-0.401571	-0.531765
C36	C	1.719646	0.098429	-0.031765
C37	C	1.102868	-0.401583	-0.531782
C38	C	1.602868	0.098417	-0.031782
C39	C	1.051404	-0.348211	-0.461316
C40	C	1.551404	0.151789	0.038684
C41	C	0.941679	-0.348230	-0.461330
C42	C	1.441679	0.151770	0.038670
C43	C	0.934891	-0.454996	-0.602287
C44	C	1.434891	0.045004	-0.102287
C45	C	1.044615	-0.454980	-0.602266
C46	C	1.544615	0.045020	-0.102266
C47	C	1.109658	-0.294813	-0.390831
C48	C	1.609658	0.205187	0.109169
C49	C	1.058194	-0.241436	-0.320360
C50	C	1.558194	0.258564	0.179640
C51	C	0.948468	-0.241456	-0.320374
C52	C	1.448468	0.258544	0.179626
C53	C	0.890207	-0.294853	-0.390860
C54	C	1.390207	0.205147	0.109140
C55	C	1.478652	-0.618198	-0.545582
C56	C	1.978652	-0.118198	-0.045582
C57	C	1.472776	-0.710863	-0.551519
C58	C	1.972776	-0.210863	-0.051519
C59	C	1.523350	-0.921809	-0.501213
C60	C	2.023350	-0.421809	-0.001213
C61	C	1.462068	-0.880519	-0.562369
C62	C	1.962068	-0.380519	-0.062369
C63	C	1.468028	-0.786114	-0.556330
C64	C	1.968028	-0.286114	-0.056330
C65	C	1.517392	-1.016223	-0.507251
C66	C	2.017392	-0.516223	-0.007251
C67	C	1.766644	-0.401610	-0.531808
C68	C	2.266644	0.098390	-0.031808
C69	C	1.883420	-0.401618	-0.531817
C70	C	2.383420	0.098382	-0.031817
C71	C	1.492691	-0.401506	-0.805814
C72	C	1.992691	0.098494	-0.305814
C73	C	1.492724	-0.401470	-0.922589
C74	C	1.992724	0.098530	-0.422589
C75	C	1.506655	-0.184136	-0.517959
C76	C	2.006655	0.315864	-0.017959
C77	C	1.512639	-0.091471	-0.512067
C78	C	2.012639	0.408529	-0.012067
C79	C	1.563373	-0.348148	-0.974067
C80	C	2.063373	0.151852	-0.474067
C81	C	1.563400	-0.348117	-1.083789
C82	C	2.063400	0.151883	-0.583789
C83	C	1.422126	-0.454739	-1.090545
C84	C	1.922126	0.045261	-0.590545
C85	C	1.422095	-0.454765	-0.980825
C86	C	1.922095	0.045235	-0.480825
C87	C	1.634003	-0.294853	-0.915830
C88	C	2.134003	0.205147	-0.415830
C89	C	1.704659	-0.241527	-0.967309
C90	C	2.204659	0.258473	-0.467309
C91	C	1.704686	-0.241497	-1.077031
C92	C	2.204686	0.258503	-0.577031
C93	C	1.634057	-0.294793	-1.135275
C94	C	2.134057	0.205207	-0.635275
C95	C	1.492597	-0.401614	-0.258820
C96	C	1.992597	0.098386	0.241180
C97	C	1.492782	-0.401415	-0.142031
C98	C	1.992782	0.098585	0.357969
H99	H	0.800861	-0.294868	-0.390862
H100	H	1.300861	0.205132	0.109138
H101	H	0.887447	-0.498468	-0.659675
H102	H	1.387447	0.001532	-0.159675
O103	O	1.094450	-0.506847	-0.670821
O104	O	1.594450	-0.006847	-0.170821
C105	C	1.019508	-0.553989	-0.733027
C106	C	1.519508	-0.053989	-0.233027
H107	H	0.943486	-0.519859	-0.734579
H108	H	1.443486	-0.019859	-0.234579
H109	H	1.050681	-0.562953	-0.816350
H110	H	1.550681	-0.062953	-0.316350
H111	H	1.003756	-0.617274	-0.698456
H112	H	1.503756	-0.117274	-0.198456
H113	H	1.105637	-0.197968	-0.262967
H114	H	1.605637	0.302032	0.237033
H115	H	1.633991	-0.294873	-0.826489
H116	H	2.133991	0.205127	-0.326489
H117	H	0.906569	-0.198000	-0.262987
H118	H	1.406569	0.302000	0.237013
H119	H	1.364623	-0.498130	-1.137976
H120	H	1.864623	0.001870	-0.637976
H121	H	1.405126	-0.916071	-0.619262
H122	H	1.905126	-0.416071	-0.119262
H123	H	1.580287	-0.886262	-0.444324
H124	H	2.080287	-0.386262	0.055676
H125	H	1.762209	-0.198070	-1.118941
H126	H	2.262209	0.301930	-0.618941
H127	H	1.199002	-0.294789	-0.390814
H128	H	1.699002	0.205211	0.109186
O129	O	1.634244	-0.294840	-1.241864
O130	O	2.134244	0.205160	-0.741864
C131	C	1.733571	-0.316229	-1.279889
C132	C	2.233571	0.183771	-0.779889
H133	H	1.774641	-0.352591	-1.218970
H134	H	2.274641	0.147409	-0.718970
H135	H	1.723486	-0.356189	-1.355828
H136	H	2.223486	0.143811	-0.855828
H137	H	1.782903	-0.257204	-1.295618
H138	H	2.282903	0.242796	-0.795618
O139	O	1.773219	-0.189831	-0.910578
O140	O	2.273219	0.310169	-0.410578
C141	C	1.758029	-0.201274	-0.802696
C142	C	2.258029	0.298726	-0.302696
H143	H	1.719465	-0.265615	-0.791791
H144	H	2.219465	0.234385	-0.291791
H145	H	1.837079	-0.195632	-0.760645
H146	H	2.337079	0.304368	-0.260645
H147	H	1.705263	-0.151828	-0.768414
H148	H	2.205263	0.348172	-0.268414
O149	O	1.353450	-0.506657	-0.930980
O150	O	1.853450	-0.006657	-0.430980
C151	C	1.291116	-0.553690	-1.005906
C152	C	1.791116	-0.053690	-0.505906
H153	H	1.333973	-0.556546	-1.084313
H154	H	1.833973	-0.056546	-0.584313
H155	H	1.275689	-0.619388	-0.978378
H156	H	1.775689	-0.119388	-0.478378
H157	H	1.213283	-0.523171	-1.015615
H158	H	1.713283	-0.023171	-0.515615
