data_functionalizedCrystal
_audit_creation_method	'MofGen! by Chris Wilmer'
_symmetry_space_group_name_H-M	'P1'
_symmetry_Int_Tables_number	1
_symmetry_cell_setting	triclinic
loop_
_symmetry_equiv_pos_as_xyz
  x,y,z
_cell_length_a	14.519709
_cell_length_b	14.519709
_cell_length_c	14.421503
_cell_angle_alpha	89.995739
_cell_angle_beta	89.997167
_cell_angle_gamma	96.319855
loop_
_atom_site_label
_atom_site_type_symbol
_atom_site_fract_x
_atom_site_fract_y
_atom_site_fract_z
O1	O	1.223874	-0.120877	-0.076993
O2	O	0.955397	-0.135114	-0.077022
O3	O	1.096754	0.006243	-0.076998
O4	O	1.082518	-0.262234	-0.077016
O5	O	1.096728	0.006219	0.077225
O6	O	0.955372	-0.135137	0.077202
O7	O	1.223848	-0.120901	0.077230
Cu8	Cu	1.089608	-0.128021	0.091298
Cu9	Cu	1.089638	-0.127993	-0.091089
O10	O	1.082492	-0.262258	0.077207
C11	C	0.921025	-0.134462	0.000087
C12	C	0.818643	-0.132474	0.000076
C13	C	1.096078	0.040591	0.000114
C14	C	1.094090	0.142972	0.000114
C15	C	0.443748	-0.125154	0.000119
C16	C	0.548056	-0.127187	0.000106
C17	C	0.631192	-0.128814	0.000096
C18	C	0.735507	-0.130847	0.000086
C19	C	1.258221	-0.121553	0.000120
C20	C	1.360602	-0.123541	0.000125
N21	N	1.089593	-0.128040	0.219579
C22	C	1.083168	-0.296606	0.000093
C23	C	1.085156	-0.398987	0.000087
C24	C	1.086770	0.517868	0.000089
C25	C	1.088803	0.413560	0.000096
C26	C	1.090430	0.330423	0.000102
C27	C	1.092463	0.226109	0.000108
C28	C	1.024214	-0.193379	0.469222
C29	C	1.107575	-0.211417	0.531032
C30	C	1.089612	-0.128022	0.408741
C31	C	1.006270	-0.110008	0.531024
C32	C	1.089624	-0.128006	0.591462
C33	C	1.173015	-0.146102	0.469190
C34	C	1.071655	-0.044657	0.469177
C35	C	1.155077	-0.062660	0.530959
C36	C	1.089604	-0.128033	0.303480
C37	C	1.089641	-0.127994	0.696721
N38	N	1.089644	-0.127984	0.780630
H39	H	0.968966	-0.248692	0.442115
H40	H	1.122775	-0.281910	0.558202
N41	N	1.261468	-0.165310	0.435286
N42	N	1.332618	-0.112769	0.455699
H43	H	1.395087	-0.126338	0.431755
H44	H	1.210447	-0.007379	0.557896
N45	N	1.052548	0.043749	0.435073
N46	N	0.977675	0.074073	0.454849
H47	H	0.964170	0.136511	0.430763
H48	H	0.935784	-0.094780	0.558188
