data_functionalizedCrystal
_audit_creation_method	'MofGen! by Chris Wilmer'
_symmetry_space_group_name_H-M	'P1'
_symmetry_Int_Tables_number	1
_symmetry_cell_setting	triclinic
loop_
_symmetry_equiv_pos_as_xyz
  x,y,z
_cell_length_a	14.971482
_cell_length_b	10.489741
_cell_length_c	14.048226
_cell_angle_alpha	89.993872
_cell_angle_beta	89.994098
_cell_angle_gamma	84.075891
loop_
_atom_site_label
_atom_site_type_symbol
_atom_site_fract_x
_atom_site_fract_y
_atom_site_fract_z
O1	O	1.187895	0.166199	-0.079148
O2	O	0.927608	0.186110	-0.079152
O3	O	1.063674	-0.009512	-0.079144
O4	O	1.051829	0.361821	-0.079156
O5	O	1.063657	-0.009523	0.079177
O6	O	0.927591	0.186098	0.079169
O7	O	1.187878	0.166188	0.079174
Zn8	Zn	1.057732	0.176141	0.104308
Zn9	Zn	1.057754	0.176156	-0.104287
O10	O	1.051812	0.361810	0.079166
C11	C	0.894270	0.185215	0.000008
C12	C	0.794957	0.182549	0.000006
C13	C	0.748296	0.181287	0.086308
C14	C	0.654983	0.178762	0.086309
C15	C	0.608332	0.177508	0.000007
C16	C	0.655000	0.178766	-0.086301
C17	C	0.748312	0.181282	-0.086301
C18	C	0.460508	0.173525	-0.086295
C19	C	0.367190	0.171011	-0.086295
C20	C	0.367180	0.171005	0.086316
C21	C	0.460492	0.173521	0.086316
C22	C	0.507153	0.174781	0.000007
C23	C	1.062771	-0.057039	0.000016
C24	C	1.060094	-0.198637	0.000014
C25	C	0.973519	-0.265774	0.000006
C26	C	1.014408	-0.358376	0.078067
C27	C	1.014445	-0.358340	-0.078025
C28	C	1.101019	-0.289375	0.078140
C29	C	1.101044	-0.289329	-0.078023
C30	C	1.141996	-0.381904	0.000058
C31	C	1.221216	0.167083	0.000011
C32	C	1.320529	0.169749	0.000007
C33	C	1.052715	0.409337	0.000003
C34	C	1.055392	0.550935	-0.000001
N35	N	1.057724	0.176130	0.246669
N36	N	1.057769	0.176158	-0.246648
C37	C	1.117993	0.089545	0.296491
C38	C	1.117999	0.089544	0.396148
C39	C	1.057739	0.176136	0.445982
C40	C	0.997463	0.262725	0.396154
C41	C	0.997454	0.262719	0.296498
C42	C	0.997489	0.262735	0.603868
C43	C	0.997500	0.262743	0.703531
C44	C	1.118035	0.089560	0.703518
C45	C	1.118025	0.089553	0.603862
C46	C	1.057750	0.176145	0.554041
H47	H	0.616998	0.177713	0.156585
H48	H	1.213241	-0.432154	0.000102
N49	N	0.935911	0.351189	0.552990
N50	N	0.882114	0.428501	0.597493
H51	H	0.838627	0.490975	0.561561
N52	N	0.935896	0.351157	0.447057
N53	N	0.880125	0.310552	0.502683
H54	H	0.836641	0.373008	0.538634
H55	H	0.617010	0.177735	-0.156570
H56	H	1.167112	0.019054	0.744089
H57	H	0.498472	0.174550	0.156590
N58	N	0.319506	0.169740	0.174471
N59	N	0.236192	0.167502	0.174463
H60	H	0.202517	0.166621	0.236721
N61	N	0.795965	0.182559	-0.174466
N62	N	0.754305	0.181435	-0.251515
H63	H	0.787959	0.182330	-0.313785
N64	N	0.968483	-0.396689	-0.160806
N65	N	0.899614	-0.453672	-0.152134
H66	H	0.867147	-0.480755	-0.210593
H67	H	0.902338	-0.215297	0.000083
N68	N	1.179631	0.001162	0.552971
N69	N	1.233470	-0.076105	0.597463
H70	H	1.276995	-0.138513	0.561521
H71	H	0.948375	0.333224	0.255934
H72	H	0.329209	0.169991	-0.156570
N73	N	0.935924	0.351169	0.754429
N74	N	0.853242	0.349192	0.743322
H75	H	0.809750	0.411638	0.779270
H76	H	1.137652	-0.258703	-0.144020
N77	N	0.508160	0.174799	-0.174465
N78	N	0.466499	0.173680	-0.251515
H79	H	0.500153	0.174584	-0.313785
N80	N	0.968454	-0.396747	0.160862
N81	N	0.937112	-0.314493	0.219618
H82	H	0.904651	-0.341587	0.278089
N83	N	0.795929	0.182597	0.174474
N84	N	0.754251	0.181480	0.251522
H85	H	0.787888	0.182409	0.313793
H86	H	1.137612	-0.258972	0.144209
N87	N	1.179566	0.001085	0.447025
N88	N	1.233367	-0.076219	0.402519
H89	H	1.276850	-0.138699	0.438449
N90	N	1.179506	0.001015	0.245605
N91	N	1.233276	-0.076339	0.290106
H92	H	1.276701	-0.138898	0.254172
