data_functionalizedCrystal
_audit_creation_method	'MofGen! by Chris Wilmer'
_symmetry_space_group_name_H-M	'P1'
_symmetry_Int_Tables_number	1
_symmetry_cell_setting	triclinic
loop_
_symmetry_equiv_pos_as_xyz
  x,y,z
_cell_length_a	15.944545
_cell_length_b	15.944551
_cell_length_c	13.101039
_cell_angle_alpha	93.361595
_cell_angle_beta	86.644973
_cell_angle_gamma	83.497455
loop_
_atom_site_label
_atom_site_type_symbol
_atom_site_fract_x
_atom_site_fract_y
_atom_site_fract_z
O1	O	1.119144	0.103675	-0.085150
O2	O	1.452478	0.437008	0.248183
O3	O	1.785811	0.770341	0.581517
O4	O	0.874595	0.117035	-0.085167
O5	O	1.207928	0.450369	0.248166
O6	O	1.541262	0.783702	0.581500
O7	O	1.003547	-0.011919	-0.085149
O8	O	1.336881	0.321414	0.248184
O9	O	1.670214	0.654747	0.581518
O10	O	0.990192	0.232629	-0.085168
O11	O	1.323525	0.565963	0.248165
O12	O	1.656859	0.899296	0.581498
O13	O	0.994295	-0.002652	0.085280
O14	O	1.327629	0.330682	0.418613
O15	O	1.660962	0.664015	0.751946
O16	O	0.865343	0.126303	0.085262
O17	O	1.198676	0.459636	0.418595
O18	O	1.532010	0.792970	0.751928
O19	O	1.109892	0.112942	0.085278
O20	O	1.443226	0.446276	0.418612
O21	O	1.776559	0.779609	0.751945
Zn22	Zn	0.986149	0.121094	0.112329
Zn23	Zn	1.319482	0.454427	0.445663
Zn24	Zn	1.652815	0.787761	0.778996
Zn25	Zn	0.998339	0.108884	-0.112218
Zn26	Zn	1.331672	0.442217	0.221116
Zn27	Zn	1.665005	0.775550	0.554449
O28	O	0.980940	0.241897	0.085260
O29	O	1.314273	0.575230	0.418594
O30	O	1.647607	0.908564	0.751927
C31	C	0.838675	0.121115	0.000045
C32	C	1.172008	0.454449	0.333379
C33	C	1.505342	0.787782	0.666712
C34	C	0.745429	0.119455	0.000039
C35	C	1.078762	0.452788	0.333372
C36	C	1.412096	0.786122	0.666706
C37	C	0.474795	0.034562	0.000057
C38	C	0.808129	0.367896	0.333390
C39	C	1.141462	0.701229	0.666723
C40	C	0.520815	0.080060	0.084086
C41	C	0.854149	0.413394	0.417419
C42	C	1.187482	0.746727	0.750753
C43	C	0.409784	0.113535	0.000057
C44	C	0.743118	0.446869	0.333390
C45	C	1.076451	0.780202	0.666724
C46	C	0.529918	0.070944	-0.083943
C47	C	0.863251	0.404278	0.249390
C48	C	1.196584	0.737611	0.582724
C49	C	0.574698	0.116439	0.000047
C50	C	0.908032	0.449773	0.333380
C51	C	1.241365	0.783106	0.666713
C52	C	0.454572	0.159016	0.084156
C53	C	0.787905	0.492349	0.417489
C54	C	1.121239	0.825683	0.750823
C55	C	0.463675	0.149884	-0.083949
C56	C	0.797009	0.483218	0.249385
C57	C	1.130342	0.816551	0.582718
C58	C	0.509661	0.195442	0.000101
C59	C	0.842995	0.528775	0.333435
C60	C	1.176328	0.862108	0.666768
C61	C	0.314782	0.111860	0.000064
C62	C	0.648115	0.445193	0.333397
C63	C	0.981448	0.778527	0.666731
C64	C	0.669698	0.118121	0.000047
C65	C	1.003031	0.451454	0.333380
C66	C	1.336364	0.784788	0.666714
C67	C	0.998367	-0.038580	0.000066
C68	C	1.331700	0.294754	0.333399
C69	C	1.665033	0.628087	0.666732
C70	C	0.996704	-0.131826	0.000066
C71	C	1.330038	0.201508	0.333399
C72	C	1.663371	0.534841	0.666733
C73	C	0.912801	-0.346681	0.000046
C74	C	1.246134	-0.013348	0.333379
C75	C	1.579468	0.319985	0.666713
C76	C	0.947201	-0.403130	0.084080
C77	C	1.280535	-0.069797	0.417414
C78	C	1.613868	0.263537	0.750747
C79	C	0.993698	-0.302552	0.000058
C80	C	1.327031	0.030782	0.333391
C81	C	1.660364	0.364115	0.666725
C82	C	0.956342	-0.412251	-0.083949
C83	C	1.289676	-0.078917	0.249385
C84	C	1.623009	0.254416	0.582718
C85	C	0.990787	-0.467465	0.000046
C86	C	1.324121	-0.134132	0.333379
C87	C	1.657454	0.199202	0.666712
C88	C	1.028117	-0.357768	0.084162
C89	C	1.361450	-0.024435	0.417495
C90	C	1.694783	0.308898	0.750828
C91	C	1.037250	-0.366887	-0.083943
C92	C	1.370584	-0.033553	0.249390
C93	C	1.703917	0.299780	0.582724
C94	C	1.071709	-0.423316	0.000112
C95	C	1.405042	-0.089983	0.333445
C96	C	1.738375	0.243350	0.666778
C97	C	0.995372	-0.207549	0.000066
C98	C	1.328705	0.125784	0.333399
C99	C	1.662038	0.459118	0.666733
C100	C	0.989119	-0.562466	0.000045
C101	C	1.322453	-0.229133	0.333378
C102	C	1.655786	0.104200	0.666712
C103	C	1.145812	0.108862	0.000064
C104	C	1.479146	0.442196	0.333397
C105	C	1.812479	0.775529	0.666731
C106	C	1.239059	0.110522	0.000063
C107	C	1.572392	0.443856	0.333397
C108	C	1.905725	0.777189	0.666730
C109	C	0.986121	0.268557	0.000044
C110	C	1.319454	0.601890	0.333377
C111	C	1.652787	0.935224	0.666710
C112	C	0.987783	0.361803	0.000036
C113	C	1.321117	0.695136	0.333370
C114	C	1.654450	1.028469	0.666703
N115	N	0.977835	0.129427	0.265577
N116	N	1.311169	0.462760	0.598910
N117	N	1.644502	0.796094	0.932243
N118	N	1.006659	0.100544	-0.265465
N119	N	1.339992	0.433877	0.067868
N120	N	1.673325	0.767211	0.401202
C121	C	0.966525	0.140772	0.474618
C122	C	1.299858	0.474105	0.807951
C123	C	1.633191	0.807439	1.141284
C124	C	1.017967	0.089202	0.525500
C125	C	1.351300	0.422535	0.858834
C126	C	1.684633	0.755869	1.192167
C127	C	1.011673	0.095514	0.641818
C128	C	1.345007	0.428848	0.975151
C129	C	1.678340	0.762181	1.308485
C130	C	0.972817	0.134460	0.358289
C131	C	1.306150	0.467794	0.691623
C132	C	1.639484	0.801127	1.024956
H133	H	0.545889	0.050571	0.155132
H134	H	0.879222	0.383905	0.488465
H135	H	1.212556	0.717238	0.821798
Br136	Br	0.584547	0.008896	-0.202339
Br137	Br	0.917880	0.342230	0.130994
Br138	Br	1.251214	0.675563	0.464328
Br139	Br	1.099604	0.008068	0.452512
Br140	Br	1.432937	0.341401	0.785846
Br141	Br	1.766271	0.674734	1.119179
H142	H	0.845648	-0.313368	0.000125
H143	H	1.178981	0.019965	0.333459
H144	H	1.512315	0.353299	0.666792
Br145	Br	0.535477	0.308891	0.000163
Br146	Br	0.868810	0.642225	0.333497
Br147	Br	1.202144	0.975558	0.666830
H148	H	0.909128	-0.419374	0.155120
H149	H	1.242462	-0.086041	0.488453
H150	H	1.575795	0.247292	0.821787
H151	H	0.925973	-0.436190	-0.154998
H152	H	1.259306	-0.102857	0.178335
H153	H	1.592639	0.230476	0.511668
H154	H	0.459137	-0.033445	0.000144
H155	H	0.792471	0.299888	0.333477
H156	H	1.125804	0.633221	0.666810
Br157	Br	0.400126	0.221012	0.202689
Br158	Br	0.733459	0.554345	0.536023
Br159	Br	1.066793	0.887678	0.869356
H160	H	1.058443	-0.333911	0.155284
H161	H	1.391776	-0.000578	0.488617
H162	H	1.725110	0.332756	0.821951
Br163	Br	1.100662	-0.339773	-0.202354
Br164	Br	1.433995	-0.006439	0.130979
Br165	Br	1.767329	0.326894	0.464312
H166	H	1.138913	-0.456474	0.000164
H167	H	1.472246	-0.123140	0.333497
H168	H	1.805580	0.210193	0.666830
H169	H	0.438586	0.179344	-0.154997
H170	H	0.771919	0.512677	0.178336
H171	H	1.105253	0.846011	0.511670
Br172	Br	0.885247	0.222258	0.547606
Br173	Br	1.218580	0.555591	0.880939
Br174	Br	1.551914	0.888925	1.214273
