data_functionalizedCrystal
_audit_creation_method	'MofGen! by Chris Wilmer'
_symmetry_space_group_name_H-M	'P1'
_symmetry_Int_Tables_number	1
_symmetry_cell_setting	triclinic
loop_
_symmetry_equiv_pos_as_xyz
  x,y,z
_cell_length_a	17.699083
_cell_length_b	27.732048
_cell_length_c	16.176319
_cell_angle_alpha	89.988239
_cell_angle_beta	89.998611
_cell_angle_gamma	82.962835
loop_
_atom_site_label
_atom_site_type_symbol
_atom_site_fract_x
_atom_site_fract_y
_atom_site_fract_z
O1	O	1.003540	0.061127	-0.068640
O2	O	1.503540	0.561127	0.431360
O3	O	0.783091	0.069080	-0.068668
O4	O	1.283091	0.569080	0.431332
O5	O	0.900162	-0.005269	-0.068637
O6	O	1.400162	0.494731	0.431363
O7	O	0.886469	0.135475	-0.068670
O8	O	1.386469	0.635475	0.431330
O9	O	0.900146	-0.005273	0.068856
O10	O	1.400146	0.494727	0.568856
O11	O	0.783075	0.069075	0.068825
O12	O	1.283075	0.569075	0.568825
O13	O	1.003524	0.061122	0.068853
O14	O	1.503524	0.561122	0.568853
Cu15	Cu	0.893298	0.065098	0.081394
Cu16	Cu	1.393298	0.565098	0.581394
Cu17	Cu	0.893317	0.065104	-0.081208
Cu18	Cu	1.393317	0.565104	0.418792
O19	O	0.886453	0.135471	0.068823
O20	O	1.386453	0.635471	0.568823
C21	C	0.754889	0.068792	0.000075
C22	C	1.254889	0.568792	0.500075
C23	C	0.670878	0.067938	0.000065
C24	C	1.170878	0.567938	0.500065
C25	C	0.621873	0.111579	0.000055
C26	C	1.121873	0.611579	0.500055
C27	C	0.542936	0.110772	0.000066
C28	C	1.042936	0.610772	0.500066
C29	C	0.513007	0.066325	0.000081
C30	C	1.013007	0.566325	0.500081
C31	C	0.562019	0.022680	0.000094
C32	C	1.062019	0.522680	0.500094
C33	C	0.640954	0.023487	0.000089
C34	C	1.140954	0.523487	0.500089
C35	C	0.243685	0.019426	0.000115
C36	C	0.743685	0.519426	0.500115
C37	C	0.164744	0.018623	0.000117
C38	C	0.664744	0.518623	0.500117
C39	C	0.145667	0.106712	0.000092
C40	C	0.645667	0.606712	0.500092
C41	C	0.224602	0.107518	0.000087
C42	C	0.724602	0.607518	0.500087
C43	C	0.273607	0.063874	0.000104
C44	C	0.773607	0.563874	0.500104
C45	C	0.359199	0.064749	0.000094
C46	C	0.859199	0.564749	0.500094
C47	C	0.427418	0.065450	0.000085
C48	C	0.927418	0.565450	0.500085
C49	C	0.899867	-0.023279	0.000112
C50	C	1.399867	0.476721	0.500112
C51	C	0.899001	-0.076937	0.000118
C52	C	1.399001	0.423063	0.500118
C53	C	0.962734	-0.415523	0.000084
C54	C	1.462734	0.084477	0.500084
C55	C	0.959522	-0.617194	0.000072
C56	C	1.459522	-0.117194	0.500072
O57	O	1.017801	-0.648240	0.000043
O58	O	1.517801	-0.148240	0.500043
N59	N	0.890104	-0.636567	0.000064
N60	N	1.390104	-0.136567	0.500064
C61	C	0.821484	-0.605520	0.000053
C62	C	1.321484	-0.105520	0.500053
O63	O	0.762366	-0.626625	0.000038
O64	O	1.262366	-0.126625	0.500038
C65	C	0.824696	-0.403849	0.000059
C66	C	1.324696	0.096151	0.500059
C67	C	0.894119	-0.384479	0.000076
C68	C	1.394119	0.115521	0.500076
C69	C	1.032151	-0.396152	0.000100
C70	C	1.532151	0.103848	0.500100
C71	C	1.032953	-0.345737	0.000107
C72	C	1.532953	0.154263	0.500107
C73	C	0.964338	-0.314693	0.000099
C74	C	1.464338	0.185307	0.500099
C75	C	0.894921	-0.334064	0.000083
C76	C	1.394921	0.165936	0.500083
C77	C	0.756076	-0.372802	0.000043
C78	C	1.256076	0.127198	0.500043
C79	C	0.756886	-0.322382	0.000042
C80	C	1.256886	0.177618	0.500042
C81	C	0.826308	-0.303012	0.000059
C82	C	1.326308	0.196988	0.500059
C83	C	0.827108	-0.252605	0.000083
C84	C	1.327108	0.247395	0.500083
N85	N	0.896526	-0.233232	0.000091
N86	N	1.396526	0.266768	0.500091
C87	C	0.965141	-0.264276	0.000099
C88	C	1.465141	0.235724	0.500099
C89	C	0.819802	-0.711400	0.000052
C90	C	1.319802	-0.211400	0.500052
C91	C	0.818999	-0.761817	0.000052
C92	C	1.318999	-0.261817	0.500052
C93	C	0.957038	-0.773488	0.000069
C94	C	1.457038	-0.273488	0.500069
C95	C	0.957840	-0.723070	0.000075
C96	C	1.457840	-0.223070	0.500075
C97	C	0.889220	-0.692026	0.000060
C98	C	1.389220	-0.192026	0.500060
C99	C	0.966820	-0.158401	0.000115
C100	C	1.466820	0.341599	0.500115
C101	C	0.967616	-0.107981	0.000126
C102	C	1.467616	0.392019	0.500126
C103	C	0.829578	-0.096314	0.000105
C104	C	1.329578	0.403686	0.500105
C105	C	0.828781	-0.146730	0.000098
C106	C	1.328781	0.353270	0.500098
C107	C	0.897409	-0.177772	0.000101
C108	C	1.397409	0.322228	0.500101
O109	O	0.768860	-0.221531	0.000102
O110	O	1.268860	0.278469	0.500102
O111	O	1.024251	-0.243161	0.000096
O112	O	1.524251	0.256839	0.500096
C113	C	0.961931	-0.465938	0.000077
C114	C	1.461931	0.034062	0.500077
C115	C	0.892514	-0.485309	0.000061
C116	C	1.392514	0.014691	0.500061
C117	C	0.823899	-0.454265	0.000053
C118	C	1.323899	0.045735	0.500053
C119	C	0.891711	-0.535726	0.000061
C120	C	1.391711	-0.035726	0.500061
C121	C	0.960326	-0.566770	0.000069
C122	C	1.460326	-0.066770	0.500069
C123	C	1.029744	-0.547397	0.000077
C124	C	1.529744	-0.047397	0.500077
C125	C	1.030546	-0.496982	0.000085
C126	C	1.530546	0.003018	0.500085
C127	C	0.754481	-0.473638	0.000045
C128	C	1.254481	0.026362	0.500045
C129	C	0.753685	-0.524053	0.000038
C130	C	1.253685	-0.024053	0.500038
C131	C	0.822300	-0.555097	0.000046
C132	C	1.322300	-0.055097	0.500046
C133	C	1.031726	0.061410	0.000108
C134	C	1.531726	0.561410	0.500108
C135	C	1.115737	0.062264	0.000113
C136	C	1.615737	0.562264	0.500113
C137	C	0.886748	0.153481	0.000072
C138	C	1.386748	0.653481	0.500072
C139	C	0.887614	0.207139	0.000060
C140	C	1.387614	0.707139	0.500060
N141	N	0.893290	0.065094	0.195759
N142	N	1.393290	0.565094	0.695759
N143	N	0.893331	0.065104	-0.195573
N144	N	1.393331	0.565104	0.304427
C145	C	0.945145	0.032186	0.239037
C146	C	1.445145	0.532186	0.739037
C147	C	0.945149	0.032185	0.325584
C148	C	1.445149	0.532185	0.825584
C149	C	0.893301	0.065096	0.368851
C150	C	1.393301	0.565096	0.868851
C151	C	0.841441	0.098005	0.325568
C152	C	1.341441	0.598005	0.825568
C153	C	0.841434	0.098003	0.239022
C154	C	1.341434	0.598003	0.739022
C155	C	0.841467	0.098014	0.674596
C156	C	1.341467	0.598014	1.174596
C157	C	0.841479	0.098015	0.761147
C158	C	1.341479	0.598015	1.261147
C159	C	0.945181	0.032197	0.761157
C160	C	1.445181	0.532197	1.261157
C161	C	0.945174	0.032194	0.674612
C162	C	1.445174	0.532194	1.174612
C163	C	0.893312	0.065102	0.631336
C164	C	1.393312	0.565102	1.131336
C165	C	0.893308	0.065102	0.537491
C166	C	1.393308	0.565102	1.037491
C167	C	0.893309	0.065099	0.462694
C168	C	1.393309	0.565099	0.962694
H169	H	0.680855	-0.012050	0.000096
H170	H	1.180855	0.487950	0.500096
N171	N	0.998084	-0.001444	0.369803
N172	N	1.498084	0.498556	0.869803
N173	N	0.998061	-0.001455	0.447075
N174	N	1.498061	0.498545	0.947075
H175	H	1.035435	-0.025215	0.478307
H176	H	1.535435	0.474785	0.978307
N177	N	1.028754	-0.703286	0.000068
N178	N	1.528754	-0.203286	0.500068
N179	N	1.044614	-0.676454	-0.057891
N180	N	1.544614	-0.176454	0.442109
H181	H	1.094699	-0.662484	-0.057899
H182	H	1.594699	-0.162484	0.442101
N183	N	0.492872	0.155348	0.000051
N184	N	0.992872	0.655348	0.500051
N185	N	0.446685	0.164728	-0.057897
N186	N	0.946685	0.664728	0.442103
H187	H	0.411324	0.196211	-0.057903
H188	H	0.911324	0.696211	0.442097
N189	N	0.759484	-0.064607	0.000097
N190	N	1.259484	0.435393	0.500097
N191	N	0.713165	-0.066334	0.058039
N192	N	1.213165	0.433666	0.558039
H193	H	0.663658	-0.043940	0.058027
H194	H	1.163658	0.456060	0.558027
H195	H	1.085613	-0.572682	0.000087
H196	H	1.585613	-0.072682	0.500087
N197	N	0.998151	-0.001419	0.630429
N198	N	1.498151	0.498581	1.130429
N199	N	1.044449	-0.030798	0.669081
N200	N	1.544449	0.469202	1.169081
H201	H	1.081867	-0.054538	0.637878
H202	H	1.581867	0.445462	1.137878
N203	N	0.095608	0.151295	0.000103
N204	N	0.595608	0.651295	0.500103
N205	N	0.098043	0.180873	0.058053
N206	N	0.598043	0.680873	0.558053
H207	H	0.062690	0.212360	0.058060
H208	H	0.562690	0.712360	0.558060
H209	H	0.799222	0.124800	0.360801
H210	H	1.299222	0.624800	0.860801
H211	H	0.987368	0.005389	0.203814
H212	H	1.487368	0.505389	0.703814
H213	H	1.012907	-0.798773	0.000076
H214	H	1.512907	-0.298773	0.500076
N215	N	0.998141	-0.001425	0.805376
N216	N	1.498141	0.498575	1.305376
N217	N	0.974485	-0.031411	0.853681
N218	N	1.474485	0.468589	1.353681
H219	H	1.011886	-0.055155	0.884909
H220	H	1.511886	0.444845	1.384909
N221	N	0.255160	0.152925	0.000064
N222	N	0.755160	0.652925	0.500064
N223	N	0.211396	0.191888	0.000055
N224	N	0.711396	0.691888	0.500055
H225	H	0.232975	0.223957	0.000040
H226	H	0.732975	0.723957	0.500040
H227	H	0.140380	-0.017574	0.000131
H228	H	0.640380	0.482426	0.500131
N229	N	0.788458	0.131619	0.194825
N230	N	1.288458	0.631619	0.694825
N231	N	0.742169	0.161001	0.233464
N232	N	1.242169	0.661001	0.733464
H233	H	0.704750	0.184743	0.202251
H234	H	1.204750	0.684743	0.702251
N235	N	0.293725	-0.025158	0.000129
N236	N	0.793725	0.474842	0.500129
N237	N	0.266989	-0.064839	0.000137
N238	N	0.766989	0.435161	0.500137
H239	H	0.302332	-0.096329	0.000145
H240	H	0.802332	0.403671	0.500145
H241	H	0.697148	-0.539820	0.000032
H242	H	1.197148	-0.039820	0.500032
H243	H	0.799241	0.124810	0.639367
H244	H	1.299241	0.624810	1.139367
N245	N	0.652428	0.156986	0.000032
N246	N	1.152428	0.656986	0.500032
N247	N	0.608660	0.195947	0.000025
N248	N	1.108660	0.695947	0.500025
H249	H	0.630237	0.228018	0.000011
H250	H	1.130237	0.728018	0.500011
H251	H	0.537645	-0.013510	0.000118
H252	H	1.037645	0.486490	0.500118
N253	N	1.101454	-0.477191	0.000105
N254	N	1.601454	0.022809	0.500105
N255	N	1.117301	-0.450370	0.058066
N256	N	1.617301	0.049630	0.558066
H257	H	1.167383	-0.436395	0.058080
H258	H	1.667383	0.063605	0.558080
N259	N	0.788511	0.131637	0.805333
N260	N	1.288511	0.631637	1.305333
N261	N	0.742209	0.161016	0.766685
N262	N	1.242209	0.661016	1.266685
H263	H	0.704802	0.184761	0.797891
H264	H	1.204802	0.684761	1.297891
H265	H	1.024151	-0.092213	0.000142
H266	H	1.524151	0.407787	0.500142
N267	N	0.684388	-0.441932	0.000025
N268	N	1.184388	0.058068	0.500025
N269	N	0.638091	-0.443649	-0.057937
N270	N	1.138091	0.056351	0.442063
H271	H	0.588583	-0.421257	-0.057948
H272	H	1.088583	0.078743	0.442052
N273	N	1.036927	-0.190098	0.000115
N274	N	1.536927	0.309902	0.500115
N275	N	1.098897	-0.172788	0.000130
N276	N	1.598897	0.327212	0.500130
H277	H	1.148410	-0.195173	0.000134
H278	H	1.648410	0.304827	0.500134
H279	H	1.089484	-0.329971	0.000117
H280	H	1.589484	0.170029	0.500117
H281	H	1.088028	-0.421424	0.000103
H282	H	1.588028	0.078576	0.500103
H283	H	0.701006	-0.297108	0.000029
H284	H	1.201006	0.202892	0.500029
N285	N	0.748086	-0.781601	0.000062
N286	N	1.248086	-0.281601	0.500062
N287	N	0.701959	-0.772066	0.058015
N288	N	1.201959	-0.272066	0.558015
H289	H	0.651874	-0.786036	0.058021
H290	H	1.151874	-0.286036	0.558021
H291	H	0.772252	-0.162502	0.000108
H292	H	1.272252	0.337498	0.500108
H293	H	0.763920	-0.686128	0.000040
H294	H	1.263920	-0.186128	0.500040
H295	H	0.699545	-0.388565	0.000024
H296	H	1.199545	0.111435	0.500024
