data_functionalizedCrystal
_audit_creation_method	'MofGen! by Chris Wilmer'
_symmetry_space_group_name_H-M	'P1'
_symmetry_Int_Tables_number	1
_symmetry_cell_setting	triclinic
loop_
_symmetry_equiv_pos_as_xyz
  x,y,z
_cell_length_a	16.120297
_cell_length_b	16.625548
_cell_length_c	16.625546
_cell_angle_alpha	90.023536
_cell_angle_beta	87.129618
_cell_angle_gamma	87.121773
loop_
_atom_site_label
_atom_site_type_symbol
_atom_site_fract_x
_atom_site_fract_y
_atom_site_fract_z
Zn1	Zn	-0.471374	-1.209557	0.344116
Zn2	Zn	-0.138040	-0.876224	0.677449
Zn3	Zn	0.195293	-0.542891	1.010783
Zn4	Zn	-0.331959	-1.216300	0.472116
Zn5	Zn	0.001375	-0.882966	0.805449
Zn6	Zn	0.334708	-0.549633	1.138782
Zn7	Zn	-0.331977	-1.081557	0.337304
Zn8	Zn	0.001356	-0.748224	0.670637
Zn9	Zn	0.334689	-0.414891	1.003971
Zn10	Zn	-0.471324	-1.074692	0.478910
Zn11	Zn	-0.137991	-0.741359	0.812244
Zn12	Zn	0.195343	-0.408025	1.145577
O13	O	-0.401658	-1.145526	0.408112
O14	O	-0.068325	-0.812193	0.741445
O15	O	0.265008	-0.478860	1.074778
O16	O	-0.452893	-1.323283	0.361103
O17	O	-0.119559	-0.989950	0.694436
O18	O	0.213774	-0.656617	1.027769
O19	O	-0.215298	-1.204120	0.448538
O20	O	0.118035	-0.870787	0.781871
O21	O	0.451368	-0.537454	1.115205
O22	O	-0.350497	-1.098588	0.225377
O23	O	-0.017164	-0.765255	0.558710
O24	O	0.316169	-0.431921	0.892043
O25	O	-0.350465	-1.328237	0.455143
O26	O	-0.017132	-0.994904	0.788477
O27	O	0.316202	-0.661570	1.121810
O28	O	-0.452911	-1.192629	0.230381
O29	O	-0.119578	-0.859296	0.563715
O30	O	0.213756	-0.525963	0.897048
O31	O	-0.215312	-1.105126	0.349493
O32	O	0.118021	-0.771792	0.682826
O33	O	0.451354	-0.438459	1.016159
O34	O	-0.350449	-0.967815	0.356081
O35	O	-0.017116	-0.634481	0.689415
O36	O	0.316217	-0.301148	1.022748
O37	O	-0.587993	-1.086887	0.466724
O38	O	-0.254660	-0.753554	0.800058
O39	O	0.078673	-0.420221	1.133391
O40	O	-0.452827	-0.962771	0.460119
O41	O	-0.119493	-0.629438	0.793452
O42	O	0.213840	-0.296104	1.126786
O43	O	-0.588030	-1.185972	0.367691
O44	O	-0.254696	-0.852639	0.701025
O45	O	0.078637	-0.519306	1.034358
O46	O	-0.350417	-1.197463	0.585848
O47	O	-0.017084	-0.864130	0.919181
O48	O	0.316249	-0.530797	1.252515
O49	O	-0.452808	-1.093425	0.590840
O50	O	-0.119475	-0.760092	0.924173
O51	O	0.213858	-0.426758	1.257507
C52	C	-0.401635	-0.936037	0.408099
C53	C	-0.068302	-0.602703	0.741432
C54	C	0.265032	-0.269370	1.074766
C55	C	-0.401645	-0.846415	0.408114
C56	C	-0.068312	-0.513082	0.741447
C57	C	0.265022	-0.179749	1.074780
C58	C	-0.401624	-1.145452	0.617601
C59	C	-0.068290	-0.812119	0.950934
C60	C	0.265043	-0.478785	1.284267
C61	C	-0.401636	-1.145492	0.707222
C62	C	-0.068303	-0.812159	1.040556
C63	C	0.265030	-0.478826	1.373889
C64	C	-0.619107	-1.134912	0.418726
C65	C	-0.285773	-0.801579	0.752059
C66	C	0.047560	-0.468245	1.085392
C67	C	-0.711770	-1.130389	0.423249
C68	C	-0.378437	-0.797055	0.756582
C69	C	-0.045103	-0.463722	1.089915
C70	C	-0.881427	-1.122101	0.431489
C71	C	-0.548094	-0.788768	0.764822
C72	C	-0.214761	-0.455434	1.098155
C73	C	-0.922741	-1.169111	0.384493
C74	C	-0.589408	-0.835778	0.717826
C75	C	-0.256075	-0.502444	1.051159
C76	C	-1.017145	-1.164500	0.389078
C77	C	-0.683811	-0.831166	0.722411
C78	C	-0.350478	-0.497833	1.055744
C79	C	-0.787016	-1.126711	0.426905
C80	C	-0.453682	-0.793378	0.760238
C81	C	-0.120349	-0.460045	1.093572
C82	C	-0.185056	-1.156146	0.397481
C83	C	0.148277	-0.822813	0.730814
C84	C	0.481610	-0.489479	1.064147
C85	C	-0.092393	-1.160826	0.392730
C86	C	0.240940	-0.827492	0.726064
C87	C	0.574273	-0.494159	1.059397
C88	C	-0.401682	-1.355834	0.408125
C89	C	-0.068349	-1.022501	0.741458
C90	C	0.264984	-0.689168	1.074792
C91	C	-0.401692	-1.445455	0.408131
C92	C	-0.068359	-1.112121	0.741464
C93	C	0.264974	-0.778788	1.074797
C94	C	-0.401681	-0.518238	0.408121
C95	C	-0.068347	-0.184904	0.741454
C96	C	0.264986	0.148429	1.074788
C97	C	-0.401668	-0.609547	0.408117
C98	C	-0.068335	-0.276214	0.741450
C99	C	0.264999	0.057120	1.074783
C100	C	-0.401662	-0.682324	0.408118
C101	C	-0.068329	-0.348990	0.741451
C102	C	0.265005	-0.015657	1.074784
C103	C	-0.401651	-0.773638	0.408113
C104	C	-0.068317	-0.440305	0.741446
C105	C	0.265016	-0.106972	1.074779
C106	C	-0.401712	-1.145622	0.197805
C107	C	-0.068378	-0.812289	0.531139
C108	C	0.264955	-0.478956	0.864472
C109	C	-0.401734	-1.145663	0.108185
C110	C	-0.068401	-0.812330	0.441519
C111	C	0.264932	-0.478997	0.774852
C112	C	-0.401723	-1.145629	1.035402
C113	C	-0.068390	-0.812295	1.368736
C114	C	0.264943	-0.478962	1.702069
C115	C	-0.401701	-1.145588	0.944093
C116	C	-0.068368	-0.812255	1.277426
C117	C	0.264965	-0.478921	1.610759
C118	C	-0.401679	-1.145560	0.871315
C119	C	-0.068346	-0.812227	1.204649
C120	C	0.264987	-0.478893	1.537982
C121	C	-0.401658	-1.145521	0.780000
C122	C	-0.068325	-0.812187	1.113333
C123	C	0.265008	-0.478854	1.446667
H124	H	-0.887213	-1.212820	0.340814
H125	H	-0.553879	-0.879487	0.674147
H126	H	-0.220546	-0.546153	1.007481
H127	H	-0.916954	-1.078395	0.475164
H128	H	-0.583620	-0.745062	0.808497
H129	H	-0.250287	-0.411729	1.141830
