data_functionalizedCrystal
_audit_creation_method	'MofGen! by Chris Wilmer'
_symmetry_space_group_name_H-M	'P1'
_symmetry_Int_Tables_number	1
_symmetry_cell_setting	triclinic
loop_
_symmetry_equiv_pos_as_xyz
  x,y,z
_cell_length_a	16.109302
_cell_length_b	17.019294
_cell_length_c	15.186229
_cell_angle_alpha	86.117288
_cell_angle_beta	89.994701
_cell_angle_gamma	83.427801
loop_
_atom_site_label
_atom_site_type_symbol
_atom_site_fract_x
_atom_site_fract_y
_atom_site_fract_z
O1	O	1.103039	0.101397	-0.080956
O2	O	1.603039	0.601397	0.419044
O3	O	0.860966	0.114015	-0.081905
O4	O	1.360966	0.614015	0.418095
O5	O	0.988755	-0.007128	-0.072719
O6	O	1.488755	0.492872	0.427281
O7	O	0.975249	0.222541	-0.090142
O8	O	1.475249	0.722541	0.409858
O9	O	0.988747	-0.007130	0.073739
O10	O	1.488747	0.492870	0.573739
O11	O	0.860957	0.114014	0.064552
O12	O	1.360957	0.614014	0.564552
O13	O	1.103030	0.101396	0.065502
O14	O	1.603030	0.601396	0.565502
Zn15	Zn	0.981992	0.107704	0.088280
Zn16	Zn	1.481992	0.607704	0.588280
Zn17	Zn	0.982004	0.107707	-0.104684
Zn18	Zn	1.482004	0.607707	0.395316
O19	O	0.975241	0.222539	0.056315
O20	O	1.475241	0.722539	0.556315
C21	C	0.829987	0.113503	-0.008637
C22	C	1.329987	0.613503	0.491363
C23	C	0.737693	0.111971	-0.008518
C24	C	1.237693	0.611971	0.491482
C25	C	0.525351	0.108426	0.071576
C26	C	1.025351	0.608426	0.571576
C27	C	0.438632	0.106977	0.071683
C28	C	0.938632	0.606977	0.571683
C29	C	0.438652	0.106983	-0.087993
C30	C	0.938652	0.606983	0.412007
C31	C	0.525370	0.108426	-0.088099
C32	C	1.025370	0.608426	0.411901
C33	C	0.568716	0.109151	-0.008312
C34	C	1.068716	0.609151	0.491688
C35	C	0.395280	0.106260	-0.008099
C36	C	0.895280	0.606260	0.491901
C37	C	0.301255	0.104689	-0.007984
C38	C	0.801255	0.604689	0.492016
C39	C	0.662747	0.110720	-0.008426
C40	C	1.162747	0.610720	0.491574
C41	C	0.988239	-0.036518	0.002738
C42	C	1.488239	0.463482	0.502738
C43	C	0.986703	-0.124088	0.009376
C44	C	1.486703	0.375912	0.509376
C45	C	0.985987	-0.165223	-0.067339
C46	C	1.485987	0.334777	0.432661
C47	C	0.984539	-0.247504	-0.061099
C48	C	1.484539	0.252496	0.438901
C49	C	0.983811	-0.288648	0.021856
C50	C	1.483811	0.211352	0.521856
C51	C	0.984524	-0.247507	0.098577
C52	C	1.484524	0.252493	0.598577
C53	C	0.985967	-0.165227	0.092336
C54	C	1.485967	0.334773	0.592336
C55	C	0.979449	-0.537080	0.044693
C56	C	1.479449	-0.037080	0.544693
C57	C	0.978009	-0.619366	0.050928
C58	C	1.478009	-0.119366	0.550928
C59	C	0.978022	-0.619357	-0.108749
C60	C	1.478022	-0.119357	0.391251
C61	C	0.979470	-0.537076	-0.114982
C62	C	1.479470	-0.037076	0.385018
C63	C	0.980178	-0.495941	-0.038262
C64	C	1.480178	0.004059	0.461738
C65	C	0.982333	-0.372753	0.028236
C66	C	1.482333	0.127247	0.528236
C67	C	0.981650	-0.411838	-0.044643
C68	C	1.481650	0.088162	0.455357
C69	C	1.134009	0.101908	-0.007768
C70	C	1.634009	0.601908	0.492232
C71	C	1.226303	0.103440	-0.007893
C72	C	1.726303	0.603440	0.492107
C73	C	0.975757	0.251929	-0.019143
C74	C	1.475757	0.751929	0.480857
C75	C	0.977293	0.339499	-0.025787
C76	C	1.477293	0.839499	0.474213
N77	N	0.981991	0.107702	0.219973
N78	N	1.481991	0.607702	0.719973
N79	N	0.982012	0.107702	-0.236376
N80	N	1.482012	0.607702	0.263624
C81	C	1.038595	0.054078	0.449762
C82	C	1.538595	0.554078	0.949762
C83	C	1.038598	0.054076	0.541952
C84	C	1.538598	0.554076	1.041952
C85	C	0.925401	0.161329	0.533828
C86	C	1.425401	0.661329	1.033828
C87	C	0.925395	0.161327	0.441640
C88	C	1.425395	0.661327	0.941640
C89	C	0.981997	0.107702	0.399610
C90	C	1.481997	0.607702	0.899610
C91	C	0.982006	0.107703	0.583987
C92	C	1.482006	0.607703	1.083987
C93	C	0.982008	0.107701	0.683944
C94	C	1.482008	0.607701	1.183944
C95	C	0.981994	0.107702	0.299647
C96	C	1.481994	0.607702	0.799647
H97	H	0.403348	0.106393	-0.152953
H98	H	0.903348	0.606393	0.347047
O99	O	0.864363	0.219175	0.579159
O100	O	1.364363	0.719175	1.079159
H101	H	0.873881	0.210176	0.651688
H102	H	1.373881	0.710176	1.151688
O103	O	0.977240	-0.663744	0.140409
O104	O	1.477240	-0.163744	0.640409
H105	H	0.976136	-0.727871	0.131856
H106	H	1.476136	-0.227871	0.631856
O107	O	0.977236	-0.663721	-0.191493
O108	O	1.477236	-0.163721	0.308507
H109	H	1.034153	-0.654979	-0.230447
H110	H	1.534153	-0.154979	0.269553
O111	O	0.864350	0.219169	0.387536
O112	O	1.364350	0.719169	0.887536
H113	H	0.825002	0.256466	0.432248
H114	H	1.325002	0.756466	0.932248
O115	O	0.572155	0.109205	-0.174265
O116	O	1.072155	0.609205	0.325735
H117	H	0.548052	0.162667	-0.216604
H118	H	1.048052	0.662667	0.283396
O119	O	0.572107	0.109209	0.157627
O120	O	1.072107	0.609209	0.657627
H121	H	0.527380	0.108458	0.213195
H122	H	1.027380	0.608458	0.713195
H123	H	0.983960	-0.280993	-0.123569
H124	H	1.483960	0.219007	0.376431
H125	H	1.084684	0.010410	0.582784
H126	H	1.584684	0.510410	1.082784
H127	H	0.981743	-0.406262	0.095779
H128	H	1.481743	0.093738	0.595779
H129	H	0.403327	0.106387	0.136736
H130	H	0.903327	0.606387	0.636736
H131	H	0.986584	-0.131729	-0.134890
H132	H	1.486584	0.368271	0.365110
H133	H	1.084683	0.010413	0.415544
H134	H	1.584683	0.510413	0.915544
H135	H	0.980063	-0.503581	-0.182533
H136	H	1.480063	-0.003581	0.317467
O137	O	0.980234	-0.492720	0.127437
O138	O	1.480234	0.007280	0.627437
H139	H	0.979501	-0.535158	0.186167
H140	H	1.479501	-0.035158	0.686167
O141	O	0.983755	-0.291881	0.188054
O142	O	1.483755	0.208119	0.688054
H143	H	0.982646	-0.356008	0.179507
H144	H	1.482646	0.143992	0.679507
H145	H	0.986537	-0.131735	0.154806
H146	H	1.486537	0.368265	0.654806
H147	H	0.982237	-0.378333	-0.112185
H148	H	1.482237	0.121667	0.387815
