data_functionalizedCrystal
_audit_creation_method	'MofGen! by Chris Wilmer'
_symmetry_space_group_name_H-M	'P1'
_symmetry_Int_Tables_number	1
_symmetry_cell_setting	triclinic
loop_
_symmetry_equiv_pos_as_xyz
  x,y,z
_cell_length_a	10.654545
_cell_length_b	14.971494
_cell_length_c	9.130313
_cell_angle_alpha	89.997198
_cell_angle_beta	89.996934
_cell_angle_gamma	84.050318
loop_
_atom_site_label
_atom_site_type_symbol
_atom_site_fract_x
_atom_site_fract_y
_atom_site_fract_z
O1	O	1.666501	0.125611	-0.121779
O2	O	1.300893	0.137585	-0.121784
O3	O	1.493491	0.001452	-0.121778
O4	O	1.473903	0.261744	-0.121785
O5	O	1.493478	0.001448	0.121821
O6	O	1.300880	0.137581	0.121815
O7	O	1.666487	0.125607	0.121820
Cu8	Cu	1.483683	0.131594	0.144060
Cu9	Cu	1.483698	0.131598	-0.144024
O10	O	1.473890	0.261740	0.121814
C11	C	1.254098	0.136705	0.000014
C12	C	1.114683	0.134077	0.000012
C13	C	1.049184	0.132838	0.132799
C14	C	0.918191	0.130354	0.132799
C15	C	0.918206	0.130352	-0.132786
C16	C	1.049198	0.132829	-0.132785
C17	C	1.492606	-0.031880	0.000019
C18	C	1.489976	-0.131191	0.000012
C19	C	1.488750	-0.177840	-0.132775
C20	C	1.486270	-0.271152	-0.132777
C21	C	1.485025	-0.317815	0.000010
C22	C	1.486247	-0.271159	0.132808
C23	C	1.488718	-0.177847	0.132808
C24	C	1.481100	-0.465650	0.132798
C25	C	1.478631	-0.558968	0.132798
C26	C	1.478652	-0.558955	-0.132787
C27	C	1.481123	-0.465643	-0.132787
C28	C	1.482347	-0.418994	0.000011
C29	C	1.713283	0.126488	0.000018
C30	C	1.852698	0.129115	0.000011
C31	C	1.474774	0.295072	0.000014
C32	C	1.477405	0.394383	0.000011
N33	N	1.483681	0.131590	0.346683
N34	N	1.483710	0.131595	-0.346647
C35	C	1.568991	0.071336	0.423337
C36	C	1.569004	0.071336	0.576674
C37	C	1.398390	0.191852	0.576688
C38	C	1.398373	0.191847	0.423354
H39	H	1.102529	0.133836	-0.240922
N40	N	0.847547	0.129013	0.276019
H41	H	0.909024	0.129548	0.360135
H42	H	0.783695	0.183659	0.282247
H43	H	0.864872	0.129337	-0.240904
N44	N	1.489984	-0.127508	-0.276000
H45	H	1.491704	-0.061314	-0.255856
H46	H	1.567313	-0.150555	-0.334070
H47	H	1.328936	0.240914	0.639129
N48	N	1.490043	-0.127522	0.276022
H49	H	1.411821	-0.136995	0.334075
H50	H	1.567450	-0.150551	0.333964
H51	H	1.638453	0.022269	0.360915
N52	N	1.119823	0.134170	0.276019
H53	H	1.164068	0.190548	0.281940
H54	H	1.058379	0.132970	0.360056
N55	N	1.306361	0.256846	0.340669
H56	H	1.319294	0.247695	0.231899
H57	H	1.217264	0.245924	0.367490
N58	N	1.485128	-0.321484	-0.275997
H59	H	1.486361	-0.277770	-0.360116
H60	H	1.561955	-0.366922	-0.281625
N61	N	1.482479	-0.415312	-0.276003
H62	H	1.481326	-0.459022	-0.360130
H63	H	1.405713	-0.369827	-0.281786
N64	N	1.477301	-0.609293	0.276022
H65	H	1.554077	-0.654766	0.281937
H66	H	1.478405	-0.565515	0.360054
H67	H	1.482069	-0.427668	0.240936
N68	N	1.477336	-0.609263	-0.276023
H69	H	1.475576	-0.675456	-0.255880
H70	H	1.399985	-0.586180	-0.334019
N71	N	1.484919	-0.321484	0.276031
H72	H	1.406112	-0.353440	0.281957
H73	H	1.561744	-0.366914	0.281849
H74	H	1.638470	0.022271	0.639082
