data_functionalizedCrystal
_audit_creation_method	'MofGen! by Chris Wilmer'
_symmetry_space_group_name_H-M	'P1'
_symmetry_Int_Tables_number	1
_symmetry_cell_setting	triclinic
loop_
_symmetry_equiv_pos_as_xyz
  x,y,z
_cell_length_a	17.038275
_cell_length_b	18.266242
_cell_length_c	17.019294
_cell_angle_alpha	93.885319
_cell_angle_beta	92.755467
_cell_angle_gamma	89.997581
loop_
_atom_site_label
_atom_site_type_symbol
_atom_site_fract_x
_atom_site_fract_y
_atom_site_fract_z
O1	O	-1.037226	0.071572	0.171291
O2	O	-0.703893	0.404905	0.504624
O3	O	-0.370559	0.738239	0.837957
O4	O	-0.809598	0.071425	0.168570
O5	O	-0.476264	0.404759	0.501904
O6	O	-0.142931	0.738092	0.835237
O7	O	-0.929761	0.064282	0.055524
O8	O	-0.596428	0.397615	0.388857
O9	O	-0.263095	0.730949	0.722190
O10	O	-0.917062	0.078715	0.284337
O11	O	-0.583729	0.412049	0.617671
O12	O	-0.250396	0.745382	0.951004
O13	O	-0.929741	-0.057480	0.055516
O14	O	-0.596408	0.275853	0.388849
O15	O	-0.263074	0.609186	0.722183
O16	O	-0.809577	-0.050337	0.168563
O17	O	-0.476244	0.282996	0.501896
O18	O	-0.142911	0.616329	0.835229
O19	O	-1.037206	-0.050190	0.171283
O20	O	-0.703872	0.283143	0.504616
O21	O	-0.370539	0.616476	0.837950
Zn22	Zn	-0.923388	-0.069596	0.169922
Zn23	Zn	-0.590055	0.263737	0.503255
Zn24	Zn	-0.256722	0.597070	0.836588
Zn25	Zn	-0.923415	0.090831	0.169932
Zn26	Zn	-0.590082	0.424164	0.503265
Zn27	Zn	-0.256748	0.757498	0.836598
O28	O	-0.917042	-0.043047	0.284330
O29	O	-0.583709	0.290286	0.617663
O30	O	-0.250375	0.623620	0.950996
C31	C	-0.780461	0.010391	0.166093
C32	C	-0.447128	0.343725	0.499426
C33	C	-0.113795	0.677058	0.832759
C34	C	-0.693675	0.009935	0.158712
C35	C	-0.360341	0.343269	0.492046
C36	C	-0.027008	0.676602	0.825379
N37	N	-0.923376	-0.179084	0.169915
N38	N	-0.590042	0.154250	0.503248
N39	N	-0.256709	0.487583	0.836581
C40	C	-0.643503	0.014210	0.226473
C41	C	-0.310170	0.347543	0.559806
C42	C	0.023164	0.680876	0.893139
C43	C	-0.561958	0.013763	0.219533
C44	C	-0.228625	0.347096	0.552866
C45	C	0.104708	0.680430	0.886200
C46	C	-0.530587	0.009047	0.144833
C47	C	-0.197254	0.342380	0.478166
C48	C	0.136080	0.675714	0.811499
C49	C	-0.580765	0.004770	0.077067
C50	C	-0.247432	0.338104	0.410400
C51	C	0.085901	0.671437	0.743734
C52	C	-0.662308	0.005212	0.084007
C53	C	-0.328975	0.338545	0.417341
C54	C	0.004358	0.671878	0.750674
C55	C	-0.284850	0.007484	0.120314
C56	C	0.048483	0.340818	0.453647
C57	C	0.381817	0.674151	0.786981
C58	C	-0.203301	0.007045	0.113379
C59	C	0.130033	0.340379	0.446712
C60	C	0.463366	0.673712	0.780046
C61	C	-0.184499	0.016037	0.255846
C62	C	0.148834	0.349370	0.589179
C63	C	0.482167	0.682703	0.922512
C64	C	-0.266045	0.016482	0.262779
C65	C	0.067289	0.349815	0.596113
C66	C	0.400622	0.683149	0.929446
C67	C	-0.316216	0.012201	0.195014
C68	C	0.017118	0.345535	0.528347
C69	C	0.350451	0.678868	0.861680
C70	C	-0.447236	0.008593	0.137737
C71	C	-0.113902	0.341926	0.471071
C72	C	0.219431	0.675259	0.804404
C73	C	-0.399566	0.012651	0.202110
C74	C	-0.066232	0.345984	0.535443
C75	C	0.267101	0.679317	0.868776
C76	C	-0.976602	-0.220554	0.119885
C77	C	-0.643268	0.112780	0.453218
C78	C	-0.309935	0.446113	0.786552
C79	C	-0.976606	-0.297199	0.119882
C80	C	-0.643273	0.036134	0.453215
C81	C	-0.309940	0.369468	0.786548
C82	C	-0.923393	-0.332370	0.169922
C83	C	-0.590060	0.000963	0.503255
C84	C	-0.256726	0.334297	0.836589
C85	C	-0.870157	-0.290890	0.219955
C86	C	-0.536824	0.042443	0.553288
C87	C	-0.203491	0.375776	0.886622
C88	C	-0.870148	-0.214247	0.219951
C89	C	-0.536815	0.119086	0.553285
C90	C	-0.203482	0.452419	0.886618
N91	N	-0.913365	-0.448341	0.239050
N92	N	-0.580031	-0.115008	0.572383
N93	N	-0.246698	0.218325	0.905716
N94	N	-0.913378	-0.521149	0.239051
N95	N	-0.580044	-0.187816	0.572384
N96	N	-0.246711	0.145517	0.905718
C97	C	-0.923415	-0.563292	0.169935
C98	C	-0.590082	-0.229958	0.503268
C99	C	-0.256748	0.103375	0.836602
N100	N	-0.933454	-0.529876	0.100817
N101	N	-0.600121	-0.196542	0.434150
N102	N	-0.266788	0.136791	0.767483
N103	N	-0.933445	-0.457061	0.100816
N104	N	-0.600112	-0.123727	0.434150
N105	N	-0.266779	0.209606	0.767483
C106	C	-0.923396	-0.415476	0.169931
C107	C	-0.590063	-0.082143	0.503265
C108	C	-0.256730	0.251190	0.836598
C109	C	-0.976649	-0.687869	0.119898
C110	C	-0.643316	-0.354536	0.453231
C111	C	-0.309982	-0.021203	0.786564
C112	C	-0.976649	-0.764516	0.119893
C113	C	-0.643315	-0.431183	0.453226
C114	C	-0.309982	-0.097849	0.786560
C115	C	-0.870203	-0.758206	0.219973
C116	C	-0.536870	-0.424872	0.553307
C117	C	-0.203536	-0.091539	0.886640
C118	C	-0.870200	-0.681561	0.219971
C119	C	-0.536867	-0.348228	0.553304
C120	C	-0.203533	-0.014894	0.886638
C121	C	-0.923427	-0.646397	0.169934
C122	C	-0.590094	-0.313064	0.503268
C123	C	-0.256760	0.020269	0.836601
C124	C	-0.066342	0.010849	0.173760
C125	C	0.266991	0.344182	0.507093
C126	C	0.600325	0.677515	0.840427
C127	C	-0.153129	0.011320	0.181139
C128	C	0.180205	0.344653	0.514473
C129	C	0.513538	0.677986	0.847806
C130	C	-0.929269	0.001547	0.026098
C131	C	-0.595936	0.334880	0.359432
C132	C	-0.262603	0.668213	0.692765
C133	C	-0.927824	-0.003978	-0.061569
C134	C	-0.594491	0.329355	0.271764
C135	C	-0.261157	0.662689	0.605097
N136	N	-0.923434	0.200318	0.169933
N137	N	-0.590101	0.533651	0.503266
N138	N	-0.256767	0.866985	0.836599
C139	C	-0.927158	0.059799	-0.102747
C140	C	-0.593825	0.393132	0.230586
C141	C	-0.260491	0.726465	0.563920
C142	C	-0.925795	0.054605	-0.185120
C143	C	-0.592462	0.387939	0.148214
C144	C	-0.259129	0.721272	0.481547
C145	C	-0.925104	-0.014365	-0.226313
C146	C	-0.591771	0.318968	0.107020
C147	C	-0.258437	0.652301	0.440353
C148	C	-0.925768	-0.078147	-0.185130
C149	C	-0.592434	0.255187	0.148203
C150	C	-0.259101	0.588520	0.481537
C151	C	-0.927125	-0.072953	-0.102758
C152	C	-0.593792	0.260381	0.230575
C153	C	-0.260458	0.593714	0.563908
C154	C	-0.921000	-0.033368	-0.475022
C155	C	-0.587667	0.299965	-0.141689
C156	C	-0.254334	0.633298	0.191644
C157	C	-0.919645	-0.038557	-0.557400
C158	C	-0.586312	0.294776	-0.224066
C159	C	-0.252979	0.628109	0.109267
C160	C	-0.919671	0.094195	-0.557384
C161	C	-0.586338	0.427529	-0.224050
C162	C	-0.253005	0.760862	0.109283
C163	C	-0.921033	0.099383	-0.475011
C164	C	-0.587700	0.432717	-0.141678
C165	C	-0.254367	0.766050	0.191656
C166	C	-0.921693	0.035602	-0.433834
C167	C	-0.588359	0.368935	-0.100501
C168	C	-0.255026	0.702268	0.232832
C169	C	-0.923713	-0.019675	-0.310512
C170	C	-0.590380	0.313658	0.022822
C171	C	-0.257047	0.646991	0.356155
C172	C	-0.923078	0.040913	-0.349637
C173	C	-0.589744	0.374246	-0.016304
C174	C	-0.256411	0.707579	0.317030
C175	C	-0.917534	0.019690	0.313755
C176	C	-0.584201	0.353023	0.647088
C177	C	-0.250867	0.686356	0.980422
C178	C	-0.918979	0.025219	0.401423
C179	C	-0.585646	0.358553	0.734756
C180	C	-0.252313	0.691886	1.068089
H181	H	-0.669039	0.018050	0.287302
H182	H	-0.335705	0.351384	0.620635
H183	H	-0.002372	0.684717	0.953968
H184	H	-0.921553	-0.085304	-0.441507
H185	H	-0.588220	0.248029	-0.108174
H186	H	-0.254886	0.581363	0.225159
H187	H	-0.325690	0.003998	0.065134
H188	H	0.007643	0.337331	0.398468
H189	H	0.340977	0.670665	0.731801
Cl190	Cl	-0.121423	0.021415	0.341030
Cl191	Cl	0.211910	0.354748	0.674364
Cl192	Cl	0.545243	0.688081	1.007697
H193	H	-0.177762	0.003206	0.052546
H194	H	0.155571	0.336539	0.385879
H195	H	0.488905	0.669872	0.719212
Cl196	Cl	-0.803231	-0.162110	0.282852
Cl197	Cl	-0.469898	0.171224	0.616185
Cl198	Cl	-0.136565	0.504557	0.949518
Cl199	Cl	-0.803257	-0.335104	0.282860
Cl200	Cl	-0.469923	-0.001771	0.616193
Cl201	Cl	-0.136590	0.331563	0.949527
Cl202	Cl	-0.725382	-0.000165	-0.001181
Cl203	Cl	-0.392049	0.333168	0.332152
Cl204	Cl	-0.058715	0.666501	0.665486
Cl205	Cl	-0.541327	-0.001163	-0.016843
Cl206	Cl	-0.207994	0.332170	0.316490
Cl207	Cl	0.125340	0.665504	0.649824
Cl208	Cl	-0.924959	0.134786	-0.236882
Cl209	Cl	-0.591626	0.468120	0.096451
Cl210	Cl	-0.258293	0.801453	0.429784
Cl211	Cl	-0.918781	-0.125270	-0.609186
Cl212	Cl	-0.585448	0.208063	-0.275852
Cl213	Cl	-0.252114	0.541397	0.057481
Cl214	Cl	-0.924889	-0.164853	-0.236916
Cl215	Cl	-0.591556	0.168480	0.096417
Cl216	Cl	-0.258223	0.501813	0.429751
Cl217	Cl	-0.407790	0.002668	0.043831
Cl218	Cl	-0.074457	0.336001	0.377164
Cl219	Cl	0.258876	0.669334	0.710497
H220	H	-0.291581	0.020331	0.323608
H221	H	0.041753	0.353664	0.656941
H222	H	0.375086	0.686997	0.990275
Cl223	Cl	-0.918840	0.174372	-0.609153
Cl224	Cl	-0.585507	0.507706	-0.275820
Cl225	Cl	-0.252174	0.841039	0.057514
H226	H	-0.923153	-0.075832	-0.344061
H227	H	-0.589820	0.257502	-0.010728
H228	H	-0.256486	0.590835	0.322606
Cl229	Cl	-0.927961	-0.153133	-0.050992
Cl230	Cl	-0.594628	0.180200	0.282342
Cl231	Cl	-0.261294	0.513534	0.615675
Cl232	Cl	-0.803288	-0.629422	0.282873
Cl233	Cl	-0.469955	-0.296089	0.616206
Cl234	Cl	-0.136622	0.037245	0.949539
H235	H	-0.521111	0.017244	0.274711
H236	H	-0.187778	0.350578	0.608044
H237	H	0.145555	0.683911	0.941378
Cl238	Cl	-1.043559	-0.643663	0.056990
Cl239	Cl	-0.710225	-0.310330	0.390324
Cl240	Cl	-0.376892	0.023004	0.723657
Cl241	Cl	-0.439005	0.018577	0.296015
Cl242	Cl	-0.105672	0.351910	0.629349
Cl243	Cl	0.227661	0.685243	0.962682
Cl244	Cl	-1.043510	-0.176349	0.056979
Cl245	Cl	-0.710177	0.156985	0.390312
Cl246	Cl	-0.376843	0.490318	0.723646
H247	H	-1.019951	-0.330970	0.079140
H248	H	-0.686617	0.002363	0.412473
H249	H	-0.353284	0.335697	0.745807
Cl250	Cl	-0.803300	-0.802416	0.282875
Cl251	Cl	-0.469967	-0.469082	0.616208
Cl252	Cl	-0.136634	-0.135749	0.949542
Cl253	Cl	-1.043562	-0.816654	0.056988
Cl254	Cl	-0.710229	-0.483320	0.390322
Cl255	Cl	-0.376895	-0.149987	0.723655
Cl256	Cl	-0.928032	0.146509	-0.050969
Cl257	Cl	-0.594699	0.479843	0.282365
Cl258	Cl	-0.261366	0.813176	0.615698
H259	H	-0.921597	0.155547	-0.441476
H260	H	-0.588264	0.488880	-0.108143
H261	H	-0.254931	0.822213	0.225190
H262	H	-0.923635	0.097068	-0.316093
H263	H	-0.590302	0.430402	0.017240
H264	H	-0.256969	0.763735	0.350573
