data_functionalizedCrystal
_audit_creation_method	'MofGen! by Chris Wilmer'
_symmetry_space_group_name_H-M	'P1'
_symmetry_Int_Tables_number	1
_symmetry_cell_setting	triclinic
loop_
_symmetry_equiv_pos_as_xyz
  x,y,z
_cell_length_a	19.077105
_cell_length_b	12.827892
_cell_length_c	19.076919
_cell_angle_alpha	87.724465
_cell_angle_beta	89.923776
_cell_angle_gamma	87.711903
loop_
_atom_site_label
_atom_site_type_symbol
_atom_site_fract_x
_atom_site_fract_y
_atom_site_fract_z
Zn1	Zn	1.058323	-0.505562	0.440440
Zn2	Zn	1.062981	-0.673587	0.322941
Zn3	Zn	0.945540	-0.491563	0.318233
Zn4	Zn	0.940802	-0.672957	0.435693
O5	O	1.001912	-0.585917	0.379327
O6	O	1.157274	-0.533973	0.428810
O7	O	1.051334	-0.643846	0.223985
O8	O	0.960534	-0.347187	0.334460
O9	O	1.160695	-0.657421	0.342484
O10	O	1.043396	-0.357472	0.424245
O11	O	0.965050	-0.510114	0.220526
O12	O	0.846579	-0.509503	0.329857
O13	O	0.952460	-0.656347	0.534655
O14	O	0.843098	-0.642772	0.416155
O15	O	1.038802	-0.533362	0.538142
O16	O	1.046740	-0.819737	0.337881
O17	O	0.956976	-0.819274	0.420720
C18	C	0.819342	-0.574551	0.371981
C19	C	0.741237	-0.569714	0.368855
C20	C	0.702753	-0.636925	0.412246
C21	C	0.629365	-0.632367	0.409312
C22	C	0.594463	-0.560602	0.362983
C23	C	0.632953	-0.493385	0.319590
C24	C	0.706339	-0.497938	0.322528
C25	C	0.375174	-0.539528	0.349389
C26	C	0.301782	-0.534981	0.346453
C27	C	0.298199	-0.673963	0.436177
C28	C	0.371587	-0.678514	0.439108
C29	C	0.410071	-0.611293	0.395717
N30	N	0.519449	-0.555944	0.359982
N31	N	0.485083	-0.615947	0.398723
C32	C	1.001868	-0.857424	0.379313
C33	C	1.001913	-0.973581	0.379333
C34	C	1.046380	-1.025566	0.338391
C35	C	1.046427	-1.145620	0.338411
C36	C	1.185194	-0.597329	0.386702
C37	C	1.263298	-0.602192	0.389845
C38	C	0.994583	-0.596346	0.562607
C39	C	0.991460	-0.600790	0.640711
C40	C	1.001974	-0.313353	0.379357
C41	C	1.002000	-0.197202	0.379370
C42	C	1.009252	-0.575456	0.196761
C43	C	1.012511	-0.570727	0.118663
C44	C	1.034945	-0.538849	0.679221
C45	C	1.032002	-0.543020	0.752607
C46	C	0.985578	-0.609138	0.787481
C47	C	0.942089	-0.671081	0.748966
C48	C	0.945028	-0.666904	0.675581
C49	C	0.971962	-0.628492	1.006763
C50	C	0.969027	-0.632667	1.080153
C51	C	1.058939	-0.504604	1.083789
C52	C	1.061878	-0.500438	1.010402
C53	C	1.018386	-0.562376	0.971894
N54	N	0.982570	-0.613406	0.862494
N55	N	1.021391	-0.558103	0.896882
H56	H	0.266859	-0.728689	0.471504
H57	H	1.072750	-0.485012	0.650831
H58	H	0.963881	-1.017954	0.414402
H59	H	1.084495	-1.190325	0.303357
H60	H	0.963926	-1.152504	0.414421
H61	H	0.731165	-0.695367	0.449970
H62	H	0.909612	-0.717331	0.644227
H63	H	1.084418	-0.981195	0.303327
C64	C	1.079299	-0.475732	0.794294
C65	C	1.120601	-0.416962	0.748046
C66	C	1.164188	-0.354972	0.786422
H67	H	1.051364	-0.430064	0.821848
H68	H	1.108796	-0.519224	0.824138
H69	H	1.091108	-0.373474	0.718214
H70	H	1.148550	-0.462604	0.720490
H71	H	1.193685	-0.398464	0.816266
H72	H	1.136248	-0.309310	0.813975
H73	H	1.192221	-0.315097	0.755049
C74	C	1.112301	-0.428542	0.972668
C75	C	1.149741	-0.375168	1.022101
C76	C	1.196193	-0.308922	0.987366
H77	H	1.144117	-0.468682	0.945270
H78	H	1.086593	-0.379653	0.942978
H79	H	1.175448	-0.424050	1.051779
H80	H	1.117944	-0.335008	1.049501
H81	H	1.170485	-0.260033	0.957676
H82	H	1.228005	-0.349070	0.959969
H83	H	1.221597	-0.272693	1.020900
C84	C	0.918662	-0.704616	1.117935
C85	C	0.934633	-0.807947	1.100678
C86	C	0.888251	-0.874248	1.135465
H87	H	0.923102	-0.698368	1.167164
H88	H	0.871922	-0.685753	1.103998
H89	H	0.981361	-0.826804	1.114620
H90	H	0.930189	-0.814227	1.051456
H91	H	0.841511	-0.855386	1.121527
H92	H	0.892694	-0.867992	1.184692
H93	H	0.899076	-0.944364	1.123756
H94	H	0.273368	-0.476530	0.308731
H95	H	1.094347	-0.454176	1.115150
C96	C	0.748002	-0.424920	0.275330
C97	C	0.701732	-0.361118	0.234112
C98	C	0.740085	-0.293848	0.190619
H99	H	0.775572	-0.382661	0.303328
H100	H	0.777830	-0.464833	0.245776
H101	H	0.671917	-0.321209	0.263663
H102	H	0.674161	-0.403349	0.206100
H103	H	0.769913	-0.333761	0.161064
H104	H	0.767654	-0.251596	0.218623
H105	H	0.708697	-0.250557	0.162643
H106	H	0.598034	-0.687098	0.444645
C107	C	0.924859	-0.695810	0.964883
C108	C	0.966307	-0.762859	0.924331
C109	C	0.922936	-0.824881	0.885736
H110	H	0.896783	-0.735874	0.996091
H111	H	0.895405	-0.652329	0.934989
H112	H	0.995748	-0.806334	0.954222
H113	H	0.994381	-0.722823	0.893110
H114	H	0.893482	-0.781401	0.855842
H115	H	0.894862	-0.864939	0.916950
H116	H	0.951051	-0.870375	0.858212
H117	H	0.904287	-0.724912	0.777367
H118	H	0.399999	-0.736955	0.476832
H119	H	0.604530	-0.434948	0.281871
C120	C	0.416826	-0.466493	0.302200
C121	C	0.370551	-0.402693	0.260987
C122	C	0.408898	-0.335405	0.217500
H123	H	0.444391	-0.424234	0.330203
H124	H	0.446658	-0.506393	0.272642
H125	H	0.340731	-0.362796	0.290541
H126	H	0.342985	-0.444924	0.232969
H127	H	0.438730	-0.375305	0.187942
H128	H	0.436462	-0.293153	0.245509
H129	H	0.377507	-0.292115	0.189527
