data_functionalizedCrystal
_audit_creation_method	'MofGen! by Chris Wilmer'
_symmetry_space_group_name_H-M	'P1'
_symmetry_Int_Tables_number	1
_symmetry_cell_setting	triclinic
loop_
_symmetry_equiv_pos_as_xyz
  x,y,z
_cell_length_a	10.654550
_cell_length_b	9.198806
_cell_length_c	10.654550
_cell_angle_alpha	90.003030
_cell_angle_beta	84.484931
_cell_angle_gamma	90.000708
loop_
_atom_site_label
_atom_site_type_symbol
_atom_site_fract_x
_atom_site_fract_y
_atom_site_fract_z
O1	O	1.667840	0.120784	0.176396
O2	O	1.302362	0.120810	0.193202
O3	O	1.493504	0.120787	0.002060
O4	O	1.476698	0.120807	0.367539
O5	O	1.493489	-0.120998	0.002060
O6	O	1.302347	-0.120975	0.193202
O7	O	1.667825	-0.121002	0.176396
Cu8	Cu	1.485085	-0.143065	0.184799
Cu9	Cu	1.485103	0.142874	0.184799
O10	O	1.476683	-0.120978	0.367538
C11	C	1.255556	-0.000079	0.191968
C12	C	1.116113	-0.000069	0.188276
N13	N	1.485081	-0.344179	0.184798
C14	C	1.036628	-0.000067	0.300818
C15	C	0.905607	-0.000093	0.297341
C16	C	0.933570	-0.000116	0.068772
C17	C	1.064588	-0.000101	0.072250
C18	C	1.565336	-0.416386	0.104188
C19	C	1.565356	-0.583798	0.104184
C20	C	1.714631	-0.000109	0.177630
C21	C	1.854074	-0.000110	0.181322
C22	C	1.492263	-0.000105	-0.044738
C23	C	1.488571	-0.000102	-0.184181
N24	N	1.485116	0.343988	0.184791
C25	C	1.601112	-0.000110	-0.263667
C26	C	1.597636	-0.000092	-0.394688
C27	C	1.369066	-0.000065	-0.366725
C28	C	1.372544	-0.000072	-0.235706
C29	C	1.477925	-0.000084	0.414336
C30	C	1.481616	-0.000077	0.553779
H31	H	1.078574	-0.000052	0.395294
H32	H	1.634070	-0.645893	0.035176
C33	C	1.392256	-0.428079	0.278011
H34	H	1.341891	-0.361067	0.328575
H35	H	1.438081	-0.487461	0.330525
H36	H	1.339502	-0.487450	0.232429
C37	C	1.658142	-0.332486	0.010956
H38	H	1.708490	-0.399497	-0.039624
H39	H	1.710895	-0.273094	0.056509
H40	H	1.612287	-0.273124	-0.041559
C41	C	0.818178	-0.000080	0.421137
H42	H	0.867634	-0.000048	0.490731
H43	H	0.766492	-0.084401	0.424542
H44	H	0.766482	0.084241	0.424524
C45	C	1.152028	-0.000096	-0.051552
H46	H	1.102579	-0.000096	-0.121151
H47	H	1.203727	-0.084405	-0.054944
H48	H	1.203711	0.084237	-0.054942
H49	H	0.891602	-0.000150	-0.025693
H50	H	1.689279	-0.000095	-0.459401
C51	C	1.728735	-0.000126	-0.206993
H52	H	1.795262	-0.000115	-0.273101
H53	H	1.734841	-0.084444	-0.156470
H54	H	1.734847	0.084198	-0.156459
C55	C	1.241445	-0.000036	-0.423401
H56	H	1.174917	-0.000017	-0.357294
H57	H	1.235323	-0.084346	-0.473939
H58	H	1.235350	0.084296	-0.473920
C59	C	1.248746	-0.000056	-0.148261
H60	H	1.267437	-0.000047	-0.062853
H61	H	1.201203	-0.084362	-0.163986
H62	H	1.201235	0.084281	-0.163984
H63	H	1.416407	-0.593927	0.253812
