data_functionalizedCrystal
_audit_creation_method	'MofGen! by Chris Wilmer'
_symmetry_space_group_name_H-M	'P1'
_symmetry_Int_Tables_number	1
_symmetry_cell_setting	triclinic
loop_
_symmetry_equiv_pos_as_xyz
  x,y,z
_cell_length_a	11.169417
_cell_length_b	10.686285
_cell_length_c	11.169409
_cell_angle_alpha	85.599661
_cell_angle_beta	89.979436
_cell_angle_gamma	85.632710
loop_
_atom_site_label
_atom_site_type_symbol
_atom_site_fract_x
_atom_site_fract_y
_atom_site_fract_z
Zn1	Zn	1.871641	-0.502221	-0.641959
Zn2	Zn	1.886938	-0.713273	-0.425902
Zn3	Zn	1.670930	-0.502297	-0.441288
Zn4	Zn	1.686337	-0.713170	-0.626554
O5	O	1.778962	-0.607740	-0.533926
O6	O	2.041621	-0.530228	-0.613306
O7	O	1.858238	-0.685361	-0.259988
O8	O	1.684705	-0.325710	-0.480793
O9	O	2.052859	-0.685287	-0.454570
O10	O	1.832167	-0.325654	-0.628225
O11	O	1.699538	-0.530359	-0.271291
O12	O	1.505023	-0.530259	-0.465856
O13	O	1.710964	-0.685112	-0.796553
O14	O	1.516343	-0.685187	-0.601970
O15	O	1.847106	-0.530128	-0.807871
O16	O	1.873178	-0.889836	-0.439633
O17	O	1.725797	-0.889761	-0.587051
C18	C	1.467136	-0.607721	-0.533912
C19	C	1.333737	-0.607743	-0.533932
C20	C	1.802852	-0.935583	-0.510027
C21	C	1.813182	-1.075835	-0.499843
C22	C	2.092005	-0.607760	-0.533940
C23	C	2.225406	-0.607769	-0.533947
C24	C	1.779048	-0.607600	-0.846978
C25	C	1.779084	-0.607541	-0.980383
C26	C	1.755011	-0.278617	-0.557944
C27	C	1.744804	-0.138365	-0.568179
C28	C	1.778938	-0.607788	-0.222097
C29	C	1.779108	-0.607492	-0.088720
H30	H	1.678362	-1.084602	-0.634477
N31	N	1.901202	-1.147037	-0.412011
H32	H	1.880946	-1.124246	-0.327881
H33	H	1.896316	-1.240475	-0.417032
