data_functionalizedCrystal
_audit_creation_method	'MofGen! by Chris Wilmer'
_symmetry_space_group_name_H-M	'P1'
_symmetry_Int_Tables_number	1
_symmetry_cell_setting	triclinic
loop_
_symmetry_equiv_pos_as_xyz
  x,y,z
_cell_length_a	23.096457
_cell_length_b	12.970454
_cell_length_c	23.096457
_cell_angle_alpha	60.006769
_cell_angle_beta	90.011518
_cell_angle_gamma	59.999719
loop_
_atom_site_label
_atom_site_type_symbol
_atom_site_fract_x
_atom_site_fract_y
_atom_site_fract_z
Zr1	Zr	0.557747	1.128540	-0.076006
O2	O	0.465276	1.343631	-0.168453
O3	O	0.586094	0.913449	-0.047665
O4	O	0.586065	1.128544	-0.168457
O5	O	0.465328	1.128533	0.047621
O6	O	0.681346	1.128546	-0.168460
O7	O	0.465305	1.128536	-0.047661
O8	O	0.681397	0.743782	0.047614
O9	O	0.465276	1.513298	-0.168453
O10	O	0.669290	1.001921	-0.035581
O11	O	0.598200	1.001917	0.035529
O12	O	0.598167	1.255163	-0.106687
O13	O	0.527077	1.255159	-0.035577
Zr14	Zr	0.709744	1.128540	0.075953
Zr15	Zr	0.709708	1.128544	-0.076011
Zr16	Zr	0.557783	1.128535	0.075958
Zr17	Zr	0.557747	1.399140	-0.076006
Zr18	Zr	0.709744	0.857940	0.075953
O19	O	0.681397	1.343631	0.047612
O20	O	0.681346	1.343637	-0.168461
O21	O	0.465328	1.343624	0.047620
O22	O	0.802214	0.913449	0.168400
O23	O	0.802163	0.913456	-0.047673
O24	O	0.586145	0.913443	0.168408
O25	O	0.802163	1.128546	-0.047674
O26	O	0.681426	1.128536	0.168404
O27	O	0.586145	1.128533	0.168407
O28	O	0.802186	1.128544	0.047608
O29	O	0.586065	1.513302	-0.168458
O30	O	0.681426	0.743778	0.168405
O31	O	0.802214	0.743782	0.168400
O32	O	0.802186	0.743785	0.047609
O33	O	0.465305	1.513295	-0.047662
O34	O	0.586094	1.513298	-0.047667
O35	O	0.669324	1.001917	0.106634
O36	O	0.740414	1.001921	0.035524
O37	O	0.669290	1.255163	-0.035582
O38	O	0.598200	1.255159	0.035528
C39	C	0.633745	0.790061	-0.000025
C40	C	0.633745	0.675184	-0.000025
C41	C	0.443665	1.128534	-0.000019
C42	C	0.379154	1.128532	-0.000017
C43	C	0.385974	0.996347	0.037093
C44	C	0.325358	0.996345	0.037096
C45	C	0.257923	1.128536	-0.000025
C46	C	0.251105	1.260739	-0.037136
C47	C	0.311721	1.260737	-0.037132
N48	N	0.135113	1.226934	-0.060436
N49	N	0.077533	1.226926	-0.060439
C50	C	0.075290	1.128549	-0.000037
N51	N	0.132808	1.030157	0.060365
N52	N	0.190394	1.030160	0.060366
C53	C	0.192192	1.128552	-0.000033
C54	C	0.016387	0.996352	0.037079
C55	C	-0.044231	0.996355	0.037084
C56	C	-0.118484	1.260753	-0.037155
C57	C	-0.057866	1.260746	-0.037153
C58	C	0.009567	1.128541	-0.000038
C59	C	0.823826	1.128546	-0.000033
C60	C	0.888337	1.128548	-0.000036
C61	C	0.633700	1.128546	-0.190110
C62	C	0.633685	1.128548	-0.254623
C63	C	0.633745	1.467019	-0.000027
C64	C	0.633745	1.581896	-0.000028
C65	C	0.596563	1.260733	-0.322043
C66	C	0.596581	1.260735	-0.382659
C67	C	0.633711	1.128544	-0.375851
C68	C	0.670842	0.996341	-0.308419
C69	C	0.670829	0.996343	-0.247805
N70	N	0.628589	1.030146	-0.443406
N71	N	0.628598	1.030154	-0.500990
C72	C	0.633755	1.128531	-0.558477
N73	N	0.638889	1.226923	-0.556211
N74	N	0.638877	1.226920	-0.498623
C75	C	0.633730	1.128528	-0.441573
C76	C	0.596651	1.260728	-0.691627
C77	C	0.596674	1.260725	-0.752243
C78	C	0.670930	0.996327	-0.678000
C79	C	0.670912	0.996334	-0.617386
C80	C	0.633768	1.128539	-0.624204
C81	C	0.633791	1.128534	0.190057
C82	C	0.633806	1.128532	0.254570
C83	C	0.823826	0.790066	-0.000032
C84	C	0.888337	0.675192	-0.000034
C85	C	0.633790	0.790055	0.190058
C86	C	0.633806	0.675176	0.254571
C87	C	0.823871	0.790061	0.190051
C88	C	0.888398	0.675184	0.254562
C89	C	0.443620	1.467019	-0.190104
C90	C	0.379093	1.581896	-0.254615
C91	C	0.443665	1.467013	-0.000020
C92	C	0.379154	1.581888	-0.000018
C93	C	0.633700	1.467025	-0.190111
C94	C	0.633685	1.581904	-0.254624
C95	C	0.881507	0.621245	-0.037158
C96	C	0.942116	0.513323	-0.037174
C97	C	1.009556	0.459342	-0.000062
C98	C	1.016385	0.513299	0.037063
C99	C	0.955776	0.621227	0.037074
C100	C	0.670939	0.621228	0.321990
C101	C	0.670950	0.513303	0.382612
C102	C	0.633833	0.459320	0.375815
C103	C	0.596695	0.513279	0.308389
C104	C	0.596680	0.621210	0.247768
C105	C	0.955815	0.621239	0.247738
C106	C	1.016450	0.513315	0.308346
C107	C	1.009667	0.459331	0.375778
C108	C	0.942243	0.513287	0.382601
C109	C	0.881609	0.621216	0.321993
C110	C	0.311676	1.635854	-0.247790
C111	C	0.251040	1.743812	-0.308399
C112	C	0.257823	1.797801	-0.375831
C113	C	0.325247	1.743839	-0.382654
C114	C	0.385882	1.635891	-0.322046
C115	C	0.385984	1.635846	0.037099
C116	C	0.325374	1.743798	0.037098
C117	C	0.257935	1.797783	-0.000016
C118	C	0.251106	1.743821	-0.037138
C119	C	0.311715	1.635878	-0.037141
C120	C	0.670810	1.635852	-0.247804
C121	C	0.670809	1.743779	-0.308415
C122	C	0.633679	1.797762	-0.375845
C123	C	0.596553	1.743803	-0.382664
C124	C	0.596558	1.635871	-0.322054
H125	H	0.440877	0.888695	0.067310
H126	H	1.071344	0.469395	0.302778
H127	H	0.701075	0.888710	-0.302879
H128	H	0.208445	1.885699	-0.425177
H129	H	0.961347	0.665136	0.067309
F130	F	1.088165	0.455830	0.076559
H131	H	0.330912	0.888700	0.067316
H132	H	0.701165	0.665169	0.327538
F133	F	0.710410	0.855642	-0.545629
H134	H	0.306140	1.591901	-0.192889
F135	F	0.304434	1.578456	-0.076644
H136	H	0.440891	1.591900	0.067326
F137	F	0.710332	1.578418	-0.176045
H138	H	-0.173390	1.368386	-0.067380
F139	F	0.179326	1.801287	-0.076633
H140	H	0.701195	0.469382	0.437507
H141	H	0.701040	1.787701	-0.302849
F142	F	0.809738	0.678680	-0.076663
H143	H	1.059045	0.371448	0.425124
F144	F	0.557165	1.401423	-0.824001
F145	F	-0.065126	1.401438	-0.076654
F146	F	0.633679	1.912637	-0.440346
F147	F	1.074056	0.344473	-0.000080
F148	F	0.557195	0.455810	0.301165
F149	F	0.557034	1.801280	-0.454434
F150	F	0.557037	1.578476	-0.329323
H151	H	0.196196	1.368370	-0.067360
H152	H	0.936542	0.469404	-0.067405
H153	H	0.701164	0.888694	-0.672456
F154	F	0.332455	1.801311	-0.454426
F155	F	0.304459	1.401434	-0.076632
H156	H	-0.038672	0.888709	0.067309
F157	F	0.088156	0.855650	0.076583
F158	F	0.633856	0.344448	0.440340
H159	H	0.566320	1.368385	-0.327601
H160	H	0.440774	1.591959	-0.327611
F161	F	0.557159	0.678608	0.176018
H162	H	0.566350	1.368380	-0.437563
F163	F	0.179290	1.801219	-0.301123
F164	F	0.963050	0.678680	0.175977
H165	H	0.330949	1.787716	0.067330
F166	F	0.935035	0.455817	0.454373
H167	H	0.701059	0.888698	-0.192906
F168	F	0.193435	1.912665	-0.000006
F169	F	0.809860	0.678610	0.329267
H170	H	0.566407	1.368377	-0.697179
