data_functionalizedCrystal
_audit_creation_method	'MofGen! by Chris Wilmer'
_symmetry_space_group_name_H-M	'P1'
_symmetry_Int_Tables_number	1
_symmetry_cell_setting	triclinic
loop_
_symmetry_equiv_pos_as_xyz
  x,y,z
_cell_length_a	10.654550
_cell_length_b	9.798715
_cell_length_c	10.654550
_cell_angle_alpha	90.002996
_cell_angle_beta	84.484931
_cell_angle_gamma	90.000450
loop_
_atom_site_label
_atom_site_type_symbol
_atom_site_fract_x
_atom_site_fract_y
_atom_site_fract_z
O1	O	1.667840	0.113389	0.176396
O2	O	1.302362	0.113414	0.193202
O3	O	1.493504	0.113392	0.002060
O4	O	1.476698	0.113410	0.367539
O5	O	1.493489	-0.113590	0.002060
O6	O	1.302347	-0.113568	0.193202
O7	O	1.667826	-0.113593	0.176396
Zn8	Zn	1.485084	-0.149619	0.184799
Zn9	Zn	1.485103	0.149440	0.184799
O10	O	1.476683	-0.113572	0.367538
C11	C	1.255556	-0.000074	0.191968
C12	C	1.116113	-0.000065	0.188276
N13	N	1.485080	-0.353719	0.184798
C14	C	1.036628	-0.000063	0.300818
C15	C	0.905607	-0.000087	0.297341
C16	C	0.933570	-0.000109	0.068772
C17	C	1.064588	-0.000095	0.072250
C18	C	1.565336	-0.421505	0.104188
C19	C	1.565356	-0.578668	0.104184
C20	C	1.714631	-0.000102	0.177630
C21	C	1.854074	-0.000103	0.181322
C22	C	1.492263	-0.000098	-0.044738
C23	C	1.488571	-0.000096	-0.184181
N24	N	1.485117	0.353539	0.184791
C25	C	1.601112	-0.000103	-0.263667
C26	C	1.597636	-0.000086	-0.394688
C27	C	1.369066	-0.000061	-0.366725
C28	C	1.372544	-0.000068	-0.235706
C29	C	1.477925	-0.000078	0.414336
C30	C	1.481616	-0.000072	0.553779
H31	H	0.840894	-0.000088	0.388984
N32	N	1.092205	-0.000030	0.425954
H33	H	1.021965	-0.000034	0.496720
H34	H	1.145965	-0.084166	0.432380
N35	N	0.877996	-0.000148	-0.056366
H36	H	0.782935	-0.000156	-0.041495
H37	H	0.906995	0.083992	-0.105673
N38	N	1.656380	-0.655872	0.012769
H39	H	1.745719	-0.631059	0.027795
H40	H	1.643383	-0.757174	0.025775
N41	N	1.726249	-0.000131	-0.208090
H42	H	1.797015	-0.000131	-0.278330
H43	H	1.732678	0.084009	-0.154330
N44	N	1.251155	-0.000050	-0.149963
H45	H	1.177125	-0.000041	-0.202483
H46	H	1.247612	-0.084195	-0.094998
N47	N	1.394094	-0.569254	0.276206
H48	H	1.304752	-0.594064	0.261185
H49	H	1.409668	-0.594070	0.365395
H50	H	1.274601	-0.000040	-0.408693
N51	N	1.719019	-0.000093	-0.480420
H52	H	1.793044	-0.000113	-0.427894
H53	H	1.722544	-0.084234	-0.535399
H54	H	1.416381	-0.412036	0.253802
N55	N	1.656304	-0.344274	0.012740
H56	H	1.643382	-0.242949	0.025692
H57	H	1.745624	-0.369145	0.027773
N58	N	1.150331	-0.000112	-0.049140
H59	H	1.097812	-0.000126	-0.123170
H60	H	1.205300	0.084034	-0.052681
