data_functionalizedCrystal
_audit_creation_method	'MofGen! by Chris Wilmer'
_symmetry_space_group_name_H-M	'P1'
_symmetry_Int_Tables_number	1
_symmetry_cell_setting	triclinic
loop_
_symmetry_equiv_pos_as_xyz
  x,y,z
_cell_length_a	12.827893
_cell_length_b	18.101397
_cell_length_c	12.827885
_cell_angle_alpha	90.036582
_cell_angle_beta	90.019272
_cell_angle_gamma	90.020436
loop_
_atom_site_label
_atom_site_type_symbol
_atom_site_fract_x
_atom_site_fract_y
_atom_site_fract_z
Zn1	Zn	1.597633	-0.294794	0.590799
Zn2	Zn	1.597511	-0.418654	0.416039
Zn3	Zn	1.422874	-0.294830	0.416073
Zn4	Zn	1.422844	-0.418598	0.590739
O5	O	1.510216	-0.356719	0.503412
O6	O	1.743853	-0.311232	0.567628
O7	O	1.574307	-0.402266	0.269807
O8	O	1.446120	-0.191193	0.439290
O9	O	1.743763	-0.402231	0.439232
O10	O	1.574514	-0.191166	0.567661
O11	O	1.446002	-0.311294	0.269832
O12	O	1.276634	-0.311240	0.439232
O13	O	1.446068	-0.402137	0.736983
O14	O	1.276612	-0.402172	0.567558
O15	O	1.574485	-0.311179	0.737027
O16	O	1.574278	-0.522279	0.439174
O17	O	1.445951	-0.522239	0.567525
C18	C	1.238706	-0.356705	0.503393
C19	C	1.122553	-0.356717	0.503409
C20	C	1.070784	-0.401783	0.566811
C21	C	0.950734	-0.401796	0.566829
C22	C	1.510126	-0.549130	0.503362
C23	C	1.510183	-0.631444	0.503375
C24	C	1.510317	-0.930535	0.503470
C25	C	1.590832	-0.899204	0.422499
C26	C	1.591111	-0.813586	0.422709
C27	C	1.510251	-0.782152	0.503422
C28	C	1.540108	-0.813151	0.613572
C29	C	1.540731	-0.898796	0.613131
C30	C	1.399730	-0.899046	0.475245
C31	C	1.400276	-0.813396	0.472786
C32	C	1.510212	-0.698293	0.503402
C33	C	1.510359	-1.014394	0.503498
C34	C	1.782786	-0.356734	0.503433
C35	C	1.898939	-0.356740	0.503442
C36	C	1.510287	-0.356648	0.775983
C37	C	1.510317	-0.356618	0.892136
C38	C	1.510334	-0.163557	0.503486
C39	C	1.510384	-0.081243	0.503518
C40	C	1.510205	-0.356737	0.231903
C41	C	1.510377	-0.356558	0.115750
C42	C	1.573868	-0.311600	0.943943
C43	C	1.573901	-0.311567	1.063993
H44	H	1.572377	-0.919853	0.340579
H45	H	1.455969	-0.395104	1.071204
H46	H	1.455926	-0.395130	0.936659
H47	H	1.372568	-0.920712	0.396317
O48	O	0.897745	-0.447789	0.631737
C49	C	0.924374	-0.431690	0.735952
H50	H	1.003659	-0.403267	0.738250
H51	H	0.862997	-0.393610	0.771197
C52	C	0.831895	-0.538850	0.796254
C53	C	0.929278	-0.503945	0.799077
H54	H	0.834916	-0.583419	0.835194
H55	H	0.813951	-0.549695	0.726043
H56	H	0.780757	-0.507109	0.825623
H57	H	0.980411	-0.535682	0.769696
H58	H	0.947231	-0.493107	0.869284
H59	H	0.943451	-0.318158	0.449155
H60	H	1.377763	-0.793144	0.391725
H61	H	1.620037	-0.791642	0.637886
H62	H	1.628314	-0.273028	1.108546
O63	O	1.328285	-0.923301	0.545667
C64	C	1.377928	-0.968479	0.620140
H65	H	1.452870	-0.991861	0.585636
H66	H	1.397249	-0.934307	0.692292
C67	C	1.212779	-1.003684	0.693010
C68	C	1.304819	-1.032408	0.650629
H69	H	1.167681	-1.043117	0.711821
H70	H	1.179332	-0.973245	0.642839
H71	H	1.228893	-0.975209	0.753132
H72	H	1.288705	-1.060875	0.590501
H73	H	1.338261	-1.062854	0.700790
O74	O	1.473949	-0.923615	0.687621
C75	C	1.529174	-0.966663	0.760666
H76	H	1.603335	-0.988879	0.723079
H77	H	1.550482	-0.931104	0.830900
C78	C	1.369451	-1.004423	0.842520
C79	C	1.460532	-1.031714	0.796352
H80	H	1.327109	-1.044548	0.864538
H81	H	1.332244	-0.975419	0.793311
H82	H	1.387221	-0.974791	0.901043
H83	H	1.442762	-1.061338	0.737824
H84	H	1.497735	-1.060725	0.845553
O85	O	1.124046	-0.447700	0.631606
C86	C	1.187206	-0.405545	0.699161
H87	H	1.203445	-0.349378	0.662432
H88	H	1.145245	-0.397506	0.776669
C89	C	1.270996	-0.515211	0.762976
C90	C	1.290950	-0.446229	0.717862
H91	H	1.334989	-0.540308	0.774517
H92	H	1.228442	-0.543613	0.717467
H93	H	1.236027	-0.508503	0.827561
H94	H	1.325907	-0.452938	0.653272
H95	H	1.333513	-0.417829	0.763361
O96	O	1.324919	-0.787963	0.538127
C97	C	1.347794	-0.809997	0.641023
H98	H	1.400589	-0.860629	0.639296
H99	H	1.389005	-0.763022	0.683598
C100	C	1.180948	-0.766942	0.700365
C101	C	1.245785	-0.829132	0.698243
H102	H	1.118026	-0.778742	0.735663
H103	H	1.165538	-0.752094	0.631043
H104	H	1.215303	-0.727801	0.735842
H105	H	1.211435	-0.868268	0.662756
H106	H	1.261187	-0.843987	0.767561
O107	O	1.069528	-0.310733	0.438514
C108	C	1.096054	-0.326828	0.334294
H109	H	1.175316	-0.355239	0.331979
H110	H	1.034618	-0.364918	0.299062
C111	C	1.003595	-0.219683	0.274011
C112	C	1.100951	-0.254572	0.271168
H113	H	1.006612	-0.175114	0.235070
H114	H	0.985721	-0.208841	0.344226
H115	H	0.952409	-0.251432	0.244654
H116	H	1.152133	-0.222827	0.300537
H117	H	1.118835	-0.265408	0.200956
O118	O	1.568691	-0.788672	0.325258
C119	C	1.469540	-0.814593	0.294963
H120	H	1.449357	-0.866266	0.341540
H121	H	1.408744	-0.770021	0.310584
C122	C	1.495414	-0.769852	0.120641
C123	C	1.470628	-0.833321	0.177843
H124	H	1.496082	-0.781401	0.048396
H125	H	1.562212	-0.752385	0.141052
H126	H	1.444747	-0.732714	0.133670
H127	H	1.521302	-0.870454	0.164823
H128	H	1.403838	-0.850794	0.157427
O129	O	1.638609	-0.265612	0.890720
C130	C	1.579070	-0.217822	0.827616
H131	H	1.499838	-0.243948	0.811360
H132	H	1.567678	-0.162900	0.869634
C133	C	1.733767	-0.172427	0.743851
C134	C	1.636455	-0.204519	0.723878
H135	H	1.769165	-0.164218	0.679862
H136	H	1.773881	-0.204622	0.786368
H137	H	1.724259	-0.126663	0.778868
H138	H	1.645964	-0.250286	0.688874
H139	H	1.596344	-0.172330	0.681353
H140	H	1.672301	-0.920671	0.440959
H141	H	1.673027	-0.793041	0.441384
H142	H	1.621565	-0.918714	0.637041
H143	H	1.483258	-0.792787	0.675525
