data_functionalizedCrystal
_audit_creation_method	'MofGen! by Chris Wilmer'
_symmetry_space_group_name_H-M	'P1'
_symmetry_Int_Tables_number	1
_symmetry_cell_setting	triclinic
loop_
_symmetry_equiv_pos_as_xyz
  x,y,z
_cell_length_a	17.077404
_cell_length_b	15.297327
_cell_length_c	15.298431
_cell_angle_alpha	91.656067
_cell_angle_beta	80.342999
_cell_angle_gamma	99.707136
loop_
_atom_site_label
_atom_site_type_symbol
_atom_site_fract_x
_atom_site_fract_y
_atom_site_fract_z
Zn1	Zn	1.076822	-0.262968	0.555579
Zn2	Zn	1.576822	0.237032	1.055579
Zn3	Zn	1.069075	-0.434816	0.434441
Zn4	Zn	1.569075	0.065184	0.934441
Zn5	Zn	0.963772	-0.288357	0.409126
Zn6	Zn	1.463772	0.211643	0.909126
Zn7	Zn	0.919658	-0.409412	0.580859
Zn8	Zn	1.419658	0.090588	1.080859
O9	O	1.007332	-0.348889	0.495001
O10	O	1.507332	0.151111	0.995001
O11	O	1.185638	-0.285771	0.539524
O12	O	1.685638	0.214229	1.039524
O13	O	1.070327	-0.436645	0.308516
O14	O	1.570327	0.063355	0.808516
O15	O	1.000473	-0.162408	0.407378
O16	O	1.500473	0.337592	0.907378
O17	O	1.179947	-0.412027	0.450525
O18	O	1.679947	0.087973	0.950525
O19	O	1.083530	-0.143755	0.514977
O20	O	1.583530	0.356245	1.014977
O21	O	0.992961	-0.329042	0.289916
O22	O	1.492961	0.170958	0.789916
O23	O	0.848077	-0.304409	0.431892
O24	O	1.348077	0.195591	0.931892
O25	O	0.925286	-0.368729	0.700073
O26	O	1.425286	0.131271	1.200073
O27	O	0.815666	-0.393347	0.558063
O28	O	1.315666	0.106653	1.058063
O29	O	1.040754	-0.261138	0.681500
O30	O	1.540754	0.238862	1.181500
O31	O	1.027551	-0.554028	0.475038
O32	O	1.527551	-0.054028	0.975038
O33	O	0.917774	-0.535363	0.582611
O34	O	1.417774	-0.035363	1.082611
C35	C	0.803390	-0.348877	0.494974
C36	C	1.303390	0.151123	0.994974
C37	C	0.716136	-0.348889	0.494987
C38	C	1.216136	0.151111	0.994987
C39	C	0.658286	-0.395300	0.560610
C40	C	1.158286	0.104700	1.060610
C41	C	0.576304	-0.395299	0.560624
C42	C	1.076304	0.104701	1.060624
C43	C	0.552173	-0.348893	0.495011
C44	C	1.052173	0.151107	0.995011
C45	C	0.610029	-0.302477	0.429386
C46	C	1.110029	0.197523	0.929386
C47	C	0.692011	-0.302472	0.429376
C48	C	1.192011	0.197528	0.929376
C49	C	0.439154	-0.302490	0.429410
C50	C	0.939154	0.197510	0.929410
C51	C	0.357167	-0.302495	0.429418
C52	C	0.857167	0.197505	0.929418
C53	C	0.323447	-0.395317	0.560658
C54	C	0.823447	0.104683	1.060658
C55	C	0.405428	-0.395313	0.560648
C56	C	0.905428	0.104687	1.060648
C57	C	0.463279	-0.348898	0.495021
C58	C	0.963279	0.151102	0.995021
C59	C	0.967054	-0.576476	0.534334
C60	C	1.467054	-0.076476	1.034334
C61	C	0.949890	-0.673834	0.551190
C62	C	1.449890	-0.173834	1.051190
C63	C	1.130285	-0.986988	0.374827
C64	C	1.630285	-0.486988	0.874827
C65	C	1.146411	-0.895516	0.358986
C66	C	1.646411	-0.395516	0.858986
C67	C	1.097283	-0.840091	0.407035
C68	C	1.597283	-0.340091	0.907035
C69	C	1.032025	-0.876147	0.470929
C70	C	1.532025	-0.376147	0.970929
C71	C	1.015894	-0.967628	0.486768
C72	C	1.515894	-0.467628	0.986768
C73	C	0.982891	-0.820732	0.518976
C74	C	1.482891	-0.320732	1.018976
C75	C	0.917634	-0.856787	0.582870
C76	C	1.417634	-0.356787	1.082870
C77	C	0.901506	-0.948260	0.598706
C78	C	1.401506	-0.448260	1.098706
C79	C	0.950634	-1.003685	0.550656
C80	C	1.450634	-0.503685	1.050656
C81	C	0.999022	-0.729250	0.503138
C82	C	1.499022	-0.229250	1.003138
C83	C	0.884631	-0.709891	0.615078
C84	C	1.384631	-0.209891	1.115078
C85	C	0.868505	-0.801362	0.630920
C86	C	1.368505	-0.301362	1.130920
C87	C	1.212070	-0.348901	0.495029
C88	C	1.712070	0.151099	0.995029
C89	C	1.299317	-0.348906	0.495041
C90	C	1.799317	0.151094	0.995041
C91	C	0.978963	-0.309268	0.723455
C92	C	1.478963	0.190732	1.223455
C93	C	0.966874	-0.292384	0.820809
C94	C	1.466874	0.207616	1.320809
C95	C	1.047786	-0.120409	0.455534
C96	C	1.547786	0.379591	0.955534
C97	C	1.065026	-0.023045	0.438715
C98	C	1.565026	0.476955	0.938715
C99	C	1.035647	-0.388292	0.267425
C100	C	1.535647	0.111708	0.767425
C101	C	1.047932	-0.404929	0.170029
C102	C	1.547932	0.095071	0.670029
C103	C	0.920913	-0.228425	0.856855
C104	C	1.420913	0.271575	1.356855
C105	C	0.909544	-0.212563	0.948323
C106	C	1.409544	0.287437	1.448323
C107	C	0.944140	-0.260653	1.003754
C108	C	1.444140	0.239347	1.503754
C109	C	0.990107	-0.324608	0.967708
C110	C	1.490107	0.175392	1.467708
C111	C	1.001471	-0.340477	0.876231
C112	C	1.501471	0.159523	1.376231
C113	C	1.024699	-0.372705	1.023130
C114	C	1.524699	0.127295	1.523130
C115	C	1.070665	-0.436660	0.987084
C116	C	1.570665	0.063340	1.487084
C117	C	1.082028	-0.452525	0.895616
C118	C	1.582028	0.047475	1.395616
C119	C	1.047432	-0.404436	0.840185
C120	C	1.547432	0.095564	1.340185
C121	C	1.013334	-0.356836	1.114607
C122	C	1.513334	0.143164	1.614607
C123	C	1.093892	-0.468887	1.133983
C124	C	1.593892	0.031113	1.633983
C125	C	1.105261	-0.484750	1.042515
C126	C	1.605261	0.015250	1.542515
H127	H	0.276340	-0.433107	0.614096
H128	H	0.776340	0.066893	1.114096
H129	H	0.529205	-0.433092	0.614060
H130	H	1.029205	0.066908	1.114060
Cl131	Cl	0.688613	-0.453648	0.643095
Cl132	Cl	1.188613	0.046352	1.143095
Cl133	Cl	0.786470	-0.846701	0.711241
Cl134	Cl	1.286470	-0.346701	1.211241
H135	H	0.425072	-0.433107	0.614071
H136	H	0.925072	0.066893	1.114071
H137	H	1.056689	-0.417344	0.765702
H138	H	1.556689	0.082656	1.265702
H139	H	0.486256	-0.264685	0.375975
H140	H	0.986256	0.235315	0.875975
Cl141	Cl	0.822861	-0.640221	0.675482
Cl142	Cl	1.322861	-0.140221	1.175482
H143	H	0.937510	-1.078169	0.563553
H144	H	1.437510	-0.578169	1.063553
Cl145	Cl	1.163046	-0.565147	0.997188
Cl146	Cl	1.663046	-0.065147	1.497188
H147	H	1.110415	-0.765611	0.394132
H148	H	1.610415	-0.265611	0.894132
Cl149	Cl	0.326831	-0.244160	0.346930
Cl150	Cl	0.826831	0.255840	0.846930
H151	H	1.052155	-0.699902	0.451115
H152	H	1.552155	-0.199902	0.951115
Cl153	Cl	0.955552	-0.276435	1.159911
Cl154	Cl	1.455552	0.223565	1.659911
H155	H	0.934882	-0.247733	1.078231
H156	H	1.434882	0.252267	1.578231
Cl157	Cl	0.819465	-0.993586	0.679026
Cl158	Cl	1.319465	-0.493586	1.179026
Cl159	Cl	1.228452	-0.850194	0.278674
Cl160	Cl	1.728452	-0.350194	0.778674
H161	H	1.122065	-0.508044	1.179115
H162	H	1.622065	-0.008044	1.679115
Cl163	Cl	0.579693	-0.244130	0.346905
Cl164	Cl	1.079693	0.255870	0.846905
Cl165	Cl	1.192037	-1.056667	0.314428
Cl166	Cl	1.692037	-0.556667	0.814428
Cl167	Cl	0.764737	-0.244123	0.346877
Cl168	Cl	1.264737	0.255877	0.846877
Cl169	Cl	0.851725	-0.132200	0.993638
Cl170	Cl	1.351725	0.367800	1.493638
Cl171	Cl	0.877442	-0.167964	0.787166
Cl172	Cl	1.377442	0.332036	1.287166
H173	H	1.119445	-0.504613	0.866272
H174	H	1.619445	-0.004613	1.366272
