data_functionalizedCrystal
_audit_creation_method	'MofGen! by Chris Wilmer'
_symmetry_space_group_name_H-M	'P1'
_symmetry_Int_Tables_number	1
_symmetry_cell_setting	triclinic
loop_
_symmetry_equiv_pos_as_xyz
  x,y,z
_cell_length_a	17.019284
_cell_length_b	17.000371
_cell_length_c	9.730223
_cell_angle_alpha	89.999521
_cell_angle_beta	86.118729
_cell_angle_gamma	100.496013
loop_
_atom_site_label
_atom_site_type_symbol
_atom_site_fract_x
_atom_site_fract_y
_atom_site_fract_z
O1	O	-0.028424	1.056065	-0.110929
O2	O	-0.057056	0.824298	-0.107540
O3	O	0.072542	0.946651	-0.122879
O4	O	-0.158022	0.933712	-0.095590
O5	O	0.072538	0.946650	0.105701
O6	O	-0.057060	0.824297	0.121041
O7	O	-0.028427	1.056063	0.117651
Zn8	Zn	-0.042744	0.940180	0.155638
Zn9	Zn	-0.042740	0.940182	-0.145526
O10	O	-0.158025	0.933710	0.132990
C11	C	-0.058596	0.794642	0.006933
C12	C	-0.063169	0.706278	0.007474
C13	C	0.007205	0.674335	-0.000853
C14	C	0.002904	0.591307	-0.000354
C15	C	-0.071773	0.540223	0.008482
C16	C	-0.142152	0.572171	0.016806
C17	C	-0.137850	0.655198	0.016296
C18	C	-0.088392	0.289058	0.010440
C19	C	-0.092689	0.206026	0.010953
C20	C	0.052368	0.225168	-0.006209
C21	C	0.056663	0.308195	-0.006710
C22	C	-0.013716	0.340136	0.001607
C23	C	-0.076172	0.455355	0.008997
C24	C	-0.009316	0.425003	0.001082
C25	C	-0.187379	0.934200	0.022175
C26	C	-0.274848	0.935668	0.032527
C27	C	-0.315936	0.936358	-0.087210
C28	C	-0.398120	0.937748	-0.077483
C29	C	-0.439216	0.938440	0.051982
C30	C	-0.398121	0.937751	0.171728
C31	C	-0.315937	0.936368	0.161999
C32	C	-0.687357	0.942622	0.087590
C33	C	-0.769547	0.944003	0.097309
C34	C	-0.769541	0.944001	-0.151903
C35	C	-0.687356	0.942613	-0.161620
C36	C	-0.646268	0.941928	-0.041874
C37	C	-0.523222	0.939857	0.061928
C38	C	-0.562262	0.940517	-0.051821
C39	C	0.101895	0.946161	-0.012066
C40	C	0.189364	0.944694	-0.022427
C41	C	-0.026888	1.085719	0.003176
C42	C	-0.022315	1.174083	0.002626
N43	N	-0.042746	0.940184	0.361175
N44	N	-0.042731	0.940183	-0.351064
C45	C	0.014623	0.994376	0.426310
C46	C	0.014633	0.994374	0.570192
C47	C	-0.100103	0.885986	0.583791
C48	C	-0.100108	0.885985	0.439911
C49	C	0.080863	1.056955	0.418461
C50	C	0.080872	1.056953	0.562343
H51	H	0.060210	0.565304	-0.007136
H52	H	0.072117	1.117993	0.602430
H53	H	-0.146816	0.841851	0.386878
C54	C	-0.174842	0.149835	0.020649
N55	N	-0.236717	0.107512	0.027946
H56	H	0.068015	0.715923	-0.008043
C57	C	0.138813	0.364382	-0.016430
N58	N	0.200690	0.406702	-0.023746
H59	H	0.140481	1.043968	0.372351
C60	C	0.129780	0.190026	-0.015370
N61	N	0.188089	0.163557	-0.022277
H62	H	-0.282484	0.935787	-0.192634
C63	C	0.072825	0.481197	-0.008630
N64	N	0.134695	0.523530	-0.015935
C65	C	0.156292	1.031587	0.613697
N66	N	0.213095	1.012475	0.652379
C67	C	-0.568438	0.940606	0.204337
N68	N	-0.602498	0.941168	0.311600
C69	C	-0.814749	0.944772	0.239737
N70	N	-0.848795	0.945352	0.347008
C71	C	-0.163197	0.826369	0.670413
N72	N	-0.210721	0.781463	0.735657
C73	C	-0.165812	0.324182	0.019616
N74	N	-0.224128	0.350639	0.026537
H75	H	-0.136973	0.413754	0.016193
H76	H	0.066143	1.114562	0.375577
C77	C	-0.443314	0.938507	-0.209203
N78	N	-0.477353	0.939080	-0.308422
C79	C	-0.642140	0.941938	-0.304043
N80	N	-0.608077	0.941460	-0.411319
H81	H	-0.195156	0.681204	0.023083
C82	C	-0.814742	0.944766	-0.283614
N83	N	-0.848787	0.945348	-0.382824
H84	H	-0.653913	0.942066	0.185095
C85	C	-0.224298	0.515976	0.026528
N86	N	-0.286171	0.473651	0.033858
C87	C	-0.443330	0.938509	0.314142
N88	N	-0.477382	0.939075	0.421411
H89	H	-0.282484	0.935805	0.259502
H90	H	-0.528798	0.939957	-0.157231
