data_functionalizedCrystal
_audit_creation_method	'MofGen! by Chris Wilmer'
_symmetry_space_group_name_H-M	'P1'
_symmetry_Int_Tables_number	1
_symmetry_cell_setting	triclinic
loop_
_symmetry_equiv_pos_as_xyz
  x,y,z
_cell_length_a	16.109318
_cell_length_b	11.026607
_cell_length_c	10.066323
_cell_angle_alpha	100.733761
_cell_angle_beta	81.258747
_cell_angle_gamma	96.027290
loop_
_atom_site_label
_atom_site_type_symbol
_atom_site_fract_x
_atom_site_fract_y
_atom_site_fract_z
O1	O	1.117024	0.173891	0.113369
O2	O	0.877867	0.193284	0.113395
O3	O	0.977625	0.006940	0.113379
O4	O	1.017266	0.360235	0.113385
O5	O	0.996606	-0.028735	-0.113598
O6	O	0.896849	0.157609	-0.113581
O7	O	1.136005	0.138216	-0.113608
Zn8	Zn	1.019441	0.142248	-0.149632
Zn9	Zn	0.994432	0.189252	0.149419
O10	O	1.036248	0.324560	-0.113592
C11	C	0.856265	0.174658	-0.000089
C12	C	0.763615	0.172294	-0.000079
C13	C	0.453052	0.184096	0.123622
C14	C	0.540104	0.186312	0.123630
C15	C	0.560815	0.147401	-0.123832
C16	C	0.473763	0.145176	-0.123839
C17	C	0.419884	0.163531	-0.000108
C18	C	0.593988	0.167971	-0.000093
C19	C	0.688374	0.170374	-0.000085
C20	C	0.325492	0.161126	-0.000116
C21	C	0.979802	-0.056106	-0.000107
C22	C	0.958001	-0.190812	-0.000099
C23	C	1.018197	-0.264637	-0.000104
C24	C	0.995666	-0.403863	-0.000097
C25	C	1.157608	0.156843	-0.000120
C26	C	1.250257	0.159208	-0.000122
C27	C	1.034070	0.387606	-0.000103
C28	C	1.055871	0.522314	-0.000101
N29	N	1.036514	0.110169	-0.353727
C30	C	1.000362	0.178091	-0.421529
C31	C	1.013522	0.153389	-0.578688
N32	N	0.977363	0.221322	0.353514
H33	H	1.086415	-0.224769	-0.000120
H34	H	0.567104	0.203057	0.224384
C35	C	1.090839	0.008222	-0.431205
C36	C	1.121656	-0.049636	-0.338196
C37	C	1.171711	-0.143548	-0.409514
H38	H	1.058006	-0.050998	-0.486957
H39	H	1.136734	0.042995	-0.486909
H40	H	1.075768	-0.084410	-0.282515
H41	H	1.154501	0.009550	-0.282441
H42	H	1.217606	-0.108775	-0.465218
H43	H	1.138873	-0.202759	-0.465264
H44	H	1.192633	-0.182809	-0.346419
H45	H	0.446759	0.128427	-0.224601
C46	C	0.619457	0.127576	-0.258021
C47	C	0.702795	0.133961	-0.231536
C48	C	0.756838	0.115725	-0.355120
H49	H	0.605313	0.048505	-0.308961
H50	H	0.613738	0.189966	-0.308872
H51	H	0.708510	0.071575	-0.180707
H52	H	0.716965	0.213024	-0.180616
H53	H	0.751120	0.178115	-0.405971
H54	H	0.742687	0.036655	-0.406051
H55	H	0.813390	0.120067	-0.337167
C56	C	0.904753	-0.457249	-0.000150
C57	C	0.900482	-0.584734	-0.000177
C58	C	0.816752	-0.633959	-0.000244
H59	H	0.871153	-0.418300	0.078982
H60	H	0.884456	-0.443129	-0.079332
H61	H	0.920769	-0.598845	0.078997
H62	H	0.934065	-0.623716	-0.079303
H63	H	0.796455	-0.619839	-0.079426
H64	H	0.783158	-0.595001	0.078889
H65	H	0.813844	-0.720463	-0.000275
H66	H	0.889783	-0.230680	-0.000083
C67	C	0.394688	0.203980	0.258097
C68	C	0.442370	0.222432	0.366454
C69	C	0.388635	0.240735	0.490355
H70	H	0.364524	0.274653	0.263430
H71	H	0.356063	0.133187	0.263317
H72	H	0.480980	0.293218	0.361237
H73	H	0.472532	0.151772	0.361167
H74	H	0.350010	0.169942	0.495575
H75	H	0.358474	0.311407	0.495674
H76	H	0.420979	0.253246	0.563890
C77	C	1.146795	-0.424323	-0.000180
C78	C	1.151074	-0.296848	-0.000216
C79	C	1.234819	-0.247652	-0.000305
H80	H	1.167161	-0.438392	0.078948
H81	H	1.180335	-0.463344	-0.079366
H82	H	1.117547	-0.257839	0.078962
H83	H	1.130726	-0.282745	-0.079338
H84	H	1.268358	-0.286673	-0.079491
H85	H	1.255177	-0.261729	0.078824
H86	H	1.237734	-0.161158	-0.000342
H87	H	0.959670	0.254535	-0.363230
C88	C	0.923098	0.323163	-0.568523
C89	C	0.920812	0.327397	-0.428145
C90	C	0.870826	0.421187	-0.356284
H91	H	0.946282	0.400519	-0.591710
H92	H	0.867547	0.306539	-0.591801
H93	H	0.976352	0.344029	-0.404877
H94	H	0.897621	0.250064	-0.404917
H95	H	0.815275	0.404564	-0.379561
H96	H	0.894014	0.498536	-0.379482
H97	H	0.869262	0.424065	-0.261030
H98	H	1.054223	0.076950	-0.636983
