data_functionalizedCrystal
_audit_creation_method	'MofGen! by Chris Wilmer'
_symmetry_space_group_name_H-M	'P1'
_symmetry_Int_Tables_number	1
_symmetry_cell_setting	triclinic
loop_
_symmetry_equiv_pos_as_xyz
  x,y,z
_cell_length_a	23.532407
_cell_length_b	26.809956
_cell_length_c	23.532407
_cell_angle_alpha	90.000335
_cell_angle_beta	82.848678
_cell_angle_gamma	90.003435
loop_
_atom_site_label
_atom_site_type_symbol
_atom_site_fract_x
_atom_site_fract_y
_atom_site_fract_z
O1	O	0.755264	0.041422	0.069127
O2	O	1.255264	0.541422	0.569127
O3	O	0.589401	0.041438	0.079130
O4	O	1.089401	0.541438	0.579130
O5	O	0.677334	0.041420	-0.008803
O6	O	1.177334	0.541420	0.491197
O7	O	0.667331	0.041440	0.157060
O8	O	1.167331	0.541440	0.657060
O9	O	0.677317	-0.041539	-0.008790
O10	O	1.177317	0.458461	0.491210
O11	O	0.589384	-0.041522	0.079143
O12	O	1.089384	0.458478	0.579143
O13	O	0.755247	-0.041537	0.069140
O14	O	1.255247	0.458463	0.569140
Zn15	Zn	0.672313	-0.054701	0.074144
Zn16	Zn	1.172313	0.445299	0.574144
Zn17	Zn	0.672335	0.054602	0.074126
Zn18	Zn	1.172335	0.554602	0.574126
O19	O	0.667314	-0.041520	0.157073
O20	O	1.167314	0.458480	0.657073
C21	C	0.568176	-0.000040	0.078882
C22	C	1.068176	0.499960	0.578882
C23	C	0.504959	-0.000035	0.078116
C24	C	1.004959	0.499965	0.578116
N25	N	0.672302	-0.129297	0.074156
N26	N	1.172302	0.370703	0.574156
C27	C	0.105856	-0.000052	0.125350
C28	C	0.605856	0.499948	0.625350
C29	C	0.046456	-0.000055	0.124638
C30	C	0.546456	0.499945	0.624638
O31	O	0.009711	-0.000068	0.168424
O32	O	0.509711	0.499932	0.668424
N33	N	0.023830	-0.000060	0.072362
N34	N	0.523830	0.499940	0.572362
C35	C	0.060607	-0.000067	0.020794
C36	C	0.560607	0.499933	0.520794
O37	O	0.035908	-0.000072	-0.023737
O38	O	0.535908	0.499928	0.476263
C39	C	0.120006	-0.000068	0.021506
C40	C	0.620006	0.499932	0.521506
C41	C	0.142629	-0.000057	0.073785
C42	C	0.642629	0.499943	0.573785
C43	C	0.128479	-0.000042	0.177625
C44	C	0.628479	0.499958	0.677625
C45	C	0.187876	-0.000038	0.178336
C46	C	0.687876	0.499962	0.678336
C47	C	0.224649	-0.000044	0.126772
C48	C	0.724649	0.499956	0.626772
C49	C	0.202025	-0.000053	0.074497
C50	C	0.702025	0.499947	0.574497
C51	C	0.156783	-0.000078	-0.030062
C52	C	0.656783	0.499922	0.469938
C53	C	0.216185	-0.000079	-0.029345
C54	C	0.716185	0.499921	0.470655
C55	C	0.238808	-0.000069	0.022934
C56	C	0.738808	0.499931	0.522934
C57	C	0.298194	-0.000055	0.023643
C58	C	0.798194	0.499945	0.523643
N59	N	0.320820	-0.000050	0.075920
N60	N	0.820820	0.499950	0.575920
C61	C	0.284048	-0.000044	0.127484
C62	C	0.784048	0.499956	0.627484
C63	C	-0.064135	-0.000067	0.019302
C64	C	0.435865	0.499933	0.519302
C65	C	-0.123533	-0.000063	0.018589
C66	C	0.376467	0.499937	0.518589
C67	C	-0.137680	-0.000052	0.122434
C68	C	0.362320	0.499948	0.622434
C69	C	-0.078281	-0.000052	0.123146
C70	C	0.421719	0.499948	0.623146
C71	C	-0.041509	-0.000062	0.071578
C72	C	0.458491	0.499938	0.571578
C73	C	0.408784	-0.000035	0.128974
C74	C	0.908784	0.499965	0.628974
C75	C	0.468186	-0.000029	0.129680
C76	C	0.968186	0.499971	0.629680
C77	C	0.482329	-0.000043	0.025836
C78	C	0.982329	0.499957	0.525836
C79	C	0.422932	-0.000047	0.025129
C80	C	0.922932	0.499953	0.525129
C81	C	0.386160	-0.000044	0.076702
C82	C	0.886160	0.499956	0.576702
O83	O	0.334974	-0.000044	-0.020119
O84	O	0.834974	0.499956	0.479881
O85	O	0.308755	-0.000045	0.172007
O86	O	0.808755	0.499955	0.672007
C87	C	0.711267	-0.473930	0.035199
C88	C	1.211267	0.026070	0.535199
C89	C	0.711280	-0.682808	0.035190
C90	C	1.211280	-0.182808	0.535190
O91	O	0.744386	-0.709818	0.002071
O92	O	1.244386	-0.209818	0.502071
N93	N	0.672338	-0.708924	0.074114
N94	N	1.172338	-0.208924	0.574114
C95	C	0.633387	-0.682817	0.113040
C96	C	1.133387	-0.182817	0.613040
O97	O	0.600261	-0.709823	0.146142
O98	O	1.100261	-0.209823	0.646142
C99	C	0.633371	-0.473940	0.113045
C100	C	1.133371	0.026060	0.613045
C101	C	0.672320	-0.447827	0.074123
C102	C	1.172320	0.052173	0.574123
C103	C	0.750212	-0.447817	-0.003720
C104	C	1.250212	0.052183	0.496280
C105	C	0.750210	-0.395601	-0.003716
C106	C	1.250210	0.104399	0.496284
C107	C	0.711263	-0.369498	0.035208
C108	C	1.211263	0.130502	0.535208
C109	C	0.672318	-0.395611	0.074128
C110	C	1.172318	0.104389	0.574128
C111	C	0.594418	-0.447834	0.151968
C112	C	1.094418	0.052166	0.651968
C113	C	0.594417	-0.395612	0.151965
C114	C	1.094417	0.104388	0.651965
C115	C	0.633365	-0.369499	0.113043
C116	C	1.133365	0.130501	0.613043
C117	C	0.633370	-0.317291	0.113056
C118	C	1.133370	0.182709	0.613056
N119	N	0.672312	-0.291176	0.074133
N120	N	1.172312	0.208824	0.574133
C121	C	0.711259	-0.317279	0.035209
C122	C	1.211259	0.182721	0.535209
C123	C	0.633399	-0.792480	0.113035
C124	C	1.133399	-0.292480	0.613035
C125	C	0.633404	-0.844699	0.113034
C126	C	1.133404	-0.344699	0.613034
C127	C	0.711296	-0.844687	0.035184
C128	C	1.211296	-0.344687	0.535184
C129	C	0.711294	-0.792467	0.035188
C130	C	1.211294	-0.292467	0.535188
C131	C	0.672341	-0.766365	0.074111
C132	C	1.172341	-0.266365	0.574111
C133	C	0.711253	-0.207621	0.035222
C134	C	1.211253	0.292379	0.535222
C135	C	0.711249	-0.155400	0.035232
C136	C	1.211249	0.344600	0.535232
C137	C	0.633355	-0.155417	0.113080
C138	C	1.133355	0.344583	0.613080
C139	C	0.633360	-0.207633	0.113072
C140	C	1.133360	0.292367	0.613072
C141	C	0.672311	-0.233734	0.074139
C142	C	1.172311	0.266266	0.574139
O143	O	0.600277	-0.290249	0.146154
O144	O	1.100277	0.209751	0.646154
O145	O	0.744372	-0.290264	0.002103
O146	O	1.244372	0.209736	0.502103
C147	C	0.711269	-0.526147	0.035194
C148	C	1.211269	-0.026147	0.535194
C149	C	0.672324	-0.552260	0.074114
C150	C	1.172324	-0.052260	0.574114
C151	C	0.633377	-0.526157	0.113038
C152	C	1.133377	-0.026157	0.613038
C153	C	0.672328	-0.604479	0.074113
C154	C	1.172328	-0.104479	0.574113
C155	C	0.711275	-0.630582	0.035189
C156	C	1.211275	-0.130582	0.535189
C157	C	0.750217	-0.604466	-0.003734
C158	C	1.250217	-0.104466	0.496266
C159	C	0.750215	-0.552250	-0.003730
C160	C	1.250215	-0.052250	0.496270
C161	C	0.594435	-0.552272	0.151961
C162	C	1.094435	-0.052272	0.651961
C163	C	0.594440	-0.604489	0.151954
C164	C	1.094440	-0.104489	0.651954
C165	C	0.633387	-0.630592	0.113030
C166	C	1.133387	-0.130592	0.613030
C167	C	0.776472	-0.000058	0.069388
C168	C	1.276472	0.499942	0.569388
C169	C	0.839689	-0.000060	0.070154
C170	C	1.339689	0.499940	0.570154
C171	C	0.677071	-0.000060	-0.030013
C172	C	1.177071	0.499940	0.469987
C173	C	0.676305	-0.000064	-0.093230
C174	C	1.176305	0.499936	0.406770
N175	N	0.672350	0.129198	0.074110
N176	N	1.172350	0.629198	0.574110
C177	C	0.723539	-0.000041	-0.492333
C178	C	1.223539	0.499959	0.007667
C179	C	0.722827	-0.000037	-0.551733
C180	C	1.222827	0.499963	-0.051733
O181	O	0.766613	-0.000023	-0.588478
O182	O	1.266613	0.499977	-0.088478
N183	N	0.670551	-0.000033	-0.574359
N184	N	1.170551	0.499967	-0.074359
C185	C	0.618983	-0.000027	-0.537582
C186	C	1.118983	0.499973	-0.037582
O187	O	0.574452	-0.000023	-0.562281
O188	O	1.074452	0.499977	-0.062281
C189	C	0.619695	-0.000027	-0.478182
C190	C	1.119695	0.499973	0.021818
C191	C	0.671974	-0.000037	-0.455560
C192	C	1.171974	0.499963	0.044440
C193	C	0.775814	-0.000050	-0.469710
C194	C	1.275814	0.499950	0.030290
C195	C	0.776525	-0.000055	-0.410313
C196	C	1.276525	0.499945	0.089687
C197	C	0.724961	-0.000051	-0.373540
C198	C	1.224961	0.499949	0.126460
C199	C	0.672685	-0.000042	-0.396164
C200	C	1.172685	0.499958	0.103836
C201	C	0.568127	-0.000018	-0.441406
C202	C	1.068127	0.499982	0.058594
C203	C	0.568844	-0.000018	-0.382004
C204	C	1.068844	0.499982	0.117996
C205	C	0.621123	-0.000028	-0.359381
C206	C	1.121123	0.499972	0.140619
C207	C	0.621832	-0.000042	-0.299995
C208	C	1.121832	0.499958	0.200005
N209	N	0.674109	-0.000047	-0.277368
N210	N	1.174109	0.499953	0.222632
C211	C	0.725673	-0.000051	-0.314141
C212	C	1.225673	0.499949	0.185859
C213	C	0.617491	-0.000026	-0.662324
C214	C	1.117491	0.499974	-0.162324
C215	C	0.616778	-0.000029	-0.721722
C216	C	1.116778	0.499971	-0.221722
C217	C	0.720623	-0.000038	-0.735869
C218	C	1.220623	0.499962	-0.235869
C219	C	0.721335	-0.000039	-0.676470
C220	C	1.221335	0.499961	-0.176470
C221	C	0.669767	-0.000030	-0.639698
C222	C	1.169767	0.499970	-0.139698
C223	C	0.727163	-0.000062	-0.189405
C224	C	1.227163	0.499938	0.310595
C225	C	0.727869	-0.000068	-0.130003
C226	C	1.227869	0.499932	0.369997
C227	C	0.624025	-0.000057	-0.115860
C228	C	1.124025	0.499943	0.384140
C229	C	0.623318	-0.000052	-0.175257
C230	C	1.123318	0.499948	0.324743
C231	C	0.674891	-0.000053	-0.212029
C232	C	1.174891	0.499947	0.287971
O233	O	0.578070	-0.000055	-0.263215
O234	O	1.078070	0.499945	0.236785
O235	O	0.770196	-0.000049	-0.289433
O236	O	1.270196	0.499951	0.210567
C237	C	0.667577	-0.000038	0.178283
C238	C	1.167577	0.499962	0.678283
C239	C	0.668343	-0.000031	0.241500
C240	C	1.168343	0.499969	0.741500
H241	H	0.378851	-0.000035	0.170970
H242	H	0.878851	0.499965	0.670970
H243	H	0.601650	-0.228895	0.144772
H244	H	1.101650	0.271105	0.644772
H245	H	-0.167632	-0.000050	0.164421
H246	H	0.332368	0.499950	0.664421
N247	N	0.792215	-0.367442	-0.045703
N248	N	1.292215	0.132558	0.454297
H249	H	0.786309	-0.330399	-0.039801
H250	H	1.286309	0.169601	0.460199
H251	H	0.832576	-0.376569	-0.039328
H252	H	1.332576	0.123431	0.460672
N253	N	-0.147924	-0.000071	-0.037800
N254	N	0.352076	0.499929	0.462200
H255	H	-0.172253	-0.030826	-0.040408
H256	H	0.327747	0.469174	0.459592
H257	H	-0.172224	0.030700	-0.040387
H258	H	0.327776	0.530700	0.459613
H259	H	0.817806	-0.000052	-0.499645
H260	H	1.317806	0.499948	0.000355
H261	H	0.781927	-0.469066	-0.035420
H262	H	1.281927	0.030934	0.464580
H263	H	0.769159	-0.000060	-0.219337
H264	H	1.269159	0.499940	0.280663
N265	N	0.212272	-0.000024	0.234724
N266	N	0.712272	0.499976	0.734724
H267	H	0.179956	-0.000021	0.267277
H268	H	0.679956	0.499979	0.767277
H269	H	0.236607	-0.030777	0.237292
H270	H	0.736607	0.469223	0.737292
N271	N	-0.024475	-0.000075	-0.036321
N272	N	0.475525	0.499925	0.463679
H273	H	-0.047826	-0.000078	-0.069542
H274	H	0.452174	0.499922	0.430458
H275	H	0.000482	0.030678	-0.038296
H276	H	0.500482	0.530678	0.461704
N277	N	0.492579	-0.000020	0.186073
N278	N	0.992579	0.499980	0.686073
H279	H	0.516908	-0.030771	0.188691
H280	H	1.016908	0.469229	0.688691
H281	H	0.516879	0.030755	0.188648
H282	H	1.016879	0.530755	0.688648
N283	N	0.552426	-0.524128	0.193952
N284	N	1.052426	-0.024128	0.693952
H285	H	0.574042	-0.502464	0.219062
H286	H	1.074042	-0.002464	0.719062
H287	H	0.527338	-0.502491	0.172285
H288	H	1.027338	-0.002491	0.672285
H289	H	0.743009	-0.865949	0.003491
H290	H	1.243009	-0.365949	0.503491
H291	H	0.404512	-0.000048	-0.017441
H292	H	0.904512	0.499952	0.482559
N293	N	0.753302	-0.764304	-0.006792
N294	N	1.253302	-0.264304	0.493208
H295	H	0.777974	-0.788769	-0.031447
H296	H	1.277974	-0.288769	0.468553
H297	H	0.731644	-0.742642	-0.031863
H298	H	1.231644	-0.242642	0.468137
N299	N	0.777722	-0.000049	-0.652072
N300	N	1.277722	0.499951	-0.152072
H301	H	0.810276	-0.000053	-0.684386
H302	H	1.310276	0.499947	-0.184386
H303	H	0.780289	0.030705	-0.627737
H304	H	1.280289	0.530705	-0.127737
H305	H	0.526850	-0.000011	-0.352066
H306	H	1.026850	0.499989	0.147934
N307	N	0.591398	-0.872861	0.155017
N308	N	1.091398	-0.372861	0.655017
H309	H	0.566725	-0.848396	0.179671
H310	H	1.066725	-0.348396	0.679671
H311	H	0.566348	-0.894527	0.133337
H312	H	1.066348	-0.394527	0.633337
N313	N	0.832913	-0.000063	-0.385917
N314	N	1.332913	0.499937	0.114083
H315	H	0.865466	-0.000064	-0.418233
H316	H	1.365466	0.499936	0.081767
H317	H	0.835479	0.030690	-0.361581
H318	H	1.335479	0.530690	0.138419
H319	H	0.574207	-0.000030	-0.740136
H320	H	1.074207	0.499970	-0.240136
H321	H	0.138375	-0.000087	-0.072634
H322	H	0.638375	0.499913	0.427366
N323	N	0.568411	-0.000066	-0.076193
N324	N	1.068411	0.499934	0.423807
H325	H	0.576799	-0.000071	-0.035132
H326	H	1.076799	0.499929	0.464868
H327	H	0.545613	0.030689	-0.083476
H328	H	1.045613	0.530689	0.416524
N329	N	0.792224	-0.632627	-0.045716
N330	N	1.292224	-0.132627	0.454284
H331	H	0.816900	-0.608165	-0.070375
H332	H	1.316900	-0.108165	0.429625
H333	H	0.817273	-0.654291	-0.024035
H334	H	1.317273	-0.154291	0.475965
H335	H	0.601646	-0.134156	0.144773
H336	H	1.101646	0.365844	0.644773
N337	N	0.521998	-0.000056	-0.029777
N338	N	1.021998	0.499944	0.470223
H339	H	0.498657	-0.000063	-0.063006
H340	H	0.998657	0.499937	0.436994
H341	H	0.546955	0.030697	-0.031750
H342	H	1.046955	0.530697	0.468250
N343	N	0.776241	-0.000043	-0.775538
N344	N	1.276241	0.499957	-0.275538
H345	H	0.767853	-0.000040	-0.816598
H346	H	1.267853	0.499960	-0.316598
H347	H	0.799045	0.030709	-0.768246
H348	H	1.299045	0.530709	-0.268246
N349	N	0.255847	-0.000093	-0.084966
N350	N	0.755847	0.499907	0.415034
H351	H	0.232498	-0.000100	-0.118189
H352	H	0.732498	0.499900	0.381811
H353	H	0.280802	0.030661	-0.086943
H354	H	0.780802	0.530661	0.413057
N355	N	0.753261	-0.127235	-0.006749
N356	N	1.253261	0.372765	0.493251
H357	H	0.777932	-0.151699	-0.031408
H358	H	1.277932	0.348301	0.468592
H359	H	0.731604	-0.105569	-0.031816
H360	H	1.231604	0.394431	0.468184
H361	H	0.575496	-0.000023	-0.632386
H362	H	1.075496	0.499977	-0.132386
N363	N	0.566933	-0.000049	-0.199662
N364	N	1.066933	0.499951	0.300338
H365	H	0.534375	-0.000049	-0.167351
H366	H	1.034375	0.499951	0.332649
H367	H	0.564382	0.030709	-0.223993
H368	H	1.064382	0.530709	0.276007
H369	H	0.601678	-0.771231	0.144732
H370	H	1.101678	-0.271231	0.644732
N371	N	0.753266	-0.235768	-0.006766
N372	N	1.253266	0.264232	0.493234
H373	H	0.777936	-0.211295	-0.031415
H374	H	1.277936	0.288705	0.468585
H375	H	0.778319	-0.257430	0.014912
H376	H	1.278319	0.242570	0.514912
H377	H	0.770443	-0.000077	-0.111587
H378	H	1.270443	0.499923	0.388413
N379	N	0.552399	-0.475989	0.193940
N380	N	1.052399	0.024011	0.693940
H381	H	0.558715	-0.466900	0.234332
H382	H	1.058715	0.033100	0.734332
H383	H	0.512044	-0.466883	0.187520
H384	H	1.012044	0.033117	0.687520
N385	N	0.552400	-0.367459	0.193945
N386	N	1.052400	0.132541	0.693945
H387	H	0.527730	-0.391928	0.218599
H388	H	1.027730	0.108072	0.718599
H389	H	0.574053	-0.345792	0.219018
H390	H	1.074053	0.154208	0.719018
N391	N	0.511739	-0.000014	-0.465797
N392	N	1.011739	0.499986	0.034203
H393	H	0.479187	-0.000011	-0.433480
H394	H	0.979187	0.499989	0.066520
H395	H	0.509182	0.030740	-0.490133
H396	H	1.009182	0.530740	0.009867
H397	H	0.098544	-0.000039	0.219617
H398	H	0.598544	0.499961	0.719617
N399	N	0.792224	-0.524089	-0.045710
N400	N	1.292224	-0.024089	0.454290
H401	H	0.816893	-0.548555	-0.070366
H402	H	1.316893	-0.048555	0.429634
H403	H	0.770568	-0.502425	-0.070780
H404	H	1.270568	-0.002425	0.429220
H405	H	-0.059867	-0.000047	0.165717
H406	H	0.440133	0.499953	0.665717
H407	H	0.562724	-0.625746	0.183654
H408	H	1.062724	-0.125746	0.683654
