data_functionalizedCrystal
_audit_creation_method	'MofGen! by Chris Wilmer'
_symmetry_space_group_name_H-M	'P1'
_symmetry_Int_Tables_number	1
_symmetry_cell_setting	triclinic
loop_
_symmetry_equiv_pos_as_xyz
  x,y,z
_cell_length_a	17.038272
_cell_length_b	17.019372
_cell_length_c	13.101039
_cell_angle_alpha	90.514652
_cell_angle_beta	93.604737
_cell_angle_gamma	87.242864
loop_
_atom_site_label
_atom_site_type_symbol
_atom_site_fract_x
_atom_site_fract_y
_atom_site_fract_z
O1	O	0.099960	1.052986	0.007623
O2	O	0.111648	0.825131	-0.012469
O3	O	-0.008016	0.937704	-0.002534
O4	O	0.219624	0.940413	-0.002312
O5	O	0.000584	0.929628	0.167183
O6	O	0.120248	0.817055	0.157248
O7	O	0.108560	1.044910	0.177340
Zn8	Zn	0.115769	0.929701	0.194240
Zn9	Zn	0.104438	0.940341	-0.029369
O10	O	0.228224	0.932337	0.167405
C11	C	0.115336	0.791795	0.069806
C12	C	0.113504	0.704495	0.062109
C13	C	0.102876	0.210969	0.013864
C14	C	0.104599	0.292996	0.021110
C15	C	0.110154	0.329599	0.117247
C16	C	0.113978	0.284171	0.206143
C17	C	0.112250	0.202146	0.198896
C18	C	0.115601	0.577042	0.143758
C19	C	0.117331	0.659073	0.150998
C20	C	0.107950	0.667893	-0.034036
C21	C	0.106227	0.585865	-0.041275
C22	C	0.110047	0.540444	0.047622
C23	C	0.111917	0.413444	0.124656
C24	C	0.108279	0.456602	0.040211
C25	C	-0.032853	0.931203	0.082107
C26	C	-0.119672	0.923853	0.081459
C27	C	-0.169545	0.991330	0.087409
C28	C	-0.251121	0.984420	0.086790
C29	C	-0.282822	0.910033	0.080228
C30	C	-0.232943	0.842552	0.074273
C31	C	-0.151369	0.849462	0.074885
C32	C	-0.528668	0.885618	0.078061
C33	C	-0.610248	0.878712	0.077453
C34	C	-0.628420	1.020582	0.089968
C35	C	-0.546843	1.027486	0.090585
C36	C	-0.496972	0.960005	0.084625
C37	C	-0.366205	0.902968	0.079598
C38	C	-0.413591	0.967070	0.085248
C39	C	0.253061	0.938839	0.082762
C40	C	0.339879	0.946189	0.083404
C41	C	0.104871	1.078246	0.095062
C42	C	0.106703	1.165547	0.102753
N43	N	0.123502	0.922444	0.346849
N44	N	0.096700	0.947603	-0.181977
C45	C	0.134029	0.912573	0.555020
C46	C	0.086175	0.957472	0.609858
C47	C	0.092032	0.951980	0.725692
C48	C	0.128173	0.918064	0.439176
H49	H	0.098359	0.181173	-0.064422
H50	H	0.104838	0.704883	-0.106410
H51	H	-0.291724	1.039367	0.091639
H52	H	0.115375	0.165163	0.271279
H53	H	0.101478	0.329976	-0.051273
H54	H	-0.143740	1.051903	0.092760
H55	H	0.101702	0.556069	-0.119559
H56	H	0.116441	0.443255	0.202931
H57	H	0.040806	1.000038	0.569812
H58	H	0.118700	0.540071	0.216144
H59	H	0.121860	0.688872	0.229289
H60	H	-0.392025	0.842401	0.074257
H61	H	-0.110763	0.794516	0.070039
H62	H	-0.521039	1.088059	0.095929
H63	H	0.118496	0.313980	0.284420
H64	H	0.179396	0.870011	0.595061
H65	H	0.103753	0.426796	-0.038063
H66	H	-0.669034	1.075521	0.094818
H67	H	-0.636055	0.818134	0.072125
H68	H	-0.258761	0.781984	0.068923
H69	H	-0.488072	0.830670	0.073208
H70	H	-0.387777	1.027637	0.090569
