data_functionalizedCrystal
_audit_creation_method	'MofGen! by Chris Wilmer'
_symmetry_space_group_name_H-M	'P1'
_symmetry_Int_Tables_number	1
_symmetry_cell_setting	triclinic
loop_
_symmetry_equiv_pos_as_xyz
  x,y,z
_cell_length_a	6.817900
_cell_length_b	17.078472
_cell_length_c	17.078481
_cell_angle_alpha	96.872237
_cell_angle_beta	99.306161
_cell_angle_gamma	99.306020
loop_
_atom_site_label
_atom_site_type_symbol
_atom_site_fract_x
_atom_site_fract_y
_atom_site_fract_z
V1	V	-3.958854	-0.109582	-0.247282
O2	O	-3.969080	0.005456	-0.242657
O3	O	-3.890234	-0.217466	-0.245512
O4	O	-3.890235	-0.107813	-0.355166
O5	O	-3.969079	-0.104956	-0.132243
V6	V	-4.447722	-0.095832	-0.233532
O7	O	-4.208388	-0.139744	-0.277444
O8	O	-4.648385	-0.065670	-0.203370
O9	O	-4.293135	0.012052	-0.235302
O10	O	-4.554892	-0.210871	-0.238157
O11	O	-4.554893	-0.100458	-0.348571
O12	O	-4.293134	-0.097601	-0.125648
C13	C	-3.730970	-0.243769	-0.241591
C14	C	-3.756017	-0.331965	-0.240863
C15	C	-3.948372	-0.377437	-0.244475
C16	C	-3.971897	-0.460307	-0.243795
C17	C	-3.803061	-0.497703	-0.239498
C18	C	-3.610692	-0.452224	-0.235888
C19	C	-3.587172	-0.369357	-0.236573
C20	C	-3.854040	-0.745108	-0.237030
C21	C	-3.877575	-0.827982	-0.236342
C22	C	-4.238780	-0.836060	-0.244251
C23	C	-4.215241	-0.753189	-0.244932
C24	C	-4.022876	-0.707719	-0.241326
N25	N	-3.827102	-0.582409	-0.238801
N26	N	-3.998840	-0.623015	-0.242029
C27	C	-3.730971	-0.103894	-0.381465
C28	C	-3.756017	-0.103161	-0.469660
C29	C	-3.948374	-0.106777	-0.515133
C30	C	-3.971895	-0.106088	-0.598002
C31	C	-3.803060	-0.101789	-0.635397
C32	C	-3.610687	-0.098170	-0.589917
C33	C	-3.587166	-0.098853	-0.507049
C34	C	-3.854039	-0.099316	-0.882802
C35	C	-3.877577	-0.098635	-0.965676
C36	C	-4.238784	-0.106552	-0.973755
C37	C	-4.215247	-0.107240	-0.890886
C38	C	-4.022876	-0.103617	-0.845413
N39	N	-3.827099	-0.101087	-0.720102
N40	N	-3.998837	-0.104313	-0.760708
C41	C	-4.115740	0.038350	-0.239221
C42	C	-4.069930	0.126546	-0.239955
C43	C	-4.115740	-0.101523	-0.099345
C44	C	-4.069933	-0.102251	-0.011149
H45	H	-3.430539	-0.332334	-0.233635
Br46	Br	-4.499835	-0.897773	-0.249144
Br47	Br	-3.648428	-0.878734	-0.230520
H48	H	-3.697407	-0.708095	-0.234089
H49	H	-4.352735	-0.110740	-0.860445
H50	H	-3.473218	-0.094665	-0.620370
H51	H	-4.085864	-0.110284	-0.484694
H52	H	-4.128528	-0.109029	-0.635022
Br53	Br	-3.326097	-0.093934	-0.445332
Br54	Br	-3.381557	-0.502975	-0.230063
Br55	Br	-4.499847	-0.111467	-1.035472
H56	H	-3.697412	-0.096394	-0.845792
Br57	Br	-4.232960	-0.522018	-0.248699
Br58	Br	-4.177520	-0.326694	-0.250302
Br59	Br	-4.444374	-0.702439	-0.250727
H60	H	-3.740079	-0.095132	-0.996120
