data_functionalizedCrystal
_audit_creation_method	'MofGen! by Chris Wilmer'
_symmetry_space_group_name_H-M	'P1'
_symmetry_Int_Tables_number	1
_symmetry_cell_setting	triclinic
loop_
_symmetry_equiv_pos_as_xyz
  x,y,z
_cell_length_a	10.654550
_cell_length_b	10.540539
_cell_length_c	9.130313
_cell_angle_alpha	90.000859
_cell_angle_beta	89.996220
_cell_angle_gamma	84.505197
loop_
_atom_site_label
_atom_site_type_symbol
_atom_site_fract_x
_atom_site_fract_y
_atom_site_fract_z
O1	O	1.667897	0.178295	-0.121912
O2	O	1.302424	0.195282	-0.121888
O3	O	1.493499	0.002079	-0.121899
O4	O	1.476823	0.371498	-0.121902
O5	O	1.493496	0.002084	0.121700
O6	O	1.302422	0.195287	0.121711
O7	O	1.667894	0.178300	0.121686
Cu8	Cu	1.485158	0.186794	0.143941
Cu9	Cu	1.485161	0.186788	-0.144143
O10	O	1.476820	0.371503	0.121697
C11	C	1.255625	0.194038	-0.000086
C12	C	1.116180	0.190306	-0.000077
C13	C	1.492247	-0.045221	-0.000102
C14	C	1.488505	-0.186168	-0.000110
C15	C	1.036734	0.304061	-0.000099
C16	C	0.905712	0.300547	-0.000124
C17	C	0.933595	0.069513	-0.000111
C18	C	1.064614	0.073028	-0.000075
C19	C	1.088301	0.421338	-0.000100
C20	C	1.008854	0.535103	-0.000124
C21	C	0.877832	0.531589	-0.000149
C22	C	0.826256	0.414310	-0.000151
C23	C	1.345134	-0.369543	-0.000647
C24	C	1.348927	-0.222926	-0.000099
C25	C	1.555675	-0.247846	0.138993
C26	C	1.550912	-0.394389	0.139110
C27	C	1.553753	-0.394914	-0.137907
C28	C	1.555039	-0.247933	-0.139747
C29	C	1.714694	0.179545	-0.000119
C30	C	1.854139	0.183276	-0.000138
C31	C	1.478072	0.418803	-0.000103
C32	C	1.481813	0.559750	-0.000105
N33	N	1.485165	0.186798	0.346564
N34	N	1.485163	0.186774	-0.346765
C35	C	1.569795	0.101277	0.423211
C36	C	1.569791	0.101262	0.576548
C37	C	1.400525	0.272300	0.576577
C38	C	1.400523	0.272308	0.423243
C39	C	1.654437	0.015767	0.346532
C40	C	1.739074	-0.069760	0.423179
C41	C	1.739071	-0.069775	0.576516
C42	C	1.654430	0.015736	0.653206
H43	H	1.050855	0.630586	-0.000110
H44	H	1.129301	-0.019601	-0.000061
H45	H	1.509013	-0.205228	0.242515
H46	H	1.807980	-0.139388	0.360731
O47	O	1.309269	0.364550	0.659293
H48	H	1.250418	0.424022	0.580234
H49	H	1.296074	-0.180306	-0.099813
H50	H	1.194984	0.424213	-0.000086
H51	H	1.654450	0.015774	0.221677
H52	H	1.289998	-0.398125	-0.100399
H53	H	1.331609	0.341946	0.360836
H54	H	0.813149	0.624221	-0.000154
O55	O	1.485144	-0.431718	0.276848
H56	H	1.550174	-0.498389	0.341759
H57	H	1.654426	0.015708	0.778063
O58	O	0.684939	0.410512	-0.000175
H59	H	0.638356	0.509317	-0.000194
H60	H	1.807977	-0.139423	0.638921
O61	O	1.691451	-0.218287	0.145853
H62	H	1.707193	-0.165372	0.248295
O63	O	0.877976	-0.056975	-0.000125
H64	H	0.773522	-0.040308	-0.000167
H65	H	1.295701	-0.181149	0.099788
O66	O	1.272387	-0.409498	0.130763
H67	H	1.333156	-0.479495	0.196463
H68	H	1.651295	-0.442394	0.145414
H69	H	1.508580	-0.426453	-0.243339
H70	H	1.505891	-0.207059	-0.242651
O71	O	1.689842	-0.215915	-0.150894
H72	H	1.711624	-0.155216	-0.056657
O73	O	1.687299	-0.457509	-0.139180
H74	H	1.685713	-0.562583	-0.143369
