data_functionalizedCrystal
_audit_creation_method	'MofGen! by Chris Wilmer'
_symmetry_space_group_name_H-M	'P1'
_symmetry_Int_Tables_number	1
_symmetry_cell_setting	triclinic
loop_
_symmetry_equiv_pos_as_xyz
  x,y,z
_cell_length_a	16.992694
_cell_length_b	16.974813
_cell_length_c	16.053802
_cell_angle_alpha	88.912550
_cell_angle_beta	87.249047
_cell_angle_gamma	87.024634
loop_
_atom_site_label
_atom_site_type_symbol
_atom_site_fract_x
_atom_site_fract_y
_atom_site_fract_z
O1	O	1.044046	0.164036	-0.080405
O2	O	0.815757	0.162201	-0.080306
O3	O	0.935897	0.048765	-0.072625
O4	O	0.923906	0.277473	-0.088087
O5	O	0.929284	0.054981	0.065813
O6	O	0.809145	0.168418	0.058132
O7	O	1.037433	0.170253	0.058033
Zn8	Zn	0.922239	0.170322	0.080062
Zn9	Zn	0.930951	0.162132	-0.102336
O10	O	0.917293	0.283689	0.050351
C11	C	0.783234	0.162951	-0.010931
C12	C	0.696175	0.155912	-0.010465
C13	C	0.646080	0.223821	-0.015055
C14	C	0.564279	0.217204	-0.014596
C15	C	0.532574	0.142676	-0.009553
C16	C	0.582675	0.074762	-0.004959
C17	C	0.664475	0.081380	-0.005412
C18	C	0.288916	0.115246	-0.007676
C19	C	0.207111	0.108632	-0.007226
C20	C	0.188719	0.251075	-0.016861
C21	C	0.270522	0.257687	-0.017318
C22	C	0.320615	0.189773	-0.012721
N23	N	0.448960	0.135910	-0.009086
N24	N	0.404227	0.196540	-0.013181
C25	C	0.932011	0.022473	-0.001420
C26	C	0.930277	-0.065130	0.004496
C27	C	1.069957	0.169503	-0.011344
C28	C	1.157016	0.176542	-0.011816
C29	C	0.933069	-0.109669	-0.068186
C30	C	0.931434	-0.191981	-0.062625
C31	C	0.927013	-0.229752	0.015620
C32	C	0.924219	-0.185206	0.088308
C33	C	0.925848	-0.102895	0.082746
C34	C	0.921749	-0.475560	0.040348
C35	C	0.920122	-0.557877	0.045906
C36	C	0.927336	-0.564647	-0.105028
C37	C	0.928969	-0.482334	-0.110584
C38	C	0.926171	-0.437795	-0.037896
N39	N	0.925344	-0.313887	0.021307
N40	N	0.927834	-0.353661	-0.043583
C41	C	0.921179	0.309981	-0.020855
C42	C	0.922914	0.397583	-0.026777
N43	N	0.916298	0.175912	0.204544
N44	N	0.936898	0.156536	-0.226817
C45	C	0.967436	0.127664	0.251505
C46	C	0.963288	0.131582	0.338647
C47	C	0.908005	0.183752	0.378825
C48	C	0.856862	0.232002	0.331858
C49	C	0.861007	0.228080	0.244718
C50	C	0.889899	0.200864	0.639076
C51	C	0.885760	0.204784	0.726222
C52	C	0.992186	0.104363	0.733005
C53	C	0.996329	0.100448	0.645863
C54	C	0.945183	0.148695	0.598903
N55	N	0.903765	0.187760	0.467898
N56	N	0.949419	0.144683	0.509833
H57	H	0.523494	0.272503	-0.018335
C58	C	0.233502	-0.031508	0.002262
C59	C	0.172260	0.026705	-0.001680
H60	H	0.211984	-0.082083	0.005688
H61	H	0.267325	-0.028137	-0.046385
H62	H	0.262722	-0.023791	0.050167
H63	H	0.143042	0.018992	-0.049589
H64	H	0.138423	0.023332	0.046972
H65	H	0.296329	0.318375	-0.021435
H66	H	0.329693	0.059945	-0.003932
H67	H	0.147925	0.306367	-0.020602
C68	C	0.850217	-0.200168	0.218347
C69	C	0.919359	-0.226724	0.174316
H70	H	0.847218	-0.225803	0.271443
H71	H	0.850791	-0.144780	0.225438
H72	H	0.805749	-0.211923	0.188026
H73	H	0.963827	-0.214963	0.204635
H74	H	0.918791	-0.282125	0.167229
H75	H	0.819364	0.267367	0.206483
H76	H	0.556854	0.014080	-0.000841
H77	H	0.923564	-0.066631	0.141932
H78	H	0.811845	0.274478	0.364576
C79	C	0.866450	-0.283843	-0.144291
C80	C	0.934515	-0.240926	-0.142530
H81	H	0.868354	-0.314051	-0.193629
H82	H	0.863584	-0.318127	-0.096912
H83	H	0.821251	-0.248455	-0.143540
H84	H	0.979714	-0.276315	-0.143275
H85	H	0.937389	-0.206639	-0.189921
H86	H	1.012457	0.085185	0.218798
H87	H	0.929612	-0.600919	-0.164206
H88	H	1.041345	0.057967	0.613151
H89	H	0.936673	-0.078923	-0.131902
C90	C	0.619676	0.363954	-0.024524
C91	C	0.680925	0.305746	-0.020597
H92	H	0.641188	0.414531	-0.027938
H93	H	0.590455	0.356243	-0.072421
H94	H	0.585854	0.360570	0.024133
H95	H	0.714744	0.309126	-0.069257
H96	H	0.710159	0.313460	0.027305
C97	C	0.935924	-0.497296	-0.259217
C98	C	0.933822	-0.440819	-0.196593
H99	H	0.938917	-0.471664	-0.312315
H100	H	0.980825	-0.532389	-0.253694
H101	H	0.889446	-0.526130	-0.254118
H102	H	0.980302	-0.411990	-0.201688
H103	H	0.888917	-0.405713	-0.202119
C104	C	0.674443	-0.060082	0.004142
C105	C	0.719543	0.006732	-0.000374
H106	H	0.708441	-0.106168	0.007249
H107	H	0.639860	-0.057535	0.052393
H108	H	0.644451	-0.061863	-0.044161
H109	H	0.749530	0.008515	0.047932
H110	H	0.754140	0.004183	-0.048629
C111	C	0.975438	0.029787	0.443819
C112	C	1.019507	0.078546	0.390260
H113	H	1.010149	-0.002959	0.475677
H114	H	0.941929	0.061413	0.480220
H115	H	0.944358	-0.002170	0.411880
H116	H	1.050583	0.110508	0.422200
H117	H	1.053030	0.046917	0.353855
C118	C	0.913138	-0.542921	0.194546
C119	C	0.915255	-0.599395	0.131919
H120	H	0.910130	-0.568554	0.247642
H121	H	0.959608	-0.514088	0.189462
H122	H	0.868231	-0.507826	0.189012
H123	H	0.960166	-0.634487	0.137449
H124	H	0.868780	-0.628241	0.137005
H125	H	1.033826	0.065081	0.771247
H126	H	0.840739	0.247271	0.758931
C127	C	0.784294	0.300526	0.641137
C128	C	0.833686	0.253903	0.587465
H129	H	0.749593	0.333275	0.609269
H130	H	0.754405	0.267450	0.677470
H131	H	0.815391	0.332481	0.673060
H132	H	0.802590	0.221943	0.555546
H133	H	0.863579	0.286982	0.551117
C134	C	0.852048	-0.374471	0.121364
C135	C	0.918684	-0.426619	0.120253
H136	H	0.850158	-0.344262	0.170701
H137	H	0.854916	-0.340190	0.073983
H138	H	0.805879	-0.403598	0.120177
H139	H	0.964854	-0.397492	0.121434
H140	H	0.915823	-0.460904	0.167646
