data_functionalizedCrystal
_audit_creation_method	'MofGen! by Chris Wilmer'
_symmetry_space_group_name_H-M	'P1'
_symmetry_Int_Tables_number	1
_symmetry_cell_setting	triclinic
loop_
_symmetry_equiv_pos_as_xyz
  x,y,z
_cell_length_a	29.839134
_cell_length_b	13.033732
_cell_length_c	13.034356
_cell_angle_alpha	105.193241
_cell_angle_beta	82.786625
_cell_angle_gamma	97.178759
loop_
_atom_site_label
_atom_site_type_symbol
_atom_site_fract_x
_atom_site_fract_y
_atom_site_fract_z
Zn1	Zn	0.735671	0.346621	-0.547236
Zn2	Zn	1.235671	0.846621	-0.047236
Zn3	Zn	0.735630	0.546817	-0.347095
Zn4	Zn	1.235630	1.046817	0.152905
Zn5	Zn	0.652073	0.369217	-0.369600
Zn6	Zn	1.152073	0.869217	0.130400
Zn7	Zn	0.669002	0.524174	-0.524639
Zn8	Zn	1.169002	1.024174	-0.024639
O9	O	0.698094	0.446707	-0.447142
O10	O	1.198094	0.946707	0.052858
O11	O	0.798536	0.373197	-0.520725
O12	O	1.298536	0.873197	-0.020725
O13	O	0.717444	0.542191	-0.201436
O14	O	1.217444	1.042191	0.298564
O15	O	0.656095	0.217587	-0.412039
O16	O	1.156095	0.717587	0.087961
O17	O	0.798506	0.520280	-0.373682
O18	O	1.298506	1.020280	0.126318
O19	O	0.717514	0.200986	-0.542547
O20	O	1.217514	0.700986	-0.042547
O21	O	0.656055	0.411709	-0.217970
O22	O	1.156055	0.911709	0.282030
O23	O	0.591448	0.389753	-0.390128
O24	O	1.091448	0.889753	0.109872
O25	O	0.684948	0.481689	-0.676281
O26	O	1.184948	0.981689	-0.176281
O27	O	0.603886	0.503599	-0.504034
O28	O	1.103886	1.003599	-0.004034
O29	O	0.733929	0.351241	-0.692883
O30	O	1.233929	0.851241	-0.192883
O31	O	0.733859	0.692446	-0.351771
O32	O	1.233859	1.192446	0.148229
O33	O	0.684907	0.675810	-0.482212
O34	O	1.184907	1.175810	0.017788
C35	C	0.581366	0.446672	-0.447071
C36	C	1.081366	0.946672	0.052929
C37	C	0.531431	0.446679	-0.447063
C38	C	1.031431	0.946679	0.052937
C39	C	0.711229	0.722664	-0.412121
C40	C	1.211229	1.222664	0.087879
C41	C	0.716891	0.840715	-0.397174
C42	C	1.216891	1.340715	0.102826
C43	C	0.711331	0.411419	-0.724201
C44	C	1.211331	0.911419	-0.224201
C45	C	0.716972	0.396381	-0.842267
C46	C	1.216972	0.896381	-0.342267
C47	C	0.228280	0.506098	-0.506358
C48	C	0.728280	1.006098	-0.006358
C49	C	0.040611	0.506122	-0.506401
C50	C	0.540611	1.006122	-0.006401
O51	O	0.021861	0.556598	-0.556777
O52	O	0.521861	1.056598	-0.056777
N53	N	0.010658	0.446736	-0.447217
N54	N	0.510658	0.946736	0.052783
C55	C	0.027624	0.387334	-0.388024
C56	C	0.527624	0.887334	0.111976
O57	O	-0.002159	0.336815	-0.337695
O58	O	0.497841	0.836815	0.162305
C59	C	0.215293	0.387305	-0.387987
C60	C	0.715293	0.887305	0.112013
C61	C	0.245244	0.446704	-0.447166
C62	C	0.745244	0.946704	0.052834
C63	C	0.258231	0.565491	-0.565533
C64	C	0.758231	1.065491	-0.065533
C65	C	0.305145	0.565489	-0.565517
C66	C	0.805145	1.065489	-0.065517
C67	C	0.322109	0.506094	-0.506326
C68	C	0.822109	1.006094	-0.006326
C69	C	0.292158	0.446702	-0.447150
C70	C	0.792158	0.946702	0.052850
C71	C	0.232259	0.327898	-0.328801
C72	C	0.732259	0.827898	0.171199
C73	C	0.279179	0.327894	-0.328799
C74	C	0.779179	0.827894	0.171201
C75	C	0.309130	0.387292	-0.387978
C76	C	0.809130	0.887292	0.112022
C77	C	0.356037	0.387305	-0.387943
C78	C	0.856037	0.887305	0.112057
N79	N	0.385990	0.446691	-0.447127
N80	N	0.885990	0.946691	0.052873
C81	C	0.369026	0.506085	-0.506318
C82	C	0.869026	1.006085	-0.006318
C83	C	-0.070904	0.387356	-0.388046
C84	C	0.429096	0.887356	0.111954
C85	C	-0.117821	0.387364	-0.388053
C86	C	0.382179	0.887364	0.111947
C87	C	-0.104831	0.506151	-0.506432
C88	C	0.395169	1.006151	-0.006432
C89	C	-0.057914	0.506147	-0.506418
C90	C	0.442086	1.006147	-0.006418
C91	C	-0.040951	0.446742	-0.447230
C92	C	0.459049	0.946742	0.052770
C93	C	0.467549	0.506078	-0.506279
C94	C	0.967549	1.006078	-0.006279
C95	C	0.514467	0.506074	-0.506254
C96	C	1.014467	1.006074	-0.006254
C97	C	0.501473	0.387284	-0.387880
C98	C	1.001473	0.887284	0.112120
C99	C	0.454559	0.387291	-0.387900
C100	C	0.954559	0.887291	0.112100
C101	C	0.437599	0.446691	-0.447108
C102	C	0.937599	0.946691	0.052892
O103	O	0.374818	0.336846	-0.337604
O104	O	0.874818	0.836846	0.162396
O105	O	0.398816	0.556579	-0.556659
O106	O	0.898816	1.056579	-0.056659
C107	C	0.181366	0.506100	-0.506374
C108	C	0.681366	1.006100	-0.006374
C109	C	0.151415	0.446708	-0.447199
C110	C	0.651415	0.946708	0.052801
C111	C	0.168379	0.387313	-0.388007
C112	C	0.668379	0.887313	0.111993
C113	C	0.104498	0.446716	-0.447206
C114	C	0.604498	0.946716	0.052794
C115	C	0.087534	0.506111	-0.506397
C116	C	0.587534	1.006111	-0.006397
C117	C	0.117487	0.565497	-0.565581
C118	C	0.617487	1.065497	-0.065581
C119	C	0.164402	0.565495	-0.565565
C120	C	0.664402	1.065495	-0.065565
C121	C	0.138426	0.327927	-0.328824
C122	C	0.638426	0.827927	0.171176
C123	C	0.091512	0.327935	-0.328844
C124	C	0.591512	0.827935	0.171156
C125	C	0.074548	0.387329	-0.388035
C126	C	0.574548	0.887329	0.111965
C127	C	0.815278	0.446743	-0.447214
C128	C	1.315278	0.946743	0.052786
C129	C	0.865215	0.446759	-0.447245
C130	C	1.365215	0.946759	0.052755
C131	C	0.695172	0.885157	-0.454993
C132	C	1.195172	1.385157	0.045007
C133	C	0.701023	1.007168	-0.439546
C134	C	1.201023	1.507168	0.060454
C135	C	0.684919	1.169668	-0.482338
C136	C	1.184919	1.669668	0.017662
C137	C	0.679301	1.051606	-0.497373
C138	C	1.179301	1.551606	0.002627
C139	C	0.701081	0.438683	-1.008717
C140	C	1.201081	0.938683	-0.508717
C141	C	0.695250	0.454226	-0.886690
C142	C	1.195250	0.954226	-0.386690
C143	C	0.684930	0.481782	-0.171171
C144	C	1.184930	0.981782	0.328829
C145	C	0.679362	0.496521	-0.053144
C146	C	1.179362	0.996521	0.446856
H147	H	0.538852	0.554447	-0.554445
H148	H	1.038852	1.054447	-0.054445
O149	O	0.731427	0.357845	-1.078009
O150	O	1.231427	0.857845	-0.578009
H151	H	0.766550	0.378751	-1.054505
H152	H	1.266550	0.878751	-0.554505
H153	H	0.723950	1.059446	-0.378602
H154	H	1.223950	1.559446	0.121398
O155	O	0.747259	0.909960	-0.316452
O156	O	1.247259	1.409960	0.183548
H157	H	0.762276	0.858847	-0.276441
H158	H	1.262276	1.358847	0.223559
H159	H	0.656371	0.999331	-0.558310
H160	H	1.156371	1.499331	-0.058310
O161	O	0.664895	0.535063	-0.817425
O162	O	1.164895	1.035063	-0.317425
H163	H	0.665075	0.534580	-0.732450
H164	H	1.165075	1.034580	-0.232450
O165	O	0.649005	0.577338	-0.983861
O166	O	1.149005	1.077338	-0.483861
H167	H	0.613888	0.556409	-1.007396
H168	H	1.113888	1.056409	-0.507396
O169	O	0.747321	0.315528	-0.911532
O170	O	1.247321	0.815528	-0.411532
H171	H	0.747135	0.315995	-0.996509
H172	H	1.247135	0.815995	-0.496509
H173	H	0.329528	0.613854	-0.613709
H174	H	0.829528	1.113854	-0.113709
O175	O	0.449259	0.570230	-0.570047
O176	O	0.949259	1.070230	-0.070047
H177	H	0.477973	0.611562	-0.611149
H178	H	0.977973	1.111562	-0.111149
H179	H	-0.033530	0.554513	-0.554609
H180	H	0.466470	1.054513	-0.054609
O181	O	0.239938	0.629695	-0.629241
O182	O	0.739938	1.129695	-0.129241
H183	H	0.268653	0.671041	-0.670326
H184	H	0.768653	1.171041	-0.170326
H185	H	-0.118651	0.554512	-0.554628
H186	H	0.381349	1.054512	-0.054628
H187	H	-0.142204	0.339008	-0.339852
H188	H	0.357796	0.839008	0.160148
H189	H	-0.057098	0.338980	-0.339843
H190	H	0.442902	0.838980	0.160157
O191	O	0.059208	0.263862	-0.265014
O192	O	0.559208	0.763862	0.234986
H193	H	0.078892	0.222555	-0.223866
H194	H	0.578892	0.722555	0.276134
O195	O	0.199961	0.263822	-0.264982
O196	O	0.699961	0.763822	0.235018
H197	H	0.219647	0.222513	-0.223842
H198	H	0.719647	0.722513	0.276158
O199	O	0.297472	0.263832	-0.264941
O200	O	0.797472	0.763832	0.235059
H201	H	0.285373	0.178164	-0.293865
H202	H	0.785373	0.678164	0.206135
O203	O	0.422251	0.323232	-0.324072
O204	O	0.922251	0.823232	0.175928
H205	H	0.441931	0.281928	-0.282914
H206	H	0.941931	0.781928	0.217086
H207	H	0.188784	0.613862	-0.613755
H208	H	0.688784	1.113862	-0.113755
O209	O	0.519774	0.323217	-0.324045
O210	O	1.019774	0.823217	0.175955
H211	H	0.557430	0.333189	-0.333994
H212	H	1.057430	0.833189	0.166006
H213	H	0.103667	0.613861	-0.613773
H214	H	0.603667	1.113861	-0.113773
H215	H	0.152232	0.279560	-0.280622
H216	H	0.652232	0.779560	0.219378
O217	O	0.664802	0.815920	-0.535717
O218	O	1.164802	1.315920	-0.035717
H219	H	0.664975	0.730951	-0.535187
H220	H	1.164975	1.230951	-0.035187
