data_functionalizedCrystal
_audit_creation_method	'MofGen! by Chris Wilmer'
_symmetry_space_group_name_H-M	'P1'
_symmetry_Int_Tables_number	1
_symmetry_cell_setting	triclinic
loop_
_symmetry_equiv_pos_as_xyz
  x,y,z
_cell_length_a	17.077404
_cell_length_b	18.050590
_cell_length_c	17.077395
_cell_angle_alpha	89.971485
_cell_angle_beta	89.985498
_cell_angle_gamma	90.016523
loop_
_atom_site_label
_atom_site_type_symbol
_atom_site_fract_x
_atom_site_fract_y
_atom_site_fract_z
Zn1	Zn	1.200048	-0.295709	-0.443812
Zn2	Zn	1.199974	-0.419903	-0.312543
Zn3	Zn	1.068789	-0.295727	-0.312562
Zn4	Zn	1.068758	-0.419857	-0.443769
O5	O	1.134392	-0.357799	-0.378171
O6	O	1.309885	-0.312195	-0.426408
O7	O	1.182554	-0.403458	-0.202698
O8	O	1.086245	-0.191800	-0.329999
O9	O	1.309831	-0.403440	-0.329966
O10	O	1.182680	-0.191787	-0.426427
O11	O	1.086173	-0.312227	-0.202713
O12	O	0.958938	-0.312182	-0.329957
O13	O	1.086192	-0.403362	-0.553622
O14	O	0.958915	-0.403379	-0.426354
O15	O	1.182650	-0.312150	-0.553653
O16	O	1.182524	-0.523822	-0.329924
O17	O	1.086120	-0.523788	-0.426336
C18	C	0.930445	-0.357778	-0.378154
C19	C	0.843195	-0.357787	-0.378165
C20	C	0.802234	-0.310360	-0.428459
C21	C	0.720253	-0.310365	-0.428463
C22	C	0.679235	-0.357801	-0.378176
C23	C	0.720202	-0.405230	-0.327876
C24	C	0.802181	-0.405221	-0.327869
C25	C	0.549332	-0.405247	-0.327895
C26	C	0.467347	-0.405257	-0.327903
C27	C	0.467404	-0.310391	-0.428489
C28	C	0.549383	-0.310382	-0.428482
C29	C	0.590344	-0.357812	-0.378183
C30	C	1.134332	-0.550751	-0.378140
C31	C	1.134378	-0.633297	-0.378153
C32	C	1.186912	-0.832739	-0.325798
C33	C	1.206082	-0.882072	-0.397440
C34	C	1.134423	-0.784427	-0.378184
C35	C	1.115333	-0.882176	-0.306574
C36	C	1.134467	-0.930413	-0.378208
C37	C	1.153629	-0.832673	-0.449864
C38	C	1.062847	-0.832773	-0.358950
C39	C	1.081990	-0.882083	-0.430642
C40	C	1.134399	-0.700329	-0.378170
C41	C	1.134491	-1.014509	-0.378231
C42	C	1.339137	-0.357821	-0.378190
C43	C	1.426386	-0.357830	-0.378197
C44	C	1.134426	-0.357749	-0.582916
C45	C	1.134440	-0.357727	-0.670166
C46	C	1.134474	-0.164094	-0.378220
C47	C	1.134509	-0.081548	-0.378241
C48	C	1.184753	-0.310133	-1.045998
C49	C	1.184737	-0.310159	-0.964017
C50	C	1.134505	-0.357657	-0.923015
C51	C	1.084291	-0.405138	-0.963997
C52	C	1.084312	-0.405115	-1.045976
C53	C	1.084251	-0.405181	-0.793127
C54	C	1.084229	-0.405203	-0.711142
C55	C	1.184676	-0.310225	-0.711168
C56	C	1.184697	-0.310202	-0.793147
C57	C	1.134482	-0.357682	-0.834124
C58	C	1.134404	-0.357796	-0.174224
C59	C	1.134542	-0.357608	-0.086974
H60	H	0.433953	-0.443884	-0.286955
F61	F	1.030832	-0.455691	-0.920357
H62	H	1.225562	-0.271563	-0.677801
F63	F	0.593036	-0.259901	-0.482010
H64	H	1.043307	-0.443863	-0.677760
H65	H	0.434050	-0.271770	-0.469443
H66	H	0.582680	-0.443868	-0.286934
H67	H	1.043425	-0.443775	-1.079338
H68	H	1.231315	-0.811072	-0.281542
H69	H	0.686799	-0.443849	-0.286927
H70	H	0.835531	-0.443840	-0.286913
H71	H	0.835625	-0.271734	-0.469411
F72	F	1.023996	-0.910227	-0.488625
F73	F	1.030806	-0.455715	-0.836735
F74	F	0.676663	-0.259888	-0.481995
F75	F	1.285225	-0.910366	-0.418736
F76	F	1.094203	-0.910598	-0.227407
F77	F	1.174859	-0.804376	-0.529055
H78	H	1.225653	-0.271449	-1.079376
H79	H	1.002315	-0.811100	-0.342645
F80	F	1.238180	-0.259630	-0.920411
F81	F	1.238169	-0.259658	-0.836784
