data_functionalizedCrystal
_audit_creation_method	'MofGen! by Chris Wilmer'
_symmetry_space_group_name_H-M	'P1'
_symmetry_Int_Tables_number	1
_symmetry_cell_setting	triclinic
loop_
_symmetry_equiv_pos_as_xyz
  x,y,z
_cell_length_a	30.711293
_cell_length_b	30.706025
_cell_length_c	30.700862
_cell_angle_alpha	120.000090
_cell_angle_beta	90.000363
_cell_angle_gamma	59.983279
loop_
_atom_site_label
_atom_site_type_symbol
_atom_site_fract_x
_atom_site_fract_y
_atom_site_fract_z
O1	O	-0.298560	-0.384230	-0.012980
O2	O	-0.235274	-0.295030	0.012880
O3	O	-0.235240	-0.384228	-0.076322
O4	O	-0.298594	-0.295033	0.076221
O5	O	-0.307688	-0.311777	-0.076313
O6	O	-0.307723	-0.222579	0.012889
O7	O	-0.371009	-0.311779	-0.012971
Zn8	Zn	-0.350868	-0.255676	-0.000039
Zn9	Zn	-0.255414	-0.351133	-0.000052
O10	O	-0.371043	-0.222581	0.076231
C11	C	-0.110241	0.007429	0.039176
C12	C	-0.136559	-0.018656	0.039547
C13	C	-0.031366	-0.071445	0.039179
C14	C	-0.057804	-0.097410	0.039549
C15	C	-0.110216	-0.071444	0.039181
C16	C	-0.057829	-0.018657	0.039545
C17	C	-0.158445	0.183349	0.024886
C18	C	-0.183278	0.233174	0.020846
C19	C	-0.235216	0.258168	0.018819
C20	C	-0.262141	0.312185	0.014429
C21	C	-0.262319	0.233337	0.020837
C22	C	-0.237488	0.183521	0.024884
C23	C	-0.185548	0.158527	0.026909
C24	C	-0.237917	-0.133888	0.024905
C25	C	-0.262900	-0.162751	0.020870
C26	C	-0.235942	-0.216724	0.018843
C27	C	-0.263022	-0.248028	0.014459
C28	C	-0.183998	-0.241828	0.020858
C29	C	-0.159019	-0.212960	0.024903
C30	C	-0.185984	-0.158988	0.026923
C31	C	0.158800	-0.133894	0.024896
C32	C	0.212660	-0.162763	0.020852
C33	C	0.239689	-0.216736	0.018827
C34	C	0.298088	-0.248042	0.014439
C35	C	0.212860	-0.241839	0.020842
C36	C	0.159003	-0.212970	0.024884
C37	C	0.131975	-0.158993	0.026916
C38	C	-0.158625	0.104505	0.031292
C39	C	-0.137164	0.061446	0.034788
C40	C	0.027030	-0.102747	0.034793
C41	C	0.073577	-0.127696	0.031299
C42	C	-0.137301	-0.102744	0.034797
C43	C	-0.158892	-0.127692	0.031305
C44	C	-0.371613	-0.469667	-0.018875
C45	C	-0.344722	-0.523429	-0.015183
C46	C	-0.424026	-0.443579	-0.019241
C47	C	-0.371645	-0.390783	-0.018864
C48	C	-0.344788	-0.360201	-0.015161
C49	C	-0.424058	-0.364815	-0.019230
C50	C	-0.450493	-0.390785	-0.018865
C51	C	-0.507941	-0.360206	-0.015162
C52	C	-0.345298	-0.443577	-0.019240
C53	C	-0.110049	-0.535722	-0.503977
C54	C	-0.057625	-0.588516	-0.530318
C55	C	-0.110049	-0.535722	-0.425101
C56	C	-0.057625	-0.588515	-0.451562
C57	C	-0.031170	-0.614604	-0.503986
C58	C	-0.136385	-0.509754	-0.451553
C59	C	-0.237823	-0.393668	-0.552126
C60	C	-0.262827	-0.364627	-0.576949
C61	C	-0.235874	-0.389554	-0.628899
C62	C	-0.262979	-0.358063	-0.655813
C63	C	-0.183918	-0.443527	-0.656025
C64	C	-0.158921	-0.472568	-0.631204
C65	C	-0.185876	-0.447636	-0.579252
C66	C	0.159041	-0.790545	-0.631770
C67	C	0.212907	-0.840376	-0.656777
C68	C	0.239931	-0.865372	-0.629829
C69	C	0.298337	-0.919396	-0.656935
C70	C	0.213082	-0.840537	-0.577873
C71	C	0.159216	-0.790715	-0.552871
C72	C	0.132199	-0.765719	-0.579825
C73	C	-0.237824	-0.393667	-0.234876
C74	C	-0.262826	-0.364622	-0.181005
C75	C	-0.235873	-0.389549	-0.153987
C76	C	-0.262978	-0.358057	-0.095576
C77	C	-0.183919	-0.443517	-0.180839
C78	C	-0.158920	-0.472558	-0.234708
C79	C	-0.185879	-0.447631	-0.261724
C80	C	-0.158764	-0.479128	-0.552341
C81	C	-0.137156	-0.504230	-0.530889
C82	C	-0.137156	-0.504230	-0.366693
C83	C	-0.158765	-0.479128	-0.320135
C84	C	0.027236	-0.668627	-0.531096
C85	C	0.073791	-0.711691	-0.552708
O86	O	0.469843	-0.311788	-0.012980
O87	O	0.317331	-0.222593	0.012869
O88	O	0.406527	-0.311801	-0.076328
O89	O	0.380647	-0.222580	0.076217
O90	O	0.406550	-0.384244	-0.076324
O91	O	0.317353	-0.295036	0.012873
O92	O	0.469866	-0.384231	-0.012976
Zn93	Zn	0.393613	-0.351135	-0.000051
Zn94	Zn	0.393583	-0.255689	-0.000056
O95	O	0.380670	-0.295023	0.076221
O96	O	-0.370916	0.456546	-0.013002
O97	O	-0.307555	0.329869	0.012853
O98	O	-0.307548	0.329849	-0.076346
O99	O	-0.370924	0.456566	0.076198
O100	O	-0.235127	0.329849	-0.076348
O101	O	-0.235134	0.329868	0.012852
O102	O	-0.298495	0.456545	-0.013003
Zn103	Zn	-0.255316	0.393207	-0.000076
Zn104	Zn	-0.350734	0.393208	-0.000074
O105	O	-0.298503	0.456565	0.076196
O106	O	0.470124	-1.063774	-0.692551
O107	O	0.317595	-0.937080	-0.629197
O108	O	0.406754	-0.937078	-0.629194
O109	O	0.380966	-1.063776	-0.692554
O110	O	0.406756	-0.937080	-0.701640
O111	O	0.317597	-0.937082	-0.701643
O112	O	0.470126	-1.063776	-0.764997
Zn113	Zn	0.393862	-1.000429	-0.744822
Zn114	Zn	0.393859	-1.000427	-0.649371
O115	O	0.380968	-1.063778	-0.765000
O116	O	-0.298597	-0.295029	-0.764570
O117	O	-0.235239	-0.384228	-0.701240
O118	O	-0.235275	-0.295029	-0.701227
O119	O	-0.298561	-0.384229	-0.764583
O120	O	-0.307722	-0.222580	-0.628773
O121	O	-0.307686	-0.311779	-0.628786
O122	O	-0.371045	-0.222580	-0.692115
Zn123	Zn	-0.350868	-0.255676	-0.648947
Zn124	Zn	-0.255415	-0.351132	-0.744409
O125	O	-0.371008	-0.311779	-0.692128
C126	C	-0.450593	-0.137148	0.234779
C127	C	-0.508050	-0.083387	0.261663
C128	C	-0.424138	-0.163236	0.261112
C129	C	-0.371714	-0.216030	0.155895
C130	C	-0.344832	-0.246610	0.098435
C131	C	-0.345378	-0.241998	0.182347
C132	C	-0.371715	-0.216029	0.234771
C133	C	-0.344834	-0.246608	0.261647
C134	C	-0.424137	-0.163237	0.182355
C135	C	0.374767	-0.216006	0.234769
C136	C	0.378475	-0.246579	0.261651
C137	C	0.374383	-0.163215	0.261103
C138	C	0.374766	-0.216018	0.155887
C139	C	0.378472	-0.246603	0.098428
C140	C	0.374382	-0.163227	0.182341
C141	C	0.374743	-0.137134	0.234764
C142	C	0.378425	-0.083375	0.261641
C143	C	0.374406	-0.241980	0.182345
C144	C	-0.371658	0.609254	0.234748
C145	C	-0.344802	0.639837	0.261628
C146	C	-0.424072	0.635225	0.261084
C147	C	-0.371624	0.530362	0.155866
C148	C	-0.344731	0.476594	0.098406
C149	C	-0.424038	0.556453	0.182323
C150	C	-0.450507	0.609253	0.234747
C151	C	-0.507956	0.639835	0.261628
C152	C	-0.345309	0.556454	0.182323
C153	C	0.432912	-0.614317	-0.503984
C154	C	0.433272	-0.588236	-0.530323
C155	C	0.432889	-0.535433	-0.425107
C156	C	0.433249	-0.509471	-0.451565
C157	C	0.432887	-0.535444	-0.503989
C158	C	0.433274	-0.588225	-0.451561
C159	C	0.418691	-0.790245	-0.552141
C160	C	0.414670	-0.840075	-0.576966
C161	C	0.412651	-0.865075	-0.628915
C162	C	0.408281	-0.919097	-0.655831
C163	C	0.414657	-0.840247	-0.656039
C164	C	0.418685	-0.790427	-0.631216
C165	C	0.420702	-0.765426	-0.579265
C166	C	0.418589	-0.473019	-0.631763
C167	C	0.414543	-0.444160	-0.656767
C168	C	0.412498	-0.390184	-0.629818
C169	C	0.408103	-0.358883	-0.656921
C170	C	0.414506	-0.365072	-0.577862
C171	C	0.418561	-0.393937	-0.552863
C172	C	0.420599	-0.447912	-0.579819
C173	C	0.418598	-0.472961	-0.234886
C174	C	0.414547	-0.444086	-0.181015
C175	C	0.412504	-0.390110	-0.153995
C176	C	0.408109	-0.358797	-0.095584
C177	C	0.414508	-0.365010	-0.180845
C178	C	0.418557	-0.393886	-0.234713
C179	C	0.420607	-0.447866	-0.261731
C180	C	0.425065	-0.711401	-0.552351
C181	C	0.428545	-0.668338	-0.530898
C182	C	0.428497	-0.504124	-0.366699
C183	C	0.424997	-0.479170	-0.320142
C184	C	0.428493	-0.504148	-0.531096
C185	C	0.424991	-0.479204	-0.552705
O186	O	0.406520	-0.311722	0.371239
O187	O	0.380652	-0.222546	0.307887
O188	O	0.469843	-0.311740	0.307881
O189	O	0.317328	-0.222529	0.371245
O190	O	0.469864	-0.384194	0.235435
O191	O	0.380673	-0.295000	0.235441
O192	O	0.406541	-0.384176	0.298793
Zn193	Zn	0.393610	-0.351092	0.255614
Zn194	Zn	0.393582	-0.255630	0.351065
O195	O	0.317349	-0.294983	0.298799
C196	C	-0.031313	-0.071565	-0.504016
C197	C	-0.057748	-0.097537	-0.530352
C198	C	-0.110196	0.007326	-0.425134
C199	C	-0.136510	-0.018766	-0.451590
C200	C	-0.110162	-0.071565	-0.504015
C201	C	-0.057781	-0.018765	-0.451591
C202	C	0.158856	-0.134018	-0.552184
C203	C	0.212715	-0.162887	-0.577013
C204	C	0.239750	-0.216870	-0.628963
C205	C	0.298150	-0.248180	-0.655882
C206	C	0.212921	-0.241981	-0.656085
C207	C	0.159064	-0.213108	-0.631259
C208	C	0.132032	-0.159124	-0.579306
C209	C	-0.158251	-0.213634	-0.631786
C210	C	-0.183057	-0.242678	-0.656789
C211	C	-0.234995	-0.217752	-0.629837
C212	C	-0.261892	-0.249242	-0.656938
C213	C	-0.262129	-0.163773	-0.577880
C214	C	-0.237327	-0.134725	-0.552882
C215	C	-0.185383	-0.159664	-0.579841
C216	C	-0.158420	0.183292	-0.234912
C217	C	-0.183257	0.233126	-0.181041
C218	C	-0.235197	0.258125	-0.154017
C219	C	-0.262129	0.312156	-0.095606
C220	C	-0.262295	0.233287	-0.180865
C221	C	-0.237456	0.183453	-0.234734
C222	C	-0.185518	0.158463	-0.261755
C223	C	0.073634	-0.127823	-0.552389
C224	C	0.027085	-0.102871	-0.530933
C225	C	-0.137125	0.061357	-0.366725
C226	C	-0.158591	0.104427	-0.320167
C227	C	-0.137055	-0.103060	-0.531121
C228	C	-0.158492	-0.128165	-0.552728
H229	H	-0.116728	-0.233401	0.026547
N230	N	-0.452272	-0.134318	0.318166
H231	H	-0.454195	-0.165097	0.320341
H232	H	-0.431879	-0.121635	0.341434
H233	H	0.234937	-0.285933	-0.698383
N234	N	-0.102233	-0.240522	-0.660860
H235	H	-0.077206	-0.283570	-0.670403
H236	H	-0.101373	-0.242034	-0.694496
H237	H	0.234554	-0.142438	-0.554927
N238	N	0.412506	-0.866846	-0.547709
H239	H	0.380406	-0.834017	-0.514046
H240	H	0.409671	-0.902210	-0.571355
N241	N	-0.452256	-0.308528	-0.019984
H242	H	-0.485209	-0.273669	0.012740
H243	H	-0.427547	-0.295958	-0.020164
H244	H	-0.179452	-0.467261	-0.430306
N245	N	0.373593	-0.134313	0.154206
H246	H	0.373430	-0.158871	0.116909
H247	H	0.340523	-0.090623	0.174635
N248	N	0.129700	-0.075789	-0.496156
H249	H	0.091511	-0.061309	-0.484542
H250	H	0.147762	-0.084309	-0.471171
H251	H	-0.445379	-0.141400	0.161121
N252	N	0.373581	-0.134280	0.318160
H253	H	0.373416	-0.158828	0.330906
H254	H	0.406283	-0.134036	0.320302
N255	N	0.412299	-0.306856	-0.548797
H256	H	0.380194	-0.273842	-0.515138
H257	H	0.445819	-0.315392	-0.539296
N258	N	-0.318318	0.260256	-0.151718
H259	H	-0.343330	0.275729	-0.169749
H260	H	-0.319169	0.227484	-0.152365
N261	N	0.412303	-0.306792	-0.151705
H262	H	0.409436	-0.292307	-0.113506
H263	H	0.445806	-0.315328	-0.169780
H264	H	0.373839	-0.284468	0.161104
N265	N	-0.102399	0.156331	-0.264053
H266	H	-0.090777	0.120995	-0.302253
H267	H	-0.101542	0.189118	-0.263367
N268	N	-0.452153	0.527532	0.154191
H269	H	-0.427422	0.490059	0.116894
H270	H	-0.462765	0.514897	0.174621
N271	N	-0.452222	0.691498	0.318142
H272	H	-0.427512	0.704071	0.330886
H273	H	-0.485179	0.726353	0.320284
H274	H	-0.302234	-0.465410	-0.019831
H275	H	0.420197	-0.373488	-0.510562
N276	N	-0.318858	-0.306413	-0.152043
H277	H	-0.332141	-0.295030	-0.177332
H278	H	-0.342992	-0.313398	-0.138389
N279	N	-0.288335	-0.298291	0.154185
H280	H	-0.286163	-0.333176	0.152243
H281	H	-0.275647	-0.310800	0.116903
H282	H	-0.302257	0.534648	0.161070
H283	H	-0.445247	-0.465416	-0.019836
H284	H	-0.161188	0.253344	-0.159184
H285	H	-0.259424	-0.090774	-0.510581
N286	N	-0.318335	0.260300	0.018655
H287	H	-0.318338	0.256853	-0.015831
H288	H	-0.331706	0.236999	0.020572
N289	N	0.434023	-0.453207	-0.423440
H290	H	0.467081	-0.462977	-0.412821
H291	H	0.434181	-0.440684	-0.448201
H292	H	-0.036384	-0.610342	-0.430320
H293	H	-0.036557	-0.139886	0.040147
H294	H	0.433876	-0.610080	-0.573398
N295	N	0.130128	-0.240183	-0.660510
H296	H	0.155424	-0.278761	-0.697187
H297	H	0.116480	-0.250672	-0.639872
H298	H	-0.304421	-0.143473	-0.555937
H299	H	0.433871	-0.610053	-0.430320
N300	N	-0.029672	0.010159	-0.423451
H301	H	0.007621	-0.014399	-0.448176
H302	H	-0.050106	0.053846	-0.412832
H303	H	0.137161	-0.233412	0.026528
N304	N	-0.266713	0.156735	0.027059
H305	H	-0.300376	0.189558	0.059160
H306	H	-0.276210	0.141313	-0.006478
N307	N	0.412381	-0.471153	-0.152055
H308	H	0.414293	-0.509729	-0.177346
H309	H	0.443504	-0.481645	-0.138403
N310	N	-0.029484	-0.617455	-0.587377
H311	H	-0.027540	-0.586696	-0.589569
H312	H	0.007790	-0.654932	-0.600077
N313	N	0.420808	-0.531181	-0.264028
H314	H	0.418920	-0.542699	-0.238846
H315	H	0.389688	-0.524133	-0.277690
H316	H	-0.259777	-0.373364	-0.256869
H317	H	0.413016	-0.860610	-0.698337
H318	H	0.234870	-0.285787	0.019195
H319	H	0.420335	-0.769896	-0.509842
H320	H	0.420186	-0.373443	-0.256570
N321	N	-0.266890	-0.366769	-0.496089
H322	H	-0.303594	-0.328172	-0.482672
H323	H	-0.270284	-0.397842	-0.496115
N324	N	-0.193553	0.010151	-0.423457
H325	H	-0.206307	0.047624	-0.386159
H326	H	-0.216808	0.022787	-0.443885
H327	H	-0.305128	-0.320683	-0.554859
N328	N	0.420852	-0.763652	-0.660469
H329	H	0.418961	-0.787048	-0.697144
H330	H	0.389717	-0.718865	-0.639828
N331	N	-0.153795	-0.300892	-0.712823
H332	H	-0.117127	-0.312280	-0.726105
H333	H	-0.150307	-0.335404	-0.712851
N334	N	0.420790	-0.531234	-0.660834
H335	H	0.418906	-0.542762	-0.697540
H336	H	0.455273	-0.565684	-0.664241
H337	H	0.412907	-0.464608	-0.699068
H338	H	-0.036493	-0.140029	-0.573424
H339	H	-0.259524	0.163233	-0.256591
H340	H	-0.179626	0.003184	0.040147
H341	H	-0.161979	-0.463820	-0.698323
H342	H	0.234501	-0.142320	0.019210
N343	N	-0.029709	0.010253	0.040323
H344	H	-0.050103	0.053947	0.073385
H345	H	0.007575	-0.014347	0.040482
N346	N	0.129647	-0.075676	0.027090
H347	H	0.154815	-0.064154	0.025197
H348	H	0.115991	-0.082726	-0.004038
N349	N	-0.102889	-0.530779	-0.660461
H350	H	-0.077944	-0.522225	-0.670006
H351	H	-0.091193	-0.545363	-0.636827
N352	N	-0.102426	0.156393	0.027070
H353	H	-0.089026	0.179682	0.025180
H354	H	-0.102464	0.159837	0.061555
N355	N	0.129897	-0.763598	-0.660844
H356	H	0.155075	-0.786895	-0.697552
H357	H	0.098869	-0.767046	-0.664245
N358	N	0.241864	-0.867159	-0.712809
H359	H	0.216575	-0.843763	-0.726087
H360	H	0.272887	-0.863709	-0.712836
H361	H	-0.259876	-0.089942	0.026552
N362	N	-0.154048	0.259951	0.018662
H363	H	-0.144507	0.275366	0.052173
H364	H	-0.120409	0.227094	-0.013463
N365	N	-0.318920	-0.135678	0.018695
H366	H	-0.332208	-0.097109	0.020588
H367	H	-0.318935	-0.166691	-0.015791
N368	N	0.242220	-0.867498	-0.548807
H369	H	0.280417	-0.902830	-0.572528
H370	H	0.241521	-0.834708	-0.515147
H371	H	0.137359	-0.770500	-0.510570
N372	N	-0.102891	-0.530773	-0.263673
H373	H	-0.089612	-0.542162	-0.238386
H374	H	-0.102858	-0.565283	-0.294710
N375	N	-0.154846	-0.470412	-0.151704
H376	H	-0.178566	-0.443830	-0.113505
H377	H	-0.145298	-0.513463	-0.169783
H378	H	-0.162050	-0.285770	0.019215
