data_functionalizedCrystal
_audit_creation_method	'MofGen! by Chris Wilmer'
_symmetry_space_group_name_H-M	'P1'
_symmetry_Int_Tables_number	1
_symmetry_cell_setting	triclinic
loop_
_symmetry_equiv_pos_as_xyz
  x,y,z
_cell_length_a	14.519709
_cell_length_b	19.188924
_cell_length_c	13.596369
_cell_angle_alpha	89.991944
_cell_angle_beta	90.000291
_cell_angle_gamma	83.411055
loop_
_atom_site_label
_atom_site_type_symbol
_atom_site_fract_x
_atom_site_fract_y
_atom_site_fract_z
O1	O	1.223297	0.091525	-0.081668
O2	O	0.954753	0.102303	-0.081699
O3	O	1.096778	-0.004715	-0.081671
O4	O	1.081272	0.198542	-0.081696
O5	O	1.096764	-0.004720	0.081912
O6	O	0.954739	0.102297	0.081884
O7	O	1.223283	0.091519	0.081915
Zn8	Zn	1.089008	0.096907	0.107872
Zn9	Zn	1.089027	0.096915	-0.107656
O10	O	1.081258	0.198536	0.081887
C11	C	0.920389	0.101798	0.000089
C12	C	0.818017	0.100292	0.000078
C13	C	1.096270	-0.030730	0.000121
C14	C	1.094765	-0.108240	0.000124
C15	C	0.443156	0.094751	0.000123
C16	C	0.547454	0.096290	0.000110
C17	C	0.630583	0.097522	0.000100
C18	C	0.734888	0.099061	0.000088
C19	C	1.094071	-0.144639	-0.089045
C20	C	1.092645	-0.217467	-0.089053
C21	C	1.091931	-0.253895	0.000114
C22	C	1.092620	-0.217487	0.089295
C23	C	1.094038	-0.144660	0.089300
N24	N	1.142181	-0.373382	0.066484
N25	N	1.140837	-0.442565	0.066473
C26	C	1.087660	-0.473319	0.000104
N27	N	1.035889	-0.432279	-0.066270
N28	N	1.037237	-0.363090	-0.066261
C29	C	1.090394	-0.332864	0.000118
C30	C	1.085417	-0.588686	-0.089080
C31	C	1.083985	-0.661514	-0.089084
C32	C	1.083970	-0.661535	0.089267
C33	C	1.085393	-0.588707	0.089268
C34	C	1.086121	-0.552287	0.000092
C35	C	1.257646	0.092024	0.000125
C36	C	1.360018	0.093529	0.000130
C37	C	1.081766	0.224552	0.000093
C38	C	1.083270	0.302062	0.000084
N39	N	1.089003	0.096902	0.254964
N40	N	1.089040	0.096915	-0.254747
C41	C	1.089026	0.096915	0.656255
C42	C	1.089017	0.096914	0.544603
C43	C	1.089015	0.096909	0.455613
C44	C	1.089005	0.096907	0.343954
H45	H	1.092074	-0.247107	-0.161668
O46	O	1.086122	-0.553459	0.175976
C47	C	1.085912	-0.561162	0.352871
C48	C	1.085108	-0.601169	0.254741
H49	H	1.085073	-0.599717	0.416579
H50	H	1.151117	-0.533401	0.357403
H51	H	1.022068	-0.520737	0.357275
H52	H	1.148908	-0.641628	0.250272
H53	H	1.019861	-0.628882	0.250251
O54	O	1.094554	-0.109252	0.175897
C55	C	1.016302	-0.019193	0.279365
C56	C	1.015589	-0.059251	0.181269
H57	H	0.952476	0.021252	0.283731
H58	H	1.015484	-0.057697	0.343137
H59	H	1.081521	0.008555	0.283819
H60	H	0.950380	-0.087001	0.176720
H61	H	1.016455	-0.020714	0.117544
H62	H	1.086004	-0.559031	-0.161692
H63	H	1.083415	-0.691148	-0.161699
O64	O	1.094835	-0.109199	-0.175613
C65	C	1.176060	-0.034598	-0.279091
C66	C	1.175390	-0.074746	-0.181050
H67	H	1.241173	-0.006720	-0.283509
H68	H	1.175335	-0.073055	-0.342915
H69	H	1.112123	0.005747	-0.283399
H70	H	1.239317	-0.115091	-0.176646
H71	H	1.176068	-0.036247	-0.117271
H72	H	1.083382	-0.691193	0.161868
H73	H	1.092037	-0.247152	0.161895
