data_functionalizedCrystal
_audit_creation_method	'MofGen! by Chris Wilmer'
_symmetry_space_group_name_H-M	'P1'
_symmetry_Int_Tables_number	1
_symmetry_cell_setting	triclinic
loop_
_symmetry_equiv_pos_as_xyz
  x,y,z
_cell_length_a	10.686220
_cell_length_b	19.120786
_cell_length_c	10.686551
_cell_angle_alpha	96.651844
_cell_angle_beta	89.691918
_cell_angle_gamma	97.023231
loop_
_atom_site_label
_atom_site_type_symbol
_atom_site_fract_x
_atom_site_fract_y
_atom_site_fract_z
Zn1	Zn	1.958087	-0.172367	0.550230
Zn2	Zn	2.458087	0.327633	1.050230
Zn3	Zn	1.931315	-0.300335	0.331447
Zn4	Zn	2.431315	0.199665	0.831447
Zn5	Zn	1.730716	-0.190454	0.355272
Zn6	Zn	2.230716	0.309546	0.855272
Zn7	Zn	1.737864	-0.298902	0.557326
Zn8	Zn	2.237864	0.201098	1.057326
O9	O	1.839496	-0.240515	0.448569
O10	O	2.339496	0.259485	0.948569
O11	O	2.130652	-0.182373	0.508268
O12	O	2.630652	0.317627	1.008268
O13	O	1.890510	-0.293928	0.158486
O14	O	2.390510	0.206072	0.658486
O15	O	1.769090	-0.089113	0.388135
O16	O	2.269090	0.410887	0.888135
O17	O	2.110983	-0.276390	0.347529
O18	O	2.610983	0.223610	0.847529
O19	O	1.936139	-0.075826	0.531370
O20	O	2.436139	0.424174	1.031370
O21	O	1.743130	-0.213198	0.175990
O22	O	2.243130	0.286802	0.675990
O23	O	1.555548	-0.211809	0.395016
O24	O	2.055548	0.288191	0.895016
O25	O	1.781272	-0.273948	0.732506
O26	O	2.281272	0.226052	1.232506
O27	O	1.560799	-0.291486	0.543463
O28	O	2.060799	0.208514	1.043463
O29	O	1.943070	-0.180984	0.727293
O30	O	2.443070	0.319016	1.227293
O31	O	1.897441	-0.399086	0.354409
O32	O	2.397441	0.100914	0.854409
O33	O	1.755313	-0.398033	0.520361
O34	O	2.255313	0.101967	1.020361
C35	C	1.512509	-0.253455	0.472596
C36	C	2.012509	0.246545	0.972596
C37	C	1.372623	-0.259007	0.482903
C38	C	1.872623	0.240993	0.982903
C39	C	1.824284	-0.424211	0.435595
C40	C	2.324284	0.075789	0.935595
C41	C	1.817895	-0.502791	0.430078
C42	C	2.317895	-0.002791	0.930078
C43	C	1.901812	-0.532729	0.502131
C44	C	2.401812	-0.032729	1.002131
C45	C	1.895804	-0.606563	0.496949
C46	C	2.395804	-0.106563	0.996949
C47	C	1.805883	-0.650458	0.419708
C48	C	2.305883	-0.150458	0.919708
C49	C	1.721958	-0.620516	0.347653
C50	C	2.221958	-0.120516	0.847653
C51	C	1.727961	-0.546683	0.352842
C52	C	2.227961	-0.046683	0.852842
C53	C	1.783404	-0.873735	0.400313
C54	C	2.283404	-0.373735	0.900313
C55	C	1.777409	-0.947573	0.395127
C56	C	2.277409	-0.447573	0.895127
C57	C	1.951255	-0.933615	0.544426
C58	C	2.451255	-0.433615	1.044426
C59	C	1.957255	-0.859781	0.549602
C60	C	2.457255	-0.359781	1.049602
C61	C	1.873325	-0.829845	0.477552
C62	C	2.373325	-0.329845	0.977552
C63	C	1.799742	-0.725929	0.414407
C64	C	2.299742	-0.225929	0.914407
C65	C	1.879461	-0.754376	0.482861
C66	C	2.379461	-0.254376	0.982861
C67	C	2.167759	-0.227524	0.424449
C68	C	2.667759	0.272476	0.924449
C69	C	2.307646	-0.221988	0.414171
C70	C	2.807646	0.278012	0.914171
C71	C	1.865955	-0.225289	0.776843
C72	C	2.365955	0.274711	1.276843
C73	C	1.877230	-0.218801	0.916734
C74	C	2.377230	0.281199	1.416734
C75	C	1.854803	-0.056098	0.461619
C76	C	2.354803	0.443902	0.961619
C77	C	1.861326	0.022490	0.467180
C78	C	2.361326	0.522490	0.967180
C79	C	1.813216	-0.255627	0.121570
C80	C	2.313216	0.244373	0.621570
C81	C	1.802201	-0.261907	-0.018324
C82	C	2.302201	0.238093	0.481676
H83	H	1.321230	-0.294953	0.549630
H84	H	1.821230	0.205047	1.049630
H85	H	1.952670	-0.718634	0.545756
H86	H	2.452670	-0.218634	1.045756
H87	H	1.359032	-0.186049	0.347440
H88	H	1.859032	0.313951	0.847440
Br89	Br	2.023862	-0.473163	0.606953
Br90	Br	2.523862	0.026837	1.106953
Br91	Br	1.677700	-0.785507	0.309594
Br92	Br	2.177700	-0.285507	0.809594
H93	H	1.715067	-0.849367	0.341645
H94	H	2.215067	-0.349367	0.841645
Br95	Br	2.009676	-0.647190	0.594763
Br96	Br	2.509676	-0.147190	1.094763
Br97	Br	1.998693	-0.149017	1.002436
Br98	Br	2.498693	0.350983	1.502436
H99	H	2.030475	-0.824042	0.612498
H100	H	2.530475	-0.324042	1.112498
H101	H	1.729343	-0.303777	0.930256
H102	H	2.229343	0.196223	1.430256
H103	H	2.019584	-0.957997	0.603087
H104	H	2.519584	-0.457997	1.103087
Br105	Br	1.599906	-0.680087	0.242842
Br106	Br	2.099906	-0.180087	0.742842
Br107	Br	1.655374	-1.007146	0.290284
Br108	Br	2.155374	-0.507146	0.790284
H109	H	1.659625	-0.522309	0.294170
H110	H	2.159625	-0.022309	0.794170
