data_functionalizedCrystal
_audit_creation_method	'MofGen! by Chris Wilmer'
_symmetry_space_group_name_H-M	'P1'
_symmetry_Int_Tables_number	1
_symmetry_cell_setting	triclinic
loop_
_symmetry_equiv_pos_as_xyz
  x,y,z
_cell_length_a	12.759395
_cell_length_b	16.120484
_cell_length_c	12.759387
_cell_angle_alpha	87.136424
_cell_angle_beta	90.020509
_cell_angle_gamma	92.926975
loop_
_atom_site_label
_atom_site_type_symbol
_atom_site_fract_x
_atom_site_fract_y
_atom_site_fract_z
Zn1	Zn	1.584987	-0.331828	0.615167
Zn2	Zn	1.575935	-0.471265	0.448379
Zn3	Zn	1.409282	-0.331874	0.439506
Zn4	Zn	1.400339	-0.471205	0.624015
O5	O	1.492636	-0.401543	0.531767
O6	O	1.730807	-0.350331	0.593052
O7	O	1.553783	-0.452818	0.300184
O8	O	1.440121	-0.215202	0.455392
O9	O	1.724157	-0.452774	0.470514
O10	O	1.569211	-0.215169	0.584449
O11	O	1.431344	-0.350408	0.293665
O12	O	1.261075	-0.350350	0.463971
O13	O	1.424878	-0.452673	0.769859
O14	O	1.254504	-0.452717	0.599529
O15	O	1.560539	-0.350273	0.763359
O16	O	1.545111	-0.587922	0.479094
O17	O	1.416101	-0.587879	0.608132
C18	C	1.219669	-0.401533	0.531748
C19	C	1.102891	-0.401549	0.531766
C20	C	1.096077	-0.508315	0.672716
C21	C	1.037808	-0.561705	0.743194
C22	C	0.928086	-0.561715	0.743207
C23	C	0.876630	-0.508328	0.672737
C24	C	0.934899	-0.454938	0.602259
C25	C	1.044623	-0.454935	0.602251
C26	C	0.941713	-0.348169	0.461316
C27	C	1.051436	-0.348161	0.461296
C28	C	0.890258	-0.294781	0.390846
C29	C	0.948526	-0.241394	0.320361
C30	C	1.058255	-0.241387	0.320350
C31	C	1.109704	-0.294771	0.390818
C32	C	1.478681	-0.618150	0.545559
C33	C	1.472808	-0.710816	0.551495
C34	C	1.462090	-0.880477	0.562353
C35	C	1.523370	-0.921768	0.501198
C36	C	1.517406	-1.016173	0.507239
C37	C	1.468052	-0.786063	0.556313
C38	C	1.766669	-0.401554	0.531786
C39	C	1.883445	-0.401558	0.531794
C40	C	1.492720	-0.401461	0.805795
C41	C	1.492756	-0.401426	0.922570
C42	C	1.506673	-0.184090	0.517944
C43	C	1.512655	-0.091424	0.512053
C44	C	1.492616	-0.401564	0.258801
C45	C	1.492798	-0.401364	0.142012
C46	C	1.634028	-0.294805	0.915821
C47	C	1.704680	-0.241481	0.967306
C48	C	1.704707	-0.241451	1.077026
C49	C	1.634074	-0.294748	1.135263
C50	C	1.563422	-0.348071	1.083777
C51	C	1.563404	-0.348098	0.974055
C52	C	1.422147	-0.454688	1.090526
C53	C	1.422123	-0.454723	0.980807
C54	C	1.351514	-0.507985	1.148763
C55	C	1.280866	-0.561313	1.097278
C56	C	1.280842	-0.561342	0.987551
C57	C	1.351472	-0.508047	0.929321
H58	H	1.199045	-0.294773	0.390812
F59	F	1.205696	-0.618025	1.159262
F60	F	1.597794	-0.875304	0.426830
H61	H	1.405153	-0.916025	0.619241
H62	H	1.634022	-0.294832	0.826481
H63	H	1.762231	-0.198025	1.118945
F64	F	1.779830	-0.184745	0.905319
H65	H	1.634094	-0.294711	1.224602
F66	F	0.866071	-0.618534	0.818223
H67	H	1.351537	-0.507953	1.238102
F68	F	1.205638	-0.618093	0.932765
F69	F	1.351457	-0.508077	0.812547
H70	H	1.185418	-0.508318	0.672704
H71	H	1.079716	-0.605170	0.800571
H72	H	0.800916	-0.294790	0.390866
F73	F	0.759854	-0.508331	0.672768
F74	F	0.893758	-0.184577	0.245377
H75	H	1.105691	-0.197905	0.262965
