data_functionalizedCrystal
_audit_creation_method	'MofGen! by Chris Wilmer'
_symmetry_space_group_name_H-M	'P1'
_symmetry_Int_Tables_number	1
_symmetry_cell_setting	triclinic
loop_
_symmetry_equiv_pos_as_xyz
  x,y,z
_cell_length_a	16.109301
_cell_length_b	16.109302
_cell_length_c	15.186229
_cell_angle_alpha	89.996374
_cell_angle_beta	90.000638
_cell_angle_gamma	96.538228
loop_
_atom_site_label
_atom_site_type_symbol
_atom_site_fract_x
_atom_site_fract_y
_atom_site_fract_z
O1	O	-1.103131	0.106866	-0.073173
O2	O	-0.861069	0.120165	-0.073187
O3	O	-0.988749	-0.007515	-0.073174
O4	O	-0.975451	0.234547	-0.073186
O5	O	-0.988741	-0.007517	0.073284
O6	O	-0.861061	0.120163	0.073271
O7	O	-1.103123	0.106864	0.073285
Zn8	Zn	-0.982090	0.113514	0.096531
Zn9	Zn	-0.982102	0.113516	-0.096433
O10	O	-0.975443	0.234545	0.073272
C11	C	-0.830090	0.119626	0.000040
C12	C	-0.737795	0.118011	0.000035
C13	C	-0.988206	-0.038491	0.000054
C14	C	-0.986591	-0.130786	0.000053
C15	C	-1.134102	0.107404	0.000056
C16	C	-1.226397	0.109019	0.000055
C17	C	-0.515523	0.190018	0.000042
C18	C	-0.428802	0.188494	0.000047
C19	C	-0.448676	0.037006	0.000051
C20	C	-0.535395	0.038530	0.000052
C21	C	-0.568816	0.115039	0.000043
C22	C	-0.395376	0.111990	0.000048
C23	C	-0.301350	0.110337	0.000054
C24	C	-0.662848	0.116693	0.000038
C25	C	-0.975986	0.265520	0.000042
C26	C	-0.977601	0.357816	0.000037
C27	C	-0.981341	0.570158	-0.079791
C28	C	-0.982867	0.656878	-0.079789
C29	C	-0.982854	0.656865	0.079887
C30	C	-0.981333	0.570146	0.079884
C31	C	-0.980572	0.526795	0.000043
C32	C	-0.983619	0.700234	0.000048
C33	C	-0.985275	0.794260	0.000050
C34	C	-0.978919	0.432763	0.000040
N35	N	-0.982089	0.113511	0.228224
N36	N	-0.982110	0.113511	-0.228126
C37	C	-1.038645	0.056993	0.453952
C38	C	-1.038647	0.056992	0.546142
C39	C	-0.925548	0.170032	0.546139
C40	C	-0.925542	0.170029	0.453951
C41	C	-0.982095	0.113511	0.407860
C42	C	-0.982104	0.113512	0.592238
C43	C	-0.982106	0.113510	0.692194
C44	C	-0.982092	0.113512	0.307898
H45	H	-0.542731	0.252317	0.000041
H46	H	-0.578788	-0.022530	0.000055
H47	H	-1.084693	0.010972	0.416427
C48	C	-0.863324	0.232180	0.596838
H49	H	-0.829632	0.265827	0.556182
H50	H	-0.893198	0.266809	0.632809
H51	H	-0.828735	0.202234	0.632792
H52	H	-0.980720	0.534864	-0.144803
C53	C	-0.983680	0.704551	0.167708
H54	H	-0.983011	0.666303	0.215253
H55	H	-0.935817	0.744734	0.171022
H56	H	-1.032732	0.732026	0.171034
C57	C	-0.983707	0.704574	-0.167605
H58	H	-0.983030	0.666334	-0.215153
H59	H	-1.032755	0.732049	-0.170924
H60	H	-0.935840	0.744758	-0.170925
C61	C	-0.370184	0.270971	0.000040
H62	H	-0.402511	0.316752	0.000028
H63	H	-0.335941	0.273528	0.051113
H64	H	-0.335943	0.273524	-0.051040
H65	H	-0.980710	0.534839	0.144898
C66	C	-0.411910	-0.047147	0.000050
H67	H	-0.352630	-0.037318	0.000040
H68	H	-0.430202	-0.078024	0.051122
H69	H	-0.430207	-0.078012	-0.051030
C70	C	-1.100855	-0.005175	0.596839
H71	H	-1.134537	-0.038829	0.556183
H72	H	-1.070964	-0.039795	0.632808
H73	H	-1.135457	0.024751	0.632795
C74	C	-0.863336	0.232204	0.403247
H75	H	-0.829664	0.265873	0.443899
H76	H	-0.828737	0.202285	0.367289
H77	H	-0.893238	0.266822	0.367279
