data_functionalizedCrystal
_audit_creation_method	'MofGen! by Chris Wilmer'
_symmetry_space_group_name_H-M	'P1'
_symmetry_Int_Tables_number	1
_symmetry_cell_setting	triclinic
loop_
_symmetry_equiv_pos_as_xyz
  x,y,z
_cell_length_a	10.489741
_cell_length_b	14.044220
_cell_length_c	12.503572
_cell_angle_alpha	86.156832
_cell_angle_beta	86.448361
_cell_angle_gamma	91.135974
loop_
_atom_site_label
_atom_site_type_symbol
_atom_site_fract_x
_atom_site_fract_y
_atom_site_fract_z
O1	O	1.714360	-0.128402	-0.089257
O2	O	1.344439	-0.140964	-0.089274
O3	O	1.523846	0.003339	-0.089255
O4	O	1.534953	-0.272705	-0.089275
O5	O	1.510356	-0.007531	0.089386
O6	O	1.330949	-0.151834	0.089367
O7	O	1.700869	-0.139273	0.089384
Cu8	Cu	1.514677	-0.146546	0.105687
Cu9	Cu	1.530631	-0.133690	-0.105576
O10	O	1.521462	-0.283575	0.089365
C11	C	1.290066	-0.145450	0.000045
C12	C	1.148150	-0.142611	0.000038
C13	C	1.512240	0.033251	0.000066
C14	C	1.497740	0.138576	0.000066
N15	N	1.503465	-0.155587	0.254278
C16	C	1.070696	-0.050796	0.000055
C17	C	0.989620	-0.088809	-0.088025
C18	C	0.976355	-0.099548	0.088101
C19	C	1.068948	-0.180657	-0.088114
C20	C	1.055686	-0.191389	0.088090
C21	C	0.974646	-0.229468	-0.000011
C22	C	1.755242	-0.134786	0.000063
C23	C	1.897160	-0.137625	0.000062
C24	C	1.533069	-0.313487	0.000042
C25	C	1.547569	-0.418812	0.000034
C26	C	1.471233	0.331419	0.000050
C27	C	1.574071	0.388351	0.000051
C28	C	1.559322	0.495655	0.000042
C29	C	1.485980	0.224105	0.000059
N30	N	1.541853	-0.124641	-0.254168
C31	C	1.486973	-0.168896	0.473391
C32	C	1.558341	-0.111336	0.526726
C33	C	1.549164	-0.118741	0.648648
C34	C	1.496148	-0.161492	0.351458
H35	H	1.112738	0.024690	-0.000049
C36	C	1.329629	0.436270	-0.091782
C37	C	1.337433	0.374409	0.000050
H38	H	1.247029	0.462822	-0.091773
H39	H	1.344326	0.401870	-0.154065
H40	H	1.392228	0.486083	-0.091775
H41	H	1.274839	0.324592	0.000039
H42	H	1.322722	0.408810	0.062349
H43	H	0.960288	-0.045428	-0.162486
C44	C	1.428481	-0.334730	0.508252
C45	C	1.395192	-0.242929	0.535347
H46	H	1.371815	-0.380433	0.546505
H47	H	1.513501	-0.346627	0.526616
H48	H	1.422682	-0.339390	0.433257
H49	H	1.401001	-0.238267	0.610341
H50	H	1.310151	-0.231028	0.516990
C51	C	1.023200	-0.252790	-0.250668
C52	C	1.123467	-0.226933	-0.188760
H53	H	1.056862	-0.281360	-0.312797
H54	H	0.977665	-0.197548	-0.271706
H55	H	0.967086	-0.297010	-0.209486
H56	H	1.179576	-0.182707	-0.229939
H57	H	1.169023	-0.282182	-0.167723
C58	C	0.836930	-0.351090	0.092181
C59	C	0.918261	-0.331460	-0.000078
H60	H	0.802126	-0.414056	0.092137
H61	H	0.769664	-0.306802	0.092799
H62	H	0.883852	-0.345737	0.154176
H63	H	0.871337	-0.336806	-0.062073
H64	H	0.985537	-0.375760	-0.000706
C65	C	1.048556	-0.207298	0.280767
C66	C	1.095344	-0.249905	0.188611
H67	H	1.073050	-0.243416	0.342829
H68	H	0.958023	-0.205441	0.281852
H69	H	1.082883	-0.144146	0.280125
H70	H	1.061008	-0.313055	0.189249
H71	H	1.185894	-0.251773	0.187526
H72	H	0.935812	-0.065213	0.162566
H73	H	1.673195	0.356507	-0.000016
H74	H	1.626334	-0.056497	0.480820
