data_functionalizedCrystal
_audit_creation_method	'MofGen! by Chris Wilmer'
_symmetry_space_group_name_H-M	'P1'
_symmetry_Int_Tables_number	1
_symmetry_cell_setting	triclinic
loop_
_symmetry_equiv_pos_as_xyz
  x,y,z
_cell_length_a	6.817900
_cell_length_b	7.076028
_cell_length_c	9.582860
_cell_angle_alpha	87.215780
_cell_angle_beta	68.793233
_cell_angle_gamma	62.299348
loop_
_atom_site_label
_atom_site_type_symbol
_atom_site_fract_x
_atom_site_fract_y
_atom_site_fract_z
V1	V	4.239005	-0.664616	-0.204673
V2	V	4.739005	-0.164616	0.295327
O3	O	4.181484	-0.652367	0.012289
O4	O	4.681484	-0.152367	0.512289
O5	O	4.228498	-0.659684	-0.408192
O6	O	4.728498	-0.159684	0.091808
O7	O	4.265184	-0.954655	-0.200448
O8	O	4.765184	-0.454655	0.299552
O9	O	4.144544	-0.355354	-0.196893
O10	O	4.644544	0.144646	0.303107
V11	V	4.708060	-0.627673	-0.178849
V12	V	5.208060	-0.127673	0.321151
O13	O	4.532002	-0.745654	-0.261320
O14	O	5.032002	-0.245654	0.238680
O15	O	4.865260	-0.546635	-0.122202
O16	O	5.365260	-0.046635	0.377798
O17	O	4.495360	-0.632605	0.024669
O18	O	4.995360	-0.132605	0.524669
O19	O	4.882979	-0.639922	-0.395811
O20	O	5.382979	-0.139922	0.104189
O21	O	4.919918	-0.936935	-0.186629
O22	O	5.419918	-0.436935	0.313371
O23	O	4.458675	-0.337634	-0.183074
O24	O	4.958675	0.162366	0.316926
C25	C	4.080304	-0.649099	-0.457839
C26	C	4.580304	-0.149099	0.042161
C27	C	4.153497	-0.647000	-0.624211
C28	C	4.653497	-0.147000	-0.124211
C29	C	4.260085	-0.266916	-0.190685
C30	C	4.760085	0.233084	0.309315
C31	C	4.134063	-0.025354	-0.192830
C32	C	4.634063	0.474646	0.307170
C33	C	4.306896	-0.643184	0.074309
C34	C	4.806896	-0.143184	0.574309
C35	C	4.212945	-0.645297	0.240679
C36	C	4.712945	-0.145297	0.740679
