data_functionalizedCrystal
_audit_creation_method	'MofGen! by Chris Wilmer'
_symmetry_space_group_name_H-M	'P1'
_symmetry_Int_Tables_number	1
_symmetry_cell_setting	triclinic
loop_
_symmetry_equiv_pos_as_xyz
  x,y,z
_cell_length_a	15.944551
_cell_length_b	17.699077
_cell_length_c	16.776229
_cell_angle_alpha	89.993415
_cell_angle_beta	89.992397
_cell_angle_gamma	83.389657
loop_
_atom_site_label
_atom_site_type_symbol
_atom_site_fract_x
_atom_site_fract_y
_atom_site_fract_z
O1	O	0.106198	1.004263	-0.066279
O2	O	0.120023	0.783907	-0.066283
O3	O	-0.009177	0.900102	-0.066274
O4	O	0.235398	0.888068	-0.066289
O5	O	-0.009185	0.900087	0.066302
O6	O	0.120015	0.783892	0.066293
O7	O	0.106190	1.004247	0.066297
Zn8	Zn	0.113101	0.894067	0.087345
Zn9	Zn	0.113112	0.894087	-0.087331
O10	O	0.235390	0.888052	0.066288
C11	C	0.119524	0.755702	0.000004
C12	C	0.118041	0.671681	0.000003
C13	C	0.117337	0.632204	0.072271
C14	C	0.115930	0.553259	0.072272
C15	C	0.115232	0.513792	0.000004
C16	C	0.115933	0.553274	-0.072270
C17	C	0.117334	0.632219	-0.072270
C18	C	0.110280	0.234902	-0.072271
C19	C	0.108882	0.155951	-0.072265
C20	C	0.108876	0.155942	0.072271
C21	C	0.110277	0.234886	0.072271
C22	C	0.110974	0.274362	-0.000002
C23	C	0.112498	0.359964	-0.000002
C24	C	0.113714	0.428191	0.000003
C25	C	-0.040474	0.899595	0.000014
C26	C	-0.133717	0.898097	0.000015
C27	C	-0.348413	0.822494	0.000002
C28	C	-0.409509	0.857594	0.065371
C29	C	-0.304437	0.895388	0.000009
C30	C	-0.409484	0.857626	-0.065339
C31	C	-0.469344	0.892765	-0.000001
C32	C	-0.364305	0.930508	0.065431
C33	C	-0.364274	0.930530	-0.065337
C34	C	-0.425352	0.965683	0.000048
C35	C	-0.209438	0.896896	0.000015
C36	C	-0.564342	0.891261	-0.000001
C37	C	0.266687	0.888559	-0.000002
C38	C	0.359930	0.890057	-0.000008
C39	C	0.106689	1.032453	0.000008
C40	C	0.108172	1.116474	0.000004
N41	N	0.113094	0.894059	0.206556
N42	N	0.113113	0.894102	-0.206542
C43	C	0.055907	0.945526	0.248277
C44	C	0.055907	0.945530	0.331729
C45	C	0.113097	0.894070	0.373459
C46	C	0.170286	0.842598	0.331732
C47	C	0.170282	0.842591	0.248281
C48	C	0.170302	0.842625	0.668279
C49	C	0.170304	0.842638	0.751735
C50	C	0.055927	0.945564	0.751727
C51	C	0.055923	0.945557	0.668276
C52	C	0.113109	0.894083	0.626557
C53	C	0.113108	0.894078	0.536068
C54	C	0.113103	0.894078	0.463945
H55	H	0.110850	0.267016	0.131119
H56	H	0.108312	0.123820	-0.131118
H57	H	-0.344383	0.961306	0.120756
H58	H	0.108305	0.123791	0.131120
O59	O	0.225870	0.792701	0.207662
C60	C	0.277645	0.833226	0.159386
H61	H	0.244108	0.892448	0.146877
H62	H	0.290973	0.801631	0.100708
H63	H	0.339721	0.838370	0.191534
O64	O	-0.433482	0.820947	-0.131292
C65	C	-0.489462	0.871108	-0.176901
H66	H	-0.520535	0.918390	-0.136949
H67	H	-0.540103	0.838571	-0.204136
H68	H	-0.453016	0.896926	-0.226497
H69	H	-0.429555	0.826756	0.120634
H70	H	0.216849	0.800695	0.365712
H71	H	0.009360	0.987476	0.785704
H72	H	0.009340	0.987433	0.214306
O73	O	0.225936	0.792600	0.627883
C74	C	0.276400	0.747175	0.682612
H75	H	0.277305	0.778214	0.742089
H76	H	0.343497	0.735625	0.658494
H77	H	0.249205	0.690954	0.691509
H78	H	0.117913	0.664332	0.131121
O79	O	0.000247	0.995502	0.372165
C80	C	-0.082892	0.983199	0.351803
H81	H	-0.082752	0.954015	0.291222
H82	H	-0.124326	1.040093	0.348934
H83	H	-0.108824	0.945542	0.398786
H84	H	0.110845	0.267034	-0.131121
O85	O	-0.465086	1.037920	-0.000066
C86	C	-0.515442	1.049481	-0.069043
H87	H	-0.490323	1.007207	-0.117036
H88	H	-0.513345	1.109925	-0.091810
H89	H	-0.583377	1.040663	-0.054059
H90	H	0.216877	0.800730	0.785710
O91	O	-0.340347	0.967177	-0.131348
C92	C	-0.363116	0.928566	-0.200135
H93	H	-0.369751	0.866859	-0.184475
H94	H	-0.312191	0.930421	-0.247570
H95	H	-0.425816	0.957196	-0.223984
O96	O	0.000191	0.995469	0.627843
C97	C	-0.082893	0.983105	0.648362
H98	H	-0.083132	0.922491	0.671276
H99	H	-0.125148	0.991818	0.593545
H100	H	-0.107585	1.025009	0.696855
O101	O	0.115138	0.515013	0.142528
C102	C	0.042752	0.542868	0.186489
H103	H	0.019529	0.603045	0.165934
H104	H	0.059154	0.543642	0.252601
H105	H	-0.008960	0.504443	0.176483
O106	O	0.115405	0.514885	-0.142450
C107	C	0.187304	0.460637	-0.146769
H108	H	0.238548	0.478435	-0.105761
H109	H	0.211701	0.456869	-0.210689
H110	H	0.169803	0.402743	-0.127349
O111	O	0.118059	0.670447	-0.142543
C112	C	0.117124	0.618688	-0.206330
H113	H	0.142705	0.559278	-0.185144
H114	H	0.158297	0.636697	-0.256876
H115	H	0.049616	0.618237	-0.228548
H116	H	-0.314976	0.761989	0.000066
