data_functionalizedCrystal
_audit_creation_method	'MofGen! by Chris Wilmer'
_symmetry_space_group_name_H-M	'P1'
_symmetry_Int_Tables_number	1
_symmetry_cell_setting	triclinic
loop_
_symmetry_equiv_pos_as_xyz
  x,y,z
_cell_length_a	14.908932
_cell_length_b	19.805405
_cell_length_c	19.805399
_cell_angle_alpha	90.029301
_cell_angle_beta	86.725129
_cell_angle_gamma	93.326421
loop_
_atom_site_label
_atom_site_type_symbol
_atom_site_fract_x
_atom_site_fract_y
_atom_site_fract_z
Zn1	Zn	-1.379146	0.209746	-0.323081
Zn2	Zn	-0.879146	0.709746	0.176919
Zn3	Zn	-1.379033	0.322940	-0.209895
Zn4	Zn	-0.879033	0.822940	0.290105
Zn5	Zn	-1.228287	0.216299	-0.216429
Zn6	Zn	-0.728287	0.716299	0.283571
Zn7	Zn	-1.228239	0.329435	-0.329561
Zn8	Zn	-0.728239	0.829435	0.170439
O9	O	-1.303676	0.269605	-0.269741
O10	O	-0.803676	0.769605	0.230259
O11	O	-1.505374	0.219301	-0.302620
O12	O	-1.005374	0.719301	0.197380
O13	O	-1.359009	0.308818	-0.116046
O14	O	-0.859009	0.808818	0.383954
O15	O	-1.248367	0.120710	-0.230599
O16	O	-0.748367	0.620710	0.269401
O17	O	-1.505291	0.302464	-0.219463
O18	O	-1.005291	0.802464	0.280537
O19	O	-1.359202	0.115896	-0.308956
O20	O	-0.859202	0.615896	0.191044
O21	O	-1.248257	0.230469	-0.120846
O22	O	-0.748257	0.730469	0.379154
O23	O	-1.102038	0.236767	-0.236882
O24	O	-0.602038	0.736767	0.263118
O25	O	-1.248284	0.313534	-0.423417
O26	O	-0.748284	0.813534	0.076583
O27	O	-1.102002	0.319888	-0.320000
O28	O	-0.602002	0.819888	0.180000
O29	O	-1.359155	0.225599	-0.418656
O30	O	-0.859155	0.725599	0.081344
O31	O	-1.358962	0.418521	-0.225746
O32	O	-0.858962	0.918521	0.274254
O33	O	-1.248174	0.423293	-0.313665
O34	O	-0.748174	0.923293	0.186335
C35	C	-1.069287	0.279744	-0.279854
C36	C	-0.569287	0.779744	0.220146
C37	C	-0.969014	0.284097	-0.284196
C38	C	-0.469014	0.784097	0.215804
C39	C	-0.827689	0.333576	-0.333513
C40	C	-0.327689	0.833576	0.166487
C41	C	-0.921904	0.329485	-0.329439
C42	C	-0.421904	0.829485	0.170561
C43	C	-0.921902	0.242798	-0.243022
C44	C	-0.421902	0.742798	0.256978
C45	C	-0.827686	0.246888	-0.247096
C46	C	-0.327686	0.746888	0.252904
C47	C	-0.780583	0.292278	-0.292344
C48	C	-0.280583	0.792278	0.207656
C49	C	-0.686366	0.296365	-0.296421
C50	C	-0.186366	0.796365	0.203579
C51	C	-0.686365	0.209681	-0.210001
C52	C	-0.186365	0.709681	0.289999
C53	C	-0.780580	0.205591	-0.205927
C54	C	-0.280580	0.705591	0.294073
C55	C	-1.303575	0.445465	-0.269713
C56	C	-0.803575	0.945465	0.230287
C57	C	-1.303614	0.520696	-0.269720
C58	C	-0.803614	1.020696	0.230280
C59	C	-1.303727	0.269560	-0.446282
C60	C	-0.803727	0.769560	0.053718
C61	C	-1.303749	0.269541	-0.521513
C62	C	-0.803749	0.769541	-0.021513
C63	C	-0.538981	0.259421	-0.259586
C64	C	-0.038981	0.759421	0.240414
C65	C	-0.639254	0.255065	-0.255247
C66	C	-0.139254	0.755065	0.244753
C67	C	-1.303803	0.093057	-0.269784
C68	C	-0.803803	0.593057	0.230216
C69	C	-1.303857	0.017822	-0.269802
C70	C	-0.803857	0.517822	0.230198
C71	C	-1.361357	0.553530	-0.223984
C72	C	-0.861357	1.053530	0.276016
C73	C	-1.361395	0.624217	-0.223997
C74	C	-0.861395	1.124217	0.276003
C75	C	-1.303685	0.662068	-0.269744
C76	C	-0.803685	1.162068	0.230256
C77	C	-1.245940	0.629229	-0.315485
C78	C	-0.745940	1.129229	0.184515
C79	C	-1.245906	0.558543	-0.315474
C80	C	-0.745906	1.058543	0.184526
C81	C	-1.246073	0.914296	-0.315529
C82	C	-0.746073	1.414296	0.184471
C83	C	-1.246108	0.984987	-0.315535
C84	C	-0.746108	1.484987	0.184465
C85	C	-1.361562	0.979970	-0.224052
C86	C	-0.861562	1.479970	0.275948
C87	C	-1.361529	0.909285	-0.224041
C88	C	-0.861529	1.409285	0.275959
C89	C	-1.303787	0.876451	-0.269785
C90	C	-0.803787	1.376451	0.230215
C91	C	-1.303747	0.799804	-0.269770
C92	C	-0.803747	1.299804	0.230230
C93	C	-1.303720	0.738714	-0.269755
C94	C	-0.803720	1.238714	0.230245
C95	C	-1.361480	0.223751	-0.554379
C96	C	-0.861480	0.723751	-0.054379
C97	C	-1.361490	0.223731	-0.625067
C98	C	-0.861490	0.723731	-0.125067
C99	C	-1.303771	0.269505	-0.662888
C100	C	-0.803771	0.769505	-0.162888
C101	C	-1.246033	0.315297	-0.630017
C102	C	-0.746033	0.815297	-0.130017
C103	C	-1.246019	0.315313	-0.559330
C104	C	-0.746019	0.815313	-0.059330
C105	C	-1.246084	0.315231	-0.915088
C106	C	-0.746084	0.815231	-0.415088
C107	C	-1.246103	0.315213	-0.985779
C108	C	-0.746103	0.815213	-0.485779
C109	C	-1.361554	0.223650	-0.980825
C110	C	-0.861554	0.723650	-0.480825
C111	C	-1.361541	0.223666	-0.910139
C112	C	-0.861541	0.723666	-0.410139
C113	C	-1.303799	0.269455	-0.877274
C114	C	-0.803799	0.769455	-0.377274
C115	C	-1.303789	0.269476	-0.800626
C116	C	-0.803789	0.769476	-0.300626
C117	C	-1.303785	0.269488	-0.739534
C118	C	-0.803785	0.769488	-0.239534
C119	C	-1.303678	0.269599	-0.093885
C120	C	-0.803678	0.769599	0.406115
C121	C	-1.303831	0.269419	-0.018647
C122	C	-0.803831	0.769419	0.481353
H123	H	-0.648002	0.176051	-0.176481
H124	H	-0.148002	0.676051	0.323519
O125	O	-1.190070	0.359822	-0.527318
O126	O	-0.690070	0.859822	-0.027318
C127	C	-1.241400	0.401335	-0.484218
C128	C	-0.741400	0.901335	0.015782
H129	H	-1.309782	0.374506	-0.470694
H130	H	-0.809782	0.874506	0.029306
H131	H	-1.204643	0.412003	-0.436088
H132	H	-0.704643	0.912003	0.063912
H133	H	-1.251279	0.451063	-0.511016
H134	H	-0.751279	0.951063	-0.011016
O135	O	-1.417582	0.656212	-0.179722
O136	O	-0.917582	1.156212	0.320278
C137	C	-1.405296	0.726715	-0.189578
C138	C	-0.905296	1.226715	0.310422
H139	H	-1.375546	0.737609	-0.243032
H140	H	-0.875546	1.237609	0.256968
H141	H	-1.472942	0.750559	-0.182276
H142	H	-0.972942	1.250559	0.317724
H143	H	-1.357466	0.748988	-0.151396
H144	H	-0.857466	1.248988	0.348604
H145	H	-1.199080	0.352525	-0.888338
H146	H	-0.699080	0.852525	-0.388338
O147	O	-1.417501	0.516866	-0.179517
O148	O	-0.917501	1.016866	0.320483
C149	C	-1.468458	0.561008	-0.139142
C150	C	-0.968458	1.061008	0.360858
H151	H	-1.471584	0.611240	-0.166742
H152	H	-0.971584	1.111240	0.333258
H153	H	-1.539533	0.537468	-0.128893
H154	H	-1.039533	1.037468	0.371107
H155	H	-1.435464	0.570012	-0.089141
H156	H	-0.935464	1.070012	0.410859
H157	H	-0.960269	0.205849	-0.206179
H158	H	-0.460269	0.705849	0.293821
H159	H	-0.960254	0.363115	-0.362963
H160	H	-0.460254	0.863115	0.137037
H161	H	-1.408518	0.878468	-0.186788
H162	H	-0.908518	1.378468	0.313212
O163	O	-1.190158	0.359746	-1.022543
O164	O	-0.690158	0.859746	-0.522543
C165	C	-1.241496	0.401224	-1.061215
C166	C	-0.741496	0.901224	-0.561215
H167	H	-1.312538	0.402340	-1.036847
H168	H	-0.812538	0.902340	-0.536847
H169	H	-1.208826	0.454725	-1.063411
H170	H	-0.708826	0.954725	-0.563411
H171	H	-1.244635	0.380150	-1.114659
H172	H	-0.744635	0.880150	-0.614659
H173	H	-1.408581	1.006711	-0.186808
H174	H	-0.908581	1.506711	0.313192
O175	O	-0.640705	0.340415	-0.340463
O176	O	-0.140705	0.840415	0.159537
C177	C	-0.663750	0.324699	-0.406953
C178	C	-0.163750	0.824699	0.093047
H179	H	-0.732170	0.295713	-0.405444
H180	H	-0.232170	0.795713	0.094556
H181	H	-0.666964	0.373448	-0.437076
H182	H	-0.166964	0.873448	0.062924
H183	H	-0.610752	0.292229	-0.432106
H184	H	-0.110752	0.792229	0.067894
O185	O	-0.781833	0.377699	-0.377379
O186	O	-0.281833	0.877699	0.122621
C187	C	-0.727313	0.423748	-0.341129
C188	C	-0.227313	0.923748	0.158871
H189	H	-0.713182	0.400430	-0.290487
H190	H	-0.213182	0.900430	0.209513
H191	H	-0.661072	0.435728	-0.371550
H192	H	-0.161072	0.935728	0.128450
H193	H	-0.763599	0.472323	-0.332037
H194	H	-0.263599	0.972323	0.167963
O195	O	-1.189834	0.359695	-0.666728
O196	O	-0.689834	0.859695	-0.166728
C197	C	-1.099929	0.348806	-0.653321
C198	C	-0.599929	0.848806	-0.153321
H199	H	-1.095409	0.294933	-0.634102
H200	H	-0.595409	0.794933	-0.134102
H201	H	-1.055365	0.356556	-0.701726
H202	H	-0.555365	0.856556	-0.201726
H203	H	-1.076314	0.386124	-0.613296
H204	H	-0.576314	0.886124	-0.113296
H205	H	-1.199115	1.015804	-0.352793
H206	H	-0.699115	1.515804	0.147207
O207	O	-0.826442	0.161592	-0.161939
O208	O	-0.326442	0.661592	0.338061
C209	C	-0.880884	0.197708	-0.115787
C210	C	-0.380884	0.697708	0.384213
H211	H	-0.894982	0.248422	-0.138953
H212	H	-0.394982	0.748422	0.361047
H213	H	-0.947146	0.167252	-0.103903
H214	H	-0.447146	0.667252	0.396097
H215	H	-0.844548	0.206652	-0.067184
H216	H	-0.344548	0.706652	0.432816
H217	H	-1.199055	0.887569	-0.352774
H218	H	-0.699055	1.387569	0.147226
O219	O	-1.189908	0.666099	-0.359859
O220	O	-0.689908	1.166099	0.140141
C221	C	-1.202332	0.735529	-0.350072
C222	C	-0.702332	1.235529	0.149928
H223	H	-1.231924	0.743918	-0.296580
H224	H	-0.731924	1.243918	0.203420
H225	H	-1.134765	0.765357	-0.357540
H226	H	-0.634765	1.265357	0.142460
H227	H	-1.250349	0.753454	-0.388181
H228	H	-0.750349	1.253454	0.111819
O229	O	-1.189732	0.526754	-0.359930
O230	O	-0.689732	1.026754	0.140070
C231	C	-1.138820	0.575317	-0.400323
C232	C	-0.638820	1.075317	0.099677
H233	H	-1.135733	0.625858	-0.372737
H234	H	-0.635733	1.125858	0.127263
H235	H	-1.067729	0.558008	-0.410571
H236	H	-0.567729	1.058008	0.089429
H237	H	-1.171827	0.581354	-0.450322
H238	H	-0.671827	1.081354	0.049678
H239	H	-1.408485	0.186479	-0.523591
H240	H	-0.908485	0.686479	-0.023591
H241	H	-1.408503	0.186446	-0.651824
H242	H	-0.908503	0.686446	-0.151824
O243	O	-1.417511	0.179104	-0.873440
O244	O	-0.917511	0.679104	-0.373440
C245	C	-1.397852	0.112495	-0.891600
C246	C	-0.897852	0.612495	-0.391600
H247	H	-1.325787	0.112198	-0.914136
H248	H	-0.825787	0.612198	-0.414136
H249	H	-1.405636	0.078724	-0.844791
H250	H	-0.905636	0.578724	-0.344791
H251	H	-1.446235	0.092702	-0.930554
H252	H	-0.946235	0.592702	-0.430554
O253	O	-1.417553	0.179188	-1.012860
O254	O	-0.917553	0.679188	-0.512860
C255	C	-1.405205	0.188994	-1.083359
C256	C	-0.905205	0.688994	-0.583359
H257	H	-1.335569	0.214169	-1.096009
H258	H	-0.835569	0.714169	-0.596009
H259	H	-1.411367	0.138020	-1.109969
H260	H	-0.911367	0.638020	-0.609969
H261	H	-1.458693	0.222719	-1.101106
H262	H	-0.958693	0.722719	-0.601106
