data_functionalizedCrystal
_audit_creation_method	'MofGen! by Chris Wilmer'
_symmetry_space_group_name_H-M	'P1'
_symmetry_Int_Tables_number	1
_symmetry_cell_setting	triclinic
loop_
_symmetry_equiv_pos_as_xyz
  x,y,z
_cell_length_a	16.625547
_cell_length_b	18.215405
_cell_length_c	18.215399
_cell_angle_alpha	90.030551
_cell_angle_beta	90.023923
_cell_angle_gamma	90.024822
loop_
_atom_site_label
_atom_site_type_symbol
_atom_site_fract_x
_atom_site_fract_y
_atom_site_fract_z
Zn1	Zn	1.232660	-0.292993	0.416183
Zn2	Zn	1.232559	-0.416064	0.293111
Zn3	Zn	1.097824	-0.293016	0.293121
Zn4	Zn	1.097786	-0.416022	0.416127
O5	O	1.165207	-0.354524	0.354636
O6	O	1.345479	-0.309327	0.399876
O7	O	1.214660	-0.399769	0.190128
O8	O	1.115768	-0.190029	0.309474
O9	O	1.345405	-0.399747	0.309456
O10	O	1.214831	-0.190012	0.399886
O11	O	1.115670	-0.309366	0.190136
O12	O	0.984986	-0.309325	0.309419
O13	O	1.115704	-0.399675	0.519119
O14	O	0.984959	-0.399697	0.399791
O15	O	1.214795	-0.309286	0.519160
O16	O	1.214624	-0.519043	0.309402
O17	O	1.115607	-0.519012	0.399781
C18	C	0.955716	-0.354510	0.354601
C19	C	0.866095	-0.354521	0.354603
C20	C	1.165122	-0.545730	0.354600
C21	C	1.165160	-0.627529	0.354610
C22	C	1.216839	-0.815715	0.307636
C23	C	1.216875	-0.892573	0.307654
C24	C	1.113679	-0.892581	0.401688
C25	C	1.113648	-0.815724	0.401674
C26	C	1.165226	-0.777293	0.354643
C27	C	1.165294	-0.931009	0.354676
C28	C	1.165332	-1.014342	0.354695
C29	C	1.165189	-0.693954	0.354624
C30	C	0.793313	-0.354523	0.354613
C31	C	0.702004	-0.354527	0.354631
C32	C	0.629228	-0.354533	0.354650
C33	C	0.537914	-0.354538	0.354667
C34	C	1.375516	-0.354539	0.354671
C35	C	1.465137	-0.354545	0.354686
C36	C	1.165256	-0.354473	0.546589
C37	C	1.165277	-0.354452	0.628388
C38	C	1.165315	-0.162571	0.354687
C39	C	1.165361	-0.080772	0.354709
C40	C	1.165205	-0.354521	0.163429
C41	C	1.165340	-0.354336	0.081631
C42	C	1.216893	-0.307342	0.816604
C43	C	1.216902	-0.307320	0.893463
C44	C	1.113719	-0.401447	0.893409
C45	C	1.113706	-0.401464	0.816552
C46	C	1.165297	-0.354413	0.778151
C47	C	1.165320	-0.354374	0.931867
C48	C	1.165330	-0.354351	1.015201
C49	C	1.165286	-0.354435	0.694812
H50	H	1.258839	-0.784426	0.269342
O51	O	1.267083	-0.261737	0.779267
C52	C	1.319122	-0.303641	0.734793
H53	H	1.324084	-0.361598	0.757937
H54	H	1.381184	-0.277020	0.733943
H55	H	1.294179	-0.306189	0.676538
O56	O	1.267100	-0.261574	0.930702
C57	C	1.312614	-0.220038	0.880325
H58	H	1.315380	-0.250197	0.825531
H59	H	1.376150	-0.212186	0.902549
H60	H	1.283117	-0.164145	0.872158
H61	H	1.071717	-0.439757	0.924684
H62	H	1.071618	-0.784438	0.439956
O63	O	1.063559	-0.447263	0.779307
C64	C	1.018017	-0.488780	0.829679
H65	H	1.051049	-0.491320	0.884474
H66	H	1.009383	-0.546767	0.807449
H67	H	0.956795	-0.461827	0.837846
H68	H	1.258904	-0.923853	0.269376
H69	H	1.071684	-0.923881	0.439978
