data_functionalizedCrystal
_audit_creation_method	'MofGen! by Chris Wilmer'
_symmetry_space_group_name_H-M	'P1'
_symmetry_Int_Tables_number	1
_symmetry_cell_setting	triclinic
loop_
_symmetry_equiv_pos_as_xyz
  x,y,z
_cell_length_a	14.908783
_cell_length_b	12.645330
_cell_length_c	14.908308
_cell_angle_alpha	86.729519
_cell_angle_beta	90.211273
_cell_angle_gamma	93.308814
loop_
_atom_site_label
_atom_site_type_symbol
_atom_site_fract_x
_atom_site_fract_y
_atom_site_fract_z
Zn1	Zn	1.345328	-0.370782	0.587852
Zn2	Zn	1.845328	0.129218	1.087852
Zn3	Zn	1.353915	-0.537296	0.437502
Zn4	Zn	1.853915	-0.037296	0.937502
Zn5	Zn	1.203642	-0.369635	0.428823
Zn6	Zn	1.703642	0.130365	0.928823
Zn7	Zn	1.194941	-0.557596	0.579125
Zn8	Zn	1.694941	-0.057596	1.079125
O9	O	1.274457	-0.458827	0.508326
O10	O	1.774457	0.041173	1.008326
O11	O	1.472295	-0.384855	0.575192
O12	O	1.972295	0.115145	1.075192
O13	O	1.341216	-0.506080	0.310527
O14	O	1.841216	-0.006080	0.810527
O15	O	1.222484	-0.221438	0.449939
O16	O	1.722484	0.278562	0.949939
O17	O	1.478604	-0.507193	0.464731
O18	O	1.978604	-0.007193	0.964731
O19	O	1.326581	-0.222281	0.566777
O20	O	1.826581	0.277719	1.066777
O21	O	1.230810	-0.382900	0.304151
O22	O	1.730810	0.117100	0.804151
O23	O	1.076660	-0.402584	0.441477
O24	O	1.576660	0.097416	0.941477
O25	O	1.207656	-0.541790	0.706106
O26	O	1.707656	-0.041790	1.206106
O27	O	1.070268	-0.540678	0.551903
O28	O	1.570268	-0.040678	1.051903
O29	O	1.318145	-0.404539	0.712518
O30	O	1.818145	0.095461	1.212518
O31	O	1.332779	-0.688338	0.456269
O32	O	1.832779	-0.188338	0.956269
O33	O	1.215982	-0.703252	0.560318
O34	O	1.715982	-0.203252	1.060318
C35	C	1.040838	-0.473710	0.494802
C36	C	1.540838	0.026290	0.994802
C37	C	0.940894	-0.480104	0.489037
C38	C	1.440894	0.019896	0.989037
C39	C	0.746507	-0.364927	0.593405
C40	C	1.246507	0.135073	1.093405
C41	C	0.652601	-0.370931	0.587991
C42	C	1.152601	0.129069	1.087991
C43	C	0.659173	-0.498110	0.472794
C44	C	1.159173	0.001890	0.972794
C45	C	0.753079	-0.492105	0.478207
C46	C	1.253079	0.007895	0.978207
C47	C	0.796743	-0.425513	0.538515
C48	C	1.296743	0.074487	1.038515
C49	C	0.890651	-0.419515	0.543932
C50	C	1.390651	0.080485	1.043932
C51	C	0.897222	-0.546688	0.428731
C52	C	1.397222	-0.046688	0.928731
C53	C	0.803315	-0.552692	0.423318
C54	C	1.303315	-0.052692	0.923318
C55	C	1.274392	-0.734260	0.508309
C56	C	1.774392	-0.234260	1.008309
C57	C	1.274444	-0.852089	0.508337
C58	C	1.774444	-0.352089	1.008337
C59	C	1.201241	-1.029076	0.574026
C60	C	1.701241	-0.529076	1.074026
C61	C	1.200900	-0.906523	0.573781
C62	C	1.700900	-0.406523	1.073781
C63	C	1.254266	-0.891525	0.412097
C64	C	1.754266	-0.391525	0.912097
C65	C	1.253819	-1.014181	0.412496
C66	C	1.753819	-0.514181	0.912496
C67	C	1.368294	-1.014844	0.538145
C68	C	1.868294	-0.514844	1.038145
C69	C	1.367591	-0.892422	0.540183
C70	C	1.867591	-0.392422	1.040183
C71	C	1.508987	-0.443888	0.521903
C72	C	2.008987	0.056112	1.021903
C73	C	1.608930	-0.437521	0.527689
C74	C	2.108930	0.062479	1.027689
C75	C	1.260972	-0.475557	0.742849
C76	C	1.760972	0.024443	1.242849
C77	C	1.255226	-0.482686	0.842789
C78	C	1.755226	0.017314	1.342789
C79	C	1.274545	-0.182319	0.508363
C80	C	1.774545	0.317681	1.008363
C81	C	1.274583	-0.064487	0.508379
C82	C	1.774583	0.435513	1.008379
C83	C	1.287941	-0.442083	0.274717
C84	C	1.787941	0.057917	0.774717
C85	C	1.293861	-0.434644	0.174788
C86	C	1.793861	0.065356	0.674788
C87	C	1.359477	-0.353138	1.037265
C88	C	1.859477	0.146862	1.537265
C89	C	1.354080	-0.359833	1.131168
C90	C	1.854080	0.140167	1.631168
C91	C	1.239032	-0.502764	1.124499
C92	C	1.739032	-0.002764	1.624499
C93	C	1.244429	-0.496069	1.030596
C94	C	1.744429	0.003931	1.530596
C95	C	1.304654	-0.421255	0.986983
C96	C	1.804654	0.078745	1.486983
C97	C	1.310054	-0.414566	0.893079
C98	C	1.810054	0.085434	1.393079
C99	C	1.195002	-0.557492	0.886411
C100	C	1.695002	-0.057492	1.386411
C101	C	1.189606	-0.564186	0.980314
C102	C	1.689606	-0.064186	1.480314
H103	H	0.926201	-0.365293	0.593039
H104	H	1.426201	0.134707	1.093039
F105	F	1.423580	-0.273526	0.990847
F106	F	1.923580	0.226474	1.490847
F107	F	0.792979	-0.294065	0.657595
F108	F	1.292979	0.205935	1.157595
H109	H	1.398720	-0.304362	1.172104
H110	H	1.898720	0.195638	1.672104
F111	F	0.599139	-0.306444	0.646410
F112	F	1.099139	0.193556	1.146410
H113	H	0.938134	-0.596030	0.384043
H114	H	1.438134	-0.096030	0.884043
H115	H	0.623606	-0.552313	0.423684
H116	H	1.123606	-0.052313	0.923684
F117	F	0.756836	-0.623557	0.359134
F118	F	1.256836	-0.123557	0.859134
H119	H	1.359094	-0.353650	0.857570
H120	H	1.859094	0.146350	1.357570
F121	F	1.174936	-0.582373	1.170930
F122	F	1.674936	-0.082373	1.670930
H123	H	1.382908	-0.867038	0.611037
H124	H	1.882908	-0.367038	1.111037
F125	F	1.216571	-0.872353	0.666831
F126	F	1.716571	-0.372353	1.166831
F127	F	1.216700	-1.072803	0.667368
F128	F	1.716700	-0.572803	1.167368
F129	F	1.125512	-0.643803	1.026740
F130	F	1.625512	-0.143803	1.526740
H131	H	1.150364	-0.612960	0.845461
H132	H	1.650364	-0.112960	1.345461
F133	F	1.442205	-0.843412	0.482815
F134	F	1.942205	-0.343412	0.982815
F135	F	1.322189	-0.844342	0.346101
F136	F	1.822189	-0.344342	0.846101
H137	H	1.132086	-1.063309	0.554103
H138	H	1.632086	-0.563309	1.054103
H139	H	1.131317	-0.880634	0.553628
H140	H	1.631317	-0.380634	1.053628
F141	F	1.165913	-0.855296	0.379541
F142	F	1.665913	-0.355296	0.879541
H143	H	1.305216	-1.036909	0.361621
H144	H	1.805216	-0.536909	0.861621
F145	F	1.164493	-1.055557	0.380372
F146	F	1.664493	-0.555557	0.880372
H147	H	1.422868	-1.036899	0.490398
H148	H	1.922868	-0.536899	0.990398
H149	H	1.387771	-1.049065	0.607419
H150	H	1.887771	-0.549065	1.107419
