data_functionalizedCrystal
_audit_creation_method	'MofGen! by Chris Wilmer'
_symmetry_space_group_name_H-M	'P1'
_symmetry_Int_Tables_number	1
_symmetry_cell_setting	triclinic
loop_
_symmetry_equiv_pos_as_xyz
  x,y,z
_cell_length_a	13.262522
_cell_length_b	13.185407
_cell_length_c	9.130307
_cell_angle_alpha	89.997549
_cell_angle_beta	74.082727
_cell_angle_gamma	68.865832
loop_
_atom_site_label
_atom_site_type_symbol
_atom_site_fract_x
_atom_site_fract_y
_atom_site_fract_z
O1	O	1.351223	0.146675	-0.660032
O2	O	1.041136	0.162631	-0.536516
O3	O	1.249307	-0.003855	-0.619431
O4	O	1.143053	0.313162	-0.577118
O5	O	1.249302	-0.003857	-0.375830
O6	O	1.041131	0.162629	-0.292915
O7	O	1.351219	0.146674	-0.416431
Cu8	Cu	1.196174	0.154651	-0.332431
Cu9	Cu	1.196180	0.154653	-0.620517
O10	O	1.143048	0.313160	-0.333517
C11	C	1.002282	0.161737	-0.399241
C12	C	0.886521	0.159062	-0.353130
C13	C	0.832141	0.157806	-0.198672
C14	C	0.723382	0.155282	-0.155339
C15	C	0.668989	0.154023	-0.266458
C16	C	0.723366	0.155286	-0.420918
C17	C	0.832139	0.157802	-0.464257
C18	C	0.668988	0.154018	-0.532042
C19	C	0.723365	0.155282	-0.686502
C20	C	0.832127	0.157798	-0.729833
C21	C	0.886520	0.159058	-0.618715
C22	C	0.560215	0.151503	-0.488703
C23	C	0.560214	0.151499	-0.754288
C24	C	0.668973	0.154023	-0.797621
C25	C	1.260076	-0.044436	-0.501923
C26	C	1.292160	-0.165351	-0.514708
C27	C	0.985958	-0.455991	-0.392753
C28	C	0.955809	-0.342385	-0.380754
C29	C	1.039894	-0.298121	-0.414241
C30	C	1.154133	-0.367474	-0.459730
C31	C	1.184284	-0.481092	-0.471742
C32	C	1.238221	-0.323221	-0.493230
C33	C	1.352460	-0.392575	-0.538719
C34	C	1.382606	-0.506181	-0.550728
C35	C	1.298521	-0.550445	-0.517241
C36	C	1.208070	-0.209604	-0.481218
C37	C	1.406397	-0.234704	-0.560207
C38	C	1.436545	-0.348311	-0.572206
C39	C	1.390072	0.147568	-0.553710
C40	C	1.505833	0.150243	-0.599830
C41	C	1.132278	0.353741	-0.451028
C42	C	1.100194	0.474656	-0.438252
N43	N	1.196178	0.154649	-0.129809
N44	N	1.196187	0.154647	-0.823142
C45	C	1.380559	0.007269	-0.203258
C46	C	1.472756	-0.066418	-0.163318
C47	C	1.472767	-0.066419	-0.009989
C48	C	1.380569	0.007273	0.103408
C49	C	1.288373	0.080960	0.063468
C50	C	1.288374	0.080955	-0.089869
C51	C	1.103990	0.228334	0.136918
C52	C	1.103981	0.228342	-0.016412
C53	C	1.011793	0.302026	0.250315
C54	C	0.919598	0.375720	0.210375
C55	C	0.919591	0.375719	0.057035
C56	C	1.011784	0.302029	-0.056352
H57	H	0.515927	0.150475	-0.844770
H58	H	0.679121	0.154239	-0.029581
C59	C	0.500404	0.150122	-0.318806
C60	C	0.476763	0.244933	-0.199851
C61	C	0.416951	0.243555	-0.029942
C62	C	0.380780	0.147366	0.021012
C63	C	0.404421	0.052548	-0.097945
C64	C	0.464233	0.053926	-0.267854
H65	H	0.503539	0.316144	-0.237568
H66	H	0.399450	0.313746	0.058118
H67	H	0.336504	0.146346	0.146789
H68	H	0.377645	-0.018663	-0.060228
H69	H	0.481733	-0.016265	-0.355914
C70	C	1.498902	-0.186028	-0.597044
C71	C	1.505445	-0.111381	-0.473151
C72	C	1.597942	-0.062697	-0.509990
C73	C	1.683896	-0.088661	-0.670722
C74	C	1.677355	-0.163312	-0.794626
C75	C	1.584858	-0.211995	-0.757786
H76	H	1.441815	-0.092158	-0.354158
H77	H	1.602784	-0.007436	-0.418267
H78	H	1.752368	-0.052622	-0.697992
H79	H	1.740986	-0.182534	-0.913619
H80	H	1.580017	-0.267257	-0.849509
H81	H	1.380566	0.007271	-0.328113
C82	C	1.082414	-0.133323	-0.431172
C83	C	1.004758	-0.138594	-0.526735
C84	C	0.879094	-0.062313	-0.476682
C85	C	0.831087	0.019239	-0.331066
C86	C	0.908745	0.024513	-0.235493
C87	C	1.034408	-0.051768	-0.285547
H88	H	1.040294	-0.198966	-0.634537
H89	H	0.821606	-0.066218	-0.547432
H90	H	0.738063	0.075706	-0.294013
H91	H	0.873208	0.084885	-0.127691
H92	H	1.091896	-0.047864	-0.214797
C93	C	0.818171	0.456778	0.013108
C94	C	0.716802	0.537880	0.137829
C95	C	0.615379	0.618941	0.093911
C96	C	0.615325	0.618899	-0.074729
C97	C	0.716697	0.537793	-0.199461
C98	C	0.818120	0.456733	-0.155543
H99	H	0.716839	0.537914	0.262677
H100	H	0.540337	0.678981	0.186247
H101	H	0.540246	0.678905	-0.107240
H102	H	0.716660	0.537759	-0.324308
H103	H	0.893162	0.396693	-0.247879
H104	H	0.713262	0.155051	-0.923385
H105	H	0.580432	0.151970	-0.231166
H106	H	0.975079	0.161116	-0.653988
C107	C	0.891983	0.159196	-0.076470
C108	C	0.928160	0.255390	-0.054406
C109	C	0.988009	0.256782	0.067801
C110	C	1.011679	0.161981	0.167942
C111	C	0.975501	0.065780	0.145880
C112	C	0.915653	0.064388	0.023674
H113	H	0.910638	0.325574	-0.128539
H114	H	1.014790	0.327996	0.084132
H115	H	1.055982	0.163011	0.258406
H116	H	0.993023	-0.004404	0.220013
H117	H	0.888872	-0.006827	0.007343
H118	H	0.876405	0.158812	-0.855607
H119	H	1.015341	-0.205616	-0.404467
H120	H	0.862796	-0.285925	-0.343721
H121	H	0.917508	-0.492042	-0.365505
H122	H	1.323062	-0.642951	-0.526992
H123	H	1.475627	-0.562646	-0.587782
H124	H	1.529560	-0.404794	-0.609245
H125	H	1.011790	0.302025	-0.181206
H126	H	1.547821	-0.126420	-0.255659
H127	H	1.380578	0.007259	0.228257
H128	H	1.547838	-0.126425	0.022528
H129	H	1.011802	0.302018	0.375164
H130	H	0.844534	0.435710	0.302711
