data_functionalizedCrystal
_audit_creation_method	'MofGen! by Chris Wilmer'
_symmetry_space_group_name_H-M	'P1'
_symmetry_Int_Tables_number	1
_symmetry_cell_setting	triclinic
loop_
_symmetry_equiv_pos_as_xyz
  x,y,z
_cell_length_a	10.654554
_cell_length_b	15.995292
_cell_length_c	9.130313
_cell_angle_alpha	90.001944
_cell_angle_beta	89.998999
_cell_angle_gamma	83.977730
loop_
_atom_site_label
_atom_site_type_symbol
_atom_site_fract_x
_atom_site_fract_y
_atom_site_fract_z
O1	O	1.666257	0.117621	-0.121814
O2	O	1.300630	0.128821	-0.121810
O3	O	1.493476	0.001388	-0.121814
O4	O	1.473411	0.245053	-0.121810
O5	O	1.493474	0.001392	0.121784
O6	O	1.300627	0.128825	0.121789
O7	O	1.666255	0.117624	0.121785
Cu8	Cu	1.483441	0.123225	0.144029
Cu9	Cu	1.483444	0.123221	-0.144055
O10	O	1.473408	0.245057	0.121789
C11	C	1.253842	0.128000	-0.000010
C12	C	1.114432	0.125537	-0.000009
C13	C	1.492658	-0.029810	-0.000019
C14	C	1.490210	-0.122778	-0.000030
C15	C	0.932935	0.045875	-0.000030
C16	C	1.063926	0.048188	-0.000015
C17	C	1.033939	0.200576	-0.000004
C18	C	0.902951	0.198262	-0.000008
C19	C	0.950249	-0.042105	-0.000043
C20	C	1.081240	-0.039792	-0.000028
C21	C	1.481209	-0.460568	-0.000016
C22	C	1.620401	-0.436446	0.000527
C23	C	1.623046	-0.339755	-0.000028
C24	C	1.485675	-0.292986	-0.000022
C25	C	1.416088	-0.322494	-0.139124
C26	C	1.414412	-0.419295	-0.139235
C27	C	1.411567	-0.419164	0.137783
C28	C	1.416725	-0.322642	0.139616
C29	C	1.488192	-0.198276	-0.000030
C30	C	1.478688	-0.555279	-0.000018
C31	C	1.713043	0.118445	-0.000018
C32	C	1.852453	0.120908	-0.000029
C33	C	1.474226	0.276255	-0.000010
C34	C	1.476675	0.369223	-0.000009
N35	N	1.483448	0.123227	0.346652
N36	N	1.483446	0.123212	-0.346677
C37	C	1.568862	0.066819	0.423302
C38	C	1.568859	0.066809	0.576639
C39	C	1.398023	0.179622	0.576662
C40	C	1.398022	0.179627	0.423328
C41	C	1.667496	0.001690	0.423290
C42	C	1.667493	0.001680	0.576627
H43	H	0.837425	0.259361	0.000010
H44	H	1.127233	-0.066376	0.105156
C45	C	1.639682	-0.085252	0.367055
N46	N	1.618730	-0.150735	0.324699
C47	C	0.902620	-0.079963	-0.142131
N48	N	0.866746	-0.108480	-0.249152
H49	H	1.123442	-0.072938	-0.101976
H50	H	1.328460	0.225552	0.360921
C51	C	1.281264	-0.278894	0.150969
N52	N	1.179228	-0.245943	0.159509
C53	C	1.479541	-0.455149	-0.279702
N54	N	1.528605	-0.482151	-0.385501
H55	H	1.328470	0.225541	0.639108
H56	H	1.075071	0.263555	0.000015
C57	C	1.790315	0.029236	0.359033
N58	N	1.882823	0.049984	0.310633
H59	H	1.673754	-0.465155	-0.098671
H60	H	0.921346	-0.076514	0.101895
H61	H	1.637794	-0.059139	0.624173
H62	H	1.763813	0.016027	0.618243
C63	C	1.697104	-0.314458	-0.134979
N64	N	1.752884	-0.295406	-0.236632
H65	H	1.677545	-0.320412	0.099683
C66	C	1.276543	-0.439756	-0.147787
N67	N	1.172702	-0.455165	-0.154241
H68	H	1.674050	-0.464130	0.100282
H69	H	1.315001	-0.291215	-0.144291
H70	H	1.464413	-0.302154	-0.242646
C71	C	1.470478	-0.456989	0.280220
N72	N	1.514865	-0.485479	0.387497
C73	C	1.485148	-0.297132	0.278642
N74	N	1.536678	-0.277903	0.383355
H75	H	1.309111	-0.433751	0.138724
