data_functionalizedCrystal
_audit_creation_method	'MofGen! by Chris Wilmer'
_symmetry_space_group_name_H-M	'P1'
_symmetry_Int_Tables_number	1
_symmetry_cell_setting	triclinic
loop_
_symmetry_equiv_pos_as_xyz
  x,y,z
_cell_length_a	15.944551
_cell_length_b	15.944551
_cell_length_c	14.421503
_cell_angle_alpha	89.996660
_cell_angle_beta	89.996859
_cell_angle_gamma	96.501262
loop_
_atom_site_label
_atom_site_type_symbol
_atom_site_fract_x
_atom_site_fract_y
_atom_site_fract_z
O1	O	1.114529	-0.108320	-0.077017
O2	O	0.869980	-0.121677	-0.077040
O3	O	0.998933	0.007276	-0.077020
O4	O	0.985576	-0.237273	-0.077038
O5	O	0.998911	0.007257	0.077204
O6	O	0.869958	-0.121696	0.077183
O7	O	1.114508	-0.108340	0.077206
Cu8	Cu	0.992231	-0.115020	0.091277
Cu9	Cu	0.992256	-0.114997	-0.091110
O10	O	0.985555	-0.237293	0.077186
C11	C	0.838675	-0.121132	0.000069
C12	C	0.745429	-0.119470	0.000060
C13	C	0.998367	0.038561	0.000092
C14	C	0.996705	0.131807	0.000093
C15	C	0.530572	-0.035565	0.000084
C16	C	0.469563	-0.074518	-0.075959
C17	C	0.574703	-0.116462	0.000071
C18	C	0.469564	-0.074556	0.076093
C19	C	0.409790	-0.113551	0.000086
C20	C	0.514922	-0.155437	-0.076035
C21	C	0.514929	-0.155464	0.076086
C22	C	0.453937	-0.194476	0.000024
C23	C	0.669705	-0.118137	0.000062
C24	C	0.314789	-0.111883	0.000089
C25	C	1.145813	-0.108885	0.000096
C26	C	1.239059	-0.110547	0.000098
C27	C	0.986120	-0.268577	0.000072
C28	C	0.987782	-0.361823	0.000066
N29	N	0.992219	-0.115035	0.219558
C30	C	0.912801	0.346663	0.000072
C31	C	0.951753	0.407671	0.076117
C32	C	0.993698	0.302533	0.000085
C33	C	0.951793	0.407674	-0.075935
C34	C	0.990787	0.467445	0.000074
C35	C	1.032672	0.362312	0.076193
C36	C	1.032701	0.362308	-0.075927
C37	C	1.071711	0.423298	0.000136
C38	C	0.995372	0.207530	0.000092
C39	C	0.989119	0.562446	0.000073
N40	N	0.992275	-0.114975	-0.219392
C41	C	0.932581	-0.174636	0.469202
C42	C	1.008481	-0.190943	0.531011
C43	C	0.992240	-0.115015	0.408719
C44	C	0.916359	-0.098727	0.531005
C45	C	0.992253	-0.114997	0.591441
C46	C	1.068178	-0.131360	0.469167
C47	C	0.976007	-0.039111	0.469156
C48	C	1.051961	-0.055386	0.530936
C49	C	0.992231	-0.115027	0.303458
C50	C	0.992270	-0.114985	0.696700
H51	H	0.449461	-0.040294	-0.140243
H52	H	0.535052	-0.189660	0.140373
C53	C	1.153692	-0.150043	0.433087
C54	C	1.143499	-0.223500	0.379147
C55	C	1.222250	-0.240769	0.345917
H56	H	1.177837	-0.104104	0.396298
H57	H	1.189881	-0.157883	0.483932
H58	H	1.107324	-0.215654	0.328309
H59	H	1.119367	-0.269454	0.415916
H60	H	1.258439	-0.248609	0.396762
H61	H	1.246389	-0.194825	0.309132
H62	H	1.215346	-0.290614	0.309323
H63	H	0.962240	0.025051	0.441965
H64	H	1.102474	-0.004956	0.557872
C65	C	0.541681	-0.201105	-0.161744
C66	C	0.581462	-0.271107	-0.134716
C67	C	0.606135	-0.313186	-0.213644
H68	H	0.493367	-0.219423	-0.198070
H69	H	0.579763	-0.163846	-0.197287
H70	H	0.543383	-0.308360	-0.099188
H71	H	0.629785	-0.252814	-0.098400
H72	H	0.644217	-0.275927	-0.249188
H73	H	0.557817	-0.331498	-0.249965
H74	H	0.633136	-0.360683	-0.195317
C75	C	0.409604	-0.284040	-0.000179
C76	C	0.358585	-0.296169	-0.079140
C77	C	0.317722	-0.378659	-0.079357
H78	H	0.450471	-0.323003	-0.000766
H79	H	0.375609	-0.292801	0.053823
H80	H	0.392577	-0.287416	-0.133127
H81	H	0.317702	-0.257226	-0.078569
H82	H	0.283728	-0.387420	-0.025355
H83	H	0.358596	-0.417615	-0.079942
H84	H	0.283096	-0.386897	-0.132926
C85	C	0.442899	-0.028796	0.161782
C86	C	0.482090	0.054348	0.161427
C87	C	0.457558	0.096530	0.240348
H88	H	0.383368	-0.028426	0.161541
H89	H	0.459222	-0.056947	0.215804
H90	H	0.465762	0.082492	0.107418
H91	H	0.541620	0.054003	0.161681
H92	H	0.473880	0.068379	0.294371
H93	H	0.398027	0.096894	0.240100
H94	H	0.484151	0.152945	0.240122
H95	H	1.066897	0.342186	-0.140214
H96	H	1.066850	0.342314	0.140554
C97	C	0.823252	0.302288	0.000350
C98	C	0.781273	0.325133	0.080152
C99	C	0.698786	0.284262	0.080450
H100	H	0.794130	0.318435	-0.053061
H101	H	0.824898	0.242914	-0.000152
H102	H	0.779622	0.384494	0.080646
H103	H	0.810369	0.308985	0.133576
H104	H	0.700432	0.224887	0.079948
H105	H	0.669672	0.300412	0.027036
H106	H	0.670295	0.299750	0.134598
H107	H	0.917527	0.427771	0.140401
C108	C	0.574954	0.053981	-0.000202
C109	C	0.552111	0.095958	-0.080006
C110	C	0.592992	0.178440	-0.080314
H111	H	0.558814	0.083109	0.053208
H112	H	0.634328	0.052327	0.000298
H113	H	0.492751	0.097616	-0.080497
H114	H	0.568253	0.066855	-0.133428
H115	H	0.652366	0.176787	-0.079814
H116	H	0.576849	0.207561	-0.026901
H117	H	0.577505	0.206930	-0.134463
C118	C	0.830708	-0.080478	0.567091
C119	C	0.768493	-0.143091	0.535790
C120	C	0.689578	-0.126309	0.568999
H121	H	0.831363	-0.080112	0.632953
H122	H	0.818718	-0.026987	0.544973
H123	H	0.780480	-0.196568	0.557913
H124	H	0.767810	-0.143468	0.469932
H125	H	0.677588	-0.072818	0.546881
H126	H	0.690242	-0.125942	0.634860
H127	H	0.647355	-0.168784	0.547759
H128	H	1.138919	0.456457	0.000186
H129	H	0.882181	-0.225096	0.442096
H130	H	0.917575	0.427758	-0.140230
H131	H	1.022224	-0.255126	0.558180
