data_functionalizedCrystal
_audit_creation_method	'MofGen! by Chris Wilmer'
_symmetry_space_group_name_H-M	'P1'
_symmetry_Int_Tables_number	1
_symmetry_cell_setting	triclinic
loop_
_symmetry_equiv_pos_as_xyz
  x,y,z
_cell_length_a	19.851628
_cell_length_b	14.446369
_cell_length_c	19.851628
_cell_angle_alpha	60.002400
_cell_angle_beta	90.005228
_cell_angle_gamma	59.999397
loop_
_atom_site_label
_atom_site_type_symbol
_atom_site_fract_x
_atom_site_fract_y
_atom_site_fract_z
Zr1	Zr	0.648986	1.013123	-0.088350
O2	O	0.541424	1.206242	-0.195924
O3	O	0.681959	0.820004	-0.055369
O4	O	0.681965	1.013100	-0.195901
O5	O	0.541415	1.013163	0.055456
O6	O	0.792826	1.013082	-0.195887
O7	O	0.541419	1.013145	-0.055392
O8	O	0.792817	0.667668	0.055498
O9	O	0.541425	1.358578	-0.195929
O10	O	0.778758	0.899423	-0.041298
O11	O	0.696020	0.899450	0.041417
O12	O	0.696027	1.126796	-0.124041
O13	O	0.613289	1.126823	-0.041326
Zr14	Zr	0.825793	1.013123	0.088462
Zr15	Zr	0.825798	1.013094	-0.088329
Zr16	Zr	0.648981	1.013151	0.088441
Zr17	Zr	0.648988	1.256081	-0.088359
Zr18	Zr	0.825791	0.770165	0.088470
O19	O	0.792820	1.206242	0.055480
O20	O	0.792828	1.206201	-0.195894
O21	O	0.541417	1.206282	0.055450
O22	O	0.933355	0.820004	0.196036
O23	O	0.933363	0.819963	-0.055338
O24	O	0.681952	0.820044	0.196005
O25	O	0.933364	1.013082	-0.055345
O26	O	0.792815	1.013145	0.196012
O27	O	0.681953	1.013163	0.195999
O28	O	0.933361	1.013100	0.055504
O29	O	0.681967	1.358555	-0.195912
O30	O	0.792812	0.667690	0.196024
O31	O	0.933354	0.667668	0.196041
O32	O	0.933358	0.667645	0.055516
O33	O	0.541421	1.358600	-0.055404
O34	O	0.681963	1.358578	-0.055387
O35	O	0.778753	0.899450	0.124152
O36	O	0.861490	0.899423	0.041437
O37	O	0.778759	1.126796	-0.041306
O38	O	0.696022	1.126823	0.041410
C39	C	0.737388	0.709219	0.000066
C40	C	0.737387	0.606077	0.000069
C41	C	0.685454	0.459085	0.052477
C42	C	0.685172	0.566704	0.052265
C43	C	0.699324	0.655065	-0.089831
C44	C	0.698934	0.547832	-0.089559
C45	C	0.827419	0.372611	0.036789
C46	C	0.827287	0.478762	0.038623
C47	C	0.516225	1.013158	0.000029
C48	C	0.441164	1.013171	0.000020
C49	C	0.214711	1.137115	-0.045067
C50	C	0.192350	1.075135	-0.077752
C51	C	0.303757	1.013137	0.000043
C52	C	0.192377	1.075124	0.032713
C53	C	0.171025	1.013113	0.000066
C54	C	0.282385	0.951157	-0.032686
C55	C	0.282410	0.951163	0.077821
C56	C	0.260103	0.889093	0.045156
C57	C	0.380219	1.013154	0.000029
C58	C	0.094568	1.013086	0.000079
C59	C	0.958554	1.013087	0.000083
C60	C	1.033615	1.013075	0.000092
C61	C	0.737396	1.013087	-0.221083
C62	C	0.737399	1.013075	-0.296135
C63	C	0.737392	1.317026	0.000046
C64	C	0.737392	1.420168	0.000042
C65	C	0.782504	0.889131	-0.432386
C66	C	0.704711	0.951110	-0.499851
C67	C	0.737391	1.013109	-0.433567
C68	C	0.815168	0.951121	-0.499837
C69	C	0.737389	1.013132	-0.566316
C70	C	0.659552	1.075089	-0.500043
C71	C	0.770064	1.075082	-0.500018
C72	C	0.692225	1.137152	-0.567495
C73	C	0.737392	1.013092	-0.357092
C74	C	0.737379	1.013159	-0.642792
C75	C	0.737383	1.013158	0.221194
C76	C	0.737381	1.013171	0.296247
C77	C	0.958552	0.709184	0.000093
C78	C	1.033613	0.606030	0.000105
C79	C	0.737381	0.709255	0.221205
C80	C	0.737378	0.606125	0.296260
C81	C	0.958545	0.709219	0.221231
C82	C	1.033604	0.606077	0.296296
C83	C	0.516234	1.317026	-0.221120
C84	C	0.441175	1.420168	-0.296185
C85	C	0.516227	1.317062	0.000019
C86	C	0.441166	1.420216	0.000006
C87	C	0.737398	1.316990	-0.221093
C88	C	0.737401	1.420120	-0.296149
C89	C	1.025676	0.557587	-0.043083
C90	C	1.096197	0.460676	-0.043088
C91	C	1.174653	0.412203	0.000101
C92	C	1.182588	0.460655	0.043291
C93	C	1.112068	0.557571	0.043290
C94	C	0.780562	0.557694	0.374702
C95	C	0.780556	0.460806	0.445231
C96	C	0.737370	0.412344	0.437318
C97	C	0.694181	0.460785	0.358868
C98	C	0.694183	0.557678	0.288340
C99	C	1.112047	0.557627	0.288371
C100	C	1.182579	0.460727	0.358896
C101	C	1.174666	0.412274	0.437345
C102	C	1.096214	0.460734	0.445269
C103	C	1.025684	0.557638	0.374745
C104	C	0.362732	1.468630	-0.288260
C105	C	0.292200	1.565560	-0.358784
C106	C	0.300113	1.614019	-0.437234
C107	C	0.378565	1.565552	-0.445157
C108	C	0.449095	1.468631	-0.374633
C109	C	0.449103	1.468668	0.043187
C110	C	0.378582	1.565606	0.043173
C111	C	0.300126	1.614083	-0.000019
C112	C	0.292191	1.565626	-0.043205
C113	C	0.362711	1.468697	-0.043195
C114	C	0.780595	1.468551	-0.288209
C115	C	0.780614	1.565440	-0.358725
C116	C	0.737434	1.613902	-0.437180
C117	C	0.694238	1.565462	-0.445119
C118	C	0.694225	1.468568	-0.374603
H119	H	0.618766	0.655512	0.026789
O120	O	0.827206	1.617671	-0.350148
H121	H	0.783616	1.724582	-0.380226
O122	O	1.087683	0.408451	0.529883
H123	H	1.149910	0.332914	0.577584
H124	H	0.659082	1.604935	-0.509006
H125	H	0.356238	1.429250	-0.078356
O126	O	0.647623	1.416350	-0.383171
H127	H	0.617594	1.466346	-0.449574
H128	H	0.512966	1.429174	-0.381096
H129	H	1.246452	0.421281	0.352430
O130	O	1.087631	0.408417	-0.089665
H131	H	1.021226	0.458394	-0.119681
O132	O	0.207566	1.617925	-0.089788
H133	H	0.200382	1.536588	-0.064834
H134	H	0.196261	1.241944	-0.083271
H135	H	0.710704	0.530001	0.118464
O136	O	0.737450	1.718418	-0.513230
H137	H	0.700171	1.743984	-0.569124
H138	H	0.242711	1.693009	-0.000021
O139	O	0.827178	1.416293	-0.203597
H140	H	0.819915	1.340783	-0.155887
H141	H	0.153542	1.127526	-0.143519
H142	H	0.710851	0.370223	0.118841
H143	H	0.619440	0.494854	0.027214
O144	O	0.140984	1.144563	0.069305
H145	H	0.085607	1.143109	0.069514
H146	H	0.385059	1.605043	0.078343
H147	H	0.632687	0.588536	-0.118975
O148	O	1.250746	0.307740	0.513404
H149	H	1.232071	0.282180	0.569291
O150	O	0.941076	0.609866	0.383296
H151	H	0.947431	0.559870	0.449697
H152	H	0.321216	0.898817	0.143574
O153	O	0.224034	1.718570	-0.513293
H154	H	0.186789	1.681382	-0.513248
H155	H	0.797723	1.127427	-0.499310
H156	H	0.356273	1.429180	-0.224389
H157	H	0.734320	0.525851	-0.130749
H158	H	0.735336	0.683838	-0.130588
O159	O	1.120602	0.609880	0.203766
H160	H	1.090552	0.591269	0.169565
H161	H	0.633710	0.747378	-0.119448
H162	H	0.228328	1.605005	-0.352317
H163	H	0.815729	0.421378	0.509102
O164	O	0.832963	0.750280	-0.355763
H165	H	0.793351	0.734283	-0.318416
O166	O	0.387088	1.617828	-0.529775
H167	H	0.453484	1.567860	-0.523448
O168	O	0.533719	1.416411	0.089761
H169	H	0.527377	1.466418	0.119769
O170	O	0.902291	0.881686	-0.500705
H171	H	0.939606	0.778795	-0.445293
O172	O	0.668109	0.881707	-0.500759
H173	H	0.650424	0.846289	-0.444755
O174	O	0.869534	0.248486	0.123148
H175	H	0.826762	0.219305	0.140843
O176	O	0.647631	0.408464	0.350352
H177	H	0.599906	0.427046	0.380420
O178	O	0.737387	0.307816	0.513391
H179	H	0.774685	0.282273	0.569262
H180	H	1.246476	0.421174	0.078454
H181	H	0.961800	0.597053	-0.078263
O182	O	1.250712	0.307662	0.000107
H183	H	1.232005	0.282118	-0.037176
H184	H	0.869244	0.500252	0.004406
O185	O	0.864945	0.426257	0.126370
H186	H	0.819834	0.490569	0.142461
H187	H	0.866298	0.346624	-0.001221
H188	H	1.118541	0.597000	0.078464
O189	O	0.827140	0.609960	0.383247
H190	H	0.857155	0.560003	0.449646
O191	O	0.572382	1.144431	-0.499267
H192	H	0.573070	1.143824	-0.443137
H193	H	0.321081	0.898788	-0.060382
H194	H	0.278707	0.784178	0.083306
O195	O	0.647736	0.609729	0.203735
H196	H	0.617762	0.559673	0.210090
H197	H	0.654020	1.242067	-0.625244
