data_functionalizedCrystal
_audit_creation_method	'MofGen! by Chris Wilmer'
_symmetry_space_group_name_H-M	'P1'
_symmetry_Int_Tables_number	1
_symmetry_cell_setting	triclinic
loop_
_symmetry_equiv_pos_as_xyz
  x,y,z
_cell_length_a	10.723024
_cell_length_b	14.044220
_cell_length_c	9.198806
_cell_angle_alpha	89.995861
_cell_angle_beta	89.996352
_cell_angle_gamma	88.828373
loop_
_atom_site_label
_atom_site_type_symbol
_atom_site_fract_x
_atom_site_fract_y
_atom_site_fract_z
O1	O	1.670498	0.133040	-0.120888
O2	O	1.308620	0.145774	-0.120893
O3	O	1.484127	0.001387	-0.120876
O4	O	1.494991	0.277427	-0.120905
O5	O	1.484112	0.001387	0.120909
O6	O	1.308604	0.145774	0.120892
O7	O	1.670483	0.133039	0.120898
Cu8	Cu	1.489542	0.139407	0.142972
Cu9	Cu	1.489560	0.139407	-0.142967
O10	O	1.494975	0.277427	0.120881
C11	C	1.262020	0.144847	-0.000001
C12	C	1.123188	0.142075	-0.000003
C13	C	1.056288	0.222866	-0.000012
C14	C	0.912798	0.220002	-0.000013
C15	C	1.479364	-0.033958	0.000017
C16	C	1.465180	-0.139276	0.000019
C17	C	1.439248	-0.332106	-0.000003
C18	C	1.539849	-0.389085	-0.000006
C19	C	1.525420	-0.496383	-0.000017
C20	C	1.453675	-0.224799	0.000009
C21	C	1.717083	0.133966	0.000002
C22	C	1.855914	0.136739	-0.000006
C23	C	1.499738	0.312772	-0.000016
C24	C	1.513923	0.418090	-0.000027
N25	N	1.489539	0.139406	0.344086
N26	N	1.489573	0.139401	-0.344081
C27	C	1.563202	0.078514	0.416290
C28	C	1.563221	0.078511	0.583702
H29	H	0.855286	0.289166	-0.000027
H30	H	1.342291	-0.363906	-0.000008
C31	C	1.648389	0.008086	0.332384
C32	C	1.648123	0.008098	0.164979
C33	C	1.733313	-0.062334	0.081080
C34	C	1.818768	-0.132777	0.164585
C35	C	1.819037	-0.132791	0.332000
C36	C	1.733847	-0.062360	0.415900
H37	H	1.584861	0.060246	0.103155
H38	H	1.733114	-0.062323	-0.042852
H39	H	1.881831	-0.184914	0.102478
H40	H	1.882299	-0.184939	0.393824
H41	H	1.734046	-0.062371	0.539831
C42	C	1.648426	0.008080	0.667573
C43	C	1.591232	-0.064586	0.772318
C44	C	1.676440	-0.135020	0.856192
C45	C	1.818841	-0.132787	0.835322
C46	C	1.876042	-0.060118	0.730573
C47	C	1.790834	0.010316	0.646699
H48	H	1.485812	-0.066242	0.787771
H49	H	1.634095	-0.188815	0.933735
H50	H	1.881916	-0.184926	0.897411
H51	H	1.981462	-0.058462	0.715120
H52	H	1.833179	0.064111	0.569156
C53	C	1.404365	0.209834	0.572057
C54	C	1.261896	0.207068	0.591994
C55	C	1.176689	0.277501	0.508120
C56	C	1.233950	0.350701	0.404308
C57	C	1.376426	0.353471	0.384366
C58	C	1.461634	0.283037	0.468240
H59	H	1.219502	0.152878	0.668846
H60	H	1.071218	0.275451	0.522883
H61	H	1.170875	0.402840	0.342219
H62	H	1.418821	0.407660	0.307514
H63	H	1.567104	0.285087	0.453477
C64	C	0.933592	0.043292	0.000005
C65	C	0.920111	-0.028292	0.125565
C66	C	0.997799	-0.121738	0.125575
C67	C	1.088967	-0.143600	0.000027
C68	C	1.102451	-0.072014	-0.125542
C69	C	1.024763	0.021432	-0.125553
H70	H	0.852620	-0.012110	0.218512
H71	H	0.987817	-0.174731	0.218530
H72	H	1.146476	-0.212775	0.000034
H73	H	1.169943	-0.088196	-0.218490
H74	H	1.034746	0.074425	-0.218508
H75	H	1.105243	0.294155	-0.000011
H76	H	1.426481	0.191531	0.406208
H77	H	1.074234	0.070786	-0.000032
H78	H	1.636814	-0.357284	-0.000102
