data_functionalizedCrystal
_audit_creation_method	'MofGen! by Chris Wilmer'
_symmetry_space_group_name_H-M	'P1'
_symmetry_Int_Tables_number	1
_symmetry_cell_setting	triclinic
loop_
_symmetry_equiv_pos_as_xyz
  x,y,z
_cell_length_a	12.827893
_cell_length_b	12.827892
_cell_length_c	12.827885
_cell_angle_alpha	90.029976
_cell_angle_beta	90.019272
_cell_angle_gamma	90.015362
loop_
_atom_site_label
_atom_site_type_symbol
_atom_site_fract_x
_atom_site_fract_y
_atom_site_fract_z
Zn1	Zn	1.597670	-0.415983	0.590847
Zn2	Zn	1.931003	-0.082650	0.924181
Zn3	Zn	2.264336	0.250683	1.257514
Zn4	Zn	1.597564	-0.590761	0.416107
Zn5	Zn	1.930897	-0.257427	0.749440
Zn6	Zn	2.264230	0.075906	1.082774
Zn7	Zn	1.422911	-0.416034	0.416121
Zn8	Zn	1.756244	-0.082701	0.749454
Zn9	Zn	2.089578	0.250633	1.082788
Zn10	Zn	1.422896	-0.590683	0.590807
Zn11	Zn	1.756230	-0.257350	0.924140
Zn12	Zn	2.089563	0.075984	1.257474
O13	O	1.510260	-0.503365	0.503471
O14	O	1.843593	-0.170032	0.836804
O15	O	2.176927	0.163301	1.170137
O16	O	1.743892	-0.439179	0.567679
O17	O	2.077225	-0.105846	0.901012
O18	O	2.410558	0.227488	1.234345
O19	O	1.574357	-0.567637	0.269873
O20	O	1.907691	-0.234303	0.603206
O21	O	2.241024	0.099030	0.936539
O22	O	1.446144	-0.269791	0.439321
O23	O	1.779477	0.063542	0.772655
O24	O	2.112810	0.396875	1.105988
O25	O	1.743814	-0.567587	0.439298
O26	O	2.077147	-0.234254	0.772631
O27	O	2.410480	0.099079	1.105964
O28	O	1.574538	-0.269754	0.567692
O29	O	1.907871	0.063579	0.901025
O30	O	2.241205	0.396913	1.234359
O31	O	1.446041	-0.439266	0.269883
O32	O	1.779374	-0.105932	0.603216
O33	O	2.112708	0.227401	0.936550
O34	O	1.276673	-0.439190	0.439282
O35	O	1.610006	-0.105857	0.772616
O36	O	1.943340	0.227476	1.105949
O37	O	1.446118	-0.567455	0.737048
O38	O	1.779452	-0.234121	1.070382
O39	O	2.112785	0.099212	1.403715
O40	O	1.276662	-0.567504	0.567623
O41	O	1.609996	-0.234171	0.900957
O42	O	1.943329	0.099163	1.234290
O43	O	1.574524	-0.439104	0.737078
O44	O	1.907857	-0.105770	1.070411
O45	O	2.241190	0.227563	1.403745
O46	O	1.574343	-0.736986	0.439259
O47	O	1.907677	-0.403653	0.772592
O48	O	2.241010	-0.070320	1.105925
O49	O	1.446016	-0.736929	0.567610
O50	O	1.779349	-0.403596	0.900943
O51	O	2.112682	-0.070263	1.234277
C52	C	1.238750	-0.503345	0.503451
C53	C	1.572084	-0.170012	0.836784
C54	C	1.905417	0.163322	1.170117
C55	C	1.122597	-0.503362	0.503467
C56	C	1.455930	-0.170028	0.836800
C57	C	1.789264	0.163305	1.170134
C58	C	1.070835	-0.566954	0.566876
C59	C	1.404168	-0.233621	0.900210
C60	C	1.737501	0.099712	1.233543
C61	C	0.950784	-0.566973	0.566895
C62	C	1.284118	-0.233640	0.900228
C63	C	1.617451	0.099694	1.233561
C64	C	1.510195	-0.774875	0.503451
C65	C	1.843528	-0.441542	0.836785
C66	C	2.176861	-0.108208	1.170118
C67	C	1.510262	-0.891028	0.503478
C68	C	1.843596	-0.557695	0.836811
C69	C	2.176929	-0.224362	1.170145
C70	C	1.573768	-0.942711	0.567057
C71	C	1.907101	-0.609378	0.900390
C72	C	2.240434	-0.276044	1.233724
C73	C	1.573839	-1.062761	0.567086
C74	C	1.907172	-0.729428	0.900419
C75	C	2.240506	-0.396095	1.233753
C76	C	1.782830	-0.503386	0.503491
C77	C	2.116164	-0.170053	0.836824
C78	C	2.449497	0.163280	1.170158
C79	C	1.898983	-0.503395	0.503500
C80	C	2.232317	-0.170062	0.836833
C81	C	2.565650	0.163272	1.170167
C82	C	1.510331	-0.503265	0.776041
C83	C	1.843665	-0.169932	1.109374
C84	C	2.176998	0.163402	1.442708
C85	C	1.510362	-0.503222	0.892194
C86	C	1.843695	-0.169889	1.225527
C87	C	2.177028	0.163445	1.558861
C88	C	1.510354	-0.230795	0.503513
C89	C	1.843688	0.102538	0.836846
C90	C	2.177021	0.435872	1.170180
C91	C	1.510394	-0.114642	0.503531
C92	C	1.843728	0.218691	0.836864
C93	C	2.177061	0.552025	1.170198
C94	C	1.510249	-0.503390	0.231961
C95	C	1.843583	-0.170056	0.565294
C96	C	2.176916	0.163277	0.898627
C97	C	1.510422	-0.503138	0.115808
C98	C	1.843755	-0.169805	0.449141
C99	C	2.177088	0.163529	0.782475
C100	C	1.573907	-0.439697	0.943993
C101	C	1.907241	-0.106364	1.277327
C102	C	2.240574	0.226969	1.610660
C103	C	1.573940	-0.439652	1.064044
C104	C	1.907274	-0.106319	1.397377
C105	C	2.240607	0.227015	1.730711
H106	H	0.906270	-0.621420	0.621179
H107	H	1.239603	-0.288087	0.954512
H108	H	1.572936	0.045246	1.287845
Br109	Br	1.419717	-0.965402	0.412793
Br110	Br	1.753050	-0.632069	0.746126
Br111	Br	2.086384	-0.298735	1.079459
H112	H	1.456026	-1.070203	0.449091
H113	H	1.789359	-0.736870	0.782425
H114	H	2.122692	-0.403537	1.115758
Br115	Br	1.664518	-0.349070	0.869786
Br116	Br	1.997852	-0.015737	1.203119
Br117	Br	2.331185	0.317597	1.536453
Br118	Br	0.973163	-0.412651	0.413000
Br119	Br	1.306496	-0.079318	0.746334
Br120	Br	1.639830	0.254015	1.079667
H121	H	1.628348	-0.385270	1.108590
H122	H	1.961681	-0.051936	1.441923
H123	H	2.295014	0.281397	1.775257
Br124	Br	1.419745	-0.593802	1.041576
Br125	Br	1.753078	-0.260469	1.374909
Br126	Br	2.086411	0.072864	1.708242
H127	H	1.115396	-0.621381	0.621153
H128	H	1.448729	-0.288048	0.954487
H129	H	1.782062	0.045286	1.287820
H130	H	1.628212	-1.107208	0.621514
H131	H	1.961546	-0.773875	0.954848
H132	H	2.294879	-0.440541	1.288181
H133	H	1.078036	-0.448927	0.449198
H134	H	1.411369	-0.115594	0.782531
H135	H	1.744703	0.217740	1.115864
H136	H	1.455975	-0.557567	0.936724
H137	H	1.789309	-0.224234	1.270057
H138	H	2.122642	0.109099	1.603390
Br139	Br	1.664290	-0.868337	0.657766
Br140	Br	1.997623	-0.535004	0.991099
Br141	Br	2.330956	-0.201671	1.324432
