data_functionalizedCrystal
_audit_creation_method	'MofGen! by Chris Wilmer'
_symmetry_space_group_name_H-M	'P1'
_symmetry_Int_Tables_number	1
_symmetry_cell_setting	triclinic
loop_
_symmetry_equiv_pos_as_xyz
  x,y,z
_cell_length_a	12.645330
_cell_length_b	16.120542
_cell_length_c	16.120297
_cell_angle_alpha	90.127087
_cell_angle_beta	87.123238
_cell_angle_gamma	92.890715
loop_
_atom_site_label
_atom_site_type_symbol
_atom_site_fract_x
_atom_site_fract_y
_atom_site_fract_z
Zn1	Zn	-0.537198	-1.247485	0.534623
Zn2	Zn	-0.705961	-1.254449	0.395575
Zn3	Zn	-0.519272	-1.115474	0.388537
Zn4	Zn	-0.704971	-1.108405	0.527541
O5	O	-0.616850	-1.181453	0.461569
O6	O	-0.567501	-1.364776	0.522087
O7	O	-0.674108	-1.241886	0.278276
O8	O	-0.373307	-1.133029	0.407934
O9	O	-0.691491	-1.369893	0.419929
O10	O	-0.386477	-1.230018	0.515263
O11	O	-0.536949	-1.139782	0.273105
O12	O	-0.535989	-0.998169	0.401067
O13	O	-0.689803	-1.120982	0.644846
O14	O	-0.672421	-0.992975	0.503193
O15	O	-0.566542	-1.223163	0.650049
O16	O	-0.854173	-1.235032	0.413062
O17	O	-0.853445	-1.127734	0.510017
C18	C	-0.602153	-0.965399	0.450598
C19	C	-0.595892	-0.872970	0.445924
C20	C	-0.649294	-0.660012	0.485767
C21	C	-0.584471	-0.703744	0.437390
C22	C	-0.590827	-0.797910	0.442140
C23	C	-0.642938	-0.565838	0.481018
C24	C	-0.892275	-1.181393	0.461554
C25	C	-1.010110	-1.181442	0.461580
C26	C	-1.177291	-1.114196	0.522785
C27	C	-1.054696	-1.113879	0.522562
C28	C	-1.047723	-1.162164	0.372742
C29	C	-1.170319	-1.161754	0.373114
C30	C	-1.184560	-1.268394	0.488520
C31	C	-1.062034	-1.267757	0.490409
C32	C	-0.340353	-1.181535	0.461603
C33	C	-0.222526	-1.181570	0.461618
C34	C	-0.630062	-1.170507	0.678464
C35	C	-0.635691	-1.165842	0.770891
C36	C	-0.631600	-0.398351	0.472572
C37	C	-0.637869	-0.490782	0.477231
C38	C	-0.603617	-1.192405	0.245520
C39	C	-0.597700	-1.197230	0.153102
C40	C	-0.645944	-1.157296	0.940116
C41	C	-0.587450	-1.205775	0.983882
C42	C	-0.593155	-1.201019	1.078044
C43	C	-0.640241	-1.162050	0.845945
H44	H	-0.524200	-0.670464	0.392406
H45	H	-0.709560	-0.693291	0.530747
F46	F	-1.200592	-1.078969	0.344003
F47	F	-0.516412	-1.264707	0.940425
H48	H	-1.029532	-1.125425	0.588294
F49	F	-0.717000	-1.098384	0.983573
H50	H	-1.211696	-1.125595	0.588725
H51	H	-1.220723	-1.286848	0.552434
H52	H	-1.202890	-1.050137	0.504822
H53	H	-1.020121	-1.049423	0.504387
H54	H	-1.199969	-1.208938	0.325745
H55	H	-1.011604	-1.099516	0.350160
F56	F	-1.009679	-1.224528	0.311287
F57	F	-1.030688	-1.286867	0.575894
F58	F	-1.022946	-1.336361	0.436886
H59	H	-1.213918	-1.318535	0.444023
