data_functionalizedCrystal
_audit_creation_method	'MofGen! by Chris Wilmer'
_symmetry_space_group_name_H-M	'P1'
_symmetry_Int_Tables_number	1
_symmetry_cell_setting	triclinic
loop_
_symmetry_equiv_pos_as_xyz
  x,y,z
_cell_length_a	15.625110
_cell_length_b	15.538191
_cell_length_c	13.930277
_cell_angle_alpha	89.993797
_cell_angle_beta	71.923029
_cell_angle_gamma	66.740235
loop_
_atom_site_label
_atom_site_type_symbol
_atom_site_fract_x
_atom_site_fract_y
_atom_site_fract_z
O1	O	1.155938	0.123004	-0.322641
O2	O	0.888683	0.137630	-0.229590
O3	O	1.074334	-0.006741	-0.294224
O4	O	0.970287	0.267375	-0.258007
O5	O	1.074307	-0.006718	-0.453877
O6	O	0.888655	0.137652	-0.389242
O7	O	1.155911	0.123027	-0.482293
Zn8	Zn	1.022279	0.130343	-0.461116
Zn9	Zn	1.022315	0.130314	-0.250767
O10	O	0.970259	0.267397	-0.417659
C11	C	0.855300	0.136975	-0.297798
C12	C	0.755874	0.134979	-0.263180
C13	C	0.615752	0.132156	-0.127368
C14	C	0.709177	0.134030	-0.159907
C15	C	0.709154	0.134059	-0.333955
C16	C	0.615725	0.132189	-0.301430
C17	C	0.569031	0.131236	-0.198136
C18	C	0.569004	0.131269	-0.372198
C19	C	0.475585	0.129394	-0.339676
C20	C	0.428886	0.128439	-0.236386
C21	C	0.475612	0.129361	-0.165614
C22	C	0.615702	0.132215	-0.475494
C23	C	0.568982	0.131295	-0.546262
C24	C	0.475558	0.129427	-0.513739
C25	C	0.428859	0.128472	-0.410449
C26	C	0.428832	0.128504	-0.584512
C27	C	0.335413	0.126629	-0.551990
C28	C	0.335440	0.126597	-0.377927
C29	C	1.085206	-0.041810	-0.377837
C30	C	1.117632	-0.146339	-0.389118
C31	C	0.795489	-0.434574	-0.276977
C32	C	0.825981	-0.532798	-0.287595
C33	C	0.997490	-0.555004	-0.347310
C34	C	0.967013	-0.456780	-0.336692
C35	C	0.866011	-0.396573	-0.301526
C36	C	1.037535	-0.418779	-0.361241
C37	C	1.007059	-0.320563	-0.350628
C38	C	0.906062	-0.260350	-0.315467
C39	C	0.835535	-0.298357	-0.290913
C40	C	1.138536	-0.478988	-0.396413
C41	C	1.209058	-0.440986	-0.420962
C42	C	1.178583	-0.342769	-0.410343
C43	C	1.077586	-0.282556	-0.375181
C44	C	1.249110	-0.304762	-0.434896
C45	C	1.218634	-0.206547	-0.424284
C46	C	1.047110	-0.184340	-0.364569
C47	C	1.189294	0.123681	-0.414084
C48	C	1.288719	0.125677	-0.448695
C49	C	0.959387	0.302466	-0.334044
C50	C	0.926961	0.406995	-0.322757
N51	N	1.022261	0.130362	-0.604676
C52	C	1.058284	0.187513	-1.069479
C53	C	0.986387	0.073076	-1.044432
C54	C	0.986368	0.073091	-0.943930
C55	C	1.022309	0.130317	-0.906199
C56	C	1.058269	0.187528	-0.968969
C57	C	0.950418	0.015875	-0.881156
C58	C	0.950399	0.015887	-0.780647
C59	C	0.986334	0.073118	-0.742911
C60	C	1.022294	0.130332	-0.805688
C61	C	1.058235	0.187558	-0.767957
C62	C	1.094189	0.244777	-0.830730
C63	C	1.094204	0.244759	-0.931234
C64	C	0.986320	0.073136	-0.642408
C65	C	1.058220	0.187573	-0.667447
N66	N	1.022343	0.130287	-0.107211
H67	H	0.297414	0.125832	-0.293812
H68	H	0.957050	0.026546	-0.591304
H69	H	0.437586	0.128597	-0.081499
Cl70	Cl	0.311450	0.126066	-0.195501
H71	H	0.957133	0.026479	-1.075163
H72	H	0.768545	-0.563733	-0.267616
Cl73	Cl	1.307291	-0.158769	-0.455163
Cl74	Cl	1.139379	0.316708	-0.783286
Cl75	Cl	0.767862	0.135258	-0.463807
Cl76	Cl	0.905236	-0.056059	-0.928593
Cl77	Cl	1.336028	-0.516684	-0.465176
H78	H	1.087482	0.234178	-0.636732
Cl79	Cl	0.905179	-0.056028	-0.701734
H80	H	0.577726	0.131391	-0.043253
Cl81	Cl	1.139397	0.316686	-1.010151
H82	H	1.331346	-0.353797	-0.463538
H83	H	1.087553	0.234102	-1.120592
H84	H	0.747211	0.134785	-0.102270
Cl85	Cl	0.920134	-0.108643	-0.320349
Cl86	Cl	0.733150	0.134562	-0.516380
H87	H	0.607014	0.132067	-0.630365
Cl88	Cl	1.176848	-0.602460	-0.409761
H89	H	0.466868	0.129271	-0.668616
H90	H	0.297364	0.125898	-0.609614
Cl91	Cl	0.867747	-0.136877	-0.302133
H92	H	0.713243	-0.385549	-0.248334
Cl93	Cl	0.708559	-0.222660	-0.246694
Cl94	Cl	1.124459	-0.630702	-0.391524
