data_functionalizedCrystal
_audit_creation_method	'MofGen! by Chris Wilmer'
_symmetry_space_group_name_H-M	'P1'
_symmetry_Int_Tables_number	1
_symmetry_cell_setting	triclinic
loop_
_symmetry_equiv_pos_as_xyz
  x,y,z
_cell_length_a	19.188925
_cell_length_b	19.188925
_cell_length_c	9.016244
_cell_angle_alpha	89.998107
_cell_angle_beta	89.991721
_cell_angle_gamma	83.142549
loop_
_atom_site_label
_atom_site_type_symbol
_atom_site_fract_x
_atom_site_fract_y
_atom_site_fract_z
O1	O	0.926149	0.087147	-0.123371
O2	O	1.426149	0.587147	0.376629
O3	O	0.722837	0.098885	-0.123367
O4	O	1.222837	0.598885	0.376633
O5	O	0.830362	-0.008640	-0.123361
O6	O	1.330362	0.491360	0.376639
O7	O	0.818624	0.194672	-0.123377
O8	O	1.318624	0.694672	0.376623
O9	O	0.830346	-0.008638	0.123320
O10	O	1.330346	0.491362	0.623320
O11	O	0.722821	0.098888	0.123314
O12	O	1.222821	0.598888	0.623314
O13	O	0.926133	0.087149	0.123310
O14	O	1.426133	0.587149	0.623310
Cu15	Cu	0.824476	0.093019	0.145836
Cu16	Cu	1.324476	0.593019	0.645836
Cu17	Cu	0.824494	0.093016	-0.145893
Cu18	Cu	1.324494	0.593016	0.354107
O19	O	0.818608	0.194674	0.123304
O20	O	1.318608	0.694674	0.623304
C21	C	0.696818	0.098507	-0.000026
C22	C	1.196818	0.598507	0.499974
C23	C	0.619313	0.097368	-0.000024
C24	C	1.119313	0.597368	0.499976
C25	C	0.057542	0.152832	-0.000032
C26	C	0.557542	0.652832	0.499968
C27	C	0.130365	0.153908	-0.000040
C28	C	0.630365	0.653908	0.499960
C29	C	0.175301	0.090816	-0.000032
C30	C	0.675301	0.590816	0.499968
C31	C	0.147408	0.026642	-0.000055
C32	C	0.647408	0.526642	0.499945
C33	C	0.074586	0.025568	-0.000061
C34	C	0.574586	0.525568	0.499939
N35	N	0.295973	0.045141	0.083943
N36	N	0.795973	0.545141	0.583943
N37	N	0.365151	0.046166	0.083953
N38	N	0.865151	0.546166	0.583953
C39	C	0.394710	0.094050	-0.000015
C40	C	0.894710	0.594050	0.499985
N41	N	0.352477	0.140881	-0.083975
N42	N	0.852477	0.640881	0.416025
N43	N	0.283293	0.139858	-0.083978
N44	N	0.783293	0.639858	0.416022
C45	C	0.254265	0.091974	-0.000026
C46	C	0.754265	0.591974	0.499974
C47	C	0.501557	0.159387	-0.000012
C48	C	1.001557	0.659387	0.499988
C49	C	0.574382	0.160461	-0.000030
C50	C	1.074382	0.660461	0.499970
C51	C	0.591424	0.033193	-0.000029
C52	C	1.091424	0.533193	0.499971
C53	C	0.518600	0.032121	-0.000027
C54	C	1.018600	0.532121	0.499973
C55	C	0.473671	0.095220	-0.000011
C56	C	0.973671	0.595220	0.499989
C57	C	0.829974	-0.034650	-0.000021
C58	C	1.329974	0.465350	0.499979
C59	C	0.828835	-0.112155	-0.000024
C60	C	1.328835	0.387845	0.499976
C61	C	0.884299	-0.673926	-0.000063
C62	C	1.384299	-0.173926	0.499937
C63	C	0.885376	-0.601103	-0.000050
C64	C	1.385376	-0.101103	0.499950
C65	C	0.822284	-0.556167	-0.000049
C66	C	1.322284	-0.056167	0.499951
C67	C	0.758110	-0.584060	-0.000023
C68	C	1.258110	-0.084060	0.499977
C69	C	0.757035	-0.656882	-0.000022
C70	C	1.257035	-0.156882	0.499978
N71	N	0.776613	-0.435487	-0.084011
N72	N	1.276613	0.064513	0.415989
N73	N	0.777638	-0.366309	-0.084016
N74	N	1.277638	0.133691	0.415984
C75	C	0.825518	-0.336758	-0.000050
C76	C	1.325518	0.163242	0.499950
N77	N	0.872344	-0.378999	0.083902
N78	N	1.372344	0.121001	0.583902
N79	N	0.871321	-0.448183	0.083900
N80	N	1.371321	0.051817	0.583900
C81	C	0.823442	-0.477203	-0.000049
C82	C	1.323442	0.022797	0.499951
C83	C	0.890854	-0.229910	-0.000050
C84	C	1.390854	0.270090	0.499950
C85	C	0.891928	-0.157085	-0.000028
C86	C	1.391928	0.342915	0.499972
C87	C	0.764661	-0.140044	-0.000016
C88	C	1.264661	0.359956	0.499984
C89	C	0.763589	-0.212867	-0.000024
C90	C	1.263589	0.287133	0.499976
C91	C	0.826688	-0.257797	-0.000048
C92	C	1.326688	0.242203	0.499952
C93	C	0.952152	0.087528	-0.000035
C94	C	1.452152	0.587528	0.499965
C95	C	1.029657	0.088667	-0.000046
C96	C	1.529657	0.588667	0.499954
C97	C	0.818995	0.220684	-0.000039
C98	C	1.318995	0.720684	0.499961
C99	C	0.820134	0.298189	-0.000046
C100	C	1.320134	0.798189	0.499954
N101	N	0.824468	0.093020	0.351022
N102	N	1.324468	0.593020	0.851022
N103	N	0.824508	0.093008	-0.351079
N104	N	1.324508	0.593008	0.148921
C105	C	0.766777	0.150351	0.586051
C106	C	1.266777	0.650351	1.086051
C107	C	0.766900	0.150561	0.414160
C108	C	1.266900	0.650561	0.914160
C109	C	0.897272	0.108709	0.413357
C110	C	1.397272	0.608709	0.913357
C111	C	0.896956	0.109114	0.585302
C112	C	1.396956	0.609114	1.085302
C113	C	0.810081	0.019807	0.585572
C114	C	1.310081	0.519807	1.085572
C115	C	0.808400	0.020303	0.413618
C116	C	1.308400	0.520303	0.913618
H117	H	0.495897	-0.020129	-0.000029
H118	H	0.995897	0.479871	0.499971
H119	H	0.935680	-0.710503	-0.000074
H120	H	1.435680	-0.210503	0.499926
H121	H	0.020964	0.204212	-0.000027
H122	H	0.520964	0.704212	0.499973
O123	O	0.696777	-0.540483	-0.000226
O124	O	1.196777	-0.040483	0.499774
C125	C	0.657817	-0.553083	-0.127997
C126	C	1.157817	-0.053083	0.372003
H127	H	0.675130	-0.608381	-0.170586
H128	H	1.175130	-0.108381	0.329414
H129	H	0.599567	-0.547777	-0.099257
H130	H	1.099567	-0.047777	0.400743
H131	H	0.667247	-0.513281	-0.217464
H132	H	1.167247	-0.013281	0.282536
H133	H	0.910325	0.161480	0.370275
H134	H	1.410325	0.661480	0.870275
H135	H	0.944181	-0.134384	-0.000032
H136	H	1.444181	0.365616	0.499968
H137	H	0.704783	-0.679584	-0.000005
H138	H	1.204783	-0.179584	0.499995
O139	O	0.952209	-0.273460	0.000005
O140	O	1.452209	0.226540	0.500005
C141	C	1.009076	-0.233228	-0.000031
C142	C	1.509076	0.266772	0.499969
H143	H	0.991186	-0.178821	0.046681
H144	H	1.491186	0.321179	0.546681
H145	H	1.053266	-0.260231	0.071579
H146	H	1.553266	0.239769	0.571579
H147	H	1.028761	-0.228098	-0.118377
H148	H	1.528761	0.271902	0.381623
O149	O	0.703436	-0.096303	-0.000083
O150	O	1.203436	0.403697	0.499917
C151	C	0.718142	-0.026047	-0.000045
C152	C	1.218142	0.473953	0.499955
H153	H	0.772977	-0.023424	-0.046750
H154	H	1.272977	0.476576	0.453250
H155	H	0.677916	0.007072	-0.071661
H156	H	1.177916	0.507072	0.428339
H157	H	0.715424	-0.004979	0.118301
H158	H	1.215424	0.495021	0.618301
O159	O	0.912066	0.172796	0.633321
O160	O	1.412066	0.672796	1.133321
C161	C	0.855736	0.204962	0.719096
C162	C	1.355736	0.704962	1.219096
H163	H	0.824245	0.163036	0.764982
H164	H	1.324245	0.663036	1.264982
H165	H	0.877072	0.234901	0.814869
H166	H	1.377072	0.734901	1.314869
H167	H	0.820341	0.242961	0.646799
H168	H	1.320341	0.742961	1.146799
H169	H	0.758162	0.004664	0.629022
H170	H	1.258162	0.504664	1.129022
H171	H	0.153074	0.206161	-0.000015
H172	H	0.653074	0.706161	0.499985
O173	O	0.701197	-0.239843	-0.000090
O174	O	1.201197	0.260157	0.499910
C175	C	0.645739	-0.184568	-0.000048
C176	C	1.145739	0.315432	0.499952
H177	H	0.665160	-0.135156	-0.046751
H178	H	1.165160	0.364844	0.453249
H179	H	0.600928	-0.199649	-0.071662
H180	H	1.100928	0.300351	0.428338
H181	H	0.626282	-0.174205	0.118299
H182	H	1.126282	0.325795	0.618299
O183	O	0.947770	-0.574122	-0.000150
O184	O	1.447770	-0.074122	0.499850
C185	C	1.003231	-0.629393	-0.000134
C186	C	1.503231	-0.129393	0.499866
H187	H	0.983811	-0.678808	-0.046814
H188	H	1.483811	-0.178808	0.453186
H189	H	1.048039	-0.614311	-0.071782
H190	H	1.548039	-0.114311	0.428218
H191	H	1.022690	-0.639754	0.118202
H192	H	1.522690	-0.139754	0.618202
H193	H	0.712481	0.141191	0.627447
H194	H	1.212481	0.641191	1.127447
O195	O	0.777483	0.214798	0.637733
O196	O	1.277483	0.714798	1.137733
C197	C	0.718175	0.243730	0.718904
C198	C	1.218175	0.743730	1.218904
H199	H	0.688136	0.199727	0.760134
H200	H	1.188136	0.699727	1.260134
H201	H	0.735784	0.274291	0.817740
H202	H	1.235784	0.774291	1.317740
H203	H	0.682648	0.280567	0.644480
H204	H	1.182648	0.780567	1.144480
O205	O	0.777774	0.215425	0.365236
O206	O	1.277774	0.715425	0.865236
C207	C	0.723681	0.265490	0.417944
C208	C	1.223681	0.765490	0.917944
H209	H	0.699209	0.244284	0.521275
H210	H	1.199209	0.744284	1.021275
H211	H	0.746272	0.316124	0.446661
H212	H	1.246272	0.816124	0.946661
H213	H	0.681824	0.276545	0.328520
H214	H	1.181824	0.776545	0.828520
O215	O	0.702323	0.139575	0.363718
O216	O	1.202323	0.639575	0.863718
C217	C	0.674195	0.197409	0.277239
C218	C	1.174195	0.697409	0.777239
H219	H	0.718686	0.225989	0.233115
H220	H	1.218686	0.725989	0.733115
H221	H	0.643526	0.178171	0.180234
H222	H	1.143526	0.678171	0.680234
H223	H	0.637627	0.234834	0.348433
H224	H	1.137627	0.734834	0.848433
H225	H	0.183999	-0.024728	-0.000053
H226	H	0.683999	0.475272	0.499947
H227	H	0.941245	0.068984	0.626887
H228	H	1.441245	0.568984	1.126887
O229	O	0.457936	0.220695	-0.000280
O230	O	0.957936	0.720695	0.499720
C231	C	0.470567	0.259674	-0.128024
C232	C	0.970567	0.759674	0.371976
H233	H	0.495579	0.222737	-0.217316
H234	H	0.995579	0.722737	0.282684
H235	H	0.418813	0.287828	-0.170912
H236	H	0.918813	0.787828	0.329088
H237	H	0.507520	0.299976	-0.099145
H238	H	1.007520	0.799976	0.400855
O239	O	0.744562	0.005969	0.364951
O240	O	1.244562	0.505969	0.864951
C241	C	0.752679	-0.056822	0.282196
C242	C	1.252679	0.443178	0.782196
H243	H	0.803573	-0.089818	0.315928
H244	H	1.303573	0.410182	0.815928
H245	H	0.706452	-0.087501	0.304805
H246	H	1.206452	0.412499	0.804805
H247	H	0.754574	-0.043921	0.158942
H248	H	1.254574	0.456079	0.658942
O249	O	0.949656	0.060165	0.364375
O250	O	1.449656	0.560165	0.864375
C251	C	0.921170	0.011138	0.272839
C252	C	1.421170	0.511138	0.772839
H253	H	0.868803	0.035800	0.225874
H254	H	1.368803	0.535800	0.725874
H255	H	0.958976	-0.004772	0.177870
H256	H	1.458976	0.495228	0.677870
H257	H	0.912699	-0.037256	0.340752
H258	H	1.412699	0.462744	0.840752
H259	H	0.852184	-0.022863	0.626226
H260	H	1.352184	0.477137	1.126226
O261	O	0.047611	-0.036827	-0.000001
O262	O	0.547611	0.463173	0.499999
C263	C	0.102884	-0.092285	-0.000042
C264	C	0.602884	0.407715	0.499958
H265	H	0.152295	-0.072868	0.046659
H266	H	0.652295	0.427132	0.546659
H267	H	0.087798	-0.137100	0.071574
H268	H	0.587798	0.362900	0.571574
H269	H	0.113256	-0.111735	-0.118389
H270	H	0.613256	0.388265	0.381611
O271	O	0.601588	0.222733	-0.000111
O272	O	1.101588	0.722733	0.499889
C273	C	0.675497	0.210154	-0.000095
C274	C	1.175497	0.710154	0.499905
H275	H	0.692767	0.155612	-0.046783
H276	H	1.192767	0.655612	0.453217
H277	H	0.697731	0.251196	-0.071735
H278	H	1.197731	0.751196	0.428265
H279	H	0.695759	0.213482	0.118243
H280	H	1.195759	0.713482	0.618243
O281	O	0.635036	-0.028115	-0.000286
O282	O	1.135036	0.471885	0.499714
C283	C	0.622421	-0.067094	-0.128026
C284	C	1.122421	0.432906	0.371974
H285	H	0.597424	-0.030156	-0.217322
H286	H	1.097424	0.469844	0.282678
H287	H	0.674180	-0.095252	-0.170910
H288	H	1.174180	0.404748	0.329090
H289	H	0.585461	-0.107393	-0.099144
H290	H	1.085461	0.392607	0.400856
O291	O	0.855241	-0.033057	0.362443
O292	O	1.355241	0.466943	0.862443
C293	C	0.838874	-0.097202	0.421345
C294	C	1.338874	0.402798	0.921345
H295	H	0.781159	-0.091695	0.454601
H296	H	1.281159	0.408305	0.954601
H297	H	0.849312	-0.140175	0.334087
H298	H	1.349312	0.359825	0.834087
H299	H	0.872915	-0.111605	0.522970
H300	H	1.372915	0.388395	1.022970
