data_functionalizedCrystal
_audit_creation_method	'MofGen! by Chris Wilmer'
_symmetry_space_group_name_H-M	'P1'
_symmetry_Int_Tables_number	1
_symmetry_cell_setting	triclinic
loop_
_symmetry_equiv_pos_as_xyz
  x,y,z
_cell_length_a	14.971482
_cell_length_b	10.723024
_cell_length_c	13.448316
_cell_angle_alpha	90.001504
_cell_angle_beta	90.004360
_cell_angle_gamma	84.040239
loop_
_atom_site_label
_atom_site_type_symbol
_atom_site_fract_x
_atom_site_fract_y
_atom_site_fract_z
O1	O	1.187821	0.162588	0.082676
O2	O	1.687821	0.662588	0.582676
O3	O	0.927525	0.182066	0.082681
O4	O	1.427525	0.682066	0.582681
O5	O	1.063677	-0.009312	0.082675
O6	O	1.563677	0.490688	0.582675
O7	O	1.051668	0.353966	0.082682
O8	O	1.551668	0.853966	0.582682
O9	O	1.063663	-0.009310	-0.082709
O10	O	1.563663	0.490690	0.417291
O11	O	0.927511	0.182068	-0.082703
O12	O	1.427511	0.682068	0.417297
O13	O	1.187807	0.162590	-0.082707
O14	O	1.687807	0.662590	0.417293
Cu15	Cu	1.057658	0.172329	-0.097806
Cu16	Cu	1.557658	0.672329	0.402194
Cu17	Cu	1.057674	0.172327	0.097780
Cu18	Cu	1.557674	0.672327	0.597780
O19	O	1.051655	0.353968	-0.082701
O20	O	1.551655	0.853968	0.417299
C21	C	0.894188	0.181197	-0.000010
C22	C	1.394188	0.681197	0.499990
C23	C	0.794877	0.178589	-0.000009
C24	C	1.294877	0.678589	0.499991
C25	C	0.748218	0.177362	-0.090160
C26	C	1.248218	0.677362	0.409840
C27	C	0.654907	0.174891	-0.090162
C28	C	1.154907	0.674891	0.409838
C29	C	0.608255	0.173657	-0.000010
C30	C	1.108255	0.673657	0.499990
C31	C	0.654920	0.174881	0.090149
C32	C	1.154920	0.674881	0.590149
C33	C	0.748231	0.177342	0.090149
C34	C	1.248231	0.677342	0.590149
C35	C	0.460431	0.169753	0.090142
C36	C	0.960431	0.669753	0.590142
C37	C	0.367113	0.167294	0.090143
C38	C	0.867113	0.667294	0.590143
C39	C	0.367106	0.167302	-0.090168
C40	C	0.867106	0.667302	0.409832
C41	C	0.460417	0.169764	-0.090168
C42	C	0.960417	0.669764	0.409832
C43	C	0.507076	0.170990	-0.000009
C44	C	1.007076	0.670990	0.499991
C45	C	1.062796	-0.055802	-0.000016
C46	C	1.562796	0.444198	0.499984
C47	C	1.060182	-0.194329	-0.000012
C48	C	1.560182	0.305671	0.499988
C49	C	1.136365	-0.270109	-0.000012
C50	C	1.636365	0.229891	0.499988
C51	C	1.133665	-0.413284	-0.000009
C52	C	1.633665	0.086716	0.499991
C53	C	1.221143	0.163459	-0.000014
C54	C	1.721143	0.663459	0.499986
C55	C	1.320455	0.166067	-0.000009
C56	C	1.820455	0.666067	0.499991
C57	C	1.052536	0.400457	-0.000008
C58	C	1.552536	0.900457	0.499992
C59	C	1.055150	0.538984	-0.000005
C60	C	1.555150	1.038984	0.499995
N61	N	1.057653	0.172330	-0.235370
N62	N	1.557653	0.672330	0.264630
C63	C	1.002976	0.096508	-0.712619
C64	C	1.502976	0.596508	-0.212619
C65	C	1.002973	0.096504	-0.608515
C66	C	1.502973	0.596504	-0.108515
C67	C	1.057675	0.172316	-0.556452
C68	C	1.557675	0.672316	-0.056452
C69	C	1.112391	0.248127	-0.608497
C70	C	1.612391	0.748127	-0.108497
C71	C	1.112398	0.248123	-0.712598
C72	C	1.612398	0.748123	-0.212598
C73	C	1.112371	0.248132	-0.391516
C74	C	1.612371	0.748132	0.108484
C75	C	1.112362	0.248138	-0.287408
C76	C	1.612362	0.748138	0.212592
C77	C	1.002946	0.096513	-0.287434
C78	C	1.502946	0.596513	0.212566
C79	C	1.002953	0.096509	-0.391535
C80	C	1.502953	0.596509	0.108465
C81	C	1.057667	0.172322	-0.443573
C82	C	1.557667	0.672322	0.056427
N83	N	1.057686	0.172316	0.235344
N84	N	1.557686	0.672316	0.735344
H85	H	0.498398	0.170776	-0.163578
H86	H	0.998398	0.670776	0.336422
Br87	Br	0.811522	0.179049	-0.212516
Br88	Br	1.311522	0.679049	0.287484
H89	H	0.958426	0.034770	-0.566151
H90	H	1.458426	0.534770	-0.066151
H91	H	0.616923	0.173871	-0.163572
H92	H	1.116923	0.673871	0.336428
H93	H	0.329131	0.166290	0.163552
H94	H	0.829131	0.666290	0.663552
H95	H	0.992959	-0.235447	-0.000005
H96	H	1.492959	0.264553	0.499995
Br97	Br	0.946436	-0.352501	-0.000018
Br98	Br	1.446436	0.147499	0.499982
Br99	Br	1.242375	-0.521806	-0.000020
Br100	Br	1.742375	-0.021806	0.499980
H101	H	0.329112	0.166304	-0.163579
H102	H	0.829112	0.666304	0.336421
H103	H	0.958426	0.034780	-0.755001
H104	H	1.458426	0.534780	-0.255001
Br105	Br	0.523754	0.171410	0.212502
Br106	Br	1.023754	0.671410	0.712502
Br107	Br	0.928703	-0.006365	-0.462193
Br108	Br	1.428703	0.493635	0.037807
Br109	Br	1.248414	-0.201590	-0.000004
Br110	Br	1.748414	0.298410	0.499996
H111	H	0.958393	0.034786	-0.245060
H112	H	1.458393	0.534786	0.254940
Br113	Br	1.186638	0.350975	-0.216750
Br114	Br	1.686638	0.850975	0.283250
Br115	Br	0.591612	0.173151	0.212500
Br116	Br	1.091612	0.673151	0.712500
H117	H	1.156935	0.309848	-0.566098
H118	H	1.656935	0.809848	-0.066098
H119	H	0.786219	0.178344	0.163560
H120	H	1.286219	0.678344	0.663560
Br121	Br	1.186633	0.351014	-0.462139
Br122	Br	1.686633	0.851014	0.037861
Br123	Br	1.186657	0.351000	-0.783222
Br124	Br	1.686657	0.851000	-0.283222
