data_functionalizedCrystal
_audit_creation_method	'MofGen! by Chris Wilmer'
_symmetry_space_group_name_H-M	'P1'
_symmetry_Int_Tables_number	1
_symmetry_cell_setting	triclinic
loop_
_symmetry_equiv_pos_as_xyz
  x,y,z
_cell_length_a	23.532407
_cell_length_b	23.532407
_cell_length_c	9.130307
_cell_angle_alpha	90.000472
_cell_angle_beta	90.010050
_cell_angle_gamma	82.848751
loop_
_atom_site_label
_atom_site_type_symbol
_atom_site_fract_x
_atom_site_fract_y
_atom_site_fract_z
O1	O	-0.069131	-0.755259	-0.121740
O2	O	0.264202	-0.421926	0.211594
O3	O	0.597536	-0.088592	0.544927
O4	O	-0.079134	-0.589396	-0.121768
O5	O	0.254199	-0.256062	0.211566
O6	O	0.587532	0.077271	0.544899
O7	O	0.008799	-0.677329	-0.121704
O8	O	0.342132	-0.343995	0.211629
O9	O	0.675466	-0.010662	0.544962
O10	O	-0.157064	-0.667326	-0.121803
O11	O	0.176269	-0.333992	0.211530
O12	O	0.509602	-0.000659	0.544864
O13	O	0.008793	-0.677322	0.121895
O14	O	0.342127	-0.343989	0.455228
O15	O	0.675460	-0.010656	0.788561
O16	O	-0.079140	-0.589389	0.121831
O17	O	0.254193	-0.256056	0.455165
O18	O	0.587527	0.077277	0.788498
O19	O	-0.069137	-0.755253	0.121859
O20	O	0.264197	-0.421919	0.455193
O21	O	0.597530	-0.088586	0.788526
Cu22	Cu	-0.074139	-0.672320	0.144088
Cu23	Cu	0.259194	-0.338987	0.477421
Cu24	Cu	0.592528	-0.005654	0.810754
Cu25	Cu	-0.074132	-0.672328	-0.143996
Cu26	Cu	0.259201	-0.338994	0.189337
Cu27	Cu	0.592535	-0.005661	0.522670
O28	O	-0.157070	-0.667319	0.121796
O29	O	0.176263	-0.333986	0.455129
O30	O	0.509597	-0.000653	0.788463
C31	C	0.030012	-0.677071	0.000104
C32	C	0.363346	-0.343738	0.333438
C33	C	0.696679	-0.010404	0.666771
C34	C	0.093229	-0.676305	0.000132
C35	C	0.426563	-0.342972	0.333465
C36	C	0.759896	-0.009638	0.666799
C37	C	-0.078882	-0.568176	0.000029
C38	C	0.254451	-0.234843	0.333362
C39	C	0.587784	0.098490	0.666696
C40	C	-0.078116	-0.504959	0.000021
C41	C	0.255217	-0.171626	0.333354
C42	C	0.588550	0.161707	0.666687
C43	C	-0.069389	-0.776472	0.000059
C44	C	0.263945	-0.443138	0.333393
C45	C	0.597278	-0.109805	0.666726
C46	C	-0.070155	-0.839689	0.000058
C47	C	0.263179	-0.506355	0.333391
C48	C	0.596512	-0.173022	0.666725
C49	C	0.359397	-0.621110	0.000055
C50	C	0.692730	-0.287776	0.333389
C51	C	1.026063	0.045557	0.666722
C52	C	0.299997	-0.621821	0.000061
C53	C	0.633330	-0.288488	0.333395
C54	C	0.966663	0.044846	0.666728
O55	O	0.263252	-0.578035	0.000005
O56	O	0.596585	-0.244702	0.333338
O57	O	0.929919	0.088632	0.666671
N58	N	0.277370	-0.674097	0.000085
N59	N	0.610704	-0.340764	0.333418
N60	N	0.944037	-0.007431	0.666751
C61	C	0.314148	-0.725666	0.000087
C62	C	0.647481	-0.392332	0.333420
C63	C	0.980814	-0.058999	0.666754
O64	O	0.289448	-0.770196	0.000106
O65	O	0.622781	-0.436863	0.333439
O66	O	0.956115	-0.103529	0.666773
C67	C	0.373547	-0.724953	0.000070
C68	C	0.706880	-0.391620	0.333404
C69	C	1.040214	-0.058287	0.666737
C70	C	0.396170	-0.672674	0.000062
C71	C	0.729503	-0.339340	0.333395
C72	C	1.062836	-0.006007	0.666729
C73	C	0.382020	-0.568834	0.000045
C74	C	0.715353	-0.235501	0.333379
C75	C	1.048687	0.097833	0.666712
C76	C	0.441416	-0.568123	0.000042
C77	C	0.774750	-0.234790	0.333375
C78	C	1.108083	0.098544	0.666709
C79	C	0.478189	-0.619687	0.000049
C80	C	0.811522	-0.286354	0.333382
C81	C	1.144856	0.046980	0.666715
C82	C	0.455566	-0.671963	0.000059
C83	C	0.788899	-0.338629	0.333392
C84	C	1.122232	-0.005296	0.666725
C85	C	0.410323	-0.776521	0.000062
C86	C	0.743657	-0.443188	0.333396
C87	C	1.076990	-0.109854	0.666729
C88	C	0.469726	-0.775804	0.000045
C89	C	0.803059	-0.442471	0.333378
C90	C	1.136392	-0.109138	0.666711
C91	C	0.492348	-0.723525	0.000036
C92	C	0.825682	-0.390191	0.333370
C93	C	1.159015	-0.056858	0.666703
C94	C	0.551735	-0.722816	0.000062
C95	C	0.885068	-0.389482	0.333395
C96	C	1.218401	-0.056149	0.666729
N97	N	0.574361	-0.670539	0.000039
N98	N	0.907694	-0.337206	0.333372
N99	N	1.241028	-0.003873	0.666705
C100	C	0.537588	-0.618975	0.000032
C101	C	0.870921	-0.285642	0.333365
C102	C	1.204255	0.047692	0.666699
C103	C	0.189405	-0.727157	0.000119
C104	C	0.522739	-0.393824	0.333453
C105	C	0.856072	-0.060490	0.666786
C106	C	0.130007	-0.727870	0.000146
C107	C	0.463341	-0.394536	0.333480
C108	C	0.796674	-0.061203	0.666813
C109	C	0.115860	-0.624025	0.000118
C110	C	0.449193	-0.290691	0.333451
C111	C	0.782527	0.042642	0.666785
C112	C	0.175259	-0.623313	0.000101
C113	C	0.508593	-0.289979	0.333435
C114	C	0.841926	0.043354	0.666768
C115	C	0.212031	-0.674881	0.000096
C116	C	0.545365	-0.341547	0.333429
C117	C	0.878698	-0.008214	0.666763
C118	C	0.662325	-0.617485	0.000026
C119	C	0.995658	-0.284152	0.333360
C120	C	1.328992	0.049181	0.666693
C121	C	0.721727	-0.616779	0.000029
C122	C	1.055060	-0.283445	0.333362
C123	C	1.388394	0.049888	0.666696
C124	C	0.735869	-0.720623	0.000050
C125	C	1.069202	-0.387290	0.333383
C126	C	1.402536	-0.053957	0.666716
C127	C	0.676472	-0.721330	0.000055
C128	C	1.009805	-0.387997	0.333388
C129	C	1.343139	-0.054664	0.666721
C130	C	0.639701	-0.669757	0.000038
C131	C	0.973034	-0.336423	0.333371
C132	C	1.306368	-0.003090	0.666705
O133	O	0.588514	-0.766579	0.000113
O134	O	0.921847	-0.433245	0.333446
O135	O	1.255181	-0.099912	0.666779
O136	O	0.562296	-0.574452	-0.000006
O137	O	0.895629	-0.241119	0.333327
O138	O	1.228963	0.092215	0.666660
C139	C	0.821717	-0.667577	0.000006
C140	C	1.155050	-0.334244	0.333340
C141	C	1.488383	-0.000911	0.666673
C142	C	0.758500	-0.668343	0.000036
C143	C	1.091833	-0.335010	0.333369
C144	C	1.425166	-0.001676	0.666702
C145	C	-0.022921	-0.238792	0.000093
C146	C	0.310412	0.094542	0.333427
C147	C	0.643746	0.427875	0.666760
C148	C	-0.023632	-0.298192	0.000093
C149	C	0.309701	0.035141	0.333426
C150	C	0.643034	0.368475	0.666759
O151	O	0.020153	-0.334937	0.000169
O152	O	0.353487	-0.001603	0.333503
O153	O	0.686820	0.331730	0.666836
N154	N	-0.075909	-0.320818	0.000052
N155	N	0.257425	0.012515	0.333385
N156	N	0.590758	0.345848	0.666718
C157	C	-0.127477	-0.284041	0.000026
C158	C	0.205856	0.049293	0.333360
C159	C	0.539190	0.382626	0.666693
O160	O	-0.172007	-0.308740	-0.000007
O161	O	0.161326	0.024593	0.333326
O162	O	0.494659	0.357926	0.666659
C163	C	-0.126765	-0.224642	0.000038
C164	C	0.206568	0.108692	0.333371
C165	C	0.539902	0.442025	0.666704
C166	C	-0.074485	-0.202019	0.000064
C167	C	0.258848	0.131314	0.333397
C168	C	0.592181	0.464648	0.666730
C169	C	0.029354	-0.216168	0.000121
C170	C	0.362688	0.117165	0.333455
C171	C	0.696021	0.450498	0.666788
C172	C	0.030066	-0.156772	0.000119
C173	C	0.363399	0.176561	0.333453
C174	C	0.696732	0.509894	0.666786
C175	C	-0.021499	-0.119999	0.000090
C176	C	0.311835	0.213334	0.333423
C177	C	0.645168	0.546667	0.666756
C178	C	-0.073774	-0.142623	0.000062
C179	C	0.259559	0.190711	0.333395
C180	C	0.592893	0.524044	0.666728
C181	C	-0.178333	-0.187865	0.000023
C182	C	0.155001	0.145468	0.333356
C183	C	0.488334	0.478801	0.666689
C184	C	-0.177616	-0.128463	0.000035
C185	C	0.155717	0.204871	0.333369
C186	C	0.489051	0.538204	0.666702
C187	C	-0.125336	-0.105840	0.000061
C188	C	0.207997	0.227493	0.333395
C189	C	0.541330	0.560827	0.666728
C190	C	-0.124627	-0.046454	0.000030
C191	C	0.208706	0.286880	0.333364
C192	C	0.542040	0.620213	0.666697
N193	N	-0.072351	-0.023828	0.000071
N194	N	0.260983	0.309506	0.333405
N195	N	0.594316	0.642839	0.666738
C196	C	-0.020787	-0.060600	0.000101
C197	C	0.312547	0.272733	0.333434
C198	C	0.645880	0.606066	0.666768
C199	C	-0.128968	-0.408783	0.000005
C200	C	0.204365	-0.075450	0.333338
C201	C	0.537698	0.257883	0.666672
C202	C	-0.129681	-0.468181	-0.000017
C203	C	0.203652	-0.134848	0.333317
C204	C	0.536986	0.198485	0.666650
C205	C	-0.025836	-0.482328	0.000052
C206	C	0.307497	-0.148995	0.333386
C207	C	0.640830	0.184338	0.666719
C208	C	-0.025124	-0.422929	0.000064
C209	C	0.308209	-0.089596	0.333397
C210	C	0.641543	0.243737	0.666730
C211	C	-0.076692	-0.386157	0.000046
C212	C	0.256641	-0.052824	0.333379
C213	C	0.589975	0.280510	0.666713
C214	C	-0.019297	0.064136	0.000096
C215	C	0.314036	0.397470	0.333429
C216	C	0.647370	0.730803	0.666762
C217	C	-0.018590	0.123538	0.000088
C218	C	0.314743	0.456872	0.333421
C219	C	0.648076	0.790205	0.666754
C220	C	-0.122435	0.137680	0.000026
C221	C	0.210899	0.471014	0.333360
C222	C	0.544232	0.804347	0.666693
C223	C	-0.123142	0.078284	0.000027
C224	C	0.210192	0.411617	0.333360
C225	C	0.543525	0.744950	0.666693
C226	C	-0.071568	0.041512	0.000066
C227	C	0.261765	0.374846	0.333399
C228	C	0.595099	0.708179	0.666733
O229	O	-0.168390	-0.009675	-0.000041
O230	O	0.164943	0.323659	0.333293
O231	O	0.498277	0.656992	0.666626
O232	O	0.023737	-0.035892	0.000154
O233	O	0.357070	0.297441	0.333487
O234	O	0.690403	0.630774	0.666820
N235	N	-0.074143	-0.672319	0.346711
N236	N	0.259190	-0.338986	0.680044
N237	N	0.592523	-0.005652	1.013377
N238	N	-0.074123	-0.672333	-0.346619
N239	N	0.259210	-0.339000	-0.013286
N240	N	0.592543	-0.005667	0.320048
C241	C	-0.005383	-0.603654	0.653402
C242	C	0.327951	-0.270320	0.986735
C243	C	0.661284	0.063013	1.320068
C244	C	0.028980	-0.569307	0.576745
C245	C	0.362313	-0.235974	0.910079
C246	C	0.695647	0.097359	1.243412
C247	C	0.028969	-0.569297	0.423412
C248	C	0.362303	-0.235963	0.756745
C249	C	0.695636	0.097370	1.090079
C250	C	-0.005407	-0.603637	0.346731
C251	C	0.327927	-0.270304	0.680065
C252	C	0.661260	0.063030	1.013398
C253	C	-0.039770	-0.637984	0.423388
C254	C	0.293564	-0.304650	0.756721
C255	C	0.626897	0.028683	1.090054
C256	C	-0.039756	-0.637989	0.576725
C257	C	0.293577	-0.304656	0.910058
C258	C	0.626910	0.028677	1.243391
C259	C	-0.108506	-0.706666	0.423367
C260	C	0.224827	-0.373332	0.756700
C261	C	0.558161	-0.039999	1.090034
C262	C	-0.108499	-0.706674	0.576700
C263	C	0.224834	-0.373341	0.910034
C264	C	0.558167	-0.040007	1.243367
C265	C	-0.142882	-0.741006	0.346686
C266	C	0.190451	-0.407673	0.680020
C267	C	0.523785	-0.074340	1.013353
C268	C	-0.177249	-0.775350	0.423343
C269	C	0.156084	-0.442017	0.756676
C270	C	0.489418	-0.108684	1.090009
C271	C	-0.177237	-0.775359	0.576685
C272	C	0.156096	-0.442026	0.910019
C273	C	0.489429	-0.108693	1.243352
C274	C	-0.142862	-0.741020	0.653357
C275	C	0.190471	-0.407687	0.986690
C276	C	0.523805	-0.074354	1.320023
H277	H	0.740143	-0.574205	0.000029
H278	H	1.073476	-0.240871	0.333362
H279	H	1.406809	0.092462	0.666695
Cl280	Cl	0.047138	0.151974	0.000111
Cl281	Cl	0.380471	0.485307	0.333444
Cl282	Cl	0.713804	0.818641	0.666777
Cl283	Cl	0.045539	0.017919	0.000141
Cl284	Cl	0.378873	0.351252	0.333475
Cl285	Cl	0.712206	0.684585	0.666808
H286	H	0.632392	-0.575489	0.000012
H287	H	0.965725	-0.242156	0.333345
H288	H	1.299059	0.091177	0.666679
H289	H	0.352085	-0.526842	0.000035
H290	H	0.685418	-0.193508	0.333368
H291	H	1.018751	0.139825	0.666702
Cl292	Cl	0.095792	-0.128342	0.000139
Cl293	Cl	0.429126	0.204992	0.333473
Cl294	Cl	0.762459	0.538325	0.666806
H295	H	-0.142886	-0.740998	0.221834
H296	H	0.190448	-0.407664	0.555167
H297	H	0.523781	-0.074331	0.888501
H298	H	-0.005407	-0.603631	0.221879
H299	H	0.327926	-0.270297	0.555212
H300	H	0.661260	0.063036	0.888546
Cl301	Cl	-0.195407	-0.496613	-0.000080
Cl302	Cl	0.137927	-0.163280	0.333254
Cl303	Cl	0.471260	0.170053	0.666587
H304	H	0.056970	-0.541349	0.639195
H305	H	0.390303	-0.208016	0.972529
H306	H	0.723636	0.125317	1.305862
Cl307	Cl	-0.193803	-0.362560	-0.000036
Cl308	Cl	0.139530	-0.029227	0.333297
Cl309	Cl	0.472863	0.304106	0.666631
Cl310	Cl	0.648031	-0.787054	0.000119
Cl311	Cl	0.981365	-0.453721	0.333452
Cl312	Cl	1.314698	-0.120387	0.666785
H313	H	-0.220904	-0.206274	-0.000005
H314	H	0.112429	0.127060	0.333328
H315	H	0.445762	0.460393	0.666662
H316	H	0.499664	-0.817798	0.000032
H317	H	0.832997	-0.484465	0.333366
H318	H	1.166330	-0.151132	0.666699
Cl319	Cl	-0.142847	-0.741027	0.846120
Cl320	Cl	0.190487	-0.407693	1.179453
Cl321	Cl	0.523820	-0.074360	1.512787
Cl322	Cl	0.469847	-0.502396	0.000013
Cl323	Cl	0.803180	-0.169063	0.333346
Cl324	Cl	1.136513	0.164270	0.666679
Cl325	Cl	-0.188865	0.049843	-0.000025
Cl326	Cl	0.144468	0.383176	0.333308
Cl327	Cl	0.477801	0.716509	0.666642
H328	H	0.219343	-0.769152	0.000125
H329	H	0.552676	-0.435819	0.333459
H330	H	0.886009	-0.102486	0.666792
Cl331	Cl	0.203693	-0.557588	0.000086
Cl332	Cl	0.537026	-0.224254	0.333420
Cl333	Cl	0.870359	0.109079	0.666753
H334	H	-0.205232	-0.803310	0.360897
H335	H	0.128101	-0.469977	0.694231
H336	H	0.461434	-0.136644	1.027564
H337	H	0.391915	-0.819093	0.000068
H338	H	0.725248	-0.485759	0.333402
H339	H	1.058581	-0.152426	0.666735
H340	H	-0.219610	-0.098525	0.000028
H341	H	0.113723	0.234808	0.333361
H342	H	0.447057	0.568142	0.666694
H343	H	-0.205218	-0.803330	0.639090
H344	H	0.128116	-0.469997	0.972423
H345	H	0.461449	-0.136664	1.305757
H346	H	0.017447	-0.404515	0.000086
H347	H	0.350780	-0.071181	0.333419
H348	H	0.684113	0.262152	0.666753
Cl349	Cl	-0.005374	-0.603658	0.846165
Cl350	Cl	0.327960	-0.270324	1.179498
Cl351	Cl	0.661293	0.063009	1.512832
H352	H	0.071347	-0.246104	0.000150
H353	H	0.404680	0.087230	0.333483
H354	H	0.738013	0.420563	0.666817
Cl355	Cl	0.069620	-0.559201	0.000108
Cl356	Cl	0.402954	-0.225867	0.333441
Cl357	Cl	0.736287	0.107466	0.666774
H358	H	0.111594	-0.770441	0.000176
H359	H	0.444927	-0.437107	0.333510
H360	H	0.778260	-0.103774	0.666843
Cl361	Cl	0.072176	-0.526126	0.327040
Cl362	Cl	0.405509	-0.192792	0.660373
Cl363	Cl	0.738843	0.140541	0.993706
H364	H	0.765820	-0.762605	0.000062
H365	H	1.099153	-0.429272	0.333395
H366	H	1.432487	-0.095939	0.666729
H367	H	0.016150	-0.512280	0.000077
H368	H	0.349484	-0.178947	0.333410
H369	H	0.682817	0.154387	0.666744
H370	H	-0.164417	0.167631	-0.000005
H371	H	0.168916	0.500965	0.333328
H372	H	0.502250	0.834298	0.666661
