data_functionalizedCrystal
_audit_creation_method	'MofGen! by Chris Wilmer'
_symmetry_space_group_name_H-M	'P1'
_symmetry_Int_Tables_number	1
_symmetry_cell_setting	triclinic
loop_
_symmetry_equiv_pos_as_xyz
  x,y,z
_cell_length_a	10.686220
_cell_length_b	16.625546
_cell_length_c	16.625525
_cell_angle_alpha	89.905447
_cell_angle_beta	94.314779
_cell_angle_gamma	94.404440
loop_
_atom_site_label
_atom_site_type_symbol
_atom_site_fract_x
_atom_site_fract_y
_atom_site_fract_z
Zn1	Zn	1.929461	-0.225888	-0.361433
Zn2	Zn	1.929160	-0.360897	-0.226610
Zn3	Zn	1.718311	-0.236420	-0.236951
Zn4	Zn	1.718414	-0.371030	-0.371718
O5	O	1.823837	-0.298559	-0.299178
O6	O	2.105987	-0.235149	-0.334917
O7	O	1.901022	-0.344551	-0.115157
O8	O	1.746403	-0.122186	-0.253488
O9	O	2.105766	-0.334339	-0.235862
O10	O	1.901535	-0.114448	-0.344944
O11	O	1.746111	-0.253099	-0.122755
O12	O	1.541759	-0.262925	-0.263461
O13	O	1.746579	-0.351610	-0.483178
O14	O	1.541835	-0.361822	-0.362473
O15	O	1.901635	-0.244974	-0.475622
O16	O	1.901122	-0.475077	-0.245835
O17	O	1.746287	-0.482522	-0.352446
C18	C	1.496016	-0.314616	-0.315206
C19	C	1.355772	-0.321505	-0.322081
C20	C	1.823717	-0.508055	-0.299150
C21	C	1.823782	-0.597673	-0.299160
C22	C	1.824002	-0.925838	-0.299233
C23	C	1.823936	-0.834533	-0.299215
C24	C	1.823891	-0.761759	-0.299196
C25	C	1.823827	-0.670447	-0.299179
C26	C	2.152938	-0.282439	-0.283089
C27	C	2.293181	-0.275569	-0.276232
C28	C	1.824152	-0.298247	-0.509472
C29	C	1.824286	-0.298115	-0.599087
C30	C	1.823991	-0.088242	-0.299222
C31	C	1.824057	0.001382	-0.299241
C32	C	1.823595	-0.298807	-0.089699
C33	C	1.823705	-0.298700	-0.000072
C34	C	1.823816	-0.298600	0.072715
C35	C	1.823951	-0.298467	0.164030
C36	C	1.824052	-0.298357	0.236811
C37	C	1.824185	-0.298225	0.328132
H38	H	1.346884	-0.230972	-0.231718
O39	O	1.291514	-0.374652	-0.375172
C40	C	1.161095	-0.369946	-0.370439
H41	H	1.143192	-0.308587	-0.345010
H42	H	1.123604	-0.419588	-0.329232
C43	C	1.115451	-0.455994	-0.486517
C44	C	1.093462	-0.380629	-0.455291
H45	H	1.073729	-0.462587	-0.538857
H46	H	1.203316	-0.459167	-0.489705
H47	H	1.084208	-0.497354	-0.452170
H48	H	1.124719	-0.339270	-0.489633
H49	H	1.005600	-0.377449	-0.452112
