data_functionalizedCrystal
_audit_creation_method	'MofGen! by Chris Wilmer'
_symmetry_space_group_name_H-M	'P1'
_symmetry_Int_Tables_number	1
_symmetry_cell_setting	triclinic
loop_
_symmetry_equiv_pos_as_xyz
  x,y,z
_cell_length_a	14.971486
_cell_length_b	13.596369
_cell_length_c	14.971486
_cell_angle_alpha	90.006197
_cell_angle_beta	83.614129
_cell_angle_gamma	90.000368
loop_
_atom_site_label
_atom_site_type_symbol
_atom_site_fract_x
_atom_site_fract_y
_atom_site_fract_z
O1	O	1.186946	0.081679	0.116564
O2	O	1.520279	0.415012	0.449898
O3	O	1.853612	0.748345	0.783231
O4	O	0.926545	0.081706	0.130523
O5	O	1.259879	0.415039	0.463856
O6	O	1.593212	0.748372	0.797190
O7	O	1.063725	0.081684	-0.006656
O8	O	1.397058	0.415018	0.326677
O9	O	1.730392	0.748351	0.660010
O10	O	1.049766	0.081700	0.253744
O11	O	1.383099	0.415033	0.587077
O12	O	1.716433	0.748367	0.920410
O13	O	1.063711	-0.081898	-0.006664
O14	O	1.397045	0.251435	0.326670
O15	O	1.730378	0.584768	0.660003
O16	O	0.926532	-0.081877	0.130516
O17	O	1.259865	0.251456	0.463849
O18	O	1.593198	0.584789	0.797182
O19	O	1.186932	-0.081904	0.116557
O20	O	1.520265	0.251429	0.449890
O21	O	1.853599	0.584763	0.783224
Zn22	Zn	1.056730	-0.107863	0.123535
Zn23	Zn	1.390063	0.225470	0.456868
Zn24	Zn	1.723396	0.558804	0.790202
Zn25	Zn	1.056748	0.107665	0.123545
Zn26	Zn	1.390081	0.440998	0.456878
Zn27	Zn	1.723414	0.774331	0.790211
O28	O	1.049752	-0.081883	0.253736
O29	O	1.383086	0.251450	0.587070
O30	O	1.716419	0.584784	0.920403
C31	C	0.893214	-0.000082	0.129895
C32	C	1.226547	0.333251	0.463228
C33	C	1.559881	0.666584	0.796562
C34	C	0.793917	-0.000072	0.128024
C35	C	1.127250	0.333261	0.461358
C36	C	1.460583	0.666594	0.794691
N37	N	1.056724	-0.254955	0.123528
N38	N	1.390057	0.078378	0.456861
N39	N	1.723391	0.411712	0.790195
C40	C	0.736692	-0.000069	0.208614
C41	C	1.070025	0.333264	0.541947
C42	C	1.403358	0.666598	0.875280
C43	C	0.643392	-0.000084	0.206850
C44	C	0.976725	0.333250	0.540184
C45	C	1.310059	0.666583	0.873517
C46	C	0.607320	-0.000095	0.124497
C47	C	0.940653	0.333238	0.457831
C48	C	1.273986	0.666572	0.791164
C49	C	0.664552	-0.000101	0.043902
C50	C	0.997886	0.333232	0.377235
C51	C	1.331219	0.666565	0.710569
C52	C	0.757850	-0.000094	0.045666
C53	C	1.091183	0.333240	0.378999
C54	C	1.424517	0.666573	0.712333
C55	C	0.470090	-0.000115	0.040231
C56	C	0.803423	0.333218	0.373564
C57	C	1.136757	0.666552	0.706897
C58	C	0.376786	-0.000121	0.038466
C59	C	0.710119	0.333212	0.371800
C60	C	1.043453	0.666546	0.705133
C61	C	0.355632	-0.000105	0.201415
C62	C	0.688965	0.333228	0.534749
C63	C	1.022299	0.666561	0.868082
C64	C	0.448930	-0.000098	0.203179
C65	C	0.782263	0.333236	0.536513
C66	C	1.115596	0.666569	0.869846
C67	C	0.506156	-0.000102	0.122584
C68	C	0.839489	0.333231	0.455917
C69	C	1.172822	0.666565	0.789250
C70	C	1.056746	-0.656246	0.123546
C71	C	1.390080	-0.322912	0.456879
C72	C	1.723413	0.010421	0.790212
C73	C	1.056738	-0.544594	0.123544
C74	C	1.390071	-0.211261	0.456877
C75	C	1.723404	0.122072	0.790210
C76	C	1.056736	-0.455604	0.123538
C77	C	1.390069	-0.122271	0.456871
C78	C	1.723402	0.211063	0.790204
C79	C	1.056726	-0.343945	0.123534
C80	C	1.390059	-0.010612	0.456868
C81	C	1.723393	0.322721	0.790201
C82	C	1.220263	-0.000114	0.117185
C83	C	1.553597	0.333219	0.450518
C84	C	1.886930	0.666553	0.783851
C85	C	1.319561	-0.000118	0.119056
C86	C	1.652894	0.333216	0.452389
C87	C	1.986227	0.666549	0.785722
C88	C	1.063094	-0.000107	-0.039985
C89	C	1.396427	0.333227	0.293348
C90	C	1.729761	0.666560	0.626682
C91	C	1.061223	-0.000106	-0.139282
C92	C	1.394556	0.333228	0.194051
C93	C	1.727890	0.666561	0.527385
N94	N	1.056761	0.254756	0.123545
N95	N	1.390094	0.588090	0.456878
N96	N	1.723427	0.921423	0.790211
C97	C	1.141812	-0.000115	-0.196507
C98	C	1.475146	0.333219	0.136826
C99	C	1.808479	0.666552	0.470159
C100	C	1.140049	-0.000105	-0.289807
C101	C	1.473383	0.333229	0.043527
C102	C	1.806716	0.666562	0.376860
C103	C	1.057696	-0.000092	-0.325879
C104	C	1.391029	0.333241	0.007454
C105	C	1.724363	0.666574	0.340788
C106	C	0.977101	-0.000080	-0.268646
C107	C	1.310434	0.333253	0.064687
C108	C	1.643767	0.666586	0.398020
C109	C	0.978865	-0.000084	-0.175349
C110	C	1.312198	0.333250	0.157985
C111	C	1.645531	0.666583	0.491318
C112	C	0.973430	-0.000077	-0.463109
C113	C	1.306763	0.333257	-0.129776
C114	C	1.640096	0.666590	0.203558
C115	C	0.971665	-0.000075	-0.556413
C116	C	1.304998	0.333258	-0.223080
C117	C	1.638332	0.666591	0.110254
C118	C	1.134614	-0.000098	-0.577567
C119	C	1.467947	0.333236	-0.244233
C120	C	1.801281	0.666569	0.089100
C121	C	1.136378	-0.000101	-0.484269
C122	C	1.469712	0.333233	-0.150936
C123	C	1.803045	0.666566	0.182397
C124	C	1.055782	-0.000090	-0.427043
C125	C	1.389116	0.333243	-0.093710
C126	C	1.722449	0.666576	0.239624
C127	C	1.050384	-0.000090	0.287065
C128	C	1.383717	0.333244	0.620398
C129	C	1.717050	0.666577	0.953731
C130	C	1.052254	-0.000084	0.386362
C131	C	1.385588	0.333249	0.719695
C132	C	1.718921	0.666582	1.053028
H133	H	0.766054	-0.000059	0.275675
H134	H	1.099387	0.333274	0.609008
H135	H	1.432720	0.666607	0.942342
C136	C	0.880874	-0.084159	-0.345921
C137	C	1.214207	0.249175	-0.012588
C138	C	1.547540	0.582508	0.320746
C139	C	0.884838	-0.000067	-0.400203
C140	C	1.218172	0.333266	-0.066869
C141	C	1.551505	0.666600	0.266464
H142	H	0.826185	-0.084151	-0.307083
H143	H	1.159518	0.249182	0.026251
H144	H	1.492851	0.582516	0.359584
H145	H	0.883565	-0.141191	-0.382765
H146	H	1.216898	0.192142	-0.049431
H147	H	1.550232	0.525475	0.283902
H148	H	0.930177	-0.084153	-0.311091
H149	H	1.263510	0.249180	0.022242
H150	H	1.596844	0.582514	0.355576
H151	H	0.835538	-0.000077	-0.435038
H152	H	1.168872	0.333257	-0.101705
H153	H	1.502205	0.666590	0.231629
H154	H	0.882138	0.056980	-0.363355
H155	H	1.215471	0.390314	-0.030021
H156	H	1.548805	0.723647	0.303312
C157	C	0.308871	0.084000	0.339764
C158	C	0.642205	0.417333	0.673097
C159	C	0.975538	0.750666	1.006431
C160	C	0.292734	-0.000104	0.290010
C161	C	0.626067	0.333230	0.623344
C162	C	0.959401	0.666563	0.956677
H163	H	0.270034	0.084005	0.394454
H164	H	0.603368	0.417339	0.727787
H165	H	0.936701	0.750672	1.061121
H166	H	0.369592	0.084002	0.352595
H167	H	0.702925	0.417335	0.685928
H168	H	1.036258	0.750669	1.019262
H169	H	0.297917	0.141031	0.305989
H170	H	0.631250	0.474364	0.639322
H171	H	0.964584	0.807697	0.972656
H172	H	0.303695	-0.057135	0.323783
H173	H	0.637028	0.276198	0.657117
H174	H	0.970362	0.609532	0.990450
H175	H	0.231999	-0.000115	0.277182
H176	H	0.565333	0.333219	0.610515
H177	H	0.898666	0.666552	0.943849
H178	H	1.203437	-0.000117	-0.454903
H179	H	1.536771	0.333216	-0.121569
H180	H	1.870104	0.666549	0.211764
C181	C	0.587284	0.083978	-0.052308
C182	C	0.920617	0.417312	0.281025
C183	C	1.253951	0.750645	0.614359
C184	C	0.532999	-0.000117	-0.048358
C185	C	0.866333	0.333216	0.284975
C186	C	1.199666	0.666550	0.618308
H187	H	0.626125	0.083976	-0.106995
H188	H	0.959459	0.417309	0.226338
H189	H	1.292792	0.750642	0.559672
H190	H	0.550443	0.141009	-0.049611
H191	H	0.883776	0.474342	0.283723
H192	H	1.217109	0.807675	0.617056
H193	H	0.622111	0.083972	-0.003002
H194	H	0.955444	0.417305	0.330331
H195	H	1.288778	0.750639	0.663664
H196	H	0.498167	-0.000107	-0.097661
H197	H	0.831501	0.333226	0.235673
H198	H	1.164834	0.666560	0.569006
H199	H	0.569845	-0.057162	-0.051064
H200	H	0.903178	0.276171	0.282269
H201	H	1.236512	0.609505	0.615602
C202	C	0.526203	-0.084167	0.299404
C203	C	0.859536	0.249166	0.632737
C204	C	1.192870	0.582499	0.966070
C205	C	0.580487	-0.000071	0.295435
C206	C	0.913820	0.333262	0.628768
C207	C	1.247153	0.666596	0.962102
H208	H	0.487371	-0.084159	0.354097
H209	H	0.820705	0.249174	0.687430
H210	H	1.154038	0.582508	1.020764
H211	H	0.491374	-0.084174	0.250110
H212	H	0.824707	0.249159	0.583443
H213	H	1.158040	0.582492	0.916776
H214	H	0.563052	-0.141203	0.296711
H215	H	0.896385	0.192130	0.630044
H216	H	1.229719	0.525464	0.963378
H217	H	0.543638	0.056965	0.298121
H218	H	0.876971	0.390298	0.631455
H219	H	1.210304	0.723632	0.964788
H220	H	0.615319	-0.000055	0.344743
H221	H	0.948652	0.333278	0.678076
H222	H	1.281985	0.666612	1.011409
H223	H	0.910047	-0.000064	-0.298024
H224	H	1.243380	0.333269	0.035310
H225	H	1.576714	0.666602	0.368643
H226	H	1.200238	-0.000103	-0.624165
H227	H	1.533572	0.333231	-0.290832
H228	H	1.866905	0.666564	0.042501
C229	C	0.407062	-0.000152	-0.122426
C230	C	0.740395	0.333181	0.210907
C231	C	1.073729	0.666515	0.544240
C232	C	0.337133	-0.000139	-0.052057
C233	C	0.670466	0.333195	0.281277
C234	C	1.003800	0.666528	0.614610
H235	H	0.382579	-0.000168	-0.178311
H236	H	0.715913	0.333165	0.155023
H237	H	1.049246	0.666499	0.488356
H238	H	0.443009	0.056891	-0.118355
H239	H	0.776342	0.390224	0.214979
H240	H	1.109676	0.723558	0.548312
H241	H	0.443013	-0.057200	-0.118343
H242	H	0.776347	0.276134	0.214990
H243	H	1.109680	0.609467	0.548323
H244	H	0.301185	0.056913	-0.056136
H245	H	0.634518	0.390246	0.277198
H246	H	0.967852	0.723580	0.610531
H247	H	0.301170	-0.057187	-0.056130
H248	H	0.634504	0.276146	0.277203
H249	H	0.967837	0.609479	0.610536
H250	H	1.208874	-0.000130	-0.167145
H251	H	1.542207	0.333203	0.166188
H252	H	1.875541	0.666536	0.499522
H253	H	0.635175	-0.000124	-0.023152
H254	H	0.968508	0.333209	0.310182
H255	H	1.301842	0.666542	0.643515
C256	C	0.875184	0.084037	-0.649070
C257	C	1.208517	0.417370	-0.315737
C258	C	1.541851	0.750703	0.017596
C259	C	0.881146	-0.000054	-0.596074
C260	C	1.214479	0.333279	-0.262740
C261	C	1.547813	0.666613	0.070593
H262	H	0.819303	0.084045	-0.673560
H263	H	1.152637	0.417378	-0.340227
H264	H	1.485970	0.750711	-0.006894
H265	H	0.879259	0.141070	-0.613107
H266	H	1.212593	0.474403	-0.279774
H267	H	1.545926	0.807737	0.053560
H268	H	0.922940	0.084014	-0.696496
H269	H	1.256273	0.417347	-0.363162
H270	H	1.589606	0.750681	-0.029829
H271	H	0.833394	-0.000028	-0.548644
H272	H	1.166727	0.333306	-0.215311
H273	H	1.500061	0.666639	0.118022
H274	H	0.877062	-0.057102	-0.632039
H275	H	1.210395	0.276231	-0.298706
H276	H	1.543729	0.609564	0.034628
C277	C	0.769394	-0.000093	-0.115578
C278	C	1.102728	0.333241	0.217755
C279	C	1.436061	0.666574	0.551089
C280	C	0.820756	-0.000088	-0.042920
C281	C	1.154089	0.333245	0.290413
C282	C	1.487423	0.666579	0.623746
H283	H	0.808231	-0.000085	-0.170268
H284	H	1.141565	0.333248	0.163065
H285	H	1.474898	0.666581	0.496399
H286	H	0.732572	-0.057137	-0.112882
H287	H	1.065905	0.276196	0.220452
H288	H	1.399238	0.609529	0.553785
H289	H	0.732558	0.056953	-0.112867
H290	H	1.065891	0.390286	0.220467
H291	H	1.399224	0.723620	0.553800
H292	H	0.857588	-0.057138	-0.045628
H293	H	1.190921	0.276195	0.287705
H294	H	1.524255	0.609529	0.621038
H295	H	0.857594	0.056962	-0.045618
H296	H	1.190928	0.390296	0.287715
H297	H	1.524261	0.723629	0.621048
C298	C	1.232615	0.083988	-0.406976
C299	C	1.565949	0.417322	-0.073643
C300	C	1.899282	0.750655	0.259690
C301	C	1.228639	-0.000111	-0.352704
C302	C	1.561972	0.333222	-0.019371
C303	C	1.895306	0.666556	0.313963
H304	H	1.287313	0.083988	-0.445800
H305	H	1.620647	0.417321	-0.112467
H306	H	1.953980	0.750655	0.220866
H307	H	1.183327	0.083991	-0.441813
H308	H	1.516661	0.417325	-0.108480
H309	H	1.849994	0.750658	0.224853
H310	H	1.229917	0.141022	-0.370119
H311	H	1.563250	0.474355	-0.036786
H312	H	1.896584	0.807689	0.296548
H313	H	1.231331	-0.057145	-0.389561
H314	H	1.564664	0.276188	-0.056228
H315	H	1.897997	0.609522	0.277105
H316	H	1.277941	-0.000123	-0.317864
H317	H	1.611274	0.333211	0.015469
H318	H	1.944607	0.666544	0.348803
H319	H	0.913240	-0.000076	-0.128756
H320	H	1.246574	0.333257	0.204577
H321	H	1.579907	0.666591	0.537911
H322	H	0.478296	-0.000079	0.270239
H323	H	0.811630	0.333254	0.603572
H324	H	1.144963	0.666588	0.936905
