data_functionalizedCrystal
_audit_creation_method	'MofGen! by Chris Wilmer'
_symmetry_space_group_name_H-M	'P1'
_symmetry_Int_Tables_number	1
_symmetry_cell_setting	triclinic
loop_
_symmetry_equiv_pos_as_xyz
  x,y,z
_cell_length_a	10.654545
_cell_length_b	16.776229
_cell_length_c	10.654550
_cell_angle_alpha	89.997634
_cell_angle_beta	95.515995
_cell_angle_gamma	90.006668
loop_
_atom_site_label
_atom_site_type_symbol
_atom_site_fract_x
_atom_site_fract_y
_atom_site_fract_z
O1	O	1.667849	0.066272	-0.176375
O2	O	2.167849	0.566272	0.323625
O3	O	1.302370	0.066275	-0.193187
O4	O	1.802370	0.566275	0.306813
O5	O	1.493512	0.066277	-0.002042
O6	O	1.993512	0.566277	0.497958
O7	O	1.476706	0.066270	-0.367520
O8	O	1.976706	0.566270	0.132480
O9	O	1.493487	-0.066300	-0.002029
O10	O	1.993487	0.433700	0.497971
O11	O	1.302344	-0.066302	-0.193175
O12	O	1.802344	0.433698	0.306825
O13	O	1.667823	-0.066304	-0.176363
O14	O	2.167823	0.433696	0.323637
Zn15	Zn	1.485080	-0.087353	-0.184767
Zn16	Zn	1.985080	0.412647	0.315233
Zn17	Zn	1.485113	0.087323	-0.184783
Zn18	Zn	1.985113	0.587323	0.315217
O19	O	1.476681	-0.066306	-0.367508
O20	O	1.976681	0.433694	0.132492
C21	C	1.255559	-0.000013	-0.191948
C22	C	1.755559	0.499987	0.308052
C23	C	1.116115	-0.000012	-0.188258
C24	C	1.616115	0.499988	0.311742
N25	N	1.485066	-0.206564	-0.184755
N26	N	1.985066	0.293436	0.315245
C27	C	1.050597	-0.072280	-0.186515
C28	C	1.550597	0.427720	0.313485
C29	C	0.919577	-0.072280	-0.183027
C30	C	1.419577	0.427720	0.316973
C31	C	0.919606	0.072262	-0.183032
C32	C	1.419606	0.572262	0.316968
C33	C	1.050624	0.072262	-0.186510
C34	C	1.550624	0.572262	0.313490
C35	C	1.569730	-0.248280	-0.100151
C36	C	2.069730	0.251720	0.399849
C37	C	1.569737	-0.331732	-0.100150
C38	C	2.069737	0.168268	0.399850
C39	C	1.485085	-0.373467	-0.184760
C40	C	1.985085	0.126533	0.315240
C41	C	1.400411	-0.331745	-0.269368
C42	C	1.900411	0.168255	0.230632
C43	C	1.400399	-0.248294	-0.269362
C44	C	1.900399	0.251706	0.230638
C45	C	1.400457	-0.668292	-0.269393
C46	C	1.900457	-0.168292	0.230607
C47	C	1.400478	-0.751748	-0.269396
C48	C	1.900478	-0.251748	0.230604
C49	C	1.569795	-0.751730	-0.100182
C50	C	2.069795	-0.251730	0.399818
C51	C	1.569783	-0.668279	-0.100176
C52	C	2.069783	-0.168279	0.399824
C53	C	1.485105	-0.626565	-0.184778
C54	C	1.985105	-0.126565	0.315222
C55	C	1.485097	-0.536076	-0.184777
C56	C	1.985097	-0.036076	0.315223
C57	C	1.485098	-0.463954	-0.184769
C58	C	1.985098	0.036046	0.315231
C59	C	1.714634	-0.000015	-0.177602
C60	C	2.214634	0.499985	0.322398
C61	C	1.854078	-0.000011	-0.181292
C62	C	2.354078	0.499989	0.318708
C63	C	1.477927	-0.000019	-0.414312
C64	C	1.977927	0.499981	0.085688
C65	C	1.481619	-0.000021	-0.553755
C66	C	1.981619	0.499979	-0.053755
N67	N	1.485137	0.206534	-0.184785
N68	N	1.985137	0.706534	0.315215
C69	C	1.369078	-0.000019	-0.633243
C70	C	1.869078	0.499981	-0.133243
C71	C	1.372554	-0.000006	-0.764264
C72	C	1.872554	0.499994	-0.264264
C73	C	1.601124	-0.000002	-0.736297
C74	C	2.101124	0.499998	-0.236297
C75	C	1.597646	-0.000009	-0.605279
C76	C	2.097646	0.499991	-0.105279
C77	C	1.492266	-0.000009	0.044762
C78	C	1.992266	0.499991	0.544762
C79	C	1.488574	-0.000002	0.184206
C80	C	1.988574	0.499998	0.684206
H81	H	1.103916	-0.131130	-0.187938
H82	H	1.603916	0.368870	0.312062
F83	F	1.717435	-0.000008	-0.520676
F84	F	2.217435	0.499992	-0.020676
F85	F	1.659836	-0.203871	-0.010102
F86	F	2.159836	0.296129	0.489898
F87	F	0.849898	0.149177	-0.181147
F88	F	1.349898	0.649177	0.318853
F89	F	0.849853	-0.149197	-0.181173
F90	F	1.349853	0.350803	0.318827
H91	H	1.331539	-0.785727	-0.338297
H92	H	1.831539	-0.285727	0.161703
F93	F	1.252771	0.000001	-0.848855
F94	F	1.752771	0.500001	-0.348855
F95	F	1.120359	0.149183	-0.188358
F96	F	1.620359	0.649183	0.311642
H97	H	1.331512	-0.634334	-0.338282
H98	H	1.831512	-0.134334	0.161718
F99	F	1.724601	0.000009	-0.791143
F100	F	2.224601	0.500009	-0.291143
F101	F	1.659884	-0.623866	-0.010128
F102	F	2.159884	-0.123866	0.489872
F103	F	1.659844	-0.376130	-0.010104
F104	F	2.159844	0.123870	0.489896
F105	F	1.310284	-0.203898	-0.359406
F106	F	1.810284	0.296102	0.140594
F107	F	1.659913	-0.796132	-0.010134
F108	F	2.159913	-0.296132	0.489866
H109	H	1.331479	-0.365730	-0.338255
H110	H	1.831479	0.134270	0.161745
H111	H	1.274601	-0.000031	-0.591298
H112	H	1.774601	0.499969	-0.091298
