data_functionalizedCrystal
_audit_creation_method	'MofGen! by Chris Wilmer'
_symmetry_space_group_name_H-M	'P1'
_symmetry_Int_Tables_number	1
_symmetry_cell_setting	triclinic
loop_
_symmetry_equiv_pos_as_xyz
  x,y,z
_cell_length_a	16.625548
_cell_length_b	12.594516
_cell_length_c	16.625539
_cell_angle_alpha	89.976673
_cell_angle_beta	89.979432
_cell_angle_gamma	90.017121
loop_
_atom_site_label
_atom_site_type_symbol
_atom_site_fract_x
_atom_site_fract_y
_atom_site_fract_z
Zn1	Zn	1.232716	-0.423710	-0.455937
Zn2	Zn	1.482716	-0.173710	-0.205937
Zn3	Zn	1.732716	0.076290	0.044063
Zn4	Zn	1.982716	0.326290	0.294063
Zn5	Zn	1.232635	-0.601711	-0.321116
Zn6	Zn	1.482635	-0.351711	-0.071116
Zn7	Zn	1.732635	-0.101711	0.178884
Zn8	Zn	1.982635	0.148289	0.428884
Zn9	Zn	1.097878	-0.423750	-0.321118
Zn10	Zn	1.347878	-0.173750	-0.071118
Zn11	Zn	1.597878	0.076250	0.178882
Zn12	Zn	1.847878	0.326250	0.428882
Zn13	Zn	1.097864	-0.601650	-0.455906
Zn14	Zn	1.347864	-0.351650	-0.205906
Zn15	Zn	1.597864	-0.101650	0.044094
Zn16	Zn	1.847864	0.148350	0.294094
O17	O	1.165273	-0.512705	-0.388519
O18	O	1.415273	-0.262705	-0.138519
O19	O	1.665273	-0.012705	0.111481
O20	O	1.915273	0.237295	0.361481
O21	O	1.345538	-0.447331	-0.438065
O22	O	1.595538	-0.197331	-0.188065
O23	O	1.845538	0.052669	0.061935
O24	O	2.095538	0.302669	0.311935
O25	O	1.214731	-0.578147	-0.208284
O26	O	1.464731	-0.328147	0.041716
O27	O	1.714731	-0.078147	0.291716
O28	O	1.964731	0.171853	0.541716
O29	O	1.115805	-0.274799	-0.339016
O30	O	1.365805	-0.024799	-0.089016
O31	O	1.615805	0.225201	0.160984
O32	O	1.865805	0.475201	0.410984
O33	O	1.345478	-0.578108	-0.339013
O34	O	1.595478	-0.328108	-0.089013
O35	O	1.845478	-0.078108	0.160987
O36	O	2.095478	0.171892	0.410987
O37	O	1.214870	-0.274769	-0.438067
O38	O	1.464870	-0.024769	-0.188067
O39	O	1.714870	0.225231	0.061933
O40	O	1.964870	0.475231	0.311933
O41	O	1.115726	-0.447400	-0.208285
O42	O	1.365726	-0.197400	0.041715
O43	O	1.615726	0.052600	0.291715
O44	O	1.865726	0.302600	0.541715
O45	O	0.985044	-0.447341	-0.338985
O46	O	1.235044	-0.197341	-0.088985
O47	O	1.485044	0.052659	0.161015
O48	O	1.735044	0.302659	0.411015
O49	O	1.115780	-0.578003	-0.568743
O50	O	1.365780	-0.328003	-0.318743
O51	O	1.615780	-0.078003	-0.068743
O52	O	1.865780	0.171997	0.181257
O53	O	0.985033	-0.578043	-0.438014
O54	O	1.235033	-0.328043	-0.188014
O55	O	1.485033	-0.078043	0.061986
O56	O	1.735033	0.171957	0.311986
O57	O	1.214856	-0.447271	-0.568766
O58	O	1.464856	-0.197271	-0.318766
O59	O	1.714856	0.052729	-0.068766
O60	O	1.964856	0.302729	0.181234
O61	O	1.214717	-0.750649	-0.338983
O62	O	1.464717	-0.500649	-0.088983
O63	O	1.714717	-0.250649	0.161017
O64	O	1.964717	-0.000649	0.411017
O65	O	1.115701	-0.750604	-0.438012
O66	O	1.365701	-0.500604	-0.188012
O67	O	1.615701	-0.250604	0.061988
O68	O	1.865701	-0.000604	0.311988
C69	C	0.955782	-0.512690	-0.388497
C70	C	1.205782	-0.262690	-0.138497
C71	C	1.455782	-0.012690	0.111503
C72	C	1.705782	0.237310	0.361503
C73	C	0.866161	-0.512709	-0.388506
C74	C	1.116161	-0.262709	-0.138506
C75	C	1.366161	-0.012709	0.111494
C76	C	1.616161	0.237291	0.361494
C77	C	0.537986	-0.512716	-0.388541
C78	C	0.787986	-0.262716	-0.138541
C79	C	1.037986	-0.012716	0.111459
C80	C	1.287986	0.237284	0.361459
C81	C	0.629294	-0.512711	-0.388529
C82	C	0.879294	-0.262711	-0.138529
C83	C	1.129294	-0.012711	0.111471
C84	C	1.379294	0.237289	0.361471
C85	C	0.702071	-0.512713	-0.388523
C86	C	0.952071	-0.262713	-0.138523
C87	C	1.202071	-0.012713	0.111477
C88	C	1.452071	0.237287	0.361477
C89	C	0.793385	-0.512707	-0.388512
C90	C	1.043385	-0.262707	-0.138512
C91	C	1.293385	-0.012707	0.111488
C92	C	1.543385	0.237293	0.361488
C93	C	1.165220	-0.789246	-0.388511
C94	C	1.415220	-0.539246	-0.138511
C95	C	1.665220	-0.289246	0.111489
C96	C	1.915220	-0.039246	0.361489
C97	C	1.165272	-0.907552	-0.388535
C98	C	1.415272	-0.657552	-0.138535
C99	C	1.665272	-0.407552	0.111465
C100	C	1.915272	-0.157552	0.361465
C101	C	1.111412	-0.976819	-0.442359
C102	C	1.361412	-0.726819	-0.192359
C103	C	1.611412	-0.476819	0.057641
C104	C	1.861412	-0.226819	0.307641
C105	C	1.091767	-1.047680	-0.368785
C106	C	1.341767	-0.797680	-0.118785
C107	C	1.591767	-0.547680	0.131215
C108	C	1.841767	-0.297680	0.381215
C109	C	1.184990	-1.047490	-0.462122
C110	C	1.434990	-0.797490	-0.212122
C111	C	1.684990	-0.547490	0.037878
C112	C	1.934990	-0.297490	0.287878
C113	C	1.145588	-0.976855	-0.314921
C114	C	1.395588	-0.726855	-0.064921
C115	C	1.645588	-0.476855	0.185079
C116	C	1.895588	-0.226855	0.435079
C117	C	1.238845	-0.976658	-0.408308
C118	C	1.488845	-0.726658	-0.158308
C119	C	1.738845	-0.476658	0.091692
C120	C	1.988845	-0.226658	0.341692
C121	C	1.219228	-1.047487	-0.334683
C122	C	1.469228	-0.797487	-0.084683
C123	C	1.719228	-0.547487	0.165317
C124	C	1.969228	-0.297487	0.415317
C125	C	1.375582	-0.512721	-0.388542
C126	C	1.625582	-0.262721	-0.138542
C127	C	1.875582	-0.012721	0.111458
C128	C	2.125582	0.237279	0.361458
C129	C	1.465203	-0.512728	-0.388552
C130	C	1.715203	-0.262728	-0.138552
C131	C	1.965203	-0.012728	0.111448
C132	C	2.215203	0.237272	0.361448
C133	C	1.165326	-0.512626	-0.598828
C134	C	1.415326	-0.262626	-0.348828
C135	C	1.665326	-0.012626	-0.098828
C136	C	1.915326	0.237374	0.151172
C137	C	1.165348	-0.512592	-0.688449
C138	C	1.415348	-0.262592	-0.438449
C139	C	1.665348	-0.012592	-0.188449
C140	C	1.915348	0.237408	0.061551
C141	C	1.165348	-0.235085	-0.388545
C142	C	1.415348	0.014915	-0.138545
C143	C	1.665348	0.264915	0.111455
C144	C	1.915348	0.514915	0.361455
C145	C	1.165380	-0.116779	-0.388556
C146	C	1.415380	0.133221	-0.138556
C147	C	1.665380	0.383221	0.111444
C148	C	1.915380	0.633221	0.361444
C149	C	1.165385	-0.512473	-1.016625
C150	C	1.415385	-0.262473	-0.766625
C151	C	1.665385	-0.012473	-0.516625
C152	C	1.915385	0.237527	-0.266625
C153	C	1.165373	-0.512510	-0.925317
C154	C	1.415373	-0.262510	-0.675317
C155	C	1.665373	-0.012510	-0.425317
C156	C	1.915373	0.237490	-0.175317
C157	C	1.165367	-0.512534	-0.852540
C158	C	1.415367	-0.262534	-0.602540
C159	C	1.665367	-0.012534	-0.352540
C160	C	1.915367	0.237466	-0.102540
C161	C	1.165354	-0.512568	-0.761226
C162	C	1.415354	-0.262568	-0.511226
C163	C	1.665354	-0.012568	-0.261226
C164	C	1.915354	0.237432	-0.011226
C165	C	1.165267	-0.512708	-0.179028
C166	C	1.415267	-0.262708	0.070972
C167	C	1.665267	-0.012708	0.320972
C168	C	1.915267	0.237292	0.570972
C169	C	1.165401	-0.512442	-0.089408
C170	C	1.415401	-0.262442	0.160592
C171	C	1.665401	-0.012442	0.410592
C172	C	1.915401	0.237558	0.660592
H173	H	1.029597	-1.078900	-0.352077
H174	H	1.279597	-0.828900	-0.102077
H175	H	1.529597	-0.578900	0.147923
H176	H	1.779597	-0.328900	0.397923
C177	C	1.123139	-0.823978	-0.231660
C178	C	1.373139	-0.573978	0.018340
C179	C	1.623139	-0.323978	0.268340
C180	C	1.873139	-0.073978	0.518340
C181	C	1.123028	-0.935152	-0.230899
C182	C	1.373028	-0.685152	0.019101
C183	C	1.623028	-0.435152	0.269101
C184	C	1.873028	-0.185152	0.519101
H185	H	1.109204	-0.798233	-0.179790
H186	H	1.359204	-0.548233	0.070210
H187	H	1.609204	-0.298233	0.320210
H188	H	1.859204	-0.048233	0.570210
H189	H	1.175197	-0.799076	-0.245778
H190	H	1.425197	-0.549076	0.004222
H191	H	1.675197	-0.299076	0.254222
H192	H	1.925197	-0.049076	0.504222
H193	H	1.085080	-0.799228	-0.269919
H194	H	1.335080	-0.549228	-0.019919
H195	H	1.585080	-0.299228	0.230081
H196	H	1.835080	-0.049228	0.480081
H197	H	1.161092	-0.959901	-0.192643
H198	H	1.411092	-0.709901	0.057357
H199	H	1.661092	-0.459901	0.307357
H200	H	1.911092	-0.209901	0.557357
H201	H	1.070962	-0.960064	-0.216771
H202	H	1.320962	-0.710064	0.033229
H203	H	1.570962	-0.460064	0.283229
H204	H	1.820962	-0.210064	0.533229
C205	C	1.259994	-1.053276	-0.196221
C206	C	1.509994	-0.803276	0.053779
C207	C	1.759994	-0.553276	0.303779
C208	C	2.009994	-0.303276	0.553779
C209	C	1.280777	-1.089126	-0.273182
C210	C	1.530777	-0.839126	-0.023182
C211	C	1.780777	-0.589126	0.226818
C212	C	2.030777	-0.339126	0.476818
H213	H	1.297987	-1.078991	-0.158253
H214	H	1.547987	-0.828991	0.091747
H215	H	1.797987	-0.578991	0.341747
H216	H	2.047987	-0.328991	0.591747
H217	H	1.259978	-0.977866	-0.195577
H218	H	1.509978	-0.727866	0.054423
H219	H	1.759978	-0.477866	0.304423
H220	H	2.009978	-0.227866	0.554423
H221	H	1.207924	-1.078676	-0.182636
H222	H	1.457924	-0.828676	0.067364
H223	H	1.707924	-0.578676	0.317364
H224	H	1.957924	-0.328676	0.567364
H225	H	1.332844	-1.063719	-0.286770
H226	H	1.582844	-0.813719	-0.036770
H227	H	1.832844	-0.563719	0.213230
H228	H	2.082844	-0.313719	0.463230
H229	H	1.280801	-1.164552	-0.273828
H230	H	1.530801	-0.914552	-0.023828
H231	H	1.780801	-0.664552	0.226172
H232	H	2.030801	-0.414552	0.476172
C233	C	1.343224	-0.970092	-0.508023
C234	C	1.593224	-0.720092	-0.258023
C235	C	1.843224	-0.470092	-0.008023
C236	C	2.093224	-0.220092	0.241977
C237	C	1.322750	-0.934502	-0.430910
C238	C	1.572750	-0.684502	-0.180910
C239	C	1.822750	-0.434502	0.069090
C240	C	2.072750	-0.184502	0.319090
H241	H	1.395021	-0.944058	-0.521983
H242	H	1.645021	-0.694058	-0.271983
H243	H	1.895021	-0.444058	-0.021983
H244	H	2.145021	-0.194058	0.228017
H245	H	1.343756	-1.045498	-0.508676
H246	H	1.593756	-0.795498	-0.258676
H247	H	1.843756	-0.545498	-0.008676
H248	H	2.093756	-0.295498	0.241324
H249	H	1.304785	-0.944838	-0.545709
H250	H	1.554785	-0.694838	-0.295709
H251	H	1.804785	-0.444838	-0.045709
H252	H	2.054785	-0.194838	0.204291
H253	H	1.361186	-0.959763	-0.393222
H254	H	1.611186	-0.709763	-0.143222
H255	H	1.861186	-0.459763	0.106778
H256	H	2.111186	-0.209763	0.356778
H257	H	1.322224	-0.859080	-0.430251
H258	H	1.572224	-0.609080	-0.180251
H259	H	1.822224	-0.359080	0.069749
H260	H	2.072224	-0.109080	0.319749
H261	H	1.201624	-1.078517	-0.524346
H262	H	1.451624	-0.828517	-0.274346
H263	H	1.701624	-0.578517	-0.024346
H264	H	1.951624	-0.328517	0.225654
H265	H	1.065783	-0.945789	-0.487811
H266	H	1.315783	-0.695789	-0.237811
H267	H	1.565783	-0.445789	0.012189
H268	H	1.815783	-0.195789	0.262189
