data_functionalizedCrystal
_audit_creation_method	'MofGen! by Chris Wilmer'
_symmetry_space_group_name_H-M	'P1'
_symmetry_Int_Tables_number	1
_symmetry_cell_setting	triclinic
loop_
_symmetry_equiv_pos_as_xyz
  x,y,z
_cell_length_a	14.395555
_cell_length_b	21.606444
_cell_length_c	21.606444
_cell_angle_alpha	90.000308
_cell_angle_beta	60.002675
_cell_angle_gamma	60.000840
loop_
_atom_site_label
_atom_site_type_symbol
_atom_site_fract_x
_atom_site_fract_y
_atom_site_fract_z
Zr1	Zr	1.016825	-0.081251	0.596242
O2	O	1.210608	-0.180072	0.497423
O3	O	0.823033	-0.050956	0.626532
O4	O	1.016821	-0.180075	0.626536
O5	O	1.016827	0.050897	0.497419
O6	O	1.016827	-0.180078	0.728386
O7	O	1.016821	-0.050953	0.497419
O8	O	0.670177	0.050892	0.728379
O9	O	1.363478	-0.180074	0.497426
O10	O	0.902751	-0.038040	0.715463
O11	O	0.902751	0.037972	0.639454
O12	O	1.130911	-0.114049	0.639459
O13	O	1.130911	-0.038036	0.563449
Zr14	Zr	1.016846	0.081182	0.758680
Zr15	Zr	1.016836	-0.081257	0.758680
Zr16	Zr	1.016836	0.081187	0.596241
Zr17	Zr	1.260634	-0.081254	0.596246
Zr18	Zr	0.773037	0.081184	0.758675
O19	O	1.210638	0.050886	0.728389
O20	O	1.210623	-0.180080	0.728390
O21	O	1.210623	0.050895	0.497423
O22	O	0.823063	0.180003	0.857498
O23	O	0.823048	-0.050964	0.857499
O24	O	0.823048	0.180011	0.626532
O25	O	1.016844	-0.050966	0.857503
O26	O	1.016851	0.180005	0.728385
O27	O	1.016844	0.180009	0.626536
O28	O	1.016851	0.050884	0.857503
O29	O	1.363486	-0.180078	0.626543
O30	O	0.670185	0.180009	0.728378
O31	O	0.670194	0.180004	0.857495
O32	O	0.670185	0.050887	0.857496
O33	O	1.363486	-0.050957	0.497426
O34	O	1.363494	-0.050961	0.626543
O35	O	0.902761	0.113979	0.715463
O36	O	0.902761	0.037967	0.791472
O37	O	1.130920	-0.038042	0.715468
O38	O	1.130920	0.037970	0.639458
C39	C	0.711867	-0.000032	0.677455
C40	C	0.608364	-0.000031	0.677453
C41	C	1.016823	-0.000027	0.474275
C42	C	1.016818	-0.000025	0.405315
C43	C	1.016849	0.203151	0.677460
C44	C	1.016853	0.272111	0.677460
C45	C	0.547772	0.041417	0.636011
C46	C	0.562022	-0.030055	0.605976
C47	C	0.409718	0.071420	0.707470
C48	C	0.624040	-0.071545	0.647376
C49	C	0.471674	0.029982	0.748909
C50	C	0.485970	-0.041533	0.718891
C51	C	1.321804	-0.000038	0.677467
C52	C	1.425307	-0.000039	0.677469
C53	C	1.016823	-0.203221	0.677461
C54	C	1.016818	-0.272180	0.677461
C55	C	1.135949	0.264834	0.637788
C56	C	1.135946	0.329631	0.637785
C57	C	1.016845	0.401704	0.677458
C58	C	0.897739	0.408980	0.717132
C59	C	0.897744	0.344183	0.717130
C60	C	0.897716	0.670298	0.717138
C61	C	0.897721	0.735096	0.717138
C62	C	1.135918	0.655746	0.637792
C63	C	1.135923	0.590949	0.637791
C64	C	1.016818	0.598230	0.677461
C65	C	1.016824	0.527969	0.677463
C66	C	1.016838	0.471965	0.677461
C67	C	0.897722	0.039648	0.412590
C68	C	0.897726	0.039649	0.347793
C69	C	1.016827	-0.000028	0.275722
C70	C	1.135932	-0.039703	0.268449
C71	C	1.135927	-0.039699	0.333245
C72	C	1.135955	-0.039720	0.007130
C73	C	1.135951	-0.039723	-0.057668
C74	C	0.897753	0.039628	0.021678
C75	C	0.897748	0.039632	0.086474
C76	C	1.016853	-0.000039	0.079196
C77	C	1.016847	-0.000038	0.149457
C78	C	1.016833	-0.000034	0.205461
C79	C	1.016849	-0.000042	0.880647
C80	C	1.016853	-0.000045	0.949606
C81	C	0.711881	-0.000039	0.880641
C82	C	0.608382	-0.000041	0.949598
C83	C	0.711881	0.203154	0.677454
C84	C	0.608382	0.272115	0.677452
C85	C	0.711894	0.203147	0.880640
C86	C	0.608399	0.272105	0.949598
C87	C	1.321778	-0.203216	0.474281
C88	C	1.425272	-0.272174	0.405324
C89	C	1.321791	-0.000030	0.474281
C90	C	1.425290	-0.000029	0.405324
C91	C	1.321791	-0.203224	0.677467
C92	C	1.425290	-0.272184	0.677469
C93	C	0.559772	-0.039723	0.942305
C94	C	0.462537	-0.039739	1.007092
C95	C	0.413907	-0.000069	1.079170
C96	C	0.462526	0.039615	1.086462
C97	C	0.559766	0.039626	1.021676
C98	C	0.559783	0.344181	0.717127
C99	C	0.462548	0.408983	0.717122
C100	C	0.413907	0.401717	0.677446
C101	C	0.462516	0.329643	0.637766
C102	C	0.559756	0.264843	0.637767
C103	C	0.559797	0.264811	1.021664
C104	C	0.462567	0.329598	1.086462
C105	C	0.413933	0.401678	1.079194
C106	C	0.462545	0.408971	1.007120
C107	C	0.559780	0.344185	0.942323
C108	C	1.473886	-0.264880	0.333258
C109	C	1.571147	-0.329667	0.268459
C110	C	1.619785	-0.401748	0.275728
C111	C	1.571167	-0.409041	0.347802
C112	C	1.473915	-0.344254	0.412599
C113	C	1.473909	0.039646	0.412617
C114	C	1.571171	0.039645	0.347830
C115	C	1.619805	-0.000028	0.275751
C116	C	1.571181	-0.039708	0.268460
C117	C	1.473928	-0.039711	0.333246
C118	C	1.473899	-0.264894	0.717153
C119	C	1.571135	-0.329684	0.717170
C120	C	1.619765	-0.401762	0.677498
C121	C	1.571146	-0.409051	0.637813
C122	C	1.473906	-0.344262	0.637801
H123	H	0.599201	-0.055447	0.545553
O124	O	0.611960	0.187141	0.595050
H125	H	0.656215	0.180509	0.534065
O126	O	0.612253	0.187073	1.029518
H127	H	0.530621	0.180481	1.060991
O128	O	1.623637	-0.486789	0.355630
H129	H	1.573508	-0.480987	0.416628
H130	H	0.800773	0.071931	0.027598
O131	O	1.421486	-0.352136	0.594996
H132	H	1.345688	-0.294980	0.601652
H133	H	0.422982	0.467662	0.749437
O134	O	1.264350	-0.082503	0.325439
H135	H	1.321517	-0.059602	0.293981
O136	O	1.421490	-0.082504	0.325373
H137	H	1.314216	-0.042449	0.352989
H138	H	0.800765	0.467667	0.749431
O139	O	1.421435	-0.187139	0.325411
H140	H	1.503070	-0.180546	0.293963
H141	H	0.800746	0.071956	0.353722
O142	O	0.612217	-0.082521	0.864569
H143	H	0.719493	-0.126366	0.833157
H144	H	0.422933	0.467668	1.001213
O145	O	1.264389	0.647889	0.594990
H146	H	1.244385	0.705052	0.601645
O147	O	0.745318	-0.151629	0.613655
H148	H	0.821769	-0.150994	0.613884
H149	H	0.422899	0.323738	0.605463
O150	O	0.769285	0.082428	0.164206
H151	H	0.763579	0.042371	0.195624
O152	O	0.583852	0.087775	0.589533
H153	H	0.622362	0.062682	0.530236
O154	O	0.450258	-0.088024	0.765313
H155	H	0.538488	-0.147288	0.740239
O156	O	1.623581	0.082457	0.355709
H157	H	1.699388	0.075793	0.298555
O158	O	1.264415	-0.082513	-0.135407
H159	H	1.347236	-0.110092	-0.129583
H160	H	0.422997	0.323646	1.145142
O161	O	1.421483	0.082426	0.490355
H162	H	1.471661	0.110000	0.484529
H163	H	0.334758	0.454425	1.131962
O164	O	0.309022	0.471616	0.677455
H165	H	0.283361	0.454463	0.643198
O166	O	0.612181	0.352063	0.864597
H167	H	0.687972	0.294908	0.820753
O168	O	0.422457	0.063632	0.828930
H169	H	0.424830	0.113925	0.833453
O170	O	0.288372	0.151461	0.741094
H171	H	0.313320	0.185746	0.706584
H172	H	1.610715	-0.323715	0.209780
O173	O	0.309029	-0.000086	1.149044
H174	H	0.220413	0.058993	1.183263
O175	O	1.421443	-0.187156	0.759954
H176	H	1.471579	-0.192984	0.787557
H177	H	1.698994	-0.000019	0.223005
H178	H	1.232936	0.206152	0.605484
H179	H	1.232926	0.323700	0.605481
O180	O	1.623560	-0.486790	0.595041
H181	H	1.667860	-0.493393	0.534058
H182	H	1.698974	-0.454495	0.222960
O183	O	0.769257	0.812838	0.759923
H184	H	0.686435	0.807015	0.787501
O185	O	1.421466	-0.352125	0.490328
H186	H	1.471621	-0.413133	0.484488
O187	O	0.769261	0.678151	0.759971
H188	H	0.686446	0.739154	0.787580
O189	O	1.623641	-0.082497	0.190716
H190	H	1.699424	-0.075818	0.146899
H191	H	1.232937	-0.072036	0.001194
H192	H	0.599331	0.071945	1.027625
O193	O	1.264397	-0.082507	0.190718
H194	H	1.244395	-0.075856	0.146881
H195	H	1.610710	-0.323734	0.749485
O196	O	1.724663	-0.471640	0.677503
H197	H	1.750299	-0.454454	0.711756
H198	H	0.800764	0.350112	0.749434
O199	O	1.264380	0.513212	0.594998
H200	H	1.347197	0.519038	0.567404
O201	O	0.769256	0.082440	0.490320
H202	H	0.789255	0.075772	0.534158
O203	O	0.410098	-0.082535	0.999219
H204	H	0.460238	-0.110104	0.938213
H205	H	0.599375	0.350111	0.749436
O206	O	0.410059	0.082409	1.164205
H207	H	0.334265	0.075737	1.208023
