data_functionalizedCrystal
_audit_creation_method	'MofGen! by Chris Wilmer'
_symmetry_space_group_name_H-M	'P1'
_symmetry_Int_Tables_number	1
_symmetry_cell_setting	triclinic
loop_
_symmetry_equiv_pos_as_xyz
  x,y,z
_cell_length_a	8.559649
_cell_length_b	27.732048
_cell_length_c	7.088929
_cell_angle_alpha	83.823277
_cell_angle_beta	95.325015
_cell_angle_gamma	76.210660
loop_
_atom_site_label
_atom_site_type_symbol
_atom_site_fract_x
_atom_site_fract_y
_atom_site_fract_z
O1	O	2.103996	-0.010831	-0.158953
O2	O	1.638173	0.014155	-0.158972
O3	O	1.885556	-0.069240	-0.158925
O4	O	1.856614	0.072564	-0.158999
O5	O	1.918617	-0.080408	0.159056
O6	O	1.671234	0.002988	0.159009
O7	O	2.137057	-0.021999	0.159029
Cu8	Cu	1.907164	-0.010525	0.188053
Cu9	Cu	1.868066	0.002682	-0.187997
O10	O	1.889674	0.061397	0.158982
C11	C	1.595127	0.010465	0.000017
C12	C	1.417607	0.016101	0.000011
C13	C	1.901480	-0.092810	0.000071
C14	C	1.899652	-0.146402	0.000086
C15	C	2.034313	-0.489909	-0.000006
C16	C	2.027524	-0.691331	-0.000033
O17	O	2.150662	-0.726877	-0.000112
N18	N	1.880839	-0.705340	-0.000038
C19	C	1.735839	-0.668990	-0.000048
O20	O	1.610917	-0.685527	-0.000072
C21	C	1.742628	-0.467569	-0.000034
C22	C	1.889325	-0.453563	-0.000011
C23	C	2.180997	-0.475902	0.000015
C24	C	2.182694	-0.425550	0.000032
C25	C	2.037706	-0.389204	0.000028
C26	C	1.891021	-0.403211	0.000006
C27	C	1.597629	-0.431219	-0.000058
C28	C	1.599338	-0.380861	-0.000060
C29	C	1.746035	-0.366856	-0.000036
C30	C	1.747730	-0.316513	0.000019
N31	N	1.894415	-0.302503	0.000023
C32	C	2.039403	-0.338849	0.000028
C33	C	1.732286	-0.774740	-0.000051
C34	C	1.730588	-0.825096	-0.000051
C35	C	2.022274	-0.847433	-0.000040
C36	C	2.023971	-0.797077	-0.000026
C37	C	1.878971	-0.760731	-0.000047
C38	C	2.042956	-0.233105	0.000066
C39	C	2.044640	-0.182747	0.000091
C40	C	1.752955	-0.160414	0.000070
C41	C	1.751270	-0.210768	0.000055
C42	C	1.896283	-0.247112	0.000046
O43	O	1.624656	-0.280940	0.000076
O44	O	2.164303	-0.322300	0.000009
C45	C	2.032616	-0.540261	-0.000023
C46	C	1.885931	-0.554268	-0.000045
C47	C	1.740943	-0.517922	-0.000049
C48	C	1.884234	-0.604623	-0.000045
C49	C	2.029222	-0.640968	-0.000041
C50	C	2.175907	-0.626959	-0.000036
C51	C	2.177604	-0.576607	-0.000019
C52	C	1.594258	-0.531932	-0.000054
C53	C	1.592574	-0.582285	-0.000069
C54	C	1.737562	-0.618630	-0.000064
C55	C	2.180103	-0.018308	0.000036
C56	C	2.357622	-0.023944	0.000029
C57	C	1.873750	0.084967	-0.000018
C58	C	1.875576	0.138559	-0.000046
N59	N	1.934676	-0.019815	0.452546
N60	N	1.840568	0.011967	-0.452490
H61	H	2.164104	-0.171348	0.000115
O62	O	1.455046	-0.444777	-0.000433
C63	C	1.349631	-0.419870	-0.165110
H64	H	1.423490	-0.408524	-0.280192
H65	H	1.276590	-0.445967	-0.220415
H66	H	1.263572	-0.384980	-0.127888
H67	H	1.333145	0.054701	-0.000020
H68	H	1.481259	-0.351269	-0.000079
H69	H	2.143424	-0.785678	-0.000009
O70	O	2.050956	-0.059165	0.549761
C71	C	2.020857	-0.104372	0.501055
H72	H	1.944181	-0.096941	0.355677
H73	H	2.140877	-0.132454	0.494402
H74	H	1.953176	-0.120278	0.613696
H75	H	1.442073	-0.062541	0.000040
O76	O	2.162961	-0.882804	-0.000137
C77	C	2.129991	-0.930250	-0.000097
H78	H	1.998153	-0.925405	-0.060277
H79	H	2.212861	-0.953276	-0.092438
H80	H	2.152301	-0.950437	0.152450
H81	H	1.743036	0.044902	0.465846
H82	H	1.614202	-0.745150	-0.000067
O83	O	1.608624	-0.224288	-0.000046
C84	C	1.481025	-0.181410	0.000009
H85	H	1.518742	-0.146672	-0.060154
H86	H	1.368940	-0.184895	-0.092338
H87	H	1.452213	-0.177989	0.152559
O88	O	1.612257	-0.125037	-0.000022
C89	C	1.645234	-0.077593	0.000036
H90	H	1.764554	-0.078205	-0.060142
H91	H	1.543156	-0.048073	-0.092297
H92	H	1.654657	-0.068137	0.152588
H93	H	2.297060	-0.565209	-0.000000
O94	O	2.183975	-0.268345	0.000149
C95	C	2.313785	-0.245173	0.000125
H96	H	2.278474	-0.208121	0.060328
H97	H	2.424897	-0.270776	0.092453
H98	H	2.342952	-0.237886	-0.152420
O99	O	2.316673	-0.662276	-0.000376
C100	C	2.307254	-0.686286	-0.165048
H101	H	2.213040	-0.660720	-0.280145
H102	H	2.430470	-0.694798	-0.220331
H103	H	2.270638	-0.722754	-0.127827
H104	H	1.473108	-0.593682	-0.000071
O105	O	2.321773	-0.511259	0.000277
C106	C	2.346673	-0.546837	0.164991
H107	H	2.225505	-0.546619	0.219880
H108	H	2.403380	-0.585671	0.127964
H109	H	2.431268	-0.536989	0.280317
O110	O	2.325186	-0.411933	0.000367
C111	C	2.352027	-0.389254	0.165024
H112	H	2.280730	-0.402133	0.280140
H113	H	2.486786	-0.400509	0.220291
H114	H	2.310274	-0.346780	0.127790
O115	O	1.453542	-0.496592	0.000203
C116	C	1.462898	-0.472599	0.164924
H117	H	1.595483	-0.476679	0.219831
H118	H	1.398500	-0.431160	0.127901
H119	H	1.402278	-0.490554	0.280236
H120	H	1.611137	-0.836495	-0.000037
