data_functionalizedCrystal
_audit_creation_method	'MofGen! by Chris Wilmer'
_symmetry_space_group_name_H-M	'P1'
_symmetry_Int_Tables_number	1
_symmetry_cell_setting	triclinic
loop_
_symmetry_equiv_pos_as_xyz
  x,y,z
_cell_length_a	17.699083
_cell_length_b	16.109301
_cell_length_c	15.186229
_cell_angle_alpha	90.000638
_cell_angle_beta	89.995368
_cell_angle_gamma	96.627752
loop_
_atom_site_label
_atom_site_type_symbol
_atom_site_fract_x
_atom_site_fract_y
_atom_site_fract_z
O1	O	0.097285	-1.102963	-0.073175
O2	O	0.597285	-0.602963	0.426825
O3	O	0.109391	-0.860880	-0.073189
O4	O	0.609391	-0.360880	0.426811
O5	O	-0.006841	-0.988761	-0.073174
O6	O	0.493159	-0.488761	0.426826
O7	O	0.213517	-0.975082	-0.073190
O8	O	0.713517	-0.475082	0.426810
O9	O	-0.006843	-0.988753	0.073284
O10	O	0.493157	-0.488753	0.573284
O11	O	0.109390	-0.860872	0.073268
O12	O	0.609390	-0.360872	0.573268
O13	O	0.097283	-1.102955	0.073283
O14	O	0.597283	-0.602955	0.573283
Zn15	Zn	0.103336	-0.981912	0.096529
Zn16	Zn	0.603336	-0.481912	0.596529
Zn17	Zn	0.103338	-0.981923	-0.096435
Zn18	Zn	0.603338	-0.481923	0.403565
O19	O	0.213516	-0.975074	0.073267
O20	O	0.713516	-0.475074	0.573267
C21	C	0.108900	-0.829902	0.000038
C22	C	0.608900	-0.329902	0.500038
C23	C	0.107430	-0.737609	0.000033
C24	C	0.607430	-0.237609	0.500033
C25	C	-0.035040	-0.988267	0.000055
C26	C	0.464960	-0.488267	0.500055
C27	C	-0.119060	-0.986796	0.000055
C28	C	0.380940	-0.486796	0.500055
C29	C	0.097774	-1.133933	0.000054
C30	C	0.597774	-0.633933	0.500054
C31	C	0.099244	-1.226226	0.000053
C32	C	0.599244	-0.726226	0.500053
C33	C	-0.167574	-1.061860	0.000061
C34	C	0.332426	-0.561860	0.500061
C35	C	-0.246519	-1.060473	0.000053
C36	C	0.253481	-0.560473	0.500053
C37	C	-0.276949	-0.984022	0.000046
C38	C	0.223051	-0.484022	0.500046
C39	C	-0.228429	-0.908953	0.000038
C40	C	0.271571	-0.408953	0.500038
C41	C	-0.149485	-0.910341	0.000039
C42	C	0.350515	-0.410341	0.500039
C43	C	-0.546800	-0.903356	0.000030
C44	C	-0.046800	-0.403356	0.500030
C45	C	-0.625750	-0.901974	0.000031
C46	C	-0.125750	-0.401974	0.500031
C47	C	-0.643834	-1.053488	0.000044
C48	C	-0.143834	-0.553488	0.500044
C49	C	-0.564890	-1.054876	0.000046
C50	C	-0.064890	-0.554876	0.500046
C51	C	-0.516377	-0.979807	0.000033
C52	C	-0.016377	-0.479807	0.500033
C53	C	-0.430776	-0.981312	0.000040
C54	C	0.069224	-0.481312	0.500040
C55	C	-0.362549	-0.982517	0.000045
C56	C	0.137451	-0.482517	0.500045
C57	C	0.241714	-0.975568	0.000037
C58	C	0.741714	-0.475568	0.500037
C59	C	0.325734	-0.977039	0.000031
C60	C	0.825734	-0.477039	0.500031
N61	N	0.103334	-0.981910	0.228221
N62	N	0.603334	-0.481910	0.728221
C63	C	0.172981	-0.515224	0.000038
C64	C	0.672981	-0.015224	0.500038
C65	C	0.171594	-0.428506	0.000044
C66	C	0.671594	0.071494	0.500044
C67	C	0.033688	-0.448618	0.000050
C68	C	0.533688	0.051382	0.500050
C69	C	0.035076	-0.535334	0.000051
C70	C	0.535076	-0.035334	0.500051
C71	C	0.104725	-0.568635	0.000040
C72	C	0.604725	-0.068635	0.500040
C73	C	0.101949	-0.395200	0.000046
C74	C	0.601949	0.104800	0.500046
C75	C	0.100445	-0.301177	0.000052
C76	C	0.600445	0.198823	0.500052
C77	C	0.106230	-0.662664	0.000036
C78	C	0.606230	-0.162664	0.500036
N79	N	0.103334	-0.981931	-0.228128
N80	N	0.603334	-0.481931	0.271872
C81	C	0.051884	-1.038555	0.453951
C82	C	0.551884	-0.538555	0.953951
C83	C	0.051882	-1.038558	0.546141
C84	C	0.551882	-0.538558	1.046141
C85	C	0.154787	-0.925280	0.546136
C86	C	0.654787	-0.425280	1.046136
C87	C	0.154785	-0.925274	0.453948
C88	C	0.654785	-0.425274	0.953948
C89	C	0.103334	-0.981916	0.407858
C90	C	0.603334	-0.481916	0.907858
C91	C	0.103334	-0.981925	0.592236
C92	C	0.603334	-0.481925	1.092236
C93	C	0.103333	-0.981927	0.692192
C94	C	0.603333	-0.481927	1.192192
C95	C	0.103334	-0.981913	0.307896
C96	C	0.603334	-0.481913	0.807896
H97	H	-0.142805	-1.124115	0.000072
H98	H	0.357195	-0.624115	0.500072
Br99	Br	0.224613	-0.848413	0.608690
Br100	Br	0.724613	-0.348413	1.108690
Br101	Br	-0.017944	-1.115424	0.391403
Br102	Br	0.482056	-0.615424	0.891403
Br103	Br	0.267504	-0.560415	0.000027
Br104	Br	0.767504	-0.060415	0.500027
H105	H	0.196682	-0.879148	0.416417
H106	H	0.696682	-0.379148	0.916417
H107	H	-0.286017	-1.121597	0.000060
H108	H	0.213983	-0.621597	0.500060
Br109	Br	-0.523597	-1.158634	0.000055
Br110	Br	-0.023597	-0.658634	0.500055
Br111	Br	-0.667047	-0.798212	0.000023
Br112	Br	-0.167047	-0.298212	0.500023
Br113	Br	-0.709678	-1.155370	0.000061
Br114	Br	-0.209678	-0.655370	0.500061
Br115	Br	-0.480971	-0.801477	0.000007
Br116	Br	0.019029	-0.301477	0.500007
Br117	Br	-0.017950	-1.115423	0.608694
Br118	Br	0.482050	-0.615423	1.108694
Br119	Br	-0.269726	-0.805197	0.000013
Br120	Br	0.230274	-0.305197	0.500013
Br121	Br	-0.060832	-0.403418	0.000062
Br122	Br	0.439168	0.096582	0.500062
Br123	Br	-0.083644	-0.808465	0.000024
Br124	Br	0.416356	-0.308465	0.500024
Br125	Br	0.264232	-0.356022	0.000045
Br126	Br	0.764232	0.143978	0.500045
H127	H	-0.020510	-0.578824	0.000055
H128	H	0.479490	-0.078824	0.500055
