data_functionalizedCrystal
_audit_creation_method	'MofGen! by Chris Wilmer'
_symmetry_space_group_name_H-M	'P1'
_symmetry_Int_Tables_number	1
_symmetry_cell_setting	triclinic
loop_
_symmetry_equiv_pos_as_xyz
  x,y,z
_cell_length_a	9.565339
_cell_length_b	15.995350
_cell_length_c	15.995350
_cell_angle_alpha	83.492375
_cell_angle_beta	90.002462
_cell_angle_gamma	90.000094
loop_
_atom_site_label
_atom_site_type_symbol
_atom_site_fract_x
_atom_site_fract_y
_atom_site_fract_z
O1	O	0.116135	-1.110985	-0.107921
O2	O	0.116162	-0.867210	-0.121248
O3	O	0.116146	-0.995761	0.007303
O4	O	0.116151	-0.982434	-0.236472
O5	O	-0.116374	-0.995751	0.007295
O6	O	-0.116358	-0.867200	-0.121256
O7	O	-0.116386	-1.110975	-0.107929
Zn8	Zn	-0.153289	-0.989086	-0.114594
Zn9	Zn	0.153066	-0.989099	-0.114583
O10	O	-0.116370	-0.982424	-0.236480
C11	C	-0.000111	-0.995205	0.038494
C12	C	-0.000103	-0.993553	0.131444
C13	C	-0.000094	-0.836010	-0.120701
C14	C	-0.000083	-0.743060	-0.119049
N15	N	-0.362369	-0.989083	-0.114600
C16	C	-0.453564	-0.929614	-0.174031
C17	C	-0.546752	-1.005277	-0.190278
C18	C	-0.546736	-0.913452	-0.098360
C19	C	-0.453504	-1.064784	-0.130885
C20	C	-0.453481	-0.972909	-0.038934
C21	C	-0.546626	-1.048627	-0.055148
N22	N	0.362145	-0.989109	-0.114570
C23	C	-0.000126	-1.142175	-0.108476
C24	C	-0.000128	-1.235125	-0.110127
C25	C	-0.000112	-0.405312	-0.113117
C26	C	-0.000633	-0.452746	-0.021565
C27	C	-0.000099	-0.549436	-0.023217
C28	C	-0.000099	-0.572873	-0.116060
C29	C	0.132677	-0.531791	-0.161212
C30	C	0.132778	-0.435156	-0.158912
C31	C	-0.131640	-0.434805	-0.160812
C32	C	-0.133386	-0.531750	-0.160791
C33	C	-0.000086	-0.667570	-0.117727
C34	C	-0.000115	-0.310614	-0.111452
C35	C	-0.000109	-0.982980	-0.267671
C36	C	-0.000108	-0.984631	-0.360621
C37	C	-0.000107	-0.987621	0.469192
C38	C	0.000425	-0.896069	0.421758
C39	C	-0.000099	-0.897721	0.325068
C40	C	-0.000104	-0.990564	0.301631
C41	C	-0.132887	-1.035714	0.342704
C42	C	-0.132998	-1.033415	0.439340
C43	C	0.131421	-1.035317	0.439707
C44	C	0.133175	-1.035296	0.342762
C45	C	-0.000107	-0.992231	0.206934
C46	C	-0.000113	-0.985956	0.563890
H47	H	-0.412703	-0.879369	-0.224336
H48	H	-0.587231	-1.098984	-0.004873
H49	H	0.231491	-0.560170	-0.129844
H50	H	-0.587720	-1.018974	-0.254255
H51	H	0.137614	-0.545916	-0.229420
H52	H	-0.139026	-1.100630	0.471588
H53	H	-0.231613	-0.559063	-0.127830
H54	H	-0.232252	-1.000482	0.457638
H55	H	-0.132538	-0.403044	-0.228313
H56	H	-0.137829	-1.103923	0.328578
H57	H	-0.231696	-1.004347	0.314319
H58	H	-0.412480	-0.959188	0.025022
H59	H	-0.587693	-0.849482	-0.084637
H60	H	-0.412723	-1.128768	-0.144685
H61	H	0.141189	-1.103001	0.327400
H62	H	0.232062	-1.005389	0.460250
H63	H	-0.141405	-0.547115	-0.228494
H64	H	0.095085	-0.862229	0.296649
H65	H	-0.095438	-0.861982	0.297200
H66	H	0.138804	-0.402907	-0.226127
H67	H	-0.095278	-0.577861	0.012275
H68	H	-0.095851	-0.434220	0.015027
H69	H	0.231405	-1.002285	0.315517
H70	H	-0.232281	-0.414265	-0.130885
H71	H	0.095245	-0.577298	0.012521
H72	H	0.094060	-0.433157	0.014865
H73	H	0.232031	-0.416851	-0.125978
H74	H	0.095647	-0.859481	0.440293
H75	H	0.132309	-1.102818	0.471468
H76	H	-0.094258	-0.859635	0.441349
