data_functionalizedCrystal
_audit_creation_method	'MofGen! by Chris Wilmer'
_symmetry_space_group_name_H-M	'P1'
_symmetry_Int_Tables_number	1
_symmetry_cell_setting	triclinic
loop_
_symmetry_equiv_pos_as_xyz
  x,y,z
_cell_length_a	6.817900
_cell_length_b	17.078472
_cell_length_c	11.168136
_cell_angle_alpha	95.135010
_cell_angle_beta	108.508683
_cell_angle_gamma	99.306020
loop_
_atom_site_label
_atom_site_type_symbol
_atom_site_fract_x
_atom_site_fract_y
_atom_site_fract_z
V1	V	-4.063423	-0.109779	-0.393572
O2	O	-4.071694	0.005263	-0.386211
O3	O	-3.994055	-0.217662	-0.390755
O4	O	-4.040426	-0.108096	-0.565280
O5	O	-4.025001	-0.105061	-0.210478
V6	V	-4.546477	-0.096018	-0.371688
O7	O	-4.325712	-0.139965	-0.441577
O8	O	-4.734385	-0.065832	-0.323683
O9	O	-4.392638	0.011865	-0.374505
O10	O	-4.655603	-0.211060	-0.379050
O11	O	-4.702295	-0.100736	-0.554783
O12	O	-4.346267	-0.097701	-0.199980
C13	C	-3.833133	-0.243961	-0.384514
C14	C	-3.857872	-0.332157	-0.383355
C15	C	-4.051755	-0.377632	-0.389104
C16	C	-4.074992	-0.460502	-0.388023
C17	C	-3.904339	-0.497893	-0.381183
C18	C	-3.710443	-0.452412	-0.375437
C19	C	-3.687213	-0.369545	-0.376528
C20	C	-3.954275	-0.745297	-0.377255
C21	C	-3.977519	-0.828170	-0.376161
C22	C	-4.342068	-0.836254	-0.388749
C23	C	-4.318817	-0.753384	-0.389831
C24	C	-4.124927	-0.707911	-0.384092
N25	N	-3.928085	-0.582599	-0.380074
N26	N	-4.101188	-0.623208	-0.385211
C27	C	-3.892283	-0.104198	-0.607136
C28	C	-3.954625	-0.103536	-0.747507
C29	C	-4.155666	-0.107003	-0.816195
C30	C	-4.220103	-0.106319	-0.961276
C31	C	-4.216901	0.038160	-0.380743
C32	C	-4.171401	0.126354	-0.381910
C33	C	-4.157751	-0.101602	-0.158117
C34	C	-4.074648	-0.102260	-0.017745
H35	H	-4.499927	-0.873287	-0.393421
H36	H	-3.830210	-0.100055	-0.796108
H37	H	-3.796397	-0.708282	-0.372574
H38	H	-4.190717	-0.347193	-0.394662
C39	C	-3.476732	-0.320050	-0.370089
C40	C	-3.400872	-0.261528	-0.261240
C41	C	-3.206995	-0.215914	-0.255282
H42	H	-3.378195	-0.354084	-0.365787
H43	H	-3.495226	-0.294757	-0.444184
H44	H	-3.382366	-0.286820	-0.187164
H45	H	-3.499351	-0.227476	-0.265518
H46	H	-3.225490	-0.190621	-0.329377
H47	H	-3.108476	-0.249954	-0.250983
H48	H	-3.155509	-0.176197	-0.181436
H49	H	-3.902421	-0.099297	-0.958707
H50	H	-4.280077	-0.110473	-0.767593
C51	C	-3.525108	-0.493025	-0.367749
C52	C	-3.475862	-0.529645	-0.257609
C53	C	-3.305121	-0.567054	-0.250471
H54	H	-3.561551	-0.532488	-0.440933
H55	H	-3.406224	-0.454089	-0.364412
H56	H	-3.594720	-0.568578	-0.260957
H57	H	-3.439381	-0.490200	-0.184406
H58	H	-3.186237	-0.528118	-0.247133
H59	H	-3.341582	-0.606513	-0.323660
H60	H	-3.271674	-0.591899	-0.175736
C61	C	-4.504013	-0.712700	-0.397461
C62	C	-4.553171	-0.676041	-0.507564
C63	C	-4.723738	-0.638543	-0.514621
H64	H	-4.622998	-0.751568	-0.400805
H65	H	-4.467364	-0.673249	-0.324219
H66	H	-4.589830	-0.715488	-0.580787
H67	H	-4.434235	-0.637162	-0.504244
H68	H	-4.687088	-0.599092	-0.441380
H69	H	-4.842709	-0.677416	-0.517961
H70	H	-4.757101	-0.613659	-0.589319
C71	C	-3.792184	-0.868790	-0.368481
C72	C	-3.742938	-0.905410	-0.258340
C73	C	-3.572217	-0.942829	-0.251211
H74	H	-3.828649	-0.908254	-0.441665
H75	H	-3.673293	-0.829860	-0.365150
H76	H	-3.861803	-0.944336	-0.261682
H77	H	-3.706436	-0.865963	-0.185136
H78	H	-3.453326	-0.903899	-0.247881
H79	H	-3.608699	-0.982289	-0.324401
H80	H	-3.538769	-0.967674	-0.176476
C81	C	-4.449726	-0.110398	-1.040188
C82	C	-4.521239	-0.178832	-1.133246
C83	C	-4.732754	-0.182612	-1.205978
H84	H	-4.532878	-0.113077	-0.986105
H85	H	-4.461537	-0.063863	-1.080507
H86	H	-4.509445	-0.225356	-1.092930
H87	H	-4.438145	-0.176168	-1.187358
H88	H	-4.744564	-0.136076	-1.246296
H89	H	-4.815887	-0.185289	-1.151884
H90	H	-4.781296	-0.229039	-1.269133
H91	H	-4.232869	-0.497525	-0.392707
