data_functionalizedCrystal
_audit_creation_method	'MofGen! by Chris Wilmer'
_symmetry_space_group_name_H-M	'P1'
_symmetry_Int_Tables_number	1
_symmetry_cell_setting	triclinic
loop_
_symmetry_equiv_pos_as_xyz
  x,y,z
_cell_length_a	27.732048
_cell_length_b	8.597366
_cell_length_c	7.088929
_cell_angle_alpha	103.954530
_cell_angle_beta	96.164108
_cell_angle_gamma	96.003747
loop_
_atom_site_label
_atom_site_type_symbol
_atom_site_fract_x
_atom_site_fract_y
_atom_site_fract_z
O1	O	-0.066379	2.099727	0.186932
O2	O	-0.074270	1.634852	0.110354
O3	O	0.000045	1.881725	0.150995
O4	O	-0.140694	1.852854	0.146290
O5	O	0.009999	1.914718	0.474402
O6	O	-0.064316	1.667844	0.433760
O7	O	-0.056425	2.132720	0.510338
Cu8	Cu	-0.059462	1.903295	0.501579
Cu9	Cu	-0.071233	1.864277	0.119113
O10	O	-0.130740	1.885847	0.469697
C11	C	-0.069001	1.591892	0.262263
C12	C	-0.068122	1.414733	0.233078
C13	C	-0.153725	1.869957	0.308100
C14	C	-0.207382	1.871784	0.308420
C15	C	-0.545954	1.737378	0.286187
C16	C	-0.747626	1.744148	0.287279
O17	O	-0.778659	1.621243	0.266950
N18	N	-0.767019	1.890535	0.311396
C19	C	-0.735990	2.035239	0.335229
O20	O	-0.757113	2.159904	0.355747
C21	C	-0.534319	2.028466	0.334122
C22	C	-0.514929	1.882071	0.310023
C23	C	-0.526563	1.590995	0.262088
C24	C	-0.476147	1.589305	0.261826
C25	C	-0.445122	1.733998	0.285662
C26	C	-0.464513	1.880382	0.309761
C27	C	-0.503291	2.173167	0.357941
C28	C	-0.452871	2.171461	0.357657
C29	C	-0.433481	2.025066	0.333558
C30	C	-0.383073	2.023385	0.333336
N31	N	-0.363680	1.876998	0.309219
C32	C	-0.394705	1.732304	0.285382
C33	C	-0.841871	2.038785	0.335812
C34	C	-0.892288	2.040479	0.336092
C35	C	-0.903921	1.749386	0.288139
C36	C	-0.853502	1.747696	0.287873
C37	C	-0.822478	1.892398	0.311695
C38	C	-0.288828	1.728767	0.284835
C39	C	-0.238407	1.727091	0.284583
C40	C	-0.226779	2.018181	0.332526
C41	C	-0.277195	2.019860	0.332788
C42	C	-0.308219	1.875139	0.308934
O43	O	-0.352012	2.146222	0.353632
O44	O	-0.373574	1.607653	0.264824
C45	C	-0.596369	1.739068	0.286449
C46	C	-0.615760	1.885451	0.310548
C47	C	-0.584735	2.030144	0.334385
C48	C	-0.666177	1.887145	0.310828
C49	C	-0.697202	1.742451	0.286991
C50	C	-0.677810	1.596064	0.262875
C51	C	-0.627394	1.594374	0.262612
C52	C	-0.604127	2.176532	0.358501
C53	C	-0.654543	2.178210	0.358764
C54	C	-0.685568	2.033517	0.334927
C55	C	0.023030	1.897614	0.312588
C56	C	0.076687	1.895786	0.312255
C57	C	-0.061695	2.175679	0.358425
C58	C	-0.062573	2.352837	0.387597
N59	N	-0.051182	1.930749	0.770587
N60	N	-0.079509	1.836835	-0.149892
H61	H	-0.058494	1.435387	0.542237
H62	H	-0.222623	1.607874	0.264967
N63	N	-0.456353	1.439749	0.237194
N64	N	-0.484068	1.310581	0.215904
H65	H	-0.470092	1.204946	0.198498
H66	H	-0.427613	2.289296	0.377046
H67	H	-0.108865	1.739504	0.752438
H68	H	-0.551819	1.473160	0.242670
H69	H	-0.611612	1.475165	0.242990
N70	N	-0.014356	2.052857	0.893138
N71	N	-0.008807	2.071268	1.074873
H72	H	0.017202	2.157501	1.161428
H73	H	-0.314082	1.610921	0.265410
N74	N	-0.833696	1.598163	0.263287
N75	N	-0.839030	1.514820	0.383603
H76	H	-0.825044	1.409207	0.366241
N77	N	-0.073231	1.311178	0.039102
N78	N	-0.072481	1.162585	0.014858
H79	H	-0.076088	1.089438	-0.122140
H80	H	-0.908070	2.159691	0.355746
H81	H	-0.929190	1.631572	0.268739
N82	N	-0.810191	2.186627	0.360187
N83	N	-0.807743	2.298162	0.512603
H84	H	-0.785371	2.402580	0.529829
N85	N	-0.523081	2.322723	0.382560
N86	N	-0.495366	2.451886	0.403822
H87	H	-0.509341	2.557520	0.421207
H88	H	-0.201509	2.135988	0.351942
N89	N	-0.296995	2.169413	0.357455
N90	N	-0.269286	2.298594	0.378758
H91	H	-0.283266	2.404220	0.396170
H92	H	-0.703079	1.478251	0.243478
H93	H	-0.670325	2.297433	0.378405
N94	N	-0.572447	2.324355	0.382842
N95	N	-0.589774	2.455035	0.404364
H96	H	-0.567402	2.559447	0.421563
