data_functionalizedCrystal
_audit_creation_method	'MofGen! by Chris Wilmer'
_symmetry_space_group_name_H-M	'P1'
_symmetry_Int_Tables_number	1
_symmetry_cell_setting	triclinic
loop_
_symmetry_equiv_pos_as_xyz
  x,y,z
_cell_length_a	16.959455
_cell_length_b	29.839132
_cell_length_c	16.959447
_cell_angle_alpha	90.034855
_cell_angle_beta	89.975979
_cell_angle_gamma	89.957717
loop_
_atom_site_label
_atom_site_type_symbol
_atom_site_fract_x
_atom_site_fract_y
_atom_site_fract_z
Zn1	Zn	1.208274	0.178886	-0.447004
Zn2	Zn	1.208130	0.254017	-0.314812
Zn3	Zn	1.076094	0.178898	-0.314828
Zn4	Zn	1.076009	0.253986	-0.446937
O5	O	1.142127	0.216447	-0.380895
O6	O	1.318866	0.188860	-0.429491
O7	O	1.190590	0.244071	-0.204203
O8	O	1.093724	0.116030	-0.332396
O9	O	1.318760	0.244059	-0.332370
O10	O	1.190836	0.116020	-0.429506
O11	O	1.093584	0.188882	-0.204215
O12	O	0.965472	0.188851	-0.332331
O13	O	1.093579	0.244005	-0.557557
O14	O	0.965409	0.244017	-0.429391
O15	O	1.190753	0.188829	-0.557606
O16	O	1.190508	0.316880	-0.332304
O17	O	1.093439	0.316857	-0.429376
C18	C	0.936760	0.216432	-0.380856
C19	C	0.848904	0.216437	-0.380857
C20	C	0.477362	0.245160	-0.330299
C21	C	0.477494	0.187771	-0.431588
C22	C	0.560040	0.187763	-0.431569
C23	C	0.601251	0.216455	-0.380915
C24	C	0.559916	0.245155	-0.330280
C25	C	0.601381	0.159067	-0.482209
C26	C	0.683932	0.159059	-0.482192
C27	C	0.725144	0.187749	-0.431533
C28	C	0.683804	0.216450	-0.380896
C29	C	0.725015	0.245142	-0.330241
C30	C	0.683677	0.273840	-0.279599
C31	C	0.601129	0.273845	-0.279621
C32	C	0.807693	0.187745	-0.431512
C33	C	0.807569	0.245136	-0.330222
C34	C	1.141970	0.333169	-0.380848
C35	C	1.141975	0.383104	-0.380855
C36	C	1.192706	0.692747	-0.330392
C37	C	1.192781	0.880420	-0.330410
O38	O	1.235829	0.904684	-0.287491
N39	N	1.142209	0.903889	-0.380908
C40	C	1.091619	0.880437	-0.431410
O41	O	1.048611	0.904705	-0.474368
C42	C	1.091548	0.692765	-0.431395
C43	C	1.142117	0.669298	-0.380888
C44	C	1.243272	0.669280	-0.279889
C45	C	1.243250	0.622365	-0.279882
C46	C	1.192661	0.598916	-0.330378
C47	C	1.142095	0.622383	-0.380881
C48	C	1.040962	0.669313	-0.481900
C49	C	1.040950	0.622392	-0.481893
C50	C	1.091519	0.598926	-0.431386
C51	C	1.091484	0.552018	-0.431369
N52	N	1.142056	0.528549	-0.380871
C53	C	1.192645	0.551998	-0.330375
C54	C	1.091658	0.978967	-0.431413
C55	C	1.091675	1.025885	-0.431415
C56	C	1.192839	1.025865	-0.330416
C57	C	1.192818	0.978946	-0.330410
C58	C	1.142230	0.955498	-0.380914
C59	C	1.192593	0.453472	-0.330364
C60	C	1.192564	0.406553	-0.330359
C61	C	1.091403	0.406577	-0.431360
C62	C	1.091429	0.453492	-0.431363
C63	C	1.142031	0.476939	-0.380862
O64	O	1.048465	0.527725	-0.474272
O65	O	1.235658	0.527722	-0.287436
C66	C	1.192728	0.739662	-0.330399
C67	C	1.142162	0.763129	-0.380902
C68	C	1.091574	0.739680	-0.431397
C69	C	1.142179	0.810047	-0.380904
C70	C	1.192767	0.833495	-0.330409
C71	C	1.243339	0.810026	-0.279910
C72	C	1.243317	0.763111	-0.279903
C73	C	1.041002	0.763149	-0.481896
C74	C	1.041028	0.810065	-0.481898
C75	C	1.091616	0.833513	-0.431402
C76	C	1.348295	0.216462	-0.380936
C77	C	1.436151	0.216468	-0.380953
C78	C	1.142173	0.216412	-0.587064
C79	C	1.142192	0.216397	-0.674920
C80	C	1.142276	1.099268	-0.380943
C81	C	1.142263	1.049334	-0.380920
C82	C	1.192709	0.245125	-0.716190
C83	C	1.091689	0.187659	-0.716204
C84	C	1.091703	0.187646	-0.798750
C85	C	1.142219	0.216373	-0.840020
C86	C	1.192723	0.245113	-0.798744
C87	C	1.041195	0.158909	-0.840033
C88	C	1.041206	0.158895	-0.922584
C89	C	1.091727	0.187620	-0.963855
C90	C	1.142233	0.216362	-0.922574
C91	C	1.192750	0.245089	-0.963843
C92	C	1.243260	0.273828	-0.922563
C93	C	1.243244	0.273839	-0.840015
C94	C	1.091743	0.187610	-1.046403
C95	C	1.192763	0.245077	-1.046397
C96	C	1.142126	0.216449	-0.175529
C97	C	1.142260	0.216337	-0.087673
H98	H	0.443935	0.164413	-0.472833
H99	H	0.717242	0.297204	-0.238360
H100	H	0.841347	0.164380	-0.472745
H101	H	1.233904	0.268469	-1.079993
H102	H	1.233836	0.268522	-0.682576
H103	H	1.284388	0.297219	-0.956176
H104	H	1.284366	0.297237	-0.806397
O105	O	1.042694	0.159770	-0.675996
C106	C	1.053495	0.165952	-0.594285
H107	H	1.114471	0.180671	-0.583017
H108	H	1.048178	0.132306	-0.562929
H109	H	1.006571	0.189877	-0.570835
O110	O	1.042574	0.159719	-1.086416
C111	C	0.963777	0.169548	-1.066236
H112	H	0.962104	0.186827	-1.006289
H113	H	0.928374	0.137126	-1.063424
H114	H	0.937134	0.192639	-1.112676
H115	H	0.841117	0.268500	-0.288970
H116	H	1.000062	0.135524	-0.806425
O117	O	0.992122	0.130934	-0.962557
C118	C	0.947518	0.105591	-0.908428
H119	H	0.979884	0.104048	-0.849592
H120	H	0.939144	0.070190	-0.932296
H121	H	0.887460	0.122040	-0.899628
O122	O	0.437248	0.272990	-0.280996
C123	C	0.457400	0.263123	-0.202246
H124	H	0.480128	0.227228	-0.198368
H125	H	0.403086	0.266970	-0.163191
H126	H	0.505279	0.287190	-0.181499
H127	H	1.233799	0.472557	-0.289243
O128	O	0.560936	0.301770	-0.230549
C129	C	0.513173	0.330813	-0.275473
H130	H	0.538094	0.333630	-0.337710
H131	H	0.512176	0.365367	-0.246774
H132	H	0.450628	0.316928	-0.278262
O133	O	0.723962	0.131138	-0.531403
C134	C	0.669885	0.105824	-0.576130
H135	H	0.611020	0.104253	-0.543776
H136	H	0.693776	0.070431	-0.584668
H137	H	0.661132	0.122317	-0.636112
O138	O	1.241578	0.383738	-0.281210
C139	C	1.196598	0.356636	-0.230118
H140	H	1.134352	0.370811	-0.225176
H141	H	1.225223	0.356114	-0.169317
H142	H	1.193847	0.321069	-0.254546
H143	H	1.050462	0.959879	-0.472540
O144	O	1.292456	0.599642	-0.230802
C145	C	1.337094	0.630407	-0.186230
H146	H	1.339811	0.663837	-0.218616
H147	H	1.399377	0.616827	-0.177866
H148	H	1.308193	0.635435	-0.126166
O149	O	0.561260	0.131261	-0.531449
C150	C	0.513525	0.156880	-0.582433
H151	H	0.501110	0.190907	-0.554444
H152	H	0.455500	0.138595	-0.593092
H153	H	0.545364	0.161856	-0.640991
H154	H	1.284472	0.688367	-0.238769
H155	H	1.233996	0.959842	-0.289283
O156	O	0.991925	0.692080	-0.531082
C157	C	1.009150	0.680559	-0.609870
H158	H	1.072293	0.667630	-0.613908
H159	H	1.002329	0.711397	-0.648930
H160	H	0.966759	0.653334	-0.630481
H161	H	1.050489	1.044988	-0.472536
O162	O	1.242004	1.048717	-0.281486
C163	C	1.231178	1.095158	-0.292336
H164	H	1.205186	1.101544	-0.353285
H165	H	1.290413	1.112949	-0.287127
H166	H	1.189185	1.108537	-0.245371
H167	H	0.999756	0.603303	-0.523022
O168	O	1.042279	0.476221	-0.480496
C169	C	0.997608	0.445461	-0.525046
H170	H	1.029963	0.411996	-0.527802
H171	H	0.989152	0.458994	-0.587321
H172	H	0.937588	0.440521	-0.496042
H173	H	1.050212	0.387478	-0.472471
H174	H	1.284496	0.744008	-0.238775
H175	H	1.284528	0.829127	-0.238792
H176	H	0.999841	0.829167	-0.523027
H177	H	0.999807	0.744061	-0.523017
