data_functionalizedCrystal
_audit_creation_method	'MofGen! by Chris Wilmer'
_symmetry_space_group_name_H-M	'P1'
_symmetry_Int_Tables_number	1
_symmetry_cell_setting	triclinic
loop_
_symmetry_equiv_pos_as_xyz
  x,y,z
_cell_length_a	10.723023
_cell_length_b	14.044220
_cell_length_c	9.198806
_cell_angle_alpha	89.995861
_cell_angle_beta	89.996513
_cell_angle_gamma	88.828213
loop_
_atom_site_label
_atom_site_type_symbol
_atom_site_fract_x
_atom_site_fract_y
_atom_site_fract_z
O1	O	1.670498	0.133036	-0.120882
O2	O	1.308620	0.145772	-0.120889
O3	O	1.484127	0.001384	-0.120871
O4	O	1.494991	0.277424	-0.120900
O5	O	1.484112	0.001384	0.120914
O6	O	1.308605	0.145771	0.120896
O7	O	1.670483	0.133036	0.120903
Cu8	Cu	1.489542	0.139403	0.142977
Cu9	Cu	1.489560	0.139404	-0.142962
O10	O	1.494976	0.277423	0.120885
C11	C	1.262020	0.144845	0.000003
C12	C	1.123188	0.142072	0.000001
C13	C	1.061285	0.140836	0.125252
C14	C	0.917795	0.137971	0.125253
C15	C	1.479364	-0.033962	0.000022
C16	C	1.465180	-0.139280	0.000023
C17	C	1.439248	-0.332109	0.000002
C18	C	1.539850	-0.389089	-0.000000
C19	C	1.525421	-0.496386	-0.000012
C20	C	1.453675	-0.224802	0.000014
C21	C	1.717083	0.133963	0.000008
C22	C	1.855915	0.136735	0.000000
C23	C	1.499739	0.312769	-0.000011
C24	C	1.513923	0.418087	-0.000022
N25	N	1.489539	0.139403	0.344091
N26	N	1.489573	0.139397	-0.344076
C27	C	1.563203	0.078511	0.416295
C28	C	1.563222	0.078508	0.583707
H29	H	1.069957	0.141007	-0.107230
H30	H	0.864559	0.136913	0.232485
N31	N	0.926401	0.138143	-0.142061
H32	H	0.976948	0.197923	-0.147866
H33	H	0.984040	0.080485	-0.147767
N34	N	1.668294	-0.346975	0.000009
H35	H	1.660533	-0.275183	0.000020
H36	H	1.715120	-0.368841	0.089646
H37	H	1.342291	-0.363909	-0.000003
H38	H	1.626251	0.026378	0.354175
H39	H	1.626293	0.026379	0.645800
N40	N	1.406023	0.208462	0.573708
H41	H	1.458608	0.250643	0.510542
H42	H	1.346617	0.171853	0.510656
N43	N	1.131780	0.142241	0.267302
H44	H	1.224292	0.144089	0.247166
H45	H	1.105457	0.200489	0.324881
H46	H	1.426481	0.191528	0.406212
