data_functionalizedCrystal
_audit_creation_method	'MofGen! by Chris Wilmer'
_symmetry_space_group_name_H-M	'P1'
_symmetry_Int_Tables_number	1
_symmetry_cell_setting	triclinic
loop_
_symmetry_equiv_pos_as_xyz
  x,y,z
_cell_length_a	12.811438
_cell_length_b	12.837942
_cell_length_c	11.295483
_cell_angle_alpha	85.469583
_cell_angle_beta	99.539201
_cell_angle_gamma	89.411773
loop_
_atom_site_label
_atom_site_type_symbol
_atom_site_fract_x
_atom_site_fract_y
_atom_site_fract_z
O1	O	-1.422915	-0.121946	-0.252675
O2	O	-1.116720	-0.139455	-0.219614
O3	O	-1.263028	0.020180	-0.235404
O4	O	-1.276608	-0.281580	-0.236885
O5	O	-1.250175	0.006180	-0.035966
O6	O	-1.103868	-0.153455	-0.020176
O7	O	-1.410062	-0.135945	-0.053237
Cu8	Cu	-1.255791	-0.145978	-0.018496
Cu9	Cu	-1.270991	-0.129422	-0.254355
O10	O	-1.263755	-0.295580	-0.037447
C11	C	-1.070830	-0.145903	-0.115634
C12	C	-0.953240	-0.144245	-0.102937
C13	C	-1.455952	-0.129497	-0.157220
C14	C	-1.573543	-0.131154	-0.169925
C15	C	-0.780496	-0.149540	0.023666
C16	C	-0.890983	-0.151099	0.011742
C17	C	-0.905004	-0.135836	-0.205698
C18	C	-0.794517	-0.134278	-0.193773
C19	C	-0.732267	-0.141129	-0.079087
C20	C	-0.621779	-0.139563	-0.067164
C21	C	-0.635802	-0.124308	-0.284602
C22	C	-0.746288	-0.125867	-0.296526
C23	C	-1.252014	0.051785	-0.135190
C24	C	-1.238333	0.166817	-0.133715
N25	N	-1.245108	-0.157622	0.147393
C26	C	-1.274769	-0.327185	-0.137663
C27	C	-1.288450	-0.442217	-0.139146
C28	C	-1.402808	0.408320	-0.151499
C29	C	-1.389958	0.516403	-0.150114
C30	C	-1.199785	0.491071	-0.129567
C31	C	-1.212635	0.382987	-0.130953
C32	C	-1.314149	0.341616	-0.141917
C33	C	-1.326998	0.233530	-0.143294
C34	C	-1.136826	0.208200	-0.122756
C35	C	-1.123977	0.316284	-0.121371
N36	N	-1.281682	-0.117770	-0.420245
C37	C	-1.358578	-0.033892	0.384436
C38	C	-1.350513	-0.042699	0.509970
C39	C	-1.220908	-0.184037	0.523998
C40	C	-1.228973	-0.175230	0.398464
C41	C	-1.297812	-0.100156	0.328687
C42	C	-1.305882	-0.091355	0.203150
C43	C	-1.176272	-0.232688	0.217181
C44	C	-1.168207	-0.241494	0.342715
H45	H	-0.729811	-0.155125	0.117048
H46	H	-1.041326	0.349984	-0.112449
H47	H	-1.112157	-0.302616	0.399542
C48	C	-1.109439	-0.305593	0.155853
H49	H	-1.124100	-0.289599	0.071096
H50	H	-1.126583	-0.376160	0.174440
H51	H	-1.036402	-0.295984	0.184177
C52	C	-0.973490	-0.128297	-0.331837
H53	H	-1.046198	-0.130424	-0.324217
H54	H	-0.956290	-0.185320	-0.374352
H55	H	-0.960244	-0.064476	-0.374757
H56	H	-1.414637	0.027229	0.327622
C57	C	-0.814768	-0.118325	-0.422670
H58	H	-0.887478	-0.120450	-0.415057
H59	H	-0.797567	-0.175347	-0.465184
H60	H	-0.801517	-0.054504	-0.465586
C61	C	-0.553306	-0.147105	0.058983
H62	H	-0.597857	-0.152349	0.118470
H63	H	-0.511887	-0.086398	0.067952
H64	H	-0.507941	-0.207241	0.068359
H65	H	-0.930246	-0.157951	0.095414
C66	C	-1.487479	0.589779	-0.160655
H67	H	-1.465291	0.660077	-0.158271
H68	H	-1.524180	0.572394	-0.095559
H69	H	-1.533127	0.582146	-0.234663
H70	H	-0.596523	-0.117462	-0.368271
H71	H	-1.409655	0.199847	-0.152217
H72	H	-1.485464	0.374634	-0.160415
H73	H	-1.117138	0.524776	-0.120653
H74	H	-1.064633	0.153876	-0.114945
C75	C	-1.381595	-0.008775	0.126398
H76	H	-1.416621	0.029435	0.177585
H77	H	-1.432520	-0.042488	0.072254
H78	H	-1.342344	0.037693	0.082019
H79	H	-1.399994	0.011261	0.555357
H80	H	-1.164854	-0.245153	0.580827
