data_functionalizedCrystal
_audit_creation_method	'MofGen! by Chris Wilmer'
_symmetry_space_group_name_H-M	'P1'
_symmetry_Int_Tables_number	1
_symmetry_cell_setting	triclinic
loop_
_symmetry_equiv_pos_as_xyz
  x,y,z
_cell_length_a	23.532407
_cell_length_b	23.532407
_cell_length_c	22.610064
_cell_angle_alpha	89.997161
_cell_angle_beta	90.000603
_cell_angle_gamma	97.151322
loop_
_atom_site_label
_atom_site_type_symbol
_atom_site_fract_x
_atom_site_fract_y
_atom_site_fract_z
O1	O	0.069127	-0.755263	0.049117
O2	O	0.569127	-0.255263	0.549117
O3	O	0.079130	-0.589400	0.049135
O4	O	0.579130	-0.089400	0.549135
O5	O	-0.008803	-0.677333	0.049114
O6	O	0.491197	-0.177333	0.549114
O7	O	0.157060	-0.667330	0.049137
O8	O	0.657060	-0.167330	0.549137
O9	O	-0.008790	-0.677318	-0.049255
O10	O	0.491210	-0.177318	0.450745
O11	O	0.079143	-0.589385	-0.049234
O12	O	0.579143	-0.089385	0.450766
O13	O	0.069140	-0.755248	-0.049252
O14	O	0.569140	-0.255248	0.450748
Zn15	Zn	0.074144	-0.672314	-0.064862
Zn16	Zn	0.574144	-0.172314	0.435138
Zn17	Zn	0.074127	-0.672334	0.064744
Zn18	Zn	0.574127	-0.172334	0.564744
O19	O	0.157073	-0.667315	-0.049232
O20	O	0.657073	-0.167315	0.450768
C21	C	-0.030013	-0.677071	-0.000072
C22	C	0.469987	-0.177071	0.499928
C23	C	-0.093230	-0.676305	-0.000076
C24	C	0.406770	-0.176305	0.499924
C25	C	0.078882	-0.568176	-0.000048
C26	C	0.578882	-0.068176	0.499952
C27	C	0.078116	-0.504959	-0.000041
C28	C	0.578116	-0.004959	0.499959
C29	C	-0.492333	-0.723539	-0.000049
C30	C	0.007667	-0.223539	0.499951
C31	C	-0.551733	-0.722827	-0.000044
C32	C	-0.051733	-0.222827	0.499956
O33	O	-0.588478	-0.766613	-0.000027
O34	O	-0.088478	-0.266613	0.499973
N35	N	-0.574359	-0.670551	-0.000039
N36	N	-0.074359	-0.170551	0.499961
C37	C	-0.537582	-0.618983	-0.000032
C38	C	-0.037582	-0.118983	0.499968
O39	O	-0.562281	-0.574452	-0.000027
O40	O	-0.062281	-0.074452	0.499973
C41	C	-0.478182	-0.619695	-0.000033
C42	C	0.021818	-0.119695	0.499967
C43	C	-0.455560	-0.671974	-0.000044
C44	C	0.044440	-0.171974	0.499956
C45	C	-0.469710	-0.775814	-0.000060
C46	C	0.030290	-0.275814	0.499940
C47	C	-0.410313	-0.776525	-0.000065
C48	C	0.089687	-0.276525	0.499935
C49	C	-0.373540	-0.724961	-0.000060
C50	C	0.126460	-0.224961	0.499940
C51	C	-0.396164	-0.672685	-0.000050
C52	C	0.103836	-0.172685	0.499950
C53	C	-0.441406	-0.568127	-0.000022
C54	C	0.058594	-0.068127	0.499978
C55	C	-0.382004	-0.568844	-0.000021
C56	C	0.117996	-0.068844	0.499979
C57	C	-0.359381	-0.621123	-0.000033
C58	C	0.140619	-0.121123	0.499967
C59	C	-0.299995	-0.621832	-0.000050
C60	C	0.200005	-0.121832	0.499950
N61	N	-0.277368	-0.674109	-0.000056
N62	N	0.222632	-0.174109	0.499944
C63	C	-0.314141	-0.725673	-0.000061
C64	C	0.185859	-0.225673	0.499939
C65	C	-0.662324	-0.617491	-0.000031
C66	C	-0.162324	-0.117491	0.499969
C67	C	-0.721722	-0.616778	-0.000034
C68	C	-0.221722	-0.116778	0.499966
C69	C	-0.735869	-0.720623	-0.000045
C70	C	-0.235869	-0.220623	0.499955
C71	C	-0.676470	-0.721335	-0.000046
C72	C	-0.176470	-0.221335	0.499954
C73	C	-0.639698	-0.669767	-0.000036
C74	C	-0.139698	-0.169767	0.499964
C75	C	-0.189405	-0.727163	-0.000073
C76	C	0.310595	-0.227163	0.499927
C77	C	-0.130003	-0.727869	-0.000081
C78	C	0.369997	-0.227869	0.499919
C79	C	-0.115860	-0.624025	-0.000067
C80	C	0.384140	-0.124025	0.499933
C81	C	-0.175257	-0.623318	-0.000062
C82	C	0.324743	-0.123318	0.499938
C83	C	-0.212029	-0.674891	-0.000063
C84	C	0.287971	-0.174891	0.499937
O85	O	-0.263215	-0.578070	-0.000065
O86	O	0.236785	-0.078070	0.499935
O87	O	-0.289433	-0.770196	-0.000058
O88	O	0.210567	-0.270196	0.499942
C89	C	0.069388	-0.776472	-0.000069
C90	C	0.569388	-0.276472	0.499931
C91	C	0.070154	-0.839689	-0.000071
C92	C	0.570154	-0.339689	0.499929
C93	C	0.178283	-0.667577	-0.000045
C94	C	0.678283	-0.167577	0.499955
C95	C	0.241500	-0.668343	-0.000036
C96	C	0.741500	-0.168343	0.499964
N97	N	0.074155	-0.672304	-0.153314
N98	N	0.574155	-0.172304	0.346686
C99	C	0.125350	-0.105856	-0.000061
C100	C	0.625350	0.394144	0.499939
C101	C	0.124638	-0.046456	-0.000065
C102	C	0.624638	0.453544	0.499935
O103	O	0.168424	-0.009711	-0.000081
O104	O	0.668424	0.490289	0.499919
N105	N	0.072362	-0.023830	-0.000071
N106	N	0.572362	0.476170	0.499929
C107	C	0.020794	-0.060607	-0.000080
C108	C	0.520794	0.439393	0.499920
O109	O	-0.023737	-0.035908	-0.000086
O110	O	0.476263	0.464092	0.499914
C111	C	0.021506	-0.120006	-0.000080
C112	C	0.521506	0.379994	0.499920
C113	C	0.073785	-0.142629	-0.000068
C114	C	0.573785	0.357371	0.499932
C115	C	0.177625	-0.128479	-0.000050
C116	C	0.677625	0.371521	0.499950
C117	C	0.178336	-0.187876	-0.000045
C118	C	0.678336	0.312124	0.499955
C119	C	0.126772	-0.224649	-0.000052
C120	C	0.626772	0.275351	0.499948
C121	C	0.074497	-0.202025	-0.000063
C122	C	0.574497	0.297975	0.499937
C123	C	-0.030062	-0.156783	-0.000093
C124	C	0.469938	0.343217	0.499907
C125	C	-0.029345	-0.216185	-0.000094
C126	C	0.470655	0.283815	0.499906
C127	C	0.022934	-0.238808	-0.000082
C128	C	0.522934	0.261192	0.499918
C129	C	0.023643	-0.298194	-0.000065
C130	C	0.523643	0.201806	0.499935
N131	N	0.075920	-0.320820	-0.000059
N132	N	0.575920	0.179180	0.499941
C133	C	0.127484	-0.284048	-0.000052
C134	C	0.627484	0.215952	0.499948
C135	C	0.019302	0.064135	-0.000080
C136	C	0.519302	0.564135	0.499920
C137	C	0.018589	0.123533	-0.000075
C138	C	0.518589	0.623533	0.499925
C139	C	0.122434	0.137680	-0.000061
C140	C	0.622434	0.637680	0.499939
C141	C	0.123146	0.078281	-0.000062
C142	C	0.623146	0.578281	0.499938
C143	C	0.071578	0.041509	-0.000074
C144	C	0.571578	0.541509	0.499926
C145	C	0.128974	-0.408784	-0.000042
C146	C	0.628974	0.091216	0.499958
C147	C	0.129680	-0.468186	-0.000034
C148	C	0.629680	0.031814	0.499966
C149	C	0.025836	-0.482329	-0.000051
C150	C	0.525836	0.017671	0.499949
C151	C	0.025129	-0.422932	-0.000055
C152	C	0.525129	0.077068	0.499945
C153	C	0.076702	-0.386160	-0.000052
C154	C	0.576702	0.113840	0.499948
O155	O	-0.020119	-0.334974	-0.000052
O156	O	0.479881	0.165026	0.499948
O157	O	0.172007	-0.308755	-0.000054
O158	O	0.672007	0.191245	0.499946
C159	C	0.035196	-0.711273	-0.561965
C160	C	0.535196	-0.211273	-0.061965
C161	C	0.035192	-0.711276	-0.623884
C162	C	0.535192	-0.211276	-0.123884
O163	O	0.002076	-0.744384	-0.655911
O164	O	0.502076	-0.244384	-0.155911
N165	N	0.074115	-0.672334	-0.654851
N166	N	0.574115	-0.172334	-0.154851
C167	C	0.113041	-0.633383	-0.623895
C168	C	0.613041	-0.133383	-0.123895
O169	O	0.146147	-0.600259	-0.655920
O170	O	0.646147	-0.100259	-0.155920
C171	C	0.113042	-0.633377	-0.561976
C172	C	0.613042	-0.133377	-0.061976
C173	C	0.074120	-0.672326	-0.531013
C174	C	0.574120	-0.172326	-0.031013
C175	C	-0.003724	-0.750218	-0.531001
C176	C	0.496276	-0.250218	-0.031001
C177	C	-0.003719	-0.750215	-0.469085
C178	C	0.496281	-0.250215	0.030915
C179	C	0.035206	-0.711268	-0.438133
C180	C	0.535206	-0.211268	0.061867
C181	C	0.074125	-0.672323	-0.469097
C182	C	0.574125	-0.172323	0.030903
C183	C	0.151965	-0.594424	-0.531021
C184	C	0.651965	-0.094424	-0.031021
C185	C	0.151962	-0.594422	-0.469098
C186	C	0.651962	-0.094422	0.030902
C187	C	0.113040	-0.633370	-0.438134
C188	C	0.613040	-0.133370	0.061866
C189	C	0.113054	-0.633374	-0.376229
C190	C	0.613054	-0.133374	0.123771
N191	N	0.074131	-0.672316	-0.345262
N192	N	0.574131	-0.172316	0.154738
C193	C	0.035207	-0.711263	-0.376214
C194	C	0.535207	-0.211263	0.123786
C195	C	0.113035	-0.633396	-0.753928
C196	C	0.613035	-0.133396	-0.253928
C197	C	0.113037	-0.633403	-0.815846
C198	C	0.613037	-0.133403	-0.315846
C199	C	0.035187	-0.711296	-0.815831
C200	C	0.535187	-0.211296	-0.315831
C201	C	0.035188	-0.711291	-0.753913
C202	C	0.535188	-0.211291	-0.253913
C203	C	0.074112	-0.672338	-0.722962
C204	C	0.574112	-0.172338	-0.222962
C205	C	0.035220	-0.711255	-0.246187
C206	C	0.535220	-0.211255	0.253813
C207	C	0.035230	-0.711251	-0.184266
C208	C	0.535230	-0.211251	0.315734
C209	C	0.113078	-0.633357	-0.184286
C210	C	0.613078	-0.133357	0.315714
C211	C	0.113071	-0.633363	-0.246202
C212	C	0.613071	-0.133363	0.253798
C213	C	0.074137	-0.672314	-0.277151
C214	C	0.574137	-0.172314	0.222849
O215	O	0.146152	-0.600281	-0.344163
O216	O	0.646152	-0.100281	0.155837
O217	O	0.002101	-0.744376	-0.344182
O218	O	0.502101	-0.244376	0.155818
N219	N	0.074111	-0.672349	0.153196
N220	N	0.574111	-0.172349	0.653196
H221	H	-0.111587	-0.770443	-0.000092
H222	H	0.388413	-0.270443	0.499908
H223	H	0.003492	-0.743008	-0.841044
H224	H	0.503492	-0.243008	-0.341044
Cl225	Cl	-0.381883	-0.842252	-0.000063
Cl226	Cl	0.118117	-0.342252	0.499937
Cl227	Cl	0.200898	-0.545448	-0.430193
Cl228	Cl	0.700898	-0.045448	0.069807
Cl229	Cl	-0.040595	-0.394491	-0.000073
Cl230	Cl	0.459405	0.105509	0.499927
H231	H	-0.085909	-0.582043	-0.000065
H232	H	0.414091	-0.082043	0.499935
Cl233	Cl	-0.047136	0.151965	-0.000075
Cl234	Cl	0.452864	0.651965	0.499925
Cl235	Cl	0.195408	-0.496622	-0.000017
Cl236	Cl	0.695408	0.003378	0.499983
Cl237	Cl	0.242458	-0.082260	-0.000040
Cl238	Cl	0.742458	0.417740	0.499960
H239	H	-0.658056	-0.763906	-0.000054
H240	H	-0.158056	-0.263906	0.499946
H241	H	-0.219337	-0.769159	-0.000071
H242	H	0.280663	-0.269159	0.499929
H243	H	0.164421	0.167632	-0.000059
H244	H	0.664421	0.667632	0.499941
H245	H	-0.352066	-0.526850	-0.000013
H246	H	0.147934	-0.026850	0.499987
Cl247	Cl	0.188872	0.049848	-0.000049
Cl248	Cl	0.688872	0.549848	0.499951
H249	H	-0.022693	0.034198	-0.000084
H250	H	0.477307	0.534198	0.499916
H251	H	0.144737	-0.601694	-0.841052
H252	H	0.644737	-0.101694	-0.341052
Cl253	Cl	0.193810	-0.362567	-0.000037
Cl254	Cl	0.693810	0.137433	0.499963
H255	H	-0.765821	-0.762610	-0.000047
H256	H	-0.265821	-0.262610	0.499953
Cl257	Cl	-0.095789	-0.128358	-0.000098
Cl258	Cl	0.404211	0.371642	0.499902
H259	H	-0.499645	-0.817806	-0.000061
H260	H	0.000355	-0.317806	0.499939
Cl261	Cl	-0.750154	-0.551053	-0.000032
Cl262	Cl	-0.250154	-0.051053	0.499968
H263	H	-0.071339	-0.246123	-0.000104
H264	H	0.428661	0.253877	0.499896
H265	H	0.144736	-0.601677	-0.728731
H266	H	0.644736	-0.101677	-0.228731
Cl267	Cl	-0.203698	-0.557594	-0.000059
Cl268	Cl	0.296302	-0.057594	0.499941
H269	H	-0.035423	-0.781933	-0.556197
H270	H	0.464577	-0.281933	-0.056197
Cl271	Cl	-0.616101	-0.552656	-0.000025
Cl272	Cl	-0.116101	-0.052656	0.499975
H273	H	-0.459814	-0.525555	-0.000009
H274	H	0.040186	-0.025555	0.499991
Cl275	Cl	-0.013725	-0.760225	-0.285084
Cl276	Cl	0.486275	-0.260225	0.214916
H277	H	0.220908	-0.206289	-0.000035
H278	H	0.720908	0.293711	0.499965
Cl279	Cl	-0.038984	-0.528568	-0.000062
Cl280	Cl	0.461016	-0.028568	0.499938
H281	H	0.003494	-0.743005	-0.728706
H282	H	0.503494	-0.243005	-0.228706
H283	H	0.003535	-0.742969	-0.159057
H284	H	0.503535	-0.242969	0.340943
H285	H	-0.035414	-0.781929	-0.443878
H286	H	0.464586	-0.281929	0.056122
H287	H	0.144770	-0.601653	-0.271413
H288	H	0.644770	-0.101653	0.228587
Cl289	Cl	0.200896	-0.545457	-0.569934
Cl290	Cl	0.700896	-0.045457	-0.069934
Cl291	Cl	0.162010	-0.584397	-0.145365
Cl292	Cl	0.662010	-0.084397	0.354635
