data_functionalizedCrystal
_audit_creation_method	'MofGen! by Chris Wilmer'
_symmetry_space_group_name_H-M	'P1'
_symmetry_Int_Tables_number	1
_symmetry_cell_setting	triclinic
loop_
_symmetry_equiv_pos_as_xyz
  x,y,z
_cell_length_a	21.395362
_cell_length_b	12.594516
_cell_length_c	21.395355
_cell_angle_alpha	89.988593
_cell_angle_beta	89.956060
_cell_angle_gamma	90.031933
loop_
_atom_site_label
_atom_site_type_symbol
_atom_site_fract_x
_atom_site_fract_y
_atom_site_fract_z
Zn1	Zn	0.957923	-0.423414	-0.354617
Zn2	Zn	1.457923	0.076586	0.145383
Zn3	Zn	0.957853	-0.601379	-0.249852
Zn4	Zn	1.457853	-0.101379	0.250148
Zn5	Zn	0.853138	-0.423464	-0.249818
Zn6	Zn	1.353138	0.076536	0.250182
Zn7	Zn	0.853134	-0.601400	-0.354557
Zn8	Zn	1.353134	-0.101400	0.145443
O9	O	0.905512	-0.512414	-0.302211
O10	O	1.405512	-0.012414	0.197789
O11	O	1.045592	-0.446992	-0.340759
O12	O	1.545592	0.053008	0.159241
O13	O	0.943934	-0.577789	-0.162170
O14	O	1.443934	-0.077789	0.337830
O15	O	0.867069	-0.274511	-0.263730
O16	O	1.367069	0.225489	0.236270
O17	O	1.045540	-0.577741	-0.263789
O18	O	1.545540	-0.077741	0.236211
O19	O	0.944055	-0.274475	-0.340725
O20	O	1.444055	0.225525	0.159275
O21	O	0.867001	-0.447076	-0.162144
O22	O	1.367001	0.052924	0.337856
O23	O	0.765460	-0.447097	-0.263672
O24	O	1.265460	0.052903	0.236328
O25	O	0.867063	-0.577779	-0.442243
O26	O	1.367063	-0.077779	0.057757
O27	O	0.765457	-0.577827	-0.340624
O28	O	1.265457	-0.077827	0.159376
O29	O	0.944051	-0.447013	-0.442287
O30	O	1.444051	0.052987	0.057713
O31	O	0.943930	-0.750327	-0.263731
O32	O	1.443930	-0.250327	0.236269
O33	O	0.866994	-0.750343	-0.340657
O34	O	1.366994	-0.250343	0.159343
C35	C	0.742724	-0.512471	-0.302138
C36	C	1.242724	-0.012471	0.197862
C37	C	0.673083	-0.512520	-0.302122
C38	C	1.173083	-0.012520	0.197878
C39	C	0.640385	-0.580681	-0.342130
C40	C	1.140385	-0.080681	0.157870
C41	C	0.574949	-0.580655	-0.342158
C42	C	1.074949	-0.080655	0.157842
C43	C	0.542215	-0.512479	-0.302167
C44	C	1.042215	-0.012479	0.197833
C45	C	0.574921	-0.444305	-0.262155
C46	C	1.074921	0.055695	0.237845
C47	C	0.640355	-0.444326	-0.262133
C48	C	1.140355	0.055674	0.237867
C49	C	0.438489	-0.503905	-0.245761
C50	C	0.938489	-0.003905	0.254239
C51	C	0.373056	-0.503892	-0.245782
C52	C	0.873056	-0.003892	0.254218
C53	C	0.340394	-0.512410	-0.302236
C54	C	0.840394	-0.012410	0.197764
C55	C	0.373173	-0.520963	-0.358670
C56	C	0.873173	-0.020963	0.141330
C57	C	0.438608	-0.520984	-0.358648
C58	C	0.938608	-0.020984	0.141352
C59	C	0.471262	-0.512449	-0.302187
C60	C	0.971262	-0.012449	0.197813
C61	C	0.236743	-0.580546	-0.342278
C62	C	0.736743	-0.080546	0.157722
C63	C	0.171307	-0.580513	-0.342307
C64	C	0.671307	-0.080513	0.157693
C65	C	0.171280	-0.444168	-0.262298
C66	C	0.671280	0.055832	0.237702
C67	C	0.236715	-0.444196	-0.262275
C68	C	0.736715	0.055804	0.237725
C69	C	0.269443	-0.512391	-0.302264
C70	C	0.769443	-0.012391	0.197736
C71	C	0.905471	-0.788955	-0.302205
C72	C	1.405471	-0.288955	0.197795
C73	C	0.905511	-0.907261	-0.302223
C74	C	1.405511	-0.407261	0.197777
C75	C	0.863661	-0.976561	-0.344034
C76	C	1.363661	-0.476561	0.155966
C77	C	0.848392	-1.047409	-0.286856
C78	C	1.348392	-0.547409	0.213144
C79	C	0.920837	-1.047212	-0.359410
C80	C	1.420837	-0.547212	0.140590
C81	C	0.890211	-0.976550	-0.245015
C82	C	1.390211	-0.476550	0.254985
C83	C	0.962683	-0.976347	-0.317608
C84	C	1.462683	-0.476347	0.182392
C85	C	0.947436	-1.047163	-0.260391
C86	C	1.447436	-0.547163	0.239609
C87	C	1.068935	-0.512359	-0.302284
C88	C	1.568935	-0.012359	0.197716
C89	C	1.138577	-0.512335	-0.302315
C90	C	1.638577	-0.012335	0.197685
C91	C	0.905564	-0.512393	-0.465634
C92	C	1.405564	-0.012393	0.034366
C93	C	0.905586	-0.512384	-0.535275
C94	C	1.405586	-0.012384	-0.035275
C95	C	0.905570	-0.234793	-0.302231
C96	C	1.405570	0.265207	0.197769
C97	C	0.905595	-0.116488	-0.302239
C98	C	1.405595	0.383512	0.197761
C99	C	0.945672	-0.444291	-0.568012
C100	C	1.445672	0.055709	-0.068012
C101	C	0.945671	-0.444245	-0.633448
C102	C	1.445671	0.055755	-0.133448
C103	C	0.905591	-0.512311	-0.666144
C104	C	1.405591	-0.012311	-0.166144
C105	C	0.865497	-0.580408	-0.633399
C106	C	1.365497	-0.080408	-0.133399
C107	C	0.865495	-0.580445	-0.567965
C108	C	1.365495	-0.080445	-0.067965
C109	C	0.900630	-0.608151	-0.769815
C110	C	1.400630	-0.108151	-0.269815
C111	C	0.900636	-0.608116	-0.835248
C112	C	1.400636	-0.108116	-0.335248
C113	C	0.905595	-0.512199	-0.867965
C114	C	1.405595	-0.012199	-0.367965
C115	C	0.910560	-0.416312	-0.835241
C116	C	1.410560	0.083688	-0.335241
C117	C	0.910557	-0.416349	-0.769806
C118	C	1.410557	0.083651	-0.269806
C119	C	0.905589	-0.512279	-0.737096
C120	C	1.405589	-0.012279	-0.237096
C121	C	0.945682	-0.444051	-0.971654
C122	C	1.445682	0.055949	-0.471654
C123	C	0.945677	-0.444003	-1.037091
C124	C	1.445677	0.055997	-0.537091
C125	C	0.865506	-0.580176	-1.037041
C126	C	1.365506	-0.080176	-0.537041
C127	C	0.865508	-0.580214	-0.971605
C128	C	1.365508	-0.080214	-0.471605
C129	C	0.905599	-0.512153	-0.938916
C130	C	1.405599	-0.012153	-0.438916
C131	C	0.905496	-0.512359	-0.139423
C132	C	1.405496	-0.012359	0.360577
C133	C	0.905596	-0.512068	-0.069782
C134	C	1.405596	-0.012068	0.430218
H135	H	0.465294	-0.527945	-0.404598
H136	H	0.965294	-0.027945	0.095402
O137	O	0.895275	-0.711616	-0.734534
O138	O	1.395275	-0.211616	-0.234534
H139	H	0.937240	-0.722483	-0.704749
H140	H	1.437240	-0.222483	-0.204749
O141	O	0.473716	-0.494719	-0.184868
O142	O	0.973716	0.005281	0.315132
H143	H	0.439931	-0.488786	-0.145630
H144	H	0.939931	0.011214	0.354370
O145	O	0.539620	-0.370793	-0.219006
O146	O	1.039620	0.129207	0.280994
H147	H	0.488626	-0.382245	-0.225733
H148	H	0.988626	0.117755	0.274267
H149	H	0.914598	-0.338275	-0.743165
H150	H	1.414598	0.161725	-0.243165
H151	H	0.877226	-0.945639	-0.196646
H152	H	1.377226	-0.445639	0.303354
H153	H	0.666978	-0.388818	-0.229553
H154	H	1.166978	0.111182	0.270447
O155	O	0.994366	-1.087979	-0.213517
O156	O	1.494366	-0.587979	0.286483
H157	H	0.981532	-1.059525	-0.166121
H158	H	1.481532	-0.559525	0.333879
O159	O	0.816704	-0.935473	-0.390800
O160	O	1.316704	-0.435473	0.109200
H161	H	0.769316	-0.963936	-0.377882
H162	H	1.269316	-0.463936	0.122118
O163	O	0.784399	-1.088756	-0.269617
O164	O	1.284399	-0.588756	0.230383
H165	H	0.749707	-1.060489	-0.304382
H166	H	1.249707	-0.560489	0.195618
O167	O	1.026733	-0.935205	-0.334788
O168	O	1.526733	-0.435205	0.165212
H169	H	1.039343	-0.963541	-0.382269
H170	H	1.539343	-0.463541	0.117731
O171	O	0.937969	-1.088324	-0.423461
O172	O	1.437969	-0.588324	0.076539
H173	H	0.903120	-1.060048	-0.458066
H174	H	1.403120	-0.560048	0.041934
O175	O	0.988909	-0.370882	-0.532753
O176	O	1.488909	0.129118	-0.032753
H177	H	1.016781	-0.323520	-0.566515
H178	H	1.516781	0.176480	-0.066515
H179	H	0.832862	-0.635825	-0.660024
H180	H	1.332862	-0.135825	-0.160024
H181	H	0.978313	-0.388790	-0.660108
H182	H	1.478313	0.111210	-0.160108
H183	H	0.914599	-0.338207	-0.861877
H184	H	1.414599	0.161793	-0.361877
H185	H	0.978323	-0.388625	-0.945037
H186	H	1.478323	0.111375	-0.445037
H187	H	0.144628	-0.388653	-0.229739
H188	H	0.644628	0.111347	0.270261
O189	O	0.337707	-0.494675	-0.184915
O190	O	0.837707	0.005325	0.315085
H191	H	0.286720	-0.496109	-0.194412
H192	H	0.786720	0.003891	0.305588
O193	O	0.136083	-0.654101	-0.385460
O194	O	0.636083	-0.154101	0.114540
H195	H	0.106325	-0.606614	-0.417434
H196	H	0.606325	-0.106614	0.082566
H197	H	0.978319	-0.388548	-1.063744
H198	H	1.478319	0.111452	-0.563744
H199	H	0.548321	-0.636159	-0.374740
H200	H	1.048321	-0.136159	0.125260
O201	O	0.822274	-0.653592	-1.072295
O202	O	1.322274	-0.153592	-0.572295
H203	H	0.829011	-0.642132	-1.123296
H204	H	1.329011	-0.142132	-0.623296
H205	H	0.896598	-0.686193	-0.861887
H206	H	1.396598	-0.186193	-0.361887
O207	O	0.822254	-0.653642	-0.936302
O208	O	1.322254	-0.153642	-0.436302
H209	H	0.832969	-0.737176	-0.948867
H210	H	1.332969	-0.237176	-0.448867
O211	O	0.675686	-0.654216	-0.385268
O212	O	1.175686	-0.154216	0.114732
H213	H	0.641951	-0.701600	-0.413098
H214	H	1.141951	-0.201600	0.086902
O215	O	0.337958	-0.530143	-0.419567
O216	O	0.837958	-0.030143	0.080433
H217	H	0.286950	-0.528676	-0.410106
H218	H	0.786950	-0.028676	0.089894
O219	O	0.822242	-0.653876	-0.532658
O220	O	1.322242	-0.153876	-0.032658
H221	H	0.832959	-0.737408	-0.545226
H222	H	1.332959	-0.237408	-0.045226
O223	O	0.272057	-0.654066	-0.385417
O224	O	0.772057	-0.154066	0.114583
H225	H	0.259453	-0.737578	-0.374608
H226	H	0.759453	-0.237578	0.125392
O227	O	0.271989	-0.370707	-0.219106
O228	O	0.771989	0.129293	0.280894
H229	H	0.238236	-0.323307	-0.191294
H230	H	0.738236	0.176693	0.308706
