data_functionalizedCrystal
_audit_creation_method	'MofGen! by Chris Wilmer'
_symmetry_space_group_name_H-M	'P1'
_symmetry_Int_Tables_number	1
_symmetry_cell_setting	triclinic
loop_
_symmetry_equiv_pos_as_xyz
  x,y,z
_cell_length_a	25.639242
_cell_length_b	25.639240
_cell_length_c	25.639234
_cell_angle_alpha	89.980434
_cell_angle_beta	89.973005
_cell_angle_gamma	90.027587
loop_
_atom_site_label
_atom_site_type_symbol
_atom_site_fract_x
_atom_site_fract_y
_atom_site_fract_z
Zn1	Zn	0.799274	-0.208247	-0.295760
Zn2	Zn	1.299274	0.291753	0.204240
Zn3	Zn	0.799200	-0.295674	-0.208332
Zn4	Zn	1.299200	0.204326	0.291668
Zn5	Zn	0.711843	-0.208248	-0.208325
Zn6	Zn	1.211843	0.291752	0.291675
Zn7	Zn	0.711806	-0.295646	-0.295722
Zn8	Zn	1.211806	0.204354	0.204278
O9	O	0.755531	-0.251954	-0.252035
O10	O	1.255531	0.248046	0.247965
O11	O	0.872429	-0.219855	-0.284182
O12	O	1.372429	0.280145	0.215818
O13	O	0.787597	-0.284089	-0.135166
O14	O	1.287597	0.215911	0.364834
O15	O	0.723487	-0.135083	-0.219936
O16	O	1.223487	0.364917	0.280064
O17	O	0.872375	-0.284088	-0.219949
O18	O	1.372375	0.215912	0.280051
O19	O	0.787723	-0.135082	-0.284175
O20	O	1.287723	0.364918	0.215825
O21	O	0.723416	-0.219858	-0.135160
O22	O	1.223416	0.280142	0.364840
O23	O	0.638673	-0.219830	-0.219899
O24	O	1.138673	0.280170	0.280101
O25	O	0.723424	-0.284040	-0.368893
O26	O	1.223424	0.215960	0.131107
O27	O	0.638645	-0.284041	-0.284110
O28	O	1.138645	0.215959	0.215890
O29	O	0.787686	-0.219828	-0.368921
O30	O	1.287686	0.280172	0.131079
O31	O	0.787561	-0.368836	-0.219912
O32	O	1.287561	0.131164	0.280088
O33	O	0.723352	-0.368815	-0.284117
O34	O	1.223352	0.131185	0.215883
C35	C	0.619688	-0.251933	-0.252000
C36	C	1.119688	0.248067	0.248000
C37	C	0.561574	-0.251937	-0.251997
C38	C	1.061574	0.248063	0.248003
C39	C	0.755459	-0.387796	-0.252023
C40	C	1.255459	0.112204	0.247977
C41	C	0.755475	-0.445910	-0.252035
C42	C	1.255475	0.054090	0.247965
C43	C	0.201206	-0.285444	-0.285438
C44	C	0.701206	0.214556	0.214562
C45	C	0.146601	-0.285447	-0.285446
C46	C	0.646601	0.214553	0.214554
O47	O	0.118360	-0.313911	-0.313849
O48	O	0.618360	0.186089	0.186151
N49	N	0.119292	-0.251968	-0.252069
N50	N	0.619292	0.248032	0.247931
C51	C	0.146589	-0.218480	-0.218685
C52	C	0.646589	0.281520	0.281315
O53	O	0.118346	-0.190003	-0.190297
O54	O	0.618346	0.309997	0.309703
C55	C	0.201192	-0.218474	-0.218680
C56	C	0.701192	0.281526	0.281320
C57	C	0.228499	-0.251959	-0.252056
C58	C	0.728499	0.248041	0.247944
C59	C	0.228513	-0.318926	-0.318811
C60	C	0.728513	0.181074	0.181189
C61	C	0.283113	-0.318924	-0.318802
C62	C	0.783113	0.181076	0.181198
C63	C	0.310407	-0.285439	-0.285420
C64	C	0.810407	0.214561	0.214580
C65	C	0.283100	-0.251957	-0.252047
C66	C	0.783100	0.248043	0.247953
C67	C	0.228489	-0.184983	-0.185300
C68	C	0.728489	0.315017	0.314700
C69	C	0.283096	-0.184981	-0.185297
C70	C	0.783096	0.315019	0.314703
C71	C	0.310403	-0.218466	-0.218673
C72	C	0.810403	0.281534	0.281327
C73	C	0.364994	-0.218469	-0.218655
C74	C	0.864994	0.281531	0.281345
N75	N	0.392304	-0.251949	-0.252032
N76	N	0.892304	0.248051	0.247968
C77	C	0.365010	-0.285434	-0.285414
C78	C	0.865010	0.214566	0.214586
C79	C	0.031919	-0.218493	-0.218700
C80	C	0.531919	0.281507	0.281300
C81	C	-0.022684	-0.218501	-0.218702
C82	C	0.477316	0.281499	0.281298
C83	C	-0.022668	-0.285468	-0.285463
C84	C	0.477332	0.214532	0.214537
C85	C	0.031935	-0.285462	-0.285458
C86	C	0.531935	0.214538	0.214542
C87	C	0.059228	-0.251972	-0.252077
C88	C	0.559228	0.248028	0.247923
C89	C	0.479675	-0.285426	-0.285393
C90	C	0.979675	0.214574	0.214607
C91	C	0.534281	-0.285422	-0.285379
C92	C	1.034281	0.214578	0.214621
C93	C	0.534260	-0.218453	-0.218620
C94	C	1.034260	0.281547	0.281380
C95	C	0.479659	-0.218458	-0.218631
C96	C	0.979659	0.281542	0.281369
C97	C	0.452368	-0.251947	-0.252022
C98	C	0.952368	0.248053	0.247978
O99	O	0.393270	-0.190019	-0.190268
O100	O	0.893270	0.309981	0.309732
O101	O	0.393260	-0.313901	-0.313803
O102	O	0.893260	0.186099	0.186197
C103	C	0.788975	-0.697052	-0.285518
C104	C	1.288975	-0.197052	0.214482
C105	C	0.788959	-0.642448	-0.285514
C106	C	1.288959	-0.142448	0.214486
O107	O	0.817382	-0.614167	-0.313965
O108	O	1.317382	-0.114167	0.186035
N109	N	0.755533	-0.615184	-0.252042
N110	N	1.255533	-0.115184	0.247958
C111	C	0.722123	-0.642528	-0.218567
C112	C	1.222123	-0.142528	0.281433
O113	O	0.693690	-0.614324	-0.190096
O114	O	1.193690	-0.114324	0.309904
C115	C	0.722142	-0.697131	-0.218569
C116	C	1.222142	-0.197131	0.281431
C117	C	0.755567	-0.724392	-0.252047
C118	C	1.255567	-0.224392	0.247953
C119	C	0.822398	-0.724313	-0.318994
C120	C	1.322398	-0.224313	0.181006
C121	C	0.822413	-0.778913	-0.318998
C122	C	1.322413	-0.278913	0.181002
C123	C	0.789005	-0.806253	-0.285527
C124	C	1.289005	-0.306253	0.214473
C125	C	0.755582	-0.778992	-0.252052
C126	C	1.255582	-0.278992	0.247948
C127	C	0.688736	-0.724474	-0.185092
C128	C	1.188736	-0.224474	0.314908
C129	C	0.688758	-0.779081	-0.185097
C130	C	1.188758	-0.279081	0.314903
C131	C	0.722183	-0.806341	-0.218575
C132	C	1.222183	-0.306341	0.281425
C133	C	0.722189	-0.860933	-0.218586
C134	C	1.222189	-0.360933	0.281414
N135	N	0.755616	-0.888196	-0.252058
N136	N	1.255616	-0.388196	0.247942
C137	C	0.789024	-0.860856	-0.285529
C138	C	1.289024	-0.360856	0.214471
C139	C	0.722087	-0.527857	-0.218566
C140	C	1.222087	-0.027857	0.281434
C141	C	0.722065	-0.473255	-0.218566
C142	C	1.222065	0.026745	0.281434
C143	C	0.788902	-0.473179	-0.285513
C144	C	1.288902	0.026821	0.214487
C145	C	0.788921	-0.527782	-0.285514
C146	C	1.288921	-0.027782	0.214486
C147	C	0.755514	-0.555121	-0.252038
C148	C	1.255514	-0.055121	0.247962
C149	C	0.789052	-0.975521	-0.285536
C150	C	1.289052	-0.475521	0.214464
C151	C	0.789062	-1.030127	-0.285539
C152	C	1.289062	-0.530127	0.214461
C153	C	0.722228	-1.030198	-0.218591
C154	C	1.222228	-0.530198	0.281409
C155	C	0.722215	-0.975598	-0.218590
C156	C	1.222215	-0.475598	0.281410
C157	C	0.755632	-0.948261	-0.252064
C158	C	1.255632	-0.448261	0.247936
O159	O	0.693783	-0.889248	-0.190148
O160	O	1.193783	-0.389248	0.309852
O161	O	0.817457	-0.889067	-0.313991
O162	O	1.317457	-0.389067	0.186009
C163	C	0.891904	-0.251975	-0.252071
C164	C	1.391904	0.248025	0.247929
C165	C	0.950018	-0.251984	-0.252086
C166	C	1.450018	0.248016	0.247914
C167	C	0.755559	-0.251931	-0.388408
C168	C	1.255559	0.248069	0.111592
C169	C	0.755571	-0.251921	-0.446522
C170	C	1.255571	0.248079	0.053478
C171	C	0.755617	-0.115581	-0.252059
C172	C	1.255617	0.384419	0.247941
C173	C	0.755654	-0.057467	-0.252069
C174	C	1.255654	0.442533	0.247931
C175	C	0.789004	-0.285323	-0.697711
C176	C	1.289004	0.214677	-0.197711
C177	C	0.788998	-0.285334	-0.643107
C178	C	1.288998	0.214666	-0.143107
O179	O	0.817400	-0.313792	-0.614866
O180	O	1.317400	0.186208	-0.114866
N181	N	0.755583	-0.251895	-0.615796
N182	N	1.255583	0.248105	-0.115796
C183	C	0.722166	-0.218447	-0.643093
C184	C	1.222166	0.281553	-0.143093
O185	O	0.693742	-0.190006	-0.614849
O186	O	1.193742	0.309994	-0.114849
C187	C	0.722169	-0.218439	-0.697696
C188	C	1.222169	0.281561	-0.197696
C189	C	0.755591	-0.251877	-0.725004
C190	C	1.255591	0.248123	-0.225004
C191	C	0.822423	-0.318758	-0.725019
C192	C	1.322423	0.181242	-0.225019
C193	C	0.822429	-0.318747	-0.779620
C194	C	1.322429	0.181253	-0.279620
C195	C	0.789016	-0.285300	-0.806912
C196	C	1.289016	0.214700	-0.306912
C197	C	0.755597	-0.251865	-0.779604
C198	C	1.255597	0.248135	-0.279604
C199	C	0.688751	-0.184994	-0.724991
C200	C	1.188751	0.315006	-0.224991
C201	C	0.688757	-0.184989	-0.779598
C202	C	1.188757	0.315011	-0.279598
C203	C	0.722179	-0.218427	-0.806906
C204	C	1.222179	0.281573	-0.306906
C205	C	0.722191	-0.218406	-0.861498
C206	C	1.222191	0.281594	-0.361498
N207	N	0.755607	-0.251845	-0.888808
N208	N	1.255607	0.248155	-0.388808
C209	C	0.789019	-0.285292	-0.861516
C210	C	1.289019	0.214708	-0.361516
C211	C	0.722161	-0.218467	-0.528422
C212	C	1.222161	0.281533	-0.028422
C213	C	0.722160	-0.218472	-0.473819
C214	C	1.222160	0.281528	0.026181
C215	C	0.788992	-0.285360	-0.473838
C216	C	1.288992	0.214640	0.026162
C217	C	0.788995	-0.285352	-0.528441
C218	C	1.288995	0.214648	-0.028441
C219	C	0.755577	-0.251906	-0.555733
C220	C	1.255577	0.248094	-0.055733
C221	C	0.789030	-0.285264	-0.976181
C222	C	1.289030	0.214736	-0.476181
C223	C	0.789035	-0.285248	-1.030786
C224	C	1.289035	0.214752	-0.530786
C225	C	0.722201	-0.218363	-1.030763
C226	C	1.222201	0.281637	-0.530763
C227	C	0.722198	-0.218377	-0.976163
C228	C	1.222198	0.281623	-0.476163
C229	C	0.755614	-0.251832	-0.948873
C230	C	1.255614	0.248168	-0.448873
O231	O	0.693802	-0.189965	-0.889773
O232	O	1.193802	0.310035	-0.389773
O233	O	0.817433	-0.313733	-0.889766
O234	O	1.317433	0.186267	-0.389766
C235	C	0.755533	-0.251939	-0.116192
C236	C	1.255533	0.248061	0.383808
C237	C	0.755622	-0.251801	-0.058079
C238	C	1.255622	0.248199	0.441921
H239	H	0.556511	-0.312691	-0.312558
H240	H	1.056511	0.187309	0.187442
N241	N	0.199082	-0.355051	-0.354816
N242	N	0.699082	0.144949	0.145184
H243	H	0.176409	-0.379253	-0.333527
H244	H	0.676409	0.120747	0.166473
H245	H	0.176478	-0.333810	-0.379083
H246	H	0.676478	0.166190	0.120917
N247	N	0.824941	-0.443683	-0.321608
N248	N	1.324941	0.056317	0.178392
H249	H	0.846122	-0.469235	-0.342817
H250	H	1.346122	0.030765	0.157183
H251	H	0.803637	-0.421034	-0.345779
H252	H	1.303637	0.078966	0.154221
H253	H	0.457461	-0.312694	-0.312584
H254	H	0.957461	0.187306	0.187416
N255	N	0.563702	-0.182334	-0.182619
N256	N	1.063702	0.317666	0.317381
H257	H	0.554178	-0.190398	-0.145247
H258	H	1.054178	0.309602	0.354753
H259	H	0.602426	-0.187430	-0.187727
H260	H	1.102426	0.312570	0.312273
N261	N	0.858429	-0.694832	-0.355104
N262	N	1.358429	-0.194832	0.144896
H263	H	0.853351	-0.656103	-0.350031
H264	H	1.353351	-0.156103	0.149969
H265	H	0.895778	-0.704351	-0.347010
H266	H	1.395778	-0.204351	0.152990
H267	H	0.305315	-0.157705	-0.158117
H268	H	0.805315	0.342295	0.341883
H269	H	0.694999	-0.191130	-1.052995
H270	H	1.194999	0.308870	-0.552995
H271	H	-0.044912	-0.191239	-0.191519
H272	H	0.455088	0.308761	0.308481
H273	H	0.694990	-0.191142	-0.953927
H274	H	1.194990	0.308858	-0.453927
N275	N	0.825086	-0.946039	-0.321645
N276	N	1.325086	-0.446039	0.178355
H277	H	0.849326	-0.923373	-0.300428
H278	H	1.349326	-0.423373	0.199572
H279	H	0.846223	-0.971631	-0.342845
H280	H	1.346223	-0.471631	0.157155
H281	H	0.305342	-0.346190	-0.345981
H282	H	0.805342	0.153810	0.154019
H283	H	0.816136	-0.549974	-0.312778
H284	H	1.316136	-0.049974	0.187222
H285	H	0.816210	-0.312580	-0.550671
H286	H	1.316210	0.187420	-0.050671
H287	H	0.054137	-0.191222	-0.191513
H288	H	0.554137	0.308778	0.308487
H289	H	0.661534	-0.157767	-0.702767
H290	H	1.161534	0.342233	-0.202767
N291	N	0.686013	-0.443857	-0.182457
N292	N	1.186013	0.056143	0.317543
H293	H	0.691069	-0.405116	-0.187529
H294	H	1.191069	0.094884	0.312471
H295	H	0.648670	-0.453429	-0.190555
H296	H	1.148670	0.046571	0.309445
H297	H	0.457425	-0.191193	-0.191453
H298	H	0.957425	0.308807	0.308547
N299	N	0.652689	-0.695082	-0.148976
N300	N	1.152689	-0.195082	0.351024
H301	H	0.657742	-0.656341	-0.154046
H302	H	1.157742	-0.156341	0.345954
H303	H	0.615346	-0.704655	-0.157069
H304	H	1.115346	-0.204655	0.342931
H305	H	0.849635	-0.801104	-0.346256
H306	H	1.349635	-0.301104	0.153744
N307	N	0.686050	-0.557342	-0.182460
N308	N	1.186050	-0.057342	0.317540
H309	H	0.664874	-0.531782	-0.161257
H310	H	1.164874	-0.031782	0.338743
H311	H	0.661847	-0.580009	-0.203715
H312	H	1.161847	-0.080009	0.296285
H313	H	0.054165	-0.312728	-0.312636
H314	H	0.554165	0.187272	0.187364
H315	H	-0.044900	-0.312731	-0.312647
H316	H	0.455100	0.187269	0.187353
H317	H	0.816244	-0.312503	-0.953968
H318	H	1.316244	0.187497	-0.453968
H319	H	0.661553	-0.801337	-0.157835
H320	H	1.161553	-0.301337	0.342165
N321	N	0.199045	-0.148867	-0.149301
N322	N	0.699045	0.351133	0.350699
H323	H	0.224629	-0.127655	-0.128158
H324	H	0.724629	0.372345	0.371842
H325	H	0.176414	-0.124701	-0.170628
H326	H	0.676414	0.375299	0.329372
N327	N	0.686163	-0.946187	-0.182489
N328	N	1.186163	-0.446187	0.317511
H329	H	0.648803	-0.955711	-0.190570
H330	H	1.148803	-0.455711	0.309430
H331	H	0.694352	-0.955712	-0.145156
H332	H	1.194352	-0.455712	0.354844
N333	N	0.825103	-1.059529	-0.321661
N334	N	1.325103	-0.559529	0.178339
H335	H	0.846261	-1.033921	-0.342866
H336	H	1.346261	-0.533921	0.157134
H337	H	0.849323	-1.082182	-0.300419
H338	H	1.349323	-0.582182	0.199581
H339	H	0.695027	-1.052468	-0.191341
H340	H	1.195027	-0.552468	0.308659
N341	N	0.825085	-0.321313	-1.060240
N342	N	1.325085	0.178687	-0.560240
H343	H	0.846248	-0.342503	-1.034661
H344	H	1.346248	0.157497	-0.534661
H345	H	0.803790	-0.345501	-1.082884
H346	H	1.303790	0.154499	-0.582884
H347	H	0.849643	-0.345976	-0.801849
H348	H	1.349643	0.154024	-0.301849
N349	N	0.825031	-0.321435	-0.444393
N350	N	1.325031	0.178565	0.055607
H351	H	0.819897	-0.316418	-0.405660
H352	H	1.319897	0.183582	0.094340
H353	H	0.816920	-0.358770	-0.453982
H354	H	1.316920	0.141230	0.046018
N355	N	0.858463	-0.354837	-0.695588
N356	N	1.358463	0.145163	-0.195588
H357	H	0.879630	-0.376014	-0.721181
H358	H	1.379630	0.123986	-0.221181
H359	H	0.882674	-0.333563	-0.672948
H360	H	1.382674	0.166437	-0.172948
H361	H	0.694951	-0.191238	-0.451590
H362	H	1.194951	0.308762	0.048410
N363	N	0.686118	-0.182388	-0.557856
N364	N	1.186118	0.317612	-0.057856
H365	H	0.664952	-0.161208	-0.532266
H366	H	1.164952	0.338792	-0.032266
H367	H	0.707416	-0.158190	-0.580524
H368	H	1.207416	0.341810	-0.080524
H369	H	0.661543	-0.157753	-0.801816
H370	H	1.161543	0.342247	-0.301816
