data_functionalizedCrystal
_audit_creation_method	'MofGen! by Chris Wilmer'
_symmetry_space_group_name_H-M	'P1'
_symmetry_Int_Tables_number	1
_symmetry_cell_setting	triclinic
loop_
_symmetry_equiv_pos_as_xyz
  x,y,z
_cell_length_a	9.065218
_cell_length_b	11.804365
_cell_length_c	9.065218
_cell_angle_alpha	77.989386
_cell_angle_beta	85.015885
_cell_angle_gamma	102.026252
loop_
_atom_site_label
_atom_site_type_symbol
_atom_site_fract_x
_atom_site_fract_y
_atom_site_fract_z
O1	O	1.989813	0.099025	0.186963
O2	O	1.560528	0.099026	0.204709
O3	O	1.784043	0.099023	-0.018806
O4	O	1.766298	0.099028	0.410477
O5	O	1.725199	-0.099032	0.039977
O6	O	1.501685	-0.099029	0.263491
O7	O	1.930969	-0.099030	0.245745
Cu8	Cu	1.710954	-0.117113	0.259986
Cu9	Cu	1.780544	0.117110	0.190468
O10	O	1.707454	-0.099027	0.469260
C11	C	1.476120	-0.000001	0.232394
C12	C	1.312277	-0.000000	0.227295
N13	N	1.662019	-0.281853	0.308880
C14	C	1.947000	-0.655806	0.024122
C15	C	1.984017	-0.531145	-0.012873
C16	C	1.903520	-0.468816	0.067562
C17	C	1.786001	-0.531160	0.184998
C18	C	1.748988	-0.655833	0.222004
C19	C	1.705508	-0.468843	0.265444
C20	C	1.587989	-0.531188	0.382881
C21	C	1.550981	-0.655849	0.419880
C22	C	1.631478	-0.718178	0.339445
C23	C	1.742521	-0.344170	0.228438
C24	C	1.544510	-0.344198	0.426321
C25	C	1.507492	-0.468859	0.463315
C26	C	2.015378	0.000000	0.218059
C27	C	2.179223	0.000007	0.223156
C28	C	1.752916	-0.000002	-0.044402
C29	C	1.747818	0.000003	-0.208247
N30	N	1.829490	0.281850	0.141563
C31	C	1.738582	0.000001	0.494855
C32	C	1.743682	0.000004	0.658697
H33	H	1.838206	-0.293420	0.132822
H34	H	1.601335	-0.819687	0.369561
O35	O	2.097717	-0.470649	-0.127414
C36	C	2.038414	-0.398849	-0.240845
H37	H	1.929549	-0.380001	-0.188896
H38	H	2.125668	-0.311251	-0.290002
H39	H	2.012071	-0.447233	-0.335359
H40	H	1.455302	-0.706610	0.515514
O41	O	1.466546	-0.283536	0.504492
C42	C	1.568186	-0.211432	0.575249
H43	H	1.688410	-0.192741	0.512540
H44	H	1.532936	-0.123774	0.571716
H45	H	1.565401	-0.259472	0.698703
H46	H	1.411806	-0.519635	0.558935
O47	O	1.939197	-0.347721	0.031634
C48	C	1.811113	-0.306093	-0.012716
H49	H	1.703251	-0.377949	0.037629
H50	H	1.806573	-0.222693	0.030559
H51	H	1.819942	-0.283976	-0.142195
O52	O	2.025146	-0.716226	-0.054245
C53	C	2.008221	-0.685803	-0.209683
H54	H	1.978237	-0.595289	-0.237169
H55	H	2.119424	-0.681542	-0.282075
H56	H	1.913320	-0.755975	-0.235495
