data_functionalizedCrystal
_audit_creation_method	'MofGen! by Chris Wilmer'
_symmetry_space_group_name_H-M	'P1'
_symmetry_Int_Tables_number	1
_symmetry_cell_setting	triclinic
loop_
_symmetry_equiv_pos_as_xyz
  x,y,z
_cell_length_a	16.120490
_cell_length_b	16.120256
_cell_length_c	16.120484
_cell_angle_alpha	84.383827
_cell_angle_beta	89.835900
_cell_angle_gamma	90.129807
loop_
_atom_site_label
_atom_site_type_symbol
_atom_site_fract_x
_atom_site_fract_y
_atom_site_fract_z
Zn1	Zn	1.224989	-0.554790	0.422348
Zn2	Zn	1.724989	-0.054790	0.922348
Zn3	Zn	1.224885	-0.422094	0.555028
Zn4	Zn	1.724885	0.077906	1.055028
Zn5	Zn	1.093728	-0.408035	0.408252
Zn6	Zn	1.593728	0.091965	0.908252
Zn7	Zn	1.078881	-0.554030	0.554256
Zn8	Zn	1.578881	-0.054030	1.054256
O9	O	1.155621	-0.484737	0.484971
O10	O	1.655621	0.015263	0.984971
O11	O	1.341011	-0.543389	0.446170
O12	O	1.841011	-0.043389	0.946170
O13	O	1.213656	-0.303596	0.529981
O14	O	1.713656	0.196404	1.029981
O15	O	1.117397	-0.421936	0.293491
O16	O	1.617397	0.078064	0.793491
O17	O	1.340935	-0.445898	0.543649
O18	O	1.840935	0.054102	1.043649
O19	O	1.213834	-0.529756	0.303847
O20	O	1.713834	-0.029756	0.803847
O21	O	1.117296	-0.293266	0.422146
O22	O	1.617296	0.206734	0.922146
O23	O	0.975723	-0.421199	0.421398
O24	O	1.475723	0.078801	0.921398
O25	O	1.092093	-0.670765	0.542335
O26	O	1.592093	-0.170765	1.042335
O27	O	0.964815	-0.528462	0.528666
O28	O	1.464815	-0.028462	1.028666
O29	O	1.199438	-0.671323	0.445422
O30	O	1.699438	-0.171323	0.945422
O31	O	1.199260	-0.445162	0.671556
O32	O	1.699260	0.054838	1.171556
O33	O	1.091992	-0.542095	0.670989
O34	O	1.591992	-0.042095	1.170989
C35	C	0.940182	-0.473223	0.473419
C36	C	1.440182	0.026777	0.973419
C37	C	0.848014	-0.468318	0.468499
C38	C	1.348014	0.031682	0.968499
C39	C	0.632819	-0.510182	0.510489
C40	C	1.132819	-0.010182	1.010489
C41	C	0.679266	-0.459362	0.459522
C42	C	1.179266	0.040638	0.959522
C43	C	0.773166	-0.464347	0.464518
C44	C	1.273166	0.035653	0.964518
C45	C	0.538911	-0.505198	0.505494
C46	C	1.038911	-0.005198	1.005494
C47	C	1.144121	-0.702131	0.495365
C48	C	1.644121	-0.202131	0.995365
C49	C	1.139220	-0.794771	0.499794
C50	C	1.639220	-0.294771	0.999794
C51	C	1.181177	-1.005935	0.461852
C52	C	1.681177	-0.505935	0.961852
C53	C	1.130247	-0.964378	0.507844
C54	C	1.630247	-0.464378	1.007844
C55	C	1.135241	-0.870000	0.503364
C56	C	1.635241	-0.370000	1.003364
C57	C	1.176183	-1.100321	0.466331
C58	C	1.676183	-0.600321	0.966331
C59	C	1.371901	-0.496297	0.496568
C60	C	1.871901	0.003703	0.996568
C61	C	1.464067	-0.501223	0.501510
C62	C	1.964067	-0.001223	1.001510
C63	C	1.144025	-0.495091	0.701515
C64	C	1.644025	0.004909	1.201515
C65	C	1.139139	-0.499552	0.794160
C66	C	1.639139	0.000448	1.294160
C67	C	1.167127	-0.268189	0.474560
C68	C	1.667127	0.231811	0.974560
C69	C	1.172201	-0.175546	0.469905
C70	C	1.672201	0.324454	0.969905
C71	C	1.167283	-0.474362	0.267583
C72	C	1.667283	0.025638	0.767583
C73	C	1.172253	-0.469941	0.174945
C74	C	1.672253	0.030059	0.674945
C75	C	1.130221	-0.507715	0.963782
C76	C	1.630221	-0.007715	1.463782
C77	C	1.181168	-0.461781	1.005327
C78	C	1.681168	0.038219	1.505327
C79	C	1.176206	-0.466323	1.099711
C80	C	1.676206	0.033677	1.599711
C81	C	1.135182	-0.503174	0.869390
C82	C	1.635182	-0.003174	1.369390
H83	H	0.663573	-0.557429	0.557873
H84	H	1.163573	-0.057429	1.057873
H85	H	1.082882	-0.550447	0.999097
H86	H	1.582882	-0.050447	1.499097
H87	H	0.648510	-0.412110	0.412135
H88	H	1.148510	0.087890	0.912135
H89	H	1.228526	-0.970635	0.419115
H90	H	1.728526	-0.470635	0.919115
H91	H	1.082889	-0.999679	0.550580
H92	H	1.582889	-0.499679	1.050580
H93	H	1.228510	-0.419045	0.970010
H94	H	1.728510	0.080955	1.470010
