data_functionalizedCrystal
_audit_creation_method	'MofGen! by Chris Wilmer'
_symmetry_space_group_name_H-M	'P1'
_symmetry_Int_Tables_number	1
_symmetry_cell_setting	triclinic
loop_
_symmetry_equiv_pos_as_xyz
  x,y,z
_cell_length_a	16.992695
_cell_length_b	16.992694
_cell_length_c	15.455301
_cell_angle_alpha	87.178730
_cell_angle_beta	87.173129
_cell_angle_gamma	90.668223
loop_
_atom_site_label
_atom_site_type_symbol
_atom_site_fract_x
_atom_site_fract_y
_atom_site_fract_z
O1	O	-0.170180	-1.054114	0.072023
O2	O	0.163154	-0.720781	0.405357
O3	O	0.496487	-0.387448	0.738690
O4	O	-0.168350	-0.825715	0.072049
O5	O	0.164984	-0.492382	0.405382
O6	O	0.498317	-0.159049	0.738715
O7	O	-0.055064	-0.938999	0.072029
O8	O	0.278269	-0.605666	0.405363
O9	O	0.611602	-0.272332	0.738696
O10	O	-0.283465	-0.940831	0.072043
O11	O	0.049868	-0.607497	0.405376
O12	O	0.383202	-0.274164	0.738709
O13	O	-0.048524	-0.932451	-0.072233
O14	O	0.284809	-0.599118	0.261100
O15	O	0.618143	-0.265784	0.594434
O16	O	-0.161809	-0.819168	-0.072214
O17	O	0.171524	-0.485834	0.261120
O18	O	0.504857	-0.152501	0.594453
O19	O	-0.163639	-1.047566	-0.072239
O20	O	0.169694	-0.714233	0.261094
O21	O	0.503027	-0.380900	0.594428
Cu22	Cu	-0.162127	-0.932769	-0.085399
Cu23	Cu	0.171206	-0.599436	0.247935
Cu24	Cu	0.504540	-0.266102	0.581268
Cu25	Cu	-0.169862	-0.940513	0.085208
Cu26	Cu	0.163472	-0.607179	0.418542
Cu27	Cu	0.496805	-0.273846	0.751875
O28	O	-0.276925	-0.934283	-0.072220
O29	O	0.056409	-0.600950	0.261114
O30	O	0.389742	-0.267616	0.594447
C31	C	-0.162724	-0.793081	-0.000079
C32	C	0.170609	-0.459748	0.333254
C33	C	0.503943	-0.126415	0.666587
C34	C	-0.155696	-0.705597	-0.000070
C35	C	0.177638	-0.372264	0.333264
C36	C	0.510971	-0.038931	0.666597
C37	C	-0.022434	-0.933369	-0.000102
C38	C	0.310899	-0.600036	0.333232
C39	C	0.644233	-0.266703	0.666565
C40	C	0.065051	-0.926341	-0.000101
C41	C	0.398384	-0.593007	0.333233
C42	C	0.731717	-0.259674	0.666566
C43	C	-0.169265	-1.080200	-0.000109
C44	C	0.164068	-0.746867	0.333224
C45	C	0.497401	-0.413534	0.666557
C46	C	-0.176294	-1.167685	-0.000113
C47	C	0.157040	-0.834352	0.333220
C48	C	0.490373	-0.501018	0.666554
C49	C	-0.309555	-0.939913	-0.000087
C50	C	0.023778	-0.606579	0.333246
C51	C	0.357112	-0.273246	0.666580
C52	C	-0.397040	-0.946942	-0.000082
C53	C	-0.063707	-0.613608	0.333251
C54	C	0.269627	-0.280275	0.666584
C55	C	0.111042	-0.994158	-0.000109
C56	C	0.444375	-0.660825	0.333224
C57	C	0.777708	-0.327491	0.666558
C58	C	0.193242	-0.987550	-0.000100
C59	C	0.526575	-0.654216	0.333233
C60	C	0.859909	-0.320883	0.666567
C61	C	0.229450	-0.913122	-0.000089
C62	C	0.562783	-0.579789	0.333244
C63	C	0.896117	-0.246456	0.666578
C64	C	0.183452	-0.845300	-0.000078
C65	C	0.516786	-0.511967	0.333256
C66	C	0.850119	-0.178633	0.666589
C67	C	0.101253	-0.851910	-0.000081
C68	C	0.434587	-0.518576	0.333253
C69	C	0.767920	-0.185243	0.666586
C70	C	0.474764	-0.885729	-0.000074
C71	C	0.808097	-0.552395	0.333259
C72	C	1.141430	-0.219062	0.666593
C73	C	0.556969	-0.879124	-0.000074
C74	C	0.890302	-0.545791	0.333260
C75	C	1.223636	-0.212457	0.666593
C76	C	0.566753	-1.021375	-0.000094
C77	C	0.900086	-0.688041	0.333239
C78	C	1.233420	-0.354708	0.666572
C79	C	0.484552	-1.027977	-0.000102
C80	C	0.817885	-0.694644	0.333231
C81	C	1.151219	-0.361311	0.666564
C82	C	0.438562	-0.960155	-0.000087
C83	C	0.771895	-0.626822	0.333247
C84	C	1.105228	-0.293488	0.666580
N85	N	0.313472	-0.906366	-0.000082
N86	N	0.646805	-0.573032	0.333251
N87	N	0.980139	-0.239699	0.666584
N88	N	0.354541	-0.966913	-0.000087
N89	N	0.687874	-0.633579	0.333246
N90	N	1.021207	-0.300246	0.666580
N91	N	-0.156687	-0.927328	-0.205394
N92	N	0.176646	-0.593995	0.127939
N93	N	0.509980	-0.260662	0.461272
C94	C	-0.223514	-0.659607	-0.000066
C95	C	0.109820	-0.326273	0.333267
C96	C	0.443153	0.007060	0.666600
C97	C	-0.216904	-0.577405	-0.000079
C98	C	0.116429	-0.244072	0.333255
C99	C	0.449763	0.089261	0.666588
C100	C	-0.142476	-0.541197	-0.000088
C101	C	0.190857	-0.207863	0.333245
C102	C	0.524191	0.125470	0.666579
C103	C	-0.074653	-0.587193	-0.000094
C104	C	0.258681	-0.253860	0.333239
C105	C	0.592014	0.079473	0.666573
C106	C	-0.081263	-0.669393	-0.000088
C107	C	0.252071	-0.336059	0.333245
C108	C	0.585404	-0.002726	0.666579
C109	C	-0.115080	-0.295881	-0.000113
C110	C	0.218253	0.037452	0.333220
C111	C	0.551586	0.370786	0.666554
C112	C	-0.108476	-0.213676	-0.000116
C113	C	0.224858	0.119658	0.333217
C114	C	0.558191	0.452991	0.666550
C115	C	-0.250728	-0.203893	-0.000103
C116	C	0.082606	0.129440	0.333231
C117	C	0.415939	0.462773	0.666564
C118	C	-0.257331	-0.286095	-0.000091
C119	C	0.076002	0.047238	0.333242
C120	C	0.409335	0.380572	0.666575
C121	C	-0.189508	-0.332084	-0.000102
C122	C	0.143826	0.001249	0.333232
C123	C	0.477159	0.334582	0.666565
N124	N	-0.135718	-0.457174	-0.000098
N125	N	0.197615	-0.123841	0.333235
N126	N	0.530948	0.209493	0.666569
N127	N	-0.196266	-0.416105	-0.000098
N128	N	0.137067	-0.082772	0.333235
N129	N	0.470401	0.250562	0.666569
C130	C	-0.205394	-0.976004	-0.250787
C131	C	0.127939	-0.642671	0.082546
C132	C	0.461272	-0.309338	0.415879
C133	C	-0.201276	-0.971900	-0.341595
C134	C	0.132058	-0.638567	-0.008262
C135	C	0.465391	-0.305233	0.325071
C136	C	-0.148453	-0.919115	-0.387009
C137	C	0.184880	-0.585782	-0.053675
C138	C	0.518213	-0.252448	0.279658
C139	C	-0.099741	-0.870437	-0.341609
C140	C	0.233593	-0.537104	-0.008276
C141	C	0.566926	-0.203770	0.325058
C142	C	-0.103856	-0.874546	-0.250803
C143	C	0.229478	-0.541213	0.082530
C144	C	0.562811	-0.207879	0.415864
C145	C	-0.130699	-0.901390	-0.658590
C146	C	0.202635	-0.568057	-0.325257
C147	C	0.535968	-0.234723	0.008076
C148	C	-0.126589	-0.897283	-0.749403
C149	C	0.206744	-0.563950	-0.416070
C150	C	0.540078	-0.230617	-0.082736
C151	C	-0.228123	-0.998748	-0.749383
C152	C	0.105210	-0.665414	-0.416050
C153	C	0.438543	-0.332081	-0.082716
C154	C	-0.232237	-1.002849	-0.658575
C155	C	0.101096	-0.669515	-0.325242
C156	C	0.434430	-0.336182	0.008092
C157	C	-0.183522	-0.954174	-0.613183
C158	C	0.149812	-0.620840	-0.279850
C159	C	0.483145	-0.287507	0.053483
N160	N	-0.144244	-0.914917	-0.479829
N161	N	0.189089	-0.581583	-0.146496
N162	N	0.522423	-0.248250	0.186838
N163	N	-0.187728	-0.958376	-0.520365
N164	N	0.145606	-0.625043	-0.187031
N165	N	0.478939	-0.291710	0.146302
N166	N	-0.175296	-0.945959	0.205204
N167	N	0.158037	-0.612626	0.538537
N168	N	0.491370	-0.279293	0.871871
H169	H	0.081568	-1.054764	-0.000124
H170	H	0.414901	-0.721431	0.333210
H171	H	0.748235	-0.388098	0.666543
H172	H	0.230685	-1.042774	-0.000109
H173	H	0.564019	-0.709441	0.333224
H174	H	0.897352	-0.376107	0.666558
C175	C	0.444730	-1.109853	-0.000116
C176	C	0.778063	-0.776519	0.333218
C177	C	1.111397	-0.443186	0.666551
N178	N	0.414736	-1.171522	-0.000129
N179	N	0.748070	-0.838189	0.333204
N180	N	1.081403	-0.504856	0.666537
H181	H	0.063808	-0.796685	-0.000073
H182	H	0.397141	-0.463352	0.333260
H183	H	0.730474	-0.130018	0.666593
C184	C	0.007219	-0.547361	-0.000106
C185	C	0.340553	-0.214027	0.333227
C186	C	0.673886	0.119306	0.666561
N187	N	0.068887	-0.517360	-0.000112
N188	N	0.402220	-0.184026	0.333222
N189	N	0.735554	0.149307	0.666555
H190	H	0.604207	-1.076591	-0.000106
H191	H	0.937540	-0.743258	0.333228
H192	H	1.270874	-0.409925	0.666561
H193	H	-0.056728	-0.827462	-0.378592
H194	H	0.276606	-0.494129	-0.045259
H195	H	0.609939	-0.160795	0.288075
C196	C	-0.263503	-1.034073	-0.200841
C197	C	0.069830	-0.700740	0.132492
C198	C	0.403164	-0.367406	0.465826
N199	N	-0.307270	-1.077815	-0.163224
N200	N	0.026064	-0.744481	0.170109
N201	N	0.359397	-0.411148	0.503443
H202	H	-0.267784	-1.038377	-0.786350
H203	H	0.065549	-0.705043	-0.453017
H204	H	0.398883	-0.371710	-0.119684
H205	H	-0.275248	-1.045834	-0.621605
H206	H	0.058085	-0.712501	-0.288272
H207	H	0.391418	-0.379167	0.045061
H208	H	-0.083574	-0.854295	-0.786376
H209	H	0.249759	-0.520962	-0.453043
H210	H	0.583092	-0.187628	-0.119709
C211	C	-0.339207	-0.325917	-0.000095
C212	C	-0.005874	0.007416	0.333239
C213	C	0.327459	0.340749	0.666572
N214	N	-0.400877	-0.355912	-0.000099
N215	N	-0.067544	-0.022578	0.333234
N216	N	0.265789	0.310755	0.666568
H217	H	-0.091031	-0.861756	-0.621644
H218	H	0.242303	-0.528422	-0.288310
H219	H	0.575636	-0.195089	0.045023
H220	H	-0.064193	-0.834908	-0.213845
H221	H	0.269140	-0.501575	0.119488
H222	H	0.602473	-0.168242	0.452822
H223	H	0.586447	-0.818513	-0.000079
H224	H	0.919780	-0.485180	0.333255
H225	H	1.253113	-0.151846	0.666588
H226	H	-0.240937	-1.011539	-0.378550
H227	H	0.092396	-0.678205	-0.045217
H228	H	0.425730	-0.344872	0.288116
C229	C	-0.305391	-0.699428	-0.000057
C230	C	0.027942	-0.366095	0.333276
C231	C	0.361276	-0.032761	0.666610
N232	N	-0.367063	-0.729419	-0.000055
N233	N	-0.033730	-0.396086	0.333279
N234	N	0.299604	-0.062752	0.666612
C235	C	-0.291509	-0.526818	-0.000090
C236	C	0.041824	-0.193485	0.333243
C237	C	0.375157	0.139849	0.666576
N238	N	-0.347705	-0.488716	-0.000106
N239	N	-0.014372	-0.155383	0.333228
N240	N	0.318961	0.177951	0.666561
H241	H	0.437328	-0.830502	-0.000061
H242	H	0.770661	-0.497169	0.333272
H243	H	1.103994	-0.163836	0.666605
H244	H	0.212939	-0.784700	-0.000063
H245	H	0.546272	-0.451367	0.333270
H246	H	0.879606	-0.118033	0.666604
H247	H	-0.305945	-0.166440	-0.000096
H248	H	0.027388	0.166893	0.333237
H249	H	0.360721	0.500227	0.666571
C250	C	-0.026596	-0.173848	-0.000126
C251	C	0.306738	0.159485	0.333207
C252	C	0.640071	0.492818	0.666541
N253	N	0.035073	-0.143850	-0.000131
N254	N	0.368407	0.189483	0.333202
N255	N	0.701740	0.522816	0.666536
H256	H	-0.026038	-0.706838	-0.000090
H257	H	0.307296	-0.373505	0.333243
H258	H	0.640629	-0.040171	0.666577
C259	C	-0.040472	-0.346459	-0.000119
C260	C	0.292862	-0.013126	0.333214
C261	C	0.626195	0.320208	0.666548
N262	N	0.015727	-0.384558	-0.000122
N263	N	0.349061	-0.051224	0.333211
N264	N	0.682394	0.282109	0.666545
