data_functionalizedCrystal
_audit_creation_method	'MofGen! by Chris Wilmer'
_symmetry_space_group_name_H-M	'P1'
_symmetry_Int_Tables_number	1
_symmetry_cell_setting	triclinic
loop_
_symmetry_equiv_pos_as_xyz
  x,y,z
_cell_length_a	19.121063
_cell_length_b	12.645331
_cell_length_c	12.645323
_cell_angle_alpha	89.977324
_cell_angle_beta	87.591876
_cell_angle_gamma	87.532020
loop_
_atom_site_label
_atom_site_type_symbol
_atom_site_fract_x
_atom_site_fract_y
_atom_site_fract_z
Zn1	Zn	-0.279627	-1.602654	0.617388
Zn2	Zn	0.220373	-1.102654	1.117388
Zn3	Zn	-0.397086	-1.594942	0.447665
Zn4	Zn	0.102914	-1.094942	0.947665
Zn5	Zn	-0.279651	-1.425367	0.440134
Zn6	Zn	0.220349	-0.925367	0.940134
Zn7	Zn	-0.397040	-1.417760	0.624877
Zn8	Zn	0.102960	-0.917760	1.124877
O9	O	-0.338351	-1.510181	0.532516
O10	O	0.161649	-1.010181	1.032516
O11	O	-0.295217	-1.749978	0.594892
O12	O	0.204783	-1.249978	1.094892
O13	O	-0.381537	-1.572404	0.298321
O14	O	0.118463	-1.072404	0.798321
O15	O	-0.181363	-1.455295	0.457361
O16	O	0.318637	-0.955295	0.957361
O17	O	-0.381514	-1.744312	0.470197
O18	O	0.118486	-1.244312	0.970197
O19	O	-0.181346	-1.585547	0.587589
O20	O	0.318654	-1.085547	1.087589
O21	O	-0.295258	-1.447818	0.292788
O22	O	0.204742	-0.947818	0.792788
O23	O	-0.295213	-1.276011	0.464623
O24	O	0.204787	-0.776011	0.964623
O25	O	-0.381436	-1.442330	0.772230
O26	O	0.118564	-0.942330	1.272230
O27	O	-0.381459	-1.270422	0.600353
O28	O	0.118541	-0.770422	1.100353
O29	O	-0.295173	-1.578171	0.766727
O30	O	0.204827	-1.078171	1.266727
O31	O	-0.495364	-1.565027	0.477459
O32	O	0.004636	-1.065027	0.977459
O33	O	-0.495330	-1.434852	0.607656
O34	O	0.004670	-0.934852	1.107656
C35	C	-0.338334	-1.234752	0.532485
C36	C	0.161666	-0.734752	1.032485
C37	C	-0.338344	-1.116921	0.532497
C38	C	0.161656	-0.616921	1.032497
C39	C	-0.520831	-1.498306	0.544210
C40	C	-0.020831	-0.998306	1.044210
C41	C	-0.598897	-1.493323	0.549248
C42	C	-0.098897	-0.993323	1.049248
C43	C	-0.338296	-1.510262	0.809018
C44	C	0.161704	-1.010262	1.309018
C45	C	-0.338273	-1.510297	0.926847
C46	C	0.161727	-1.010297	1.426847
C47	C	-0.635567	-1.558810	0.483885
C48	C	-0.135567	-1.058810	0.983885
C49	C	-0.708918	-1.554130	0.488629
C50	C	-0.208918	-1.054130	0.988629
C51	C	-0.745598	-1.483957	0.558733
C52	C	-0.245598	-0.983957	1.058733
C53	C	-0.708923	-1.418467	0.624104
C54	C	-0.208923	-0.918467	1.124104
C55	C	-0.635573	-1.423154	0.619364
C56	C	-0.135573	-0.923154	1.119364
C57	C	-0.967067	-1.466419	0.576438
C58	C	-0.467067	-0.966419	1.076438
C59	C	-1.040422	-1.461736	0.581171
C60	C	-0.540422	-0.961736	1.081171
C61	C	-1.040412	-1.597400	0.445697
C62	C	-0.540412	-1.097400	0.945697
C63	C	-0.967061	-1.602076	0.440959
C64	C	-0.467061	-1.102076	0.940959
C65	C	-0.930392	-1.536590	0.506334
C66	C	-0.430392	-1.036590	1.006334
C67	C	-0.820575	-1.479169	0.563582
C68	C	-0.320575	-0.979169	1.063582
C69	C	-0.855417	-1.541384	0.501489
C70	C	-0.355417	-1.041384	1.001489
C71	C	-0.155158	-1.522130	0.520800
C72	C	0.344842	-1.022130	1.020800
C73	C	-0.077092	-1.527222	0.515807
C74	C	0.422908	-1.027222	1.015807
C75	C	-0.338368	-1.786685	0.532549
C76	C	0.161632	-1.286685	1.032549
C77	C	-0.338375	-1.904514	0.532563
C78	C	0.161625	-1.404514	1.032563
C79	C	-0.283838	-0.952854	0.447545
C80	C	0.216162	-0.452854	0.947545
C81	C	-0.283979	-1.075405	0.447195
C82	C	0.216021	-0.575405	0.947195
C83	C	-0.412331	-1.067618	0.506730
C84	C	0.087669	-0.567618	1.006730
C85	C	-0.412033	-0.945039	0.506155
C86	C	0.087967	-0.445039	1.006155
C87	C	-0.319567	-0.950986	0.643576
C88	C	0.180433	-0.450986	1.143576
C89	C	-0.317914	-1.073698	0.642847
C90	C	0.182086	-0.573698	1.142847
C91	C	-0.338354	-1.510164	0.257087
C92	C	0.161646	-1.010164	0.757087
C93	C	-0.338179	-1.510347	0.139246
C94	C	0.161821	-1.010347	0.639246
C95	C	-0.392285	-1.424603	1.097856
C96	C	0.107715	-0.924603	1.597856
C97	C	-0.392553	-1.424801	0.975313
C98	C	0.107447	-0.924801	1.475313
C99	C	-0.358362	-1.620698	0.972656
C100	C	0.141638	-1.120698	1.472656
C101	C	-0.358700	-1.620225	1.095276
C102	C	0.141300	-1.120225	1.595276
C103	C	-0.263871	-1.486666	1.089271
C104	C	0.236129	-0.986666	1.589271
C105	C	-0.264317	-1.484145	0.966693
C106	C	0.235683	-0.984145	1.466693
H107	H	-0.605707	-1.615948	0.426794
H108	H	-0.105707	-1.115948	0.926794
Br109	Br	-0.758682	-1.643016	0.399924
Br110	Br	-0.258682	-1.143016	0.899924
Br111	Br	-0.231213	-0.905206	0.684162
Br112	Br	0.268787	-0.405206	1.184162
Br113	Br	-0.483519	-1.449667	1.155164
Br114	Br	0.016481	-0.949667	1.655164
Br115	Br	-0.484361	-1.450270	0.932335
Br116	Br	0.015639	-0.950270	1.432335
Br117	Br	-0.917285	-1.697328	0.345828
Br118	Br	-0.417285	-1.197328	0.845828
H119	H	-1.070275	-1.650716	0.392474
H120	H	-0.570275	-1.150716	0.892474
Br121	Br	-0.482055	-0.891095	0.605284
Br122	Br	0.017945	-0.391095	1.105284
Br123	Br	-0.481871	-1.111719	0.607054
Br124	Br	0.018129	-0.611719	1.107054
H125	H	-1.070285	-1.404605	0.638276
H126	H	-0.570285	-0.904605	1.138276
Br127	Br	-0.196683	-1.590853	1.133313
Br128	Br	0.303317	-1.090853	1.633313
Br129	Br	-0.227173	-1.128091	0.675393
Br130	Br	0.272827	-0.628091	1.175393
H131	H	-0.937218	-1.413096	0.629667
H132	H	-0.437218	-0.913096	1.129667
Br133	Br	-0.439376	-1.116958	0.373195
Br134	Br	0.060624	-0.616958	0.873195
H135	H	-0.413021	-1.640858	1.127372
H136	H	0.086979	-1.140858	1.627372
Br137	Br	-0.233352	-1.355243	1.138817
Br138	Br	0.266648	-0.855243	1.638817
Br139	Br	-0.438617	-0.895569	0.371124
Br140	Br	0.061383	-0.395569	0.871124
H141	H	-0.249167	-1.402923	0.936622
H142	H	0.250833	-0.902923	1.436622
H143	H	-0.738794	-1.361335	0.681188
H144	H	-0.238794	-0.861335	1.181188
Br145	Br	-0.585806	-1.334282	0.708082
Br146	Br	-0.085806	-0.834282	1.208082
H147	H	-0.320200	-1.686088	0.941072
H148	H	0.179800	-1.186088	1.441072
Br149	Br	-0.870361	-1.383938	0.658722
Br150	Br	-0.370361	-0.883938	1.158722
Br151	Br	-0.193573	-1.581279	0.911134
Br152	Br	0.306427	-1.081279	1.411134
H153	H	-0.412113	-1.641782	0.945416
H154	H	0.087887	-1.141782	1.445416
Br155	Br	-0.192534	-1.131493	0.473206
Br156	Br	0.307466	-0.631493	0.973206
H157	H	-0.321003	-1.686020	1.122535
H158	H	0.178997	-1.186020	1.622535
Br159	Br	-0.192113	-0.909679	0.473192
Br160	Br	0.307887	-0.409679	0.973192
H161	H	-0.296131	-0.921211	0.365663
H162	H	0.203869	-0.421211	0.865663
H163	H	-0.825550	-1.598523	0.444415
H164	H	-0.325550	-1.098523	0.944415
Br165	Br	-0.379294	-1.120820	0.753437
Br166	Br	0.120706	-0.620820	1.253437
H167	H	-0.296410	-1.103879	0.364833
H168	H	0.203590	-0.603879	0.864833
Br169	Br	-0.371596	-1.288104	0.923790
Br170	Br	0.128404	-0.788104	1.423790
Br171	Br	-0.385774	-0.898408	0.749059
Br172	Br	0.114226	-0.398408	1.249059
H173	H	-0.379835	-1.342333	1.126531
H174	H	0.120165	-0.842333	1.626531
