data_functionalizedCrystal
_audit_creation_method	'MofGen! by Chris Wilmer'
_symmetry_space_group_name_H-M	'P1'
_symmetry_Int_Tables_number	1
_symmetry_cell_setting	triclinic
loop_
_symmetry_equiv_pos_as_xyz
  x,y,z
_cell_length_a	15.625950
_cell_length_b	15.538117
_cell_length_c	14.750487
_cell_angle_alpha	97.534962
_cell_angle_beta	85.178178
_cell_angle_gamma	113.257794
loop_
_atom_site_label
_atom_site_type_symbol
_atom_site_fract_x
_atom_site_fract_y
_atom_site_fract_z
O1	O	1.060646	-0.196822	-0.289278
O2	O	0.820869	-0.190158	-0.205837
O3	O	0.987432	-0.060575	-0.263794
O4	O	0.894084	-0.326405	-0.231320
O5	O	0.940290	-0.097123	-0.407048
O6	O	0.773727	-0.226706	-0.349090
O7	O	1.013504	-0.233369	-0.432532
Zn8	Zn	0.886131	-0.235840	-0.413556
Zn9	Zn	0.948242	-0.187687	-0.224813
O10	O	0.846942	-0.362952	-0.374574
C11	C	0.767360	-0.205108	-0.267045
C12	C	0.678157	-0.195192	-0.236002
C13	C	0.256222	-0.262214	-0.524235
C14	C	0.172408	-0.252905	-0.495023
C15	C	0.223842	-0.213067	-0.338868
C16	C	0.307660	-0.222377	-0.368066
C17	C	0.323843	-0.246950	-0.460750
C18	C	0.375281	-0.207113	-0.304581
C19	C	0.459094	-0.216419	-0.333778
C20	C	0.475286	-0.240988	-0.426459
C21	C	0.407656	-0.256256	-0.489947
C22	C	0.359099	-0.182534	-0.211898
C23	C	0.426720	-0.167270	-0.148414
C24	C	0.510532	-0.176582	-0.177609
C25	C	0.526724	-0.201151	-0.270290
C26	C	0.578162	-0.161314	-0.114121
C27	C	0.661974	-0.170619	-0.143318
C28	C	0.610537	-0.210456	-0.299487
C29	C	0.973628	-0.044635	-0.338817
C30	C	1.002721	0.057313	-0.348931
C31	C	0.713689	0.371205	-0.248367
C32	C	0.741044	0.467000	-0.257888
C33	C	0.894919	0.475544	-0.311436
C34	C	0.867579	0.379749	-0.301915
C35	C	0.776963	0.327587	-0.270382
C36	C	0.930852	0.336131	-0.323929
C37	C	0.903512	0.240344	-0.314414
C38	C	0.812899	0.188175	-0.282884
C39	C	0.749622	0.231800	-0.260866
C40	C	1.021466	0.388294	-0.355469
C41	C	1.084739	0.344675	-0.377483
C42	C	1.057402	0.248888	-0.367961
C43	C	0.966788	0.196719	-0.336432
C44	C	1.120678	0.205263	-0.389979
C45	C	1.093338	0.109475	-0.380464
C46	C	0.939448	0.100931	-0.326917
C47	C	1.067014	-0.218419	-0.371321
C48	C	1.156218	-0.228333	-0.402358
C49	C	0.860743	0.621108	-0.299547
C50	C	0.831640	0.519162	-0.289418
N51	N	0.990634	-0.154817	-0.096001
N52	N	0.843748	-0.268703	-0.542370
C53	C	1.108967	-0.063045	0.013565
C54	C	1.079276	-0.086077	-0.076607
C55	C	0.931650	-0.200557	-0.025224
C56	C	0.961331	-0.177538	0.064954
C57	C	1.049990	-0.108781	0.084341
C58	C	0.902354	-0.223273	0.135730
C59	C	0.932031	-0.200252	0.225900
C60	C	1.020685	-0.131496	0.245295
C61	C	1.079667	-0.085760	0.174511
C62	C	0.813692	-0.292025	0.116342
C63	C	0.754715	-0.337761	0.187118
C64	C	0.784394	-0.314745	0.277289
C65	C	0.873048	-0.245989	0.296684
C66	C	0.725412	-0.360481	0.348073
C67	C	0.755089	-0.337460	0.438244
C68	C	0.902725	-0.222968	0.386855
H69	H	0.420826	-0.276279	-0.565418
H70	H	0.623707	-0.230480	-0.374958
F71	F	0.843006	0.045413	-0.293346
H72	H	0.789531	-0.310763	0.042918
F73	F	0.564491	-0.250885	-0.457534
F74	F	0.273445	-0.288379	-0.622879
F75	F	0.206619	-0.186890	-0.240233
H76	H	0.639903	0.328733	-0.222683
F77	F	0.100446	-0.269140	-0.562601
H78	H	1.158518	0.387158	-0.403161
F79	F	0.660359	-0.410933	0.166477
H80	H	1.044845	-0.112751	0.318719
H81	H	0.790638	0.110177	-0.275142
F82	F	0.653180	0.176282	-0.227296
F83	F	1.142057	-0.037389	-0.151929
F84	F	1.217110	0.260785	-0.423553
F85	F	0.560939	-0.135132	-0.015487
F86	F	0.269906	-0.172608	-0.180830
H87	H	0.689508	0.502506	-0.239972
F88	F	1.050560	0.490239	-0.365601
F89	F	0.991355	0.531066	-0.345001
H90	H	0.717033	-0.158194	-0.091622
F91	F	0.692316	-0.386136	0.513570
H92	H	0.653222	-0.416457	0.332277
H93	H	0.413533	-0.147258	-0.072950
F94	F	1.160676	0.063048	-0.403907
H95	H	0.974924	-0.166986	0.402637
F96	F	1.203334	0.010125	0.034200
F97	F	1.174033	-0.012590	0.195146
H98	H	0.859462	-0.256537	-0.041019
