data_functionalizedCrystal
_audit_creation_method	'MofGen! by Chris Wilmer'
_symmetry_space_group_name_H-M	'P1'
_symmetry_Int_Tables_number	1
_symmetry_cell_setting	triclinic
loop_
_symmetry_equiv_pos_as_xyz
  x,y,z
_cell_length_a	19.288859
_cell_length_b	19.288865
_cell_length_c	17.766277
_cell_angle_alpha	90.006751
_cell_angle_beta	90.007461
_cell_angle_gamma	83.134986
loop_
_atom_site_label
_atom_site_type_symbol
_atom_site_fract_x
_atom_site_fract_y
_atom_site_fract_z
O1	O	0.921354	0.086624	0.062618
O2	O	0.719092	0.098317	0.062617
O3	O	0.826067	-0.008660	0.062602
O4	O	0.814378	0.193601	0.062632
O5	O	0.826053	-0.008656	-0.062586
O6	O	0.719078	0.098321	-0.062571
O7	O	0.921339	0.086628	-0.062571
Cu8	Cu	0.820207	0.092474	-0.074002
Cu9	Cu	0.820224	0.092470	0.074048
O10	O	0.814364	0.193605	-0.062556
C11	C	0.693209	0.097943	0.000022
C12	C	0.616105	0.096816	0.000022
C13	C	0.825684	-0.034535	0.000006
C14	C	0.824555	-0.111638	-0.000001
C15	C	0.052064	0.151959	0.000031
C16	C	0.124511	0.153025	0.000035
C17	C	0.169217	0.090255	0.000024
C18	C	0.141472	0.026416	0.000029
C19	C	0.069027	0.025353	0.000032
C20	C	0.290483	0.043444	-0.043845
C21	C	0.362926	0.044510	-0.043853
C22	C	0.392663	0.093533	0.000017
C23	C	0.349946	0.141502	0.043885
C24	C	0.277501	0.140438	0.043888
C25	C	0.247773	0.091401	0.000021
C26	C	0.498955	0.158523	0.000022
C27	C	0.571403	0.159586	0.000031
C28	C	0.588364	0.032976	0.000017
C29	C	0.515917	0.031915	0.000016
C30	C	0.471216	0.094691	0.000015
C31	C	0.887323	-0.156336	-0.000004
C32	C	0.886262	-0.228783	0.000008
C33	C	0.822430	-0.256529	0.000008
C34	C	0.759654	-0.211822	0.000016
C35	C	0.760716	-0.139376	0.000011
C36	C	0.772245	-0.364814	-0.043843
C37	C	0.771186	-0.437258	-0.043843
C38	C	0.819150	-0.479975	0.000025
C39	C	0.868187	-0.450239	0.043883
C40	C	0.869249	-0.377793	0.043879
C41	C	0.821271	-0.335083	0.000013
C42	C	0.880773	-0.603228	0.000035
C43	C	0.879709	-0.675676	0.000052
C44	C	0.753099	-0.658713	0.000052
C45	C	0.754164	-0.586267	0.000043
C46	C	0.818003	-0.558529	0.000031
C47	C	0.947223	0.087001	0.000025
C48	C	1.024327	0.088128	0.000031
C49	C	0.814747	0.219479	0.000042
C50	C	0.815876	0.296583	0.000053
N51	N	0.820201	0.092477	-0.178132
C52	C	0.862229	0.134475	-0.782414
C53	C	0.862223	0.134481	-0.703612
C54	C	0.820231	0.092462	-0.664221
C55	C	0.778229	0.050447	-0.703639
C56	C	0.778232	0.050446	-0.782439
C57	C	0.818504	0.029838	-0.539386
C58	C	0.818506	0.029837	-0.460587
C59	C	0.820218	0.092464	-0.421175
C60	C	0.821942	0.155093	-0.460571
C61	C	0.821945	0.155093	-0.539371
C62	C	0.820223	0.092458	-0.578775
C63	C	0.862205	0.134488	-0.296321
C64	C	0.862194	0.134496	-0.217517
C65	C	0.778204	0.050455	-0.217546
C66	C	0.778212	0.050453	-0.296348
C67	C	0.820217	0.092468	-0.335730
N68	N	0.820236	0.092462	0.178178
H69	H	0.015673	0.203077	0.000034
H70	H	0.046445	-0.026628	0.000033
H71	H	0.896431	0.168688	-0.814474
C72	C	0.190651	-0.042630	0.000013
N73	N	0.227693	-0.094638	0.000001
C74	C	0.957548	-0.125829	-0.000011
N75	N	1.010442	-0.102850	-0.000014
C76	C	0.382651	0.195429	0.092148
N77	N	0.407287	0.236047	0.128499
C78	C	0.689438	-0.242344	0.000011
N79	N	0.636549	-0.265333	0.000007
C80	C	0.923184	-0.345086	0.092129
N81	N	0.963805	-0.320451	0.128474
H82	H	0.147099	0.205005	0.000028
H83	H	0.937377	-0.265183	0.000008
C84	C	0.950996	-0.572714	0.000033
N85	N	1.003889	-0.549733	0.000034
H86	H	0.896404	0.168702	-0.328388
C87	C	0.719479	-0.317833	-0.092108
N88	N	0.679738	-0.282448	-0.128461
H89	H	0.397701	0.005454	-0.079577
H90	H	0.709601	-0.102982	0.000014
C91	C	0.485405	-0.038305	0.000000
N92	N	0.462424	-0.091198	-0.000013
C93	C	0.920951	-0.497221	0.092146
N94	N	0.960691	-0.532612	0.128495
H95	H	0.266278	0.003520	-0.079570
C96	C	0.908392	0.180716	-0.174169
N97	N	0.943191	0.215528	-0.141518
C98	C	0.682882	-0.689230	0.000055
N99	N	0.629993	-0.712218	0.000059
C100	C	0.731992	0.004254	-0.174221
N101	N	0.697175	-0.030538	-0.141584
H102	H	0.744020	0.016238	-0.328434
C103	C	0.816630	-0.039063	-0.582732
N104	N	0.815221	-0.090958	-0.615380
H105	H	0.930825	-0.712069	0.000053
H106	H	0.703051	-0.549873	0.000042
C107	C	0.230516	0.193196	0.092150
N108	N	0.195127	0.232931	0.128506
C109	C	0.717245	-0.469961	-0.092088
N110	N	0.676614	-0.494590	-0.128427
H111	H	0.462558	0.209639	0.000023
H112	H	0.823335	0.206090	-0.428483
C113	C	0.908424	0.180697	-0.660254
N114	N	0.943225	0.215505	-0.627599
C115	C	0.823827	0.223986	-0.582703
N116	N	0.825239	0.275878	-0.615341
H117	H	0.817108	-0.021161	-0.428517
H118	H	0.744035	0.016234	-0.814525
C119	C	0.732099	0.004165	-0.660308
N120	N	0.697373	-0.030716	-0.627670
H121	H	0.593984	0.211567	0.000037
H122	H	0.624763	-0.018132	0.000014
