data_functionalizedCrystal
_audit_creation_method	'MofGen! by Chris Wilmer'
_symmetry_space_group_name_H-M	'P1'
_symmetry_Int_Tables_number	1
_symmetry_cell_setting	triclinic
loop_
_symmetry_equiv_pos_as_xyz
  x,y,z
_cell_length_a	17.019372
_cell_length_b	17.038272
_cell_length_c	11.295483
_cell_angle_alpha	94.391706
_cell_angle_beta	89.763812
_cell_angle_gamma	87.242864
loop_
_atom_site_label
_atom_site_type_symbol
_atom_site_fract_x
_atom_site_fract_y
_atom_site_fract_z
O1	O	1.052905	0.100044	0.008850
O2	O	0.825264	0.111510	-0.014476
O3	O	0.937731	-0.008044	-0.002942
O4	O	0.940438	0.219598	-0.002684
O5	O	0.927852	0.002440	0.194095
O6	O	0.815385	0.121994	0.182562
O7	O	1.043026	0.110529	0.205887
Cu8	Cu	0.928303	0.117219	0.212216
Cu9	Cu	0.939987	0.104820	-0.020804
O10	O	0.930559	0.230082	0.194354
C11	C	0.791054	0.116111	0.081044
C12	C	0.703835	0.114194	0.072107
C13	C	0.210822	0.103030	0.016095
C14	C	0.292772	0.104833	0.024508
C15	C	0.328353	0.111455	0.136121
C16	C	0.281981	0.116267	0.239328
C17	C	0.200032	0.114459	0.230913
C18	C	0.575514	0.117197	0.166899
C19	C	0.657468	0.119007	0.175306
C20	C	0.668254	0.107572	-0.039515
C21	C	0.586304	0.105768	-0.047919
C22	C	0.539938	0.110576	0.055288
C23	C	0.412119	0.113301	0.144723
C24	C	0.456175	0.108725	0.046685
C25	C	0.930330	-0.031941	0.095324
C26	C	0.922988	-0.118768	0.094571
C27	C	0.990401	-0.168574	0.101480
C28	C	0.983498	-0.250157	0.100762
C29	C	0.909180	-0.281931	0.093143
C30	C	0.841762	-0.232119	0.086230
C31	C	0.848667	-0.150538	0.086940
C32	C	0.884789	-0.527801	0.090627
C33	C	0.877889	-0.609388	0.089921
C34	C	1.019626	-0.627421	0.104451
C35	C	1.026523	-0.545838	0.105167
C36	C	0.959105	-0.496032	0.098248
C37	C	0.902122	-0.365321	0.092412
C38	C	0.966165	-0.412644	0.098971
C39	C	1.077236	0.105927	0.110365
C40	C	1.164455	0.107844	0.119294
C41	C	0.937959	0.253980	0.096085
C42	C	0.945302	0.340806	0.096830
N43	N	0.920091	0.125939	0.376110
N44	N	0.948204	0.096093	-0.184698
C45	C	1.007315	0.033275	0.634344
C46	C	1.001115	0.039871	0.758372
C47	C	0.901488	0.145722	0.748195
C48	C	0.907688	0.139126	0.624167
C49	C	0.960604	0.082902	0.567246
C50	C	0.966807	0.076310	0.443217
C51	C	0.867177	0.182157	0.433042
C52	C	0.860978	0.188752	0.557070
H53	H	0.330521	0.100908	-0.059527
H54	H	1.050406	-0.012499	0.587999
H55	H	0.557340	0.100375	-0.138806
C56	C	1.025013	0.014461	0.380605
N57	N	1.068852	-0.032128	0.333450
C58	C	0.149029	0.119758	0.344441
N59	N	0.110614	0.123747	0.429953
C60	C	1.052498	-0.014725	0.832175
N61	N	1.091200	-0.055850	0.887764
H62	H	0.817367	-0.635254	0.083735
C63	C	0.171690	0.095744	-0.106688
N64	N	0.142219	0.090252	-0.199173
C65	C	0.719263	0.102274	-0.153034
N66	N	0.757683	0.098279	-0.238541
C67	C	0.696606	0.126288	0.298094
N68	N	0.726085	0.131772	0.390573
H69	H	0.537774	0.121100	0.250938
C70	C	0.843266	0.207545	0.810828
N71	N	0.799407	0.254105	0.858004
H72	H	0.817892	0.234527	0.603429
H73	H	0.310958	0.121654	0.330205
C74	C	0.760012	-0.267073	0.077858
N75	N	0.698435	-0.293398	0.071562
C76	C	0.417032	0.101441	-0.076086
N77	N	0.387543	0.095958	-0.168558
C78	C	0.815792	0.236749	0.359224
N79	N	0.777091	0.277869	0.303624
H80	H	1.050918	-0.142710	0.107692
C81	C	0.451264	0.120638	0.267494
N82	N	0.480749	0.126180	0.359965
C83	C	1.057657	-0.304940	0.108381
N84	N	1.113518	-0.346202	0.114126
H85	H	0.829892	-0.487259	0.084993
C86	C	0.774507	-0.095751	0.079342
N87	N	0.718647	-0.054485	0.073617
H88	H	1.087040	-0.519974	0.111372
H89	H	1.074513	-0.667981	0.110082
H90	H	1.026675	-0.386772	0.105148
H91	H	0.841612	-0.391201	0.086211
