data_functionalizedCrystal
_audit_creation_method	'MofGen! by Chris Wilmer'
_symmetry_space_group_name_H-M	'P1'
_symmetry_Int_Tables_number	1
_symmetry_cell_setting	triclinic
loop_
_symmetry_equiv_pos_as_xyz
  x,y,z
_cell_length_a	27.271600
_cell_length_b	9.582860
_cell_length_c	9.582880
_cell_angle_alpha	90.100092
_cell_angle_beta	111.206715
_cell_angle_gamma	68.793552
loop_
_atom_site_label
_atom_site_type_symbol
_atom_site_fract_x
_atom_site_fract_y
_atom_site_fract_z
V1	V	-1.039083	0.206404	-0.466307
V2	V	-0.539083	0.706404	0.033693
O3	O	-1.025083	-0.010590	-0.457713
O4	O	-0.525083	0.489410	0.042287
O5	O	-1.036609	0.409909	-0.462846
O6	O	-0.536609	0.909909	0.037154
O7	O	-1.036610	0.202943	-0.669813
O8	O	-0.536610	0.702943	-0.169813
O9	O	-1.025083	0.197809	-0.249314
O10	O	-0.525083	0.697809	0.250686
V11	V	-1.157494	0.180480	-0.440384
V12	V	-0.657494	0.680480	0.059616
O13	O	-1.109812	0.263263	-0.523166
O14	O	-0.609812	0.763263	-0.023166
O15	O	-1.199314	0.123619	-0.383522
O16	O	-0.699314	0.623619	0.116478
O17	O	-1.104166	-0.023024	-0.443845
O18	O	-0.604166	0.476976	0.056155
O19	O	-1.200843	0.397473	-0.448977
O20	O	-0.700843	0.897473	0.051023
O21	O	-1.200843	0.189074	-0.657377
O22	O	-0.700843	0.689074	-0.157377
O23	O	-1.104166	0.183942	-0.236879
O24	O	-0.604166	0.683942	0.263121
V25	V	-0.907492	0.180485	-0.440389
V26	V	-0.407492	0.680485	0.059611
O27	O	-0.921492	0.189080	-0.657382
O28	O	-0.421492	0.689080	-0.157382
O29	O	-0.909965	0.183945	-0.236883
O30	O	-0.409965	0.683945	0.263117
O31	O	-0.909965	-0.023020	-0.443849
O32	O	-0.409965	0.476980	0.056151
O33	O	-0.921491	0.397479	-0.448983
O34	O	-0.421491	0.897479	0.051017
V35	V	-0.789080	0.206409	-0.466312
V36	V	-0.289080	0.706409	0.033688
O37	O	-0.836762	0.123626	-0.383530
O38	O	-0.336762	0.623626	0.116470
O39	O	-0.747261	0.263270	-0.523173
O40	O	-0.247261	0.763270	-0.023173
O41	O	-0.842409	0.202947	-0.669817
O42	O	-0.342409	0.702947	-0.169817
O43	O	-0.745731	0.197814	-0.249319
O44	O	-0.245731	0.697814	0.250681
O45	O	-0.745732	-0.010584	-0.457718
O46	O	-0.245732	0.489416	0.042282
O47	O	-0.842408	0.409913	-0.462850
O48	O	-0.342408	0.909913	0.037150
V49	V	-1.289081	0.206399	-0.466302
V50	V	-0.789081	0.706399	0.033698
O51	O	-1.275082	-0.010595	-0.457708
O52	O	-0.775082	0.489405	0.042292
O53	O	-1.286608	0.409904	-0.462841
O54	O	-0.786608	0.909904	0.037159
O55	O	-1.286608	0.202938	-0.669808
O56	O	-0.786608	0.702938	-0.169808
O57	O	-1.275081	0.197804	-0.249309
O58	O	-0.775081	0.697804	0.250691
V59	V	-1.407493	0.180475	-0.440379
V60	V	-0.907493	0.680475	0.059621
O61	O	-1.359811	0.263258	-0.523161
O62	O	-0.859811	0.763258	-0.023161
O63	O	-1.449312	0.123614	-0.383517
O64	O	-0.949312	0.623614	0.116483
O65	O	-1.354165	-0.023029	-0.443840
O66	O	-0.854165	0.476971	0.056160
O67	O	-1.450841	0.397468	-0.448972
O68	O	-0.950841	0.897468	0.051028
O69	O	-1.450842	0.189069	-0.657372
O70	O	-0.950842	0.689069	-0.157372
O71	O	-1.354164	0.183937	-0.236874
O72	O	-0.854164	0.683937	0.263126
V73	V	-0.657492	0.180485	-0.440389
V74	V	-0.157492	0.680485	0.059611
O75	O	-0.671490	0.189079	-0.657381
O76	O	-0.171490	0.689079	-0.157381
O77	O	-0.659967	0.183948	-0.236885
O78	O	-0.159967	0.683948	0.263115
O79	O	-0.659967	-0.023018	-0.443851
O80	O	-0.159967	0.476982	0.056149
O81	O	-0.671490	0.397478	-0.448982
O82	O	-0.171490	0.897478	0.051018
V83	V	-0.539077	0.206399	-0.466302
V84	V	-0.039077	0.706399	0.033698
O85	O	-0.586762	0.123622	-0.383525
O86	O	-0.086762	0.623622	0.116475
O87	O	-0.497256	0.263256	-0.523159
O88	O	0.002744	0.763256	-0.023159
O89	O	-0.592405	0.202940	-0.669809
O90	O	-0.092405	0.702940	-0.169809
O91	O	-0.495730	0.197803	-0.249308
O92	O	0.004270	0.697803	0.250692
O93	O	-0.495730	-0.010595	-0.457707
O94	O	0.004270	0.489405	0.042293
O95	O	-0.592404	0.409905	-0.462843
O96	O	-0.092404	0.909905	0.037157
C97	C	-0.999890	0.459529	-0.455421
C98	C	-0.499890	0.959529	0.044579
C99	C	-1.018253	0.625896	-0.453947
C100	C	-0.518253	1.125896	0.046053
C101	C	-0.999890	0.195522	-0.719425
C102	C	-0.499890	0.695522	-0.219425
C103	C	-1.018253	0.194039	-0.885789
C104	C	-0.518253	0.694039	-0.385789
C105	C	-1.056722	-0.072635	-0.451269
C106	C	-0.556722	0.427365	0.048731
C107	C	-1.033168	-0.238999	-0.452752
C108	C	-0.533168	0.261001	0.047248
C109	C	-1.056721	0.191370	-0.187261
C110	C	-0.556721	0.691370	0.312739
C111	C	-1.033168	0.192845	-0.020895
C112	C	-0.533168	0.692845	0.479105
C113	C	-0.946684	0.191372	-0.187263
C114	C	-0.446684	0.691372	0.312737
C115	C	-0.928321	0.192849	-0.020898
C116	C	-0.428321	0.692849	0.479102
C117	C	-0.946685	-0.072632	-0.451272
C118	C	-0.446685	0.427368	0.048728
C119	C	-0.928323	-0.238997	-0.452758
C120	C	-0.428323	0.261003	0.047242
C121	C	-0.889853	0.195523	-0.719427
C122	C	-0.389853	0.695523	-0.219427
C123	C	-0.913407	0.194038	-0.885791
C124	C	-0.413407	0.694038	-0.385791
C125	C	-0.889853	0.459532	-0.455425
C126	C	-0.389853	0.959532	0.044575
C127	C	-0.913408	0.625899	-0.453958
C128	C	-0.413408	1.125899	0.046042
C129	C	-1.249889	0.459524	-0.455416
C130	C	-0.749889	0.959524	0.044584
C131	C	-1.268252	0.625891	-0.453942
C132	C	-0.768252	1.125891	0.046058
C133	C	-1.249889	0.195517	-0.719420
C134	C	-0.749889	0.695517	-0.219420
C135	C	-1.268251	0.194034	-0.885784
C136	C	-0.768251	0.694034	-0.385784
C137	C	-1.306720	-0.072640	-0.451264
C138	C	-0.806720	0.427360	0.048736
C139	C	-1.283167	-0.239004	-0.452747
C140	C	-0.783167	0.260996	0.047253
C141	C	-1.306720	0.191365	-0.187256
C142	C	-0.806720	0.691365	0.312744
C143	C	-1.283167	0.192840	-0.020890
C144	C	-0.783167	0.692840	0.479110
C145	C	-0.696687	0.191378	-0.187269
C146	C	-0.196687	0.691378	0.312731
C147	C	-0.678325	0.192855	-0.020903
C148	C	-0.178325	0.692855	0.479097
C149	C	-0.696688	-0.072627	-0.451278
C150	C	-0.196688	0.427373	0.048722
C151	C	-0.678328	-0.238991	-0.452764
C152	C	-0.178328	0.261009	0.047236
C153	C	-0.639850	0.195519	-0.719423
C154	C	-0.139850	0.695519	-0.219423
C155	C	-0.663402	0.194034	-0.885787
C156	C	-0.163402	0.694034	-0.385787
C157	C	-0.639850	0.459528	-0.455421
C158	C	-0.139850	0.959528	0.044579
C159	C	-0.663403	0.625895	-0.453954
C160	C	-0.163403	1.125895	0.046046
