data_functionalizedCrystal
_audit_creation_method	'MofGen! by Chris Wilmer'
_symmetry_space_group_name_H-M	'P1'
_symmetry_Int_Tables_number	1
_symmetry_cell_setting	triclinic
loop_
_symmetry_equiv_pos_as_xyz
  x,y,z
_cell_length_a	17.639054
_cell_length_b	17.637651
_cell_length_c	17.639252
_cell_angle_alpha	109.652606
_cell_angle_beta	109.662713
_cell_angle_gamma	109.615240
loop_
_atom_site_label
_atom_site_type_symbol
_atom_site_fract_x
_atom_site_fract_y
_atom_site_fract_z
Zn1	Zn	1.383795	0.116340	0.750850
Zn2	Zn	1.883795	0.616340	1.250850
Zn3	Zn	1.309094	-0.068262	0.566171
Zn4	Zn	1.809094	0.431738	1.066171
Zn5	Zn	1.199214	0.041744	0.566186
Zn6	Zn	1.699214	0.541744	1.066186
Zn7	Zn	1.199158	-0.068230	0.676047
Zn8	Zn	1.699158	0.431770	1.176047
O9	O	1.272815	0.005398	0.639814
O10	O	1.772815	0.505398	1.139814
O11	O	1.497143	0.123058	0.757651
O12	O	1.997143	0.623058	1.257651
O13	O	1.263279	-0.084902	0.442907
O14	O	1.763279	0.415098	0.942907
O15	O	1.254985	0.174920	0.621994
O16	O	1.754985	0.674920	1.121994
O17	O	1.442260	-0.012569	0.621968
O18	O	1.942260	0.487431	1.121968
O19	O	1.390596	0.229726	0.757666
O20	O	1.890596	0.729726	1.257666
O21	O	1.182550	-0.004081	0.442918
O22	O	1.682550	0.495919	0.942918
O23	O	1.075949	-0.004050	0.549461
O24	O	1.575949	0.495950	1.049461
O25	O	1.254890	-0.012514	0.809236
O26	O	1.754890	0.487486	1.309236
O27	O	1.075908	-0.084847	0.630175
O28	O	1.575908	0.415153	1.130175
O29	O	1.390542	0.123089	0.864193
O30	O	1.890542	0.623089	1.364193
O31	O	1.263224	-0.191539	0.549434
O32	O	1.763224	0.308461	1.049434
O33	O	1.182455	-0.191516	0.630160
O34	O	1.682455	0.308484	1.130160
C35	C	1.043970	-0.052541	0.581702
C36	C	1.543970	0.447459	1.081702
C37	C	0.946069	-0.077343	0.556858
C38	C	1.446069	0.422657	1.056858
C39	C	1.214756	-0.223482	0.581704
C40	C	1.714756	0.276518	1.081704
C41	C	1.190007	-0.321370	0.556894
C42	C	1.690007	0.178630	1.056894
C43	C	0.779509	-0.182843	0.451139
C44	C	1.279509	0.317157	0.951139
C45	C	0.871505	-0.159529	0.474493
C46	C	1.371505	0.340471	0.974493
C47	C	0.928659	-0.018440	0.615905
C48	C	1.428659	0.481560	1.115905
C49	C	0.836666	-0.041745	0.592565
C50	C	1.336666	0.458255	1.092565
C51	C	0.762097	-0.123947	0.510181
C52	C	1.262097	0.376053	1.010181
C53	C	0.819254	0.017151	0.651607
C54	C	1.319254	0.517151	1.151607
C55	C	0.727268	-0.006149	0.628267
C56	C	1.227268	0.493851	1.128267
C57	C	0.652695	-0.088346	0.545885
C58	C	1.152695	0.411654	1.045885
C59	C	0.670111	-0.147247	0.486841
C60	C	1.170111	0.352753	0.986841
C61	C	0.893824	0.099356	0.733987
C62	C	1.393824	0.599356	1.233987
C63	C	0.876412	0.158253	0.793029
C64	C	1.376412	0.658253	1.293029
C65	C	0.784426	0.134949	0.769693
C66	C	1.284426	0.634949	1.269693
C67	C	0.709852	0.052753	0.687311
C68	C	1.209852	0.552753	1.187311
C69	C	0.767009	0.193851	0.828737
C70	C	1.267009	0.693851	1.328737
C71	C	0.675024	0.170550	0.805397
C72	C	1.175024	0.670550	1.305397
C73	C	0.617867	0.029452	0.663971
C74	C	1.117867	0.529452	1.163971
C75	C	1.461479	-0.500329	0.828713
C76	C	1.961479	-0.000329	1.328713
C77	C	1.438191	-0.592320	0.805378
C78	C	1.938191	-0.092320	1.305378
C79	C	1.297026	-0.649505	0.664014
C80	C	1.797026	-0.149505	1.164014
C81	C	1.320304	-0.557517	0.687335
C82	C	1.820304	-0.057517	1.187335
C83	C	1.402531	-0.482935	0.769686
C84	C	1.902531	0.017065	1.269686
C85	C	1.261357	-0.540123	0.628307
C86	C	1.761357	-0.040123	1.128307
C87	C	1.284632	-0.448142	0.651629
C88	C	1.784632	0.051858	1.151629
C89	C	1.366854	-0.373556	0.733978
C90	C	1.866854	0.126444	1.233978
C91	C	1.425806	-0.390954	0.793008
C92	C	1.925806	0.109046	1.293008
C93	C	1.179127	-0.614707	0.545959
C94	C	1.679127	-0.114707	1.045959
C95	C	1.120180	-0.597313	0.486932
C96	C	1.620180	-0.097313	0.986932
C97	C	1.143458	-0.505331	0.510250
C98	C	1.643458	-0.005331	1.010250
C99	C	1.225679	-0.430744	0.592599
C100	C	1.725679	0.069256	1.092599
C101	C	1.084505	-0.487933	0.451220
C102	C	1.584505	0.012067	0.951220
C103	C	1.107780	-0.395952	0.474542
C104	C	1.607780	0.104048	0.974542
C105	C	1.248954	-0.338764	0.615921
C106	C	1.748954	0.161236	1.115921
C107	C	1.502554	0.063562	0.698152
C108	C	2.002554	0.563562	1.198152
C109	C	1.600455	0.088348	0.723012
C110	C	2.100455	0.588348	1.223012
C111	C	1.331042	0.063612	0.869569
C112	C	1.831042	0.563612	1.369569
C113	C	1.355855	0.088420	0.967478
C114	C	1.855855	0.588420	1.467478
C115	C	1.331129	0.235182	0.698176
C116	C	1.831129	0.735182	1.198176
C117	C	1.355979	0.333103	0.723046
C118	C	1.855979	0.833103	1.223046
C119	C	1.084359	-0.182997	1.146425
C120	C	1.584359	0.317003	1.646425
C121	C	1.107697	-0.159671	1.238432
C122	C	1.607697	0.340329	1.738432
C123	C	1.248939	-0.018480	1.295644
C124	C	1.748939	0.481520	1.795644
C125	C	1.225612	-0.041792	1.203640
C126	C	1.725612	0.458208	1.703640
C127	C	1.143321	-0.124052	1.129036
C128	C	1.643321	0.375948	1.629036
C129	C	1.284574	0.017153	1.186252
C130	C	1.784574	0.517153	1.686252
C131	C	1.261250	-0.006160	1.094255
C132	C	1.761250	0.493840	1.594255
C133	C	1.178965	-0.088418	1.019647
C134	C	1.678965	0.411582	1.519647
C135	C	1.119998	-0.147365	1.037040
C136	C	1.619998	0.352635	1.537040
C137	C	1.366867	0.099410	1.260856
C138	C	1.866867	0.599410	1.760856
C139	C	1.425829	0.158355	1.243468
C140	C	1.925829	0.658355	1.743468
C141	C	1.402502	0.135046	1.151470
C142	C	1.902502	0.635046	1.651470
C143	C	1.320217	0.052788	1.076862
C144	C	1.820217	0.552788	1.576862
C145	C	1.461469	0.193993	1.134078
C146	C	1.961469	0.693993	1.634078
C147	C	1.438146	0.170680	1.042081
C148	C	1.938146	0.670680	1.542081
C149	C	1.296894	0.029475	0.984866
C150	C	1.796894	0.529475	1.484866
C151	C	1.214798	-0.052614	1.410943
C152	C	1.714798	0.447386	1.910943
C153	C	1.189971	-0.077430	1.313030
C154	C	1.689971	0.422570	1.813030
H155	H	0.557147	-0.037491	0.596891
H156	H	1.057147	0.462509	1.096891
Cl157	Cl	1.529277	0.261763	1.337261
Cl158	Cl	2.029277	0.761763	1.837261
Cl159	Cl	1.564923	0.297395	1.227873
Cl160	Cl	2.064923	0.797395	1.727873
Cl161	Cl	1.512310	-0.614181	0.879590
Cl162	Cl	2.012310	-0.114181	1.379590
H163	H	0.577796	-0.107305	0.526873
H164	H	1.077796	0.392695	1.026873
Cl165	Cl	0.576360	-0.250606	0.383287
Cl166	Cl	1.076360	0.249394	0.883287
H167	H	0.718789	-0.249786	0.384060
H168	H	1.218789	0.250214	0.884060
Cl169	Cl	0.893388	-0.233590	0.400269
Cl170	Cl	1.393388	0.266410	0.900269
H171	H	1.492769	-0.330224	0.860062
H172	H	1.992769	0.169776	1.360062
H173	H	1.230075	-0.710242	0.596965
H174	H	1.730075	-0.210242	1.096965
H175	H	0.989384	0.048490	0.682980
H176	H	1.489384	0.548490	1.182980
H177	H	0.968723	0.118327	0.752986
H178	H	1.468723	0.618327	1.252986
Cl179	Cl	1.033676	-0.374082	0.400334
Cl180	Cl	1.533676	0.125918	0.900334
H181	H	0.937138	0.225183	0.860105
H182	H	1.437138	0.725183	1.360105
Cl183	Cl	1.352388	0.084928	1.389437
Cl184	Cl	1.852388	0.584928	1.889437
H185	H	1.052973	-0.214334	0.976292
H186	H	1.552973	0.285666	1.476292
H187	H	1.528441	-0.439599	0.895768
H188	H	2.028441	0.060401	1.395768
H189	H	0.827736	0.260784	0.895809
H190	H	1.327736	0.760784	1.395809
Cl191	Cl	0.653131	0.244595	0.879617
Cl192	Cl	1.153131	0.744595	1.379617
H193	H	1.315916	-0.278034	0.682975
H194	H	1.815916	0.221966	1.182975
H195	H	1.385802	-0.298661	0.752965
H196	H	1.885802	0.201339	1.252965
H197	H	1.160174	-0.689602	0.526980
H198	H	1.660174	-0.189602	1.026980
H199	H	1.053229	-0.658049	0.419883
H200	H	1.553229	-0.158049	0.919883
Cl201	Cl	0.981129	-0.581701	0.347707
Cl202	Cl	1.481129	-0.081701	0.847707
H203	H	1.385856	0.118387	1.335764
H204	H	1.885856	0.618387	1.835764
H205	H	1.229869	-0.037494	0.924118
H206	H	1.729869	0.462506	1.424118
H207	H	1.486158	0.218680	1.027925
H208	H	1.986158	0.718680	1.527925
H209	H	1.159979	-0.107400	0.944739
H210	H	1.659979	0.392600	1.444739
H211	H	1.017335	-0.249966	1.085677
H212	H	1.517335	0.250034	1.585677
H213	H	1.059677	-0.207678	1.252581
H214	H	1.559677	0.292322	1.752581
