data_functionalizedCrystal
_audit_creation_method	'MofGen! by Chris Wilmer'
_symmetry_space_group_name_H-M	'P1'
_symmetry_Int_Tables_number	1
_symmetry_cell_setting	triclinic
loop_
_symmetry_equiv_pos_as_xyz
  x,y,z
_cell_length_a	22.610064
_cell_length_b	8.559649
_cell_length_c	8.559649
_cell_angle_alpha	69.778664
_cell_angle_beta	90.005107
_cell_angle_gamma	89.993138
loop_
_atom_site_label
_atom_site_type_symbol
_atom_site_fract_x
_atom_site_fract_y
_atom_site_fract_z
O1	O	0.049175	-2.126895	0.055058
O2	O	0.049178	-1.651411	-0.028723
O3	O	0.049176	-1.931044	0.250910
O4	O	0.049177	-1.847262	-0.224575
O5	O	-0.049194	-1.930995	0.250869
O6	O	-0.049192	-1.651362	-0.028764
O7	O	-0.049194	-2.126847	0.055017
Zn8	Zn	-0.064811	-1.889097	0.013119
Zn9	Zn	0.064795	-1.889161	0.013174
O10	O	-0.049192	-1.847214	-0.224616
C11	C	-0.000007	-1.591077	-0.035093
C12	C	-0.000006	-1.411378	-0.053992
N13	N	-0.153263	-1.889065	0.013084
C14	C	-0.000008	-1.937369	0.311198
C15	C	-0.000005	-1.956268	0.490898
C16	C	-0.561906	-2.012985	0.136980
C17	C	-0.623826	-2.012995	0.136992
O18	O	-0.655845	-2.118284	0.242300
N19	N	-0.654801	-1.889163	0.013208
C20	C	-0.623852	-1.765305	-0.110588
O21	O	-0.655885	-1.659977	-0.215874
C22	C	-0.561934	-1.765290	-0.110592
C23	C	-0.530962	-1.889139	0.013191
C24	C	-0.530934	-2.136823	0.260754
C25	C	-0.469018	-2.136815	0.260739
C26	C	-0.438074	-2.012968	0.136950
C27	C	-0.469046	-1.889130	0.013176
C28	C	-0.530987	-1.641426	-0.234380
C29	C	-0.469064	-1.641420	-0.234373
C30	C	-0.438092	-1.765269	-0.110590
C31	C	-0.376187	-1.765276	-0.110628
N32	N	-0.345212	-1.889107	0.013156
C33	C	-0.376156	-2.012953	0.136945
C34	C	-0.753886	-1.765344	-0.110567
C35	C	-0.815804	-1.765365	-0.110571
C36	C	-0.815773	-2.013053	0.137011
C37	C	-0.753854	-2.013038	0.137007
C38	C	-0.722911	-1.889175	0.013217
C39	C	-0.246128	-2.012927	0.136903
C40	C	-0.184207	-2.012911	0.136873
C41	C	-0.184244	-1.765219	-0.110703
C42	C	-0.246159	-1.765238	-0.110679
C43	C	-0.277100	-1.889100	0.013138
O44	O	-0.344128	-1.660036	-0.215878
O45	O	-0.344116	-2.118251	0.242226
N46	N	0.153247	-1.889207	0.013224
C47	C	-0.000008	-2.187180	0.061387
C48	C	-0.000005	-2.366879	0.080286
C49	C	-0.000007	-1.840889	-0.284904
C50	C	-0.000006	-1.821990	-0.464604
H51	H	-0.158992	-2.113770	0.237673
H52	H	-0.556195	-1.540576	-0.335174
H53	H	-0.000010	-2.085696	0.590286
H54	H	-0.000002	-1.311990	-0.183420
O55	O	-0.276087	-2.133407	0.257259
C56	C	-0.269504	-2.379019	0.502879
C57	C	-0.235504	-2.242696	0.366660
H58	H	-0.236708	-2.467394	0.591386
H59	H	-0.298477	-2.451592	0.442852
H60	H	-0.298507	-2.318911	0.575312
H61	H	-0.206469	-2.302668	0.294181
H62	H	-0.206569	-2.170137	0.426789
O63	O	-0.438954	-2.256740	0.381408
C64	C	-0.369340	-2.317807	0.607856
C65	C	-0.403280	-2.181922	0.470982
H66	H	-0.340499	-2.257370	0.680337
H67	H	-0.340226	-2.390648	0.548457
H68	H	-0.402208	-2.406026	0.696182
H69	H	-0.370455	-2.093592	0.382612
H70	H	-0.432404	-2.109206	0.530495
O71	O	-0.561013	-2.256938	0.381143
C72	C	-0.630924	-2.318745	0.606895
C73	C	-0.596893	-2.182530	0.470650
H74	H	-0.659950	-2.258635	0.679276
H75	H	-0.598169	-2.407230	0.695459
H76	H	-0.659881	-2.391219	0.546724
H77	H	-0.567936	-2.109934	0.530676
H78	H	-0.629680	-2.094159	0.382101
H79	H	-0.000003	-1.466258	0.209705
H80	H	-0.000008	-1.692570	0.436018
O81	O	-0.723723	-2.133090	0.257375
C82	C	-0.653896	-2.194685	0.483362
C83	C	-0.687956	-2.058576	0.347029
H84	H	-0.624980	-2.134496	0.555907
H85	H	-0.624845	-2.267193	0.423445
H86	H	-0.686687	-2.283157	0.571743
H87	H	-0.655208	-1.969993	0.258604
H88	H	-0.717016	-1.986194	0.407060
O89	O	-0.845746	-2.133519	0.257353
C90	C	-0.839198	-2.379126	0.502988
C91	C	-0.805178	-2.242831	0.366791
H92	H	-0.806414	-2.467520	0.591524
H93	H	-0.868170	-2.451683	0.442943
H94	H	-0.868203	-2.318991	0.575393
H95	H	-0.776141	-2.302829	0.294339
H96	H	-0.776243	-2.170287	0.426937
O97	O	-0.723858	-1.645163	-0.231046
C98	C	-0.704978	-1.515428	-0.524765
C99	C	-0.739006	-1.651624	-0.388492
H100	H	-0.717221	-1.520583	-0.652094
H101	H	-0.655394	-1.536647	-0.503672
H102	H	-0.717157	-1.388132	-0.519410
H103	H	-0.726875	-1.778977	-0.393767
H104	H	-0.788581	-1.630258	-0.409632
H105	H	-0.443873	-1.540551	-0.335176
O106	O	-0.154204	-1.645052	-0.231147
C107	C	-0.135292	-1.515277	-0.524844
C108	C	-0.169340	-1.651468	-0.388618
H109	H	-0.147525	-1.520396	-0.652193
H110	H	-0.085711	-1.536536	-0.503713
H111	H	-0.147464	-1.387983	-0.519471
H112	H	-0.157217	-1.778819	-0.393911
H113	H	-0.218912	-1.630063	-0.409796
H114	H	-0.841017	-1.664530	-0.211381
H115	H	-0.271377	-1.664403	-0.211488
