data_functionalizedCrystal
_audit_creation_method	'MofGen! by Chris Wilmer'
_symmetry_space_group_name_H-M	'P1'
_symmetry_Int_Tables_number	1
_symmetry_cell_setting	triclinic
loop_
_symmetry_equiv_pos_as_xyz
  x,y,z
_cell_length_a	10.654550
_cell_length_b	10.489741
_cell_length_c	9.730223
_cell_angle_alpha	89.998920
_cell_angle_beta	89.996251
_cell_angle_gamma	84.512038
loop_
_atom_site_label
_atom_site_type_symbol
_atom_site_fract_x
_atom_site_fract_y
_atom_site_fract_z
O1	O	1.667918	0.179156	-0.114402
O2	O	1.302447	0.196226	-0.114380
O3	O	1.493499	0.002089	-0.114383
O4	O	1.476867	0.373293	-0.114399
O5	O	1.493497	0.002094	0.114196
O6	O	1.302445	0.196231	0.114200
O7	O	1.667916	0.179161	0.114178
Zn8	Zn	1.485180	0.187697	0.150481
Zn9	Zn	1.485183	0.187690	-0.150683
O10	O	1.476864	0.373298	0.114181
C11	C	1.255648	0.194975	-0.000087
C12	C	1.116203	0.191225	-0.000079
C13	C	1.036771	0.305530	-0.000103
C14	C	0.905748	0.301999	-0.000127
C15	C	0.933603	0.069849	-0.000107
C16	C	1.064623	0.073381	-0.000073
C17	C	1.088351	0.423374	-0.000109
C18	C	1.008917	0.537688	-0.000135
C19	C	0.877895	0.534157	-0.000159
C20	C	0.826306	0.416312	-0.000156
C21	C	1.492241	-0.045439	-0.000094
C22	C	1.488483	-0.187067	-0.000096
C23	C	1.366923	-0.255148	-0.000099
C24	C	1.424346	-0.347296	0.112599
C25	C	1.424377	-0.347276	-0.112763
C26	C	1.545956	-0.277350	0.112695
C27	C	1.545970	-0.277319	-0.112768
C28	C	1.603481	-0.369440	-0.000043
C29	C	1.714715	0.180412	-0.000118
C30	C	1.854160	0.184162	-0.000136
C31	C	1.478122	0.420826	-0.000111
C32	C	1.481880	0.562454	-0.000118
N33	N	1.485187	0.187700	0.356017
N34	N	1.485186	0.187677	-0.356220
C35	C	1.569807	0.101766	0.427942
C36	C	1.569803	0.101751	0.571825
C37	C	1.400557	0.273615	0.571846
C38	C	1.400555	0.273623	0.427966
C39	C	1.654439	0.015843	0.355993
C40	C	1.739066	-0.070097	0.427918
C41	C	1.739063	-0.070113	0.571801
C42	C	1.654432	0.015812	0.643759
H43	H	0.813223	0.627237	-0.000166
H44	H	1.372910	-0.378281	0.207883
C45	C	1.562275	0.109358	0.849884
C46	C	1.654420	0.015792	0.801919
H47	H	1.562267	0.109340	0.947522
H48	H	1.580202	0.191042	0.817348
H49	H	1.481857	0.091135	0.817325
H50	H	1.734839	0.034021	0.834469
H51	H	1.636501	-0.065910	0.834468
H52	H	1.703518	-0.418912	0.000014
C53	C	1.618166	-0.102594	0.240342
C54	C	1.615324	-0.235769	0.241468
H55	H	1.660980	-0.076924	0.319846
H56	H	1.661063	-0.078091	0.160418
H57	H	1.534378	-0.062450	0.240022
H58	H	1.699113	-0.275914	0.241778
H59	H	1.572429	-0.260285	0.321414
H60	H	1.654452	0.015851	0.238837
C61	C	0.631063	0.474436	-0.117701
C62	C	0.682283	0.412423	-0.000183
H63	H	0.542152	0.472026	-0.117724
H64	H	0.650408	0.560966	-0.117686
H65	H	0.665877	0.432354	-0.197394
H66	H	0.647475	0.454511	0.079511
H67	H	0.662927	0.325877	-0.000185
H68	H	1.807963	-0.140062	0.369322
H69	H	1.807961	-0.140097	0.630361
C70	C	0.917041	-0.129112	-0.117611
C71	C	0.876901	-0.059682	-0.000120
H72	H	0.882041	-0.209083	-0.117616
H73	H	0.889865	-0.081999	-0.197314
H74	H	1.006441	-0.143360	-0.117570
H75	H	0.787501	-0.045426	-0.000167
H76	H	0.904070	-0.106805	0.079603
C77	C	1.025501	0.736650	0.117364
C78	C	1.065622	0.667216	-0.000131
H79	H	1.060515	0.816613	0.117369
H80	H	0.936114	0.750905	0.117337
H81	H	1.052686	0.689526	0.197073
H82	H	1.038429	0.714336	-0.079840
H83	H	1.155029	0.652965	-0.000116
H84	H	1.129299	-0.019696	-0.000057
C85	C	1.229902	0.299668	0.733683
C86	C	1.307546	0.368065	0.650945
H87	H	1.172489	0.357983	0.782519
H88	H	1.184248	0.246161	0.677555
H89	H	1.280315	0.248488	0.797102
H90	H	1.257133	0.419238	0.587518
H91	H	1.353203	0.421594	0.707077
C92	C	1.213541	-0.112280	-0.118035
C93	C	1.232001	-0.188054	0.000046
H94	H	1.130244	-0.070868	-0.117944
H95	H	1.272372	-0.049730	-0.118905
H96	H	1.225466	-0.164861	-0.197339
H97	H	1.220085	-0.135472	0.079350
H98	H	1.173152	-0.250612	0.000928
C99	C	1.233277	0.443519	0.442427
C100	C	1.307548	0.368091	0.348895
H101	H	1.175862	0.501842	0.393609
H102	H	1.187625	0.389993	0.498543
H103	H	1.285977	0.489892	0.498548
H104	H	1.254848	0.321709	0.292781
H105	H	1.353204	0.421623	0.292756
H106	H	1.195034	0.426262	-0.000096
H107	H	1.372927	-0.378217	-0.208049
C108	C	1.551514	-0.270344	-0.359309
C109	C	1.615346	-0.235429	-0.241401
H110	H	1.594334	-0.244471	-0.438727
H111	H	1.548967	-0.360598	-0.360693
H112	H	1.467955	-0.229622	-0.358479
H113	H	1.698903	-0.276158	-0.242226
H114	H	1.617908	-0.145157	-0.240018
