data_functionalizedCrystal
_audit_creation_method	'MofGen! by Chris Wilmer'
_symmetry_space_group_name_H-M	'P1'
_symmetry_Int_Tables_number	1
_symmetry_cell_setting	triclinic
loop_
_symmetry_equiv_pos_as_xyz
  x,y,z
_cell_length_a	31.640172
_cell_length_b	16.704494
_cell_length_c	16.704494
_cell_angle_alpha	60.174809
_cell_angle_beta	90.004431
_cell_angle_gamma	63.422431
loop_
_atom_site_label
_atom_site_type_symbol
_atom_site_fract_x
_atom_site_fract_y
_atom_site_fract_z
Zr1	Zr	0.434470	0.863749	-0.142328
O2	O	0.374665	1.017897	-0.271778
O3	O	0.449518	0.700960	-0.096990
O4	O	0.458108	0.851257	-0.263599
O5	O	0.363037	0.880468	0.019823
O6	O	0.527666	0.851233	-0.263578
O7	O	0.366075	0.867600	-0.105170
O8	O	0.512301	0.582380	0.034454
O9	O	0.378402	1.149321	-0.278210
O10	O	0.511816	0.771100	-0.084470
O11	O	0.457638	0.780722	0.008795
O12	O	0.467751	0.957676	-0.187365
O13	O	0.413573	0.967298	-0.094100
Zr14	Zr	0.540562	0.884234	0.057054
Zr15	Zr	0.545408	0.863711	-0.142294
Zr16	Zr	0.429624	0.884272	0.057021
Zr17	Zr	0.440430	1.073356	-0.152585
Zr18	Zr	0.534601	0.674627	0.067311
O19	O	0.525513	1.047023	0.011717
O20	O	0.532404	1.017842	-0.271731
O21	O	0.367775	1.047078	0.011670
O22	O	0.600367	0.730086	0.186505
O23	O	0.607257	0.700906	-0.096943
O24	O	0.442628	0.730141	0.186458
O25	O	0.611995	0.867515	-0.105096
O26	O	0.516924	0.896726	0.178326
O27	O	0.447366	0.896751	0.178305
O28	O	0.608956	0.880383	0.019897
O29	O	0.466583	1.149291	-0.278183
O30	O	0.508449	0.598693	0.192910
O31	O	0.596630	0.598662	0.192936
O32	O	0.600481	0.582349	0.034481
O33	O	0.374550	1.165634	-0.119754
O34	O	0.462731	1.165603	-0.119727
O35	O	0.507281	0.790307	0.102091
O36	O	0.561459	0.780686	0.008827
O37	O	0.517394	0.967262	-0.094069
O38	O	0.463216	0.976883	-0.000804
C39	C	0.480060	0.611806	-0.029807
C40	C	0.477530	0.522822	-0.025452
C41	C	0.529349	0.345552	-0.114633
C42	C	0.526973	0.261944	-0.110544
C43	C	0.470405	0.271990	-0.013181
C44	C	0.472781	0.355599	-0.017270
C45	C	0.502254	0.392378	-0.067999
C46	C	0.504627	0.475993	-0.072093
C47	C	0.448061	0.486032	0.025276
C48	C	0.445685	0.402424	0.029365
C49	C	0.348750	0.874040	-0.042678
C50	C	0.301654	0.874056	-0.042693
C51	C	-0.057624	0.971392	-0.096337
C52	C	0.119359	0.971423	-0.096370
O53	O	0.122679	1.054256	-0.142022
N54	N	0.164493	0.874035	-0.042663
C55	C	0.165380	0.776632	0.011060
O56	O	0.207830	0.693799	0.056748
C57	C	-0.011602	0.776603	0.011098
C58	C	-0.056736	0.873997	-0.042620
C59	C	-0.102755	1.068778	-0.150050
C60	C	-0.146998	1.068769	-0.150045
C61	C	-0.146110	0.971374	-0.096328
C62	C	-0.100978	0.873988	-0.042615
C63	C	-0.010715	0.679202	0.064827
C64	C	-0.054965	0.679203	0.064833
C65	C	-0.100099	0.776597	0.011115
C66	C	-0.144333	0.776583	0.011107
N67	N	-0.189467	0.873972	-0.042600
C68	C	-0.190355	0.971367	-0.096317
C69	C	0.258297	0.776654	0.011035
C70	C	0.302542	0.776661	0.011025
C71	C	0.256518	0.971452	-0.096405
C72	C	0.212272	0.971444	-0.096399
C73	C	0.213163	0.874042	-0.042671
C74	C	-0.283266	0.971340	-0.096304
C75	C	-0.327511	0.971322	-0.096298
C76	C	-0.281483	0.776532	0.011135
C77	C	-0.237242	0.776549	0.011125
C78	C	-0.238137	0.873962	-0.042597
O79	O	-0.147690	0.693795	0.056743
O80	O	-0.232810	1.054190	-0.141982
C81	C	-0.013381	0.971401	-0.096342
C82	C	0.031750	0.874015	-0.042629
C83	C	0.032639	0.776620	0.011088
C84	C	0.075996	0.874022	-0.042640
C85	C	0.075107	0.971417	-0.096357
C86	C	0.029973	1.068806	-0.150064
C87	C	-0.014270	1.068797	-0.150059
C88	C	0.077773	0.679231	0.064795
C89	C	0.122013	0.679248	0.064785
C90	C	0.121125	0.776644	0.011068
C91	C	0.626282	0.873943	-0.042595
C92	C	0.673378	0.873927	-0.042581
C93	C	0.493577	0.848321	-0.291991
C94	C	0.495635	0.839608	-0.376620
C95	C	0.494971	1.136178	-0.055467
C96	C	0.497502	1.225161	-0.059821
C97	C	0.453500	1.018039	-0.643080
C98	C	0.455432	1.009858	-0.722599
C99	C	0.501433	0.815066	-0.615179
C100	C	0.499501	0.823247	-0.535660
C101	C	0.475533	0.924737	-0.549615
C102	C	0.473599	0.932917	-0.470094
C103	C	0.519602	0.738126	-0.362677
C104	C	0.521534	0.729945	-0.442195
C105	C	0.481454	0.899662	0.206718
C106	C	0.479397	0.908375	0.291347
C107	C	0.618826	0.611757	-0.029765
C108	C	0.663392	0.522757	-0.025396
C109	C	0.473999	0.637476	0.219548
C110	C	0.469411	0.557205	0.308531
C111	C	0.612765	0.637428	0.219590
C112	C	0.655273	0.557141	0.308587
C113	C	0.362267	1.110555	-0.304863
C114	C	0.319759	1.190842	-0.393860
C115	C	0.356205	1.136226	-0.055508
C116	C	0.311640	1.225226	-0.059877
C117	C	0.501033	1.110507	-0.304821
C118	C	0.505620	1.190778	-0.393804
C119	C	0.658407	0.475958	-0.072053
C120	C	0.700278	0.392343	-0.067967
C121	C	0.747132	0.355523	-0.017219
C122	C	0.752116	0.402331	0.029438
C123	C	0.710246	0.485950	0.025347
C124	C	0.493170	0.524514	0.399026
C125	C	0.488857	0.449103	0.482642
C126	C	0.460789	0.406380	0.475761
C127	C	0.437028	0.439079	0.385256
C128	C	0.441337	0.514494	0.301642
C129	C	0.703521	0.514415	0.301698
C130	C	0.743466	0.438987	0.385312
C131	C	0.735164	0.406281	0.475814
C132	C	0.686911	0.449015	0.482702
C133	C	0.646967	0.524447	0.399088
C134	C	0.271511	1.233579	-0.386971
C135	C	0.231566	1.309032	-0.470587
C136	C	0.239869	1.341743	-0.561090
C137	C	0.288121	1.299003	-0.567977
C138	C	0.328066	1.223557	-0.484362
C139	C	0.316625	1.272033	-0.013229
C140	C	0.274755	1.355669	-0.017338
C141	C	0.227901	1.392491	-0.068089
C142	C	0.222917	1.345680	-0.114742
C143	C	0.264786	1.262050	-0.110639
C144	C	0.533692	1.233478	-0.386892
C145	C	0.538013	1.308890	-0.470493
C146	C	0.514257	1.341608	-0.561005
C147	C	0.486184	1.298900	-0.567915
C148	C	0.481867	1.223483	-0.484315
H149	H	-0.284003	1.050665	-0.140040
H150	H	0.710290	0.541032	0.228014
H151	H	0.714311	0.524045	0.063346
N152	N	0.427649	1.127501	-0.658132
H153	H	0.451883	1.135227	-0.627526
H154	H	0.399760	1.135180	-0.627552
H155	H	0.560871	1.343656	-0.464848
H156	H	0.425996	0.524171	0.063245
H157	H	0.193812	1.460588	-0.071422
H158	H	0.620260	0.505934	-0.113389
N159	N	0.792290	0.265336	-0.012812
H160	H	0.782018	0.241280	-0.050071
H161	H	0.809996	0.202795	0.056556
N162	N	0.694897	0.341869	-0.118295
H163	H	0.658860	0.377880	-0.151053
H164	H	0.708604	0.262534	-0.069480
N165	N	0.536414	0.515664	-0.126802
H166	H	0.515140	0.594554	-0.179919
H167	H	0.553214	0.473234	-0.155658
H168	H	0.192281	1.343818	-0.464961
N169	N	0.280135	1.406163	0.032970
H170	H	0.261376	1.396687	0.082673
H171	H	0.266469	1.485474	-0.015875
H172	H	0.184763	1.375673	-0.156063
H173	H	0.264741	1.206950	-0.313287
N174	N	0.259406	1.211568	-0.160954
H175	H	0.223370	1.247590	-0.193723
H176	H	0.273107	1.132237	-0.112135
N177	N	0.559316	1.198201	-0.289275
H178	H	0.577755	1.236699	-0.297596
H179	H	0.583315	1.117875	-0.250048
H180	H	0.354772	1.242060	0.028104
H181	H	0.367350	1.188760	-0.489983
H182	H	0.517776	1.403018	-0.629070
H183	H	0.790270	0.372341	0.070756
N184	N	0.297071	1.334281	-0.665594
H185	H	0.333696	1.295764	-0.657282
H186	H	0.283130	1.414603	-0.704815
H187	H	0.516026	0.559291	0.404647
N188	N	0.514489	0.413840	0.580250
H189	H	0.532928	0.452343	0.571914
H190	H	0.538490	0.333515	0.619482
N191	N	0.460564	1.334193	-0.665542
H192	H	0.467560	1.388452	-0.717446
H193	H	0.423832	1.368086	-0.674620
H194	H	0.459006	1.188725	-0.489957
H195	H	-0.280768	0.697235	0.054868
N196	N	-0.188562	0.671502	0.069057
H197	H	-0.170318	0.671986	0.118280
H198	H	-0.168078	0.662398	0.024560
H199	H	0.207340	1.403176	-0.629166
H200	H	0.541050	0.647315	-0.430846
H201	H	0.414175	0.404283	0.379668
N202	N	0.561131	0.385234	-0.169355
H203	H	0.586899	0.375279	-0.123981
H204	H	0.539815	0.464112	-0.222465
N205	N	0.556199	0.211436	-0.160839
H206	H	0.575229	0.247425	-0.193594
H207	H	0.532924	0.220955	-0.210514
N208	N	0.438626	0.232302	0.041545
H209	H	0.441237	0.172226	0.037061
H210	H	0.403167	0.293528	0.012844
N211	N	0.413902	0.362743	0.084078
H212	H	0.388136	0.372703	0.038696
H213	H	0.397129	0.405114	0.112998
N214	N	-0.376191	1.076372	-0.154240
H215	H	-0.370037	1.138071	-0.188265
H216	H	-0.396688	1.085436	-0.109749
N217	N	-0.195675	1.173816	-0.207971
H218	H	-0.196899	1.211579	-0.278283
H219	H	-0.199135	1.221124	-0.184538
N220	N	-0.103720	1.173834	-0.207998
H221	H	-0.139028	1.235517	-0.242019
H222	H	-0.085231	1.173254	-0.257174
H223	H	0.175526	1.050751	-0.140141
H224	H	0.437491	1.085834	-0.798700
H225	H	0.520952	0.732438	-0.603834
H226	H	0.255801	1.050756	-0.140145
H227	H	0.680158	0.422375	0.556400
H228	H	0.421991	0.541101	0.227960
N229	N	0.351220	0.671613	0.068944
H230	H	0.345063	0.609918	0.102972
H231	H	0.369447	0.672188	0.118113
H232	H	0.607682	0.559225	0.404711
N233	N	0.795506	0.392903	0.377871
H234	H	0.794700	0.425064	0.307850
H235	H	0.811912	0.312143	0.412857
H236	H	0.457284	0.344973	0.543853
N237	N	0.543368	0.637492	-0.261860
H238	H	0.579821	0.593473	-0.252203
H239	H	0.527661	0.593586	-0.252292
H240	H	0.259030	0.697333	0.054789
N241	N	0.778249	0.324922	0.565994
H242	H	0.810072	0.302821	0.547888
H243	H	0.775327	0.259534	0.607625
H244	H	0.026028	0.599892	0.108562
H245	H	-0.051016	1.148105	-0.193802
N246	N	-0.054004	0.574147	0.122787
H247	H	-0.018698	0.512457	0.156811
H248	H	-0.070220	0.565069	0.078305
H249	H	0.029257	1.148108	-0.193806
H250	H	0.158761	0.599932	0.108527
H251	H	0.078504	0.599919	0.108541
H252	H	0.454080	1.015556	-0.481461
