data_functionalizedCrystal
_audit_creation_method	'MofGen! by Chris Wilmer'
_symmetry_space_group_name_H-M	'P1'
_symmetry_Int_Tables_number	1
_symmetry_cell_setting	triclinic
loop_
_symmetry_equiv_pos_as_xyz
  x,y,z
_cell_length_a	31.640172
_cell_length_b	31.640172
_cell_length_c	15.698487
_cell_angle_alpha	59.998182
_cell_angle_beta	90.005217
_cell_angle_gamma	60.004780
loop_
_atom_site_label
_atom_site_type_symbol
_atom_site_fract_x
_atom_site_fract_y
_atom_site_fract_z
Zr1	Zr	0.407244	0.462536	-0.111669
O2	O	0.339764	0.550713	-0.247703
O3	O	0.427921	0.374366	-0.069969
O4	O	0.427931	0.462535	-0.247682
O5	O	0.339757	0.462543	0.070194
O6	O	0.497488	0.462526	-0.247663
O7	O	0.339755	0.462544	-0.069991
O8	O	0.497471	0.304808	0.070233
O9	O	0.339773	0.620261	-0.247702
O10	O	0.488660	0.410623	-0.052169
O11	O	0.436752	0.410628	0.052436
O12	O	0.436763	0.514436	-0.156798
O13	O	0.384855	0.514441	-0.052194
Zr14	Zr	0.518183	0.462520	0.111939
Zr15	Zr	0.518179	0.462522	-0.111639
Zr16	Zr	0.407247	0.462534	0.111909
Zr17	Zr	0.407259	0.573456	-0.111667
Zr18	Zr	0.518168	0.351599	0.111936
O19	O	0.497505	0.550689	0.070238
O20	O	0.497500	0.550693	-0.247661
O21	O	0.339769	0.550709	0.070196
O22	O	0.585663	0.374343	0.247973
O23	O	0.585657	0.374346	-0.069926
O24	O	0.427927	0.374363	0.247930
O25	O	0.585669	0.462513	-0.069924
O26	O	0.497496	0.462521	0.247951
O27	O	0.427939	0.462529	0.247932
O28	O	0.585672	0.462512	0.070260
O29	O	0.427952	0.620249	-0.247678
O30	O	0.497474	0.304806	0.247947
O31	O	0.585653	0.304795	0.247971
O32	O	0.585650	0.304797	0.070256
O33	O	0.339776	0.620258	-0.069987
O34	O	0.427955	0.620247	-0.069963
O35	O	0.488663	0.410620	0.157068
O36	O	0.540571	0.410615	0.052464
O37	O	0.488674	0.514428	-0.052166
O38	O	0.436766	0.514433	0.052438
C39	C	0.462694	0.323784	0.000132
C40	C	0.462688	0.276695	0.000131
C41	C	0.489819	-0.015350	-0.054458
C42	C	0.489830	-0.192345	-0.054457
O43	O	0.512892	-0.215253	-0.100857
N44	N	0.462734	-0.214472	0.000143
C45	C	0.435636	-0.192349	0.054752
O46	O	0.412594	-0.215235	0.101202
C47	C	0.435628	-0.015357	0.054757
C48	C	0.462722	0.006771	0.000145
C49	C	0.516911	0.006778	-0.109065
C50	C	0.516906	0.051027	-0.109069
C51	C	0.489809	0.073148	-0.054466
C52	C	0.462717	0.051020	0.000141
C53	C	0.408534	0.006761	0.109372
C54	C	0.408536	0.051011	0.109371
C55	C	0.435629	0.073139	0.054758
C56	C	0.435614	0.117389	0.054739
N57	N	0.462711	0.139515	0.000139
C58	C	0.489808	0.117395	-0.054464
C59	C	0.435641	-0.285272	0.054744
C60	C	0.435642	-0.329519	0.054742
C61	C	0.489836	-0.329513	-0.054467
C62	C	0.489832	-0.285262	-0.054470
C63	C	0.462737	-0.263145	0.000144
C64	C	0.489794	0.210320	-0.054469
C65	C	0.489785	0.254574	-0.054472
C66	C	0.435592	0.254562	0.054740
C67	C	0.435599	0.210314	0.054739
C68	C	0.462704	0.188193	0.000132
O69	O	0.412569	0.140319	0.101124
O70	O	0.512856	0.140278	-0.100888
C71	C	0.489824	-0.059598	-0.054454
C72	C	0.462732	-0.081726	0.000153
C73	C	0.435635	-0.059605	0.054756
C74	C	0.462733	-0.125973	0.000151
C75	C	0.489830	-0.148094	-0.054452
C76	C	0.516927	-0.125968	-0.109052
C77	C	0.516921	-0.081719	-0.109056
C78	C	0.408539	-0.081732	0.109356
C79	C	0.408546	-0.125980	0.109355
C80	C	0.435643	-0.148101	0.054752
C81	C	0.323950	0.462545	0.000097
C82	C	0.276855	0.462551	0.000085
C83	C	0.011939	0.408333	0.054771
C84	C	-0.165046	0.408323	0.054792
O85	O	-0.164893	0.362236	0.101279
N86	N	-0.214266	0.462511	0.000175
C87	C	-0.219238	0.516707	-0.054445
O88	O	-0.265164	0.562797	-0.100891
C89	C	-0.042254	0.516716	-0.054459
C90	C	0.006965	0.462524	0.000153
C91	C	0.061155	0.354145	0.109380
C92	C	0.105399	0.354148	0.109370
C93	C	0.100425	0.408339	0.054751
C94	C	0.051209	0.462527	0.000142
C95	C	-0.047227	0.570911	-0.109073
C96	C	-0.002975	0.570909	-0.109069
C97	C	0.046244	0.516716	-0.054458
C98	C	0.090478	0.516721	-0.054487
N99	N	0.139698	0.462533	0.000130
C100	C	0.144671	0.408342	0.054749
C101	C	-0.312156	0.516698	-0.054436
C102	C	-0.356402	0.516696	-0.054434
C103	C	-0.302207	0.408311	0.054805
C104	C	-0.257960	0.408314	0.054797
C105	C	-0.262936	0.462509	0.000181
C106	C	0.237583	0.408352	0.054722
C107	C	0.281828	0.408360	0.054704
C108	C	0.227630	0.516744	-0.054531
C109	C	0.183388	0.516737	-0.054517
C110	C	0.188369	0.462536	0.000117
O111	O	0.090365	0.562784	-0.100940
O112	O	0.190601	0.362258	0.101207
C113	C	-0.032305	0.408330	0.054782
C114	C	-0.081522	0.462518	0.000173
C115	C	-0.086495	0.516709	-0.054445
C116	C	-0.125768	0.462516	0.000175
C117	C	-0.120794	0.408324	0.054794
C118	C	-0.071575	0.354136	0.109411
C119	C	-0.027331	0.354139	0.109401
C120	C	-0.135714	0.570898	-0.109062
C121	C	-0.179956	0.570890	-0.109049
C122	C	-0.174982	0.516699	-0.054430
C123	C	0.601477	0.462510	0.000172
C124	C	0.648572	0.462504	0.000185
C125	C	0.462709	0.462531	-0.279527
C126	C	0.462707	0.462532	-0.374442
C127	C	0.462732	0.601272	0.000138
C128	C	0.462739	0.648361	0.000139
C129	C	0.462719	0.462522	-0.548206
C130	C	0.462714	0.462525	-0.451509
C131	C	0.462718	0.462525	0.279797
C132	C	0.462719	0.462523	0.374712
C133	C	0.601457	0.323766	0.000169
C134	C	0.648546	0.276672	0.000180
C135	C	0.462699	0.323780	0.279794
C136	C	0.462694	0.276691	0.374707
C137	C	0.601462	0.323763	0.279831
C138	C	0.648552	0.276667	0.374757
C139	C	0.323964	0.601293	-0.279561
C140	C	0.276874	0.648389	-0.374488
C141	C	0.323969	0.601290	0.000101
C142	C	0.276880	0.648384	0.000089
C143	C	0.462728	0.601275	-0.279524
C144	C	0.462733	0.648365	-0.374438
C145	C	0.643562	0.254560	-0.054440
C146	C	0.687803	0.210315	-0.054450
C147	C	0.737026	0.188181	0.000167
C148	C	0.742009	0.210298	0.054790
C149	C	0.697769	0.254544	0.054793
C150	C	0.489789	0.254573	0.473906
C151	C	0.489782	0.210333	0.563096
C152	C	0.462683	0.188209	0.553085
C153	C	0.435585	0.210331	0.453876
C154	C	0.435589	0.254573	0.364688
C155	C	0.697766	0.254548	0.364733
C156	C	0.742017	0.210303	0.453918
C157	C	0.737052	0.188175	0.553126
C158	C	0.687832	0.210298	0.563148
C159	C	0.643583	0.254546	0.473964
C160	C	0.227660	0.670513	-0.364464
C161	C	0.183410	0.714772	-0.453649
C162	C	0.188375	0.736903	-0.552856
C163	C	0.237594	0.714776	-0.562878
C164	C	0.281843	0.670521	-0.473694
C165	C	0.281864	0.670501	0.054701
C166	C	0.237624	0.714757	0.054686
C167	C	0.188400	0.736893	0.000065
C168	C	0.183417	0.714775	-0.054553
C169	C	0.227657	0.670522	-0.054544
C170	C	0.489837	0.670475	-0.364393
C171	C	0.489851	0.714715	-0.453566
C172	C	0.462759	0.736847	-0.552783
C173	C	0.435654	0.714733	-0.562825
C174	C	0.435643	0.670491	-0.473653
H175	H	0.511847	0.272591	-0.098948
F176	F	0.518635	0.278109	0.484584
F177	F	0.406818	0.738297	-0.668427
F178	F	0.682557	0.186742	0.668741
F179	F	0.242891	0.350666	0.112869
H180	H	0.321941	0.652481	0.099186
F181	F	0.462684	0.141122	0.648017
F182	F	0.334211	0.350679	0.112829
F183	F	0.141276	0.784003	-0.647766
F184	F	0.784106	0.141089	0.000155
H185	H	0.413569	0.652494	-0.481846
F186	F	0.242870	0.738334	-0.668471
H187	H	0.511899	-0.347530	-0.098928
F188	F	0.518626	0.186796	0.668672
H189	H	0.511923	0.732716	-0.445369
F190	F	0.406747	0.186779	0.443238
F191	F	0.334219	0.646975	-0.484379
H192	H	0.782089	0.192294	0.445740
H193	H	0.386478	-0.143990	0.153824
F194	F	0.518643	0.186782	-0.112585
H195	H	0.413527	0.272576	0.283919
H196	H	-0.217887	0.364186	0.099276
F197	F	0.131032	0.738311	-0.442961
H198	H	0.701818	0.272558	0.283961
H199	H	0.773087	0.152146	0.625737
F200	F	0.591178	0.278110	-0.112579
H201	H	0.462772	0.772872	-0.625384
F202	F	0.794401	0.186733	0.112917
H203	H	0.701835	0.272542	0.099278
H204	H	0.538969	0.069039	-0.153536
F205	F	0.591207	0.278079	0.484648
H206	H	0.538979	-0.011230	-0.153528
F207	F	0.222365	0.646967	-0.258888
H208	H	0.511894	-0.267248	-0.098939
F209	F	0.242938	0.738287	0.112824
H210	H	0.152381	0.772926	0.000066
H211	H	0.413573	-0.347525	0.099199
F212	F	0.379699	-0.058197	0.167479
F213	F	0.406801	-0.261739	0.112877
H214	H	0.065214	0.310014	0.153862
H215	H	0.145472	0.310019	0.153836
H216	H	0.386472	-0.011249	0.153845
F217	F	0.131025	0.738338	-0.112678
F218	F	0.379697	0.074546	0.167501
H219	H	0.223592	0.652516	-0.099012
F220	F	0.406757	0.186770	0.112849
F221	F	-0.408781	0.574374	-0.112574
H222	H	0.413529	0.272583	0.099193
F223	F	0.518675	0.646928	-0.258808
H224	H	0.538983	-0.063705	-0.153527
H225	H	0.538988	-0.143983	-0.153517
F226	F	-0.296921	0.350637	0.112934
H227	H	-0.316216	0.560832	-0.098918
H228	H	-0.087296	0.615040	-0.153543
H229	H	-0.007033	0.615042	-0.153531
H230	H	0.143311	0.560864	-0.099000
H231	H	0.012742	0.310010	0.153874
F232	F	0.222346	0.574415	-0.112645
H233	H	-0.067532	0.310011	0.153877
F234	F	-0.232337	0.628573	-0.167183
F235	F	0.682488	0.186784	-0.112586
F236	F	-0.141017	0.628579	-0.167198
