data_functionalizedCrystal
_audit_creation_method	'MofGen! by Chris Wilmer'
_symmetry_space_group_name_H-M	'P1'
_symmetry_Int_Tables_number	1
_symmetry_cell_setting	triclinic
loop_
_symmetry_equiv_pos_as_xyz
  x,y,z
_cell_length_a	13.635800
_cell_length_b	23.752959
_cell_length_c	9.514088
_cell_angle_alpha	86.889104
_cell_angle_beta	61.156455
_cell_angle_gamma	100.066424
loop_
_atom_site_label
_atom_site_type_symbol
_atom_site_fract_x
_atom_site_fract_y
_atom_site_fract_z
V1	V	-2.100419	-0.080176	0.501662
O2	O	-2.100972	0.002809	0.491179
O3	O	-2.067452	-0.157972	0.499129
O4	O	-2.117888	-0.079401	0.720044
O5	O	-2.050187	-0.076306	0.268734
V6	V	-2.337970	-0.070196	0.473693
O7	O	-2.240285	-0.102069	0.563015
O8	O	-2.423202	-0.048304	0.412340
O9	O	-2.259334	0.007600	0.476226
O10	O	-2.396114	-0.153182	0.484176
O11	O	-2.446900	-0.074066	0.706621
O12	O	-2.208897	-0.070972	0.255310
V13	V	-1.600419	-0.080176	0.501662
O14	O	-1.600972	0.002809	0.491179
O15	O	-1.567452	-0.157972	0.499129
O16	O	-1.617888	-0.079401	0.720044
O17	O	-1.550187	-0.076306	0.268734
V18	V	-1.837970	-0.070196	0.473693
O19	O	-1.740285	-0.102069	0.563015
O20	O	-1.923202	-0.048304	0.412340
O21	O	-1.759334	0.007600	0.476226
O22	O	-1.896114	-0.153182	0.484176
O23	O	-1.946900	-0.074066	0.706621
O24	O	-1.708897	-0.070972	0.255310
C25	C	-1.986471	-0.176923	0.491447
C26	C	-2.000438	-0.240525	0.490831
C27	C	-1.968619	-0.512513	0.480223
C28	C	-1.955478	-0.452750	0.480788
O29	O	-1.870222	-0.419353	0.474292
N30	N	-2.041182	-0.425790	0.489109
C31	C	-2.140040	-0.458597	0.496882
O32	O	-2.211732	-0.430178	0.504013
C33	C	-2.153184	-0.518359	0.496328
C34	C	-2.067467	-0.545314	0.487990
C35	C	-1.882910	-0.539469	0.471887
C36	C	-1.896050	-0.599226	0.471318
C37	C	-1.994898	-0.632028	0.479086
C38	C	-2.080607	-0.605072	0.487421
C39	C	-2.252044	-0.551165	0.504112
C40	C	-2.265181	-0.610930	0.503558
C41	C	-2.179464	-0.637886	0.495220
C42	C	-2.192595	-0.697632	0.494620
N43	N	-2.106890	-0.724592	0.486299
C44	C	-2.008042	-0.691790	0.478532
C45	C	-2.112431	-0.333093	0.498047
C46	C	-2.099285	-0.273332	0.498590
C47	C	-1.914724	-0.267490	0.482499
C48	C	-1.927868	-0.327251	0.481945
C49	C	-2.026727	-0.360053	0.489726
C50	C	-2.035643	-0.817286	0.477337
C51	C	-2.048790	-0.877049	0.476762
C52	C	-2.233352	-0.882887	0.492862
C53	C	-2.220204	-0.823128	0.493428
C54	C	-2.121344	-0.790330	0.485670
O55	O	-2.277820	-0.731066	0.501119
O56	O	-1.936372	-0.720218	0.471423
C57	C	-2.050807	-0.076697	0.773244
C58	C	-2.105674	-0.076578	0.951779
C59	C	-2.171984	0.026547	0.483904
C60	C	-2.147639	0.090149	0.484530
C61	C	-2.107647	-0.073678	0.202102
C62	C	-2.042400	-0.073794	0.023566
C63	C	-1.486471	-0.176923	0.491447
C64	C	-1.500438	-0.240525	0.490831
C65	C	-1.550807	-0.076697	0.773244
C66	C	-1.605674	-0.076578	0.951779
C67	C	-1.671984	0.026547	0.483904
C68	C	-1.647639	0.090149	0.484530
C69	C	-1.607647	-0.073678	0.202102
C70	C	-1.542400	-0.073794	0.023566
C71	C	-1.599286	-0.273327	0.498600
C72	C	-1.612431	-0.333090	0.498047
C73	C	-1.526723	-0.360049	0.489712
C74	C	-1.427867	-0.327243	0.481948
C75	C	-1.414727	-0.267482	0.482513
C76	C	-1.721284	0.122951	0.476765
C77	C	-1.698413	0.182713	0.477327
C78	C	-1.601899	0.209672	0.485664
C79	C	-1.528246	0.176866	0.493424
C80	C	-1.551114	0.117106	0.492851
H81	H	-1.978985	-0.898993	0.469973
H82	H	-1.946255	-0.071507	0.948444
N83	N	-2.233040	-0.079612	1.051270
H84	H	-2.271435	-0.115355	1.137250
H85	H	-2.245456	-0.044001	1.105116
N86	N	-1.777874	0.218085	0.468990
H87	H	-1.748751	0.260035	0.470611
H88	H	-1.780289	0.214671	0.365297
N89	N	-2.339982	-0.918218	0.501169
H90	H	-2.345833	-0.903298	0.404671
H91	H	-2.335322	-0.960168	0.499586
N92	N	-1.691743	-0.244257	0.507614
H93	H	-1.658291	-0.213836	0.408127
H94	H	-1.756326	-0.274150	0.512517
N95	N	-1.719054	-0.368466	0.506418
H96	H	-1.771344	-0.342315	0.511765
H97	H	-1.696390	-0.387633	0.406447
H98	H	-1.858073	-0.349195	0.475169
N99	N	-1.540902	-0.424506	0.489102
H100	H	-1.616531	-0.441191	0.495284
H101	H	-1.475648	-0.431950	0.385709
H102	H	-1.358088	-0.349203	0.475163
N103	N	-1.308107	-0.232106	0.474132
H104	H	-1.255812	-0.258257	0.468765
H105	H	-1.266496	-0.201427	0.373925
H106	H	-1.701828	-0.078871	1.026913
N107	N	-1.825386	0.093881	0.467775
H108	H	-1.868557	0.123736	0.462936
H109	H	-1.799829	0.074973	0.367096
H110	H	-1.446255	-0.071507	0.948444
N111	N	-1.577245	0.274128	0.486291
H112	H	-1.638554	0.290812	0.480114
H113	H	-1.577065	0.281567	0.589689
H114	H	-1.449663	0.198826	0.500211
H115	H	-1.955146	-0.790588	0.471026
H116	H	-1.491143	0.090402	0.499188
H117	H	-1.802416	-0.512768	0.465567
N118	N	-1.803594	-0.628290	0.462339
H119	H	-1.793110	-0.622361	0.559011
H120	H	-1.826960	-0.671117	0.463108
N121	N	-1.808105	-0.232110	0.474135
H122	H	-1.766404	-0.201427	0.373927
H123	H	-1.830770	-0.212981	0.574170
H124	H	-2.169077	-0.251388	0.505352
H125	H	-2.321849	-0.529228	0.510908
N126	N	-2.219030	-0.368486	0.506384
H127	H	-2.289241	-0.365130	0.610072
H128	H	-2.224831	-0.353592	0.409825
N129	N	-2.371761	-0.646340	0.511885
H130	H	-2.441991	-0.643001	0.615573
H131	H	-2.377566	-0.631451	0.415324
N132	N	-2.312637	-0.794048	0.502379
H133	H	-2.377247	-0.823898	0.507200
H134	H	-2.343349	-0.775138	0.603055
