data_functionalizedCrystal
_audit_creation_method	'MofGen! by Chris Wilmer'
_symmetry_space_group_name_H-M	'P1'
_symmetry_Int_Tables_number	1
_symmetry_cell_setting	triclinic
loop_
_symmetry_equiv_pos_as_xyz
  x,y,z
_cell_length_a	18.050590
_cell_length_b	18.050588
_cell_length_c	13.032268
_cell_angle_alpha	82.853675
_cell_angle_beta	82.820774
_cell_angle_gamma	90.018727
loop_
_atom_site_label
_atom_site_type_symbol
_atom_site_fract_x
_atom_site_fract_y
_atom_site_fract_z
Zn1	Zn	1.081999	-0.349126	0.590442
Zn2	Zn	1.097677	-0.457563	0.415696
Zn3	Zn	0.973583	-0.333373	0.415759
Zn4	Zn	0.957764	-0.473255	0.590436
O5	O	1.027756	-0.403329	0.503083
O6	O	1.188005	-0.363536	0.567238
O7	O	1.094398	-0.427929	0.269469
O8	O	0.988023	-0.231541	0.438960
O9	O	1.199524	-0.443204	0.438852
O10	O	1.067676	-0.243114	0.567299
O11	O	1.003226	-0.336688	0.269516
O12	O	0.867558	-0.351904	0.438954
O13	O	0.961062	-0.469948	0.736672
O14	O	0.855935	-0.454674	0.567289
O15	O	1.052337	-0.378751	0.736677
O16	O	1.079058	-0.563566	0.438846
O17	O	0.976264	-0.575095	0.567227
C18	C	0.834799	-0.403283	0.503128
C19	C	0.752250	-0.403283	0.503172
C20	C	1.027664	-0.596279	0.503052
C21	C	1.027690	-0.678826	0.503074
C22	C	0.546515	-0.459296	0.572795
C23	C	0.494803	-0.393898	0.598508
C24	C	0.601124	-0.403320	0.503121
C25	C	0.505754	-0.468756	0.477407
C26	C	0.455143	-0.403361	0.503074
C27	C	0.550495	-0.337890	0.528884
C28	C	0.561454	-0.412790	0.407739
C29	C	0.509768	-0.347342	0.433416
C30	C	0.685219	-0.403297	0.503151
C31	C	0.371049	-0.403377	0.503044
C32	C	0.971869	-0.933948	0.572888
C33	C	1.037273	-0.886801	0.598505
C34	C	1.027839	-0.975952	0.503132
C35	C	0.962360	-0.876019	0.477535
C36	C	1.027762	-0.829964	0.503106
C37	C	1.093275	-0.929896	0.528799
C38	C	1.018321	-0.919115	0.407784
C39	C	1.083775	-0.871987	0.433365
C40	C	1.027882	-1.060052	0.503149
C41	C	1.027726	-0.745866	0.503088
C42	C	1.221465	-0.403377	0.503039
C43	C	1.304013	-0.403397	0.503020
C44	C	1.003186	-0.427857	0.775652
C45	C	0.992715	-0.438310	0.891804
C46	C	1.027865	-0.209629	0.503138
C47	C	1.027912	-0.127085	0.503161
C48	C	1.052273	-0.378843	0.231576
C49	C	1.062887	-0.368181	0.115424
C50	C	1.033209	-0.397847	0.943590
C51	C	1.022388	-0.408649	1.063640
H52	H	0.562853	-0.506566	0.631782
H53	H	0.950032	-0.480943	0.936344
H54	H	1.045297	-0.872324	0.679128
H55	H	1.131123	-0.845122	0.374364
H56	H	0.570128	-0.282560	0.550704
O57	O	0.482138	-0.534683	0.451351
C58	C	0.447482	-0.521250	0.359813
H59	H	0.427013	-0.461334	0.350693
H60	H	0.398036	-0.561462	0.365206
H61	H	0.489371	-0.530092	0.289521
H62	H	0.979702	-0.451286	1.108176
H63	H	0.493565	-0.299974	0.374476
H64	H	1.148625	-0.953402	0.550531
O65	O	0.460235	-0.384486	0.694772
C66	C	0.478764	-0.443587	0.768024
H67	H	0.496397	-0.493859	0.726336
H68	H	0.428116	-0.459508	0.828301
H69	H	0.526758	-0.425186	0.808669
O70	O	1.008592	-0.936384	0.311663
C71	C	0.939504	-0.908914	0.284977
H72	H	0.900740	-0.901712	0.358996
H73	H	0.913141	-0.950120	0.240083
H74	H	0.948764	-0.852698	0.234274
O75	O	0.596026	-0.422486	0.311592
C76	C	0.572248	-0.490905	0.283970
H77	H	0.550926	-0.529751	0.357548
H78	H	0.621138	-0.517825	0.239044
H79	H	0.525456	-0.480465	0.232981
H80	H	1.105564	-0.325536	1.070890
H81	H	0.924617	-0.960952	0.631934
H82	H	0.907018	-0.852429	0.455896
H83	H	1.075884	-0.355206	0.899051
