data_functionalizedCrystal
_audit_creation_method	'MofGen! by Chris Wilmer'
_symmetry_space_group_name_H-M	'P1'
_symmetry_Int_Tables_number	1
_symmetry_cell_setting	triclinic
loop_
_symmetry_equiv_pos_as_xyz
  x,y,z
_cell_length_a	10.685901
_cell_length_b	13.032721
_cell_length_c	10.686551
_cell_angle_alpha	86.664748
_cell_angle_beta	90.348291
_cell_angle_gamma	92.306733
loop_
_atom_site_label
_atom_site_type_symbol
_atom_site_fract_x
_atom_site_fract_y
_atom_site_fract_z
Zn1	Zn	1.902383	-0.495731	0.643219
Zn2	Zn	2.402383	0.004269	1.143219
Zn3	Zn	1.860300	-0.679262	0.463580
Zn4	Zn	2.360300	-0.179262	0.963580
Zn5	Zn	1.676781	-0.493806	0.449279
Zn6	Zn	2.176781	0.006194	0.949279
Zn7	Zn	1.670428	-0.653061	0.685109
Zn8	Zn	2.170428	-0.153061	1.185109
O9	O	1.777473	-0.580465	0.560297
O10	O	2.277473	-0.080465	1.060297
O11	O	2.070678	-0.531848	0.607844
O12	O	2.570678	-0.031848	1.107844
O13	O	1.821002	-0.664820	0.287808
O14	O	2.321002	-0.164820	0.787808
O15	O	1.726979	-0.350604	0.451490
O16	O	2.226979	0.149396	0.951490
O17	O	2.039760	-0.666688	0.475864
O18	O	2.539760	-0.166688	0.975864
O19	O	1.892728	-0.352019	0.593977
O20	O	2.392728	0.147981	1.093977
O21	O	1.686172	-0.528566	0.277301
O22	O	2.186172	-0.028566	0.777301
O23	O	1.502061	-0.503160	0.492109
O24	O	2.002061	-0.003160	0.992109
O25	O	1.716150	-0.622031	0.853427
O26	O	2.216150	-0.122031	1.353427
O27	O	1.497393	-0.620164	0.665371
O28	O	1.997393	-0.120164	1.165371
O29	O	1.886567	-0.506442	0.822651
O30	O	2.386567	-0.006442	1.322651
O31	O	1.814842	-0.819243	0.516483
O32	O	2.314842	-0.319243	1.016483
O33	O	1.675344	-0.799993	0.679239
O34	O	2.175344	-0.299993	1.179239
C35	C	1.454642	-0.558610	0.581735
C36	C	1.954642	-0.058610	1.081735
C37	C	1.316533	-0.549284	0.590939
C38	C	1.816533	-0.049284	1.090939
C39	C	1.739873	-0.846816	0.603983
C40	C	2.239873	-0.346816	1.103983
C41	C	1.723904	-0.960767	0.622706
C42	C	2.223904	-0.460767	1.122706
C43	C	1.785878	-1.021061	0.550577
C44	C	2.285878	-0.521061	1.050577
C45	C	1.769375	-1.138836	0.569926
C46	C	2.269375	-0.638836	1.069926
C47	C	2.101564	-0.602406	0.538777
C48	C	2.601564	-0.102406	1.038777
C49	C	2.239673	-0.611755	0.529606
C50	C	2.739673	-0.111755	1.029606
C51	C	1.805344	-0.561529	0.884383
C52	C	2.305344	-0.061529	1.384383
C53	C	1.817222	-0.553459	1.022490
C54	C	2.317222	-0.053459	1.522490
C55	C	1.815256	-0.313075	0.516465
C56	C	2.315256	0.186925	1.016465
C57	C	1.831357	-0.199129	0.497787
C58	C	2.331357	0.300871	0.997787
C59	C	1.749792	-0.599258	0.237454
C60	C	2.249792	-0.099258	0.737454
C61	C	1.738196	-0.607055	0.099285
C62	C	2.238196	-0.107055	0.599285
H63	H	1.279527	-0.672378	0.470063
H64	H	1.779527	-0.172378	0.970063
C65	C	1.920909	-0.483132	1.076398
C66	C	2.420909	0.016868	1.576398
H67	H	1.915559	-0.486747	1.165262
H68	H	2.415559	0.013253	1.665262
H69	H	2.000469	-0.505013	1.052096
H70	H	2.500469	-0.005013	1.552096
H71	H	1.910650	-0.414241	1.045106
H72	H	2.410650	0.085759	1.545106
C73	C	1.635724	-1.008806	0.725486
C74	C	2.135724	-0.508806	1.225486
H75	H	1.598989	-0.955706	0.768237
H76	H	2.098989	-0.455706	1.268237
H77	H	1.571714	-1.049761	0.688333
H78	H	2.071714	-0.549761	1.188333
H79	H	1.682079	-1.050576	0.783319
H80	H	2.182079	-0.550576	1.283319
H81	H	1.661455	-0.659117	1.059378
H82	H	2.161455	-0.159117	1.559378
H83	H	1.276672	-0.488666	0.650498
H84	H	1.776672	0.011334	1.150498
C85	C	1.874062	-0.973017	0.447802
C86	C	2.374062	-0.473017	0.947802
H87	H	1.873579	-0.900162	0.448275
H88	H	2.373579	-0.400162	0.948275
H89	H	1.956677	-0.995033	0.463352
H90	H	2.456677	-0.495033	0.963352
H91	H	1.846315	-0.994207	0.368362
H92	H	2.346315	-0.494207	0.868362
C93	C	1.681190	-1.186871	0.672712
C94	C	2.181190	-0.686871	1.172712
H95	H	1.644455	-1.133770	0.715462
H96	H	2.144455	-0.633770	1.215462
H97	H	1.617180	-1.227826	0.635558
H98	H	2.117180	-0.727826	1.135558
H99	H	1.727545	-1.228640	0.730545
H100	H	2.227545	-0.728640	1.230545
C101	C	1.919516	-1.151091	0.394980
C102	C	2.419516	-0.651091	0.894980
H103	H	1.919026	-1.078236	0.395443
H104	H	2.419026	-0.578236	0.895443
H105	H	2.002140	-1.173099	0.410502
H106	H	2.502140	-0.673099	0.910502
H107	H	1.891742	-1.172293	0.315554
H108	H	2.391742	-0.672293	0.815554
