data_functionalizedCrystal
_audit_creation_method	'MofGen! by Chris Wilmer'
_symmetry_space_group_name_H-M	'P1'
_symmetry_Int_Tables_number	1
_symmetry_cell_setting	triclinic
loop_
_symmetry_equiv_pos_as_xyz
  x,y,z
_cell_length_a	16.109301
_cell_length_b	15.021413
_cell_length_c	16.109301
_cell_angle_alpha	89.997407
_cell_angle_beta	83.461481
_cell_angle_gamma	90.004594
loop_
_atom_site_label
_atom_site_type_symbol
_atom_site_fract_x
_atom_site_fract_y
_atom_site_fract_z
O1	O	1.103137	0.073979	0.106856
O2	O	0.861075	0.073993	0.120155
O3	O	0.988755	0.073976	-0.007525
O4	O	0.975456	0.073995	0.234537
O5	O	0.988735	-0.074088	-0.007507
O6	O	0.861054	-0.074071	0.120174
O7	O	1.103116	-0.074086	0.106874
Zn8	Zn	0.982082	-0.097587	0.113527
Zn9	Zn	0.982109	0.097494	0.113503
O10	O	0.975436	-0.074069	0.234555
C11	C	0.830090	-0.000037	0.119626
C12	C	0.737794	-0.000032	0.118011
N13	N	0.982070	-0.230724	0.113543
C14	C	0.515522	-0.000037	0.190018
C15	C	0.428801	-0.000043	0.188494
C16	C	0.448676	-0.000051	0.037006
C17	C	0.535394	-0.000051	0.038530
C18	C	0.568815	-0.000040	0.115039
C19	C	0.395376	-0.000045	0.111990
C20	C	0.301350	-0.000051	0.110337
C21	C	0.662847	-0.000035	0.116693
C22	C	0.923021	-0.470400	0.172554
C23	C	0.998143	-0.529737	0.188671
C24	C	0.982091	-0.412331	0.113522
C25	C	0.906990	-0.529735	0.097424
C26	C	0.982105	-0.587755	0.113504
C27	C	1.057251	-0.470362	0.129676
C28	C	0.966048	-0.470355	0.038396
C29	C	1.041224	-0.529666	0.054481
C30	C	0.982082	-0.311274	0.113535
C31	C	0.982123	-0.688811	0.113491
C32	C	1.134101	-0.000053	0.107404
C33	C	1.226397	-0.000053	0.109019
C34	C	0.988206	-0.000056	-0.038491
C35	C	0.986591	-0.000057	-0.130786
N36	N	0.982128	0.230632	0.113480
C37	C	1.058599	-0.000048	-0.353059
C38	C	1.057075	-0.000040	-0.439779
C39	C	0.905586	-0.000035	-0.419905
C40	C	0.907111	-0.000036	-0.333186
C41	C	0.983620	-0.000047	-0.299766
C42	C	0.980571	-0.000038	-0.473205
C43	C	0.978918	-0.000030	-0.567231
C44	C	0.985273	-0.000053	-0.205734
C45	C	0.975984	-0.000034	0.265521
C46	C	0.977600	-0.000027	0.357816
H47	H	0.385413	-0.000042	0.249550
O48	O	1.137946	-0.000043	-0.497261
H49	H	1.140862	-0.060386	-0.537248
H50	H	0.846050	-0.000032	-0.289792
O51	O	0.551573	-0.000043	0.272534
H52	H	0.499942	-0.000053	0.324415
O53	O	0.412631	-0.000057	-0.045513
H54	H	0.343376	-0.000047	-0.033979
O55	O	0.592885	-0.000056	-0.042343
H56	H	0.555079	-0.000052	-0.095801
H57	H	0.873118	-0.444378	0.222517
H58	H	1.120897	-0.000055	-0.325851
O59	O	0.823067	-0.000042	-0.455950
H60	H	0.834602	-0.000054	-0.525205
O61	O	1.016110	-0.564344	0.272802
H62	H	0.966979	-0.540633	0.321706
O63	O	1.141407	-0.435974	0.147806
H64	H	1.140730	-0.362087	0.147705
H65	H	1.091238	-0.555525	0.004548
O66	O	0.948037	-0.435769	-0.045723
H67	H	0.890801	-0.394077	-0.037763
O68	O	0.822858	-0.564284	0.079388
H69	H	0.773935	-0.540538	0.128483
