data_functionalizedCrystal
_audit_creation_method	'MofGen! by Chris Wilmer'
_symmetry_space_group_name_H-M	'P1'
_symmetry_Int_Tables_number	1
_symmetry_cell_setting	triclinic
loop_
_symmetry_equiv_pos_as_xyz
  x,y,z
_cell_length_a	14.971482
_cell_length_b	10.723023
_cell_length_c	14.048226
_cell_angle_alpha	89.994597
_cell_angle_beta	89.994098
_cell_angle_gamma	84.040078
loop_
_atom_site_label
_atom_site_type_symbol
_atom_site_fract_x
_atom_site_fract_y
_atom_site_fract_z
O1	O	1.187822	0.162594	-0.079146
O2	O	0.927526	0.182073	-0.079151
O3	O	1.063678	-0.009306	-0.079144
O4	O	1.051669	0.353973	-0.079152
O5	O	1.063662	-0.009317	0.079177
O6	O	0.927509	0.182061	0.079171
O7	O	1.187805	0.162583	0.079175
Zn8	Zn	1.057655	0.172320	0.104310
Zn9	Zn	1.057676	0.172335	-0.104285
O10	O	1.051653	0.353961	0.079169
C11	C	0.894188	0.181197	0.000010
C12	C	0.794877	0.178589	0.000008
C13	C	0.748216	0.177354	0.086310
C14	C	0.654905	0.174884	0.086311
C15	C	0.608254	0.173657	0.000009
C16	C	0.654921	0.174888	-0.086300
C17	C	0.748232	0.177349	-0.086300
C18	C	0.460432	0.169761	-0.086293
C19	C	0.367114	0.167301	-0.086294
C20	C	0.367105	0.167295	0.086317
C21	C	0.460415	0.169757	0.086317
C22	C	0.507076	0.170990	0.000008
C23	C	1.062796	-0.055802	0.000015
C24	C	1.060182	-0.194329	0.000012
C25	C	1.059025	-0.256076	-0.082004
C26	C	1.056323	-0.399251	-0.082009
C27	C	1.221143	0.163459	0.000013
C28	C	1.320454	0.166067	0.000008
C29	C	1.052535	0.400458	0.000007
C30	C	1.055149	0.538984	0.000004
N31	N	1.057646	0.172310	0.246671
N32	N	1.057692	0.172336	-0.246646
C33	C	1.117954	0.087602	0.296491
C34	C	1.117960	0.087602	0.396149
C35	C	1.057662	0.172315	0.445984
C36	C	0.997348	0.257026	0.396156
C37	C	0.997338	0.257020	0.296500
C38	C	0.997374	0.257036	0.603871
C39	C	0.997384	0.257044	0.703533
C40	C	1.117995	0.087617	0.703519
C41	C	1.117986	0.087611	0.603863
C42	C	1.057672	0.172324	0.554042
H43	H	0.498420	0.170765	-0.156575
C44	C	1.056493	-0.389304	0.094872
H45	H	1.055412	-0.446629	0.146325
H46	H	1.005384	-0.329082	0.098411
H47	H	1.109529	-0.347968	0.098412
H48	H	1.059166	-0.247460	0.070226
H49	H	1.167104	0.018641	0.744089
C50	C	0.603611	0.173558	-0.181232
H51	H	0.644767	0.174641	-0.232631
H52	H	0.560837	0.245316	-0.184814
H53	H	0.573584	0.099885	-0.184827
H54	H	1.167059	0.018624	0.255922
H55	H	1.167066	0.018626	0.436713
C56	C	1.184311	-0.005573	0.549046
H57	H	1.220227	-0.056032	0.592989
H58	H	1.221810	0.039399	0.510154
H59	H	1.151806	-0.057595	0.510187
C60	C	1.054993	-0.470973	-0.176873
H61	H	1.056089	-0.413651	-0.228326
H62	H	1.001971	-0.512326	-0.180424
H63	H	1.106116	-0.531183	-0.180403
H64	H	0.948282	0.326025	0.744104
H65	H	0.948257	0.326014	0.563310
H66	H	0.786222	0.178357	-0.156576
C67	C	0.930993	0.350175	0.450968
H68	H	0.895061	0.400604	0.407020
H69	H	0.963460	0.402212	0.489845
H70	H	0.893499	0.305158	0.489841
C71	C	0.931004	0.350198	0.241693
H72	H	0.939627	0.338054	0.175205
H73	H	0.941223	0.433504	0.258011
H74	H	0.871227	0.336499	0.258042
C75	C	0.799526	0.178681	0.181244
H76	H	0.758371	0.177574	0.232641
H77	H	0.829555	0.252345	0.184844
H78	H	0.842299	0.106913	0.184821
C79	C	0.603581	0.173536	0.181243
H80	H	0.644727	0.174637	0.232641
H81	H	0.573559	0.099865	0.184841
H82	H	0.560802	0.245297	0.184823
H83	H	0.498395	0.170763	0.156592
H84	H	1.060031	-0.202944	-0.152218
H85	H	0.329109	0.166292	0.156593
H86	H	0.329134	0.166303	-0.156568
