data_functionalizedCrystal
_audit_creation_method	'MofGen! by Chris Wilmer'
_symmetry_space_group_name_H-M	'P1'
_symmetry_Int_Tables_number	1
_symmetry_cell_setting	triclinic
loop_
_symmetry_equiv_pos_as_xyz
  x,y,z
_cell_length_a	13.897448
_cell_length_b	21.395362
_cell_length_c	21.395356
_cell_angle_alpha	89.957023
_cell_angle_beta	89.975201
_cell_angle_gamma	90.033571
loop_
_atom_site_label
_atom_site_type_symbol
_atom_site_fract_x
_atom_site_fract_y
_atom_site_fract_z
Zn1	Zn	-0.383630	0.957910	-0.354598
Zn2	Zn	0.116370	1.457910	0.145402
Zn3	Zn	-0.544936	0.957838	-0.249826
Zn4	Zn	-0.044936	1.457838	0.250174
Zn5	Zn	-0.383701	0.853127	-0.249799
Zn6	Zn	0.116299	1.353127	0.250201
Zn7	Zn	-0.544930	0.853118	-0.354531
Zn8	Zn	-0.044930	1.353118	0.145469
O9	O	-0.464299	0.905498	-0.302189
O10	O	0.035701	1.405498	0.197811
O11	O	-0.405001	1.045579	-0.340739
O12	O	0.094999	1.545579	0.159261
O13	O	-0.523580	0.943922	-0.162145
O14	O	-0.023580	1.443922	0.337855
O15	O	-0.248710	0.867060	-0.263718
O16	O	0.251290	1.367060	0.236282
O17	O	-0.523511	1.045526	-0.263764
O18	O	-0.023511	1.545526	0.236236
O19	O	-0.248658	0.944044	-0.340714
O20	O	0.251342	1.444044	0.159286
O21	O	-0.405121	0.866991	-0.162125
O22	O	0.094879	1.366991	0.337875
O23	O	-0.405116	0.765448	-0.263653
O24	O	0.094884	1.265448	0.236347
O25	O	-0.523501	0.867045	-0.442218
O26	O	-0.023501	1.367045	0.057782
O27	O	-0.523570	0.765441	-0.340599
O28	O	-0.023570	1.265441	0.159401
O29	O	-0.404995	0.944036	-0.442267
O30	O	0.095005	1.444036	0.057733
O31	O	-0.679917	0.943913	-0.263698
O32	O	-0.179917	1.443913	0.236302
O33	O	-0.679912	0.866976	-0.340624
O34	O	-0.179912	1.366976	0.159376
C35	C	-0.464350	0.742711	-0.302116
C36	C	0.035650	1.242711	0.197884
C37	C	-0.464395	0.673069	-0.302100
C38	C	0.035605	1.173069	0.197900
C39	C	-0.526156	0.640369	-0.342105
C40	C	-0.026156	1.140369	0.157895
C41	C	-0.526133	0.574934	-0.342133
C42	C	-0.026133	1.074934	0.157867
C43	C	-0.464358	0.542201	-0.302144
C44	C	0.035642	1.042201	0.197856
C45	C	-0.402585	0.574909	-0.262136
C46	C	0.097415	1.074909	0.237864
C47	C	-0.402604	0.640343	-0.262114
C48	C	0.097396	1.140343	0.237886
C49	C	-0.456601	0.438476	-0.245739
C50	C	0.043399	0.938476	0.254261
C51	C	-0.456590	0.373043	-0.245760
C52	C	0.043410	0.873043	0.254240
C53	C	-0.464295	0.340380	-0.302214
C54	C	0.035705	0.840380	0.197786
C55	C	-0.472033	0.373159	-0.358647
C56	C	0.027967	0.873159	0.141353
C57	C	-0.472052	0.438593	-0.358625
C58	C	0.027948	0.938593	0.141375
C59	C	-0.464331	0.471249	-0.302164
C60	C	0.035669	0.971249	0.197836
C61	C	-0.526034	0.236728	-0.342253
C62	C	-0.026034	0.736728	0.157747
C63	C	-0.526003	0.171291	-0.342282
C64	C	-0.026003	0.671291	0.157718
C65	C	-0.402461	0.171268	-0.262279
C66	C	0.097539	0.671268	0.237721
C67	C	-0.402487	0.236703	-0.262255
C68	C	0.097513	0.736703	0.237745
C69	C	-0.464278	0.269429	-0.302242
C70	C	0.035722	0.769429	0.197758
C71	C	-0.714914	0.905453	-0.302170
C72	C	-0.214914	1.405453	0.197830
C73	C	-0.822128	0.905490	-0.302184
C74	C	-0.322128	1.405490	0.197816
C75	C	-1.018423	0.905556	-0.302223
C76	C	-0.518423	1.405556	0.197777
C77	C	-0.909190	0.905518	-0.302203
C78	C	-0.409190	1.405518	0.197797
C79	C	-0.212706	0.905561	-0.302221
C80	C	0.287294	1.405561	0.197779
C81	C	-0.105492	0.905588	-0.302234
C82	C	0.394508	1.405588	0.197766
C83	C	-0.464240	0.905548	-0.465612
C84	C	0.035760	1.405548	0.034388
C85	C	-0.464214	0.905569	-0.535253
C86	C	0.035786	1.405569	-0.035253
C87	C	-0.464249	1.068922	-0.302262
C88	C	0.035751	1.568922	0.197738
C89	C	-0.464227	1.138563	-0.302293
C90	C	0.035773	1.638563	0.197707
C91	C	-0.402526	0.865521	-0.567946
C92	C	0.097474	1.365521	-0.067946
C93	C	-0.402508	0.865519	-0.633382
C94	C	0.097492	1.365519	-0.133382
C95	C	-0.464168	0.905576	-0.666122
C96	C	0.035832	1.405576	-0.166122
C97	C	-0.525868	0.945626	-0.633421
C98	C	-0.025868	1.445626	-0.133421
C99	C	-0.525891	0.945622	-0.567986
C100	C	-0.025891	1.445622	-0.067986
C101	C	-0.471728	0.962029	-0.769827
C102	C	0.028272	1.462029	-0.269827
C103	C	-0.471698	0.962033	-0.835260
C104	C	0.028302	1.462033	-0.335260
C105	C	-0.464103	0.905586	-0.867942
C106	C	0.035897	1.405586	-0.367942
C107	C	-0.456518	0.849132	-0.835184
C108	C	0.043482	1.349132	-0.335184
C109	C	-0.456540	0.849129	-0.769749
C110	C	0.043460	1.349129	-0.269749
C111	C	-0.464151	0.905583	-0.737074
C112	C	0.035849	1.405583	-0.237074
C113	C	-0.402392	0.865533	-0.971588
C114	C	0.097608	1.365533	-0.471588
C115	C	-0.402381	0.865530	-1.037025
C116	C	0.097619	1.365530	-0.537025
C117	C	-0.525736	0.945642	-1.037062
C118	C	-0.025736	1.445642	-0.537062
C119	C	-0.525753	0.945639	-0.971627
C120	C	-0.025753	1.445639	-0.471627
C121	C	-0.464075	0.905586	-0.938894
C122	C	0.035925	1.405586	-0.438894
C123	C	-0.464289	0.905485	-0.139401
C124	C	0.035711	1.405485	0.360599
C125	C	-0.464043	0.905586	-0.069760
C126	C	0.035957	1.405586	0.430240
H127	H	-0.576343	0.263375	-0.374815
H128	H	-0.076343	0.763375	0.125185
Cl129	Cl	-0.324956	0.681454	-0.211816
Cl130	Cl	0.175044	1.181454	0.288184
H131	H	-0.352307	0.832904	-0.541299
H132	H	0.147693	1.332904	-0.041299
H133	H	-0.450366	0.803162	-0.743080
H134	H	0.049634	1.303162	-0.243080
H135	H	-0.450295	0.346360	-0.199808
H136	H	0.049705	0.846360	0.300192
H137	H	-0.576295	0.144668	-0.374863
H138	H	-0.076295	0.644668	0.125137
Cl139	Cl	-0.324850	0.815162	-1.078125
Cl140	Cl	0.175150	1.315162	-0.578125
H141	H	-0.352159	0.144617	-0.229722
H142	H	0.147841	0.644617	0.270278
H143	H	-0.352171	0.832919	-0.944935
H144	H	0.147829	1.332919	-0.444935
H145	H	-0.352199	0.263328	-0.229675
H146	H	0.147801	0.763328	0.270325
Cl147	Cl	-0.446917	0.479531	-0.174761
Cl148	Cl	0.053083	0.979531	0.325239
H149	H	-0.575939	0.978258	-1.063719
H150	H	-0.075939	1.478258	-0.563719
H151	H	-0.575984	0.978252	-0.945008
H152	H	-0.075984	1.478252	-0.445008
Cl153	Cl	-0.481283	1.032998	-0.728748
Cl154	Cl	0.018717	1.532998	-0.228748
Cl155	Cl	-0.481245	1.033002	-0.876436
Cl156	Cl	0.018755	1.533002	-0.376436
Cl157	Cl	-0.324922	0.533760	-0.211867
Cl158	Cl	0.175078	1.033760	0.288133
H159	H	-0.352269	0.832909	-0.660006
H160	H	0.147731	1.332909	-0.160006
Cl161	Cl	-0.603389	0.995979	-0.674578
Cl162	Cl	-0.103389	1.495979	-0.174578
H163	H	-0.576124	0.978236	-0.541368
H164	H	-0.076124	1.478236	-0.041368
H165	H	-0.450326	0.803168	-0.861792
H166	H	0.049674	1.303168	-0.361792
H167	H	-0.576470	0.667011	-0.374666
H168	H	-0.076470	1.167011	0.125334
H169	H	-0.576425	0.548304	-0.374713
H170	H	-0.076425	1.048304	0.125287
Cl171	Cl	-0.481715	0.332104	-0.429623
Cl172	Cl	0.018285	0.832104	0.070377
Cl173	Cl	-0.481772	0.479798	-0.429567
Cl174	Cl	0.018228	0.979798	0.070433
