data_functionalizedCrystal
_audit_creation_method	'MofGen! by Chris Wilmer'
_symmetry_space_group_name_H-M	'P1'
_symmetry_Int_Tables_number	1
_symmetry_cell_setting	triclinic
loop_
_symmetry_equiv_pos_as_xyz
  x,y,z
_cell_length_a	17.699083
_cell_length_b	10.489741
_cell_length_c	16.776229
_cell_angle_alpha	89.993659
_cell_angle_beta	89.998886
_cell_angle_gamma	83.911094
loop_
_atom_site_label
_atom_site_type_symbol
_atom_site_fract_x
_atom_site_fract_y
_atom_site_fract_z
O1	O	1.005134	0.161296	-0.066176
O2	O	1.505134	0.661296	0.433824
O3	O	0.784893	0.182281	-0.066202
O4	O	1.284893	0.682281	0.433798
O5	O	0.900025	-0.013903	-0.066184
O6	O	1.400025	0.486097	0.433816
O7	O	0.890002	0.357479	-0.066194
O8	O	1.390002	0.857479	0.433806
O9	O	0.900009	-0.013915	0.066393
O10	O	1.400009	0.486085	0.566393
O11	O	0.784877	0.182269	0.066375
O12	O	1.284877	0.682269	0.566375
O13	O	1.005118	0.161284	0.066401
O14	O	1.505118	0.661284	0.566401
Zn15	Zn	0.894995	0.171774	0.087437
Zn16	Zn	1.394995	0.671774	0.587437
Zn17	Zn	0.895016	0.171790	-0.087238
Zn18	Zn	1.395016	0.671790	0.412762
O19	O	0.889986	0.357467	0.066382
O20	O	1.389986	0.857467	0.566382
C21	C	0.756683	0.181523	0.000083
C22	C	1.256683	0.681523	0.500083
C23	C	0.672650	0.179267	0.000073
C24	C	1.172650	0.679267	0.500073
C25	C	0.624782	0.294422	0.000070
C26	C	1.124782	0.794422	0.500070
C27	C	0.545825	0.292295	0.000080
C28	C	1.045825	0.792295	0.500080
C29	C	0.514737	0.175011	0.000088
C30	C	1.014737	0.675011	0.500088
C31	C	0.562611	0.059847	0.000094
C32	C	1.062611	0.559847	0.500094
C33	C	0.641567	0.061975	0.000089
C34	C	1.141567	0.561975	0.500089
C35	C	0.244192	0.051260	0.000114
C36	C	0.744192	0.551260	0.500114
C37	C	0.165230	0.049140	0.000116
C38	C	0.665230	0.549140	0.500116
C39	C	0.148450	0.281580	0.000105
C40	C	0.648450	0.781580	0.500105
C41	C	0.227406	0.283709	0.000100
C42	C	0.727406	0.783709	0.500100
C43	C	0.275273	0.168545	0.000110
C44	C	0.775273	0.668545	0.500110
C45	C	0.360887	0.170853	0.000100
C46	C	0.860887	0.670853	0.500100
C47	C	0.429124	0.172702	0.000092
C48	C	0.929124	0.672702	0.500092
C49	C	0.899260	-0.061427	0.000104
C50	C	1.399260	0.438573	0.500104
C51	C	0.896995	-0.203014	0.000102
C52	C	1.396995	0.296986	0.500102
C53	C	0.823740	-0.269793	0.000088
C54	C	1.323740	0.230207	0.500088
C55	C	0.858337	-0.362564	0.065459
C56	C	1.358337	0.137436	0.565459
C57	C	0.858370	-0.362527	-0.065251
C58	C	1.358370	0.137473	0.434749
C59	C	0.931623	-0.293920	0.065528
C60	C	1.431623	0.206080	0.565528
C61	C	0.931645	-0.293874	-0.065241
C62	C	1.431645	0.206126	0.434759
C63	C	0.966296	-0.386619	0.000146
C64	C	1.466296	0.113381	0.500146
C65	C	1.033328	0.162042	0.000114
C66	C	1.533328	0.662042	0.500114
C67	C	1.117361	0.164297	0.000119
C68	C	1.617361	0.664297	0.500119
C69	C	0.890751	0.404991	0.000093
C70	C	1.390751	0.904991	0.500093
C71	C	0.893016	0.546578	0.000089
C72	C	1.393016	1.046578	0.500089
N73	N	0.894987	0.171763	0.206648
N74	N	1.394987	0.671763	0.706648
N75	N	0.895030	0.171791	-0.206450
N76	N	1.395030	0.671791	0.293550
C77	C	0.945983	0.084928	0.248373
C78	C	1.445983	0.584928	0.748373
C79	C	0.945987	0.084927	0.331826
C80	C	1.445987	0.584927	0.831826
C81	C	0.894998	0.171767	0.373551
C82	C	1.394998	0.671767	0.873551
C83	C	0.843996	0.258606	0.331820
C84	C	1.343996	0.758606	0.831820
C85	C	0.843989	0.258600	0.248369
C86	C	1.343989	0.758600	0.748369
C87	C	0.844024	0.258631	0.668367
C88	C	1.344024	0.758631	1.168367
C89	C	0.844037	0.258633	0.751824
C90	C	1.344037	0.758633	1.251824
C91	C	0.946022	0.084958	0.751823
C92	C	1.446022	0.584958	1.251823
C93	C	0.946015	0.084952	0.668373
C94	C	1.446015	0.584952	1.168373
C95	C	0.895011	0.171786	0.626649
C96	C	1.395011	0.671786	1.126649
C97	C	0.895006	0.171784	0.536161
C98	C	1.395006	0.671784	1.036161
C99	C	0.895006	0.171776	0.464038
C100	C	1.395006	0.671776	0.964038
H101	H	0.283156	-0.042514	0.000122
H102	H	0.783156	0.457486	0.500122
N103	N	0.789010	0.352288	0.623381
N104	N	1.289010	0.852288	1.123381
H105	H	0.798218	0.442796	0.637895
H106	H	1.298218	0.942796	1.137895
H107	H	0.796757	0.339006	0.564197
H108	H	1.296757	0.839006	1.064197
H109	H	0.537293	-0.035648	0.000111
H110	H	1.037293	0.464352	0.500111
N111	N	0.788982	0.352250	0.203361
N112	N	1.288982	0.852250	0.703361
H113	H	0.756682	0.407265	0.242456
H114	H	1.256682	0.907265	0.742456
H115	H	0.818255	0.408576	0.168725
H116	H	1.318255	0.908576	0.668725
H117	H	0.680540	-0.031796	0.000091
H118	H	1.180540	0.468204	0.500091
N119	N	0.743961	-0.202540	0.000155
N120	N	1.243961	0.297460	0.500155
H121	H	0.716384	-0.227327	0.049577
H122	H	1.216384	0.272673	0.549577
H123	H	0.746116	-0.106717	-0.000380
H124	H	1.246116	0.393283	0.499620
N125	N	0.817282	-0.402879	0.138664
N126	N	1.317282	0.097121	0.638664
H127	H	0.763435	-0.359941	0.138613
H128	H	1.263435	0.140059	0.638613
H129	H	0.816541	-0.499017	0.138349
H130	H	1.316541	0.000983	0.638349
N131	N	0.494164	0.416464	0.000089
N132	N	0.994164	0.916464	0.500089
H133	H	0.461045	0.420707	0.049245
H134	H	0.961045	0.920707	0.549245
H135	H	0.525859	0.491054	0.000055
H136	H	1.025859	0.991054	0.500055
N137	N	0.972673	-0.253486	-0.138440
N138	N	1.472673	0.246514	0.361560
H139	H	1.018709	-0.210786	-0.121781
H140	H	1.518709	0.289214	0.378219
H141	H	0.989291	-0.331439	-0.171937
H142	H	1.489291	0.168561	0.328063
H143	H	0.802476	0.329309	0.365798
H144	H	1.302476	0.829309	0.865798
H145	H	0.827371	-0.392910	-0.120523
H146	H	1.327371	0.107090	0.379477
H147	H	0.139922	-0.046372	0.000123
H148	H	0.639922	0.453628	0.500123
N149	N	1.000984	-0.008729	0.203372
N150	N	1.500984	0.491271	0.703372
H151	H	1.033289	-0.063739	0.242471
H152	H	1.533289	0.436261	0.742471
H153	H	0.971703	-0.065059	0.168756
H154	H	1.471703	0.434941	0.668756
H155	H	0.962585	-0.263669	0.120856
H156	H	1.462585	0.236331	0.620856
N157	N	0.260937	0.410206	0.000081
N158	N	0.760937	0.910206	0.500081
H159	H	0.218631	0.482837	0.000080
H160	H	0.718631	0.982837	0.500080
H161	H	0.293334	0.416152	0.049225
H162	H	0.793334	0.916152	0.549225
N163	N	1.046146	-0.453578	0.000195
N164	N	1.546146	0.046422	0.500195
H165	H	1.073701	-0.428656	0.049594
H166	H	1.573701	0.071344	0.549594
H167	H	1.044120	-0.549432	-0.000305
H168	H	1.544120	-0.049432	0.499695
N169	N	0.658302	0.420930	0.000062
N170	N	1.158302	0.920930	0.500062
H171	H	0.690690	0.426992	0.049206
H172	H	1.190690	0.926992	0.549206
H173	H	0.690645	0.426927	-0.049119
H174	H	1.190645	0.926927	0.450881
N175	N	1.001007	-0.008707	0.623363
N176	N	1.501007	0.491293	1.123363
H177	H	1.054803	0.005864	0.637875
H178	H	1.554803	0.505864	1.137875
H179	H	0.991734	-0.099173	0.637912
H180	H	1.491734	0.400827	1.137912
N181	N	1.001016	-0.008686	0.376830
N182	N	1.501016	0.491314	0.876830
H183	H	1.033329	-0.063679	0.337734
H184	H	1.533329	0.436321	0.837734
H185	H	1.034727	0.040130	0.411430
H186	H	1.534727	0.540130	0.911430
N187	N	1.001035	-0.008704	0.796825
N188	N	1.501035	0.491296	1.296825
H189	H	0.993304	0.004469	0.856022
H190	H	1.493304	0.504469	1.356022
H191	H	0.991805	-0.099172	0.782246
H192	H	1.491805	0.400828	1.282246
N193	N	0.789033	0.352288	0.796833
N194	N	1.289033	0.852288	1.296833
H195	H	0.798227	0.442801	0.782301
H196	H	1.298227	0.942801	1.282301
H197	H	0.735264	0.337583	0.782303
H198	H	1.235264	0.837583	1.282303
H199	H	0.109467	0.375352	0.000101
H200	H	0.609467	0.875352	0.500101
