data_functionalizedCrystal
_audit_creation_method	'MofGen! by Chris Wilmer'
_symmetry_space_group_name_H-M	'P1'
_symmetry_Int_Tables_number	1
_symmetry_cell_setting	triclinic
loop_
_symmetry_equiv_pos_as_xyz
  x,y,z
_cell_length_a	15.995343
_cell_length_b	15.995292
_cell_length_c	9.730223
_cell_angle_alpha	89.998793
_cell_angle_beta	90.001030
_cell_angle_gamma	83.478900
loop_
_atom_site_label
_atom_site_type_symbol
_atom_site_fract_x
_atom_site_fract_y
_atom_site_fract_z
O1	O	1.110966	0.107898	-0.114142
O2	O	0.867187	0.121233	-0.114174
O3	O	0.995765	-0.007326	-0.114159
O4	O	0.982387	0.236457	-0.114157
O5	O	0.995757	-0.007329	0.114421
O6	O	0.867178	0.121229	0.114406
O7	O	1.110957	0.107895	0.114438
Zn8	Zn	0.989067	0.114561	0.150714
Zn9	Zn	0.989077	0.114566	-0.150450
O10	O	0.982379	0.236453	0.114423
C11	C	0.835988	0.120681	0.000112
C12	C	0.743037	0.119032	0.000099
C13	C	0.572852	0.116038	0.000118
C14	C	0.549525	0.023238	0.000116
C15	C	0.452848	0.021493	0.000643
C16	C	0.405292	0.113089	0.000134
C17	C	0.434370	0.159749	0.130405
C18	C	0.531162	0.160849	0.130507
C19	C	0.531081	0.162212	-0.129440
C20	C	0.434587	0.158786	-0.131145
C21	C	0.310595	0.111428	0.000148
C22	C	0.667549	0.117702	0.000113
C23	C	0.995217	-0.038523	0.000127
C24	C	0.993584	-0.131476	0.000117
C25	C	0.987583	-0.469214	0.000128
C26	C	1.080388	-0.445904	0.000651
C27	C	1.082152	-0.349229	0.000131
C28	C	0.990561	-0.301658	0.000123
C29	C	0.944168	-0.330756	-0.130409
C30	C	0.943051	-0.427547	-0.130513
C31	C	0.941146	-0.427408	0.129425
C32	C	0.944585	-0.330915	0.131145
C33	C	0.992239	-0.206962	0.000116
C34	C	0.985902	-0.563910	0.000127
C35	C	1.142156	0.108447	0.000149
C36	C	1.235107	0.110096	0.000153
C37	C	0.982927	0.267650	0.000134
C38	C	0.984560	0.360603	0.000135
N39	N	0.989065	0.114558	0.356250
N40	N	0.989085	0.114563	-0.355986
C41	C	1.046019	0.057656	0.428183
C42	C	1.046028	0.057656	0.572066
C43	C	0.932126	0.171468	0.572071
C44	C	0.932114	0.171463	0.428191
H45	H	0.545721	0.228901	0.136078
C46	C	0.869461	0.234059	0.349052
C47	C	0.806852	0.296689	0.428175
C48	C	0.744201	0.359280	0.349035
C49	C	0.744159	0.359240	0.190772
C50	C	0.806770	0.296608	0.111641
C51	C	0.869422	0.234017	0.190781
H52	H	0.806881	0.296721	0.545338
H53	H	0.697852	0.405644	0.407614
H54	H	0.697780	0.405573	0.132188
H55	H	0.806741	0.296576	-0.005523
H56	H	0.915771	0.187653	0.132201
H57	H	0.416040	0.124807	-0.227521
H58	H	0.975187	-0.454362	-0.228083
C59	C	0.990211	-0.305833	0.261609
C60	C	1.068846	-0.259007	0.249291
C61	C	1.114474	-0.233919	0.379752
C62	C	1.081467	-0.255657	0.522530
C63	C	1.002828	-0.302487	0.534853
C64	C	0.957200	-0.327575	0.404392
H65	H	1.093283	-0.242912	0.143594
H66	H	1.172688	-0.199253	0.370629
H67	H	1.115243	-0.237086	0.619104
H68	H	0.978391	-0.318581	0.640551
H69	H	0.898987	-0.362241	0.413515
H70	H	0.414281	0.127732	0.227721
C71	C	0.391327	0.250817	0.136474
C72	C	0.404224	0.312555	0.018961
C73	C	0.361179	0.403623	0.025026
C74	C	0.305237	0.432953	0.148604
C75	C	0.292337	0.371215	0.266127
C76	C	0.335382	0.280147	0.260061
H77	H	0.445638	0.290843	-0.072528
H78	H	0.370729	0.449325	-0.061973
H79	H	0.273372	0.500367	0.153094
H80	H	0.250923	0.392926	0.357615
H81	H	0.325832	0.234444	0.347060
C82	C	1.131522	-0.324354	-0.126496
C83	C	1.169461	-0.392500	-0.227463
C84	C	1.218828	-0.367626	-0.354102
C85	C	1.230258	-0.274606	-0.379773
C86	C	1.192318	-0.206454	-0.278802
C87	C	1.142951	-0.231328	-0.152164
H88	H	1.161001	-0.461365	-0.208463
H89	H	1.246913	-0.418077	-0.428847
H90	H	1.266802	-0.256192	-0.473518
H91	H	1.200778	-0.137589	-0.297803
H92	H	1.114865	-0.180877	-0.077419
C93	C	1.108658	-0.004944	0.349048
C94	C	1.171302	-0.067538	0.428180
C95	C	1.233940	-0.130142	0.349050
C96	C	1.233935	-0.130152	0.190787
C97	C	1.171289	-0.067556	0.111646
C98	C	1.108650	-0.004952	0.190776
H99	H	1.171308	-0.067533	0.545343
H100	H	1.280315	-0.176480	0.407636
H101	H	1.280304	-0.176495	0.132210
H102	H	1.171282	-0.067561	-0.005518
H103	H	1.062275	0.041387	0.132189
C104	C	0.569276	0.122660	-0.262881
C105	C	0.537853	0.157835	-0.403289
C106	C	0.576050	0.118272	-0.536720
C107	C	0.645669	0.043534	-0.529743
C108	C	0.677095	0.008355	-0.389330
C109	C	0.638899	0.047918	-0.255899
H110	H	0.486314	0.213164	-0.408458
H111	H	0.552785	0.144314	-0.640663
H112	H	0.673944	0.014248	-0.628517
H113	H	0.728634	-0.046974	-0.384161
H114	H	0.662163	0.021876	-0.151956
C115	C	0.390071	0.249087	-0.142301
C116	C	0.326056	0.283066	-0.031905
C117	C	0.281541	0.373372	-0.043048
C118	C	0.301041	0.429698	-0.164588
C119	C	0.365060	0.395720	-0.274993
C120	C	0.409575	0.305415	-0.263850
H121	H	0.311618	0.241369	0.058074
H122	H	0.234150	0.398524	0.038682
H123	H	0.268088	0.496548	-0.172837
H124	H	0.379498	0.437417	-0.364972
H125	H	0.456966	0.280262	-0.345579
C126	C	0.851131	-0.447209	-0.138546
C127	C	0.778977	-0.374867	-0.144851
C128	C	0.687061	-0.394525	-0.152896
C129	C	0.667298	-0.486525	-0.154635
C130	C	0.739454	-0.558873	-0.148329
C131	C	0.831371	-0.539215	-0.140285
H132	H	0.793605	-0.306757	-0.143564
H133	H	0.633646	-0.340967	-0.157564
H134	H	0.599256	-0.501077	-0.160590
H135	H	0.724826	-0.626983	-0.149616
H136	H	0.884785	-0.592772	-0.135617
H137	H	0.545080	0.230518	-0.130696
H138	H	0.433839	-0.015032	-0.092722
H139	H	0.577544	-0.012730	-0.093288
C140	C	0.588684	-0.024568	0.126129
C141	C	0.565135	0.007141	0.272037
C142	C	0.604296	-0.040662	0.398052
C143	C	0.667006	-0.120175	0.378158
C144	C	0.690557	-0.151888	0.232244
C145	C	0.651396	-0.104085	0.106229
H146	H	0.518711	0.066005	0.286770
H147	H	0.586861	-0.017185	0.506067
H148	H	0.695995	-0.155561	0.471441
H149	H	0.736982	-0.210752	0.217512
H150	H	0.668831	-0.127562	-0.001786
H151	H	0.434415	-0.014864	0.094573
H152	H	0.876769	-0.298886	-0.135267
C153	C	0.980325	-0.465609	0.263130
C154	C	1.018598	-0.409013	0.368501
C155	C	1.057745	-0.447231	0.502218
C156	C	1.058619	-0.542043	0.530563
C157	C	1.020344	-0.598645	0.425189
C158	C	0.981197	-0.560427	0.291472
H159	H	1.017953	-0.338822	0.347521
H160	H	1.086079	-0.405330	0.580223
H161	H	1.087597	-0.570334	0.629548
H162	H	1.020989	-0.668836	0.446169
H163	H	0.952864	-0.602328	0.213468
C164	C	0.854267	-0.286381	0.141784
C165	C	0.778995	-0.338460	0.142203
C166	C	0.688673	-0.293927	0.152825
C167	C	0.673623	-0.197315	0.163027
C168	C	0.748897	-0.145231	0.162607
C169	C	0.839220	-0.189764	0.151986
H170	H	0.790134	-0.409984	0.134651
H171	H	0.632949	-0.332485	0.153135
H172	H	0.606761	-0.164349	0.170889
H173	H	0.737759	-0.073707	0.170159
H174	H	0.894943	-0.151206	0.151675
H175	H	0.976391	-0.310695	-0.227544
H176	H	1.092403	0.011321	0.630629
H177	H	1.118486	-0.330206	0.093700
H178	H	0.557951	0.128911	0.228256
H179	H	1.116156	-0.473904	0.094262
H180	H	1.115964	-0.474922	-0.092425
H181	H	0.885758	0.217799	0.630659
H182	H	0.872835	-0.441396	0.130298
