data_functionalizedCrystal
_audit_creation_method	'MofGen! by Chris Wilmer'
_symmetry_space_group_name_H-M	'P1'
_symmetry_Int_Tables_number	1
_symmetry_cell_setting	triclinic
loop_
_symmetry_equiv_pos_as_xyz
  x,y,z
_cell_length_a	8.597213
_cell_length_b	8.559649
_cell_length_c	14.586319
_cell_angle_alpha	89.997419
_cell_angle_beta	82.294001
_cell_angle_gamma	77.624681
loop_
_atom_site_label
_atom_site_type_symbol
_atom_site_fract_x
_atom_site_fract_y
_atom_site_fract_z
O1	O	2.053780	0.238041	-0.238461
O2	O	2.553780	0.738041	0.261539
O3	O	1.594637	0.256302	-0.202196
O4	O	2.094637	0.756302	0.297804
O5	O	1.864659	0.015202	-0.223523
O6	O	2.364659	0.515202	0.276477
O7	O	1.783758	0.479142	-0.217134
O8	O	2.283758	0.979142	0.282866
O9	O	1.864640	0.015196	-0.071040
O10	O	2.364640	0.515196	0.428960
O11	O	1.594618	0.256297	-0.049713
O12	O	2.094618	0.756297	0.450287
O13	O	2.053760	0.238036	-0.085979
O14	O	2.553760	0.738036	0.414021
Cu15	Cu	1.824187	0.247166	-0.053923
Cu16	Cu	2.324187	0.747166	0.446077
Cu17	Cu	1.824210	0.247172	-0.234251
Cu18	Cu	2.324210	0.747172	0.265749
O19	O	1.783738	0.479136	-0.064652
O20	O	2.283738	0.979136	0.435348
C21	C	1.536391	0.254338	-0.121355
C22	C	2.036391	0.754338	0.378645
C23	C	1.362868	0.248475	-0.107649
C24	C	1.862868	0.748475	0.392351
C25	C	1.870780	-0.044235	-0.147767
C26	C	2.370780	0.455765	0.352233
C27	C	1.889030	-0.221330	-0.149214
C28	C	2.389030	0.278670	0.350786
C29	C	2.112006	0.240000	-0.166822
C30	C	2.612006	0.740000	0.333178
C31	C	2.285529	0.245863	-0.180534
C32	C	2.785529	0.745863	0.319466
C33	C	1.777617	0.538573	-0.140409
C34	C	2.277617	1.038573	0.359591
C35	C	1.759367	0.715668	-0.138969
C36	C	2.259367	1.215668	0.361031
N37	N	1.824182	0.247160	0.072909
N38	N	2.324182	0.747160	0.572909
C39	C	1.943783	0.140438	0.394456
C40	C	2.443783	0.640438	0.894456
C41	C	1.943779	0.140439	0.298475
C42	C	2.443779	0.640439	0.798475
C43	C	1.704615	0.353902	0.317376
C44	C	2.204615	0.853902	0.817376
C45	C	1.704626	0.353908	0.413354
C46	C	2.204626	0.853908	0.913354
C47	C	1.824209	0.247167	0.451892
C48	C	2.324209	0.747167	0.951892
C49	C	1.824195	0.247162	0.259933
C50	C	2.324195	0.747162	0.759933
C51	C	1.824190	0.247163	0.155866
C52	C	2.324190	0.747163	0.655866
C53	C	1.824216	0.247168	0.555965
C54	C	2.324216	0.747168	1.055965
N55	N	1.824222	0.247169	0.638916
N56	N	2.324222	0.747169	1.138916
H57	H	1.634396	-0.202787	-0.129095
H58	H	2.134396	0.297213	0.370905
O59	O	2.038017	-0.318839	-0.161020
O60	O	2.538017	0.181161	0.338980
C61	C	2.023692	-0.479885	-0.159856
C62	C	2.523692	0.020115	0.340144
H63	H	1.901377	-0.488037	-0.179059
H64	H	2.401377	0.011963	0.320941
H65	H	2.122751	-0.553951	-0.211948
H66	H	2.622751	-0.053951	0.288052
H67	H	2.035367	-0.527894	-0.087623
H68	H	2.535367	-0.027894	0.412377
H69	H	1.296323	0.246232	-0.034762
H70	H	1.796323	0.746232	0.465238
H71	H	1.352062	0.248124	-0.253415
H72	H	1.852062	0.748124	0.246585
H73	H	1.607251	0.440806	0.285989
H74	H	2.107251	0.940806	0.785989
H75	H	2.041156	0.053525	0.425831
H76	H	2.541156	0.553525	0.925831
H77	H	2.041148	0.053532	0.251713
H78	H	2.541148	0.553532	0.751713
H79	H	1.607253	0.440828	0.460123
H80	H	2.107253	0.940828	0.960123
