data_functionalizedCrystal
_audit_creation_method	'MofGen! by Chris Wilmer'
_symmetry_space_group_name_H-M	'P1'
_symmetry_Int_Tables_number	1
_symmetry_cell_setting	triclinic
loop_
_symmetry_equiv_pos_as_xyz
  x,y,z
_cell_length_a	14.044191
_cell_length_b	16.109302
_cell_length_c	15.186229
_cell_angle_alpha	89.994701
_cell_angle_beta	90.000101
_cell_angle_gamma	91.673221
loop_
_atom_site_label
_atom_site_type_symbol
_atom_site_fract_x
_atom_site_fract_y
_atom_site_fract_z
O1	O	-0.121838	1.112198	-0.073262
O2	O	0.378162	1.612198	0.426738
O3	O	-0.136999	0.871264	-0.073254
O4	O	0.363001	1.371264	0.426746
O5	O	0.008565	0.988112	-0.073259
O6	O	0.508565	1.488112	0.426741
O7	O	-0.267402	0.995350	-0.073256
O8	O	0.232598	1.495350	0.426744
O9	O	0.008567	0.988103	0.073198
O10	O	0.508567	1.488103	0.573198
O11	O	-0.136997	0.871256	0.073203
O12	O	0.363003	1.371256	0.573203
O13	O	-0.121836	1.112189	0.073195
O14	O	0.378164	1.612189	0.573195
Zn15	Zn	-0.129416	0.991721	0.096453
Zn16	Zn	0.370584	1.491721	0.596453
Zn17	Zn	-0.129419	0.991732	-0.096511
Zn18	Zn	0.370581	1.491732	0.403489
O19	O	-0.267400	0.995342	0.073201
O20	O	0.232600	1.495342	0.573201
C21	C	-0.136384	0.840239	-0.000025
C22	C	0.363616	1.340239	0.499975
C23	C	-0.134543	0.747807	-0.000022
C24	C	0.365457	1.247807	0.499978
C25	C	-0.130283	0.535144	0.079803
C26	C	0.369717	1.035144	0.579803
C27	C	-0.128542	0.448295	0.079800
C28	C	0.371458	0.948295	0.579800
C29	C	-0.128550	0.448315	-0.079876
C30	C	0.371450	0.948315	0.420124
C31	C	-0.130283	0.535163	-0.079872
C32	C	0.369717	1.035163	0.420128
C33	C	-0.131155	0.578576	-0.000030
C34	C	0.368845	1.078576	0.499970
C35	C	-0.127681	0.404878	-0.000037
C36	C	0.372319	0.904878	0.499963
C37	C	-0.125793	0.310712	-0.000041
C38	C	0.374207	0.810712	0.499959
C39	C	-0.133040	0.672748	-0.000025
C40	C	0.366960	1.172748	0.499975
C41	C	-0.302715	0.998513	-0.000027
C42	C	0.197285	1.498513	0.499973
C43	C	-0.407938	1.007959	-0.000027
C44	C	0.092062	1.507959	0.499973
C45	C	-0.658240	0.958234	-0.000033
C46	C	-0.158240	1.458234	0.499967
C47	C	-0.600590	1.025215	-0.000034
C48	C	-0.100590	1.525215	0.499966
C49	C	-0.493389	1.015612	-0.000030
C50	C	0.006611	1.515612	0.499970
C51	C	-0.765451	0.967837	-0.000037
C52	C	-0.265451	1.467837	0.499963
C53	C	0.043879	0.984940	-0.000033
C54	C	0.543879	1.484940	0.499967
C55	C	0.149103	0.975494	-0.000040
C56	C	0.649103	1.475494	0.499960
C57	C	-0.122451	1.143214	-0.000036
C58	C	0.377549	1.643214	0.499964
C59	C	-0.124293	1.235646	-0.000044
C60	C	0.375707	1.735646	0.499956
N61	N	-0.129414	0.991719	0.228145
N62	N	0.370586	1.491719	0.728145
N63	N	-0.129414	0.991740	-0.228204
N64	N	0.370586	1.491740	0.271796
C65	C	-0.064980	1.043480	0.453866
C66	C	0.435020	1.543480	0.953866
C67	C	-0.064977	1.043482	0.546055
C68	C	0.435023	1.543482	1.046055
C69	C	-0.193851	0.939974	0.546069
C70	C	0.306149	1.439974	1.046069
C71	C	-0.193848	0.939967	0.453881
C72	C	0.306152	1.439967	0.953881
C73	C	-0.129414	0.991725	0.407782
C74	C	0.370586	1.491725	0.907782
C75	C	-0.129414	0.991734	0.592160
C76	C	0.370586	1.491734	1.092160
C77	C	-0.129412	0.991736	0.692116
C78	C	0.370588	1.491736	1.192116
C79	C	-0.129414	0.991722	0.307819
C80	C	0.370586	1.491722	0.807819
H81	H	-0.127833	0.412937	0.144808
H82	H	0.372167	0.912937	0.644808
H83	H	-0.130991	0.570526	-0.144885
H84	H	0.369009	1.070526	0.355115
N85	N	-0.127611	0.401484	-0.165983
N86	N	0.372389	0.901484	0.334017
H87	H	-0.185616	0.363068	-0.169541
H88	H	0.314384	0.863068	0.330459
H89	H	-0.128388	0.442229	-0.216509
H90	H	0.371612	0.942229	0.283491
N91	N	-0.616981	0.872725	-0.000026
N92	N	-0.116981	1.372725	0.499974
H93	H	-0.545137	0.877900	-0.000021
H94	H	-0.045137	1.377900	0.499979
H95	H	-0.639150	0.841540	0.054272
H96	H	-0.139150	1.341540	0.554272
H97	H	-0.246314	0.897835	0.583613
H98	H	0.253686	1.397835	1.083613
N99	N	-0.641849	1.110731	-0.000038
N100	N	-0.141849	1.610731	0.499962
H101	H	-0.713693	1.105561	-0.000038
H102	H	-0.213693	1.605561	0.499962
H103	H	-0.619681	1.141909	0.054258
H104	H	-0.119681	1.641909	0.554258
H105	H	-0.012509	1.085625	0.583574
H106	H	0.487491	1.585625	1.083574
N107	N	-0.131223	0.581970	0.165914
N108	N	0.368777	1.081970	0.665914
H109	H	-0.130405	0.541274	0.216486
H110	H	0.369595	1.041274	0.716486
H111	H	-0.073218	0.620389	0.169391
H112	H	0.426782	1.120389	0.669391
N113	N	0.004515	1.099300	0.404142
N114	N	0.504515	1.599300	0.904142
H115	H	0.045335	1.132085	0.447329
H116	H	0.545335	1.632085	0.947329
H117	H	0.046430	1.064361	0.365899
H118	H	0.546430	1.564361	0.865899
N119	N	-0.263340	0.884136	0.404168
N120	N	0.236660	1.384136	0.904168
H121	H	-0.304163	0.851352	0.447359
H122	H	0.195837	1.351352	0.947359
H123	H	-0.305253	0.919067	0.365908
H124	H	0.194747	1.419067	0.865908
