data_functionalizedCrystal
_audit_creation_method	'MofGen! by Chris Wilmer'
_symmetry_space_group_name_H-M	'P1'
_symmetry_Int_Tables_number	1
_symmetry_cell_setting	triclinic
loop_
_symmetry_equiv_pos_as_xyz
  x,y,z
_cell_length_a	14.044220
_cell_length_b	14.044191
_cell_length_c	8.140239
_cell_angle_alpha	90.000073
_cell_angle_beta	89.997843
_cell_angle_gamma	86.809673
loop_
_atom_site_label
_atom_site_type_symbol
_atom_site_fract_x
_atom_site_fract_y
_atom_site_fract_z
O1	O	-1.277171	0.230167	-0.136413
O2	O	-0.777171	0.730167	0.363587
O3	O	-1.000500	0.221861	-0.136456
O4	O	-0.500500	0.721861	0.363544
O5	O	-1.134679	0.087678	-0.136438
O6	O	-0.634679	0.587678	0.363562
O7	O	-1.142992	0.364350	-0.136431
O8	O	-0.642992	0.864350	0.363569
O9	O	-1.134671	0.087675	0.136789
O10	O	-0.634671	0.587675	0.636789
O11	O	-1.000491	0.221859	0.136772
O12	O	-0.500491	0.721859	0.636772
O13	O	-1.277163	0.230164	0.136814
O14	O	-0.777163	0.730164	0.636814
Zn15	Zn	-1.138826	0.226011	0.180173
Zn16	Zn	-0.638826	0.726011	0.680173
Zn17	Zn	-1.138837	0.226014	-0.179815
Zn18	Zn	-0.638837	0.726014	0.320185
O19	O	-1.142984	0.364348	0.136797
O20	O	-0.642984	0.864348	0.636797
C21	C	-0.964874	0.218224	0.000152
C22	C	-0.464874	0.718224	0.500152
C23	C	-0.858731	0.207380	0.000136
C24	C	-0.358731	0.707380	0.500136
C25	C	-1.131039	0.052054	0.000171
C26	C	-0.631039	0.552054	0.500171
C27	C	-1.120191	-0.054089	0.000156
C28	C	-0.620191	0.445911	0.500156
C29	C	-1.312789	0.233801	0.000203
C30	C	-0.812789	0.733801	0.500203
C31	C	-1.418932	0.244646	0.000209
C32	C	-0.918932	0.744646	0.500209
C33	C	-0.664392	0.187553	0.000168
C34	C	-0.164392	0.687553	0.500168
C35	C	-0.613264	0.264468	0.000177
C36	C	-0.113264	0.764468	0.500177
C37	C	-0.505128	0.253436	0.000194
C38	C	-0.005128	0.753436	0.500194
C39	C	-0.772539	0.198583	0.000150
C40	C	-0.272539	0.698583	0.500150
C41	C	-1.146624	0.399971	0.000184
C42	C	-0.646624	0.899971	0.500184
C43	C	-1.157472	0.506114	0.000188
C44	C	-0.657472	1.006114	0.500188
C45	C	-1.100371	0.751572	0.000165
C46	C	-0.600371	1.251572	0.500165
C47	C	-1.177287	0.700447	0.000179
C48	C	-0.677287	1.200447	0.500179
C49	C	-1.166259	0.592310	0.000184
C50	C	-0.666259	1.092310	0.500184
C51	C	-1.111398	0.859719	0.000160
C52	C	-0.611398	1.359719	0.500160
N53	N	-1.138826	0.226009	0.425856
N54	N	-0.638826	0.726009	0.925856
N55	N	-1.138844	0.226009	-0.425498
N56	N	-0.638844	0.726009	0.074502
H57	H	-0.650706	0.338602	0.000171
H58	H	-0.150706	0.838602	0.500171
O59	O	-1.265779	0.745002	0.000423
O60	O	-0.765779	1.245002	0.500423
C61	C	-1.315639	0.718285	0.141969
C62	C	-0.815639	1.218285	0.641969
H63	H	-1.283892	0.646973	0.189135
H64	H	-0.783892	1.146973	0.689135
H65	H	-1.393997	0.711320	0.110173
H66	H	-0.893997	1.211320	0.610173
H67	H	-1.309347	0.774957	0.241055
H68	H	-0.809347	1.274957	0.741055
H69	H	-1.026245	0.714131	0.000158
H70	H	-0.526245	1.214131	0.500158
H71	H	-0.626954	0.113425	0.000174
H72	H	-0.126954	0.613425	0.500174
