data_functionalizedCrystal
_audit_creation_method	'MofGen! by Chris Wilmer'
_symmetry_space_group_name_H-M	'P1'
_symmetry_Int_Tables_number	1
_symmetry_cell_setting	triclinic
loop_
_symmetry_equiv_pos_as_xyz
  x,y,z
_cell_length_a	19.188930
_cell_length_b	13.101032
_cell_length_c	14.044220
_cell_angle_alpha	93.665102
_cell_angle_beta	88.166828
_cell_angle_gamma	86.634999
loop_
_atom_site_label
_atom_site_type_symbol
_atom_site_fract_x
_atom_site_fract_y
_atom_site_fract_z
O1	O	0.937312	-0.085551	0.113044
O2	O	1.437312	0.414449	0.613044
O3	O	0.735026	-0.085481	0.128975
O4	O	1.235026	0.414519	0.628975
O5	O	0.833132	-0.085505	-0.016962
O6	O	1.333132	0.414495	0.483038
O7	O	0.839206	-0.085527	0.258981
O8	O	1.339206	0.414473	0.758981
O9	O	0.826084	0.084927	-0.006480
O10	O	1.326084	0.584927	0.493520
O11	O	0.727978	0.084951	0.139457
O12	O	1.227978	0.584951	0.639457
O13	O	0.930264	0.084881	0.123526
O14	O	1.430264	0.584881	0.623526
Zn15	Zn	0.828002	0.111976	0.133156
Zn16	Zn	1.328002	0.611976	0.633156
Zn17	Zn	0.837288	-0.112576	0.119345
Zn18	Zn	1.337288	0.387424	0.619345
O19	O	0.832158	0.084905	0.269463
O20	O	1.332158	0.584905	0.769463
C21	C	0.705457	-0.000256	0.133701
C22	C	1.205457	0.499744	0.633701
C23	C	0.627852	-0.000229	0.132154
C24	C	1.127852	0.499771	0.632154
N25	N	0.821670	0.265226	0.142580
N26	N	1.321670	0.765226	0.642580
C27	C	0.826950	-0.000288	-0.047024
C28	C	1.326950	0.499712	0.452976
C29	C	0.819021	-0.000284	-0.152217
C30	C	1.319021	0.499716	0.347783
C31	C	0.588455	-0.000252	0.217783
C32	C	1.088455	0.499748	0.717783
C33	C	0.515537	-0.000263	0.216328
C34	C	1.015537	0.499737	0.716328
C35	C	0.482021	-0.000272	0.129238
C36	C	0.982021	0.499728	0.629238
C37	C	0.521427	-0.000243	0.043598
C38	C	1.021427	0.499757	0.543598
C39	C	0.594343	-0.000222	0.045056
C40	C	1.094343	0.499778	0.545056
N41	N	0.372145	-0.058314	0.059099
N42	N	0.872145	0.441686	0.559099
N43	N	0.302879	-0.058336	0.057719
N44	N	0.802879	0.441664	0.557719
C45	C	0.262331	-0.000335	0.124839
C46	C	0.762331	0.499665	0.624839
N47	N	0.293668	0.057678	0.193404
N48	N	0.793668	0.557678	0.693404
N49	N	0.362941	0.057696	0.194786
N50	N	0.862941	0.557696	0.694786
C51	C	0.402957	-0.000295	0.127647
C52	C	0.902957	0.499705	0.627647
C53	C	0.143869	-0.000368	0.208896
C54	C	0.643869	0.499632	0.708896
C55	C	0.070950	-0.000373	0.207437
C56	C	0.570950	0.499627	0.707437
C57	C	0.076842	-0.000363	0.034705
C58	C	0.576842	0.499637	0.534705
C59	C	0.149759	-0.000348	0.036166
C60	C	0.649759	0.499652	0.536166
C61	C	0.183268	-0.000355	0.123264
C62	C	0.683268	0.499645	0.623264
C63	C	0.959833	-0.000346	0.118800
C64	C	1.459833	0.499654	0.618800
C65	C	1.037439	-0.000380	0.120346
C66	C	1.537439	0.499620	0.620346
C67	C	0.852234	0.525128	0.097099
C68	C	1.352234	1.025128	0.597099
C69	C	0.813061	0.474265	0.155404
C70	C	1.313061	0.974265	0.655404
C71	C	0.817852	0.357945	0.148267
C72	C	1.317852	0.857945	0.648267
C73	C	0.847443	0.641459	0.104234
C74	C	1.347443	1.141459	0.604234
N75	N	0.843622	0.734174	0.109925
N76	N	1.343622	1.234174	0.609925
C77	C	0.804526	-0.000293	-0.344819
C78	C	1.304526	0.499707	0.155181
C79	C	0.860762	-0.000316	-0.402686
C80	C	1.360762	0.499684	0.097314
C81	C	0.852696	-0.000321	-0.509857
C82	C	1.352696	0.499679	-0.009857
C83	C	0.812590	-0.000288	-0.237638
C84	C	1.312590	0.499712	0.262362
C85	C	0.838340	-0.000315	0.299525
C86	C	1.338340	0.499685	0.799525
C87	C	0.846269	-0.000326	0.404717
C88	C	1.346269	0.499674	0.904717
H89	H	0.615733	-0.000260	0.288704
H90	H	1.115733	0.499740	0.788704
O91	O	0.632697	-0.000344	-0.038074
O92	O	1.132697	0.499656	0.461926
C93	C	0.678710	-0.088617	-0.047837
C94	C	1.178710	0.411383	0.452163
H95	H	0.688300	-0.118047	0.025556
H96	H	1.188300	0.381953	0.525556
H97	H	0.730406	-0.068754	-0.082141
H98	H	1.230406	0.431246	0.417859
H99	H	0.654634	-0.150429	-0.094819
H100	H	1.154634	0.349571	0.405181
O101	O	0.768819	0.526684	0.221327
O102	O	1.268819	1.026684	0.721327
C103	C	0.773814	0.632838	0.213863
C104	C	1.273814	1.132838	0.713863
H105	H	0.826499	0.647336	0.179081
H106	H	1.326499	1.147336	0.679081
H107	H	0.768898	0.673700	0.288124
H108	H	1.268898	1.173700	0.788124
H109	H	0.730086	0.663315	0.168350
H110	H	1.230086	1.163315	0.668350
H111	H	0.038873	-0.000386	0.277170
H112	H	0.538873	0.499614	0.777170
H113	H	0.750328	-0.000277	-0.375762
H114	H	1.250328	0.499723	0.124238
H115	H	0.483454	-0.000279	0.286059
H116	H	0.983454	0.499721	0.786059
O117	O	0.896638	0.472991	0.031209
O118	O	1.396638	0.972991	0.531209
C119	C	0.965641	0.499072	0.047931
C120	C	1.465641	0.999072	0.547931
H121	H	0.964675	0.577003	0.089163
H122	H	1.464675	1.077003	0.589163
H123	H	0.995418	0.502600	-0.023220
H124	H	1.495418	1.002600	0.476780
H125	H	0.992629	0.438704	0.091371
H126	H	1.492629	0.938704	0.591371
H127	H	0.171153	-0.000359	0.279817
H128	H	0.671153	0.499641	0.779817
O129	O	0.925373	-0.000282	-0.365616
O130	O	1.425373	0.499718	0.134384
C131	C	0.919150	-0.000297	-0.265313
C132	C	1.419150	0.499703	0.234687
H133	H	0.864761	0.031981	-0.240011
H134	H	1.364761	0.531981	0.259989
H135	H	0.960056	0.049178	-0.232002
H136	H	1.460056	0.549178	0.267998
H137	H	0.927600	-0.082061	-0.242817
H138	H	1.427600	0.417939	0.257183
H139	H	0.494134	-0.000265	-0.027312
H140	H	0.994134	0.499735	0.472688
O141	O	0.044185	-0.000419	-0.049816
O142	O	0.544185	0.499581	0.450184
C143	C	-0.028623	-0.000414	-0.032742
C144	C	0.471377	0.499586	0.467258
H145	H	-0.039769	-0.032685	0.039298
H146	H	0.460231	0.467315	0.539298
H147	H	-0.052393	-0.049901	-0.091493
H148	H	0.447607	0.450099	0.408507
H149	H	-0.052580	0.081345	-0.032224
H150	H	0.447420	0.581345	0.467776
H151	H	0.181837	-0.000335	-0.033562
H152	H	0.681837	0.499665	0.466438
