data_functionalizedCrystal
_audit_creation_method	'MofGen! by Chris Wilmer'
_symmetry_space_group_name_H-M	'P1'
_symmetry_Int_Tables_number	1
_symmetry_cell_setting	triclinic
loop_
_symmetry_equiv_pos_as_xyz
  x,y,z
_cell_length_a	25.639242
_cell_length_b	25.639239
_cell_length_c	25.639233
_cell_angle_alpha	90.018747
_cell_angle_beta	90.022166
_cell_angle_gamma	90.034213
loop_
_atom_site_label
_atom_site_type_symbol
_atom_site_fract_x
_atom_site_fract_y
_atom_site_fract_z
Zn1	Zn	0.799225	-0.208277	0.295742
Zn2	Zn	1.299225	0.291723	0.795742
Zn3	Zn	0.799149	-0.295696	0.208307
Zn4	Zn	1.299149	0.204304	0.708307
Zn5	Zn	0.711801	-0.208269	0.208306
Zn6	Zn	1.211801	0.291731	0.708306
Zn7	Zn	0.711746	-0.295676	0.295696
Zn8	Zn	1.211746	0.204324	0.795696
O9	O	0.755480	-0.251979	0.252013
O10	O	1.255480	0.248021	0.752013
O11	O	0.872380	-0.219884	0.284163
O12	O	1.372380	0.280116	0.784163
O13	O	0.787553	-0.284103	0.135141
O14	O	1.287553	0.215897	0.635141
O15	O	0.723453	-0.135105	0.219924
O16	O	1.223453	0.364895	0.719924
O17	O	0.872324	-0.284111	0.219924
O18	O	1.372324	0.215889	0.719924
O19	O	0.787683	-0.135111	0.284163
O20	O	1.287683	0.364889	0.784163
O21	O	0.723379	-0.219871	0.135141
O22	O	1.223379	0.280129	0.635141
O23	O	0.638629	-0.219853	0.219880
O24	O	1.138629	0.280147	0.719880
O25	O	0.723360	-0.284078	0.368868
O26	O	1.223360	0.215922	0.868868
O27	O	0.638589	-0.284070	0.284085
O28	O	1.138589	0.215930	0.784085
O29	O	0.787630	-0.219866	0.368901
O30	O	1.287630	0.280134	0.868901
O31	O	0.787499	-0.368858	0.219880
O32	O	1.287499	0.131142	0.719880
O33	O	0.723286	-0.368844	0.284085
O34	O	1.223286	0.131156	0.784085
C35	C	0.755392	-0.387822	0.251989
C36	C	1.255392	0.112178	0.751989
C37	C	0.755403	-0.445936	0.251996
C38	C	1.255403	0.054064	0.751996
C39	C	0.619638	-0.251959	0.251977
C40	C	1.119638	0.248041	0.751977
C41	C	0.561524	-0.251963	0.251975
C42	C	1.061524	0.248037	0.751975
C43	C	0.789004	-0.806294	0.218638
C44	C	1.289004	-0.306294	0.718638
C45	C	0.789024	-0.860898	0.218645
C46	C	1.289024	-0.360898	0.718645
O47	O	0.817502	-0.889131	0.190257
O48	O	1.317502	-0.389131	0.690257
N49	N	0.755572	-0.888218	0.252048
N50	N	1.255572	-0.388218	0.752048
C51	C	0.722102	-0.860932	0.285449
C52	C	1.222102	-0.360932	0.785449
O53	O	0.693651	-0.889184	0.313861
O54	O	1.193651	-0.389184	0.813861
C55	C	0.722085	-0.806328	0.285444
C56	C	1.222085	-0.306328	0.785444
C57	C	0.755535	-0.779011	0.252036
C58	C	1.255535	-0.279011	0.752036
C59	C	0.822452	-0.778976	0.185233
C60	C	1.322452	-0.278976	0.685233
C61	C	0.822431	-0.724376	0.185226
C62	C	1.322431	-0.224376	0.685226
C63	C	0.788962	-0.697093	0.218623
C64	C	1.288962	-0.197093	0.718623
C65	C	0.755514	-0.724410	0.252028
C66	C	1.255514	-0.224410	0.752028
C67	C	0.688617	-0.779042	0.318847
C68	C	1.188617	-0.279042	0.818847
C69	C	0.688603	-0.724435	0.318840
C70	C	1.188603	-0.224435	0.818840
C71	C	0.722053	-0.697118	0.285432
C72	C	1.222053	-0.197118	0.785432
C73	C	0.722024	-0.642527	0.285418
C74	C	1.222024	-0.142527	0.785418
N75	N	0.755475	-0.615206	0.252016
N76	N	1.255475	-0.115206	0.752016
C77	C	0.788944	-0.642490	0.218618
C78	C	1.288944	-0.142490	0.718618
C79	C	0.722141	-0.975602	0.285457
C80	C	1.222141	-0.475602	0.785457
C81	C	0.722155	-1.030204	0.285459
C82	C	1.222155	-0.530204	0.785459
C83	C	0.789078	-1.030167	0.218656
C84	C	1.289078	-0.530167	0.718656
C85	C	0.789061	-0.975564	0.218652
C86	C	1.289061	-0.475564	0.718652
C87	C	0.755593	-0.948282	0.252055
C88	C	1.255593	-0.448282	0.752055
C89	C	0.788897	-0.527824	0.218605
C90	C	1.288897	-0.027824	0.718605
C91	C	0.788872	-0.473219	0.218599
C92	C	1.288872	0.026781	0.718599
C93	C	0.721951	-0.473261	0.285403
C94	C	1.221951	0.026739	0.785403
C95	C	0.721974	-0.527862	0.285408
C96	C	1.221974	-0.027862	0.785408
C97	C	0.755452	-0.555142	0.252007
C98	C	1.255452	-0.055142	0.752007
O99	O	0.693562	-0.614260	0.313793
O100	O	1.193562	-0.114260	0.813793
O101	O	0.817396	-0.614231	0.190216
O102	O	1.317396	-0.114231	0.690216
C103	C	0.201149	-0.285473	0.285413
C104	C	0.701149	0.214527	0.785413
C105	C	0.146544	-0.285477	0.285421
C106	C	0.646544	0.214523	0.785421
O107	O	0.118297	-0.313943	0.313821
O108	O	0.618297	0.186057	0.813821
N109	N	0.119241	-0.251994	0.252047
N110	N	0.619241	0.248006	0.752047
C111	C	0.146545	-0.218502	0.218666
C112	C	0.646545	0.281498	0.718666
O113	O	0.118308	-0.190022	0.190280
O114	O	0.618308	0.309978	0.690280
C115	C	0.201149	-0.218496	0.218661
C116	C	0.701149	0.281504	0.718661
C117	C	0.228449	-0.251985	0.252034
C118	C	0.728449	0.248015	0.752034
C119	C	0.228449	-0.318959	0.318783
C120	C	0.728449	0.181041	0.818783
C121	C	0.283049	-0.318956	0.318774
C122	C	0.783049	0.181044	0.818774
C123	C	0.310350	-0.285468	0.285395
C124	C	0.810350	0.214532	0.785395
C125	C	0.283049	-0.251983	0.252024
C126	C	0.783049	0.248017	0.752024
C127	C	0.228452	-0.185002	0.185283
C128	C	0.728452	0.314998	0.685283
C129	C	0.283059	-0.185000	0.185281
C130	C	0.783059	0.315000	0.685281
C131	C	0.310359	-0.218488	0.218654
C132	C	0.810359	0.281512	0.718654
C133	C	0.364950	-0.218492	0.218636
C134	C	0.864950	0.281508	0.718636
N135	N	0.392253	-0.251974	0.252010
N136	N	0.892253	0.248026	0.752010
C137	C	0.364953	-0.285463	0.285389
C138	C	0.864953	0.214537	0.785389
C139	C	0.031875	-0.218515	0.218680
C140	C	0.531875	0.281485	0.718680
C141	C	-0.022728	-0.218523	0.218683
C142	C	0.477272	0.281477	0.718683
C143	C	-0.022725	-0.285497	0.285438
C144	C	0.477275	0.214503	0.785438
C145	C	0.031878	-0.285492	0.285433
C146	C	0.531878	0.214508	0.785433
C147	C	0.059178	-0.251998	0.252054
C148	C	0.559178	0.248002	0.752054
C149	C	0.479618	-0.285455	0.285368
C150	C	0.979618	0.214545	0.785368
C151	C	0.534223	-0.285451	0.285354
C152	C	1.034223	0.214549	0.785354
C153	C	0.534216	-0.218475	0.218601
C154	C	1.034216	0.281525	0.718601
C155	C	0.479615	-0.218481	0.218612
C156	C	0.979615	0.281519	0.718612
C157	C	0.452318	-0.251972	0.252000
C158	C	0.952318	0.248028	0.752000
O159	O	0.393232	-0.190038	0.190252
O160	O	0.893232	0.309962	0.690252
O161	O	0.393197	-0.313933	0.313776
O162	O	0.893197	0.186067	0.813776
C163	C	0.891853	-0.252000	0.252049
C164	C	1.391853	0.248000	0.752049
C165	C	0.949967	-0.252009	0.252064
C166	C	1.449967	0.247991	0.752064
C167	C	0.755497	-0.251970	0.388386
C168	C	1.255497	0.248030	0.888386
C169	C	0.755504	-0.251966	0.446500
C170	C	1.255504	0.248034	0.946500
C171	C	0.755583	-0.115606	0.252048
C172	C	1.255583	0.384394	0.752048
C173	C	0.755627	-0.057492	0.252064
C174	C	1.255627	0.442508	0.752064
C175	C	0.755494	-0.251951	0.116170
C176	C	1.255494	0.248049	0.616170
C177	C	0.755588	-0.251807	0.058057
C178	C	1.255588	0.248193	0.558057
C179	C	0.789012	-0.218432	0.806886
C180	C	1.289012	0.281568	1.306886
C181	C	0.789019	-0.218417	0.861491
C182	C	1.289019	0.281583	1.361491
O183	O	0.817466	-0.189967	0.889747
O184	O	1.317466	0.310033	1.389747
N185	N	0.755562	-0.251844	0.888783
N186	N	1.255562	0.248156	1.388783
C187	C	0.722093	-0.285283	0.861468
C188	C	1.222093	0.214717	1.361468
O189	O	0.693636	-0.313713	0.889695
O190	O	1.193636	0.186287	1.389695
C191	C	0.722084	-0.285294	0.806864
C192	C	1.222084	0.214706	1.306864
C193	C	0.755547	-0.251870	0.779575
C194	C	1.255547	0.248130	1.279575
C195	C	0.822472	-0.185009	0.779597
C196	C	1.322472	0.314991	1.279597
C197	C	0.822466	-0.185025	0.724997
C198	C	1.322466	0.314975	1.224997
C199	C	0.789000	-0.218462	0.697685
C200	C	1.289000	0.281538	1.197685
C201	C	0.755541	-0.251885	0.724974
C202	C	1.255541	0.248115	1.224974
C203	C	0.688613	-0.318731	0.779550
C204	C	1.188613	0.181269	1.279550
C205	C	0.688607	-0.318739	0.724943
C206	C	1.188607	0.181261	1.224943
C207	C	0.722069	-0.285314	0.697654
C208	C	1.222069	0.214686	1.197654
C209	C	0.722070	-0.285338	0.643063
C210	C	1.222070	0.214662	1.143063
N211	N	0.755526	-0.251912	0.615771
N212	N	1.255526	0.248088	1.115771
C213	C	0.788992	-0.218474	0.643082
C214	C	1.288992	0.281526	1.143082
C215	C	0.722113	-0.285256	0.976138
C216	C	1.222113	0.214744	1.476138
C217	C	0.722124	-0.285247	1.030741
C218	C	1.222124	0.214753	1.530741
C219	C	0.789049	-0.218381	1.030760
C220	C	1.289049	0.281619	1.530760
C221	C	0.789041	-0.218392	0.976157
C222	C	1.289041	0.281608	1.476157
C223	C	0.755570	-0.251829	0.948846
C224	C	1.255570	0.248171	1.448846
C225	C	0.788977	-0.218509	0.528417
C226	C	1.288977	0.281491	1.028417
C227	C	0.788970	-0.218529	0.473811
C228	C	1.288970	0.281471	0.973811
C229	C	0.722043	-0.285393	0.473797
C230	C	1.222043	0.214607	0.973797
C231	C	0.722052	-0.285375	0.528397
C232	C	1.222052	0.214625	1.028397
C233	C	0.755521	-0.251929	0.555706
C234	C	1.255521	0.248071	1.055706
O235	O	0.693635	-0.313773	0.614771
O236	O	1.193635	0.186227	1.114771
O237	O	0.817439	-0.190044	0.614847
O238	O	1.317439	0.309956	1.114847
H239	H	0.816111	-0.450979	0.191392
H240	H	1.316111	0.049021	0.691392
C241	C	0.061579	-0.182239	0.182401
C242	C	0.561579	0.317761	0.682401
C243	C	0.092904	-0.211790	0.148840
C244	C	0.592904	0.288210	0.648840
C245	C	0.120276	-0.178391	0.115418
C246	C	0.620276	0.321609	0.615418
H247	H	0.037555	-0.162290	0.162477
H248	H	0.537555	0.337710	0.662477
H249	H	0.082932	-0.159491	0.202422
H250	H	0.582932	0.340509	0.702422
H251	H	0.071552	-0.234530	0.128821
H252	H	0.571552	0.265470	0.628821
H253	H	0.116937	-0.231739	0.168749
H254	H	0.616937	0.268261	0.668749
H255	H	0.141629	-0.155643	0.135438
H256	H	0.641629	0.344357	0.635438
H257	H	0.096248	-0.158444	0.095497
H258	H	0.596248	0.341556	0.595497
H259	H	0.141537	-0.198436	0.092646
H260	H	0.641537	0.301564	0.592646
C261	C	0.563769	-0.321830	0.321648
C262	C	1.063769	0.178170	0.821648
C263	C	0.528169	-0.351146	0.350892
C264	C	1.028169	0.148854	0.850892
C265	C	0.555364	-0.384657	0.384335
C266	C	1.055364	0.115343	0.884335
H267	H	0.585048	-0.344628	0.301663
H268	H	1.085048	0.155372	0.801663
H269	H	0.585081	-0.301874	0.344490
H270	H	1.085081	0.198126	0.844490
H271	H	0.506865	-0.371100	0.328052
H272	H	1.006865	0.128900	0.828052
H273	H	0.506888	-0.328362	0.370887
H274	H	1.006888	0.171638	0.870887
H275	H	0.576677	-0.364701	0.407178
H276	H	1.076677	0.135299	0.907178
H277	H	0.576643	-0.407451	0.364346
H278	H	1.076643	0.092549	0.864346
H279	H	0.531214	-0.404548	0.404185
H280	H	1.031214	0.095452	0.904185
C281	C	0.652239	-0.808721	0.355037
C282	C	1.152239	-0.308721	0.855037
C283	C	0.618742	-0.840107	0.325413
C284	C	1.118742	-0.340107	0.825413
C285	C	0.585219	-0.867448	0.358737
C286	C	1.085219	-0.367448	0.858737
H287	H	0.672174	-0.830033	0.377852
H288	H	1.172174	-0.330033	0.877852
H289	H	0.632279	-0.784662	0.374918
H290	H	1.132279	-0.284662	0.874918
H291	H	0.638701	-0.864162	0.305541
H292	H	1.138701	-0.364162	0.805541
H293	H	0.598796	-0.818808	0.302600
H294	H	1.098796	-0.318808	0.802600
H295	H	0.565259	-0.843390	0.378617
H296	H	1.065259	-0.343390	0.878617
H297	H	0.605159	-0.888757	0.381550
H298	H	1.105159	-0.388757	0.881550
H299	H	0.562485	-0.888743	0.338641
H300	H	1.062485	-0.388743	0.838641
C301	C	-0.052270	-0.182110	0.182425
C302	C	0.447730	0.317890	0.682425
C303	C	-0.016667	-0.152776	0.153202
C304	C	0.483333	0.347224	0.653202
C305	C	-0.043860	-0.119219	0.119803
C306	C	0.456140	0.380781	0.619803
H307	H	-0.073596	-0.202018	0.159563
H308	H	0.426404	0.297982	0.659563
H309	H	-0.073535	-0.159330	0.202457
H310	H	0.426465	0.340670	0.702457
H311	H	0.004589	-0.175554	0.133172
H312	H	0.504589	0.324446	0.633172
H313	H	0.004660	-0.132858	0.176050
H314	H	0.504660	0.367142	0.676050
H315	H	-0.065126	-0.096439	0.139835
H316	H	0.434874	0.403561	0.639835
H317	H	-0.065185	-0.139131	0.096945
H318	H	0.434815	0.360869	0.596945
H319	H	-0.019708	-0.099309	0.099975
H320	H	0.480292	0.400691	0.599975
H321	H	0.457387	-0.191213	0.191436
H322	H	0.957387	0.308787	0.691436
C323	C	0.312724	-0.148570	0.149125
C324	C	0.812724	0.351430	0.649125
C325	C	0.344096	-0.115091	0.178783
C326	C	0.844096	0.384909	0.678783
C327	C	0.371423	-0.081522	0.145493
C328	C	0.871423	0.418478	0.645493
H329	H	0.334043	-0.168473	0.126291
H330	H	0.834043	0.331527	0.626291
H331	H	0.288656	-0.128599	0.129262
H332	H	0.788656	0.371401	0.629262
H333	H	0.368160	-0.135060	0.198636
H334	H	0.868160	0.364940	0.698636
H335	H	0.322789	-0.095177	0.201615
H336	H	0.822789	0.404823	0.701615
H337	H	0.347356	-0.061551	0.125630
H338	H	0.847356	0.438449	0.625630
H339	H	0.392740	-0.101429	0.122661
H340	H	0.892740	0.398571	0.622661
H341	H	0.392709	-0.058799	0.165611
H342	H	0.892709	0.441201	0.665611
H343	H	0.816298	-0.191153	1.053007
H344	H	1.316298	0.308847	1.553007
H345	H	0.849709	-0.801185	0.158037
H346	H	1.349709	-0.301185	0.658037
H347	H	0.661350	-0.702225	0.346042
H348	H	1.161350	-0.202225	0.846042
H349	H	0.206233	-0.157734	0.158106
H350	H	0.706233	0.342266	0.658106
H351	H	0.694699	-0.451039	0.312594
H352	H	1.194699	0.048961	0.812594
H353	H	0.457399	-0.312726	0.312556
H354	H	0.957399	0.187274	0.812556
H355	H	0.556454	-0.191211	0.191422
H356	H	1.056454	0.308789	0.691422
C357	C	0.825321	-0.182178	0.444278
C358	C	1.325321	0.317822	0.944278
C359	C	0.854618	-0.152882	0.479888
C360	C	1.354618	0.347118	0.979888
C361	C	0.888103	-0.119386	0.452703
C362	C	1.388103	0.380614	0.952703
H363	H	0.848132	-0.202128	0.422981
H364	H	1.348132	0.297872	0.922981
H365	H	0.805347	-0.159371	0.422985
H366	H	1.305347	0.340629	0.922985
H367	H	0.874590	-0.175686	0.501172
H368	H	1.374590	0.324314	1.001172
H369	H	0.831820	-0.132921	0.501187
H370	H	1.331820	0.367079	1.001187
H371	H	0.868129	-0.096579	0.431410
H372	H	1.368129	0.403421	0.931410
H373	H	0.910910	-0.139340	0.431407
H374	H	1.410910	0.360660	0.931407
H375	H	0.907981	-0.099501	0.476860
H376	H	1.407981	0.400499	0.976860
H377	H	0.694883	-0.953392	0.312656
H378	H	1.194883	-0.453392	0.812656
H379	H	0.694881	-0.312471	1.052955
H380	H	1.194881	0.187529	1.552955
C381	C	0.825230	-0.182133	0.558088
C382	C	1.325230	0.317867	1.058088
C383	C	0.795661	-0.148594	0.589420
C384	C	1.295661	0.351406	1.089420
C385	C	0.829040	-0.115076	0.616754
C386	C	1.329040	0.384924	1.116754
H387	H	0.848010	-0.202069	0.579436
H388	H	1.348010	0.297931	1.079436
H389	H	0.845145	-0.162203	0.534025
H390	H	1.345145	0.337797	1.034025
H391	H	0.775754	-0.168522	0.613480
H392	H	1.275754	0.331478	1.113480
H393	H	0.772881	-0.128646	0.568085
H394	H	1.272881	0.371354	1.068085
H395	H	0.848955	-0.095146	0.592692
H396	H	1.348955	0.404854	1.092692
H397	H	0.851819	-0.135016	0.638099
H398	H	1.351819	0.364984	1.138099
H399	H	0.808982	-0.092313	0.638013
H400	H	1.308982	0.407687	1.138013
C401	C	0.198909	-0.355381	0.355045
C402	C	0.698909	0.144619	0.855045
C403	C	0.234515	-0.384709	0.384254
C404	C	0.734515	0.115291	0.884254
C405	C	0.207326	-0.418276	0.417658
C406	C	0.707326	0.081724	0.917658
H407	H	0.177625	-0.335481	0.377915
H408	H	0.677625	0.164519	0.877915
H409	H	0.177600	-0.378164	0.335017
H410	H	0.677600	0.121836	0.835017
H411	H	0.255814	-0.361928	0.404281
H412	H	0.755814	0.138072	0.904281
H413	H	0.255799	-0.404619	0.361398
H414	H	0.755799	0.095381	0.861398
H415	H	0.186018	-0.441060	0.397630
H416	H	0.686018	0.058940	0.897630
H417	H	0.186044	-0.398373	0.440524
H418	H	0.686044	0.101627	0.940524
H419	H	0.231480	-0.438183	0.437477
H420	H	0.731480	0.061817	0.937477
C421	C	0.858812	-0.148672	0.695467
C422	C	1.358812	0.351328	1.195467
C423	C	0.888106	-0.119378	0.731082
C424	C	1.388106	0.380622	1.231082
C425	C	0.921589	-0.085876	0.703902
C426	C	1.421589	0.414124	1.203902
H427	H	0.881626	-0.168616	0.674167
H428	H	1.381626	0.331384	1.174167
H429	H	0.838837	-0.125863	0.674177
H430	H	1.338837	0.374137	1.174177
H431	H	0.908080	-0.142184	0.752363
H432	H	1.408080	0.357816	1.252363
H433	H	0.865307	-0.099423	0.752383
H434	H	1.365307	0.400577	1.252383
H435	H	0.901614	-0.063067	0.682612
H436	H	1.401614	0.436933	1.182612
H437	H	0.944399	-0.105825	0.682603
H438	H	1.444399	0.394175	1.182603
H439	H	0.941465	-0.065993	0.728062
H440	H	1.441465	0.434007	1.228062
C441	C	0.312750	-0.355225	0.355046
C442	C	0.812750	0.144775	0.855046
C443	C	0.344136	-0.325667	0.388601
C444	C	0.844136	0.174333	0.888601
C445	C	0.371504	-0.359060	0.422022
C446	C	0.871504	0.140940	0.922022
H447	H	0.288723	-0.375177	0.374975
H448	H	0.788723	0.124823	0.874975
H449	H	0.334061	-0.377972	0.335024
H450	H	0.834061	0.122028	0.835024
H451	H	0.322827	-0.302930	0.408621
H452	H	0.822827	0.197070	0.908621
H453	H	0.368173	-0.305717	0.368686
H454	H	0.868173	0.194283	0.868686
H455	H	0.392815	-0.381807	0.401999
H456	H	0.892815	0.118193	0.901999
H457	H	0.347473	-0.379010	0.441947
H458	H	0.847473	0.120990	0.941947
H459	H	0.392806	-0.339011	0.444789
H460	H	0.892806	0.160989	0.944789
C461	C	0.061583	-0.321762	0.321700
C462	C	0.561583	0.178238	0.821700
C463	C	0.092969	-0.292206	0.355257
C464	C	0.592969	0.207794	0.855257
C465	C	0.120342	-0.325602	0.388671
C466	C	0.620342	0.174398	0.888671
H467	H	0.037559	-0.341719	0.341628
H468	H	0.537559	0.158281	0.841628
H469	H	0.082894	-0.344505	0.301674
H470	H	0.582894	0.155495	0.801674
H471	H	0.071660	-0.269473	0.375282
H472	H	0.571660	0.230527	0.875282
H473	H	0.117003	-0.272251	0.335343
H474	H	0.617003	0.227749	0.835343
H475	H	0.141654	-0.348344	0.368645
H476	H	0.641654	0.151656	0.868645
H477	H	0.096314	-0.345556	0.408595
H478	H	0.596314	0.154444	0.908595
H479	H	0.141644	-0.305553	0.411440
H480	H	0.641644	0.194447	0.911440
C481	C	0.858723	-0.148636	0.809269
C482	C	1.358723	0.351364	1.309269
C483	C	0.829156	-0.115097	0.840604
C484	C	1.329156	0.384903	1.340604
C485	C	0.862537	-0.081577	0.867934
C486	C	1.362537	0.418423	1.367934
H487	H	0.881506	-0.168571	0.830615
H488	H	1.381506	0.331429	1.330615
H489	H	0.878635	-0.128705	0.785204
H490	H	1.378635	0.371295	1.285204
H491	H	0.809253	-0.135026	0.864666
H492	H	1.309253	0.364974	1.364666
H493	H	0.806374	-0.095150	0.819271
H494	H	1.306374	0.404850	1.319271
H495	H	0.882449	-0.061647	0.843869
H496	H	1.382449	0.438353	1.343869
H497	H	0.885319	-0.101517	0.889277
H498	H	1.385319	0.398483	1.389277
H499	H	0.842480	-0.058814	0.889194
H500	H	1.342480	0.441186	1.389194
C501	C	0.685759	-0.321628	0.946583
C502	C	1.185759	0.178372	1.446583
C503	C	0.656476	-0.350906	0.982177
C504	C	1.156476	0.149094	1.482177
C505	C	0.622988	-0.384422	0.954974
C506	C	1.122988	0.115578	1.454974
H507	H	0.662940	-0.301693	0.925276
H508	H	1.162940	0.198307	1.425276
H509	H	0.705730	-0.344445	0.925299
H510	H	1.205730	0.155555	1.425299
H511	H	0.636507	-0.328092	1.003453
H512	H	1.136507	0.171908	1.503453
H513	H	0.679282	-0.370851	1.003486
H514	H	1.179282	0.129149	1.503486
H515	H	0.642958	-0.407240	0.933689
H516	H	1.142958	0.092760	1.433689
H517	H	0.600172	-0.364484	0.933667
H518	H	1.100172	0.135516	1.433667
H519	H	0.603118	-0.404295	0.979119
H520	H	1.103118	0.095705	1.479119
C521	C	0.825358	-1.059790	0.182330
C522	C	1.325358	-0.559790	0.682330
C523	C	0.814021	-1.046583	0.130572
C524	C	1.314021	-0.546583	0.630572
C525	C	0.847424	-1.073878	0.097105
C526	C	1.347424	-0.573878	0.597105
H527	H	0.860499	-1.050836	0.189957
H528	H	1.360499	-0.550836	0.689957
H529	H	0.820559	-1.096222	0.187106
H530	H	1.320559	-0.596222	0.687106
H531	H	0.818825	-1.010159	0.125798
H532	H	1.318825	-0.510159	0.625798
H533	H	0.778887	-1.055539	0.122929
H534	H	1.278887	-0.555539	0.622929
H535	H	0.842625	-1.110310	0.101880
H536	H	1.342625	-0.610310	0.601880
H537	H	0.882563	-1.064921	0.104736
H538	H	1.382563	-0.564921	0.604736
H539	H	0.839734	-1.064925	0.061982
H540	H	1.339734	-0.564925	0.561982
C541	C	-0.052466	-0.321796	0.321664
C542	C	0.447534	0.178204	0.821664
C543	C	-0.106127	-0.314618	0.314534
C544	C	0.393873	0.185382	0.814534
C545	C	-0.133542	-0.348040	0.347898
C546	C	0.366458	0.151960	0.847898
H547	H	-0.043607	-0.356937	0.313985
H548	H	0.456393	0.143063	0.813985
H549	H	-0.043527	-0.314188	0.356818
H550	H	0.456473	0.185812	0.856818
H551	H	-0.115063	-0.322230	0.279388
H552	H	0.384937	0.177770	0.779388
H553	H	-0.115002	-0.279484	0.322217
H554	H	0.384998	0.220516	0.822217
H555	H	-0.124603	-0.340433	0.383052
H556	H	0.375397	0.159567	0.883052
H557	H	-0.124679	-0.383179	0.340216
H558	H	0.375321	0.116821	0.840216
H559	H	-0.169954	-0.343171	0.343068
H560	H	0.330046	0.156829	0.843068
C561	C	0.685813	-1.059766	0.321784
C562	C	1.185813	-0.559766	0.821784
C563	C	0.656510	-1.024178	0.351037
C564	C	1.156510	-0.524178	0.851037
C565	C	0.623032	-1.051388	0.384513
C566	C	1.123032	-0.551388	0.884513
H567	H	0.663006	-1.081100	0.301823
H568	H	1.163006	-0.581100	0.801823
H569	H	0.705793	-1.081024	0.344620
H570	H	1.205793	-0.581024	0.844620
H571	H	0.636532	-1.002928	0.328204
H572	H	1.136532	-0.502928	0.828204
H573	H	0.679303	-1.002843	0.371009
H574	H	1.179303	-0.502843	0.871009
H575	H	0.643012	-1.072647	0.407349
H576	H	1.143012	-0.572647	0.907349
H577	H	0.600229	-1.072722	0.364548
H578	H	1.100229	-0.572722	0.864548
H579	H	0.603149	-1.027247	0.404369
H580	H	1.103149	-0.527247	0.904369
C581	C	0.858696	-0.694627	0.148977
C582	C	1.358696	-0.194627	0.648977
C583	C	0.851515	-0.640966	0.156103
C584	C	1.351515	-0.140966	0.656103
C585	C	0.884911	-0.613550	0.122715
C586	C	1.384911	-0.113550	0.622715
H587	H	0.893843	-0.703481	0.156637
H588	H	1.393843	-0.203481	0.656637
H589	H	0.851067	-0.703571	0.113829
H590	H	1.351067	-0.203571	0.613829
H591	H	0.859147	-0.632026	0.191243
H592	H	1.359147	-0.132026	0.691243
H593	H	0.816375	-0.632097	0.148439
H594	H	1.316375	-0.132097	0.648439
H595	H	0.877282	-0.622494	0.087567
H596	H	1.377282	-0.122494	0.587567
H597	H	0.920056	-0.622408	0.130378
H598	H	1.420056	-0.122408	0.630378
H599	H	0.880040	-0.577138	0.127542
H600	H	1.380040	-0.077138	0.627542
C601	C	0.685636	-0.557430	0.321735
C602	C	1.185636	-0.057430	0.821735
C603	C	0.656329	-0.521846	0.350989
C604	C	1.156329	-0.021846	0.850989
C605	C	0.622859	-0.549060	0.384468
C606	C	1.122859	-0.049060	0.884468
H607	H	0.662831	-0.578768	0.301775
H608	H	1.162831	-0.078768	0.801775
H609	H	0.705621	-0.578685	0.344569
H610	H	1.205621	-0.078685	0.844569
H611	H	0.636346	-0.500600	0.328157
H612	H	1.136346	-0.000600	0.828157
H613	H	0.679121	-0.500507	0.370959
H614	H	1.179121	-0.000507	0.870959
H615	H	0.642844	-0.570316	0.407303
H616	H	1.142844	-0.070316	0.907303
H617	H	0.600057	-0.570398	0.364505
H618	H	1.100057	-0.070398	0.864505
H619	H	0.602974	-0.524921	0.404325
H620	H	1.102974	-0.024921	0.904325
H621	H	0.816159	-0.550030	0.191408
H622	H	1.316159	-0.050030	0.691408
H623	H	0.816300	-0.953325	0.191448
H624	H	1.316300	-0.453325	0.691448
H625	H	0.816288	-0.191174	0.953941
H626	H	1.316288	0.308826	1.453941
C627	C	0.652220	-0.355038	0.809074
C628	C	1.152220	0.144962	1.309074
C629	C	0.622903	-0.384306	0.773459
C630	C	1.122903	0.115694	1.273459
C631	C	0.589364	-0.417754	0.800636
C632	C	1.089364	0.082246	1.300636
H633	H	0.672140	-0.377869	0.830382
H634	H	1.172140	0.122131	1.330382
H635	H	0.629428	-0.335039	0.830357
H636	H	1.129428	0.164961	1.330357
H637	H	0.645692	-0.404304	0.752184
H638	H	1.145692	0.095696	1.252184
H639	H	0.602973	-0.361489	0.752150
H640	H	1.102973	0.138511	1.252150
H641	H	0.566572	-0.397754	0.821919
H642	H	1.066572	0.102246	1.321919
H643	H	0.609288	-0.440581	0.821943
H644	H	1.109288	0.059419	1.321943
H645	H	0.569465	-0.437613	0.776475
H646	H	1.069465	0.062387	1.276475
C647	C	0.652355	-0.355076	0.695222
C648	C	1.152355	0.144924	1.195222
C649	C	0.681931	-0.388591	0.663872
C650	C	1.181931	0.111409	1.163872
C651	C	0.648556	-0.422067	0.636480
C652	C	1.148556	0.077933	1.136480
H653	H	0.632416	-0.375030	0.719235
H654	H	1.132416	0.124970	1.219235
H655	H	0.629595	-0.335092	0.673885
H656	H	1.129595	0.164908	1.173885
H657	H	0.704681	-0.408573	0.685207
H658	H	1.204681	0.091427	1.185207
H659	H	0.701868	-0.368651	0.639849
H660	H	1.201868	0.131349	1.139849
H661	H	0.625797	-0.402083	0.615143
H662	H	1.125797	0.097917	1.115143
H663	H	0.628619	-0.442018	0.660497
H664	H	1.128619	0.057982	1.160497
H665	H	0.668618	-0.444808	0.615202
H666	H	1.168618	0.055192	1.115202
H667	H	0.694809	-0.312597	0.550617
H668	H	1.194809	0.187403	1.050617
H669	H	0.694798	-0.312619	0.451550
H670	H	1.194798	0.187381	0.951550
