data_functionalizedCrystal
_audit_creation_method	'MofGen! by Chris Wilmer'
_symmetry_space_group_name_H-M	'P1'
_symmetry_Int_Tables_number	1
_symmetry_cell_setting	triclinic
loop_
_symmetry_equiv_pos_as_xyz
  x,y,z
_cell_length_a	15.297475
_cell_length_b	29.839131
_cell_length_c	15.297738
_cell_angle_alpha	99.654354
_cell_angle_beta	72.640597
_cell_angle_gamma	80.343089
loop_
_atom_site_label
_atom_site_type_symbol
_atom_site_fract_x
_atom_site_fract_y
_atom_site_fract_z
Zn1	Zn	1.512415	-0.375873	-0.771322
Zn2	Zn	1.485362	-0.435262	-0.615783
Zn3	Zn	1.330023	-0.344429	-0.588974
Zn4	Zn	1.356812	-0.435225	-0.744385
O5	O	1.421153	-0.397697	-0.680116
O6	O	1.638956	-0.396926	-0.773182
O7	O	1.442223	-0.410070	-0.482093
O8	O	1.354328	-0.285747	-0.613217
O9	O	1.619080	-0.440559	-0.658908
O10	O	1.488330	-0.308849	-0.747187
O11	O	1.328096	-0.343335	-0.462397
O12	O	1.203447	-0.343298	-0.587097
O13	O	1.399986	-0.440495	-0.878092
O14	O	1.223129	-0.410005	-0.701277
O15	O	1.514307	-0.396890	-0.897882
O16	O	1.468199	-0.498110	-0.632789
O17	O	1.373755	-0.498083	-0.727272
C18	C	1.179547	-0.373236	-0.638355
C19	C	1.076191	-0.362785	-0.620512
C20	C	1.420977	-0.514398	-0.680041
C21	C	1.420992	-0.564335	-0.680055
C22	C	0.825874	-0.472400	-0.807648
C23	C	0.922982	-0.482223	-0.824410
C24	C	0.961289	-0.452364	-0.773437
C25	C	0.902478	-0.412681	-0.705699
C26	C	0.805360	-0.402859	-0.688930
C27	C	0.940775	-0.382823	-0.654719
C28	C	0.881964	-0.343140	-0.586981
C29	C	0.784856	-0.333320	-0.570216
C30	C	0.746549	-0.363178	-0.621188
C31	C	1.037893	-0.392645	-0.671488
C32	C	1.017379	-0.323104	-0.552770
C33	C	0.920271	-0.313281	-0.536008
C34	C	1.470454	-0.874019	-0.631024
C35	C	1.470575	-1.061708	-0.631080
O36	O	1.512489	-1.085990	-0.589334
N37	N	1.421358	-1.085166	-0.680220
C38	C	1.372113	-1.061700	-0.729353
O39	O	1.330262	-1.085961	-0.771159
C40	C	1.371998	-0.874014	-0.729302
C41	C	1.421210	-0.850557	-0.680152
C42	C	1.519662	-0.850562	-0.581879
C43	C	1.519627	-0.803642	-0.581861
C44	C	1.470384	-0.780179	-0.630989
C45	C	1.421175	-0.803637	-0.680134
C46	C	1.322759	-0.850550	-0.778441
C47	C	1.322736	-0.803626	-0.778426
C48	C	1.371948	-0.780168	-0.729276
C49	C	1.371896	-0.733254	-0.729245
N50	N	1.421113	-0.709795	-0.680105
C51	C	1.470356	-0.733258	-0.630977
C52	C	1.372175	-1.160238	-0.729375
C53	C	1.372202	-1.207159	-0.729387
C54	C	1.470666	-1.207164	-0.631115
C55	C	1.470632	-1.160241	-0.631098
C56	C	1.421392	-1.136780	-0.680236
C57	C	1.470279	-0.634723	-0.630943
C58	C	1.470236	-0.587798	-0.630927
C59	C	1.371777	-0.587799	-0.729203
C60	C	1.371815	-0.634718	-0.729215
C61	C	1.421073	-0.658180	-0.680084
O62	O	1.330012	-0.708944	-0.770977
O63	O	1.512218	-0.708992	-0.589195
C64	C	1.470488	-0.920939	-0.631042
C65	C	1.421280	-0.944396	-0.680187
C66	C	1.372036	-0.920934	-0.729315
C67	C	1.421307	-0.991318	-0.680199
C68	C	1.470551	-1.014780	-0.631071
C69	C	1.519767	-0.991322	-0.581932
C70	C	1.519732	-0.944402	-0.581914
C71	C	1.322819	-0.944392	-0.778455
C72	C	1.322857	-0.991312	-0.778467
C73	C	1.372101	-1.014775	-0.729340
C74	C	1.663703	-0.422254	-0.722040
C75	C	1.767063	-0.432719	-0.739906
C76	C	1.463152	-0.422196	-0.922673
C77	C	1.481050	-0.432636	-1.026036
C78	C	1.421358	-0.280545	-0.680216
C79	C	1.421446	-0.230622	-0.680259
C80	C	1.548878	-0.472286	-1.084852
C81	C	1.565699	-0.482092	-1.181967
C82	C	1.514689	-0.452250	-1.220276
C83	C	1.446855	-0.412600	-1.161459
C84	C	1.430037	-0.402791	-1.064334
C85	C	1.395848	-0.382755	-1.199758
C86	C	1.328014	-0.343105	-1.140941
C87	C	1.311199	-0.333299	-1.043826
C88	C	1.362209	-0.363141	-1.005518
C89	C	1.412666	-0.392563	-1.296883
C90	C	1.293825	-0.323069	-1.276365
C91	C	1.277004	-0.313263	-1.179249
C92	C	1.379371	-0.373267	-0.438513
C93	C	1.361653	-0.362719	-0.335181
H94	H	1.085768	-0.424955	-0.726642
H95	H	1.040360	-0.460364	-0.787089
O96	O	1.567663	-0.873305	-0.534223
C97	C	1.718133	-0.899028	-0.516619
C98	C	1.663872	-0.873265	-0.570658
H99	H	1.795931	-0.899013	-0.546069
H100	H	1.688949	-0.880587	-0.438810
H101	H	1.709691	-0.936591	-0.525012
H102	H	1.672291	-0.835700	-0.562342
H103	H	1.693068	-0.891742	-0.648445
O104	O	1.518523	-1.137532	-0.583343
C105	C	1.616133	-1.142492	-0.485819
C106	C	1.561951	-1.168265	-0.539882
H107	H	1.651243	-1.167325	-0.450650
H108	H	1.672169	-1.129743	-0.536909
H109	H	1.565034	-1.111311	-0.429817
H110	H	1.612977	-1.199463	-0.595883
H111	H	1.505903	-1.180979	-0.488734
H112	H	1.048568	-0.298791	-0.511263
O113	O	0.862999	-0.274767	-0.470208
C114	C	0.704304	-0.228807	-0.391809
C115	C	0.769054	-0.272445	-0.466338
H116	H	0.628339	-0.226910	-0.388669
H117	H	0.710307	-0.230983	-0.320052
H118	H	0.726348	-0.196202	-0.411579
H119	H	0.747053	-0.305072	-0.446656
H120	H	0.763042	-0.270228	-0.538075
H121	H	1.510310	-0.568700	-0.590899
H122	H	0.970859	-0.514534	-0.879561
H123	H	1.221774	-0.280980	-1.131347
H124	H	1.467898	-0.424846	-1.344763
O125	O	1.598390	-0.501339	-1.047729
C126	C	1.638188	-0.579300	-1.025683
C127	C	1.582082	-0.546449	-1.067792
H128	H	1.625007	-0.615776	-1.041871
H129	H	1.716512	-0.580976	-1.057760
H130	H	1.614528	-0.565454	-0.946175
H131	H	1.605662	-0.560269	-1.147298
H132	H	1.503769	-0.544775	-1.035642
O133	O	1.518553	-1.230046	-0.583539
C134	C	1.562332	-1.302358	-0.540129
C135	C	1.508035	-1.276492	-0.594012
H136	H	1.553831	-1.339912	-0.548561
H137	H	1.640143	-1.302361	-0.569559
H138	H	1.533164	-1.283936	-0.462312
H139	H	1.537123	-1.294894	-0.671836
H140	H	1.430230	-1.276486	-0.564506
H141	H	1.252291	-0.298768	-1.307555
H142	H	1.332119	-1.226253	-0.769400
H143	H	0.794674	-0.496709	-0.849137
O144	O	1.518137	-0.657433	-0.583131
C145	C	1.615828	-0.652478	-0.485692
C146	C	1.561658	-0.626701	-0.539787
H147	H	1.651045	-0.627646	-0.450651
H148	H	1.564799	-0.665229	-0.429609
H149	H	1.671802	-0.683657	-0.536832
H150	H	1.505684	-0.595504	-0.488720
H151	H	1.612746	-0.613985	-0.595883
H152	H	1.559703	-0.784546	-0.541842
H153	H	1.559860	-1.010433	-0.541927
H154	H	1.332075	-1.141140	-0.769390
O155	O	1.274943	-0.873266	-0.826273
C156	C	1.177252	-0.868285	-0.923716
C157	C	1.231384	-0.842507	-0.869598
H158	H	1.142004	-0.843425	-0.958742
H159	H	1.228313	-0.899443	-0.979813
H160	H	1.121306	-0.881066	-0.872594
H161	H	1.287329	-0.829695	-0.920647
H162	H	1.180264	-0.811372	-0.813489
H163	H	1.282640	-0.784527	-0.818443
H164	H	1.528389	-0.460236	-1.299352
O165	O	1.323994	-0.657444	-0.777038
C166	C	1.226293	-0.652475	-0.874472
C167	C	1.280418	-0.626689	-0.820359
H168	H	1.191031	-0.627619	-0.909495
H169	H	1.277361	-0.683630	-0.930571
H170	H	1.170359	-0.665262	-0.823348
H171	H	1.336352	-0.613872	-0.871410
H172	H	1.229291	-0.595557	-0.764247
O173	O	0.652183	-0.353618	-0.604719
C174	C	0.497356	-0.342007	-0.491449
C175	C	0.604202	-0.352828	-0.509971
H176	H	0.458533	-0.341375	-0.414852
H177	H	0.474342	-0.306517	-0.506258
H178	H	0.480097	-0.370153	-0.539554
H179	H	0.621540	-0.324712	-0.461879
H180	H	0.627160	-0.388332	-0.495192
H181	H	0.736972	-0.301011	-0.515049
H182	H	1.331680	-0.568687	-0.769199
O183	O	1.567475	-0.921652	-0.534037
C184	C	1.585321	-0.895898	-0.383699
C185	C	1.531186	-0.921678	-0.437809
H186	H	1.555989	-0.895902	-0.305887
H187	H	1.663134	-0.914334	-0.412982
H188	H	1.576873	-0.858338	-0.392169
H189	H	1.539557	-0.959239	-0.429362
H190	H	1.453394	-0.903206	-0.408515
H191	H	1.620930	-0.514374	-1.229850
H192	H	1.282775	-1.010406	-0.818489
H193	H	1.348517	-0.355159	-0.926439
O194	O	1.245251	-0.294773	-0.986820
C195	C	1.129196	-0.226862	-0.976729
C196	C	1.203838	-0.270483	-1.041391
H197	H	1.095706	-0.207206	-1.020826
H198	H	1.072603	-0.237941	-0.922853
H199	H	1.164073	-0.203128	-0.938639
H200	H	1.169044	-0.294236	-1.079545
H201	H	1.260423	-0.259370	-1.095209
H202	H	1.282720	-0.925293	-0.818462
