data_functionalizedCrystal
_audit_creation_method	'MofGen! by Chris Wilmer'
_symmetry_space_group_name_H-M	'P1'
_symmetry_Int_Tables_number	1
_symmetry_cell_setting	triclinic
loop_
_symmetry_equiv_pos_as_xyz
  x,y,z
_cell_length_a	8.497365
_cell_length_b	19.077212
_cell_length_c	19.077068
_cell_angle_alpha	85.291979
_cell_angle_beta	87.757695
_cell_angle_gamma	87.662768
loop_
_atom_site_label
_atom_site_type_symbol
_atom_site_fract_x
_atom_site_fract_y
_atom_site_fract_z
Zn1	Zn	-1.009644	1.066586	0.237253
Zn2	Zn	-0.755998	1.061725	0.355202
Zn3	Zn	-0.735646	0.948660	0.242058
Zn4	Zn	-1.009501	0.943922	0.359831
O5	O	-0.877697	1.005223	0.298586
O6	O	-0.984574	1.164595	0.248951
O7	O	-0.532538	1.046676	0.340267
O8	O	-0.763534	0.968321	0.142770
O9	O	-0.798222	1.161023	0.335608
O10	O	-0.964839	1.054960	0.139240
O11	O	-0.517585	0.963607	0.257141
O12	O	-0.763396	0.849378	0.261629
O13	O	-1.230281	0.960245	0.343497
O14	O	-0.964596	0.845897	0.348156
O15	O	-1.230385	1.050366	0.253440
O16	O	-0.798084	1.042081	0.454466
O17	O	-0.984331	0.955532	0.457867
C18	C	-0.861773	0.822058	0.305917
C19	C	-0.854999	0.743698	0.309070
C20	C	-0.806489	0.302417	0.331655
C21	C	-0.812841	0.376044	0.328688
C22	C	-0.913211	0.414716	0.282161
C23	C	-1.007224	0.379757	0.238593
C24	C	-1.000862	0.306132	0.241556
C25	C	-0.942651	0.635114	0.268465
C26	C	-0.949008	0.708745	0.265507
C27	C	-0.754622	0.705026	0.355601
C28	C	-0.748277	0.631399	0.358563
C29	C	-0.842283	0.596447	0.314993
N30	N	-0.919710	0.489975	0.279130
N31	N	-0.835775	0.521189	0.318021
C32	C	-0.893437	0.997784	0.481745
C33	C	-0.900229	0.994666	0.560099
C34	C	-0.467819	1.005169	0.298665
C35	C	-0.289172	1.005276	0.298516
C36	C	-0.893685	1.189104	0.291227
C37	C	-0.900498	1.267463	0.288091
C38	C	-0.861932	1.012711	0.114711
C39	C	-0.855214	1.015902	0.036355
C40	C	-0.806537	1.038298	0.595114
C41	C	-0.812935	1.035369	0.668735
C42	C	-0.913017	0.988805	0.707340
C43	C	-1.006719	0.945171	0.672320
C44	C	-1.000328	0.948104	0.598700
C45	C	-0.942526	0.975201	0.927714
C46	C	-0.948906	0.972270	1.001339
C47	C	-0.755123	1.062470	0.997750
C48	C	-0.748735	1.065395	0.924128
C49	C	-0.842443	1.021764	0.889114
N50	N	-0.919555	0.985808	0.782593
N51	N	-0.835912	1.024764	0.813862
H52	H	-1.088941	0.411250	0.200707
H53	H	-1.030433	0.934360	1.032769
C54	C	-1.045590	0.927207	0.889204
H55	H	-1.027472	0.935625	0.839829
H56	H	-1.019353	0.879361	0.903219
H57	H	-1.153547	0.937038	0.900797
H58	H	-0.667240	1.103311	0.892697
H59	H	-0.724764	0.270935	0.369546
H60	H	-1.088214	0.907260	0.703758
C61	C	-0.651210	0.743475	0.403518
H62	H	-0.669359	0.792863	0.395087
H63	H	-0.677140	0.729498	0.451379
H64	H	-0.543313	0.731792	0.393638
C65	C	-1.059410	0.751286	0.214323
H66	H	-1.049744	0.800141	0.218806
H67	H	-1.031382	0.741136	0.167434
H68	H	-1.165227	0.738835	0.225165
C69	C	-0.652067	1.110464	1.036266
H70	H	-0.670212	1.102055	1.085640
H71	H	-0.544114	1.100643	1.024677
H72	H	-0.678323	1.158313	1.022250
H73	H	-1.076624	0.912575	0.570191
C74	C	-0.709866	1.083361	0.707249
H75	H	-0.649331	1.111506	0.673714
H76	H	-0.775419	1.112930	0.734681
H77	H	-0.641233	1.055250	0.737107
H78	H	-0.736286	0.404500	0.364161
C79	C	-0.637856	0.588865	0.409737
H80	H	-0.582764	0.620228	0.435253
H81	H	-0.698242	0.558916	0.441632
H82	H	-0.564414	0.561217	0.383892
H83	H	-1.077409	0.277673	0.206080
C84	C	-1.046063	0.596675	0.220543
H85	H	-1.106761	0.630253	0.192416
H86	H	-0.980711	0.569180	0.190958
H87	H	-1.114547	0.566883	0.248695
H88	H	-0.725033	1.076212	0.563686
