data_functionalizedCrystal
_audit_creation_method	'MofGen! by Chris Wilmer'
_symmetry_space_group_name_H-M	'P1'
_symmetry_Int_Tables_number	1
_symmetry_cell_setting	triclinic
loop_
_symmetry_equiv_pos_as_xyz
  x,y,z
_cell_length_a	6.817900
_cell_length_b	9.581016
_cell_length_c	15.301126
_cell_angle_alpha	89.575126
_cell_angle_beta	104.177575
_cell_angle_gamma	61.805584
loop_
_atom_site_label
_atom_site_type_symbol
_atom_site_fract_x
_atom_site_fract_y
_atom_site_fract_z
V1	V	-4.209110	0.493551	-0.122112
O2	O	-4.189398	0.483661	0.008589
O3	O	-4.162990	0.490651	-0.244745
O4	O	-4.238591	0.708589	-0.119040
O5	O	-4.113274	0.264215	-0.117986
V6	V	-4.682351	0.466063	-0.106620
O7	O	-4.492923	0.553849	-0.156096
O8	O	-4.848735	0.405765	-0.072636
O9	O	-4.505264	0.468963	0.016013
O10	O	-4.819459	0.475953	-0.237321
O11	O	-4.895583	0.695399	-0.110746
O12	O	-4.429664	0.251025	-0.109692
C13	C	-4.006026	0.482988	-0.274677
C14	C	-4.050123	0.482050	-0.374923
C15	C	-4.255941	0.489515	-0.426569
C16	C	-4.297369	0.488644	-0.520761
C17	C	-4.132970	0.480295	-0.563305
C18	C	-3.927138	0.472834	-0.511652
C19	C	-3.885720	0.473718	-0.417463
C20	C	-4.013478	0.470990	-0.707973
C21	C	-4.054896	0.470104	-0.802169
C22	C	-4.425127	0.485917	-0.811272
C23	C	-4.383709	0.486800	-0.717082
C24	C	-4.177877	0.479336	-0.665436
C25	C	-4.229134	0.198619	-0.114408
C26	C	-4.102969	0.022820	-0.116104
C27	C	-4.102460	0.760987	-0.114327
C28	C	-4.207862	0.936784	-0.112627
C29	C	-4.325569	0.476622	0.045940
C30	C	-4.260714	0.477569	0.146185
H31	H	-4.464964	0.494725	-0.562808
H32	H	-3.916636	-0.038020	-0.120382
O33	O	-4.433277	0.498548	-0.380686
H34	H	-4.583371	0.503618	-0.432429
O35	O	-4.561063	0.495843	-0.671207
H36	H	-4.588207	0.391163	-0.682424
O37	O	-4.647146	0.493983	-0.866969
H38	H	-4.648351	0.491989	-0.939614
O39	O	-4.454669	0.017355	-0.106964
H40	H	-4.460796	-0.035264	-0.043480
H41	H	-3.921055	0.463353	-0.836809
O42	O	-3.791485	0.462954	-0.652265
H43	H	-3.694148	0.354665	-0.600080
O44	O	-3.749833	0.463848	-0.557540
H45	H	-3.583483	0.351912	-0.528227
H46	H	-3.718129	0.467645	-0.375414
