data_functionalizedCrystal
_audit_creation_method	'MofGen! by Chris Wilmer'
_symmetry_space_group_name_H-M	'P1'
_symmetry_Int_Tables_number	1
_symmetry_cell_setting	triclinic
loop_
_symmetry_equiv_pos_as_xyz
  x,y,z
_cell_length_a	10.489741
_cell_length_b	17.038272
_cell_length_c	8.965430
_cell_angle_alpha	90.000179
_cell_angle_beta	89.998843
_cell_angle_gamma	87.825365
loop_
_atom_site_label
_atom_site_type_symbol
_atom_site_fract_x
_atom_site_fract_y
_atom_site_fract_z
O1	O	1.704377	0.110369	-0.123948
O2	O	1.334150	0.120730	-0.123972
O3	O	1.517063	0.001722	-0.123948
O4	O	1.521464	0.229378	-0.123972
O5	O	1.517047	0.001729	0.124130
O6	O	1.334134	0.120738	0.124107
O7	O	1.704361	0.110377	0.124130
Cu8	Cu	1.519246	0.115558	0.146770
Cu9	Cu	1.519265	0.115549	-0.146612
O10	O	1.521448	0.229386	0.124107
C11	C	1.286537	0.119951	0.000065
C12	C	1.144689	0.117610	0.000056
C13	C	1.069466	0.041889	0.000078
C14	C	0.980693	0.077655	-0.122238
C15	C	0.980713	0.077681	0.122348
C16	C	1.057784	0.153408	-0.122361
C17	C	1.057813	0.153423	0.122335
C18	C	0.969072	0.189244	-0.000011
C19	C	1.513053	-0.027426	0.000091
C20	C	1.501111	-0.114288	0.000089
C21	C	1.610749	-0.163767	0.000098
C22	C	1.599521	-0.245383	0.000083
C23	C	1.478654	-0.277518	0.000070
C24	C	1.369007	-0.228032	0.000057
C25	C	1.380237	-0.146418	0.000062
C26	C	1.438983	-0.523505	0.000047
C27	C	1.427762	-0.605126	0.000048
C28	C	1.658277	-0.622471	0.000071
C29	C	1.669495	-0.540855	0.000084
C30	C	1.559849	-0.491376	0.000063
C31	C	1.467174	-0.360942	0.000060
C32	C	1.571330	-0.407954	0.000063
C33	C	1.751974	0.111156	0.000091
C34	C	1.893822	0.113497	0.000089
C35	C	1.525458	0.258533	0.000065
C36	C	1.537400	0.345395	0.000056
N37	N	1.519243	0.115564	0.353119
N38	N	1.519278	0.115537	-0.352961
C39	C	1.434622	0.170583	0.450415
C40	C	1.551599	0.186413	0.549834
C41	C	1.402315	0.099741	0.549828
C42	C	1.636282	0.131430	0.450350
C43	C	1.486918	0.044727	0.450335
C44	C	1.603976	0.060527	0.549709
H45	H	1.709172	-0.137610	0.000117
O46	O	1.786810	-0.509512	0.000146
C47	C	1.906265	-0.391469	0.000054
C48	C	1.773329	-0.426860	0.000015
H49	H	1.895411	-0.324640	-0.000084
H50	H	1.960919	-0.411735	0.103898
H51	H	1.960888	-0.411840	-0.103743
H52	H	1.718600	-0.406505	0.103742
H53	H	1.718773	-0.406597	-0.103898
O54	O	1.098274	0.191669	-0.245720
C55	C	1.211933	0.301010	-0.342046
C56	C	1.166180	0.257750	-0.202220
H57	H	1.266821	0.354454	-0.306927
H58	H	1.276850	0.259769	-0.410673
H59	H	1.125907	0.320860	-0.412066
H60	H	1.252128	0.237895	-0.132085
H61	H	1.101222	0.299019	-0.133705
H62	H	1.270594	-0.254202	0.000038
O63	O	1.121613	-0.032418	0.000136
C64	C	1.139979	-0.156789	0.127798
C65	C	1.080812	-0.072668	0.127912
H66	H	1.107036	-0.189350	0.231109
H67	H	1.108364	-0.188982	0.023460
H68	H	1.248425	-0.154289	0.128782
H69	H	0.972361	-0.075096	0.126981
H70	H	1.112528	-0.040508	0.232241
O71	O	1.284236	0.083875	0.601775
C72	C	1.061595	0.124008	0.610302
C73	C	1.195244	0.142050	0.551353
H74	H	0.989613	0.171040	0.569585
H75	H	1.033230	0.064106	0.567621
H76	H	1.063020	0.123547	0.737445
H77	H	1.193921	0.142554	0.424214
H78	H	1.223556	0.201940	0.594148
O79	O	0.917199	0.263617	0.000106
C80	C	0.899241	0.387960	0.127911
C81	C	0.958100	0.303764	0.127953
H82	H	0.932264	0.420438	0.231280
H83	H	0.931019	0.420140	0.023630
H84	H	0.790775	0.385613	0.128833
H85	H	1.066569	0.306039	0.127084
H86	H	0.926220	0.271617	0.232225
H87	H	1.747544	-0.662765	0.000085
H88	H	0.946688	0.045612	-0.225643
O89	O	1.349355	0.226078	0.398133
C90	C	1.253098	0.287864	0.181868
C91	C	1.349673	0.224975	0.240879
H92	H	1.253342	0.287004	0.054722
H93	H	1.153618	0.274987	0.224380
H94	H	1.280906	0.348202	0.222834
H95	H	1.321983	0.164612	0.199937
H96	H	1.449128	0.237919	0.198379
O97	O	0.939957	0.039446	0.245610
C98	C	0.759640	-0.004899	0.384458
C99	C	0.805618	0.038409	0.244795
H100	H	0.651022	-0.005737	0.383861
H101	H	0.801030	-0.067742	0.384304
H102	H	0.792840	0.026771	0.488669
H103	H	0.772432	0.006805	0.140509
H104	H	0.764238	0.101254	0.245080
H105	H	1.735209	0.144873	0.406837
O106	O	1.332346	-0.475561	0.000113
C107	C	1.102523	-0.466978	0.000030
C108	C	1.223189	-0.521368	-0.000017
H109	H	1.014239	-0.503991	-0.000107
H110	H	1.101922	-0.428351	0.103877
H111	H	1.102085	-0.428316	-0.103764
H112	H	1.223706	-0.560079	0.103706
H113	H	1.223743	-0.559942	-0.103933
O114	O	1.273642	-0.098430	-0.000143
C115	C	1.080114	-0.058595	-0.128738
C116	C	1.200767	-0.112998	-0.128663
H117	H	1.021174	-0.070342	-0.232650
H118	H	1.020968	-0.070370	-0.024994
H119	H	1.108932	0.005249	-0.128665
H120	H	1.172063	-0.176861	-0.128787
H121	H	1.259883	-0.101155	-0.232397
O122	O	1.454014	-0.026672	0.398211
C123	C	1.293528	-0.124084	0.389743
C124	C	1.330637	-0.043207	0.448848
H125	H	1.193787	-0.137485	0.430685
H126	H	1.294663	-0.123563	0.262595
H127	H	1.364718	-0.171109	0.432281
H128	H	1.259484	0.003863	0.406421
H129	H	1.329542	-0.043795	0.575994
H130	H	1.669740	-0.381786	0.000040
O131	O	1.584065	0.257861	0.602166
C132	C	1.520972	0.370909	0.749942
C133	C	1.484070	0.289996	0.690815
H134	H	1.440136	0.396921	0.821600
H135	H	1.611418	0.364030	0.819975
H136	H	1.538654	0.411705	0.651919
H137	H	1.466321	0.249158	0.788747
H138	H	1.393659	0.296936	0.620737
O139	O	1.689279	0.004918	0.601476
C140	C	1.721852	-0.113151	0.746695
C141	C	1.625105	-0.050241	0.688138
H142	H	1.670009	-0.157753	0.816798
H143	H	1.770819	-0.144289	0.648496
H144	H	1.796381	-0.083945	0.818228
H145	H	1.550500	-0.079384	0.616628
H146	H	1.576235	-0.019108	0.786404
H147	H	1.091846	0.185439	0.225745
H148	H	1.368763	-0.387115	0.000053
H149	H	1.688801	-0.285666	0.000093
H150	H	1.329333	-0.631286	0.000062
