data_functionalizedCrystal
_audit_creation_method	'MofGen! by Chris Wilmer'
_symmetry_space_group_name_H-M	'P1'
_symmetry_Int_Tables_number	1
_symmetry_cell_setting	triclinic
loop_
_symmetry_equiv_pos_as_xyz
  x,y,z
_cell_length_a	10.654549
_cell_length_b	10.908878
_cell_length_c	9.730223
_cell_angle_alpha	89.996116
_cell_angle_beta	89.997731
_cell_angle_gamma	72.284784
loop_
_atom_site_label
_atom_site_type_symbol
_atom_site_fract_x
_atom_site_fract_y
_atom_site_fract_z
O1	O	1.628707	0.180023	-0.114256
O2	O	1.259500	0.197175	-0.114265
O3	O	1.493046	0.002103	-0.114254
O4	O	1.395160	0.375095	-0.114267
O5	O	1.493035	0.002097	0.114326
O6	O	1.259488	0.197170	0.114315
O7	O	1.628695	0.180018	0.114324
Zn8	Zn	1.444090	0.188593	0.150612
Zn9	Zn	1.444105	0.188600	-0.150552
O10	O	1.395149	0.375090	0.114313
C11	C	1.212970	0.195913	0.000024
C12	C	1.074345	0.192145	0.000020
C13	C	0.839635	0.303451	0.000022
C14	C	0.969884	0.307001	0.000014
C15	C	1.048553	0.073732	0.000021
C16	C	0.918306	0.070184	0.000020
C17	C	1.502188	-0.045660	0.000035
C18	C	1.529431	-0.187970	0.000031
C19	C	1.430027	-0.237864	0.000026
C20	C	1.458182	-0.384948	0.000022
C21	C	1.675225	0.181280	0.000033
C22	C	1.813849	0.185047	0.000027
C23	C	1.386006	0.422853	0.000022
C24	C	1.358764	0.565163	0.000017
N25	N	1.444089	0.188587	0.356148
N26	N	1.444118	0.188595	-0.356089
C27	C	1.547525	0.102246	0.428079
C28	C	1.547537	0.102246	0.571962
C29	C	1.340672	0.274941	0.571970
C30	C	1.340656	0.274933	0.428090
H31	H	0.754588	0.396980	0.000027
H32	H	1.256461	0.345243	0.630560
F33	F	0.997320	0.433023	0.000003
H34	H	1.631745	0.031936	0.369507
F35	F	1.657625	0.010348	0.648511
F36	F	1.291543	-0.151375	0.000031
H37	H	1.256420	0.345243	0.369520
H38	H	1.133617	-0.019785	0.000018
H39	H	0.897317	-0.026240	0.000019
H40	H	1.252809	-0.368668	0.000027
F41	F	1.596673	-0.471434	0.000033
F42	F	1.667915	-0.274459	0.000042
