data_functionalizedCrystal
_audit_creation_method	'MofGen! by Chris Wilmer'
_symmetry_space_group_name_H-M	'P1'
_symmetry_Int_Tables_number	1
_symmetry_cell_setting	triclinic
loop_
_symmetry_equiv_pos_as_xyz
  x,y,z
_cell_length_a	10.654534
_cell_length_b	13.930277
_cell_length_c	10.654550
_cell_angle_alpha	90.004374
_cell_angle_beta	95.518333
_cell_angle_gamma	89.991994
loop_
_atom_site_label
_atom_site_type_symbol
_atom_site_fract_x
_atom_site_fract_y
_atom_site_fract_z
O1	O	-1.667858	0.079849	0.176303
O2	O	-1.167858	0.579849	0.676303
O3	O	-1.302377	0.079847	0.193130
O4	O	-0.802377	0.579847	0.693130
O5	O	-1.493520	0.079842	0.001977
O6	O	-0.993520	0.579842	0.501977
O7	O	-1.476714	0.079854	0.367456
O8	O	-0.976714	0.579854	0.867456
O9	O	-1.493494	-0.079820	0.001972
O10	O	-0.993494	0.420180	0.501972
O11	O	-1.302350	-0.079815	0.193125
O12	O	-0.802350	0.420185	0.693125
O13	O	-1.667831	-0.079813	0.176298
O14	O	-1.167831	0.420187	0.676298
Zn15	Zn	-1.485086	-0.105164	0.184711
Zn16	Zn	-0.985086	0.394836	0.684711
Zn17	Zn	-1.485122	0.105197	0.184717
Zn18	Zn	-0.985122	0.605197	0.684717
O19	O	-1.476688	-0.079808	0.367452
O20	O	-0.976688	0.420192	0.867452
C21	C	-1.255565	0.000015	0.191896
C22	C	-0.755565	0.500015	0.691896
C23	C	-1.116121	0.000015	0.188212
C24	C	-0.616121	0.500015	0.688212
N25	N	-1.485071	-0.248730	0.184707
N26	N	-0.985071	0.251270	0.684707
C27	C	-1.050601	-0.087019	0.186476
C28	C	-0.550601	0.412981	0.686476
C29	C	-0.919581	-0.087021	0.182993
C30	C	-0.419581	0.412979	0.682993
C31	C	-0.919611	0.087051	0.182990
C32	C	-0.419611	0.587051	0.682990
C33	C	-1.050630	0.087052	0.186463
C34	C	-0.550630	0.587052	0.686463
C35	C	-1.400480	-0.700997	0.269326
C36	C	-0.900480	-0.200997	0.769326
C37	C	-1.569798	-0.700971	0.100098
C38	C	-1.069798	-0.200971	0.600098
C39	C	-1.569783	-0.600475	0.100094
C40	C	-1.069783	-0.100475	0.600094
C41	C	-1.485116	-0.550236	0.184709
C42	C	-0.985116	-0.050236	0.684709
C43	C	-1.400465	-0.600492	0.269327
C44	C	-0.900465	-0.100492	0.769327
C45	C	-1.654442	-0.550211	0.015486
C46	C	-1.154442	-0.050211	0.515486
C47	C	-1.654431	-0.449709	0.015479
C48	C	-1.154431	0.050291	0.515479
C49	C	-1.569758	-0.399468	0.100089
C50	C	-1.069758	0.100532	0.600089
C51	C	-1.485101	-0.449731	0.184710
C52	C	-0.985101	0.050269	0.684710
C53	C	-1.400435	-0.399491	0.269324
C54	C	-0.900435	0.100509	0.769324
C55	C	-1.315771	-0.449752	0.353940
C56	C	-0.815771	0.050248	0.853940
C57	C	-1.315791	-0.550251	0.353936
C58	C	-0.815791	-0.050251	0.853936
C59	C	-1.569738	-0.298969	0.100092
C60	C	-1.069738	0.201031	0.600092
C61	C	-1.400420	-0.298986	0.269325
C62	C	-0.900420	0.201014	0.769325
C63	C	-0.714642	0.000016	0.177542
C64	C	-0.214642	0.500016	0.677542
C65	C	-0.854082	0.000011	0.181257
C66	C	-0.354082	0.500011	0.681257
C67	C	-1.492273	0.000011	-0.044824
C68	C	-0.992273	0.500011	0.455176
C69	C	-1.488581	0.000013	-0.184267
C70	C	-0.988581	0.500013	0.315733
N71	N	-1.485146	0.248764	0.184712
N72	N	-0.985146	0.748764	0.684712
C73	C	-1.601123	0.000014	-0.263759
C74	C	-1.101123	0.500014	0.236241
C75	C	-1.597647	0.000025	-0.394779
C76	C	-1.097647	0.500025	0.105221
C77	C	-1.369076	0.000031	-0.366803
C78	C	-0.869076	0.500031	0.133197
C79	C	-1.372554	0.000026	-0.235785
C80	C	-0.872554	0.500026	0.264215
C81	C	-1.477935	0.000024	0.414252
C82	C	-0.977935	0.500024	0.914252
C83	C	-1.481627	0.000029	0.553695
C84	C	-0.981627	0.500029	1.053695
H85	H	-1.103920	-0.157891	0.187900
H86	H	-0.603920	0.342109	0.687900
F87	F	-1.744532	-0.396225	-0.074576
F88	F	-1.244532	0.103775	0.425424
F89	F	-1.120366	0.179690	0.188303
F90	F	-0.620366	0.679690	0.688303
F91	F	-1.245598	0.000046	-0.421644
F92	F	-0.745598	0.500046	0.078356
F93	F	-1.310297	-0.245525	0.359379
F94	F	-0.810297	0.254475	0.859379
F95	F	-0.849856	-0.179654	0.181146
F96	F	-0.349856	0.320346	0.681146
F97	F	-1.659844	-0.245484	0.010051
F98	F	-1.159844	0.254516	0.510051
F99	F	-1.310374	-0.754486	0.359372
F100	F	-0.810374	-0.254486	0.859372
F101	F	-1.724610	0.000000	-0.208933
F102	F	-1.224610	0.500000	0.291067
H103	H	-1.246840	-0.408836	0.422839
H104	H	-0.746840	0.091164	0.922839
F105	F	-1.225696	-0.603745	0.443986
F106	F	-0.725696	-0.103745	0.943986
H107	H	-1.280902	0.000028	-0.171059
H108	H	-0.780902	0.500028	0.328941
H109	H	-0.866272	0.157914	0.181567
H110	H	-0.366272	0.657914	0.681567
H111	H	-1.689291	0.000028	-0.459497
H112	H	-1.189291	0.500028	0.040503
H113	H	-1.638738	-0.741879	0.031214
H114	H	-1.138738	-0.241879	0.531214
F115	F	-1.744554	-0.603679	-0.074555
F116	F	-1.244554	-0.103679	0.425445
