data_functionalizedCrystal
_audit_creation_method	'MofGen! by Chris Wilmer'
_symmetry_space_group_name_H-M	'P1'
_symmetry_Int_Tables_number	1
_symmetry_cell_setting	triclinic
loop_
_symmetry_equiv_pos_as_xyz
  x,y,z
_cell_length_a	29.839134
_cell_length_b	18.101396
_cell_length_c	29.839135
_cell_angle_alpha	89.997490
_cell_angle_beta	89.982086
_cell_angle_gamma	90.032371
loop_
_atom_site_label
_atom_site_type_symbol
_atom_site_fract_x
_atom_site_fract_y
_atom_site_fract_z
Zn1	Zn	-0.686708	0.295099	0.254161
Zn2	Zn	-0.353374	0.628433	0.587495
Zn3	Zn	-0.020041	0.961766	0.920828
Zn4	Zn	-0.686653	0.418895	0.179038
Zn5	Zn	-0.353320	0.752229	0.512371
Zn6	Zn	-0.019987	1.085562	0.845705
Zn7	Zn	-0.611598	0.295062	0.179029
Zn8	Zn	-0.278265	0.628396	0.512362
Zn9	Zn	0.055069	0.961729	0.845695
Zn10	Zn	-0.611544	0.418894	0.254124
Zn11	Zn	-0.278211	0.752227	0.587457
Zn12	Zn	0.055123	1.085560	0.920791
O13	O	-0.649126	0.356988	0.216588
O14	O	-0.315792	0.690321	0.549921
O15	O	0.017541	1.023654	0.883255
O16	O	-0.749568	0.311538	0.244215
O17	O	-0.416234	0.644871	0.577549
O18	O	-0.082901	0.978204	0.910882
O19	O	-0.676697	0.402454	0.116170
O20	O	-0.343363	0.735787	0.449503
O21	O	-0.010030	1.069121	0.782836
O22	O	-0.621607	0.191434	0.189007
O23	O	-0.288274	0.524768	0.522340
O24	O	0.045060	0.858101	0.855673
O25	O	-0.749528	0.402490	0.189023
O26	O	-0.416194	0.735823	0.522356
O27	O	-0.082861	1.069157	0.855689
O28	O	-0.676790	0.191462	0.244206
O29	O	-0.343456	0.524795	0.577540
O30	O	-0.010123	0.858128	0.910873
O31	O	-0.621554	0.311474	0.116163
O32	O	-0.288221	0.644808	0.449496
O33	O	0.045113	0.978141	0.782829
O34	O	-0.548724	0.311472	0.188971
O35	O	-0.215390	0.644806	0.522304
O36	O	0.117943	0.978139	0.855637
O37	O	-0.621515	0.402487	0.316996
O38	O	-0.288181	0.735820	0.650329
O39	O	0.045152	1.069153	0.983663
O40	O	-0.548684	0.402451	0.244143
O41	O	-0.215351	0.735784	0.577476
O42	O	0.117983	1.069117	0.910810
O43	O	-0.676737	0.311536	0.317023
O44	O	-0.343404	0.644869	0.650357
O45	O	-0.010071	0.978202	0.983690
O46	O	-0.676644	0.522528	0.188986
O47	O	-0.343311	0.855861	0.522320
O48	O	-0.009978	1.189195	0.855653
O49	O	-0.621462	0.522527	0.244152
O50	O	-0.288129	0.855860	0.577485
O51	O	0.045205	1.189193	0.910819
C52	C	-0.532403	0.356958	0.216552
C53	C	-0.199070	0.690291	0.549885
C54	C	0.134263	1.023625	0.883219
C55	C	-0.482469	0.356963	0.216547
C56	C	-0.149135	0.690296	0.549881
C57	C	0.184198	1.023630	0.883214
C58	C	-0.172814	0.404437	0.245267
C59	C	0.160519	0.737770	0.578600
C60	C	0.493853	1.071103	0.911933
C61	C	0.014859	0.404460	0.245281
C62	C	0.348192	0.737794	0.578614
C63	C	0.681526	1.071127	0.911948
O64	O	0.039133	0.444786	0.269687
O65	O	0.372467	0.778119	0.603021
O66	O	0.705800	1.111453	0.936354
N67	N	0.038316	0.357024	0.216601
N68	N	0.371650	0.690358	0.549935
N69	N	0.704983	1.023691	0.883268
C70	C	0.014853	0.309576	0.187918
C71	C	0.348186	0.642909	0.521251
C72	C	0.681519	0.976243	0.854585
O73	O	0.039111	0.269224	0.163528
O74	O	0.372444	0.602557	0.496861
O75	O	0.705778	0.935891	0.830194
C76	C	-0.172820	0.309549	0.187906
C77	C	0.160514	0.642883	0.521239
C78	C	0.493847	0.976216	0.854573
C79	C	-0.196275	0.356993	0.216585
C80	C	0.137059	0.690327	0.549918
C81	C	0.470392	1.023660	0.883251
C82	C	-0.196269	0.451876	0.273943
C83	C	0.137064	0.785210	0.607277
C84	C	0.470397	1.118543	0.940610
C85	C	-0.243185	0.451873	0.273938
C86	C	0.090149	0.785206	0.607271
C87	C	0.423482	1.118540	0.940604
C88	C	-0.266645	0.404430	0.245256
C89	C	0.066688	0.737763	0.578589
C90	C	0.400022	1.071096	0.911922
C91	C	-0.243190	0.356990	0.216579
C92	C	0.090143	0.690323	0.549912
C93	C	0.423477	1.023657	0.883246
C94	C	-0.196282	0.262098	0.159225
C95	C	0.137051	0.595431	0.492559
C96	C	0.470384	0.928764	0.825892
C97	C	-0.243203	0.262094	0.159226
C98	C	0.090130	0.595427	0.492559
C99	C	0.423463	0.928761	0.825892
C100	C	-0.266658	0.309538	0.187904
C101	C	0.066675	0.642871	0.521238
C102	C	0.400008	0.976205	0.854571
C103	C	-0.313566	0.309543	0.187891
C104	C	0.019767	0.642877	0.521225
C105	C	0.353101	0.976210	0.854558
N106	N	-0.337023	0.356979	0.216571
N107	N	-0.003690	0.690312	0.549904
N108	N	0.329643	1.023646	0.883238
C109	C	-0.313563	0.404422	0.245253
C110	C	0.019770	0.737756	0.578587
C111	C	0.353104	1.071089	0.911920
C112	C	0.113383	0.309594	0.187925
C113	C	0.446717	0.642928	0.521259
C114	C	0.780050	0.976261	0.854592
C115	C	0.160301	0.309602	0.187928
C116	C	0.493634	0.642935	0.521261
C117	C	0.826968	0.976268	0.854594
C118	C	0.160304	0.404485	0.245292
C119	C	0.493637	0.737819	0.578625
C120	C	0.826971	1.071152	0.911958
C121	C	0.113385	0.404481	0.245287
C122	C	0.446719	0.737814	0.578620
C123	C	0.780052	1.071148	0.911953
C124	C	0.089926	0.357030	0.216605
C125	C	0.423259	0.690363	0.549939
C126	C	0.756592	1.023697	0.883272
C127	C	-0.412089	0.404412	0.245239
C128	C	-0.078755	0.737745	0.578572
C129	C	0.254578	1.071078	0.911906
C130	C	-0.459008	0.404406	0.245230
C131	C	-0.125675	0.737740	0.578563
C132	C	0.207658	1.071073	0.911896
C133	C	-0.459007	0.309520	0.187867
C134	C	-0.125674	0.642854	0.521201
C135	C	0.207659	0.976187	0.854534
C136	C	-0.412092	0.309528	0.187875
C137	C	-0.078758	0.642862	0.521208
C138	C	0.254575	0.976195	0.854542
C139	C	-0.388634	0.356976	0.216564
C140	C	-0.055300	0.690310	0.549898
C141	C	0.278033	1.023643	0.883231
O142	O	-0.337869	0.269233	0.163501
O143	O	-0.004536	0.602566	0.496835
O144	O	0.328797	0.935899	0.830168
O145	O	-0.337829	0.444757	0.269647
O146	O	-0.004496	0.778090	0.602980
O147	O	0.328837	1.111423	0.936314
C148	C	-0.125899	0.404440	0.245272
C149	C	0.207435	0.737774	0.578606
C150	C	0.540768	1.071107	0.911939
C151	C	-0.102444	0.357001	0.216596
C152	C	0.230890	0.690334	0.549929
C153	C	0.564223	1.023667	0.883263
C154	C	-0.125904	0.309557	0.187914
C155	C	0.207429	0.642891	0.521247
C156	C	0.540763	0.976224	0.854580
C157	C	-0.055526	0.357008	0.216598
C158	C	0.277808	0.690341	0.549931
C159	C	0.611141	1.023675	0.883265
C160	C	-0.032065	0.404451	0.245280
C161	C	0.301268	0.737785	0.578614
C162	C	0.634601	1.071118	0.911947
C163	C	-0.055523	0.451887	0.273960
C164	C	0.277811	0.785220	0.607293
C165	C	0.611144	1.118554	0.940627
C166	C	-0.102438	0.451884	0.273955
C167	C	0.230895	0.785217	0.607288
C168	C	0.564228	1.118550	0.940621
C169	C	-0.102447	0.262121	0.159234
C170	C	0.230887	0.595455	0.492567
C171	C	0.564220	0.928788	0.825901
C172	C	-0.055531	0.262129	0.159241
C173	C	0.277802	0.595463	0.492575
C174	C	0.611136	0.928796	0.825908
C175	C	-0.032071	0.309573	0.187924
C176	C	0.301263	0.642906	0.521257
C177	C	0.634596	0.976239	0.854590
C178	C	-0.649054	0.549398	0.216576
C179	C	-0.315720	0.882732	0.549909
C180	C	0.017613	1.216065	0.883243
C181	C	-0.649064	0.631712	0.216586
C182	C	-0.315730	0.965046	0.549919
C183	C	0.017603	1.298379	0.883253
C184	C	0.233696	0.357022	0.216617
C185	C	0.567029	0.690355	0.549950
C186	C	0.900363	1.023688	0.883283
C187	C	0.183762	0.357045	0.216610
C188	C	0.517095	0.690378	0.549943
C189	C	0.850428	1.023712	0.883277
C190	C	-0.649144	0.930803	0.216612
C191	C	-0.315810	1.264137	0.549945
C192	C	0.017523	1.597470	0.883279
C193	C	-0.614507	0.899508	0.251407
C194	C	-0.281173	1.232841	0.584740
C195	C	0.052160	1.566175	0.918073
C196	C	-0.614348	0.813890	0.251297
C197	C	-0.281014	1.147223	0.584631
C198	C	0.052319	1.480557	0.917964
C199	C	-0.649104	0.782421	0.216600
C200	C	-0.315771	1.115754	0.549933
C201	C	0.017563	1.449087	0.883266
C202	C	-0.636295	0.813537	0.169250
C203	C	-0.302961	1.146871	0.502583
C204	C	0.030372	1.480204	0.835916
C205	C	-0.636066	0.899183	0.169459
C206	C	-0.302733	1.232516	0.502792
C207	C	0.030601	1.565849	0.836125
C208	C	-0.696668	0.899162	0.228750
C209	C	-0.363334	1.232495	0.562084
C210	C	-0.030001	1.565828	0.895417
C211	C	-0.696393	0.813511	0.229788
C212	C	-0.363060	1.146845	0.563121
C213	C	-0.029727	1.480178	0.896455
C214	C	-0.649082	0.698561	0.216589
C215	C	-0.315749	1.031895	0.549923
C216	C	0.017584	1.365228	0.883256
C217	C	-0.649164	1.014663	0.216619
C218	C	-0.315831	1.347996	0.549952
C219	C	0.017503	1.681329	0.883286
C220	C	-0.649126	0.357015	0.333766
C221	C	-0.315793	0.690348	0.667100
C222	C	0.017541	1.023682	1.000433
C223	C	-0.649126	0.357027	0.383701
C224	C	-0.315793	0.690360	0.717034
C225	C	0.017540	1.023693	1.050367
C226	C	-0.649195	1.163826	0.216611
C227	C	-0.315861	1.497159	0.549945
C228	C	0.017472	1.830492	0.883278
C229	C	-0.649184	1.081512	0.216626
C230	C	-0.315851	1.414845	0.549959
C231	C	0.017483	1.748178	0.883292
C232	C	-0.677880	0.309635	0.693361
C233	C	-0.344546	0.642968	1.026695
C234	C	-0.011213	0.976301	1.360028
C235	C	-0.677883	0.309626	0.881034
C236	C	-0.344550	0.642960	1.214368
C237	C	-0.011216	0.976293	1.547701
O238	O	-0.702321	0.269332	0.905314
O239	O	-0.368987	0.602666	1.238647
O240	O	-0.035654	0.935999	1.571981
N241	N	-0.649133	0.356980	0.904486
N242	N	-0.315800	0.690314	1.237819
N243	N	0.017533	1.023647	1.571152
C244	C	-0.620379	0.404336	0.881016
C245	C	-0.287045	0.737669	1.214349
C246	C	0.046288	1.071003	1.547683
O247	O	-0.595922	0.444608	0.905269
O248	O	-0.262589	0.777941	1.238603
O249	O	0.070745	1.111275	1.571936
C250	C	-0.620373	0.404340	0.693344
C251	C	-0.287040	0.737674	1.026677
C252	C	0.046293	1.071007	1.360011
C253	C	-0.649128	0.356989	0.669895
C254	C	-0.315795	0.690322	1.003228
C255	C	0.017539	1.023655	1.336562
C256	C	-0.706632	0.262286	0.669912
C257	C	-0.373298	0.595620	1.003246
C258	C	-0.039965	0.928953	1.336579
C259	C	-0.706632	0.262292	0.622997
C260	C	-0.373299	0.595625	0.956330
C261	C	-0.039966	0.928959	1.289664
C262	C	-0.677881	0.309646	0.599530
C263	C	-0.344547	0.642979	0.932864
C264	C	-0.011214	0.976312	1.266197
C265	C	-0.649129	0.356994	0.622979
C266	C	-0.315795	0.690327	0.956313
C267	C	0.017538	1.023661	1.289646
C268	C	-0.591617	0.451692	0.669875
C269	C	-0.258284	0.785025	1.003208
C270	C	0.075050	1.118359	1.336542
C271	C	-0.591617	0.451688	0.622954
C272	C	-0.258284	0.785021	0.956287
C273	C	0.075049	1.118354	1.289621
C274	C	-0.620372	0.404336	0.599505
C275	C	-0.287039	0.737669	0.932838
C276	C	0.046295	1.071002	1.266172
C277	C	-0.620378	0.404353	0.552598
C278	C	-0.287045	0.737687	0.885931
C279	C	0.046289	1.071020	1.219264
N280	N	-0.649128	0.357000	0.529146
N281	N	-0.315794	0.690333	0.862479
N282	N	0.017539	1.023666	1.195813
C283	C	-0.677879	0.309646	0.552613
C284	C	-0.344546	0.642979	0.885946
C285	C	-0.011212	0.976312	1.219279
C286	C	-0.620384	0.404332	0.979547
C287	C	-0.287051	0.737665	1.312880
C288	C	0.046283	1.070998	1.646213
C289	C	-0.620386	0.404332	1.026465
C290	C	-0.287053	0.737665	1.359798
C291	C	0.046281	1.070998	1.693131
C292	C	-0.677890	0.309621	1.026480
C293	C	-0.344556	0.642954	1.359813
C294	C	-0.011223	0.976287	1.693146
C295	C	-0.677890	0.309625	0.979561
C296	C	-0.344556	0.642958	1.312894
C297	C	-0.011223	0.976292	1.646228
C298	C	-0.649134	0.356978	0.956095
C299	C	-0.315800	0.690311	1.289429
C300	C	0.017533	1.023644	1.622762
C301	C	-0.677878	0.309661	0.454087
C302	C	-0.344545	0.642994	0.787420
C303	C	-0.011212	0.976328	1.120753
C304	C	-0.677878	0.309673	0.407167
C305	C	-0.344544	0.643006	0.740500
C306	C	-0.011211	0.976340	1.073834
C307	C	-0.620372	0.404381	0.407156
C308	C	-0.287039	0.737714	0.740489
C309	C	0.046294	1.071048	1.073823
C310	C	-0.620375	0.404372	0.454072
C311	C	-0.287041	0.737705	0.787405
C312	C	0.046292	1.071039	1.120738
C313	C	-0.649129	0.357006	0.477536
C314	C	-0.315796	0.690340	0.810869
C315	C	0.017538	1.023673	1.144202
O316	O	-0.595949	0.444620	0.528289
O317	O	-0.262616	0.777954	0.861622
O318	O	0.070717	1.111287	1.194956
O319	O	-0.702325	0.269368	0.528351
O320	O	-0.368991	0.602702	0.861685
O321	O	-0.035658	0.936035	1.195018
C322	C	-0.677879	0.309629	0.740277
C323	C	-0.344546	0.642963	1.073610
C324	C	-0.011212	0.976296	1.406943
C325	C	-0.649127	0.356978	0.763726
C326	C	-0.315794	0.690311	1.097059
C327	C	0.017540	1.023644	1.430392
C328	C	-0.620375	0.404332	0.740259
C329	C	-0.287042	0.737665	1.073593
C330	C	0.046291	1.070998	1.406926
C331	C	-0.649129	0.356978	0.810644
C332	C	-0.315795	0.690311	1.143977
C333	C	0.017538	1.023644	1.477310
C334	C	-0.677880	0.309624	0.834110
C335	C	-0.344547	0.642957	1.167443
C336	C	-0.011214	0.976291	1.500777
C337	C	-0.706630	0.262270	0.810659
C338	C	-0.373296	0.595603	1.143992
C339	C	-0.039963	0.928937	1.477325
C340	C	-0.706630	0.262276	0.763743
C341	C	-0.373297	0.595609	1.097077
C342	C	-0.039964	0.928942	1.430410
C343	C	-0.591626	0.451685	0.763711
C344	C	-0.258293	0.785019	1.097044
C345	C	0.075041	1.118352	1.430377
C346	C	-0.591628	0.451677	0.810626
C347	C	-0.258295	0.785010	1.143960
C348	C	0.075039	1.118343	1.477293
C349	C	-0.620379	0.404323	0.834093
C350	C	-0.287046	0.737656	1.167426
C351	C	0.046287	1.070990	1.500759
C352	C	-0.649126	0.356980	1.099865
C353	C	-0.315793	0.690313	1.433199
C354	C	0.017541	1.023647	1.766532
C355	C	-0.649137	0.356978	1.049931
C356	C	-0.315804	0.690311	1.383264
C357	C	0.017529	1.023644	1.716598
H358	H	-0.036413	0.490519	0.297313
H359	H	0.296920	0.823853	0.630646
H360	H	0.630254	1.157186	0.963980
H361	H	-0.601926	0.792141	0.158784
H362	H	-0.268593	1.125474	0.492118
H363	H	0.064741	1.458807	0.825451
C364	C	-0.588746	0.456462	0.381337
C365	C	-0.255413	0.789796	0.714670
C366	C	0.077921	1.123129	1.048004
H367	H	-0.592863	0.449673	0.350037
H368	H	-0.259530	0.783006	0.683370
H369	H	0.073803	1.116339	1.016703
H370	H	-0.595293	0.506225	0.389024
H371	H	-0.261960	0.839558	0.722358
H372	H	0.071373	1.172892	1.055691
H373	H	-0.558565	0.445604	0.389016
H374	H	-0.225232	0.778938	0.722349
H375	H	0.108102	1.112271	1.055683
H376	H	-0.036438	0.223495	0.135884
H377	H	0.296895	0.556829	0.469217
H378	H	0.630229	0.890162	0.802551
H379	H	-0.708345	0.920735	0.262690
H380	H	-0.375012	1.254068	0.596023
H381	H	-0.041678	1.587402	0.929357
H382	H	-0.392994	0.270897	0.164522
H383	H	-0.059660	0.604230	0.497855
H384	H	0.273673	0.937564	0.831188
H385	H	-0.723567	0.792086	0.206293
H386	H	-0.390233	1.125420	0.539626
H387	H	-0.056900	1.458753	0.872960
C388	C	-0.709515	0.257528	1.052296
C389	C	-0.376181	0.590862	1.385630
C390	C	-0.042848	0.924195	1.718963
H391	H	-0.726640	0.229324	1.031614
H392	H	-0.393307	0.562657	1.364947
H393	H	-0.059974	0.895991	1.698281
H394	H	-0.692340	0.225263	1.070595
H395	H	-0.359007	0.558597	1.403928
H396	H	-0.025673	0.891930	1.737262
H397	H	-0.729079	0.285866	1.070604
H398	H	-0.395746	0.619199	1.403937
H399	H	-0.062413	0.952532	1.737270
H400	H	-0.262302	0.223448	0.135872
H401	H	0.071031	0.556782	0.469205
H402	H	0.404365	0.890115	0.802539
C403	C	-0.709449	0.786029	0.276859
C404	C	-0.376115	1.119362	0.610192
C405	C	-0.042782	1.452695	0.943525
H406	H	-0.686181	0.755729	0.288428
H407	H	-0.352848	1.089063	0.621762
H408	H	-0.019515	1.422396	0.955095
H409	H	-0.713823	0.827174	0.296125
H410	H	-0.380490	1.160508	0.629459
H411	H	-0.047157	1.493841	0.962792
H412	H	-0.736394	0.758208	0.275059
H413	H	-0.403060	1.091541	0.608393
H414	H	-0.069727	1.424875	0.941726
H415	H	-0.601327	0.919214	0.159177
H416	H	-0.267993	1.252547	0.492511
H417	H	0.065340	1.585881	0.825844
H418	H	-0.596976	0.442898	1.045553
H419	H	-0.263642	0.776232	1.378886
H420	H	0.069691	1.109565	1.712219
H421	H	-0.596968	0.442897	0.960445
H422	H	-0.263634	0.776230	1.293779
H423	H	0.069699	1.109564	1.627112
H424	H	-0.701295	0.271113	0.388077
H425	H	-0.367962	0.604446	0.721410
H426	H	-0.034628	0.937780	1.054744
H427	H	-0.579124	0.793457	0.243256
H428	H	-0.245791	1.126790	0.576589
H429	H	0.087542	1.460123	0.909923
H430	H	-0.730045	0.223717	0.744655
H431	H	-0.396712	0.557050	1.077989
H432	H	-0.063379	0.890383	1.411322
C433	C	-0.731520	0.926424	0.194486
C434	C	-0.398187	1.259757	0.527820
C435	C	-0.064853	1.593091	0.861153
H436	H	-0.717204	0.956950	0.172891
H437	H	-0.383871	1.290284	0.506224
H438	H	-0.050538	1.623617	0.839558
H439	H	-0.744768	0.885184	0.179916
H440	H	-0.411435	1.218517	0.513250
H441	H	-0.078102	1.551851	0.846583
H442	H	-0.754080	0.953952	0.209504
H443	H	-0.420747	1.287285	0.542838
H444	H	-0.087414	1.620619	0.876171
C445	C	-0.668660	0.927154	0.133237
C446	C	-0.335327	1.260487	0.466570
C447	C	-0.001993	1.593820	0.799903
H448	H	-0.681980	0.886172	0.118457
H449	H	-0.348646	1.219505	0.451790
H450	H	-0.015313	1.552839	0.785124
H451	H	-0.691375	0.956277	0.146842
H452	H	-0.358041	1.289611	0.480175
H453	H	-0.024708	1.622944	0.813509
H454	H	-0.652727	0.956257	0.112056
H455	H	-0.319393	1.289591	0.445390
H456	H	0.013940	1.622924	0.778723
H457	H	-0.730042	0.223715	0.829773
H458	H	-0.396708	0.557049	1.163107
H459	H	-0.063375	0.890382	1.496440
C460	C	-0.559995	0.503766	0.836415
C461	C	-0.226661	0.837099	1.169748
C462	C	0.106672	1.170433	1.503082
H463	H	-0.542870	0.531961	0.815715
H464	H	-0.209537	0.865294	1.149049
H465	H	0.123797	1.198628	1.482382
H466	H	-0.577160	0.536040	0.854726
H467	H	-0.243826	0.869374	1.188060
H468	H	0.089507	1.202707	1.521393
H469	H	-0.540430	0.475421	0.854708
H470	H	-0.207097	0.808755	1.188041
H471	H	0.126236	1.142088	1.521374
C472	C	-0.559998	0.503778	0.737904
C473	C	-0.226665	0.837112	1.071237
C474	C	0.106669	1.170445	1.404571
H475	H	-0.542880	0.531979	0.758594
H476	H	-0.209546	0.865312	1.091927
H477	H	0.123787	1.198646	1.425260
H478	H	-0.540434	0.475452	0.719594
H479	H	-0.207101	0.808785	1.052927
H480	H	0.126233	1.142119	1.386261
H481	H	-0.577171	0.536058	0.719609
H482	H	-0.243838	0.869392	1.052942
H483	H	0.089496	1.202725	1.386275
C484	C	-0.625176	0.927391	0.298980
C485	C	-0.291843	1.260724	0.632314
C486	C	0.041490	1.594057	0.965647
H487	H	-0.650853	0.958361	0.298052
H488	H	-0.317520	1.291695	0.631385
H489	H	0.015814	1.625028	0.964719
H490	H	-0.630894	0.886453	0.318067
H491	H	-0.297561	1.219786	0.651401
H492	H	0.035772	1.553119	0.984734
H493	H	-0.600353	0.954604	0.310167
H494	H	-0.267019	1.287938	0.643500
H495	H	0.066314	1.621271	0.976833
H496	H	-0.478117	0.270896	0.164514
H497	H	-0.144784	0.604229	0.497847
H498	H	0.188549	0.937562	0.831180
H499	H	0.094291	0.443113	0.268640
H500	H	0.427625	0.776447	0.601973
H501	H	0.760958	1.109780	0.935307
H502	H	-0.392995	0.443047	0.268602
H503	H	-0.059661	0.776380	0.601935
H504	H	0.273672	1.109714	0.935268
C505	C	-0.484806	0.456593	0.276779
C506	C	-0.151473	0.789927	0.610113
C507	C	0.181860	1.123260	0.943446
H508	H	-0.464112	0.484842	0.293865
H509	H	-0.130778	0.818176	0.627198
H510	H	0.202555	1.151509	0.960531
H511	H	-0.503092	0.488813	0.259560
H512	H	-0.169759	0.822147	0.592894
H513	H	0.163574	1.155480	0.926227
H514	H	-0.503125	0.428312	0.296384
H515	H	-0.169791	0.761646	0.629717
H516	H	0.163542	1.094979	0.963050
H517	H	-0.701291	0.271089	0.473186
H518	H	-0.367958	0.604422	0.806519
H519	H	-0.034625	0.937756	1.139852
C520	C	-0.738258	0.210197	0.597209
C521	C	-0.404925	0.543531	0.930542
C522	C	-0.071592	0.876864	1.263876
H523	H	-0.755376	0.181993	0.617910
H524	H	-0.422043	0.515327	0.951243
H525	H	-0.088709	0.848660	1.284576
H526	H	-0.757823	0.238524	0.578910
H527	H	-0.424490	0.571857	0.912244
H528	H	-0.091156	0.905190	1.245577
H529	H	-0.721084	0.177921	0.578904
H530	H	-0.387751	0.511254	0.912237
H531	H	-0.054417	0.844588	1.245571
H532	H	-0.660732	0.793152	0.142618
H533	H	-0.327399	1.126485	0.475951
H534	H	0.005935	1.459819	0.809284
C535	C	-0.128247	0.209937	0.127678
C536	C	0.205086	0.543270	0.461011
C537	C	0.538420	0.876604	0.794345
H538	H	-0.107553	0.181695	0.110598
H539	H	0.225780	0.515028	0.443931
H540	H	0.559113	0.848362	0.777264
H541	H	-0.146569	0.177711	0.144889
H542	H	0.186764	0.511044	0.478222
H543	H	0.520097	0.844377	0.811555
H544	H	-0.146529	0.238218	0.108069
H545	H	0.186804	0.571551	0.441402
H546	H	0.520138	0.904884	0.774736
C547	C	0.186116	0.456666	0.276845
C548	C	0.519450	0.790000	0.610178
C549	C	0.852783	1.123333	0.943511
H550	H	0.217417	0.449867	0.272739
H551	H	0.550751	0.783200	0.606072
H552	H	0.884084	1.116534	0.939405
H553	H	0.178448	0.506409	0.270224
H554	H	0.511781	0.839742	0.603557
H555	H	0.845115	1.173076	0.936891
H556	H	0.178414	0.445899	0.307041
H557	H	0.511747	0.779232	0.640375
H558	H	0.845081	1.112565	0.973708
C559	C	-0.567208	0.928646	0.240680
C560	C	-0.233874	1.261979	0.574014
C561	C	0.099459	1.595312	0.907347
H562	H	-0.568476	0.959798	0.215089
H563	H	-0.235143	1.293131	0.548422
H564	H	0.098190	1.626465	0.881755
H565	H	-0.556163	0.955905	0.265540
H566	H	-0.222829	1.289238	0.598874
H567	H	0.110504	1.622572	0.932207
H568	H	-0.547804	0.888204	0.234785
H569	H	-0.214471	1.221537	0.568118
H570	H	0.118863	1.554870	0.901451
H571	H	-0.622361	0.792851	0.286406
H572	H	-0.289027	1.126185	0.619740
H573	H	0.044306	1.459518	0.953073
C574	C	-0.268979	0.504053	0.305490
C575	C	0.064354	0.837386	0.638823
C576	C	0.397687	1.170720	0.972156
H577	H	-0.248282	0.532299	0.322574
H578	H	0.085051	0.865632	0.655907
H579	H	0.418385	1.198966	0.989240
H580	H	-0.287268	0.536276	0.288275
H581	H	0.046066	0.869609	0.621609
H582	H	0.379399	1.202942	0.954942
H583	H	-0.287295	0.475770	0.325096
H584	H	0.046038	0.809103	0.658429
H585	H	0.379372	1.142436	0.991762
H586	H	-0.730045	0.223721	0.689014
H587	H	-0.396711	0.557054	1.022347
H588	H	-0.063378	0.890388	1.355680
C589	C	-0.709515	0.257531	0.953771
C590	C	-0.376181	0.590864	1.287105
C591	C	-0.042848	0.924197	1.620438
H592	H	-0.726635	0.229328	0.974471
H593	H	-0.393301	0.562661	1.307804
H594	H	-0.059968	0.895994	1.641137
H595	H	-0.729077	0.285857	0.935471
H596	H	-0.395744	0.619191	1.268804
H597	H	-0.062411	0.952524	1.602137
H598	H	-0.692339	0.225253	0.935468
H599	H	-0.359006	0.558587	1.268801
H600	H	-0.025672	0.891920	1.602135
C601	C	-0.559996	0.503795	0.597144
C602	C	-0.226663	0.837129	0.930478
C603	C	0.106671	1.170462	1.263811
H604	H	-0.542878	0.532001	0.617832
H605	H	-0.209545	0.865335	0.951166
H606	H	0.123788	1.198668	1.284499
H607	H	-0.540431	0.475480	0.578829
H608	H	-0.207097	0.808813	0.912163
H609	H	0.126236	1.142147	1.245496
H610	H	-0.577178	0.536070	0.578854
H611	H	-0.243844	0.869403	0.912187
H612	H	0.089489	1.202736	1.245521
H613	H	-0.568202	0.490251	0.688959
H614	H	-0.234868	0.823584	1.022292
H615	H	0.098465	1.156917	1.355626
H616	H	0.094287	0.270953	0.164567
H617	H	0.427620	0.604287	0.497901
H618	H	0.760953	0.937620	0.831234
C619	C	-0.588748	0.456462	0.479866
C620	C	-0.255415	0.789795	0.813200
C621	C	0.077918	1.123129	1.146533
H622	H	-0.571624	0.484663	0.459169
H623	H	-0.238291	0.817996	0.792502
H624	H	0.095042	1.151329	1.125836
H625	H	-0.605917	0.488731	0.498178
H626	H	-0.272584	0.822064	0.831511
H627	H	0.060750	1.155397	1.164845
H628	H	-0.569183	0.428119	0.498159
H629	H	-0.235849	0.761453	0.831492
H630	H	0.097484	1.094786	1.164826
H631	H	0.179394	0.270975	0.164570
H632	H	0.512728	0.604309	0.497904
H633	H	0.846061	0.937642	0.831237
C634	C	-0.170470	0.504070	0.305496
C635	C	0.162864	0.837403	0.638829
C636	C	0.496197	1.170737	0.972162
H637	H	-0.191165	0.532320	0.322569
H638	H	0.142169	0.865654	0.655903
H639	H	0.475502	1.198987	0.989236
H640	H	-0.152181	0.475807	0.325104
H641	H	0.181152	0.809140	0.658438
H642	H	0.514485	1.142474	0.991771
H643	H	-0.152154	0.536299	0.288276
H644	H	0.181179	0.869632	0.621609
H645	H	0.514513	1.202966	0.954942
H646	H	-0.177193	0.223465	0.135871
H647	H	0.156140	0.556799	0.469204
H648	H	0.489473	0.890132	0.802538
H649	H	-0.121531	0.490517	0.297308
H650	H	0.211802	0.823851	0.630641
H651	H	0.545135	1.157184	0.963974
