data_functionalizedCrystal
_audit_creation_method	'MofGen! by Chris Wilmer'
_symmetry_space_group_name_H-M	'P1'
_symmetry_Int_Tables_number	1
_symmetry_cell_setting	triclinic
loop_
_symmetry_equiv_pos_as_xyz
  x,y,z
_cell_length_a	15.995350
_cell_length_b	15.995350
_cell_length_c	12.996460
_cell_angle_alpha	89.998059
_cell_angle_beta	90.002563
_cell_angle_gamma	83.492375
loop_
_atom_site_label
_atom_site_type_symbol
_atom_site_fract_x
_atom_site_fract_y
_atom_site_fract_z
O1	O	1.110988	0.107921	0.085474
O2	O	1.360988	0.357921	0.335474
O3	O	1.610988	0.607921	0.585474
O4	O	1.860988	0.857921	0.835474
O5	O	0.867213	0.121248	0.085495
O6	O	1.117213	0.371248	0.335495
O7	O	1.367213	0.621248	0.585495
O8	O	1.617213	0.871248	0.835495
O9	O	0.995764	-0.007303	0.085483
O10	O	1.245764	0.242697	0.335483
O11	O	1.495764	0.492697	0.585483
O12	O	1.745764	0.742697	0.835483
O13	O	0.982437	0.236472	0.085486
O14	O	1.232437	0.486472	0.335486
O15	O	1.482437	0.736472	0.585486
O16	O	1.732437	0.986472	0.835486
O17	O	0.995748	-0.007296	-0.085651
O18	O	1.245748	0.242704	0.164349
O19	O	1.495748	0.492704	0.414349
O20	O	1.745748	0.742704	0.664349
O21	O	0.867196	0.121256	-0.085639
O22	O	1.117196	0.371256	0.164361
O23	O	1.367196	0.621256	0.414361
O24	O	1.617196	0.871256	0.664361
O25	O	1.110972	0.107928	-0.085659
O26	O	1.360972	0.357928	0.164341
O27	O	1.610972	0.607928	0.414341
O28	O	1.860972	0.857928	0.664341
Cu29	Cu	0.989083	0.114593	-0.101275
Cu30	Cu	1.239083	0.364593	0.148725
Cu31	Cu	1.489083	0.614593	0.398725
Cu32	Cu	1.739083	0.864593	0.648725
Cu33	Cu	0.989102	0.114584	0.101111
Cu34	Cu	1.239102	0.364584	0.351111
Cu35	Cu	1.489102	0.614584	0.601111
Cu36	Cu	1.739102	0.864584	0.851111
O37	O	0.982420	0.236480	-0.085648
O38	O	1.232420	0.486480	0.164352
O39	O	1.482420	0.736480	0.414352
O40	O	1.732420	0.986480	0.664352
C41	C	0.836010	0.120701	-0.000069
C42	C	1.086010	0.370701	0.249931
C43	C	1.336010	0.620701	0.499931
C44	C	1.586010	0.870701	0.749931
C45	C	0.743060	0.119049	-0.000061
C46	C	0.993060	0.369049	0.249939
C47	C	1.243060	0.619049	0.499939
C48	C	1.493060	0.869049	0.749939
C49	C	0.995205	-0.038494	-0.000082
C50	C	1.245205	0.211506	0.249918
C51	C	1.495205	0.461506	0.499918
C52	C	1.745205	0.711506	0.749918
C53	C	0.993553	-0.131444	-0.000076
C54	C	1.243553	0.118556	0.249924
C55	C	1.493553	0.368556	0.499924
C56	C	1.743553	0.618556	0.749924
C57	C	0.405312	0.113117	-0.000083
C58	C	0.655312	0.363117	0.249917
C59	C	0.905312	0.613117	0.499917
C60	C	1.155312	0.863117	0.749917
C61	C	0.452746	0.021565	-0.000466
C62	C	0.702746	0.271565	0.249534
C63	C	0.952746	0.521565	0.499534
C64	C	1.202746	0.771565	0.749534
C65	C	0.549436	0.023217	-0.000073
C66	C	0.799436	0.273217	0.249927
C67	C	1.049436	0.523217	0.499927
C68	C	1.299436	0.773217	0.749927
C69	C	0.572873	0.116060	-0.000073
C70	C	0.822873	0.366060	0.249927
C71	C	1.072873	0.616060	0.499927
C72	C	1.322873	0.866060	0.749927
C73	C	0.531795	0.161212	0.097650
C74	C	0.781795	0.411212	0.347650
C75	C	1.031795	0.661212	0.597650
C76	C	1.281795	0.911212	0.847650
C77	C	0.435159	0.158912	0.097724
C78	C	0.685159	0.408912	0.347724
C79	C	0.935159	0.658912	0.597724
C80	C	1.185159	0.908912	0.847724
C81	C	0.434801	0.160812	-0.096887
C82	C	0.684801	0.410812	0.153113
C83	C	0.934801	0.660812	0.403113
C84	C	1.184801	0.910812	0.653113
C85	C	0.531747	0.160790	-0.098171
C86	C	0.781747	0.410790	0.151829
C87	C	1.031747	0.660790	0.401829
C88	C	1.281747	0.910790	0.651829
C89	C	0.667570	0.117727	-0.000063
C90	C	0.917570	0.367727	0.249937
C91	C	1.167570	0.617727	0.499937
C92	C	1.417570	0.867727	0.749937
C93	C	0.310614	0.111452	-0.000085
C94	C	0.560614	0.361452	0.249915
C95	C	0.810614	0.611452	0.499915
C96	C	1.060614	0.861452	0.749915
C97	C	0.987621	-0.469192	-0.000079
C98	C	1.237621	-0.219192	0.249921
C99	C	1.487621	0.030808	0.499921
C100	C	1.737621	0.280808	0.749921
C101	C	0.896069	-0.421758	0.000313
C102	C	1.146069	-0.171758	0.250313
C103	C	1.396069	0.078242	0.500313
C104	C	1.646069	0.328242	0.750313
C105	C	0.897721	-0.325068	-0.000073
C106	C	1.147721	-0.075068	0.249927
C107	C	1.397721	0.174932	0.499927
C108	C	1.647721	0.424932	0.749927
C109	C	0.990564	-0.301631	-0.000077
C110	C	1.240564	-0.051631	0.249923
C111	C	1.490564	0.198369	0.499923
C112	C	1.740564	0.448369	0.749923
C113	C	1.035711	-0.342705	-0.097804
C114	C	1.285711	-0.092705	0.152196
C115	C	1.535711	0.157295	0.402196
C116	C	1.785711	0.407295	0.652196
C117	C	1.033411	-0.439340	-0.097886
C118	C	1.283411	-0.189340	0.152114
C119	C	1.533411	0.060660	0.402114
C120	C	1.783411	0.310660	0.652114
C121	C	1.035321	-0.439707	0.096725
C122	C	1.285321	-0.189707	0.346725
C123	C	1.535321	0.060293	0.596725
C124	C	1.785321	0.310293	0.846725
C125	C	1.035299	-0.342762	0.098017
C126	C	1.285299	-0.092762	0.348017
C127	C	1.535299	0.157238	0.598017
C128	C	1.785299	0.407238	0.848017
C129	C	0.992231	-0.206934	-0.000079
C130	C	1.242231	0.043066	0.249921
C131	C	1.492231	0.293066	0.499921
C132	C	1.742231	0.543066	0.749921
C133	C	0.985956	-0.563890	-0.000083
C134	C	1.235956	-0.313890	0.249917
C135	C	1.485956	-0.063890	0.499917
C136	C	1.735956	0.186110	0.749917
C137	C	1.142175	0.108476	-0.000093
C138	C	1.392175	0.358476	0.249907
C139	C	1.642175	0.608476	0.499907
C140	C	1.892175	0.858476	0.749907
C141	C	1.235125	0.110127	-0.000094
C142	C	1.485125	0.360127	0.249906
C143	C	1.735125	0.610127	0.499906
C144	C	1.985125	0.860127	0.749906
C145	C	0.982980	0.267671	-0.000080
C146	C	1.232980	0.517671	0.249920
C147	C	1.482980	0.767671	0.499920
C148	C	1.732980	1.017671	0.749920
C149	C	0.984631	0.360621	-0.000080
C150	C	1.234631	0.610621	0.249920
C151	C	1.484631	0.860621	0.499920
C152	C	1.734631	1.110621	0.749920
N153	N	0.989075	0.114598	-0.243622
N154	N	1.239075	0.364598	0.006378
N155	N	1.489075	0.614598	0.256378
N156	N	1.739075	0.864598	0.506378
C157	C	0.989079	0.114601	-0.336728
C158	C	1.239079	0.364601	-0.086728
C159	C	1.489079	0.614601	0.163272
C160	C	1.739079	0.864601	0.413272
C161	C	0.989086	0.114595	-0.453533
C162	C	1.239086	0.364595	-0.203533
C163	C	1.489086	0.614595	0.046467
C164	C	1.739086	0.864595	0.296467
C165	C	0.989097	0.114586	-0.546631
C166	C	1.239097	0.364586	-0.296631
C167	C	1.489097	0.614586	-0.046631
C168	C	1.739097	0.864586	0.203369
C169	C	0.989106	0.114581	-0.663444
C170	C	1.239106	0.364581	-0.413444
C171	C	1.489106	0.614581	-0.163444
C172	C	1.739106	0.864581	0.086556
N173	N	0.989116	0.114572	0.243458
N174	N	1.239116	0.364572	0.493458
N175	N	1.489116	0.614572	0.743458
N176	N	1.739116	0.864572	0.993458
H177	H	0.577858	-0.012275	-0.070124
H178	H	0.827858	0.237725	0.179876
H179	H	1.077858	0.487725	0.429876
H180	H	1.327858	0.737725	0.679876
F181	F	0.851002	-0.288638	-0.091787
F182	F	1.101002	-0.038638	0.158213
F183	F	1.351002	0.211362	0.408213
F184	F	1.601002	0.461362	0.658213
H185	H	0.859484	-0.440293	0.070396
H186	H	1.109484	-0.190293	0.320396
H187	H	1.359484	0.059707	0.570396
H188	H	1.609484	0.309707	0.820396
F189	F	1.123549	-0.481221	0.097582
F190	F	1.373549	-0.231221	0.347582
F191	F	1.623549	0.018779	0.597582
F192	F	1.873549	0.268779	0.847582
H193	H	0.559056	0.127830	-0.170466
H194	H	0.809056	0.377830	0.079534
H195	H	1.059056	0.627830	0.329534
H196	H	1.309056	0.877830	0.579534
H197	H	0.545920	0.229421	0.101283
H198	H	0.795920	0.479421	0.351283
H199	H	1.045920	0.729421	0.601283
H200	H	1.295920	0.979421	0.851283
F201	F	0.992487	-0.306761	0.192527
F202	F	1.242487	-0.056761	0.442527
F203	F	1.492487	0.193239	0.692527
F204	F	1.742487	0.443239	0.942527
F205	F	0.996200	-0.466549	0.193543
F206	F	1.246200	-0.216549	0.443543
F207	F	1.496200	0.033451	0.693543
F208	F	1.746200	0.283451	0.943543
F209	F	0.990359	-0.463260	-0.193365
F210	F	1.240359	-0.213260	0.056635
F211	F	1.490359	0.036740	0.306635
F212	F	1.740359	0.286740	0.556635
H213	H	1.100627	-0.471588	-0.102323
H214	H	1.350627	-0.221588	0.147677
H215	H	1.600627	0.028412	0.397677
H216	H	1.850627	0.278412	0.647677
F217	F	0.393006	0.246766	0.103522
F218	F	0.643006	0.496766	0.353522
F219	F	0.893006	0.746766	0.603522
F220	F	1.143006	0.996766	0.853522
F221	F	0.411235	0.115865	0.193205
F222	F	0.661235	0.365865	0.443205
F223	F	0.911235	0.615865	0.693205
F224	F	1.161235	0.865865	0.943205
H225	H	0.434217	-0.015027	-0.070546
H226	H	0.684217	0.234973	0.179454
H227	H	0.934217	0.484973	0.429454
H228	H	1.184217	0.734973	0.679454
F229	F	0.585836	-0.023306	0.091794
F230	F	0.835836	0.226694	0.341794
F231	F	1.085836	0.476694	0.591794
F232	F	1.335836	0.726694	0.841794
H233	H	0.560176	0.129845	0.170376
H234	H	0.810176	0.379845	0.420376
H235	H	1.060176	0.629845	0.670376
H236	H	1.310176	0.879845	0.920376
H237	H	0.547111	0.228494	-0.104074
H238	H	0.797111	0.478494	0.145926
H239	H	1.047111	0.728494	0.395926
H240	H	1.297111	0.978494	0.645926
F241	F	0.393288	0.249040	-0.097752
F242	F	0.643288	0.499040	0.152248
F243	F	0.893288	0.749040	0.402248
F244	F	1.143288	0.999040	0.652248
H245	H	0.433159	-0.014865	0.069228
H246	H	0.683159	0.235135	0.319228
H247	H	0.933159	0.485135	0.569228
H248	H	1.183159	0.735135	0.819228
H249	H	0.414259	0.130885	-0.170958
H250	H	0.664259	0.380885	0.079042
H251	H	0.914259	0.630885	0.329042
H252	H	1.164259	0.880885	0.579042
F253	F	0.851334	-0.287919	0.091494
F254	F	1.101334	-0.037919	0.341494
F255	F	1.351334	0.212081	0.591494
F256	F	1.601334	0.462081	0.841494
H257	H	0.859632	-0.441349	-0.069373
H258	H	1.109632	-0.191349	0.180627
H259	H	1.359632	0.058651	0.430627
H260	H	1.609632	0.308651	0.680627
H261	H	1.103919	-0.328579	-0.101441
H262	H	1.353919	-0.078579	0.148559
H263	H	1.603919	0.171421	0.398559
H264	H	1.853919	0.421421	0.648559
H265	H	1.004340	-0.314320	-0.170527
H266	H	1.254340	-0.064320	0.079473
H267	H	1.504340	0.185680	0.329473
H268	H	1.754340	0.435680	0.579473
F269	F	1.123794	-0.322679	0.105732
F270	F	1.373794	-0.072679	0.355732
F271	F	1.623794	0.177321	0.605732
F272	F	1.873794	0.427321	0.855732
