data_functionalizedCrystal
_audit_creation_method	'MofGen! by Chris Wilmer'
_symmetry_space_group_name_H-M	'P1'
_symmetry_Int_Tables_number	1
_symmetry_cell_setting	triclinic
loop_
_symmetry_equiv_pos_as_xyz
  x,y,z
_cell_length_a	15.944551
_cell_length_b	16.109302
_cell_length_c	15.186229
_cell_angle_alpha	89.994701
_cell_angle_beta	89.998855
_cell_angle_gamma	96.519741
loop_
_atom_site_label
_atom_site_type_symbol
_atom_site_fract_x
_atom_site_fract_y
_atom_site_fract_z
O1	O	-0.107969	1.103165	-0.073258
O2	O	-0.121405	0.861108	-0.073250
O3	O	0.007590	0.988746	-0.073260
O4	O	-0.236964	0.975526	-0.073249
O5	O	0.007592	0.988738	0.073198
O6	O	-0.121403	0.861099	0.073207
O7	O	-0.107967	1.103157	0.073199
Zn8	Zn	-0.114685	0.982127	0.096456
Zn9	Zn	-0.114687	0.982138	-0.096508
O10	O	-0.236962	0.975518	0.073208
C11	C	-0.120860	0.830128	-0.000021
C12	C	-0.119228	0.737833	-0.000018
C13	C	-0.115453	0.525486	0.079807
C14	C	-0.113910	0.438765	0.079804
C15	C	-0.113917	0.438785	-0.079872
C16	C	-0.115453	0.525505	-0.079868
C17	C	-0.116225	0.568852	-0.000026
C18	C	-0.113147	0.395412	-0.000033
C19	C	-0.111474	0.301386	-0.000037
C20	C	-0.117896	0.662885	-0.000022
C21	C	-0.268257	0.976071	-0.000019
C22	C	-0.361502	0.977716	-0.000015
C23	C	-0.576332	1.060766	-0.000032
C24	C	-0.637360	1.022196	0.072182
C25	C	-0.532227	0.980693	-0.000023
C26	C	-0.637347	1.022186	-0.072214
C27	C	-0.697139	0.983574	-0.000035
C28	C	-0.592027	0.942101	0.072249
C29	C	-0.592008	0.942102	-0.072211
C30	C	-0.653018	0.903474	0.000020
C31	C	-0.437225	0.979035	-0.000016
C32	C	-0.792140	0.985225	-0.000036
C33	C	0.038885	0.988193	-0.000034
C34	C	0.132130	0.986548	-0.000044
C35	C	-0.108513	1.134136	-0.000033
C36	C	-0.110145	1.226432	-0.000041
N37	N	-0.114683	0.982125	0.228149
N38	N	-0.114683	0.982146	-0.228200
C39	C	-0.057583	1.038663	0.453867
C40	C	-0.057581	1.038665	0.546057
C41	C	-0.171785	0.925602	0.546075
C42	C	-0.171782	0.925596	0.453887
C43	C	-0.114682	0.982131	0.407785
C44	C	-0.114683	0.982140	0.592163
C45	C	-0.114681	0.982142	0.692119
C46	C	-0.114683	0.982128	0.307823
H47	H	-0.113282	0.403460	0.144811
Br48	Br	-0.116498	0.584313	0.188163
Br49	Br	-0.116491	0.584366	-0.188221
H50	H	-0.218280	0.879558	0.416364
Br51	Br	-0.249277	0.848881	0.608643
H52	H	-0.657427	1.056072	-0.133261
H53	H	-0.011085	1.084697	0.583575
Br54	Br	0.019911	1.115387	0.391305
H55	H	-0.572046	0.908257	0.133366
H56	H	-0.657455	1.056060	0.133230
H57	H	-0.113289	0.403481	-0.144877
Br58	Br	-0.708314	0.792597	0.000078
Br59	Br	-0.520780	1.171542	0.000077
H60	H	-0.571891	0.908267	-0.133263
