data_functionalizedCrystal
_audit_creation_method	'MofGen! by Chris Wilmer'
_symmetry_space_group_name_H-M	'P1'
_symmetry_Int_Tables_number	1
_symmetry_cell_setting	triclinic
loop_
_symmetry_equiv_pos_as_xyz
  x,y,z
_cell_length_a	16.625546
_cell_length_b	17.639874
_cell_length_c	16.625539
_cell_angle_alpha	78.826411
_cell_angle_beta	89.969603
_cell_angle_gamma	78.754311
loop_
_atom_site_label
_atom_site_type_symbol
_atom_site_fract_x
_atom_site_fract_y
_atom_site_fract_z
Zn1	Zn	-0.071593	-1.208336	-0.207148
Zn2	Zn	-0.206456	-1.208241	-0.072330
Zn3	Zn	-0.098903	-1.076160	-0.099538
Zn4	Zn	-0.233675	-1.076131	-0.234316
O5	O	-0.152657	-1.142217	-0.153333
O6	O	-0.066663	-1.318927	-0.166507
O7	O	-0.192227	-1.190692	0.036888
O8	O	0.017563	-1.093745	-0.113830
O9	O	-0.165746	-1.318857	-0.067457
O10	O	0.037627	-1.190854	-0.192890
O11	O	-0.113208	-1.093653	0.016898
O12	O	-0.139602	-0.965553	-0.140173
O13	O	-0.212137	-1.093696	-0.343539
O14	O	-0.238618	-0.965531	-0.239194
O15	O	-0.093056	-1.190826	-0.323578
O16	O	-0.322910	-1.190664	-0.093800
O17	O	-0.342908	-1.093604	-0.212811
C18	C	-0.195028	-0.936863	-0.195585
C19	C	-0.213173	-0.849012	-0.213679
C20	C	-0.362163	-1.142142	-0.153314
C21	C	-0.451776	-1.142182	-0.153319
C22	C	-0.014741	-0.560027	-0.015835
C23	C	-0.031808	-0.477477	-0.032848
C24	C	-0.135056	-0.477510	-0.135781
C25	C	-0.117995	-0.560061	-0.118778
C26	C	-0.057837	-0.601313	-0.058804
C27	C	-0.161091	-0.601347	-0.161748
C28	C	-0.144034	-0.683891	-0.144744
C29	C	-0.083881	-0.725149	-0.084770
C30	C	-0.040780	-0.683857	-0.041800
C31	C	-0.221252	-0.560093	-0.221718
C32	C	-0.264348	-0.601379	-0.264687
C33	C	-0.247287	-0.683924	-0.247687
C34	C	-0.187134	-0.725182	-0.187714
C35	C	-0.290388	-0.725216	-0.290658
C36	C	-0.273331	-0.807760	-0.273654
C37	C	-0.170077	-0.807726	-0.170710
C38	C	-0.779923	-1.142320	-0.153374
C39	C	-0.688623	-1.142279	-0.153361
C40	C	-0.615853	-1.142251	-0.153346
C41	C	-0.524547	-1.142211	-0.153334
C42	C	0.057672	-1.142314	-0.153364
C43	C	0.147302	-1.142355	-0.153378
C44	C	-0.152586	-1.142268	-0.363631
C45	C	-0.152556	-1.142290	-0.453248
C46	C	-0.110111	-0.348372	-0.110908
C47	C	-0.091955	-0.436223	-0.092808
C48	C	-0.152458	-1.142327	-0.781416
C49	C	-0.152489	-1.142314	-0.690110
C50	C	-0.152508	-1.142309	-0.617335
C51	C	-0.152537	-1.142296	-0.526023
C52	C	-0.152660	-1.142211	0.056157
C53	C	-0.152431	-1.142342	0.145805
H54	H	-0.121079	-0.841316	-0.121885
N55	N	-0.066458	-0.809466	-0.067414
N56	N	-0.042064	-0.846341	-0.122744
H57	H	-0.029759	-0.905891	-0.110487
N58	N	0.046728	-0.602176	0.045407
N59	N	0.119222	-0.592978	0.038017
H60	H	0.162635	-0.622748	0.081265
N61	N	-0.196509	-0.435380	-0.197038
N62	N	-0.269001	-0.444588	-0.189666
H63	H	-0.312404	-0.414837	-0.232932
H64	H	0.003296	-0.443865	0.002141
H65	H	-0.235138	-0.492880	-0.235560
N66	N	0.020664	-0.726015	0.019464
N67	N	0.035880	-0.799714	0.034638
H68	H	0.079271	-0.829490	0.077904
H69	H	-0.308423	-0.841376	-0.308644
N70	N	-0.325796	-0.559226	-0.325940
N71	N	-0.341022	-0.485526	-0.341114
H72	H	-0.384420	-0.455755	-0.384376
N73	N	-0.351826	-0.683073	-0.351925
N74	N	-0.344659	-0.692322	-0.424432
H75	H	-0.388050	-0.662559	-0.467704
