data_functionalizedCrystal
_audit_creation_method	'MofGen! by Chris Wilmer'
_symmetry_space_group_name_H-M	'P1'
_symmetry_Int_Tables_number	1
_symmetry_cell_setting	triclinic
loop_
_symmetry_equiv_pos_as_xyz
  x,y,z
_cell_length_a	12.759401
_cell_length_b	18.050590
_cell_length_c	12.759393
_cell_angle_alpha	89.960491
_cell_angle_beta	90.021162
_cell_angle_gamma	89.975775
loop_
_atom_site_label
_atom_site_type_symbol
_atom_site_fract_x
_atom_site_fract_y
_atom_site_fract_z
Zn1	Zn	1.606199	0.295581	0.593998
Zn2	Zn	1.606069	0.419792	0.418294
Zn3	Zn	1.430500	0.295624	0.418329
Zn4	Zn	1.430465	0.419738	0.593927
O5	O	1.518308	0.357684	0.506137
O6	O	1.753202	0.312063	0.570705
O7	O	1.582740	0.403361	0.271277
O8	O	1.453876	0.191693	0.441677
O9	O	1.753107	0.403320	0.441616
O10	O	1.582961	0.191662	0.570740
O11	O	1.453751	0.312135	0.271303
O12	O	1.283475	0.312083	0.441608
O13	O	1.453816	0.403228	0.740958
O14	O	1.283449	0.403269	0.570619
O15	O	1.582927	0.312011	0.741010
O16	O	1.582706	0.523709	0.441547
O17	O	1.453690	0.523669	0.570584
C18	C	1.245341	0.357675	0.506110
C19	C	1.128564	0.357689	0.506124
C20	C	1.518209	0.550636	0.506077
C21	C	1.518262	0.633181	0.506087
C22	C	0.963991	0.405242	0.573230
C23	C	1.073716	0.405241	0.573201
C24	C	1.073683	0.310142	0.439063
C25	C	0.963961	0.310147	0.439087
C26	C	0.964011	0.460144	0.650676
C27	C	1.073735	0.460143	0.650647
C28	C	1.588547	0.832627	0.435996
C29	C	1.614210	0.881950	0.531879
C30	C	1.518307	0.784312	0.506115
C31	C	1.492737	0.882070	0.410261
C32	C	1.518353	0.930297	0.506133
C33	C	1.544019	0.832548	0.602048
C34	C	1.422502	0.832664	0.480366
C35	C	1.448128	0.881965	0.576315
C36	C	1.518284	0.700214	0.506103
C37	C	1.518376	1.014393	0.506156
C38	C	1.792342	0.357692	0.506165
C39	C	1.909118	0.357696	0.506177
C40	C	1.518382	0.357609	0.780171
C41	C	1.518413	0.357577	0.896947
C42	C	1.518412	1.163978	0.506197
C43	C	1.518394	1.081432	0.506163
C44	C	1.518295	0.357705	0.233170
C45	C	1.518468	0.357527	0.116394
C46	C	1.585650	0.310075	0.951838
C47	C	1.585675	0.310049	1.061562
C48	C	1.451223	0.405031	1.061495
C49	C	1.451194	0.405053	0.951773
C50	C	1.663279	0.255240	0.951878
C51	C	1.663304	0.255213	1.061602
H52	H	0.919288	0.271440	0.384474
H53	H	1.107720	0.514757	0.621352
H54	H	1.103570	0.444799	0.732050
C55	C	1.668820	0.803351	0.355985
H56	H	1.736876	0.820226	0.374463
H57	H	1.651309	0.821033	0.288059
H58	H	1.667810	0.750727	0.356093
C59	C	1.723682	0.911205	0.561320
H60	H	1.773495	0.894317	0.511427
H61	H	1.742347	0.893521	0.628938
H62	H	1.722745	0.963830	0.561735
H63	H	1.641521	0.197727	0.922132
H64	H	1.740546	0.275857	0.917842
H65	H	0.930034	0.439606	0.728030
H66	H	1.388748	0.903492	0.635689
H67	H	1.565585	0.810888	0.683188
H68	H	1.341485	0.810996	0.458544
H69	H	1.471092	0.903822	0.329191
H70	H	1.396439	0.443731	0.907085
C71	C	1.623947	0.181408	1.107624
H72	H	1.625280	0.183915	1.181984
H73	H	1.668001	0.142209	1.084681
H74	H	1.554246	0.172581	1.084614
H75	H	1.744671	0.270616	1.091381
C76	C	1.377296	0.457256	1.121806
H77	H	1.386947	0.450444	1.195015
H78	H	1.306708	0.446391	1.103822
H79	H	1.392643	0.507161	1.103799
H80	H	0.934194	0.517646	0.628743
C81	C	1.134014	0.257838	0.365278
H82	H	1.207220	0.264640	0.374870
H83	H	1.115983	0.268647	0.294663
H84	H	1.116068	0.207950	0.380798
