data_functionalizedCrystal
_audit_creation_method	'MofGen! by Chris Wilmer'
_symmetry_space_group_name_H-M	'P1'
_symmetry_Int_Tables_number	1
_symmetry_cell_setting	triclinic
loop_
_symmetry_equiv_pos_as_xyz
  x,y,z
_cell_length_a	6.817900
_cell_length_b	9.582889
_cell_length_c	9.514088
_cell_angle_alpha	87.272002
_cell_angle_beta	118.843545
_cell_angle_gamma	111.207298
loop_
_atom_site_label
_atom_site_type_symbol
_atom_site_fract_x
_atom_site_fract_y
_atom_site_fract_z
V1	V	-4.257820	-0.209707	-0.500445
O2	O	-4.199949	0.007347	-0.491221
O3	O	-4.247177	-0.413189	-0.496731
O4	O	-4.292208	-0.207679	-0.718839
O5	O	-4.154605	-0.199585	-0.267576
V6	V	-4.725829	-0.183603	-0.472627
O7	O	-4.553112	-0.266968	-0.561466
O8	O	-4.880735	-0.126343	-0.411607
O9	O	-4.513266	0.019878	-0.476341
O10	O	-4.901097	-0.400658	-0.481851
O11	O	-4.946441	-0.193726	-0.705497
O12	O	-4.468234	-0.185631	-0.254233
C13	C	-4.098684	-0.462756	-0.488762
C14	C	-4.171820	-0.629112	-0.487181
C15	C	-4.156124	-0.200606	-0.772080
C16	C	-4.265773	-0.200295	-0.950617
C17	C	-4.325100	0.069437	-0.484307
C18	C	-4.231207	0.235792	-0.485898
C19	C	-4.267658	-0.192709	-0.200984
C20	C	-4.137246	-0.193013	-0.022446
H21	H	-3.943331	-0.187032	-0.947358
O22	O	-4.497222	-0.207640	-1.040401
C23	C	-4.901670	-0.346430	-1.261032
C24	C	-4.639640	-0.338277	-1.159503
H25	H	-5.016901	-0.452059	-1.357327
H26	H	-4.901420	-0.241425	-1.322640
H27	H	-4.980714	-0.351889	-1.178201
H28	H	-4.560438	-0.332868	-1.242222
H29	H	-4.640050	-0.443281	-1.097878
