data_functionalizedCrystal
_audit_creation_method	'MofGen! by Chris Wilmer'
_symmetry_space_group_name_H-M	'P1'
_symmetry_Int_Tables_number	1
_symmetry_cell_setting	triclinic
loop_
_symmetry_equiv_pos_as_xyz
  x,y,z
_cell_length_a	11.792241
_cell_length_b	15.072220
_cell_length_c	11.792253
_cell_angle_alpha	89.993365
_cell_angle_beta	95.803993
_cell_angle_gamma	90.008318
loop_
_atom_site_label
_atom_site_type_symbol
_atom_site_fract_x
_atom_site_fract_y
_atom_site_fract_z
O1	O	1.506930	0.073708	-0.155559
O2	O	2.006930	0.573708	0.344441
O3	O	1.176589	0.073730	-0.171592
O4	O	1.676589	0.573730	0.328408
O5	O	1.349769	0.073700	0.001594
O6	O	1.849769	0.573700	0.501594
O7	O	1.333751	0.073738	-0.328745
O8	O	1.833751	0.573738	0.171255
O9	O	1.349726	-0.073865	0.001584
O10	O	1.849726	0.426135	0.501584
O11	O	1.176546	-0.073835	-0.171602
O12	O	1.676546	0.426165	0.328398
O13	O	1.506887	-0.073857	-0.155569
O14	O	2.006887	0.426143	0.344431
Zn15	Zn	1.341710	-0.097275	-0.163587
Zn16	Zn	1.841710	0.402725	0.336413
Zn17	Zn	1.341766	0.097148	-0.163574
Zn18	Zn	1.841766	0.597148	0.336426
O19	O	1.333708	-0.073827	-0.328755
O20	O	1.833708	0.426173	0.171245
C21	C	1.134277	-0.000050	-0.170590
C22	C	1.634277	0.499950	0.329410
C23	C	1.008263	-0.000042	-0.167576
C24	C	1.508263	0.499958	0.332424
N25	N	1.341679	-0.229964	-0.163595
N26	N	1.841679	0.270036	0.336405
C27	C	0.777551	-0.000069	-0.162033
C28	C	1.277551	0.499931	0.337967
C29	C	0.905936	-0.000054	-0.165112
C30	C	1.405936	0.499946	0.334888
C31	C	1.341764	-0.589165	-0.163570
C32	C	1.841764	-0.089165	0.336430
C33	C	1.248784	-0.551542	-0.255924
C34	C	1.748784	-0.051542	0.244076
C35	C	1.249001	-0.448717	-0.256264
C36	C	1.749001	0.051283	0.243736
C37	C	1.341721	-0.410961	-0.163582
C38	C	1.841721	0.089039	0.336418
C39	C	1.460310	-0.448257	-0.190177
C40	C	1.960310	0.051743	0.309823
C41	C	1.459790	-0.551115	-0.190834
C42	C	1.959790	-0.051115	0.309166
C43	C	1.317209	-0.551278	-0.044352
C44	C	1.817209	-0.051278	0.455648
C45	C	1.314497	-0.448414	-0.045130
C46	C	1.814497	0.051586	0.454870
C47	C	1.341704	-0.310248	-0.163587
C48	C	1.841704	0.189752	0.336413
C49	C	1.341789	-0.689879	-0.163568
C50	C	1.841789	-0.189879	0.336432
C51	C	1.549199	-0.000075	-0.156571
C52	C	2.049199	0.499925	0.343429
C53	C	1.675213	-0.000077	-0.159586
C54	C	2.175213	0.499923	0.340414
C55	C	1.348738	-0.000085	0.043880
C56	C	1.848738	0.499915	0.543880
C57	C	1.345718	-0.000093	0.169893
C58	C	1.845718	0.499907	0.669893
N59	N	1.341806	0.229837	-0.163558
N60	N	1.841806	0.729837	0.336442
C61	C	1.343264	-0.000098	0.272229
C62	C	1.843264	0.499902	0.772229
C63	C	1.340196	-0.000099	0.400616
C64	C	1.840196	0.499901	0.900616
C65	C	1.334738	-0.000058	0.628959
C66	C	1.834738	0.499942	1.128959
C67	C	1.337758	-0.000099	0.502946
C68	C	1.837758	0.499901	1.002946
H69	H	1.160875	-0.423502	-0.240312
H70	H	1.660875	0.076498	0.259688
H71	H	1.160376	-0.576300	-0.240223
H72	H	1.660376	-0.076300	0.259777
N73	N	1.549294	-0.582321	-0.109761
N74	N	2.049294	-0.082321	0.390239
N75	N	1.626932	-0.629772	-0.141783
N76	N	2.126932	-0.129772	0.358217
H77	H	1.690164	-0.651801	-0.084542
H78	H	2.190164	-0.151801	0.415458
H79	H	1.264328	-0.577372	-0.343879
H80	H	1.764328	-0.077372	0.156121
H81	H	1.264757	-0.424094	-0.344719
H82	H	1.764757	0.075906	0.155281
H83	H	1.531182	-0.423799	-0.124731
H84	H	2.031182	0.076201	0.375269
H85	H	1.377763	-0.422717	0.026872
H86	H	1.877763	0.077283	0.526872
N87	N	1.486799	-0.581181	-0.299934
N88	N	1.986799	-0.081181	0.200066
N89	N	1.505898	-0.526200	-0.375062
N90	N	2.005898	-0.026200	0.124938
H91	H	1.524973	-0.547430	-0.452118
H92	H	2.024973	-0.047430	0.047882
N93	N	1.487929	-0.415913	-0.298037
N94	N	1.987929	0.084087	0.201963
N95	N	1.420472	-0.365405	-0.355497
N96	N	1.920472	0.134595	0.144503
H97	H	1.439972	-0.342562	-0.431676
H98	H	1.939972	0.157438	0.068324
N99	N	1.211006	-0.583848	-0.012534
N100	N	1.711006	-0.083848	0.487466
N101	N	1.152118	-0.635389	-0.077346
N102	N	1.652118	-0.135389	0.422654
H103	H	1.077104	-0.658389	-0.054890
H104	H	1.577104	-0.158389	0.445110
N105	N	1.205053	-0.417836	-0.019843
N106	N	1.705053	0.082164	0.480157
N107	N	1.147259	-0.368640	-0.088744
N108	N	1.647259	0.131360	0.411256
H109	H	1.069963	-0.347038	-0.070889
H110	H	1.569963	0.152962	0.429111
H111	H	1.385007	-0.575608	0.024383
H112	H	1.885007	-0.075608	0.524383
