data_functionalizedCrystal
_audit_creation_method	'MofGen! by Chris Wilmer'
_symmetry_space_group_name_H-M	'P1'
_symmetry_Int_Tables_number	1
_symmetry_cell_setting	triclinic
loop_
_symmetry_equiv_pos_as_xyz
  x,y,z
_cell_length_a	19.121102
_cell_length_b	21.295416
_cell_length_c	19.120904
_cell_angle_alpha	87.589183
_cell_angle_beta	90.088173
_cell_angle_gamma	92.415449
loop_
_atom_site_label
_atom_site_type_symbol
_atom_site_fract_x
_atom_site_fract_y
_atom_site_fract_z
Zn1	Zn	1.054815	0.307921	-0.442046
Zn2	Zn	1.059724	0.408896	-0.324805
Zn3	Zn	0.942585	0.298968	-0.319831
Zn4	Zn	0.937536	0.408472	-0.437007
O5	O	0.998665	0.356064	-0.380922
O6	O	1.153571	0.325240	-0.430685
O7	O	1.048353	0.390744	-0.226040
O8	O	0.957531	0.212069	-0.336070
O9	O	1.157178	0.399425	-0.344548
O10	O	1.039986	0.218648	-0.425862
O11	O	0.962291	0.309980	-0.222386
O12	O	0.843810	0.309570	-0.331184
O13	O	0.948925	0.398704	-0.535780
O14	O	0.840100	0.390022	-0.417273
O15	O	1.035090	0.324830	-0.539483
O16	O	1.043457	0.496926	-0.339661
O17	O	0.953686	0.496615	-0.422096
C18	C	0.816518	0.348779	-0.373142
C19	C	0.738593	0.345678	-0.369830
C20	C	0.700075	0.386167	-0.413026
C21	C	0.626856	0.383245	-0.409918
C22	C	0.592159	0.339837	-0.363610
C23	C	0.630683	0.299344	-0.320412
C24	C	0.703899	0.302263	-0.323525
C25	C	0.371187	0.328922	-0.351977
C26	C	0.297965	0.326007	-0.348866
C27	C	0.294144	0.409907	-0.438373
C28	C	0.367362	0.412825	-0.441478
C29	C	0.405880	0.372330	-0.398283
C30	C	0.517318	0.336851	-0.360430
C31	C	0.480719	0.375314	-0.401467
C32	C	0.998575	0.519611	-0.380887
C33	C	0.998599	0.589581	-0.380899
C34	C	1.045381	0.622592	-0.338024
C35	C	1.045413	0.688336	-0.338044
C36	C	0.998652	0.721066	-0.380931
C37	C	0.951866	0.688048	-0.423814
C38	C	0.951840	0.622305	-0.423798
N39	N	0.937095	0.822079	-0.383661
N40	N	0.937122	0.884532	-0.383673
C41	C	0.998729	0.919146	-0.380984
N42	N	1.060309	0.888947	-0.378270
N43	N	1.060282	0.826489	-0.378255
C44	C	0.998675	0.792354	-0.380954
C45	C	1.045550	1.023445	-0.338130
C46	C	1.045583	1.089191	-0.338155
C47	C	0.952030	1.088901	-0.423921
C48	C	0.952002	1.023156	-0.423900
C49	C	0.998762	0.990432	-0.381000
C50	C	1.181523	0.363379	-0.388733
C51	C	1.259447	0.366495	-0.392062
C52	C	0.990897	0.362718	-0.563780
C53	C	0.987586	0.365554	-0.641703
C54	C	0.998774	1.191881	-0.380985
C55	C	0.998821	1.121917	-0.381043
C56	C	1.030890	0.328425	-0.680240
C57	C	1.027771	0.331087	-0.753457
C58	C	0.981352	0.370881	-0.788136
C59	C	0.938043	0.408011	-0.749593
C60	C	0.941159	0.405346	-0.676377
C61	C	0.969696	0.380850	-1.009102
C62	C	0.966585	0.383513	-1.082323
C63	C	1.056313	0.306588	-1.086182
C64	C	1.059427	0.303929	-1.012965
C65	C	1.016116	0.341057	-0.974429
C66	C	0.978164	0.373604	-0.862975
C67	C	1.019301	0.338330	-0.899591
C68	C	1.006443	0.349392	-0.198777
C69	C	1.009889	0.346385	-0.120860
H70	H	0.395608	0.448174	-0.479185
H71	H	0.934440	0.411091	-0.977735
N72	N	0.593258	0.252537	-0.270455
H73	H	0.561679	0.223233	-0.297703
H74	H	0.564291	0.275740	-0.236641
N75	N	0.745448	0.258590	-0.276941
H76	H	0.712359	0.230648	-0.247132
H77	H	0.777190	0.284192	-0.245735
H78	H	0.262775	0.442875	-0.473540
N79	N	1.095982	0.988139	-0.291870
H80	H	1.087270	0.997356	-0.241310
H81	H	1.145583	1.001944	-0.305002
N82	N	1.074485	0.291038	-0.795010
H83	H	1.105664	0.319020	-0.826772
H84	H	1.044678	0.261831	-0.824132
H85	H	1.097229	0.271527	-0.984735
H86	H	0.508973	0.410653	-0.439174
N87	N	0.737493	0.432986	-0.462975
H88	H	0.789721	0.428694	-0.458392
H89	H	0.725135	0.477015	-0.451426
N90	N	1.095822	0.587297	-0.291767
H91	H	1.125466	0.618190	-0.264612
H92	H	1.127016	0.562322	-0.321716
H93	H	1.083511	0.715219	-0.303131
N94	N	0.901427	0.723341	-0.470072
H95	H	0.928520	0.752904	-0.503805
H96	H	0.870193	0.748282	-0.440126
H97	H	0.489059	0.301509	-0.322724
H98	H	0.928783	0.415920	-1.110556
H99	H	0.913744	0.595427	-0.458712
N100	N	1.103023	0.266544	-1.127745
H101	H	1.094007	0.274269	-1.179389
H102	H	1.092685	0.220687	-1.114494
H103	H	0.402540	0.295952	-0.316799
N104	N	1.096047	1.124799	-0.291914
H105	H	1.125661	1.094090	-0.264736
H106	H	1.068924	1.149795	-0.258240
N107	N	0.901535	0.987545	-0.470131
H108	H	0.928604	0.962550	-0.503853
H109	H	0.871925	1.018291	-0.497257
H110	H	0.595497	0.416216	-0.445091
H111	H	0.900245	0.440410	-0.777834
H112	H	1.057093	0.305927	-0.871353
H113	H	0.269717	0.290652	-0.311161
H114	H	0.913958	1.115549	-0.458844
N115	N	1.080962	0.285509	-0.642840
H116	H	1.107920	0.262392	-0.678366
H117	H	1.053738	0.254131	-0.611250
N118	N	0.894447	0.445385	-0.634808
H119	H	0.864566	0.470998	-0.667885
H120	H	0.924251	0.474552	-0.605638
H121	H	0.940372	0.406007	-0.891218
