data_functionalizedCrystal
_audit_creation_method	'MofGen! by Chris Wilmer'
_symmetry_space_group_name_H-M	'P1'
_symmetry_Int_Tables_number	1
_symmetry_cell_setting	triclinic
loop_
_symmetry_equiv_pos_as_xyz
  x,y,z
_cell_length_a	9.065218
_cell_length_b	26.809956
_cell_length_c	27.732048
_cell_angle_alpha	90.000636
_cell_angle_beta	83.829270
_cell_angle_gamma	90.009023
loop_
_atom_site_label
_atom_site_type_symbol
_atom_site_fract_x
_atom_site_fract_y
_atom_site_fract_z
O1	O	1.955907	0.041487	0.070860
O2	O	1.526252	0.041488	0.076673
O3	O	1.754424	0.041478	0.003461
O4	O	1.727735	0.041497	0.144073
O5	O	1.754381	-0.041481	0.003472
O6	O	1.526209	-0.041471	0.076684
O7	O	1.955864	-0.041472	0.070872
Zn8	Zn	1.741030	-0.054643	0.073780
Zn9	Zn	1.741086	0.054659	0.073765
O10	O	1.727692	-0.041462	0.144084
C11	C	1.471280	0.000009	0.076120
C12	C	1.307543	0.000009	0.074450
N13	N	1.741002	-0.129239	0.073789
C14	C	1.842108	-0.473869	0.041355
C15	C	1.842143	-0.682747	0.041348
O16	O	1.928046	-0.709755	0.013773
N17	N	1.741094	-0.708866	0.073754
C18	C	1.640024	-0.682762	0.106163
O19	O	1.554067	-0.709771	0.133724
C20	C	1.639983	-0.473886	0.106168
C21	C	1.741048	-0.447769	0.073762
C22	C	1.943163	-0.447753	0.008952
C23	C	1.943158	-0.395537	0.008955
C24	C	1.842099	-0.369437	0.041363
C25	C	1.741043	-0.395553	0.073766
C26	C	1.538907	-0.447783	0.138574
C27	C	1.538903	-0.395560	0.138571
C28	C	1.639968	-0.369444	0.106166
C29	C	1.639979	-0.317237	0.106177
N30	N	1.741027	-0.291118	0.073770
C31	C	1.842087	-0.317218	0.041363
C32	C	1.640055	-0.792426	0.106159
C33	C	1.640066	-0.844645	0.106159
C34	C	1.842183	-0.844626	0.041342
C35	C	1.842178	-0.792406	0.041346
C36	C	1.741103	-0.766307	0.073752
C37	C	1.842071	-0.207560	0.041374
C38	C	1.842061	-0.155339	0.041382
C39	C	1.639940	-0.155362	0.106197
C40	C	1.639954	-0.207579	0.106190
C41	C	1.741025	-0.233676	0.073775
O42	O	1.554109	-0.290197	0.133734
O43	O	1.928009	-0.290200	0.013800
C44	C	1.842112	-0.526086	0.041351
C45	C	1.741057	-0.552202	0.073754
C46	C	1.639997	-0.526102	0.106162
C47	C	1.741068	-0.604421	0.073754
C48	C	1.842128	-0.630521	0.041347
C49	C	1.943176	-0.604402	0.008940
C50	C	1.943172	-0.552186	0.008944
C51	C	1.538949	-0.552221	0.138568
C52	C	1.538963	-0.604437	0.138562
C53	C	1.640022	-0.630537	0.106155
C54	C	2.010836	0.000009	0.071425
C55	C	2.174573	0.000012	0.073095
C56	C	1.753842	-0.000003	-0.014544
C57	C	1.752155	-0.000007	-0.068210
N58	N	1.741126	0.129255	0.073752
C59	C	1.876369	0.000018	-0.406178
C60	C	1.870110	0.000025	-0.607880
O61	O	1.983695	0.000047	-0.638360
N62	N	1.734814	0.000025	-0.627927
C63	C	1.601073	0.000027	-0.597545
O64	O	1.485852	0.000032	-0.619225
C65	C	1.607334	0.000023	-0.395844
C66	C	1.742639	0.000018	-0.375800
C67	C	2.011663	0.000014	-0.386133
C68	C	2.013226	0.000010	-0.335710
C69	C	1.879496	0.000010	-0.305332
C70	C	1.744202	0.000014	-0.325377
C71	C	1.473594	0.000028	-0.365463
C72	C	1.475171	0.000029	-0.315035
C73	C	1.610476	0.000024	-0.294991
C74	C	1.612034	0.000009	-0.244577
N75	N	1.747331	0.000010	-0.224529
C76	C	1.881061	0.000010	-0.254907
C77	C	1.597796	0.000028	-0.703442
C78	C	1.596230	0.000028	-0.753867
C79	C	1.865268	0.000027	-0.764198
C80	C	1.866832	0.000024	-0.713772
C81	C	1.733092	0.000028	-0.683395
C82	C	1.884334	-0.000000	-0.149016
C83	C	1.885886	-0.000007	-0.098588
C84	C	1.616849	-0.000004	-0.088262
C85	C	1.615296	0.000000	-0.138685
C86	C	1.749051	0.000004	-0.169061
O87	O	1.498510	-0.000006	-0.214067
O88	O	1.996266	0.000015	-0.233218
C89	C	1.874806	0.000023	-0.456600
C90	C	1.739512	0.000027	-0.476645
C91	C	1.605781	0.000027	-0.446267
C92	C	1.737946	0.000027	-0.527070
C93	C	1.871677	0.000027	-0.557448
C94	C	2.006973	0.000027	-0.537401
C95	C	2.008537	0.000023	-0.486978
C96	C	1.470485	0.000027	-0.466314
C97	C	1.468933	0.000031	-0.516737
C98	C	1.602663	0.000031	-0.547115
C99	C	1.728274	0.000020	0.162089
C100	C	1.729961	0.000028	0.215755
H101	H	1.924371	-0.228803	0.014978
H102	H	1.557785	-0.865905	0.132552
H103	H	1.557672	-0.228843	0.132583
O104	O	2.009513	0.000031	-0.796967
H105	H	1.985679	0.000036	-0.835396
H106	H	2.025450	-0.374276	-0.017433
O107	O	2.052192	-0.475901	-0.025998
H108	H	2.122460	-0.448959	-0.048522
O109	O	1.322984	0.000031	-0.538353
H110	H	1.315855	0.033845	-0.561079
H111	H	1.924472	-0.771145	0.014958
O112	O	1.951178	-0.872780	0.006384
H113	H	1.934188	-0.913478	0.011828
O114	O	2.154482	0.000024	-0.465367
H115	H	2.161642	-0.033791	-0.442645
O116	O	1.326234	0.000018	-0.433555
H117	H	1.261431	0.033827	-0.440758
O118	O	1.531030	-0.764278	0.141114
H119	H	1.592570	-0.740479	0.164888
O120	O	1.472619	-0.000002	-0.055490
H121	H	1.407792	-0.033815	-0.062685
H122	H	1.996072	-0.000012	-0.082271
H123	H	2.120569	0.000016	-0.410862
H124	H	1.486052	0.000023	-0.770182
H125	H	1.456610	-0.469039	0.164961
H126	H	1.363415	0.000035	-0.381774
O127	O	1.429893	-0.367409	0.173528
H128	H	1.359635	-0.394346	0.196061
H129	H	1.557662	-0.134103	0.132584
O130	O	1.330921	0.000027	-0.282270
H131	H	1.236583	0.000026	-0.304683
H132	H	1.924366	-0.134077	0.014994
H133	H	1.505120	-0.000010	-0.155005
O134	O	2.052163	-0.524020	-0.026013
H135	H	2.122417	-0.550949	-0.048548
H136	H	2.115862	0.000025	-0.562143
H137	H	1.977009	0.000020	-0.697456
H138	H	2.025469	-0.625661	-0.017446
H139	H	1.456666	-0.625697	0.164955
O140	O	1.453533	0.000021	-0.670683
H141	H	1.388732	0.033829	-0.677889
O142	O	1.429954	-0.524073	0.173527
H143	H	1.359707	-0.551012	0.196061
H144	H	1.993250	0.000004	-0.173743
H145	H	2.123406	0.000008	-0.319395
