data_functionalizedCrystal
_audit_creation_method	'MofGen! by Chris Wilmer'
_symmetry_space_group_name_H-M	'P1'
_symmetry_Int_Tables_number	1
_symmetry_cell_setting	triclinic
loop_
_symmetry_equiv_pos_as_xyz
  x,y,z
_cell_length_a	16.956995
_cell_length_b	16.992695
_cell_length_c	16.776229
_cell_angle_alpha	89.993412
_cell_angle_beta	89.989150
_cell_angle_gamma	83.361347
loop_
_atom_site_label
_atom_site_type_symbol
_atom_site_fract_x
_atom_site_fract_y
_atom_site_fract_z
O1	O	1.060103	0.032365	-0.066343
O2	O	1.560103	0.532365	0.433657
O3	O	0.829692	0.059778	-0.066333
O4	O	1.329692	0.559778	0.433667
O5	O	0.943974	-0.068011	-0.066332
O6	O	1.443974	0.431989	0.433668
O7	O	0.945821	0.160154	-0.066345
O8	O	1.445821	0.660154	0.433655
O9	O	0.943956	-0.068017	0.066245
O10	O	1.443956	0.431983	0.566245
O11	O	0.829675	0.059773	0.066243
O12	O	1.329675	0.559773	0.566243
O13	O	1.060085	0.032359	0.066233
O14	O	1.560085	0.532359	0.566233
Zn15	Zn	0.944877	0.046065	0.087288
Zn16	Zn	1.444877	0.546065	0.587288
Zn17	Zn	0.944900	0.046073	-0.087388
Zn18	Zn	1.444900	0.546073	0.412612
O19	O	0.945804	0.160149	0.066232
O20	O	1.445804	0.660149	0.566232
C21	C	0.800065	0.061179	-0.000044
C22	C	1.300065	0.561179	0.499956
C23	C	0.711811	0.065352	-0.000040
C24	C	1.211811	0.565352	0.499960
C25	C	0.941589	-0.097073	-0.000044
C26	C	1.441589	0.402927	0.499956
C27	C	0.934498	-0.183657	-0.000044
C28	C	1.434498	0.316343	0.499956
C29	C	0.214500	0.096570	-0.000071
C30	C	0.714500	0.596570	0.499929
C31	C	0.297425	0.092643	-0.000070
C32	C	0.797425	0.592643	0.499930
C33	C	0.343815	0.018931	-0.000060
C34	C	0.843815	0.518931	0.499940
C35	C	0.307278	-0.050860	-0.000059
C36	C	0.807278	0.449140	0.499941
C37	C	0.224354	-0.046932	-0.000065
C38	C	0.724354	0.453068	0.499935
C39	C	0.592349	-0.000510	-0.000045
C40	C	1.092349	0.499490	0.499955
C41	C	0.675278	-0.004433	-0.000036
C42	C	1.175278	0.495567	0.499964
C43	C	0.665419	0.139071	-0.000049
C44	C	1.165419	0.639071	0.499951
C45	C	0.582495	0.142992	-0.000051
C46	C	1.082495	0.642992	0.499949
C47	C	0.545964	0.073202	-0.000054
C48	C	1.045964	0.573202	0.499946
N49	N	0.428578	0.014915	-0.000057
N50	N	0.928578	0.514915	0.499943
N51	N	0.461203	0.077218	-0.000063
N52	N	0.961203	0.577218	0.499937
C53	C	1.002913	-0.238332	-0.000046
C54	C	1.502913	0.261668	0.499954
C55	C	0.996246	-0.319686	-0.000053
C56	C	1.496246	0.180314	0.499947
C57	C	0.921163	-0.346365	-0.000052
C58	C	1.421163	0.153635	0.499948
C59	C	0.852743	-0.291683	-0.000053
C60	C	1.352743	0.208317	0.499947
C61	C	0.859411	-0.210331	-0.000051
C62	C	1.359411	0.289669	0.499949
C63	C	0.893527	-0.588171	-0.000062
C64	C	1.393527	-0.088171	0.499938
C65	C	0.886865	-0.669531	-0.000061
C66	C	1.386865	-0.169531	0.499939
C67	C	1.030368	-0.697528	-0.000063
C68	C	1.530368	-0.197528	0.499937
C69	C	1.037029	-0.616172	-0.000057
C70	C	1.537029	-0.116172	0.499943
C71	C	0.968609	-0.561498	-0.000061
C72	C	1.468609	-0.061498	0.499939
N73	N	0.914346	-0.429522	-0.000057
N74	N	1.414346	0.070478	0.499943
N75	N	0.975427	-0.478343	-0.000062
N76	N	1.475427	0.021657	0.499938
C77	C	1.089713	0.030958	-0.000058
C78	C	1.589713	0.530958	0.499942
C79	C	1.177967	0.026785	-0.000067
C80	C	1.677967	0.526785	0.499933
C81	C	0.948189	0.189210	-0.000058
C82	C	1.448189	0.689210	0.499942
C83	C	0.955280	0.275795	-0.000064
C84	C	1.455280	0.775795	0.499936
N85	N	0.944867	0.046059	0.206499
N86	N	1.444867	0.546059	0.706499
C87	C	0.995488	-0.010506	0.248216
C88	C	1.495488	0.489494	0.748216
C89	C	0.995492	-0.010506	0.331669
C90	C	1.495492	0.489494	0.831669
C91	C	0.944878	0.046062	0.373402
C92	C	1.444878	0.546062	0.873402
C93	C	0.894251	0.102629	0.331678
C94	C	1.394251	0.602629	0.831678
C95	C	0.894244	0.102625	0.248227
C96	C	1.394244	0.602625	0.748227
C97	C	0.894278	0.102644	0.668225
C98	C	1.394278	0.602644	1.168225
C99	C	0.894291	0.102644	0.751682
C100	C	1.394291	0.602644	1.251682
C101	C	0.995527	-0.010488	0.751667
C102	C	1.495527	0.489512	1.251667
C103	C	0.995519	-0.010492	0.668216
C104	C	1.495519	0.489508	1.168216
C105	C	0.944890	0.046073	0.626500
C106	C	1.444890	0.546073	1.126500
C107	C	0.944885	0.046072	0.536011
C108	C	1.444885	0.546072	1.036011
C109	C	0.944886	0.046067	0.463888
C110	C	1.444886	0.546067	0.963888
N111	N	0.944909	0.046076	0.793401
N112	N	1.444909	0.546076	1.293401
H113	H	0.176733	0.156595	-0.000073
H114	H	0.676733	0.656595	0.499927
Br115	Br	0.715001	0.233780	-0.000050
Br116	Br	1.215001	0.733780	0.499950
H117	H	1.036708	-0.056567	0.214243
H118	H	1.536708	0.443433	0.714243
Br119	Br	1.089099	-0.393885	-0.000056
Br120	Br	1.589099	0.106115	0.499944
Br121	Br	0.370236	-0.150900	-0.000050
Br122	Br	0.870236	0.349100	0.499950
H123	H	0.713048	-0.064462	-0.000032
H124	H	1.213048	0.435538	0.499968
H125	H	0.194611	-0.103758	-0.000064
H126	H	0.694611	0.396242	0.499936
Br127	Br	1.064239	-0.087257	0.808285
Br128	Br	1.564239	0.412743	1.308285
Br129	Br	0.825535	0.179390	0.191610
Br130	Br	1.325535	0.679390	0.691610
H131	H	0.853072	0.148710	0.785660
H132	H	1.353072	0.648710	1.285660
Br133	Br	0.825571	0.179408	0.611615
Br134	Br	1.325571	0.679408	1.111615
H135	H	0.791609	-0.313411	-0.000057
H136	H	1.291609	0.186589	0.499943
Br137	Br	1.064191	-0.087276	0.388288
Br138	Br	1.564191	0.412724	0.888288
Br139	Br	0.766559	-0.136128	-0.000055
Br140	Br	1.266559	0.363872	0.499945
H141	H	0.327165	0.149470	-0.000081
H142	H	0.827165	0.649470	0.499919
Br143	Br	0.542782	-0.095226	-0.000073
Br144	Br	1.042782	0.404774	0.499927
Br145	Br	1.104816	-0.202134	-0.000035
Br146	Br	1.604816	0.297866	0.499965
Br147	Br	1.123218	-0.771731	-0.000057
Br148	Br	1.623218	-0.271731	0.499943
H149	H	1.036737	-0.056552	0.634239
H150	H	1.536737	0.443448	1.134239
Br151	Br	0.825552	0.179396	0.388313
Br152	Br	1.325552	0.679396	0.888313
Br153	Br	0.800671	-0.513981	-0.000073
Br154	Br	1.300671	-0.013981	0.499927
Br155	Br	0.519541	0.243034	-0.000068
Br156	Br	1.019541	0.743034	0.499932
H157	H	0.825720	-0.691248	-0.000048
H158	H	1.325720	-0.191248	0.499952
Br159	Br	1.138931	-0.579972	-0.000083
Br160	Br	1.638931	-0.079972	0.499917
