data_functionalizedCrystal
_audit_creation_method	'MofGen! by Chris Wilmer'
_symmetry_space_group_name_H-M	'P1'
_symmetry_Int_Tables_number	1
_symmetry_cell_setting	triclinic
loop_
_symmetry_equiv_pos_as_xyz
  x,y,z
_cell_length_a	19.188905
_cell_length_b	19.188930
_cell_length_c	11.295483
_cell_angle_alpha	94.076039
_cell_angle_beta	85.901908
_cell_angle_gamma	83.139668
loop_
_atom_site_label
_atom_site_type_symbol
_atom_site_fract_x
_atom_site_fract_y
_atom_site_fract_z
O1	O	0.930883	0.082358	-0.099235
O2	O	0.727568	0.094112	-0.099196
O3	O	0.835092	-0.013420	-0.099193
O4	O	0.823359	0.189890	-0.099237
O5	O	0.825648	-0.003990	0.098857
O6	O	0.718124	0.103542	0.098855
O7	O	0.921439	0.091788	0.098816
Cu8	Cu	0.818919	0.098526	0.116919
Cu9	Cu	0.830088	0.087374	-0.117299
O10	O	0.813915	0.199320	0.098813
C11	C	0.696834	0.098450	-0.000165
C12	C	0.619328	0.097317	-0.000149
C13	C	0.588084	0.091632	-0.108110
C14	C	0.515261	0.090558	-0.108124
C15	C	0.473686	0.095156	-0.000172
C16	C	0.504938	0.100845	0.107802
C17	C	0.577758	0.101926	0.107814
N18	N	0.360835	0.057553	0.080175
N19	N	0.291659	0.056524	0.080157
C20	C	0.254281	0.091902	-0.000200
N21	N	0.288695	0.128336	-0.080557
N22	N	0.357878	0.129362	-0.080542
C23	C	0.394724	0.093985	-0.000173
C24	C	0.144075	0.085053	-0.108184
C25	C	0.071250	0.083984	-0.108194
C26	C	0.060928	0.094264	0.107736
C27	C	0.133751	0.095340	0.107743
C28	C	0.175321	0.090731	-0.000221
C29	C	0.829989	-0.034716	-0.000164
C30	C	0.828848	-0.112220	-0.000154
C31	C	0.891940	-0.157150	-0.000160
C32	C	0.890869	-0.229974	-0.000179
C33	C	0.826702	-0.257865	-0.000168
C34	C	0.763602	-0.212925	-0.000168
C35	C	0.764675	-0.140103	-0.000161
N36	N	0.774440	-0.362655	0.067242
N37	N	0.773424	-0.431834	0.067238
C38	C	0.823465	-0.477274	-0.000191
N39	N	0.874569	-0.450923	-0.067601
N40	N	0.875586	-0.381738	-0.067592
C41	C	0.825531	-0.336827	-0.000176
C42	C	0.885400	-0.601169	-0.000220
C43	C	0.884327	-0.673995	-0.000246
C44	C	0.757057	-0.656944	-0.000223
C45	C	0.758133	-0.584120	-0.000209
C46	C	0.822306	-0.556237	-0.000201
C47	C	0.952173	0.087450	-0.000217
C48	C	1.029680	0.088583	-0.000241
C49	C	0.819018	0.220616	-0.000218
C50	C	0.820159	0.298119	-0.000237
N51	N	0.811069	0.106370	0.281655
N52	N	0.837944	0.079525	-0.282035
C53	C	0.894455	0.023023	0.530947
C54	C	0.888527	0.028956	0.655610
C55	C	0.793283	0.124163	0.655648
C56	C	0.799211	0.118231	0.530984
C57	C	0.849799	0.067660	0.468638
C58	C	0.855729	0.061731	0.343972
C59	C	0.760482	0.156935	0.344012
C60	C	0.754555	0.162867	0.468676
H61	H	0.027078	0.098012	0.195632
H62	H	0.935707	-0.710578	-0.000258
H63	H	0.944195	-0.134453	-0.000158
H64	H	0.924890	-0.007393	0.706338
H65	H	0.159190	0.099965	0.195656
H66	H	0.706756	-0.547537	-0.000197
H67	H	0.935650	-0.018149	0.480183
H68	H	0.752091	0.165332	0.706426
H69	H	0.603196	0.106556	0.195731
H70	H	0.713296	-0.103520	-0.000156
H71	H	0.937654	-0.578466	-0.000219
H72	H	0.713365	0.204040	0.519452
H73	H	0.471083	0.104591	0.195698
F74	F	0.712958	0.204446	0.277687
H75	H	0.704811	-0.679652	-0.000219
H76	H	0.621926	0.087878	-0.196022
H77	H	0.489817	0.085929	-0.196041
H78	H	0.177921	0.081307	-0.196094
F79	F	0.695311	-0.242609	-0.000164
F80	F	0.037998	0.077938	-0.223107
H81	H	0.896923	0.020556	0.293211
F82	F	0.958023	-0.277801	-0.000188
