data_functionalizedCrystal
_audit_creation_method	'MofGen! by Chris Wilmer'
_symmetry_space_group_name_H-M	'P1'
_symmetry_Int_Tables_number	1
_symmetry_cell_setting	triclinic
loop_
_symmetry_equiv_pos_as_xyz
  x,y,z
_cell_length_a	11.792241
_cell_length_b	17.766277
_cell_length_c	19.288857
_cell_angle_alpha	90.008526
_cell_angle_beta	96.336738
_cell_angle_gamma	89.995500
loop_
_atom_site_label
_atom_site_type_symbol
_atom_site_fract_x
_atom_site_fract_y
_atom_site_fract_z
O1	O	-1.505468	0.062514	0.095201
O2	O	-1.005468	0.562514	0.595201
O3	O	-1.174978	0.062534	0.105013
O4	O	-0.674978	0.562534	0.605013
O5	O	-1.349777	0.062514	-0.000970
O6	O	-0.849777	0.562514	0.499030
O7	O	-1.330669	0.062534	0.201183
O8	O	-0.830669	0.562534	0.701183
O9	O	-1.349747	-0.062674	-0.000975
O10	O	-0.849747	0.437326	0.499025
O11	O	-1.174947	-0.062654	0.105007
O12	O	-0.674947	0.437346	0.605007
O13	O	-1.505438	-0.062675	0.095196
O14	O	-1.005438	0.437325	0.595196
Cu15	Cu	-1.340190	-0.074095	0.100101
Cu16	Cu	-0.840190	0.425905	0.600101
Cu17	Cu	-1.340226	0.073955	0.100107
Cu18	Cu	-0.840226	0.573955	0.600107
O19	O	-1.330638	-0.062655	0.201178
O20	O	-0.830638	0.437345	0.701178
C21	C	-1.132681	-0.000058	0.104393
C22	C	-0.632681	0.499942	0.604393
C23	C	-1.006695	-0.000050	0.102549
C24	C	-0.506695	0.499950	0.602549
N25	N	-1.340172	-0.178226	0.100096
N26	N	-0.840172	0.321774	0.600096
C27	C	-1.417599	-0.217621	0.053190
C28	C	-0.917599	0.282379	0.553190
C29	C	-1.417605	-0.296423	0.053187
C30	C	-0.917605	0.203577	0.553187
C31	C	-1.340196	-0.335826	0.100101
C32	C	-0.840196	0.164174	0.600101
C33	C	-1.262756	-0.296421	0.147010
C34	C	-0.762756	0.203579	0.647010
C35	C	-1.262744	-0.217621	0.147008
C36	C	-0.762744	0.282379	0.647008
C37	C	-1.325000	-0.460658	0.163303
C38	C	-0.825000	0.039342	0.663303
C39	C	-1.325019	-0.539456	0.163307
C40	C	-0.825019	-0.039456	0.663307
C41	C	-1.340227	-0.578872	0.100110
C42	C	-0.840227	-0.078872	0.600110
C43	C	-1.355438	-0.539480	0.036907
C44	C	-0.855438	-0.039480	0.536907
C45	C	-1.355426	-0.460680	0.036904
C46	C	-0.855426	0.039320	0.536904
C47	C	-1.340200	-0.421272	0.100109
C48	C	-0.840200	0.078728	0.600109
C49	C	-1.417664	-0.703714	0.053197
C50	C	-0.917664	-0.203714	0.553197
C51	C	-1.417663	-0.782517	0.053193
C52	C	-0.917663	-0.282517	0.553193
C53	C	-1.262819	-0.782514	0.147022
C54	C	-0.762819	-0.282514	0.647022
C55	C	-1.262815	-0.703712	0.147020
C56	C	-0.762815	-0.203712	0.647020
C57	C	-1.340243	-0.664317	0.100109
C58	C	-0.840243	-0.164317	0.600109
C59	C	-0.776035	-0.000070	0.099157
C60	C	-0.276035	0.499930	0.599157
C61	C	-0.904391	-0.000059	0.101041
C62	C	-0.404391	0.499941	0.601041
C63	C	-0.547734	-0.000079	0.095815
C64	C	-0.047734	0.499921	0.595815
C65	C	-0.673720	-0.000076	0.097659
C66	C	-0.173720	0.499924	0.597659
C67	C	-1.349149	-0.000081	-0.026852
C68	C	-0.849149	0.499919	0.473148
C69	C	-1.347307	-0.000083	-0.103967
C70	C	-0.847307	0.499917	0.396033
N71	N	-1.340252	0.178085	0.100107
N72	N	-0.840252	0.678085	0.600107
C73	C	-1.346465	0.068158	-0.140179
C74	C	-0.846465	0.568158	0.359821
C75	C	-1.344718	0.068164	-0.212635
C76	C	-0.844718	0.568164	0.287365
C77	C	-1.343838	-0.000075	-0.248878
C78	C	-0.843838	0.499925	0.251122
C79	C	-1.344674	-0.068324	-0.212656
C80	C	-0.844674	0.431676	0.287344
C81	C	-1.346409	-0.068328	-0.140200
C82	C	-0.846409	0.431672	0.359800
C83	C	-1.407553	-0.052354	-0.368749
C84	C	-0.907553	0.447646	0.131251
C85	C	-1.405825	-0.052347	-0.441204
C86	C	-0.905825	0.447653	0.058796
C87	C	-1.338482	-0.000066	-0.472354
C88	C	-0.838482	0.499934	0.027646
C89	C	-1.272881	0.052221	-0.431041
C90	C	-0.772881	0.552221	0.068959
C91	C	-1.274616	0.052217	-0.358586
C92	C	-0.774616	0.552217	0.141414
C93	C	-1.341956	-0.000079	-0.327443
C94	C	-0.841956	0.499921	0.172557
C95	C	-1.335744	0.068185	-0.587131
C96	C	-0.835744	0.568185	-0.087131
C97	C	-1.333991	0.068188	-0.659588
C98	C	-0.833991	0.568188	-0.159588
C99	C	-1.333958	-0.068302	-0.659608
C100	C	-0.833958	0.431698	-0.159608
C101	C	-1.335700	-0.068303	-0.587152
C102	C	-0.835700	0.431697	-0.087152
C103	C	-1.336598	-0.000057	-0.550918
C104	C	-0.836598	0.499943	-0.050918
C105	C	-1.331267	-0.000058	0.227060
C106	C	-0.831267	0.499942	0.727060
C107	C	-1.333108	-0.000051	0.304175
C108	C	-0.833108	0.499949	0.804175
H109	H	-1.480657	-0.328505	0.014989
H110	H	-0.980657	0.171495	0.514989
N111	N	-1.347363	0.137860	-0.103157
N112	N	-0.847363	0.637860	0.396843
N113	N	-1.348909	0.137851	-0.038465
N114	N	-0.848909	0.637851	0.461535
H115	H	-1.349543	0.187078	-0.012315
H116	H	-0.849543	0.687078	0.487685
H117	H	-1.480708	-0.671637	0.014996
H118	H	-0.980708	-0.171637	0.514996
N119	N	-1.183728	-0.822751	0.194935
N120	N	-0.683728	-0.322751	0.694935
N121	N	-1.113401	-0.866731	0.172605
N122	N	-0.613401	-0.366731	0.672605
H123	H	-1.057535	-0.895151	0.206442
H124	H	-0.557535	-0.395151	0.706442
N125	N	-1.207588	0.105608	-0.316384
N126	N	-0.707588	0.605608	0.183616
N127	N	-1.132445	0.083349	-0.270151
N128	N	-0.632445	0.583349	0.229849
H129	H	-1.085101	0.121054	-0.240345
H130	H	-0.585101	0.621054	0.259655
H131	H	-1.367821	-0.571571	-0.014554
H132	H	-0.867821	-0.071571	0.485446
H133	H	-1.480709	-0.814594	0.014993
H134	H	-0.980709	-0.314594	0.514993
H135	H	-1.199693	-0.185544	0.185204
H136	H	-0.699693	0.314456	0.685204
N137	N	-1.183718	-0.663477	0.194939
N138	N	-0.683718	-0.163477	0.694939
N139	N	-1.114603	-0.698664	0.236822
N140	N	-0.614603	-0.198664	0.736822
H141	H	-1.058733	-0.670249	0.270665
H142	H	-0.558733	-0.170249	0.770665
N143	N	-1.496790	-0.177393	0.005327
N144	N	-0.996790	0.322607	0.505327
N145	N	-1.565979	-0.212584	-0.036512
N146	N	-1.065979	0.287416	0.463488
H147	H	-1.621945	-0.184172	-0.070295
H148	H	-1.121945	0.315828	0.429705
H149	H	-1.459245	-0.094920	-0.474836
H150	H	-0.959245	0.405080	0.025164
H151	H	-1.312640	-0.571524	0.214770
H152	H	-0.812640	-0.071524	0.714770
N153	N	-1.343786	-0.138036	-0.249663
N154	N	-0.843786	0.361964	0.250337
N155	N	-1.344541	-0.198962	-0.217318
N156	N	-0.844541	0.301038	0.282682
H157	H	-1.343909	-0.248199	-0.243453
H158	H	-0.843909	0.251801	0.256547
N159	N	-1.183685	-0.336678	0.194924
N160	N	-0.683685	0.163322	0.694924
N161	N	-1.183706	-0.407035	0.194920
N162	N	-0.683706	0.092965	0.694920
H163	H	-1.127856	-0.435467	0.228758
H164	H	-0.627856	0.064533	0.728758
H165	H	-1.344025	0.123735	-0.242125
H166	H	-0.844025	0.623735	0.257875
N167	N	-1.204084	0.105632	-0.462845
N168	N	-0.704084	0.605632	0.037155
N169	N	-1.221042	0.174555	-0.456028
N170	N	-0.721042	0.674555	0.043972
H171	H	-1.172457	0.212276	-0.478494
H172	H	-0.672457	0.712276	0.021506
N173	N	-1.370963	-0.420453	-0.027657
N174	N	-0.870963	0.079547	0.472343
N175	N	-1.384544	-0.455646	-0.084081
N176	N	-0.884544	0.044354	0.415919
H177	H	-1.395513	-0.427237	-0.129679
H178	H	-0.895513	0.072763	0.370321
H179	H	-1.333232	-0.123863	-0.689115
H180	H	-0.833232	0.376137	-0.189115
N181	N	-1.336664	0.137899	-0.550125
N182	N	-0.836664	0.637899	-0.050125
N183	N	-1.335904	0.198826	-0.582470
N184	N	-0.835904	0.698826	-0.082470
H185	H	-1.336555	0.248063	-0.556337
H186	H	-0.836555	0.748063	-0.056337
H187	H	-1.333299	0.123760	-0.689070
H188	H	-0.833299	0.623760	-0.189070
H189	H	-1.336395	-0.123872	-0.557668
H190	H	-0.836395	0.376128	-0.057668
N191	N	-1.347264	-0.138044	-0.103217
N192	N	-0.847264	0.361956	0.396783
N193	N	-1.346466	-0.198969	-0.135579
N194	N	-0.846466	0.301031	0.364421
H195	H	-1.347071	-0.248208	-0.109459
H196	H	-0.847071	0.251792	0.390541
N197	N	-1.309462	-0.420393	0.227858
N198	N	-0.809462	0.079607	0.727858
N199	N	-1.226942	-0.376428	0.240161
N200	N	-0.726942	0.123572	0.740161
H201	H	-1.215968	-0.347993	0.285752
H202	H	-0.715968	0.152007	0.785752
H203	H	-1.462390	-0.094933	-0.343394
H204	H	-0.962390	0.405067	0.156606
