data_functionalizedCrystal
_audit_creation_method	'MofGen! by Chris Wilmer'
_symmetry_space_group_name_H-M	'P1'
_symmetry_Int_Tables_number	1
_symmetry_cell_setting	triclinic
loop_
_symmetry_equiv_pos_as_xyz
  x,y,z
_cell_length_a	13.635800
_cell_length_b	10.943632
_cell_length_c	19.551833
_cell_angle_alpha	85.542695
_cell_angle_beta	78.336523
_cell_angle_gamma	108.838880
loop_
_atom_site_label
_atom_site_type_symbol
_atom_site_fract_x
_atom_site_fract_y
_atom_site_fract_z
V1	V	-2.016939	-0.179983	0.217841
O2	O	-1.996567	0.007256	0.213712
O3	O	-2.006196	-0.355537	0.216335
O4	O	-1.988121	-0.177826	0.312857
O5	O	-2.014768	-0.171685	0.116521
V6	V	-2.257607	-0.157515	0.205724
O7	O	-2.149965	-0.229269	0.244420
O8	O	-2.349680	-0.108229	0.179146
O9	O	-2.156747	0.018039	0.207231
O10	O	-2.336678	-0.344755	0.209854
O11	O	-2.318477	-0.165813	0.307044
O12	O	-2.174822	-0.159672	0.110709
V13	V	-1.516939	-0.179983	0.217841
O14	O	-1.496567	0.007256	0.213712
O15	O	-1.506196	-0.355537	0.216335
O16	O	-1.488121	-0.177826	0.312857
O17	O	-1.514768	-0.171685	0.116521
V18	V	-1.757607	-0.157515	0.205724
O19	O	-1.649965	-0.229269	0.244420
O20	O	-1.849680	-0.108229	0.179146
O21	O	-1.656747	0.018039	0.207231
O22	O	-1.836678	-0.344755	0.209854
O23	O	-1.818477	-0.165813	0.307044
O24	O	-1.674822	-0.159672	0.110709
C25	C	-1.932120	-0.398314	0.212894
C26	C	-1.963949	-0.541836	0.212295
C27	C	-1.887118	-0.618964	0.208316
C28	C	-1.937102	-0.691260	0.151910
C29	C	-1.970691	-0.725271	0.267643
C30	C	-2.013501	-0.612227	0.155849
C31	C	-2.047089	-0.646246	0.271633
C32	C	-2.097130	-0.718504	0.215216
C33	C	-1.909062	-0.171624	0.336016
C34	C	-1.926231	-0.171022	0.413692
C35	C	-2.062495	0.060809	0.210670
C36	C	-2.020285	0.204329	0.211273
C37	C	-2.085552	-0.165878	0.087545
C38	C	-2.058003	-0.166474	0.009869
C39	C	-1.432120	-0.398314	0.212894
C40	C	-1.463949	-0.541836	0.212295
C41	C	-1.409062	-0.171624	0.336016
C42	C	-1.426231	-0.171022	0.413692
C43	C	-2.025680	-0.177220	0.453739
C44	C	-2.041812	-0.176654	0.526723
C45	C	-1.958495	-0.169916	0.559660
C46	C	-1.859030	-0.163711	0.519604
C47	C	-1.842898	-0.164263	0.446619
C48	C	-1.932475	-0.240116	0.678966
C49	C	-1.948613	-0.239571	0.751949
C50	C	-2.008248	-0.168205	0.784767
C51	C	-2.051764	-0.097401	0.744595
C52	C	-2.035631	-0.097954	0.671611
C53	C	-1.975978	-0.169315	0.638799
C54	C	-2.125195	-0.173788	0.903952
C55	C	-2.141322	-0.173214	0.976937
C56	C	-1.958540	-0.160283	0.969817
C57	C	-1.942413	-0.160844	0.896833
C58	C	-2.025746	-0.167603	0.863905
C59	C	-1.562495	0.060809	0.210670
C60	C	-1.520285	0.204329	0.211273
C61	C	-1.585552	-0.165878	0.087545
C62	C	-1.558003	-0.166474	0.009869
C63	C	-1.525684	-0.177198	0.453730
C64	C	-1.541826	-0.176616	0.526714
C65	C	-1.458515	-0.169866	0.559658
C66	C	-1.359052	-0.163685	0.519615
C67	C	-1.342910	-0.164258	0.446632
C68	C	-1.459081	-0.173209	-0.023058
C69	C	-1.433176	-0.173754	-0.096043
C70	C	-1.506197	-0.167572	-0.136101
C71	C	-1.605126	-0.160832	-0.103169
C72	C	-1.631026	-0.160279	-0.030186
C73	C	-1.387118	-0.618964	0.208316
C74	C	-1.437102	-0.691260	0.151910
C75	C	-1.470691	-0.725271	0.267643
C76	C	-1.513501	-0.612227	0.155849
C77	C	-1.547089	-0.646246	0.271633
C78	C	-1.597130	-0.718504	0.215216
H79	H	-1.798020	-0.575461	0.205333
H80	H	-1.399611	-0.178243	0.009548
H81	H	-1.952883	-0.774485	0.314872
F82	F	-1.736319	-0.153126	0.004851
F83	F	-1.327888	-0.180936	-0.131077
H84	H	-1.298020	-0.575461	0.205333
H85	H	-1.261923	-0.159232	0.414038
F86	F	-1.876761	-0.718045	0.085759
F87	F	-1.475712	-0.169260	0.637335
F88	F	-1.478618	-0.168166	-0.213777
F89	F	-1.376761	-0.718045	0.085759
H90	H	-1.664571	-0.155796	-0.135795
H91	H	-2.031277	-0.563166	0.108556
H92	H	-2.186216	-0.761747	0.218113
F93	F	-1.536719	-0.548102	0.094026
H94	H	-2.093218	-0.625770	0.322258
H95	H	-1.686216	-0.761747	0.218113
F96	F	-1.614366	-0.184383	0.418682
F97	F	-1.869861	-0.153093	1.004865
H98	H	-1.593218	-0.625770	0.322258
F99	F	-2.147664	-0.183244	0.569352
F100	F	-1.447420	-0.789582	0.329382
F101	F	-2.081943	-0.022602	0.628859
F102	F	-2.114371	-0.184407	0.418699
F103	F	-1.836568	-0.154265	0.854211
H104	H	-2.100326	-0.039292	0.771314
H105	H	-2.193049	-0.179287	0.877141
F106	F	-1.737047	-0.157670	0.403997
F107	F	-2.247174	-0.179807	1.019558
F108	F	-1.902307	-0.314935	0.794698
H109	H	-1.622821	-0.181654	0.559308
H110	H	-1.883903	-0.298223	0.652251
F111	F	-1.770358	-0.156536	0.554658
H112	H	-1.291226	-0.158190	0.546449
