data_functionalizedCrystal
_audit_creation_method	'MofGen! by Chris Wilmer'
_symmetry_space_group_name_H-M	'P1'
_symmetry_Int_Tables_number	1
_symmetry_cell_setting	triclinic
loop_
_symmetry_equiv_pos_as_xyz
  x,y,z
_cell_length_a	10.540539
_cell_length_b	10.723023
_cell_length_c	9.798715
_cell_angle_alpha	90.002993
_cell_angle_beta	90.001248
_cell_angle_gamma	84.496520
loop_
_atom_site_label
_atom_site_type_symbol
_atom_site_fract_x
_atom_site_fract_y
_atom_site_fract_z
O1	O	0.178042	1.657276	0.113470
O2	O	0.678042	2.157276	0.613470
O3	O	0.195085	1.294132	0.113475
O4	O	0.695085	1.794132	0.613475
O5	O	0.001853	1.483989	0.113471
O6	O	0.501853	1.983989	0.613471
O7	O	0.371274	1.467419	0.113474
O8	O	0.871274	1.967419	0.613474
O9	O	0.001851	1.483975	-0.113511
O10	O	0.501851	1.983975	0.386489
O11	O	0.195084	1.294119	-0.113507
O12	O	0.695084	1.794119	0.386493
O13	O	0.178040	1.657263	-0.113512
O14	O	0.678040	2.157263	0.386488
Zn15	Zn	0.186562	1.475688	-0.149548
Zn16	Zn	0.686562	1.975688	0.350452
Zn17	Zn	0.186564	1.475706	0.149511
Zn18	Zn	0.686564	1.975706	0.649511
O19	O	0.371273	1.467406	-0.113508
O20	O	0.871273	1.967406	0.386492
C21	C	0.193844	1.247625	-0.000015
C22	C	0.693844	1.747625	0.499985
C23	C	0.190134	1.109069	-0.000013
C24	C	0.690134	1.609069	0.499987
C25	C	-0.045450	1.482739	-0.000018
C26	C	0.454550	1.982739	0.499982
C27	C	-0.186397	1.479022	-0.000010
C28	C	0.313603	1.979022	0.499990
C29	C	0.188479	1.047289	-0.117596
C30	C	0.688479	1.547289	0.382404
C31	C	0.184644	0.904084	-0.117596
C32	C	0.684644	1.404084	0.382404
C33	C	-0.369750	1.336564	0.000501
C34	C	0.130250	1.836564	0.500501
C35	C	-0.223134	1.340333	-0.000010
C36	C	0.276866	1.840333	0.499990
C37	C	-0.248090	1.545758	-0.129629
C38	C	0.251910	2.045758	0.370371
C39	C	-0.394632	1.541024	-0.129738
C40	C	0.105368	2.041024	0.370262
C41	C	-0.395150	1.543860	0.128383
C42	C	0.104850	2.043860	0.628383
C43	C	-0.248168	1.545138	0.130096
C44	C	0.251832	2.045138	0.630096
C45	C	0.418576	1.468655	-0.000016
C46	C	0.918576	1.968655	0.499984
C47	C	0.559522	1.472373	-0.000015
C48	C	1.059522	1.972373	0.499985
C49	C	0.179281	1.703769	-0.000019
C50	C	0.679281	2.203769	0.499981
C51	C	0.182991	1.842326	-0.000012
C52	C	0.682991	2.342326	0.499988
N53	N	0.186560	1.475686	-0.353648
N54	N	0.686560	1.975686	0.146352
C55	C	0.105251	1.555599	-0.578581
C56	C	0.605251	2.055599	-0.078581
C57	C	0.105252	1.555582	-0.421418
C58	C	0.605252	2.055582	0.078582
N59	N	0.186556	1.475719	0.353611
N60	N	0.686556	1.975719	0.853611
H61	H	0.183228	0.850954	-0.218263
H62	H	0.683228	1.350954	0.281737
H63	H	0.188709	1.055942	0.100653
H64	H	0.688709	1.555942	0.600653
H65	H	-0.205467	1.499388	-0.226086
H66	H	0.294533	1.999388	0.273914
H67	H	0.256167	1.407289	-0.411951
H68	H	0.756167	1.907289	0.088049
H69	H	-0.180503	1.287821	0.092906
H70	H	0.319497	1.787821	0.592906
H71	H	0.256170	1.407322	-0.588092
H72	H	0.756170	1.907322	-0.088092
H73	H	-0.223999	1.646253	0.137922
H74	H	0.276001	2.146253	0.637922
H75	H	-0.398321	1.281784	0.093453
H76	H	0.101679	1.781784	0.593453
H77	H	0.035645	1.624005	-0.636877
H78	H	0.535645	2.124005	-0.136877
H79	H	0.184422	0.895446	0.100660
H80	H	0.684422	1.395446	0.600660
H81	H	0.035639	1.623966	-0.363106
H82	H	0.535639	2.123966	0.136894
H83	H	-0.426679	1.498979	0.226625
H84	H	0.073321	1.998979	0.726625
H85	H	-0.399930	1.281996	-0.091929
H86	H	0.100070	1.781996	0.408071
H87	H	0.189894	1.100417	-0.218262
H88	H	0.689894	1.600417	0.281738
O89	O	-0.173412	1.277078	-0.111000
O90	O	0.326588	1.777078	0.389000
C91	C	-0.202880	1.151681	-0.105136
C92	C	0.297120	1.651681	0.394864
H93	H	-0.290504	1.145441	-0.038202
H94	H	0.209496	1.645441	0.461798
H95	H	-0.223235	1.117619	-0.212423
H96	H	0.276765	1.617619	0.287577
H97	H	-0.118732	1.090586	-0.060043
H98	H	0.381268	1.590586	0.439957
H99	H	-0.422806	1.491692	-0.226630
H100	H	0.077194	1.991692	0.273370
H101	H	-0.442652	1.640767	-0.135620
H102	H	0.057348	2.140767	0.364380
H103	H	-0.207284	1.496308	0.225985
H104	H	0.292716	1.996308	0.725985
O105	O	-0.221320	1.667219	-0.135219
O106	O	0.278680	2.167219	0.364781
C107	C	-0.146272	1.693751	-0.021662
C108	C	0.353728	2.193751	0.478338
H109	H	-0.094752	1.602943	0.018892
H110	H	0.405248	2.102943	0.518892
H111	H	-0.073269	1.759953	-0.053730
H112	H	0.426731	2.259953	0.446270
H113	H	-0.210105	1.739810	0.061674
H114	H	0.289895	2.239810	0.561674
O115	O	-0.451706	1.663309	0.129260
O116	O	0.048294	2.163309	0.629260
C117	C	-0.531809	1.682292	0.014407
C118	C	-0.031809	2.182292	0.514407
H119	H	-0.560283	1.588221	-0.022941
H120	H	-0.060283	2.088221	0.477059
H121	H	-0.620940	1.745334	0.043602
H122	H	-0.120940	2.245334	0.543602
H123	H	-0.478982	1.728672	-0.070312
H124	H	0.021018	2.228672	0.429688
