data_functionalizedCrystal
_audit_creation_method	'MofGen! by Chris Wilmer'
_symmetry_space_group_name_H-M	'P1'
_symmetry_Int_Tables_number	1
_symmetry_cell_setting	triclinic
loop_
_symmetry_equiv_pos_as_xyz
  x,y,z
_cell_length_a	8.559649
_cell_length_b	15.995350
_cell_length_c	7.681481
_cell_angle_alpha	84.260013
_cell_angle_beta	94.913240
_cell_angle_gamma	76.635520
loop_
_atom_site_label
_atom_site_type_symbol
_atom_site_fract_x
_atom_site_fract_y
_atom_site_fract_z
O1	O	2.105023	-0.019508	-0.146402
O2	O	1.639818	0.023734	-0.146408
O3	O	1.885137	-0.120592	-0.146403
O4	O	1.859704	0.124818	-0.146407
O5	O	1.915332	-0.138392	0.146455
O6	O	1.670013	0.005934	0.146450
O7	O	2.135218	-0.037308	0.146457
Zn8	Zn	1.907409	-0.018513	0.192951
Zn9	Zn	1.867627	0.004939	-0.192902
O10	O	1.889898	0.107018	0.146452
C11	C	1.595386	0.018111	0.000020
C12	C	1.418005	0.027866	0.000017
C13	C	1.899183	-0.160619	0.000023
C14	C	1.896030	-0.253366	0.000013
C15	C	1.884710	-0.590386	0.000019
C16	C	1.709930	-0.531678	-0.000641
C17	C	1.713151	-0.435230	0.000019
C18	C	1.890325	-0.423187	0.000015
C19	C	1.993741	-0.479970	0.167249
C20	C	1.989366	-0.576332	0.167389
C21	C	1.958639	-0.556680	-0.165646
C22	C	1.958369	-0.459598	-0.167856
C23	C	1.893508	-0.328694	0.000018
C24	C	1.881533	-0.684880	0.000027
C25	C	2.179650	-0.031685	0.000025
C26	C	2.357029	-0.041439	0.000016
C27	C	1.875853	0.147046	0.000022
C28	C	1.879005	0.239793	0.000020
N29	N	1.934572	-0.034520	0.456286
N30	N	1.840477	0.020939	-0.456237
H31	H	1.440525	-0.108235	0.000008
O32	O	2.129111	-0.609634	-0.167135
H33	H	2.213799	-0.566583	-0.162824
H34	H	1.627735	-0.538430	-0.120568
O35	O	1.713231	0.095914	0.444144
H36	H	1.737370	0.157726	0.479397
O37	O	1.307415	0.116356	0.000029
H38	H	1.180774	0.110392	0.000041
O39	O	1.607026	-0.382148	-0.158747
H40	H	1.552932	-0.425292	-0.236689
H41	H	1.888448	-0.565843	-0.292399
H42	H	2.030642	-0.091125	0.531494
O43	O	1.923201	-0.605290	0.332980
H44	H	1.919437	-0.674265	0.334730
H45	H	1.652706	-0.554050	0.118616
H46	H	2.118419	-0.617289	0.174974
H47	H	1.657339	-0.410279	0.120102
H48	H	2.124547	-0.474592	0.173465
H49	H	1.946720	-0.455304	0.291703
H50	H	1.882609	-0.420778	-0.291571
H51	H	2.086530	-0.451930	-0.177957
