data_functionalizedCrystal
_audit_creation_method	'MofGen! by Chris Wilmer'
_symmetry_space_group_name_H-M	'P1'
_symmetry_Int_Tables_number	1
_symmetry_cell_setting	triclinic
loop_
_symmetry_equiv_pos_as_xyz
  x,y,z
_cell_length_a	11.792241
_cell_length_b	17.038272
_cell_length_c	10.868271
_cell_angle_alpha	89.994627
_cell_angle_beta	89.999893
_cell_angle_gamma	87.652486
loop_
_atom_site_label
_atom_site_type_symbol
_atom_site_fract_x
_atom_site_fract_y
_atom_site_fract_z
O1	O	1.516303	0.107207	-0.102203
O2	O	2.016303	0.607207	0.397797
O3	O	1.186930	0.118256	-0.102232
O4	O	1.686930	0.618256	0.397768
O5	O	1.349659	-0.001093	-0.102208
O6	O	1.849659	0.498907	0.397792
O7	O	1.353574	0.226555	-0.102227
O8	O	1.853574	0.726555	0.397773
O9	O	1.349644	-0.001097	0.102436
O10	O	1.849644	0.498903	0.602436
O11	O	1.186915	0.118251	0.102412
O12	O	1.686915	0.618251	0.602412
O13	O	1.516288	0.107202	0.102441
O14	O	2.016288	0.607202	0.602441
Zn15	Zn	1.351599	0.112726	0.134919
Zn16	Zn	1.851599	0.612726	0.634919
Zn17	Zn	1.351618	0.112732	-0.134710
Zn18	Zn	1.851618	0.612732	0.365290
O19	O	1.353559	0.226551	0.102417
O20	O	1.853559	0.726551	0.602417
C21	C	1.144571	0.117559	0.000086
C22	C	1.644571	0.617559	0.500086
C23	C	1.018375	0.115482	0.000076
C24	C	1.518375	0.615482	0.500076
C25	C	0.787328	0.111662	0.000111
C26	C	1.287328	0.611662	0.500111
C27	C	0.915899	0.113785	0.000092
C28	C	1.415899	0.613785	0.500092
C29	C	1.346090	-0.030239	0.000114
C30	C	1.846090	0.469761	0.500114
C31	C	1.335466	-0.117079	0.000112
C32	C	1.835466	0.382921	0.500112
C33	C	1.433006	-0.166762	0.000122
C34	C	1.933006	0.333238	0.500122
C35	C	1.423017	-0.248357	0.000110
C36	C	1.923017	0.251643	0.500110
C37	C	1.315487	-0.280267	0.000096
C38	C	1.815487	0.219733	0.500096
C39	C	1.217940	-0.230577	0.000083
C40	C	1.717940	0.269423	0.500083
C41	C	1.227930	-0.148984	0.000086
C42	C	1.727930	0.351016	0.500086
C43	C	1.280194	-0.526181	0.000076
C44	C	1.780194	-0.026181	0.500076
C45	C	1.270211	-0.607780	0.000076
C46	C	1.770211	-0.107780	0.500076
C47	C	1.475289	-0.625554	0.000101
C48	C	1.975289	-0.125554	0.500101
C49	C	1.485270	-0.543958	0.000112
C50	C	1.985270	-0.043958	0.500112
C51	C	1.387723	-0.494276	0.000092
C52	C	1.887723	0.005724	0.500092
C53	C	1.305274	-0.363669	0.000087
C54	C	1.805274	0.136331	0.500087
C55	C	1.397937	-0.410875	0.000092
C56	C	1.897937	0.089125	0.500092
C57	C	1.558647	0.107899	0.000120
C58	C	2.058647	0.607899	0.500120
C59	C	1.684843	0.109976	0.000122
C60	C	2.184843	0.609976	0.500122
C61	C	1.357127	0.255697	0.000093
C62	C	1.857127	0.755697	0.500093
C63	C	1.367751	0.342537	0.000086
C64	C	1.867751	0.842537	0.500086
N65	N	1.351594	0.112721	0.318933
N66	N	1.851594	0.612721	0.818933
N67	N	1.351632	0.112731	-0.318724
N68	N	1.851632	0.612731	0.181276
C69	C	1.351612	0.112730	0.569939
C70	C	1.851612	0.612730	1.069939
C71	C	1.351599	0.112728	0.430261
C72	C	1.851599	0.612728	0.930261
H73	H	1.520568	-0.140788	0.000141
H74	H	2.020568	0.359212	0.500141
O75	O	1.517883	-0.296506	0.000182
O76	O	2.017883	0.203494	0.500182
C77	C	1.614933	-0.250846	0.000175
C78	C	2.114933	0.249154	0.500175
H79	H	1.591985	-0.190080	0.038916
H80	H	2.091985	0.309920	0.538916
H81	H	1.683751	-0.280641	0.059602
H82	H	2.183751	0.219359	0.559602
H83	H	1.647541	-0.244894	-0.097996
H84	H	2.147541	0.255106	0.402004
H85	H	1.130387	-0.256565	0.000064
H86	H	1.630387	0.243435	0.500064
O87	O	1.133262	-0.100640	0.000243
O88	O	1.633262	0.399360	0.500243
C89	C	1.132877	-0.052930	0.106245
C90	C	1.632877	0.447070	0.606245
H91	H	1.223395	-0.048426	0.141593
H92	H	1.723395	0.451574	0.641593
H93	H	1.096507	0.008210	0.082400
H94	H	1.596507	0.508210	0.582400
H95	H	1.078418	-0.079992	0.180454
H96	H	1.578418	0.420008	0.680454
H97	H	1.200764	-0.485738	0.000060
H98	H	1.700764	0.014262	0.500060
H99	H	1.572832	-0.517984	0.000123
H100	H	2.072832	-0.017984	0.500123
H101	H	1.554706	-0.666014	0.000115
H102	H	2.054706	-0.166014	0.500115
H103	H	1.485487	-0.384890	0.000076
H104	H	1.985487	0.115110	0.500076
O105	O	1.165664	-0.638649	-0.000005
O106	O	1.665664	-0.138649	0.499995
C107	C	1.081707	-0.577303	0.000003
C108	C	1.581707	-0.077303	0.500003
H109	H	1.118889	-0.521742	-0.038731
H110	H	1.618889	-0.021742	0.461269
H111	H	1.007123	-0.594661	-0.059430
H112	H	1.507123	-0.094661	0.440570
H113	H	1.051218	-0.565899	0.098174
H114	H	1.551218	-0.065899	0.598174
H115	H	1.217723	-0.389660	0.000079
H116	H	1.717723	0.110340	0.500079
