data_functionalizedCrystal
_audit_creation_method	'MofGen! by Chris Wilmer'
_symmetry_space_group_name_H-M	'P1'
_symmetry_Int_Tables_number	1
_symmetry_cell_setting	triclinic
loop_
_symmetry_equiv_pos_as_xyz
  x,y,z
_cell_length_a	10.654558
_cell_length_b	10.654559
_cell_length_c	9.730223
_cell_angle_alpha	89.998315
_cell_angle_beta	90.000382
_cell_angle_gamma	95.511617
loop_
_atom_site_label
_atom_site_type_symbol
_atom_site_fract_x
_atom_site_fract_y
_atom_site_fract_z
O1	O	-1.667834	0.176441	-0.114297
O2	O	-1.302357	0.193236	-0.114299
O3	O	-1.493493	0.002100	-0.114287
O4	O	-1.476698	0.367577	-0.114308
O5	O	-1.493490	0.002105	0.114293
O6	O	-1.302355	0.193241	0.114281
O7	O	-1.667831	0.176446	0.114283
Zn8	Zn	-1.485093	0.184844	0.150574
Zn9	Zn	-1.485096	0.184838	-0.150590
O10	O	-1.476696	0.367582	0.114272
C11	C	-1.255558	0.192004	-0.000009
C12	C	-1.116115	0.188308	-0.000009
C13	C	-0.933550	0.068819	-0.000014
C14	C	-1.064571	0.072291	-0.000004
C15	C	-1.036630	0.300859	-0.000010
C16	C	-0.905611	0.297386	-0.000010
C17	C	-0.882014	-0.047204	-0.000023
C18	C	-0.961490	-0.159757	-0.000020
C19	C	-1.092511	-0.156285	-0.000010
C20	C	-1.144057	-0.040261	-0.000004
C21	C	-0.714631	0.177676	-0.000010
C22	C	-0.854075	0.181363	-0.000019
N23	N	-1.485100	0.184848	0.356111
C24	C	-1.477932	0.414377	-0.000021
C25	C	-1.481629	0.553820	-0.000029
C26	C	-1.492256	-0.044695	0.000002
C27	C	-1.488560	-0.184138	0.000001
C28	C	-1.483357	0.619342	-0.124621
C29	C	-1.486827	0.750364	-0.124607
C30	C	-1.486835	0.750331	0.124603
C31	C	-1.483374	0.619310	0.124588
C32	C	-1.481612	0.553852	-0.249238
C33	C	-1.483340	0.619374	-0.373841
C34	C	-1.486809	0.750396	-0.373826
C35	C	-1.488552	0.815895	-0.249209
N36	N	-1.485098	0.184824	-0.356126
C37	C	-1.569757	0.100242	0.428042
C38	C	-1.569753	0.100227	0.571925
C39	C	-1.400433	0.269435	0.571933
C40	C	-1.400431	0.269443	0.428053
C41	C	-1.654426	0.015647	0.356100
C42	C	-1.739091	-0.068965	0.428031
C43	C	-1.739087	-0.068980	0.571914
C44	C	-1.654419	0.015616	0.643866
H45	H	-0.919513	-0.254220	-0.000037
H46	H	-1.488252	0.803671	0.226061
C47	C	-1.307317	0.362513	0.348923
H48	H	-1.256904	0.412907	0.412374
H49	H	-1.254649	0.316849	0.292792
H50	H	-1.352958	0.415222	0.292800
C51	C	-1.832222	-0.162008	0.348890
H52	H	-1.820111	-0.149874	0.252898
H53	H	-1.817868	-0.245963	0.372457
H54	H	-1.916155	-0.147568	0.372480
C55	C	-0.737896	-0.051028	-0.000028
H56	H	-0.718582	-0.136243	-0.000023
H57	H	-0.703099	-0.009600	-0.079737
H58	H	-0.703097	-0.009613	0.079695
C59	C	-1.179931	-0.280084	-0.000005
H60	H	-1.130469	-0.349675	-0.000021
H61	H	-1.231623	-0.283488	0.079705
H62	H	-1.231621	-0.283474	-0.079726
H63	H	-1.808016	-0.137883	0.630479
C64	C	-1.654431	0.015667	0.197834
H65	H	-1.591891	0.078179	0.165297
H66	H	-1.636559	-0.064762	0.165269
H67	H	-1.734850	0.033628	0.165297
C68	C	-1.288177	-0.036436	0.000017
H69	H	-1.307489	0.048779	0.000024
H70	H	-1.322986	-0.077861	-0.079686
H71	H	-1.322965	-0.077853	0.079746
C72	C	-1.654407	0.015598	0.802134
H73	H	-1.591857	0.078094	0.834679
H74	H	-1.734820	0.033531	0.834691
H75	H	-1.636512	-0.064842	0.834670
C76	C	-1.488712	0.822467	-0.510879
H77	H	-1.487168	0.764695	-0.585093
H78	H	-1.563171	0.864647	-0.516064
H79	H	-1.416944	0.882509	-0.516045
H80	H	-1.331500	0.338311	0.630525
H81	H	-1.491389	0.922581	-0.249207
C82	C	-1.481461	0.547233	0.261636
H83	H	-1.482976	0.605002	0.335855
H84	H	-1.553218	0.487188	0.266809
H85	H	-1.406992	0.505056	0.266802
C86	C	-1.093328	0.428473	-0.000021
H87	H	-1.182741	0.414422	-0.000035
H88	H	-1.066119	0.474869	0.079684
H89	H	-1.066115	0.474852	-0.079748
H90	H	-0.840900	0.389029	-0.000008
H91	H	-1.478782	0.447168	-0.249264
H92	H	-1.481930	0.566034	-0.475299
