data_functionalizedCrystal
_audit_creation_method	'MofGen! by Chris Wilmer'
_symmetry_space_group_name_H-M	'P1'
_symmetry_Int_Tables_number	1
_symmetry_cell_setting	triclinic
loop_
_symmetry_equiv_pos_as_xyz
  x,y,z
_cell_length_a	19.121063
_cell_length_b	16.625548
_cell_length_c	19.120904
_cell_angle_alpha	87.578974
_cell_angle_beta	94.741613
_cell_angle_gamma	87.531074
loop_
_atom_site_label
_atom_site_type_symbol
_atom_site_fract_x
_atom_site_fract_y
_atom_site_fract_z
Zn1	Zn	-0.297115	-1.197998	-0.409803
Zn2	Zn	0.202885	-0.697998	0.090197
Zn3	Zn	-0.409762	-1.197899	-0.297153
Zn4	Zn	0.090238	-0.697899	0.202847
Zn5	Zn	-0.292115	-1.069176	-0.292152
Zn6	Zn	0.207885	-0.569176	0.207848
Zn7	Zn	-0.414741	-1.057114	-0.414770
Zn8	Zn	0.085259	-0.557114	0.085230
O9	O	-0.353433	-1.130547	-0.353470
O10	O	0.146567	-0.630547	0.146530
O11	O	-0.312066	-1.310816	-0.394874
O12	O	0.187934	-0.810816	0.105126
O13	O	-0.389979	-1.185830	-0.198030
O14	O	0.110021	-0.685830	0.301970
O15	O	-0.194315	-1.091355	-0.303587
O16	O	0.305685	-0.591355	0.196413
O17	O	-0.394827	-1.310743	-0.312111
O18	O	0.105173	-0.810743	0.187889
O19	O	-0.197989	-1.186000	-0.390024
O20	O	0.302011	-0.686000	0.109976
O21	O	-0.303545	-1.091258	-0.194355
O22	O	0.196455	-0.591258	0.305645
O23	O	-0.308373	-0.954745	-0.308403
O24	O	0.191627	-0.454745	0.191597
O25	O	-0.403314	-1.070797	-0.512571
O26	O	0.096686	-0.570797	-0.012571
O27	O	-0.398466	-0.945883	-0.398490
O28	O	0.101534	-0.445883	0.101510
O29	O	-0.316894	-1.174304	-0.508922
O30	O	0.183106	-0.674304	-0.008922
O31	O	-0.508885	-1.174133	-0.316928
O32	O	-0.008885	-0.674133	0.183072
O33	O	-0.512543	-1.070700	-0.403340
O34	O	-0.012543	-0.570700	0.096660
C35	C	-0.353418	-0.921058	-0.353444
C36	C	0.146582	-0.421058	0.146556
C37	C	-0.353429	-0.831436	-0.353450
C38	C	0.146571	-0.331436	0.146550
C39	C	-0.536245	-1.121118	-0.361231
C40	C	-0.036245	-0.621118	0.138769
C41	C	-0.614454	-1.117157	-0.364575
C42	C	-0.114454	-0.617157	0.135425
C43	C	-0.353429	-0.503259	-0.353471
C44	C	0.146571	-0.003259	0.146529
C45	C	-0.353427	-0.594568	-0.353463
C46	C	0.146573	-0.094568	0.146537
C47	C	-0.353429	-0.667345	-0.353460
C48	C	0.146571	-0.167345	0.146540
C49	C	-0.353427	-0.758660	-0.353453
C50	C	0.146573	-0.258660	0.146547
C51	C	-0.649270	-1.169186	-0.321193
C52	C	-0.149270	-0.669186	0.178807
C53	C	-0.722756	-1.165466	-0.324342
C54	C	-0.222756	-0.665466	0.175658
C55	C	-0.761424	-1.109711	-0.370870
C56	C	-0.261424	-0.609711	0.129130
C57	C	-0.726603	-1.057679	-0.414256
C58	C	-0.226603	-0.557679	0.085744
C59	C	-0.653118	-1.061404	-0.411111
C60	C	-0.153118	-0.561404	0.088889
C61	C	-0.983395	-1.095770	-0.382621
C62	C	-0.483395	-0.595770	0.117379
C63	C	-1.056884	-1.092047	-0.385762
C64	C	-0.556884	-0.592047	0.114238
C65	C	-1.053032	-1.199835	-0.295847
C66	C	-0.553032	-0.699835	0.204153
C67	C	-0.979547	-1.203552	-0.292703
C68	C	-0.479547	-0.703552	0.207297
C69	C	-0.944732	-1.151523	-0.336092
C70	C	-0.444732	-0.651523	0.163908
C71	C	-0.836538	-1.105904	-0.374088
C72	C	-0.336538	-0.605904	0.125912
C73	C	-0.869619	-1.155334	-0.332877
C74	C	-0.369619	-0.655334	0.167123
C75	C	-0.169908	-1.140034	-0.345693
C76	C	0.330092	-0.640034	0.154307
C77	C	-0.091700	-1.144076	-0.342380
C78	C	0.408300	-0.644076	0.157620
C79	C	-0.361218	-1.121216	-0.536990
C80	C	0.138782	-0.621216	-0.036990
C81	C	-0.364535	-1.117239	-0.615196
C82	C	0.135465	-0.617239	-0.115196
C83	C	-0.353444	-0.340854	-0.353489
C84	C	0.146556	0.159146	0.146511
C85	C	-0.353436	-0.430476	-0.353479
C86	C	0.146564	0.069524	0.146521
C87	C	-0.321101	-1.169259	-0.650038
C88	C	0.178899	-0.669259	-0.150038
C89	C	-0.324215	-1.165513	-0.723520
C90	C	0.175785	-0.665513	-0.223520
C91	C	-0.370767	-1.109751	-0.762159
C92	C	0.129233	-0.609751	-0.262159
C93	C	-0.414203	-1.057726	-0.727312
C94	C	0.085797	-0.557726	-0.227312
C95	C	-0.411084	-1.061468	-0.653831
C96	C	0.088916	-0.561468	-0.153831
C97	C	-0.382430	-1.095751	-0.984119
C98	C	0.117570	-0.595751	-0.484119
C99	C	-0.385546	-1.092014	-1.057605
C100	C	0.114454	-0.592014	-0.557605
C101	C	-0.295558	-1.199801	-1.053808
C102	C	0.204442	-0.699801	-0.553808
C103	C	-0.292447	-1.203542	-0.980326
C104	C	0.207553	-0.703542	-0.480326
C105	C	-0.335879	-1.151514	-0.945485
C106	C	0.164121	-0.651514	-0.445485
C107	C	-0.373953	-1.105922	-0.837270
C108	C	0.126047	-0.605922	-0.337270
C109	C	-0.332689	-1.155339	-0.870376
C110	C	0.167311	-0.655339	-0.370376
C111	C	-0.345628	-1.139891	-0.170661
C112	C	0.154372	-0.639891	0.329339
C113	C	-0.342113	-1.144033	-0.092447
C114	C	0.157887	-0.644033	0.407553
H115	H	-0.617791	-1.214585	-0.283301
H116	H	-0.117791	-0.714585	0.216699
Cl117	Cl	-1.105495	-1.021940	-0.444250
Cl118	Cl	-0.605495	-0.521940	0.055750
Cl119	Cl	-0.465687	-0.996067	-0.610029
Cl120	Cl	0.034313	-0.496067	-0.110029
H121	H	-0.260196	-1.242158	-1.082184
H122	H	0.239804	-0.742158	-0.582184
Cl123	Cl	-0.233922	-1.273646	-0.931757
Cl124	Cl	0.266078	-0.773646	-0.431757
H125	H	-0.758092	-1.012285	-0.452144
H126	H	-0.258092	-0.512285	0.047856
H127	H	-0.624772	-1.019037	-0.446438
H128	H	-0.124772	-0.519037	0.053562
H129	H	-0.751099	-1.207833	-0.289015
H130	H	-0.251099	-0.707833	0.210985
H131	H	-0.423456	-1.046603	-1.089063
H132	H	0.076544	-0.546603	-0.589063
H133	H	-0.838134	-1.200733	-0.294996
H134	H	-0.338134	-0.700733	0.205004
Cl135	Cl	-0.939638	-1.030360	-0.437167
Cl136	Cl	-0.439638	-0.530360	0.062833
Cl137	Cl	-0.274162	-1.225430	-0.821800
Cl138	Cl	0.225838	-0.725430	-0.321800
Cl139	Cl	-0.437032	-1.030344	-0.940329
Cl140	Cl	0.062968	-0.530344	-0.440329
Cl141	Cl	-0.885155	-1.035814	-0.432578
Cl142	Cl	-0.385155	-0.535814	0.067422
H143	H	-0.283196	-1.214669	-0.618583
H144	H	0.216804	-0.714669	-0.118583
H145	H	-0.288849	-1.207875	-0.751885
H146	H	0.211151	-0.707875	-0.251885
Cl147	Cl	-0.472723	-0.987621	-0.775886
Cl148	Cl	0.027277	-0.487621	-0.275886
Cl149	Cl	-0.930941	-1.273658	-0.234218
Cl150	Cl	-0.430941	-0.773658	0.265782
H151	H	-1.081386	-1.242195	-0.260523
H152	H	-0.581386	-0.742195	0.239477
Cl153	Cl	-0.432477	-1.035826	-0.885850
Cl154	Cl	0.067523	-0.535826	-0.385850
