data_functionalizedCrystal
_audit_creation_method	'MofGen! by Chris Wilmer'
_symmetry_space_group_name_H-M	'P1'
_symmetry_Int_Tables_number	1
_symmetry_cell_setting	triclinic
loop_
_symmetry_equiv_pos_as_xyz
  x,y,z
_cell_length_a	17.699083
_cell_length_b	17.699092
_cell_length_c	16.176319
_cell_angle_alpha	90.001079
_cell_angle_beta	89.998627
_cell_angle_gamma	83.284691
loop_
_atom_site_label
_atom_site_type_symbol
_atom_site_fract_x
_atom_site_fract_y
_atom_site_fract_z
O1	O	1.004082	0.095706	-0.068628
O2	O	0.783704	0.108158	-0.068654
O3	O	0.900116	-0.008257	-0.068638
O4	O	0.887670	0.212121	-0.068644
O5	O	0.900099	-0.008250	0.068855
O6	O	0.783687	0.108165	0.068839
O7	O	1.004065	0.095712	0.068866
Cu8	Cu	0.893874	0.101939	0.081406
Cu9	Cu	0.893895	0.101931	-0.081195
O10	O	0.887653	0.212127	0.068850
C11	C	0.755499	0.107715	0.000089
C12	C	0.671480	0.106377	0.000079
C13	C	0.622862	0.174710	0.000077
C14	C	0.543918	0.173448	0.000088
C15	C	0.513595	0.103851	0.000094
C16	C	0.562220	0.035513	0.000098
C17	C	0.641162	0.036776	0.000093
C18	C	0.243857	0.030418	0.000119
C19	C	0.164909	0.029160	0.000121
C20	C	0.146613	0.167089	0.000113
C21	C	0.225555	0.168352	0.000109
C22	C	0.274173	0.100014	0.000117
C23	C	0.359772	0.101384	0.000107
C24	C	0.427998	0.102481	0.000098
C25	C	0.899661	-0.036450	0.000107
C26	C	0.898319	-0.120468	0.000103
C27	C	1.032271	0.096155	0.000121
C28	C	1.116289	0.097494	0.000125
C29	C	0.897701	-0.159939	-0.074846
C30	C	0.896436	-0.238882	-0.074847
C31	C	0.895795	-0.278353	0.000102
C32	C	0.896412	-0.238877	0.075056
C33	C	0.897671	-0.159934	0.075056
C34	C	0.891331	-0.557242	0.075057
C35	C	0.890074	-0.636190	0.075050
C36	C	0.890096	-0.636189	-0.074846
C37	C	0.891355	-0.557247	-0.074846
C38	C	0.891968	-0.517777	0.000108
C39	C	0.893338	-0.432178	0.000108
C40	C	0.894430	-0.363952	0.000102
C41	C	0.888109	0.240321	0.000103
C42	C	0.889450	0.324339	0.000101
N43	N	0.893865	0.101944	0.195772
N44	N	0.893910	0.101921	-0.195560
C45	C	0.945464	0.050391	0.761161
C46	C	0.945460	0.050396	0.674614
C47	C	0.893899	0.101928	0.631347
C48	C	0.842343	0.153464	0.674631
C49	C	0.842351	0.153461	0.761177
C50	C	0.842312	0.153474	0.325603
C51	C	0.842307	0.153471	0.239052
C52	C	0.945422	0.050409	0.239040
C53	C	0.945430	0.050406	0.325586
C54	C	0.893877	0.101944	0.368863
C55	C	0.893882	0.101939	0.462707
C56	C	0.893890	0.101930	0.537504
H57	H	0.680748	-0.018868	0.000094
C58	C	0.895768	-0.282297	-0.157295
C59	C	0.960607	-0.345279	-0.177893
C60	C	0.959943	-0.388692	-0.260346
C61	C	0.894440	-0.369121	-0.322202
C62	C	0.829597	-0.306135	-0.301606
C63	C	0.830261	-0.262723	-0.219152
H64	H	1.009100	-0.359769	-0.132102
H65	H	1.007945	-0.435318	-0.275593
H66	H	0.893949	-0.401258	-0.383239
H67	H	0.781104	-0.291645	-0.347397
H68	H	0.782259	-0.216097	-0.203906
C69	C	1.002166	-0.006289	0.627004
C70	C	1.058880	-0.062981	0.674588
C71	C	1.115588	-0.119667	0.626976
C72	C	1.115582	-0.119662	0.531780
C73	C	1.058866	-0.062969	0.484190
C74	C	1.002158	-0.006282	0.531802
H75	H	1.058886	-0.062986	0.745063
H76	H	1.157573	-0.161636	0.662206
H77	H	1.157560	-0.161625	0.496534
H78	H	1.058860	-0.062963	0.413715
H79	H	0.960173	0.035686	0.496572
H80	H	0.800318	0.195437	0.203825
C81	C	1.002139	-0.006280	0.191435
C82	C	1.002152	-0.006271	0.096238
C83	C	1.058866	-0.062959	0.048636
C84	C	1.115567	-0.119656	0.096230
C85	C	1.115556	-0.119667	0.191432
C86	C	1.058842	-0.062979	0.239034
H87	H	0.960177	0.035702	0.061001
H88	H	1.058874	-0.062951	-0.021840
H89	H	1.157550	-0.161620	0.060991
H90	H	1.157531	-0.161640	0.226668
H91	H	1.058835	-0.062987	0.309509
H92	H	0.898227	-0.127808	-0.135877
C93	C	0.785601	0.210157	0.373205
C94	C	0.728880	0.266837	0.325616
C95	C	0.672166	0.323521	0.373225
C96	C	0.672173	0.323523	0.468421
C97	C	0.728897	0.266841	0.516015
C98	C	0.785611	0.210157	0.468407
H99	H	0.728872	0.266837	0.255141
H100	H	0.630175	0.365481	0.337992
H101	H	0.630190	0.365484	0.503664
H102	H	0.728904	0.266841	0.586490
H103	H	0.827602	0.168197	0.503640
H104	H	0.140224	-0.027517	0.000127
C105	C	0.889412	-0.679608	-0.157299
C106	C	0.954242	-0.742596	-0.177904
C107	C	0.953560	-0.786013	-0.260354
C108	C	0.888049	-0.766440	-0.322198
C109	C	0.823213	-0.703448	-0.301594
C110	C	0.823895	-0.660032	-0.219144
H111	H	1.002742	-0.757088	-0.132123
H112	H	1.001556	-0.832644	-0.275606
H113	H	0.887544	-0.798580	-0.383232
H114	H	0.774713	-0.688957	-0.347376
H115	H	0.775900	-0.613401	-0.203892
C116	C	0.258907	0.244910	0.000105
C117	C	0.240505	0.301632	0.071504
C118	C	0.273855	0.378192	0.071504
C119	C	0.325607	0.398030	0.000106
C120	C	0.344011	0.341307	-0.071299
C121	C	0.310662	0.264747	-0.071299
H122	H	0.202193	0.286948	0.124362
H123	H	0.260230	0.420182	0.124363
H124	H	0.350294	0.454704	0.000106
H125	H	0.382324	0.355990	-0.124157
H126	H	0.324286	0.222756	-0.124158
H127	H	0.889550	-0.668325	0.136086
H128	H	0.987448	0.008424	0.796384
H129	H	0.987413	0.008442	0.360811
H130	H	0.891881	-0.525114	-0.135877
C131	C	0.892024	-0.513833	0.157504
C132	C	0.891334	-0.557255	0.239942
C133	C	0.892033	-0.513844	0.322394
C134	C	0.893423	-0.427011	0.322406
C135	C	0.894113	-0.383584	0.239964
C136	C	0.893414	-0.426996	0.157513
H137	H	0.890305	-0.621538	0.239936
H138	H	0.891522	-0.545991	0.383423
H139	H	0.893940	-0.394875	0.383442
H140	H	0.895142	-0.319301	0.239971
H141	H	0.893925	-0.394848	0.096484
C142	C	0.785639	0.210144	0.808786
C143	C	0.728921	0.266828	0.761196
C144	C	0.672210	0.323515	0.808804
C145	C	0.672217	0.323519	0.904000
C146	C	0.728938	0.266833	0.951595
C147	C	0.785648	0.210146	0.903988
H148	H	0.728913	0.266827	0.690721
H149	H	0.630222	0.365477	0.773571
H150	H	0.630237	0.365483	0.939242
H151	H	0.728945	0.266835	1.022070
H152	H	0.827637	0.168184	0.939221
H153	H	0.898164	-0.127797	0.136087
C154	C	0.093131	0.242264	0.000114
C155	C	0.096433	0.299326	-0.071290
C156	C	0.042953	0.374498	-0.071293
C157	C	-0.013829	0.392609	0.000107
C158	C	-0.017134	0.335546	0.071517
C159	C	0.036346	0.260373	0.071520
H160	H	0.138469	0.285921	-0.124150
H161	H	0.045400	0.416740	-0.124156
H162	H	-0.053418	0.448256	0.000105
H163	H	-0.059170	0.348951	0.124377
H164	H	0.033899	0.218132	0.124382
H165	H	0.647544	0.231383	0.000072
H166	H	0.800363	0.195426	0.639398
H167	H	0.283433	-0.025227	0.000126
C168	C	0.528868	-0.041045	0.000104
C169	C	0.442036	-0.042439	0.000103
C170	C	0.408686	-0.118998	0.000105
C171	C	0.462168	-0.194164	0.000107
C172	C	0.549005	-0.192773	0.000108
C173	C	0.582356	-0.116214	0.000106
H174	H	0.402440	0.013206	0.000101
H175	H	0.344403	-0.120028	0.000104
H176	H	0.437480	-0.250838	0.000109
H177	H	0.588601	-0.248418	0.000110
H178	H	0.646639	-0.115184	0.000107
H179	H	0.895885	-0.271020	0.136080
H180	H	0.504335	0.229091	0.000086
