data_functionalizedCrystal
_audit_creation_method	'MofGen! by Chris Wilmer'
_symmetry_space_group_name_H-M	'P1'
_symmetry_Int_Tables_number	1
_symmetry_cell_setting	triclinic
loop_
_symmetry_equiv_pos_as_xyz
  x,y,z
_cell_length_a	14.971486
_cell_length_b	17.019294
_cell_length_c	13.448316
_cell_angle_alpha	93.885576
_cell_angle_beta	90.001801
_cell_angle_gamma	83.504267
loop_
_atom_site_label
_atom_site_type_symbol
_atom_site_fract_x
_atom_site_fract_y
_atom_site_fract_z
O1	O	1.186692	0.102801	0.091379
O2	O	0.926261	0.115111	0.092460
O3	O	1.063741	-0.005870	0.082081
O4	O	1.049212	0.223782	0.101757
O5	O	1.063724	-0.005877	-0.083303
O6	O	0.926244	0.115104	-0.072925
O7	O	1.186675	0.102793	-0.074006
Cu8	Cu	1.056458	0.108948	-0.088566
Cu9	Cu	1.056478	0.108957	0.107020
O10	O	1.049195	0.223775	-0.063628
C11	C	0.892929	0.114557	0.009724
C12	C	0.793636	0.112907	0.009593
C13	C	0.736234	0.183981	0.015680
C14	C	0.642939	0.182426	0.015532
C15	C	0.607047	0.109797	0.009303
C16	C	0.664456	0.038718	0.003212
C17	C	0.757750	0.040274	0.003353
C18	C	0.470002	0.035480	0.002921
C19	C	0.376702	0.033924	0.002782
C20	C	0.355190	0.177632	0.015100
C21	C	0.448484	0.179188	0.015241
C22	C	0.505887	0.108109	0.009152
C23	C	1.063181	-0.035263	-0.003127
C24	C	1.061528	-0.122836	-0.010622
C25	C	1.060763	-0.163969	0.076007
C26	C	1.059204	-0.246251	0.068960
C27	C	1.058417	-0.287400	-0.024716
C28	C	1.059179	-0.246261	-0.111351
C29	C	1.060732	-0.163979	-0.104304
C30	C	1.053723	-0.535838	-0.050504
C31	C	1.052173	-0.618126	-0.057544
C32	C	1.052196	-0.618111	0.122768
C33	C	1.053754	-0.535828	0.129807
C34	C	1.054512	-0.494695	0.043172
C35	C	1.056826	-0.371507	-0.031920
C36	C	1.056096	-0.410590	0.050377
C37	C	1.220007	0.103348	0.008732
C38	C	1.319300	0.104998	0.008870
C39	C	1.049754	0.253168	0.021582
C40	C	1.051407	0.340741	0.029085
N41	N	1.056450	0.108941	-0.226131
C42	C	1.117345	0.055393	-0.282765
C43	C	1.117351	0.055392	-0.386868
C44	C	1.056465	0.108944	-0.434336
C45	C	0.995563	0.162496	-0.377694
C46	C	0.995554	0.162492	-0.273593
C47	C	0.995588	0.162501	-0.594674
C48	C	0.995598	0.162506	-0.698782
C49	C	1.117385	0.055401	-0.707949
C50	C	1.117375	0.055398	-0.603848
C51	C	1.056475	0.108950	-0.547214
N52	N	1.056493	0.108957	0.244584
H53	H	0.308448	0.235508	0.020054
H54	H	1.166929	0.011788	-0.244125
H55	H	1.051527	-0.651627	-0.133830
H56	H	0.945966	0.206095	-0.227482
H57	H	1.166935	0.011788	-0.432980
C58	C	1.054560	-0.490604	-0.145806
N59	N	1.055192	-0.456530	-0.217593
H60	H	1.166957	0.011795	-0.565201
C61	C	1.058445	-0.291503	0.164259
N62	N	1.057902	-0.325590	0.236042
C63	C	0.624972	-0.041175	-0.003641
N64	N	0.595233	-0.101352	-0.008800
H65	H	1.051577	-0.651609	0.193301
C66	C	1.184373	-0.003510	-0.770249
N67	N	1.234828	-0.047879	-0.817178
H68	H	0.945984	0.206096	-0.416348
C69	C	0.928584	0.221403	-0.532379
N70	N	0.878118	0.265768	-0.485458
C71	C	0.928615	0.221411	-0.750994
N72	N	0.878162	0.265779	-0.790320
C73	C	0.337223	-0.045971	-0.004072
N74	N	0.307488	-0.106150	-0.009234
H75	H	0.804487	-0.017602	-0.001604
H76	H	1.054396	-0.502330	0.206088
C77	C	0.579800	0.260612	0.022212
N78	N	0.532244	0.319506	0.027236
H79	H	0.765449	0.243124	0.020753
H80	H	1.058533	-0.279771	-0.187624
H81	H	1.061342	-0.130488	-0.174846
C82	C	1.061629	-0.118713	0.179058
N83	N	1.062277	-0.084627	0.256680
H84	H	0.477704	0.238329	0.020323
H85	H	1.056188	-0.405020	-0.108192
H86	H	1.056731	-0.377082	0.126648
H87	H	0.516737	-0.022400	-0.002039
