data_functionalizedCrystal
_audit_creation_method	'MofGen! by Chris Wilmer'
_symmetry_space_group_name_H-M	'P1'
_symmetry_Int_Tables_number	1
_symmetry_cell_setting	triclinic
loop_
_symmetry_equiv_pos_as_xyz
  x,y,z
_cell_length_a	21.295418
_cell_length_b	29.839131
_cell_length_c	21.295411
_cell_angle_alpha	89.971982
_cell_angle_beta	89.956262
_cell_angle_gamma	90.051038
loop_
_atom_site_label
_atom_site_type_symbol
_atom_site_fract_x
_atom_site_fract_y
_atom_site_fract_z
Zn1	Zn	0.962335	-0.178715	-0.356206
Zn2	Zn	1.462335	0.321285	0.143794
Zn3	Zn	0.962229	-0.253830	-0.250919
Zn4	Zn	1.462229	0.246170	0.249081
Zn5	Zn	0.857058	-0.178736	-0.250916
Zn6	Zn	1.357058	0.321264	0.249084
Zn7	Zn	0.857019	-0.253839	-0.356116
Zn8	Zn	1.357019	0.246161	0.143884
O9	O	0.909660	-0.216280	-0.303539
O10	O	1.409660	0.283720	0.196461
O11	O	1.050410	-0.188667	-0.342279
O12	O	1.550410	0.311333	0.157721
O13	O	0.948250	-0.243874	-0.162829
O14	O	1.448250	0.256126	0.337171
O15	O	0.871084	-0.115866	-0.264918
O16	O	1.371084	0.384134	0.235082
O17	O	1.050332	-0.243854	-0.264925
O18	O	1.550332	0.256146	0.235075
O19	O	0.948431	-0.115851	-0.342275
O20	O	1.448431	0.384149	0.157725
O21	O	0.870981	-0.188703	-0.162827
O22	O	1.370981	0.311297	0.337173
O23	O	0.768964	-0.188711	-0.264831
O24	O	1.268964	0.311289	0.235169
O25	O	0.871017	-0.243869	-0.444217
O26	O	1.371017	0.256131	0.055783
O27	O	0.768935	-0.243889	-0.342122
O28	O	1.268935	0.256111	0.157878
O29	O	0.948393	-0.188675	-0.444283
O30	O	1.448393	0.311325	0.055717
O31	O	0.948212	-0.316699	-0.264838
O32	O	1.448212	0.183301	0.235162
O33	O	0.870914	-0.316705	-0.342125
O34	O	1.370914	0.183295	0.157875
C35	C	0.746109	-0.216304	-0.303467
C36	C	1.246109	0.283696	0.196533
C37	C	0.676141	-0.216325	-0.303451
C38	C	1.176141	0.283675	0.196549
C39	C	0.643275	-0.245094	-0.343635
C40	C	1.143275	0.254906	0.156365
C41	C	0.577533	-0.245083	-0.343664
C42	C	1.077533	0.254917	0.156336
C43	C	0.544658	-0.216307	-0.303496
C44	C	1.044658	0.283693	0.196504
C45	C	0.577531	-0.187532	-0.263308
C46	C	1.077531	0.312468	0.236692
C47	C	0.643272	-0.187541	-0.263286
C48	C	1.143272	0.312459	0.236714
N49	N	0.441382	-0.212791	-0.248439
N50	N	0.941382	0.287209	0.251561
N51	N	0.378931	-0.212785	-0.248462
N52	N	0.878931	0.287215	0.251538
C53	C	0.346583	-0.216279	-0.303563
C54	C	0.846583	0.283721	0.196437
N55	N	0.379046	-0.219787	-0.358640
N56	N	0.879046	0.280213	0.141360
N57	N	0.441504	-0.219795	-0.358616
N58	N	0.941504	0.280205	0.141384
C59	C	0.473373	-0.216294	-0.303516
C60	C	0.973373	0.283706	0.196484
C61	C	0.242433	-0.245037	-0.343782
C62	C	0.742433	0.254963	0.156218
C63	C	0.176689	-0.245023	-0.343811
C64	C	0.676689	0.254977	0.156189
C65	C	0.176689	-0.187475	-0.263450
C66	C	0.676689	0.312525	0.236550
C67	C	0.242431	-0.187487	-0.263426
C68	C	0.742431	0.312513	0.236574
C69	C	0.275299	-0.216271	-0.303591
C70	C	0.775299	0.283729	0.196409
C71	C	0.909564	-0.333003	-0.303486
C72	C	1.409564	0.166997	0.196514
C73	C	0.909581	-0.382937	-0.303484
C74	C	1.409581	0.117063	0.196516
C75	C	0.949926	-0.692538	-0.343876
C76	C	1.449926	-0.192538	0.156124
C77	C	0.949994	-0.880211	-0.343914
C78	C	1.449994	-0.380211	0.156086
O79	O	0.984203	-0.904439	-0.378217
O80	O	1.484203	-0.404439	0.121783
N81	N	0.909767	-0.903722	-0.303609
N82	N	1.409767	-0.403722	0.196391
C83	C	0.869517	-0.880313	-0.263295
C84	C	1.369517	-0.380313	0.236705
O85	O	0.835299	-0.904617	-0.229019
O86	O	1.335299	-0.404617	0.270981
C87	C	0.869446	-0.692640	-0.263261
C88	C	1.369446	-0.192640	0.236739
C89	C	0.909680	-0.669131	-0.303564
C90	C	1.409680	-0.169131	0.196436
C91	C	0.990156	-0.669028	-0.384176
C92	C	1.490156	-0.169028	0.115824
C93	C	0.990141	-0.622113	-0.384164
C94	C	1.490141	-0.122113	0.115836
C95	C	0.949896	-0.598707	-0.343851
C96	C	1.449896	-0.098707	0.156149
C97	C	0.909665	-0.622216	-0.303551
C98	C	1.409665	-0.122216	0.196449
C99	C	0.829194	-0.669232	-0.222950
C100	C	1.329194	-0.169232	0.277050
C101	C	0.829179	-0.622311	-0.222946
C102	C	1.329179	-0.122311	0.277054
C103	C	0.869413	-0.598802	-0.263249
C104	C	1.369413	-0.098802	0.236751
C105	C	0.869405	-0.551894	-0.263227
C106	C	1.369405	-0.051894	0.236773
N107	N	0.909632	-0.528383	-0.303531
N108	N	1.409632	-0.028383	0.196469
C109	C	0.949877	-0.551789	-0.343844
C110	C	1.449877	-0.051789	0.156156
C111	C	0.869558	-0.978843	-0.263315
C112	C	1.369558	-0.478843	0.236685
C113	C	0.869577	-1.025761	-0.263322
C114	C	1.369577	-0.525761	0.236678
C115	C	0.950053	-1.025656	-0.343942
C116	C	1.450053	-0.525656	0.156058
C117	C	0.950037	-0.978737	-0.343931
C118	C	1.450037	-0.478737	0.156069
C119	C	0.909785	-0.955332	-0.303620
C120	C	1.409785	-0.455332	0.196380
C121	C	0.949843	-0.453263	-0.343814
C122	C	1.449843	0.046737	0.156186
C123	C	0.949826	-0.406343	-0.343797
C124	C	1.449826	0.093657	0.156203
C125	C	0.869348	-0.406453	-0.263180
C126	C	1.369348	0.093547	0.236820
C127	C	0.869367	-0.453368	-0.263195
C128	C	1.369367	0.046632	0.236805
C129	C	0.909616	-0.476772	-0.303517
C130	C	1.409616	0.023228	0.196483
O131	O	0.835209	-0.527637	-0.228947
O132	O	1.335209	-0.027637	0.271053
O133	O	0.984081	-0.527476	-0.378125
O134	O	1.484081	-0.027476	0.121875
C135	C	0.949941	-0.739453	-0.343888
C136	C	1.449941	-0.239453	0.156112
C137	C	0.909711	-0.762962	-0.303588
C138	C	1.409711	-0.262962	0.196412
C139	C	0.869465	-0.739556	-0.263276
C140	C	1.369465	-0.239556	0.236724
C141	C	0.909729	-0.809880	-0.303596
C142	C	1.409729	-0.309880	0.196404
C143	C	0.949974	-0.833286	-0.343908
C144	C	1.449974	-0.333286	0.156092
C145	C	0.990201	-0.809775	-0.384213
C146	C	1.490201	-0.309775	0.115787
C147	C	0.990186	-0.762859	-0.384201
C148	C	1.490186	-0.262859	0.115799
C149	C	0.829238	-0.763068	-0.222971
C150	C	1.329238	-0.263068	0.277029
C151	C	0.829257	-0.809983	-0.222986
C152	C	1.329257	-0.309983	0.277014
C153	C	0.869503	-0.833389	-0.263298
C154	C	1.369503	-0.333389	0.236702
C155	C	1.073851	-0.216257	-0.303612
C156	C	1.573851	0.283743	0.196388
C157	C	1.143819	-0.216247	-0.303643
C158	C	1.643819	0.283753	0.196357
C159	C	0.909713	-0.216271	-0.467729
C160	C	1.409713	0.283729	0.032271
C161	C	0.909735	-0.216267	-0.537698
C162	C	1.409735	0.283733	-0.037698
C163	C	0.909774	-0.099102	-0.303606
C164	C	1.409774	0.400898	0.196394
C165	C	0.909822	-0.049167	-0.303635
C166	C	1.409822	0.450833	0.196365
C167	C	0.950022	-0.187526	-0.570600
C168	C	1.450022	0.312474	-0.070600
C169	C	0.950022	-0.187507	-0.636342
C170	C	1.450022	0.312493	-0.136342
C171	C	0.909740	-0.216236	-0.669180
C172	C	1.409740	0.283764	-0.169180
C173	C	0.869444	-0.244978	-0.636270
C174	C	1.369444	0.255022	-0.136270
C175	C	0.869442	-0.244994	-0.570529
C176	C	1.369442	0.255006	-0.070529
N177	N	0.904879	-0.255537	-0.772388
N178	N	1.404879	0.244463	-0.272388
N179	N	0.904885	-0.255521	-0.834839
N180	N	1.404885	0.244479	-0.334839
C181	C	0.909744	-0.216190	-0.867255
C182	C	1.409744	0.283810	-0.367255
N183	N	0.914609	-0.176875	-0.834860
N184	N	1.414609	0.323125	-0.334860
N185	N	0.914606	-0.176891	-0.772403
N186	N	1.414606	0.323109	-0.272403
C187	C	0.909738	-0.216222	-0.740466
C188	C	1.409738	0.283778	-0.240466
C189	C	0.950033	-0.187426	-0.971443
C190	C	1.450033	0.312574	-0.471443
C191	C	0.950027	-0.187406	-1.037186
C192	C	1.450027	0.312594	-0.537186
C193	C	0.869453	-0.244882	-1.037113
C194	C	1.369453	0.255118	-0.537113
C195	C	0.869455	-0.244898	-0.971371
C196	C	1.369455	0.255102	-0.471371
C197	C	0.909748	-0.216171	-0.938539
C198	C	1.409748	0.283829	-0.438539
C199	C	0.909645	-0.216257	-0.139988
C200	C	1.409645	0.283743	0.360012
C201	C	0.909744	-0.216135	-0.070020
C202	C	1.409744	0.283865	0.429980
H203	H	0.982592	-0.387204	-0.376616
H204	H	1.482592	0.112796	0.123384
C205	C	0.994349	-0.155822	-0.935326
C206	C	1.494349	0.344178	-0.435326
N207	N	1.027729	-0.132017	-0.908125
N208	N	1.527729	0.367983	-0.408125
H209	H	0.982833	-0.163999	-1.063974
H210	H	1.482833	0.336001	-0.563974
H211	H	0.670031	-0.164112	-0.230562
H212	H	1.170031	0.335888	0.269438
C213	C	0.825131	-0.276578	-0.672393
C214	C	1.325131	0.223422	-0.172393
N215	N	0.791751	-0.300379	-0.699601
N216	N	1.291751	0.199621	-0.199601
H217	H	0.836821	-1.044898	-0.230497
H218	H	1.336821	-0.544898	0.269503
C219	C	1.034471	-0.835531	-0.428558
C220	C	1.534471	-0.335531	0.071442
N221	N	1.067809	-0.854932	-0.461959
N222	N	1.567809	-0.354932	0.038041
C223	C	0.994338	-0.155919	-0.534489
C224	C	1.494338	0.344081	-0.034489
N225	N	1.027714	-0.132111	-0.507289
N226	N	1.527714	0.367889	-0.007289
H227	H	0.149923	-0.164043	-0.230747
H228	H	0.649923	0.335957	0.269253
H229	H	0.836649	-0.268269	-1.063849
H230	H	1.336649	0.231731	-0.563849
C231	C	0.784993	-0.835838	-0.178647
C232	C	1.284993	-0.335838	0.321353
N233	N	0.751650	-0.855310	-0.145256
N234	N	1.251650	-0.355310	0.354744
C235	C	0.994347	-0.155891	-0.672542
C236	C	1.494347	0.344109	-0.172542
N237	N	1.027734	-0.132079	-0.699805
N238	N	1.527734	0.367921	-0.199805
H239	H	0.550769	-0.268510	-0.376389
H240	H	1.050769	0.231490	0.123611
C241	C	0.278590	-0.276695	-0.387971
C242	C	0.778590	0.223305	0.112029
N243	N	0.305822	-0.300538	-0.421256
N244	N	0.805822	0.199462	0.078744
C245	C	0.825138	-0.276517	-0.935177
C246	C	1.325138	0.223483	-0.435177
N247	N	0.791754	-0.300333	-0.907916
N248	N	1.291754	0.199667	-0.407916
H249	H	0.269190	-0.164062	-0.230700
H250	H	0.769190	0.335938	0.269300
H251	H	1.022901	-0.602975	-0.416984
H252	H	1.522901	-0.102975	0.083016
C253	C	0.679426	-0.276755	-0.387820
C254	C	1.179426	0.223245	0.112180
N255	N	0.706656	-0.300603	-0.421101
N256	N	1.206656	0.199397	0.078899
H257	H	0.836632	-0.268397	-0.543740
H258	H	1.336632	0.231603	-0.043740
C259	C	0.994124	-0.479001	-0.388167
C260	C	1.494124	0.020999	0.111833
N261	N	1.027480	-0.498386	-0.421570
N262	N	1.527480	0.001614	0.078430
C263	C	0.541368	-0.155879	-0.219123
C264	C	1.041368	0.344121	0.280877
N265	N	0.514129	-0.132036	-0.185844
N266	N	1.014129	0.367964	0.314156
C267	C	0.140537	-0.276677	-0.388015
C268	C	0.640537	0.223323	0.111985
N269	N	0.113308	-0.300522	-0.421307
N270	N	0.613308	0.199478	0.078693
H271	H	1.022929	-0.688081	-0.417007
H272	H	1.522929	-0.188081	0.082993
H273	H	0.982823	-1.044721	-0.376766
H274	H	1.482823	-0.544721	0.123234
C275	C	0.994295	-0.952881	-0.388269
C276	C	1.494295	-0.452881	0.111731
N277	N	1.027631	-0.933409	-0.421668
N278	N	1.527631	-0.433409	0.078332
H279	H	0.796431	-0.688365	-0.190131
H280	H	1.296431	-0.188365	0.309869
C281	C	0.825269	-0.953103	-0.218972
C282	C	1.325269	-0.453103	0.281028
N283	N	0.791908	-0.933718	-0.185574
N284	N	1.291908	-0.433718	0.314426
H285	H	0.796399	-0.603256	-0.190120
H286	H	1.296399	-0.103256	0.309880
H287	H	0.836610	-0.472510	-0.230372
H288	H	1.336610	0.027490	0.269628
H289	H	0.836583	-0.387388	-0.230356
H290	H	1.336583	0.112612	0.269644
H291	H	1.022948	-0.743722	-0.417019
H292	H	1.522948	-0.243722	0.082981
H293	H	0.796465	-0.744014	-0.190145
H294	H	1.296465	-0.244014	0.309855
