data_functionalizedCrystal
_audit_creation_method	'MofGen! by Chris Wilmer'
_symmetry_space_group_name_H-M	'P1'
_symmetry_Int_Tables_number	1
_symmetry_cell_setting	triclinic
loop_
_symmetry_equiv_pos_as_xyz
  x,y,z
_cell_length_a	16.109301
_cell_length_b	10.489741
_cell_length_c	15.186229
_cell_angle_alpha	89.996534
_cell_angle_beta	89.999362
_cell_angle_gamma	84.000327
loop_
_atom_site_label
_atom_site_type_symbol
_atom_site_fract_x
_atom_site_fract_y
_atom_site_fract_z
O1	O	1.104141	0.163947	-0.073172
O2	O	0.862205	0.184350	-0.073186
O3	O	0.988678	-0.011529	-0.073174
O4	O	0.977668	0.359826	-0.073185
O5	O	0.988670	-0.011532	0.073284
O6	O	0.862196	0.184347	0.073271
O7	O	1.104133	0.163944	0.073285
Zn8	Zn	0.983163	0.174145	0.096531
Zn9	Zn	0.983174	0.174149	-0.096433
O10	O	0.977659	0.359823	0.073272
C11	C	0.831221	0.183522	0.000041
C12	C	0.738910	0.181044	0.000035
C13	C	0.517319	0.291514	0.000042
C14	C	0.430584	0.289175	0.000048
C15	C	0.449026	0.056771	0.000051
C16	C	0.535759	0.059111	0.000052
C17	C	0.569903	0.176486	0.000043
C18	C	0.396435	0.171808	0.000048
C19	C	0.302393	0.169272	0.000054
C20	C	0.663950	0.179022	0.000038
C21	C	0.987842	-0.059050	0.000054
C22	C	0.985354	-0.200644	0.000053
C23	C	0.904883	-0.267616	0.000042
C24	C	0.942893	-0.360292	0.072255
C25	C	0.942920	-0.360264	-0.072141
C26	C	1.023397	-0.291454	0.072325
C27	C	1.023413	-0.291417	-0.072135
C28	C	1.061482	-0.384066	0.000096
C29	C	1.135117	0.164772	0.000056
C30	C	1.227427	0.167250	0.000056
C31	C	0.978495	0.407344	0.000042
C32	C	0.980983	0.548938	0.000038
N33	N	0.983162	0.174142	0.228224
N34	N	0.983183	0.174142	-0.228125
C35	C	1.039183	0.087436	0.453952
C36	C	1.039186	0.087433	0.546142
C37	C	0.927155	0.260852	0.546140
C38	C	0.927149	0.260848	0.453952
C39	C	0.983168	0.174141	0.407860
C40	C	0.983176	0.174142	0.592238
C41	C	0.983179	0.174140	0.692194
C42	C	0.983165	0.174142	0.307898
H43	H	0.578575	-0.034565	0.000055
O44	O	1.093623	0.003082	0.409315
C45	C	1.143077	-0.073427	0.469770
H46	H	1.108986	-0.074876	0.535487
H47	H	1.205085	-0.031988	0.479567
C48	C	1.201256	-0.209241	0.353086
C49	C	1.159382	-0.211029	0.433799
H50	H	1.211318	-0.294120	0.330896
H51	H	1.167941	-0.157694	0.312355
H52	H	1.252926	-0.174702	0.361261
H53	H	1.107710	-0.245552	0.425621
H54	H	1.192689	-0.262586	0.474528
O55	O	0.872848	0.345137	0.409077
C56	C	0.917841	0.423862	0.355759
H57	H	0.982591	0.373085	0.341949
H58	H	0.924056	0.518135	0.391280
C59	C	0.791600	0.513462	0.285153
C60	C	0.871125	0.451093	0.268185
H61	H	0.762783	0.530266	0.231134
H62	H	0.761287	0.460428	0.321076
H63	H	0.796790	0.592016	0.314756
H64	H	0.865934	0.372534	0.238593
H65	H	0.901437	0.504115	0.232254
H66	H	0.387773	0.382843	0.000049
O67	O	1.140529	-0.444005	0.000028
C68	C	1.183132	-0.407307	-0.075443
H69	H	1.152496	-0.311178	-0.100367
H70	H	1.180264	-0.482914	-0.128972
C71	C	1.312554	-0.513009	-0.021290
C72	C	1.274930	-0.394936	-0.051899
H73	H	1.369180	-0.505384	-0.006770
H74	H	1.283852	-0.537738	0.029555
H75	H	1.310156	-0.576002	-0.065903
H76	H	1.277319	-0.331950	-0.007282
H77	H	1.303635	-0.370197	-0.102736
O78	O	0.415953	-0.057319	-0.000067
C79	C	0.442742	-0.127414	-0.075930
H80	H	0.503096	-0.092674	-0.101214
H81	H	0.392652	-0.112614	-0.129047
C82	C	0.384014	-0.313575	-0.021838
C83	C	0.458145	-0.270913	-0.052888
H84	H	0.393512	-0.402092	-0.007627
H85	H	0.365962	-0.266349	0.029271
H86	H	0.342279	-0.301230	-0.066107
H87	H	0.499875	-0.283243	-0.008616
H88	H	0.476205	-0.318144	-0.103990
H89	H	0.545116	0.387088	0.000042
O90	O	0.872629	0.344951	0.590878
C91	C	0.790206	0.324198	0.568345
H92	H	0.789189	0.222076	0.543008
H93	H	0.766204	0.394884	0.514833
C94	C	0.735218	0.469418	0.681364
C95	C	0.733968	0.343987	0.650251
H96	H	0.700526	0.481630	0.731885
H97	H	0.790747	0.483405	0.696543
H98	H	0.715218	0.528309	0.636763
H99	H	0.753978	0.285099	0.694847
H100	H	0.678440	0.329991	0.635081
H101	H	0.838720	-0.217005	0.000110
H102	H	0.908840	-0.390810	0.133302
O103	O	1.063883	-0.254991	-0.145055
C104	C	1.021258	-0.289673	-0.221046
H105	H	0.953413	-0.299913	-0.203749
H106	H	1.052140	-0.384807	-0.247392
C107	C	1.107956	-0.172640	-0.313076
C108	C	1.024626	-0.185205	-0.291833
H109	H	1.110037	-0.108203	-0.356743
H110	H	1.136676	-0.149277	-0.261880
H111	H	1.133682	-0.251925	-0.335026
H112	H	0.998906	-0.105926	-0.269873
H113	H	0.995902	-0.208552	-0.343028
H114	H	0.908865	-0.390732	-0.133197
H115	H	1.057413	-0.261117	0.133445
H116	H	1.084798	0.016828	0.583667
