data_functionalizedCrystal
_audit_creation_method	'MofGen! by Chris Wilmer'
_symmetry_space_group_name_H-M	'P1'
_symmetry_Int_Tables_number	1
_symmetry_cell_setting	triclinic
loop_
_symmetry_equiv_pos_as_xyz
  x,y,z
_cell_length_a	16.120530
_cell_length_b	18.101395
_cell_length_c	16.120297
_cell_angle_alpha	87.130194
_cell_angle_beta	89.871860
_cell_angle_gamma	87.127367
loop_
_atom_site_label
_atom_site_type_symbol
_atom_site_fract_x
_atom_site_fract_y
_atom_site_fract_z
Zn1	Zn	1.247379	-0.375189	0.534544
Zn2	Zn	1.497379	-0.125189	0.784544
Zn3	Zn	1.747379	0.124811	1.034544
Zn4	Zn	1.997379	0.374811	1.284544
Zn5	Zn	1.254311	-0.493081	0.395480
Zn6	Zn	1.504311	-0.243081	0.645480
Zn7	Zn	1.754311	0.006919	0.895480
Zn8	Zn	2.004311	0.256919	1.145480
Zn9	Zn	1.115371	-0.362675	0.388463
Zn10	Zn	1.365371	-0.112675	0.638463
Zn11	Zn	1.615371	0.137325	0.888463
Zn12	Zn	1.865371	0.387325	1.138463
Zn13	Zn	1.108267	-0.492399	0.527449
Zn14	Zn	1.358267	-0.242399	0.777449
Zn15	Zn	1.608267	0.007601	1.027449
Zn16	Zn	1.858267	0.257601	1.277449
O17	O	1.181332	-0.430836	0.461484
O18	O	1.431332	-0.180836	0.711484
O19	O	1.681332	0.069164	0.961484
O20	O	1.931332	0.319164	1.211484
O21	O	1.364664	-0.396350	0.522003
O22	O	1.614664	-0.146350	0.772003
O23	O	1.864664	0.103650	1.022003
O24	O	2.114664	0.353650	1.272003
O25	O	1.241754	-0.470830	0.278184
O26	O	1.491754	-0.220830	0.528184
O27	O	1.741754	0.029170	0.778184
O28	O	1.991754	0.279170	1.028184
O29	O	1.132955	-0.260707	0.407873
O30	O	1.382955	-0.010707	0.657873
O31	O	1.632955	0.239293	0.907873
O32	O	1.882955	0.489293	1.157873
O33	O	1.369756	-0.482965	0.419833
O34	O	1.619756	-0.232965	0.669833
O35	O	1.869756	0.017035	0.919833
O36	O	2.119756	0.267035	1.169833
O37	O	1.229940	-0.269901	0.515199
O38	O	1.479940	-0.019901	0.765199
O39	O	1.729940	0.230099	1.015199
O40	O	1.979940	0.480099	1.265199
O41	O	1.139676	-0.375022	0.273028
O42	O	1.389676	-0.125022	0.523028
O43	O	1.639676	0.124978	0.773028
O44	O	1.889676	0.374978	1.023028
O45	O	0.998064	-0.374360	0.400994
O46	O	1.248064	-0.124360	0.650994
O47	O	1.498064	0.125640	0.900994
O48	O	1.748064	0.375640	1.150994
O49	O	1.120847	-0.481802	0.644756
O50	O	1.370847	-0.231802	0.894756
O51	O	1.620847	0.018198	1.144756
O52	O	1.870847	0.268198	1.394756
O53	O	0.992844	-0.469668	0.503107
O54	O	1.242844	-0.219668	0.753107
O55	O	1.492844	0.030332	1.003107
O56	O	1.742844	0.280332	1.253107
O57	O	1.223051	-0.395689	0.649968
O58	O	1.473051	-0.145689	0.899968
O59	O	1.723051	0.104311	1.149968
O60	O	1.973051	0.354311	1.399968
O61	O	1.234865	-0.596619	0.412954
O62	O	1.484865	-0.346619	0.662954
O63	O	1.734865	-0.096619	0.912954
O64	O	1.984865	0.153381	1.162954
O65	O	1.127568	-0.596117	0.509911
O66	O	1.377568	-0.346117	0.759911
O67	O	1.627568	-0.096117	1.009911
O68	O	1.877568	0.153883	1.259911
C69	C	0.965282	-0.420583	0.450519
C70	C	1.215282	-0.170583	0.700519
C71	C	1.465282	0.079417	0.950519
C72	C	1.715282	0.329417	1.200519
C73	C	0.872853	-0.416215	0.445848
C74	C	1.122853	-0.166215	0.695848
C75	C	1.372853	0.083785	0.945848
C76	C	1.622853	0.333785	1.195848
C77	C	0.703625	-0.408224	0.437327
C78	C	0.953625	-0.158224	0.687327
C79	C	1.203625	0.091776	0.937327
C80	C	1.453625	0.341776	1.187327
C81	C	0.659876	-0.453505	0.485701
C82	C	0.909876	-0.203505	0.735701
C83	C	1.159876	0.046495	0.985701
C84	C	1.409876	0.296495	1.235701
C85	C	0.565712	-0.449058	0.480960
C86	C	0.815712	-0.199058	0.730960
C87	C	1.065712	0.050942	0.980960
C88	C	1.315712	0.300942	1.230960
C89	C	0.797798	-0.412669	0.442067
C90	C	1.047798	-0.162669	0.692067
C91	C	1.297798	0.087331	0.942067
C92	C	1.547798	0.337331	1.192067
C93	C	1.181219	-0.623239	0.461443
C94	C	1.431219	-0.373239	0.711443
C95	C	1.681219	-0.123239	0.961443
C96	C	1.931219	0.126761	1.211443
C97	C	1.181246	-0.705555	0.461457
C98	C	1.431246	-0.455555	0.711457
C99	C	1.681246	-0.205555	0.961457
C100	C	1.931246	0.044445	1.211457
C101	C	1.181340	-0.856270	0.461495
C102	C	1.431340	-0.606270	0.711495
C103	C	1.681340	-0.356270	0.961495
C104	C	1.931340	-0.106270	1.211495
C105	C	1.113800	-0.887336	0.522447
C106	C	1.363800	-0.637336	0.772447
C107	C	1.613800	-0.387336	1.022447
C108	C	1.863800	-0.137336	1.272447
C109	C	1.114030	-0.972977	0.522730
C110	C	1.364030	-0.722977	0.772730
C111	C	1.614030	-0.472977	1.022730
C112	C	1.864030	-0.222977	1.272730
C113	C	1.181431	-1.004658	0.461532
C114	C	1.431431	-0.754658	0.711532
C115	C	1.681431	-0.504658	0.961532
C116	C	1.931431	-0.254658	1.211532
C117	C	1.267903	-0.978638	0.489547
C118	C	1.517903	-0.728638	0.739547
C119	C	1.767903	-0.478638	0.989547
C120	C	2.017903	-0.228638	1.239547
C121	C	1.267455	-0.892992	0.489973
C122	C	1.517455	-0.642992	0.739973
C123	C	1.767455	-0.392992	0.989973
C124	C	2.017455	-0.142992	1.239973
C125	C	1.163200	-0.883074	0.372414
C126	C	1.413200	-0.633074	0.622414
C127	C	1.663200	-0.383074	0.872414
C128	C	1.913200	-0.133074	1.122414
C129	C	1.161296	-0.968658	0.372806
C130	C	1.411296	-0.718658	0.622806
C131	C	1.661296	-0.468658	0.872806
C132	C	1.911296	-0.218658	1.122806
C133	C	1.181487	-1.088521	0.461552
C134	C	1.431487	-0.838521	0.711552
C135	C	1.681487	-0.588521	0.961552
C136	C	1.931487	-0.338521	1.211552
C137	C	1.181289	-0.772407	0.461477
C138	C	1.431289	-0.522407	0.711477
C139	C	1.681289	-0.272407	0.961477
C140	C	1.931289	-0.022407	1.211477
C141	C	1.398226	-0.441129	0.472492
C142	C	1.648226	-0.191129	0.722492
C143	C	1.898226	0.058871	0.972492
C144	C	2.148226	0.308871	1.222492
C145	C	1.490653	-0.445516	0.477183
C146	C	1.740653	-0.195516	0.727183
C147	C	1.990653	0.054484	0.977183
C148	C	2.240653	0.304484	1.227183
C149	C	1.170383	-0.440065	0.678378
C150	C	1.420383	-0.190065	0.928378
C151	C	1.670383	0.059935	1.178378
C152	C	1.920383	0.309935	1.428378
C153	C	1.165718	-0.443999	0.770805
C154	C	1.415718	-0.193999	1.020805
C155	C	1.665718	0.056001	1.270805
C156	C	1.915718	0.306001	1.520805
C157	C	1.181467	-0.237683	0.461545
C158	C	1.431467	0.012317	0.711545
C159	C	1.681467	0.262317	0.961545
C160	C	1.931467	0.512317	1.211545
C161	C	1.181524	-0.155372	0.461570
C162	C	1.431524	0.094628	0.711570
C163	C	1.681524	0.344628	0.961570
C164	C	1.931524	0.594628	1.211570
C165	C	1.192286	-0.421591	0.245437
C166	C	1.442286	-0.171591	0.495437
C167	C	1.692286	0.078409	0.745437
C168	C	1.942286	0.328409	0.995437
C169	C	1.197113	-0.417457	0.153018
C170	C	1.447113	-0.167457	0.403018
C171	C	1.697113	0.082543	0.653018
C172	C	1.947113	0.332543	0.903018
C173	C	1.157169	-0.451162	0.940029
C174	C	1.407169	-0.201162	1.190029
C175	C	1.657169	0.048838	1.440029
C176	C	1.907169	0.298838	1.690029
C177	C	1.205659	-0.410296	0.983799
C178	C	1.455659	-0.160296	1.233799
C179	C	1.705659	0.089704	1.483799
C180	C	1.955659	0.339704	1.733799
C181	C	1.200902	-0.414281	1.077961
C182	C	1.450902	-0.164281	1.327961
C183	C	1.700902	0.085719	1.577961
C184	C	1.950902	0.335719	1.827961
C185	C	1.161924	-0.447177	0.845858
C186	C	1.411924	-0.197177	1.095858
C187	C	1.661924	0.052823	1.345858
C188	C	1.911924	0.302823	1.595858
H189	H	1.049777	-0.990355	0.504703
H190	H	1.299777	-0.740355	0.754703
H191	H	1.549777	-0.490355	1.004703
H192	H	1.799777	-0.240355	1.254703
C193	C	1.032681	-0.806106	0.428377
C194	C	1.282681	-0.556106	0.678377
C195	C	1.532681	-0.306106	0.928377
C196	C	1.782681	-0.056106	1.178377
C197	C	1.026735	-0.854613	0.498332
C198	C	1.276735	-0.604613	0.748332
C199	C	1.526735	-0.354613	0.998332
C200	C	1.776735	-0.104613	1.248332
H201	H	0.978928	-0.785898	0.413494
H202	H	1.228928	-0.535898	0.663494
H203	H	1.478928	-0.285898	0.913494
H204	H	1.728928	-0.035898	1.163494
H205	H	1.055741	-0.832304	0.383490
H206	H	1.305741	-0.582304	0.633490
H207	H	1.555741	-0.332304	0.883490
H208	H	1.805741	-0.082304	1.133490
H209	H	1.067396	-0.767212	0.440712
H210	H	1.317396	-0.517212	0.690712
H211	H	1.567396	-0.267212	0.940712
H212	H	1.817396	-0.017212	1.190712
H213	H	0.992024	-0.893511	0.485996
H214	H	1.242024	-0.643511	0.735996
H215	H	1.492024	-0.393511	0.985996
H216	H	1.742024	-0.143511	1.235996
H217	H	1.003662	-0.828415	0.543229
H218	H	1.253662	-0.578415	0.793229
H219	H	1.503662	-0.328415	1.043229
H220	H	1.753662	-0.078415	1.293229
C221	C	1.310449	-0.322014	0.997661
C222	C	1.560449	-0.072014	1.247661
C223	C	1.810449	0.177986	1.497661
C224	C	2.060449	0.427986	1.747661
C225	C	1.266531	-0.359027	0.938927
C226	C	1.516531	-0.109027	1.188927
C227	C	1.766531	0.140973	1.438927
C228	C	2.016531	0.390973	1.688927
H229	H	1.348024	-0.290363	0.969955
H230	H	1.598024	-0.040363	1.219955
H231	H	1.848024	0.209637	1.469955
H232	H	2.098024	0.459637	1.719955
H233	H	1.340550	-0.357195	1.033153
H234	H	1.590550	-0.107195	1.283153
H235	H	1.840550	0.142805	1.533153
H236	H	2.090550	0.392805	1.783153
H237	H	1.272555	-0.293370	1.029700
H238	H	1.522555	-0.043370	1.279700
H239	H	1.772555	0.206630	1.529700
H240	H	2.022555	0.456630	1.779700
H241	H	1.304424	-0.387676	0.906892
H242	H	1.554424	-0.137676	1.156892
H243	H	1.804424	0.112324	1.406892
H244	H	2.054424	0.362324	1.656892
H245	H	1.236428	-0.323841	0.903421
H246	H	1.486428	-0.073841	1.153421
H247	H	1.736428	0.176159	1.403421
H248	H	1.986428	0.426159	1.653421
H249	H	0.693142	-0.495609	0.530678
H250	H	0.943142	-0.245609	0.780678
H251	H	1.193142	0.004391	1.030678
H252	H	1.443142	0.254391	1.280678
H253	H	1.319267	-0.872671	0.447739
H254	H	1.569267	-0.622671	0.697739
H255	H	1.819267	-0.372671	0.947739
H256	H	2.069267	-0.122671	1.197739
H257	H	1.284165	-1.003677	0.554112
H258	H	1.534165	-0.753677	0.804112
H259	H	1.784165	-0.503677	1.054112
H260	H	2.034165	-0.253677	1.304112
H261	H	1.101426	-0.857643	0.347722
H262	H	1.351426	-0.607643	0.597722
H263	H	1.601426	-0.357643	0.847722
H264	H	1.851426	-0.107643	1.097722
H265	H	0.670362	-0.366123	0.392355
H266	H	0.920362	-0.116123	0.642355
H267	H	1.170362	0.133877	0.892355
H268	H	1.420362	0.383877	1.142355
H269	H	1.125310	-0.869239	0.587984
H270	H	1.375310	-0.619239	0.837984
H271	H	1.625310	-0.369239	1.087984
H272	H	1.875310	-0.119239	1.337984
H273	H	1.319432	-0.999364	0.446722
H274	H	1.569432	-0.749364	0.696722
H275	H	1.819432	-0.499364	0.946722
H276	H	2.069432	-0.249364	1.196722
C277	C	1.103331	-0.496510	1.070849
C278	C	1.353331	-0.246510	1.320849
C279	C	1.603331	0.003490	1.570849
C280	C	1.853331	0.253490	1.820849
C281	C	1.096313	-0.502437	0.984903
C282	C	1.346313	-0.252437	1.234903
C283	C	1.596313	-0.002437	1.484903
C284	C	1.846313	0.247563	1.734903
H285	H	1.065767	-0.528170	1.098558
H286	H	1.315767	-0.278170	1.348558
H287	H	1.565767	-0.028170	1.598558
H288	H	1.815767	0.221830	1.848558
H289	H	1.090487	-0.446771	1.084416
H290	H	1.340487	-0.196771	1.334416
H291	H	1.590487	0.053229	1.584416
H292	H	1.840487	0.303229	1.834416
H293	H	1.158498	-0.510582	1.087862
H294	H	1.408498	-0.260582	1.337862
H295	H	1.658498	-0.010582	1.587862
H296	H	1.908498	0.239418	1.837862
H297	H	1.041147	-0.488359	0.967889
H298	H	1.291147	-0.238359	1.217889
H299	H	1.541147	0.011641	1.467889
H300	H	1.791147	0.261641	1.717889
H301	H	1.109152	-0.552187	0.971330
H302	H	1.359152	-0.302187	1.221330
H303	H	1.609152	-0.052187	1.471330
H304	H	1.859152	0.197813	1.721330
H305	H	1.125755	-0.996915	0.588651
H306	H	1.375755	-0.746915	0.838651
H307	H	1.625755	-0.496915	1.088651
H308	H	1.875755	-0.246915	1.338651
H309	H	1.283324	-0.876618	0.555216
H310	H	1.533324	-0.626618	0.805216
H311	H	1.783324	-0.376618	1.055216
H312	H	2.033324	-0.126618	1.305216
H313	H	1.097679	-0.985231	0.351756
H314	H	1.347679	-0.735231	0.601756
H315	H	1.597679	-0.485231	0.851756
H316	H	1.847679	-0.235231	1.101756
H317	H	1.207258	-0.989944	0.324630
H318	H	1.457258	-0.739944	0.574630
H319	H	1.707258	-0.489944	0.824630
H320	H	1.957258	-0.239944	1.074630
H321	H	1.212441	-0.862953	0.326948
H322	H	1.462441	-0.612953	0.576948
H323	H	1.712441	-0.362953	0.826948
H324	H	1.962441	-0.112953	1.076948
