data_functionalizedCrystal
_audit_creation_method	'MofGen! by Chris Wilmer'
_symmetry_space_group_name_H-M	'P1'
_symmetry_Int_Tables_number	1
_symmetry_cell_setting	triclinic
loop_
_symmetry_equiv_pos_as_xyz
  x,y,z
_cell_length_a	27.435584
_cell_length_b	27.434948
_cell_length_c	27.431174
_cell_angle_alpha	60.005483
_cell_angle_beta	60.011353
_cell_angle_gamma	59.993028
loop_
_atom_site_label
_atom_site_type_symbol
_atom_site_fract_x
_atom_site_fract_y
_atom_site_fract_z
O1	O	0.067437	-0.712144	0.595551
O2	O	0.025356	-0.554453	0.479848
O3	O	0.125206	-0.654236	0.479781
O4	O	-0.032412	-0.612361	0.595618
O5	O	0.158328	-0.621117	0.512835
O6	O	0.058479	-0.521333	0.512902
O7	O	0.100560	-0.679025	0.628605
Zn8	Zn	0.084778	-0.594921	0.576001
Zn9	Zn	0.041138	-0.638557	0.532452
O10	O	0.000710	-0.579241	0.628672
N11	N	0.114563	-0.565144	0.605726
N12	N	0.011358	-0.668338	0.502727
C13	C	0.156385	-0.523520	0.904506
C14	C	0.413419	-0.523497	0.647322
C15	C	0.156253	-0.523488	0.647384
C16	C	0.156238	-0.266354	0.647407
C17	C	0.197637	-0.390463	0.688753
C18	C	0.197646	-0.482126	0.688741
C19	C	0.220575	-0.459215	0.711654
C20	C	0.320555	-0.441991	0.659023
C21	C	0.383051	-0.462825	0.638179
C22	C	0.383069	-0.563942	0.676737
C23	C	0.320575	-0.543107	0.697583
C24	C	0.212704	-0.359206	0.627313
C25	C	0.191849	-0.296705	0.606496
C26	C	0.140866	-0.296722	0.708562
C27	C	0.161721	-0.359223	0.729379
C28	C	0.136200	-0.467030	0.703858
C29	C	0.115361	-0.487857	0.683021
C30	C	0.217408	-0.538877	0.631968
C31	C	0.238249	-0.518050	0.652796
C32	C	0.136259	-0.467047	0.811668
C33	C	0.115461	-0.487892	0.874167
C34	C	0.217537	-0.538923	0.874131
C35	C	0.238333	-0.518080	0.811631
C36	C	0.197693	-0.482140	0.780401
C37	C	0.289320	-0.482131	0.688723
C38	C	0.132699	-0.546027	0.973247
C39	C	0.482158	-0.545613	0.624075
C40	C	0.132521	-0.546006	0.624886
C41	C	0.132917	-0.197607	0.625310
C42	C	-0.098217	-0.686189	0.484419
C43	C	-0.006438	-0.686322	0.392891
C44	C	-0.006621	-0.777944	0.484592
C45	C	-0.006606	-0.686315	0.484649
C46	C	-0.029470	-0.709193	0.461638
N47	N	0.538410	-0.565162	0.605628
O48	O	0.742647	-0.575135	0.458625
O49	O	0.742821	-0.691181	0.616169
O50	O	0.742757	-0.690917	0.516248
O51	O	0.742711	-0.575399	0.558546
O52	O	0.643472	-0.657878	0.549405
O53	O	0.643536	-0.658142	0.649326
O54	O	0.643362	-0.542096	0.491782
Zn55	Zn	0.627685	-0.594873	0.575818
Zn56	Zn	0.758498	-0.638404	0.532133
O57	O	0.643426	-0.542360	0.591702
N58	N	0.847774	-0.668115	0.502317
N59	N	0.114542	-0.141354	0.605766
O60	O	-0.032397	0.062987	0.595660
O61	O	0.125155	0.062987	0.479633
O62	O	0.025219	0.062974	0.479910
O63	O	0.067539	0.063001	0.595383
O64	O	0.058343	-0.036320	0.513009
O65	O	0.158279	-0.036306	0.512732
O66	O	0.000728	-0.036306	0.628759
Zn67	Zn	0.084763	-0.052071	0.576000
Zn68	Zn	0.041120	0.078752	0.532392
O69	O	0.100664	-0.036292	0.628482
N70	N	0.011333	0.168036	0.502628
N71	N	0.114782	-0.565197	1.029501
O72	O	0.104681	-0.712124	1.233827
O73	O	-0.011334	-0.554523	1.233839
O74	O	-0.011066	-0.654443	1.233797
O75	O	0.104414	-0.612204	1.233869
O76	O	0.022028	-0.621336	1.134509
O77	O	0.021760	-0.521417	1.134551
O78	O	0.137775	-0.679018	1.134539
Zn79	Zn	0.085022	-0.594961	1.118780
Zn80	Zn	0.041420	-0.638580	1.249597
O81	O	0.137508	-0.579098	1.134580
N82	N	0.011658	-0.668350	1.338876
C83	C	0.037974	-0.518023	0.480435
C84	C	0.161625	-0.641592	0.480351
C85	C	0.087941	-0.715455	0.628017
C86	C	-0.035710	-0.591885	0.628101
C87	C	0.693199	-0.690642	0.652596
C88	C	0.693122	-0.690315	0.528855
C89	C	0.692981	-0.542634	0.455356
C90	C	0.693062	-0.542961	0.579095
C91	C	0.161524	0.013463	0.480164
C92	C	0.037807	0.013324	0.480547
C93	C	-0.035683	0.013341	0.628188
C94	C	0.088076	0.013357	0.627845
C95	C	-0.010764	-0.518114	1.184196
C96	C	-0.010426	-0.641846	1.184125
C97	C	0.137205	-0.715426	1.184182
C98	C	0.136875	-0.591687	1.184231
H99	H	0.103160	-0.437777	0.786243
C100	C	-0.110587	-0.603135	1.184023
C101	C	-0.059385	-0.654018	1.184041
H102	H	-0.140812	-0.610652	1.183975
H103	H	-0.101280	-0.570577	1.149419
H104	H	-0.124398	-0.593674	1.218668
H105	H	-0.045571	-0.663476	1.149394
H106	H	-0.068692	-0.686585	1.218648
H107	H	0.206895	-0.650521	0.443974
C108	C	0.059426	-0.803009	0.693104
C109	C	0.100066	-0.776604	0.677077
H110	H	0.066910	-0.840758	0.723394
H111	H	0.063896	-0.808184	0.659172
H112	H	0.019911	-0.777996	0.707624
H113	H	0.139581	-0.801616	0.662553
H114	H	0.095601	-0.771432	0.711016
H115	H	0.295144	-0.575796	0.721768
H116	H	0.097136	0.013366	0.664120
H117	H	0.693053	-0.506675	0.588146
C118	C	-0.133731	-0.521591	0.655861
C119	C	-0.096821	-0.579839	0.677213
H120	H	-0.171456	-0.514154	0.686183
H121	H	-0.138942	-0.517108	0.621943
H122	H	-0.115829	-0.494010	0.644986
H123	H	-0.114721	-0.607421	0.688084
H124	H	-0.091612	-0.584328	0.711141
C125	C	0.165126	-0.813488	1.184151
C126	C	0.186379	-0.776528	1.184177
H127	H	0.195484	-0.851210	1.184151
H128	H	0.154285	-0.795619	1.149522
H129	H	0.131201	-0.818708	1.218770
H130	H	0.220302	-0.771305	1.149556
H131	H	0.197229	-0.794401	1.218810
H132	H	-0.047187	-0.472851	1.184199
C133	C	-0.096822	0.013351	0.728436
C134	C	-0.096763	0.013342	0.677366
H135	H	-0.134530	0.013348	0.758797
H136	H	-0.089544	0.047978	0.719035
H137	H	-0.066437	-0.021274	0.742117
H138	H	-0.127146	0.047969	0.663683
H139	H	-0.104048	-0.021288	0.686767
H140	H	0.692924	-0.506199	0.410112
C141	C	0.693273	-0.718566	0.750647
C142	C	0.693264	-0.739827	0.713675
H143	H	0.693317	-0.748933	0.788353
H144	H	0.658635	-0.684657	0.755895
H145	H	0.727881	-0.707698	0.732770
H146	H	0.658654	-0.750691	0.731551
H147	H	0.727906	-0.773747	0.708430
C148	C	0.164349	-0.521222	1.184258
C149	C	0.185855	-0.579493	1.184248
H150	H	0.194589	-0.513694	1.184265
H151	H	0.130406	-0.516771	1.218879
H152	H	0.153474	-0.493682	1.149631
H153	H	0.196725	-0.607033	1.218878
H154	H	0.219809	-0.583949	1.149624
H155	H	0.693140	-0.726605	0.519802
H156	H	0.206679	0.013739	0.443646
C157	C	-0.032672	0.013276	0.453096
C158	C	0.025590	0.013291	0.431580
H159	H	-0.040209	0.013246	0.422869
H160	H	-0.060211	0.047909	0.463948
H161	H	-0.037103	-0.021343	0.487060
H162	H	0.030020	0.047912	0.397618
H163	H	0.053137	-0.021345	0.420720
H164	H	0.250633	-0.568176	0.899553
C165	C	0.016652	-0.435338	0.867915
C166	C	0.047926	-0.471288	0.908529
H167	H	-0.025040	-0.425086	0.889131
H168	H	0.026883	-0.456539	0.843539
H169	H	0.026897	-0.400004	0.843538
H170	H	0.037685	-0.506624	0.932903
H171	H	0.037691	-0.450087	0.932916
C172	C	-0.022144	-0.446206	0.417653
C173	C	0.025847	-0.456876	0.431374
H174	H	-0.029627	-0.408458	0.387361
H175	H	-0.056664	-0.446365	0.452366
H176	H	-0.012681	-0.476556	0.403916
H177	H	0.016383	-0.426528	0.445115
H178	H	0.060374	-0.456712	0.396654
H179	H	0.288361	-0.530376	0.786177
H180	H	0.065328	-0.475552	0.695316
C181	C	0.320374	-0.587216	0.583599
C182	C	0.262043	-0.578366	0.592460
H183	H	0.347930	-0.611592	0.559204
H184	H	0.326395	-0.606304	0.621050
H185	H	0.326360	-0.549751	0.564522
H186	H	0.256056	-0.615831	0.611541
H187	H	0.256020	-0.559279	0.555002
H188	H	0.103135	-0.437780	0.733124
H189	H	0.408519	-0.613593	0.683941
C190	C	0.376755	-0.360781	0.602151
C191	C	0.417387	-0.418702	0.605528
H192	H	0.397955	-0.333542	0.581989
H193	H	0.352396	-0.359186	0.641301
H194	H	0.352364	-0.350330	0.580861
H195	H	0.441775	-0.429155	0.626821
H196	H	0.441756	-0.420299	0.566370
C197	C	0.320850	-0.482525	0.604946
C198	C	0.305789	-0.534631	0.636189
H199	H	0.362545	-0.492761	0.594692
H200	H	0.299642	-0.458156	0.629337
H201	H	0.310583	-0.461324	0.569613
H202	H	0.316052	-0.555830	0.671523
H203	H	0.327004	-0.559009	0.611797
H204	H	0.295112	-0.392340	0.651807
H205	H	0.241946	-0.384640	0.594232
H206	H	0.204115	-0.271255	0.556464
H207	H	0.149444	-0.384673	0.779411
C208	C	0.092580	-0.303013	0.811543
C209	C	0.101391	-0.262379	0.753216
H210	H	0.068206	-0.281811	0.839110
H211	H	0.130047	-0.327385	0.817527
H212	H	0.073500	-0.327395	0.817550
H213	H	0.120475	-0.238000	0.747208
H214	H	0.063917	-0.237997	0.747230
