data_functionalizedCrystal
_audit_creation_method	'MofGen! by Chris Wilmer'
_symmetry_space_group_name_H-M	'P1'
_symmetry_Int_Tables_number	1
_symmetry_cell_setting	triclinic
loop_
_symmetry_equiv_pos_as_xyz
  x,y,z
_cell_length_a	14.908782
_cell_length_b	14.908178
_cell_length_c	13.032268
_cell_angle_alpha	86.549870
_cell_angle_beta	79.155564
_cell_angle_gamma	90.210875
loop_
_atom_site_label
_atom_site_type_symbol
_atom_site_fract_x
_atom_site_fract_y
_atom_site_fract_z
Zn1	Zn	1.299443	-0.485774	0.471334
Zn2	Zn	1.799443	0.014226	0.971334
Zn3	Zn	1.311988	-0.617176	0.286962
Zn4	Zn	1.811988	-0.117176	0.786962
Zn5	Zn	1.168070	-0.460233	0.307116
Zn6	Zn	1.668070	0.039767	0.807116
Zn7	Zn	1.140258	-0.627547	0.472456
Zn8	Zn	1.640258	-0.127547	0.972456
O9	O	1.229940	-0.547683	0.384467
O10	O	1.729940	-0.047683	0.884467
O11	O	1.427956	-0.509554	0.437972
O12	O	1.927956	-0.009554	0.937972
O13	O	1.309786	-0.581328	0.143280
O14	O	1.809786	-0.081328	0.643280
O15	O	1.191886	-0.338608	0.336864
O16	O	1.691886	0.161392	0.836864
O17	O	1.437173	-0.606094	0.302516
O18	O	1.937173	-0.106094	0.802516
O19	O	1.288405	-0.357373	0.457514
O20	O	1.788405	0.142627	0.957514
O21	O	1.204051	-0.466023	0.158087
O22	O	1.704051	0.033977	0.658087
O23	O	1.037532	-0.476079	0.337953
O24	O	1.537532	0.023921	0.837953
O25	O	1.144485	-0.623770	0.618663
O26	O	1.644485	-0.123770	1.118663
O27	O	1.017099	-0.599004	0.459428
O28	O	1.517099	-0.099004	0.959428
O29	O	1.261437	-0.519610	0.617838
O30	O	1.761437	-0.019610	1.117838
O31	O	1.282819	-0.743565	0.303604
O32	O	1.782819	-0.243565	0.803604
O33	O	1.156650	-0.751185	0.439886
O34	O	1.656650	-0.251185	0.939886
C35	C	0.994424	-0.535896	0.400999
C36	C	1.494424	-0.035896	0.900999
C37	C	0.893666	-0.530877	0.408096
C38	C	1.393666	-0.030877	0.908096
C39	C	0.713958	-0.621797	0.280184
C40	C	1.213958	-0.121797	0.780184
C41	C	0.619286	-0.617084	0.286848
C42	C	1.119286	-0.117084	0.786848
C43	C	0.609649	-0.516745	0.428092
C44	C	1.109649	-0.016745	0.928092
C45	C	0.704321	-0.521458	0.421428
C46	C	1.204321	-0.021458	0.921428
C47	C	0.756472	-0.573984	0.347470
C48	C	1.256472	-0.073984	0.847470
C49	C	0.851146	-0.578691	0.340802
C50	C	1.351146	-0.078691	0.840802
C51	C	0.841506	-0.478358	0.482050
C52	C	1.341506	0.021642	0.982050
C53	C	0.746835	-0.473645	0.488714
C54	C	1.246835	0.026355	0.988714
C55	C	1.218100	-0.779793	0.369701
C56	C	1.718100	-0.279793	0.869701
C57	C	1.213113	-0.879098	0.363413
C58	C	1.713113	-0.379098	0.863413
C59	C	1.304144	-1.085105	0.477380
C60	C	1.804144	-0.585105	0.977380
C61	C	1.299461	-1.178411	0.471475
C62	C	1.799461	-0.678411	0.971475
C63	C	1.199061	-1.159021	0.345705
C64	C	1.699061	-0.659021	0.845705
C65	C	1.203744	-1.065714	0.351609
C66	C	1.703744	-0.565714	0.851609
C67	C	1.256288	-1.028760	0.417448
C68	C	1.756288	-0.528760	0.917448
C69	C	1.260975	-0.935451	0.423347
C70	C	1.760975	-0.435451	0.923347
C71	C	1.160570	-0.916063	0.297582
C72	C	1.660570	-0.416063	0.797582
C73	C	1.155888	-1.009369	0.291678
C74	C	1.655888	-0.509369	0.791678
C75	C	1.466375	-0.559516	0.367871
C76	C	1.966375	-0.059516	0.867871
C77	C	1.567129	-0.564559	0.360798
C78	C	2.067129	-0.064559	0.860798
C79	C	1.198459	-0.575696	0.657260
C80	C	1.698459	-0.075696	1.157260
C81	C	1.185044	-0.587634	0.773508
C82	C	1.685044	-0.087634	1.273508
C83	C	1.241848	-0.314670	0.399312
C84	C	1.741848	0.185330	0.899312
C85	C	1.246923	-0.215373	0.405638
C86	C	1.746923	0.284627	0.905638
C87	C	1.261353	-0.519717	0.112736
C88	C	1.761353	-0.019717	0.612736
C89	C	1.274957	-0.507536	-0.003508
C90	C	1.774957	-0.007536	0.496492
C91	C	1.236929	-0.541420	0.824927
C92	C	1.736929	-0.041420	1.324927
C93	C	1.223065	-0.553757	0.945076
C94	C	1.723065	-0.053757	1.445076
H95	H	0.584675	-0.656020	0.232058
H96	H	1.084675	-0.156020	0.732058
H97	H	0.567170	-0.473989	0.488312
H98	H	1.067170	0.026011	0.988312
N99	N	0.907393	-0.635340	0.261033
N100	N	1.407393	-0.135340	0.761033
H101	H	0.885812	-0.700028	0.274258
H102	H	1.385812	-0.200028	0.774258
H103	H	0.973804	-0.630997	0.267054
H104	H	1.473804	-0.130997	0.767054
H105	H	1.338426	-1.224285	0.520283
H106	H	1.838426	-0.724285	1.020283
N107	N	0.770215	-0.678435	0.200412
N108	N	1.270215	-0.178435	0.700412
H109	H	0.728917	-0.708006	0.158792
H110	H	1.228917	-0.208006	0.658792
H111	H	0.802494	-0.726155	0.237503
H112	H	1.302494	-0.226155	0.737503
N113	N	0.690584	-0.416997	0.568481
N114	N	1.190584	0.083003	1.068481
H115	H	0.624158	-0.421267	0.562495
H116	H	1.124158	0.078733	1.062495
H117	H	0.712240	-0.352337	0.555212
H118	H	1.212240	0.147663	1.055212
N119	N	1.347399	-0.443027	0.936989
N120	N	1.847399	0.056973	1.436989
H121	H	1.409285	-0.462076	0.950514
H122	H	1.909285	0.037924	1.450514
H123	H	1.334332	-0.380447	0.961025
H124	H	1.834332	0.119553	1.461025
H125	H	1.168371	-0.602453	0.990000
H126	H	1.668371	-0.102453	1.490000
N127	N	1.108957	-0.855287	0.232932
N128	N	1.608957	-0.355287	0.732932
H129	H	1.063958	-0.818850	0.280785
H130	H	1.563958	-0.318850	0.780785
H131	H	1.075020	-0.892920	0.190335
H132	H	1.575020	-0.392920	0.690335
H133	H	1.130354	-0.636326	0.818437
H134	H	1.630354	-0.136326	1.318437
N135	N	1.142398	-1.198892	0.274697
N136	N	1.642398	-0.698892	0.774697
H137	H	1.076562	-1.181133	0.296441
H138	H	1.576562	-0.681133	0.796441
H139	H	1.146772	-1.266542	0.280089
H140	H	1.646772	-0.766542	0.780089
N141	N	1.309382	-0.476931	0.765417
N142	N	1.809382	0.023069	1.265417
H143	H	1.279867	-0.429065	0.725303
H144	H	1.779867	0.070935	1.225303
H145	H	1.354689	-0.510811	0.714900
H146	H	1.854689	-0.010811	1.214900
N147	N	0.887361	-0.426773	0.554618
N148	N	1.387361	0.073227	1.054618
H149	H	0.955250	-0.437722	0.539173
H150	H	1.455250	0.062278	1.039173
H151	H	0.861502	-0.447610	0.629564
H152	H	1.361502	0.052390	1.129564
N153	N	1.317647	-0.895587	0.494351
N154	N	1.817647	-0.395587	0.994351
H155	H	1.347250	-0.945444	0.531423
H156	H	1.847250	-0.445444	1.031423
H157	H	1.277072	-0.860008	0.547754
H158	H	1.777072	-0.360008	1.047754
N159	N	1.360823	-1.045237	0.548374
N160	N	1.860823	-0.545237	1.048374
H161	H	1.390434	-1.095091	0.585441
H162	H	1.890434	-0.595091	1.085441
H163	H	1.320253	-1.009658	0.601781
H164	H	1.820253	-0.509658	1.101781
N165	N	1.099222	-1.049230	0.220665
N166	N	1.599222	-0.549230	0.720665
H167	H	1.103518	-1.116890	0.226015
H168	H	1.603518	-0.616890	0.726015
H169	H	1.122834	-1.025972	0.146024
H170	H	1.622834	-0.525972	0.646024
