data_functionalizedCrystal
_audit_creation_method	'MofGen! by Chris Wilmer'
_symmetry_space_group_name_H-M	'P1'
_symmetry_Int_Tables_number	1
_symmetry_cell_setting	triclinic
loop_
_symmetry_equiv_pos_as_xyz
  x,y,z
_cell_length_a	10.654550
_cell_length_b	14.519709
_cell_length_c	9.730223
_cell_angle_alpha	89.997715
_cell_angle_beta	89.996251
_cell_angle_gamma	84.082524
loop_
_atom_site_label
_atom_site_type_symbol
_atom_site_fract_x
_atom_site_fract_y
_atom_site_fract_z
O1	O	1.666589	0.129528	-0.114406
O2	O	1.300991	0.141869	-0.114384
O3	O	1.493483	0.001510	-0.114384
O4	O	1.474097	0.269887	-0.114407
O5	O	1.493481	0.001514	0.114196
O6	O	1.300989	0.141873	0.114195
O7	O	1.666586	0.129532	0.114174
Zn8	Zn	1.483787	0.135703	0.150477
Zn9	Zn	1.483790	0.135698	-0.150687
O10	O	1.474094	0.269890	0.114173
C11	C	1.254201	0.140965	-0.000092
C12	C	1.114784	0.138254	-0.000083
C13	C	1.034504	0.220895	-0.000110
C14	C	0.903507	0.218342	-0.000134
C15	C	0.933085	0.050500	-0.000108
C16	C	1.064078	0.053054	-0.000075
C17	C	1.085209	0.306095	-0.000118
C18	C	1.004928	0.388743	-0.000147
C19	C	0.873931	0.386190	-0.000170
C20	C	0.823217	0.300989	-0.000165
C21	C	1.492579	-0.032852	-0.000093
C22	C	1.489871	-0.135247	-0.000092
C23	C	1.479904	-0.510195	-0.000127
C24	C	1.482672	-0.405873	-0.000117
C25	C	1.484887	-0.322725	-0.000109
C26	C	1.487656	-0.218396	-0.000101
C27	C	1.713377	0.130436	-0.000122
C28	C	1.852794	0.133147	-0.000140
C29	C	1.474999	0.304253	-0.000120
C30	C	1.477707	0.406648	-0.000130
N31	N	1.483795	0.135705	0.356013
N32	N	1.483793	0.135688	-0.356224
C33	C	1.569052	0.073576	0.427939
C34	C	1.569048	0.073565	0.571822
C35	C	1.398527	0.197821	0.571840
C36	C	1.398525	0.197827	0.427959
C37	C	1.654321	0.011455	0.355993
C38	C	1.739586	-0.050679	0.427920
C39	C	1.739583	-0.050691	0.571803
C40	C	1.654315	0.011432	0.643759
H41	H	0.891782	-0.018867	-0.000127
O42	O	1.315585	0.258053	0.358022
C43	C	1.238029	0.208131	0.274777
H44	H	1.235757	0.135383	0.318138
H45	H	1.277320	0.203570	0.165730
C46	C	1.106098	0.347383	0.219317
C47	C	1.103298	0.258035	0.272581
H48	H	1.022990	0.378167	0.217957
H49	H	1.158350	0.381017	0.275397
H50	H	1.138846	0.343569	0.128450
H51	H	1.070565	0.261851	0.363453
H52	H	1.051036	0.224403	0.216517
O53	O	1.822317	-0.110968	0.357815
C54	C	1.803997	-0.097671	0.215398
H55	H	1.757281	-0.024652	0.195738
H56	H	1.740839	-0.150271	0.174608
C57	C	1.989786	-0.200408	0.165635
C58	C	1.932418	-0.110723	0.141487
H59	H	2.069000	-0.208464	0.120041
H60	H	2.002127	-0.209370	0.261584
H61	H	1.937141	-0.244232	0.131643
H62	H	1.985055	-0.066901	0.175494
H63	H	1.920089	-0.101754	0.045542
H64	H	1.654311	0.011411	0.760918
H65	H	1.129445	-0.014240	-0.000056
H66	H	1.046228	0.458110	-0.000140
H67	H	1.654334	0.011460	0.238836
H68	H	1.809000	-0.101288	0.630364
O69	O	1.315658	0.258040	0.641888
C70	C	1.238063	0.208115	0.725095
H71	H	1.287923	0.136288	0.746639
H72	H	1.145235	0.201219	0.669657
C73	C	1.150106	0.348140	0.835314
C74	C	1.211350	0.259924	0.861784
H75	H	1.133623	0.380099	0.919628
H76	H	1.202380	0.381777	0.779252
H77	H	1.072757	0.342381	0.789112
H78	H	1.288704	0.265684	0.907969
H79	H	1.159089	0.226289	0.917857
O80	O	0.796124	0.466555	-0.000253
C81	C	0.868975	0.542297	-0.000215
H82	H	0.966697	0.519510	-0.043466
H83	H	0.878333	0.568378	0.109444
C84	C	0.683879	0.648567	-0.036760
C85	C	0.803900	0.620583	-0.089893
H86	H	0.643737	0.696860	-0.092072
H87	H	0.634797	0.597540	-0.036781
H88	H	0.691695	0.670296	0.054621
H89	H	0.796082	0.598844	-0.181266
H90	H	0.852980	0.671609	-0.089890
H91	H	0.716549	0.298917	-0.000163
H92	H	1.191871	0.308183	-0.000105
