data_functionalizedCrystal
_audit_creation_method	'MofGen! by Chris Wilmer'
_symmetry_space_group_name_H-M	'P1'
_symmetry_Int_Tables_number	1
_symmetry_cell_setting	triclinic
loop_
_symmetry_equiv_pos_as_xyz
  x,y,z
_cell_length_a	14.908571
_cell_length_b	25.639239
_cell_length_c	14.908694
_cell_angle_alpha	93.266315
_cell_angle_beta	83.592472
_cell_angle_gamma	86.734636
loop_
_atom_site_label
_atom_site_type_symbol
_atom_site_fract_x
_atom_site_fract_y
_atom_site_fract_z
Zn1	Zn	1.413187	-0.275253	-0.591468
Zn2	Zn	1.404309	-0.357334	-0.440091
Zn3	Zn	1.253095	-0.264559	-0.431405
Zn4	Zn	1.261741	-0.357293	-0.582690
O5	O	1.333083	-0.313610	-0.511414
O6	O	1.538674	-0.290634	-0.578697
O7	O	1.376916	-0.340569	-0.312274
O8	O	1.274428	-0.192817	-0.452676
O9	O	1.532151	-0.350938	-0.467481
O10	O	1.392047	-0.200674	-0.570274
O11	O	1.265820	-0.272407	-0.305892
O12	O	1.127577	-0.272368	-0.444164
O13	O	1.289164	-0.350869	-0.710519
O14	O	1.133929	-0.340499	-0.555312
O15	O	1.400431	-0.290594	-0.716969
O16	O	1.385300	-0.430489	-0.458969
O17	O	1.280555	-0.430459	-0.563735
C18	C	1.097911	-0.305269	-0.497844
C19	C	0.997304	-0.301715	-0.492060
C20	C	1.332928	-0.449446	-0.511363
C21	C	1.332947	-0.507561	-0.511377
C22	C	0.814908	-0.366078	-0.596774
C23	C	0.720379	-0.362740	-0.591343
C24	C	0.713717	-0.291698	-0.475771
C25	C	0.808246	-0.295036	-0.481202
C26	C	0.858838	-0.332228	-0.541705
C27	C	0.953368	-0.335568	-0.547131
C28	C	0.946704	-0.264524	-0.431564
C29	C	0.852176	-0.261186	-0.426133
C30	C	1.387780	-0.867941	-0.456969
C31	C	1.387816	-0.922547	-0.456983
O32	O	1.434276	-0.950792	-0.410669
N33	N	1.333245	-0.949857	-0.511483
C34	C	1.278643	-0.922558	-0.565979
O35	O	1.232230	-0.950801	-0.612337
C36	C	1.278612	-0.867953	-0.565969
C37	C	1.333179	-0.840646	-0.511459
C38	C	1.442343	-0.840634	-0.402464
C39	C	1.442306	-0.786032	-0.402449
C40	C	1.387705	-0.758737	-0.456939
C41	C	1.333142	-0.786044	-0.511443
C42	C	1.224015	-0.840655	-0.620469
C43	C	1.223990	-0.786047	-0.620454
C44	C	1.278557	-0.758740	-0.565945
C45	C	1.278504	-0.704146	-0.565918
N46	N	1.333074	-0.676837	-0.511418
C47	C	1.387675	-0.704132	-0.456929
C48	C	1.278712	-1.037231	-0.565996
C49	C	1.278736	-1.091834	-0.566002
C50	C	1.387911	-1.091820	-0.457008
C51	C	1.387881	-1.037216	-0.456998
C52	C	1.333282	-1.009922	-0.511497
C53	C	1.387592	-0.589463	-0.456900
C54	C	1.387547	-0.534856	-0.456887
C55	C	1.278377	-0.534875	-0.565885
C56	C	1.278417	-0.589477	-0.565895
C57	C	1.333032	-0.616770	-0.511400
O58	O	1.232070	-0.675867	-0.612211
O59	O	1.434088	-0.675883	-0.410587
C60	C	1.569173	-0.321983	-0.525037
C61	C	1.669781	-0.325552	-0.530843
C62	C	1.346752	-0.321920	-0.747505
C63	C	1.352577	-0.325461	-0.848113
C64	C	1.333264	-0.177245	-0.511485
C65	C	1.333341	-0.119135	-0.511516
C66	C	1.247818	-0.261140	-1.030521
C67	C	1.253288	-0.264466	-1.125051
C68	C	1.368982	-0.335440	-1.131705
C69	C	1.363512	-0.332114	-1.037175
C70	C	1.302929	-0.294963	-0.986586
C71	C	1.297464	-0.291635	-0.892055
C72	C	1.413153	-0.362612	-0.898709
C73	C	1.418624	-0.365937	-0.993240
C74	C	1.319519	-0.305296	-0.276244
C75	C	1.313869	-0.301614	-0.175646
H76	H	0.994559	-0.365853	-0.596394
H77	H	0.856101	-0.396364	-0.646033
H78	H	0.672509	-0.261415	-0.426519
C79	C	1.435199	-0.376529	-1.187342
N80	N	1.484924	-0.407559	-1.229241
H81	H	1.198496	-0.230885	-0.989331
H82	H	1.233918	-0.512643	-0.610247
H83	H	1.179576	-0.862879	-0.664852
H84	H	1.432067	-0.611679	-0.412528
H85	H	1.486742	-0.763802	-0.358065
H86	H	1.208410	-0.236924	-1.160819
H87	H	0.684616	-0.390304	-0.636188
C88	C	1.473780	-0.399819	-0.850374
N89	N	1.519444	-0.427842	-0.813966
C90	C	1.230819	-0.250769	-0.836408
N91	N	1.180617	-0.219989	-0.794498
H92	H	1.467946	-0.396186	-1.034441
C93	C	0.796514	-0.220276	-0.359584
N94	N	0.754590	-0.189464	-0.309455
H95	H	0.982482	-0.236962	-0.386721
C96	C	1.447981	-1.121856	-0.397075
N97	N	1.493224	-1.144481	-0.351938
C98	C	1.447573	-0.504821	-0.396915
N99	N	1.492783	-0.482201	-0.351744
H100	H	1.486810	-0.862852	-0.358092
C101	C	1.163925	-0.756027	-0.680410
N102	N	1.118684	-0.733417	-0.725566
C103	C	1.218388	-0.619516	-0.625855
N104	N	1.173180	-0.642137	-0.671025
C105	C	1.447911	-1.007183	-0.397036
N106	N	1.493130	-0.984566	-0.351872
C107	C	1.218699	-1.121865	-0.625958
N108	N	1.173481	-1.144483	-0.671123
H109	H	1.234243	-1.015011	-0.610373
