data_functionalizedCrystal
_audit_creation_method	'MofGen! by Chris Wilmer'
_symmetry_space_group_name_H-M	'P1'
_symmetry_Int_Tables_number	1
_symmetry_cell_setting	triclinic
loop_
_symmetry_equiv_pos_as_xyz
  x,y,z
_cell_length_a	11.792241
_cell_length_b	19.288859
_cell_length_c	18.366186
_cell_angle_alpha	89.990083
_cell_angle_beta	90.001225
_cell_angle_gamma	96.336429
loop_
_atom_site_label
_atom_site_type_symbol
_atom_site_fract_x
_atom_site_fract_y
_atom_site_fract_z
O1	O	-0.141549	0.922160	-0.060556
O2	O	-0.160655	0.720007	-0.060553
O3	O	0.014143	0.825989	-0.060559
O4	O	-0.316347	0.816177	-0.060550
O5	O	0.014152	0.825971	0.060540
O6	O	-0.160647	0.719989	0.060546
O7	O	-0.141540	0.922141	0.060543
Zn8	Zn	-0.151092	0.821062	0.079772
Zn9	Zn	-0.151103	0.821086	-0.079782
O10	O	-0.316339	0.816159	0.060549
C11	C	-0.160037	0.694118	-0.000003
C12	C	-0.158195	0.617003	-0.000003
C13	C	-0.248298	0.053475	-0.000001
C14	C	-0.250039	0.125931	-0.000005
C15	C	-0.147475	0.170055	-0.000007
C16	C	-0.043163	0.141718	-0.000023
C17	C	-0.041426	0.069262	-0.000026
C18	C	-0.070981	0.290885	0.042420
C19	C	-0.072723	0.363338	0.042428
C20	C	-0.152831	0.393531	0.000001
C21	C	-0.231216	0.351261	-0.042425
C22	C	-0.229478	0.278806	-0.042429
C23	C	-0.149348	0.248621	-0.000003
C24	C	-0.259024	0.500426	0.000008
C25	C	-0.260760	0.572884	-0.000000
C26	C	-0.053881	0.588670	-0.000011
C27	C	-0.052148	0.516213	-0.000010
C28	C	-0.154722	0.472095	0.000003
C29	C	-0.358624	0.816785	0.000000
C30	C	-0.484610	0.818629	0.000004
C31	C	-0.715271	0.822021	-0.000015
C32	C	-0.586914	0.820137	-0.000005
C33	C	0.056429	0.825363	-0.000012
C34	C	0.182415	0.823519	-0.000020
C35	C	-0.142158	0.948030	-0.000008
C36	C	-0.144000	1.025145	-0.000014
N37	N	-0.151084	0.821051	0.188663
N38	N	-0.151103	0.821103	-0.188673
C39	C	-0.073721	0.867995	0.226761
C40	C	-0.073716	0.868000	0.302989
C41	C	-0.151093	0.821066	0.341116
C42	C	-0.228462	0.774113	0.303009
C43	C	-0.228457	0.774105	0.226782
C44	C	-0.254504	0.812356	0.461879
C45	C	-0.254511	0.812368	0.538104
C46	C	-0.151107	0.821086	0.576223
C47	C	-0.047693	0.829806	0.538108
C48	C	-0.047689	0.829799	0.461882
C49	C	-0.151106	0.821069	0.423770
C50	C	-0.073733	0.868038	0.696976
C51	C	-0.073726	0.868037	0.773205
C52	C	-0.228482	0.774154	0.773224
C53	C	-0.228479	0.774151	0.696996
C54	C	-0.151105	0.821097	0.658877
H55	H	-0.005742	0.266308	0.076971
H56	H	-0.008903	0.397749	0.076978
H57	H	-0.010716	0.906220	0.195726
H58	H	-0.291462	0.735898	0.334055
H59	H	-0.334974	0.149002	0.000012
H60	H	-0.331823	0.017558	0.000005
H61	H	0.029628	0.624595	-0.000017
H62	H	-0.291479	0.735937	0.804266
H63	H	0.040345	0.177648	-0.000026
H64	H	-0.338713	0.805244	0.430848
H65	H	-0.291456	0.735877	0.195762
H66	H	0.043509	0.046198	-0.000037
H67	H	-0.342546	0.464504	0.000017
H68	H	-0.010715	0.906229	0.334014
H69	H	-0.345696	0.595948	0.000004
H70	H	0.036515	0.836897	0.430852
H71	H	-0.291479	0.735927	0.665975
H72	H	0.032783	0.493147	-0.000015
H73	H	0.036508	0.836905	0.569143
H74	H	-0.338716	0.805272	0.569131
H75	H	-0.010727	0.906262	0.665938
H76	H	-0.293300	0.244392	-0.076975
H77	H	-0.296450	0.375842	-0.076972
H78	H	-0.010722	0.906263	0.804225
