data_functionalizedCrystal
_audit_creation_method	'MofGen! by Chris Wilmer'
_symmetry_space_group_name_H-M	'P1'
_symmetry_Int_Tables_number	1
_symmetry_cell_setting	triclinic
loop_
_symmetry_equiv_pos_as_xyz
  x,y,z
_cell_length_a	14.519731
_cell_length_b	14.519709
_cell_length_c	13.596369
_cell_angle_alpha	90.006934
_cell_angle_beta	89.994790
_cell_angle_gamma	96.315501
loop_
_atom_site_label
_atom_site_type_symbol
_atom_site_fract_x
_atom_site_fract_y
_atom_site_fract_z
O1	O	1.223856	-0.120986	-0.081791
O2	O	1.473856	0.129014	0.168209
O3	O	1.723856	0.379014	0.418209
O4	O	1.973856	0.629014	0.668209
O5	O	0.955382	-0.135202	-0.081794
O6	O	1.205382	0.114798	0.168206
O7	O	1.455382	0.364798	0.418206
O8	O	1.705382	0.614798	0.668206
O9	O	1.096737	0.006144	-0.081783
O10	O	1.346737	0.256144	0.168217
O11	O	1.596737	0.506144	0.418217
O12	O	1.846737	0.756144	0.668217
O13	O	1.082501	-0.262332	-0.081801
O14	O	1.332501	-0.012332	0.168199
O15	O	1.582501	0.237668	0.418199
O16	O	1.832501	0.487668	0.668199
O17	O	1.096723	0.006151	0.081799
O18	O	1.346723	0.256151	0.331799
O19	O	1.596723	0.506151	0.581799
O20	O	1.846723	0.756151	0.831799
O21	O	0.955368	-0.135195	0.081789
O22	O	1.205368	0.114805	0.331789
O23	O	1.455368	0.364805	0.581789
O24	O	1.705368	0.614805	0.831789
O25	O	1.223842	-0.120979	0.081792
O26	O	1.473842	0.129021	0.331792
O27	O	1.723842	0.379021	0.581792
O28	O	1.973842	0.629021	0.831792
Zn29	Zn	1.089603	-0.128086	0.107763
Zn30	Zn	1.339603	0.121914	0.357763
Zn31	Zn	1.589603	0.371914	0.607763
Zn32	Zn	1.839603	0.621914	0.857763
Zn33	Zn	1.089621	-0.128096	-0.107765
Zn34	Zn	1.339621	0.121904	0.142235
Zn35	Zn	1.589621	0.371904	0.392235
Zn36	Zn	1.839621	0.621904	0.642235
O37	O	1.082487	-0.262325	0.081782
O38	O	1.332487	-0.012325	0.331782
O39	O	1.582487	0.237675	0.581782
O40	O	1.832487	0.487675	0.831782
C41	C	1.096067	0.040507	0.000008
C42	C	1.346067	0.290507	0.250008
C43	C	1.596067	0.540507	0.500008
C44	C	1.846067	0.790507	0.750008
C45	C	1.094079	0.142889	0.000009
C46	C	1.344079	0.392889	0.250009
C47	C	1.594079	0.642889	0.500009
C48	C	1.844079	0.892889	0.750009
C49	C	0.921016	-0.134532	-0.000003
C50	C	1.171016	0.115468	0.249997
C51	C	1.421016	0.365468	0.499997
C52	C	1.671016	0.615468	0.749997
C53	C	0.818635	-0.132536	-0.000003
C54	C	1.068635	0.117464	0.249997
C55	C	1.318635	0.367464	0.499997
C56	C	1.568635	0.617464	0.749997
C57	C	1.258209	-0.121649	-0.000001
C58	C	1.508209	0.128351	0.249999
C59	C	1.758209	0.378351	0.499999
C60	C	2.008209	0.628351	0.749999
C61	C	1.360589	-0.123645	-0.000007
C62	C	1.610589	0.126355	0.249993
C63	C	1.860589	0.376355	0.499993
C64	C	2.110589	0.626355	0.749993
C65	C	1.443733	-0.125267	-0.000009
C66	C	1.693733	0.124733	0.249991
C67	C	1.943733	0.374733	0.499991
C68	C	2.193733	0.624733	0.749991
C69	C	1.548042	-0.127293	-0.000007
C70	C	1.798042	0.122707	0.249993
C71	C	2.048042	0.372707	0.499993
C72	C	2.298042	0.622707	0.749993
C73	C	1.631181	-0.128902	-0.000005
C74	C	1.881181	0.121098	0.249995
C75	C	2.131181	0.371098	0.499995
C76	C	2.381181	0.621098	0.749995
C77	C	1.735496	-0.130928	-0.000005
C78	C	1.985496	0.119072	0.249995
C79	C	2.235496	0.369072	0.499995
C80	C	2.485496	0.619072	0.749995
C81	C	1.083157	-0.296688	-0.000012
C82	C	1.333157	-0.046688	0.249988
C83	C	1.583157	0.203312	0.499988
C84	C	1.833157	0.453312	0.749988
C85	C	1.085146	-0.399070	-0.000019
C86	C	1.335146	-0.149070	0.249981
C87	C	1.585146	0.100930	0.499981
C88	C	1.835146	0.350930	0.749981
N89	N	1.089597	-0.128078	0.254855
N90	N	1.339597	0.121922	0.504855
N91	N	1.589597	0.371922	0.754855
N92	N	1.839597	0.621922	1.004855
C93	C	1.086759	0.517785	-0.000017
C94	C	1.336759	0.767785	0.249983
C95	C	1.586759	1.017785	0.499983
C96	C	1.836759	1.267785	0.749983
C97	C	1.088792	0.413477	-0.000009
C98	C	1.338792	0.663477	0.249991
C99	C	1.588792	0.913477	0.499991
C100	C	1.838792	1.163477	0.749991
C101	C	1.090419	0.330340	-0.000003
C102	C	1.340419	0.580340	0.249997
C103	C	1.590419	0.830340	0.499997
C104	C	1.840419	1.080340	0.749997
C105	C	1.092452	0.226025	0.000002
C106	C	1.342452	0.476025	0.250002
C107	C	1.592452	0.726025	0.500002
C108	C	1.842452	0.976025	0.750002
N109	N	1.089635	-0.128096	-0.254857
N110	N	1.339635	0.121904	-0.004857
N111	N	1.589635	0.371904	0.245143
N112	N	1.839635	0.621904	0.495143
C113	C	1.089620	-0.128096	0.656146
C114	C	1.339620	0.121904	0.906146
C115	C	1.589620	0.371904	1.156146
C116	C	1.839620	0.621904	1.406146
C117	C	1.089611	-0.128095	0.544494
C118	C	1.339611	0.121905	0.794494
C119	C	1.589611	0.371905	1.044494
C120	C	1.839611	0.621905	1.294494
C121	C	1.089609	-0.128088	0.455504
C122	C	1.339609	0.121912	0.705504
C123	C	1.589609	0.371912	0.955504
C124	C	1.839609	0.621912	1.205504
C125	C	1.089599	-0.128085	0.343845
C126	C	1.339599	0.121915	0.593845
C127	C	1.589599	0.371915	0.843845
C128	C	1.839599	0.621915	1.093845
