data_functionalizedCrystal
_audit_creation_method	'MofGen! by Chris Wilmer'
_symmetry_space_group_name_H-M	'P1'
_symmetry_Int_Tables_number	1
_symmetry_cell_setting	triclinic
loop_
_symmetry_equiv_pos_as_xyz
  x,y,z
_cell_length_a	17.019311
_cell_length_b	17.038272
_cell_length_c	12.996460
_cell_angle_alpha	89.993697
_cell_angle_beta	86.114693
_cell_angle_gamma	87.245400
loop_
_atom_site_label
_atom_site_type_symbol
_atom_site_fract_x
_atom_site_fract_y
_atom_site_fract_z
O1	O	1.053367	0.099635	-0.178902
O2	O	1.386700	0.432968	0.154431
O3	O	1.720034	0.766301	0.487764
O4	O	0.824554	0.112328	-0.158630
O5	O	1.157887	0.445662	0.174703
O6	O	1.491221	0.778995	0.508036
O7	O	0.937601	-0.007833	-0.168638
O8	O	1.270934	0.325501	0.164696
O9	O	1.604267	0.658834	0.498029
O10	O	0.940320	0.219796	-0.168895
O11	O	1.273654	0.553129	0.164438
O12	O	1.606987	0.886462	0.497772
O13	O	0.937588	-0.007839	0.002497
O14	O	1.270921	0.325494	0.335831
O15	O	1.604254	0.658827	0.669164
O16	O	0.824541	0.112322	0.012505
O17	O	1.157874	0.445655	0.345838
O18	O	1.491207	0.778988	0.679171
O19	O	1.053354	0.099628	-0.007767
O20	O	1.386687	0.432961	0.325566
O21	O	1.720021	0.766295	0.658899
Cu22	Cu	0.938946	0.105974	0.017995
Cu23	Cu	1.272280	0.439308	0.351328
Cu24	Cu	1.605613	0.772641	0.684661
Cu25	Cu	0.938962	0.105982	-0.184392
Cu26	Cu	1.272295	0.439315	0.148941
Cu27	Cu	1.605628	0.772649	0.482274
O28	O	0.940307	0.219789	0.002240
O29	O	1.273641	0.553122	0.335573
O30	O	1.606974	0.886456	0.668907
C31	C	0.795126	0.111843	-0.070456
C32	C	1.128459	0.445176	0.262877
C33	C	1.461792	0.778509	0.596210
C34	C	0.707458	0.110396	-0.062689
C35	C	1.040792	0.443729	0.270644
C36	C	1.374125	0.777062	0.603978
C37	C	0.211627	0.102237	-0.014081
C38	C	0.544960	0.435571	0.319252
C39	C	0.878294	0.768904	0.652585
C40	C	0.294000	0.103597	-0.021382
C41	C	0.627333	0.436930	0.311952
C42	C	0.960667	0.770263	0.645285
C43	C	0.335194	0.104274	-0.118319
C44	C	0.668527	0.437608	0.215014
C45	C	1.001861	0.770941	0.548348
C46	C	0.294010	0.103600	-0.207962
C47	C	0.627344	0.436933	0.125371
C48	C	0.960677	0.770267	0.458705
C49	C	0.211639	0.102246	-0.200661
C50	C	0.544972	0.435579	0.132672
C51	C	0.878305	0.768913	0.466006
C52	C	0.583903	0.108367	-0.145031
C53	C	0.917237	0.441701	0.188303
C54	C	1.250570	0.775034	0.521636
C55	C	0.666281	0.109719	-0.152325
C56	C	0.999614	0.443052	0.181008
C57	C	1.332948	0.776386	0.514341
C58	C	0.666265	0.109717	0.034256
C59	C	0.999598	0.443051	0.367589
C60	C	1.332931	0.776384	0.700923
C61	C	0.583892	0.108358	0.041549
C62	C	0.917225	0.441692	0.374882
C63	C	1.250558	0.775025	0.708215
C64	C	0.542715	0.107689	-0.048094
C65	C	0.876048	0.441022	0.285239
C66	C	1.209382	0.774355	0.618572
C67	C	0.419392	0.105661	-0.125783
C68	C	0.752726	0.438995	0.207550
C69	C	1.086059	0.772328	0.540883
C70	C	0.458518	0.106307	-0.040629
C71	C	0.791851	0.439640	0.292704
C72	C	1.125184	0.772974	0.626038
C73	C	0.935120	-0.036962	-0.082851
C74	C	1.268454	0.296371	0.250482
C75	C	1.601787	0.629704	0.583815
C76	C	0.927740	-0.123749	-0.082198
C77	C	1.261073	0.209584	0.251136
C78	C	1.594407	0.542918	0.584469
C79	C	0.995500	-0.173919	-0.088200
C80	C	1.328834	0.159414	0.245133
C81	C	1.662167	0.492747	0.578467
C82	C	0.988561	-0.255464	-0.087595
C83	C	1.321894	0.077869	0.245739
C84	C	1.655228	0.411202	0.579072
C85	C	0.913861	-0.286837	-0.080980
C86	C	1.247194	0.046496	0.252353
C87	C	1.580527	0.379830	0.585687
C88	C	0.846095	-0.236660	-0.074981
C89	C	1.179429	0.096673	0.258353
C90	C	1.512762	0.430006	0.591686
C91	C	0.853035	-0.155117	-0.075593
C92	C	1.186369	0.178216	0.257740
C93	C	1.519702	0.511549	0.591074
C94	C	0.889343	-0.532575	-0.078822
C95	C	1.222676	-0.199241	0.254511
C96	C	1.556009	0.134092	0.587845
C97	C	0.882408	-0.614124	-0.078207
C98	C	1.215741	-0.280791	0.255126
C99	C	1.549074	0.052542	0.588460
C100	C	1.024874	-0.632923	-0.090823
C101	C	1.358207	-0.299589	0.242510
C102	C	1.691541	0.033744	0.575843
C103	C	1.031808	-0.551377	-0.091429
C104	C	1.365141	-0.218044	0.241904
C105	C	1.698474	0.115290	0.575238
C106	C	0.964042	-0.501207	-0.085435
C107	C	1.297376	-0.167874	0.247899
C108	C	1.630709	0.165459	0.581232
C109	C	0.906766	-0.370189	-0.080358
C110	C	1.240099	-0.036855	0.252975
C111	C	1.573432	0.296478	0.586308
C112	C	0.971138	-0.417857	-0.086064
C113	C	1.304471	-0.084524	0.247269
C114	C	1.637804	0.248809	0.580603
C115	C	1.082782	0.100114	-0.095944
C116	C	1.416115	0.433447	0.237390
C117	C	1.749449	0.766780	0.570723
C118	C	1.170449	0.101561	-0.103718
C119	C	1.503783	0.434894	0.229616
C120	C	1.837116	0.768227	0.562949
C121	C	0.942788	0.248919	-0.083549
C122	C	1.276121	0.582252	0.249785
C123	C	1.609454	0.915585	0.583118
C124	C	0.950168	0.335705	-0.084209
C125	C	1.283501	0.669039	0.249124
C126	C	1.616835	1.002372	0.582458
N127	N	0.938941	0.105968	0.160342
N128	N	1.272274	0.439302	0.493675
N129	N	1.605608	0.772635	0.827009
N130	N	0.938973	0.105982	-0.326740
N131	N	1.272306	0.439315	0.006593
N132	N	1.605639	0.772649	0.339926
C133	C	0.938961	0.105983	0.580155
C134	C	1.272294	0.439316	0.913488
C135	C	1.605627	0.772650	1.246821
C136	C	0.938953	0.105981	0.463350
C137	C	1.272286	0.439315	0.796684
C138	C	1.605620	0.772648	1.130017
C139	C	0.938951	0.105976	0.370252
C140	C	1.272285	0.439309	0.703585
C141	C	1.605618	0.772643	1.036919
C142	C	0.938943	0.105974	0.253440
C143	C	1.272276	0.439307	0.586774
C144	C	1.605610	0.772640	0.920107
H145	H	0.699799	0.110264	0.107238
H146	H	1.033133	0.443598	0.440571
H147	H	1.366466	0.776931	0.773905
H148	H	0.550387	0.107819	-0.218025
H149	H	0.883721	0.441152	0.115309
H150	H	1.217054	0.774486	0.448642
Br151	Br	1.133190	-0.508805	-0.100439
Br152	Br	1.466524	-0.175472	0.232894
Br153	Br	1.799857	0.157861	0.566227
H154	H	0.785273	-0.262211	-0.069601
H155	H	1.118606	0.071123	0.263732
H156	H	1.451939	0.404456	0.597065
Br157	Br	0.349881	0.104522	0.100274
Br158	Br	0.683214	0.437856	0.433607
Br159	Br	1.016547	0.771189	0.766940
H160	H	0.699818	0.110277	-0.231267
H161	H	1.033152	0.443611	0.102066
H162	H	1.366485	0.776944	0.435399
Br163	Br	0.527990	0.107456	0.173112
Br164	Br	0.861323	0.440789	0.506445
Br165	Br	1.194656	0.774123	0.839778
Br166	Br	1.116836	-0.701013	-0.098958
Br167	Br	1.450169	-0.367680	0.234376
Br168	Br	1.783503	-0.034346	0.567709
Br169	Br	1.096884	-0.131350	-0.097162
Br170	Br	1.430217	0.201983	0.236171
Br171	Br	1.763551	0.535316	0.569504
H172	H	0.845944	-0.395742	-0.074970
H173	H	1.179278	-0.062408	0.258363
H174	H	1.512611	0.270925	0.591696
Br175	Br	0.781022	-0.656701	-0.069219
Br176	Br	1.114355	-0.323368	0.264115
Br177	Br	1.447689	0.009966	0.597448
H178	H	0.452942	0.106211	-0.204710
H179	H	0.786275	0.439544	0.128623
H180	H	1.119609	0.772877	0.461956
Br181	Br	0.349915	0.104523	-0.339522
Br182	Br	0.683249	0.437856	-0.006189
Br183	Br	1.016582	0.771189	0.327145
H184	H	0.178113	0.101697	-0.273653
H185	H	0.511446	0.435031	0.059681
H186	H	0.844779	0.768364	0.393014
Br187	Br	0.797374	-0.464498	-0.070694
Br188	Br	1.130708	-0.131164	0.262640
Br189	Br	1.464041	0.202169	0.595973
H190	H	1.043739	-0.296310	-0.092480
H191	H	1.377072	0.037023	0.240853
H192	H	1.710405	0.370357	0.574186
H193	H	1.031958	-0.392310	-0.091472
H194	H	1.365292	-0.058977	0.241861
H195	H	1.698625	0.274357	0.575194
Br196	Br	0.155729	0.101307	0.117483
Br197	Br	0.489063	0.434641	0.450816
Br198	Br	0.822396	0.767974	0.784150
Br199	Br	0.761071	-0.087027	-0.067455
Br200	Br	1.094405	0.246306	0.265878
Br201	Br	1.427738	0.579639	0.599212
H202	H	0.424974	0.105760	0.038297
H203	H	0.758307	0.439093	0.371630
H204	H	1.091640	0.772426	0.704964
