data_functionalizedCrystal
_audit_creation_method	'MofGen! by Chris Wilmer'
_symmetry_space_group_name_H-M	'P1'
_symmetry_Int_Tables_number	1
_symmetry_cell_setting	triclinic
loop_
_symmetry_equiv_pos_as_xyz
  x,y,z
_cell_length_a	12.759401
_cell_length_b	13.897447
_cell_length_c	13.897441
_cell_angle_alpha	90.028354
_cell_angle_beta	90.017946
_cell_angle_gamma	90.021055
loop_
_atom_site_label
_atom_site_type_symbol
_atom_site_fract_x
_atom_site_fract_y
_atom_site_fract_z
Zn1	Zn	1.606200	-0.383954	0.545373
Zn2	Zn	1.606086	-0.545273	0.384078
Zn3	Zn	1.430508	-0.383998	0.384093
Zn4	Zn	1.430476	-0.545213	0.545332
O5	O	1.518317	-0.464610	0.464719
O6	O	1.753206	-0.405360	0.523987
O7	O	1.582760	-0.523923	0.249098
O8	O	1.453875	-0.249011	0.405511
O9	O	1.753122	-0.523881	0.405485
O10	O	1.582956	-0.248978	0.524002
O11	O	1.453764	-0.405435	0.249109
O12	O	1.283483	-0.405377	0.405471
O13	O	1.453821	-0.523778	0.680319
O14	O	1.283459	-0.523821	0.523933
O15	O	1.582924	-0.405302	0.680349
O16	O	1.582729	-0.680247	0.405445
O17	O	1.453710	-0.680203	0.523918
C18	C	1.245350	-0.464598	0.464700
C19	C	1.128573	-0.464616	0.464715
C20	C	1.073727	-0.526384	0.526301
C21	C	0.964003	-0.526387	0.526320
C22	C	0.963982	-0.402853	0.403159
C23	C	1.073704	-0.402845	0.403145
C24	C	1.518232	-0.715224	0.464697
C25	C	1.518292	-0.822438	0.464719
C26	C	1.518342	-0.909508	0.464741
C27	C	1.518416	-1.018740	0.464766
C28	C	1.792351	-0.464622	0.464739
C29	C	1.909127	-0.464628	0.464747
C30	C	1.518382	-0.464529	0.716312
C31	C	1.518409	-0.464494	0.823526
C32	C	1.518432	-0.213017	0.464763
C33	C	1.518480	-0.105803	0.464781
C34	C	1.518314	-0.464621	0.214105
C35	C	1.518490	-0.464383	0.106891
C36	C	1.518431	-0.464467	0.910596
C37	C	1.518461	-0.464423	1.019829
H38	H	1.118361	-0.352541	0.352994
N39	N	0.907962	-0.589489	0.589209
N40	N	0.809997	-0.589492	0.589213
H41	H	0.770417	-0.634062	0.633630
N42	N	1.129759	-0.589486	0.589194
N43	N	1.080770	-0.644631	0.644177
H44	H	1.120340	-0.689198	0.688599
N45	N	0.907947	-0.339752	0.340266
N46	N	0.920234	-0.250753	0.346818
H47	H	0.880662	-0.206185	0.302398
