data_functionalizedCrystal
_audit_creation_method	'MofGen! by Chris Wilmer'
_symmetry_space_group_name_H-M	'P1'
_symmetry_Int_Tables_number	1
_symmetry_cell_setting	triclinic
loop_
_symmetry_equiv_pos_as_xyz
  x,y,z
_cell_length_a	18.426585
_cell_length_b	14.560438
_cell_length_c	14.560438
_cell_angle_alpha	90.000748
_cell_angle_beta	60.002471
_cell_angle_gamma	59.999028
loop_
_atom_site_label
_atom_site_type_symbol
_atom_site_fract_x
_atom_site_fract_y
_atom_site_fract_z
Zr1	Zr	0.794336	0.884764	-0.120467
O2	O	0.945736	0.738116	-0.267109
O3	O	0.642937	0.929720	-0.075518
O4	O	0.794334	0.929721	-0.267112
O5	O	0.794341	0.738113	0.075623
O6	O	0.794332	1.080862	-0.267108
O7	O	0.794339	0.738115	-0.075515
O8	O	0.523511	1.080860	0.075618
O9	O	1.065162	0.738115	-0.267103
O10	O	0.705208	1.061687	-0.056339
O11	O	0.705211	0.948891	0.056451
O12	O	0.883462	0.948892	-0.169126
O13	O	0.883465	0.836097	-0.056336
Zr14	Zr	0.794336	1.125814	0.120587
Zr15	Zr	0.794333	1.125816	-0.120461
Zr16	Zr	0.794340	0.884762	0.120581
Zr17	Zr	0.984808	0.884763	-0.120458
Zr18	Zr	0.603865	1.125815	0.120578
O19	O	0.945736	1.080857	0.075638
O20	O	0.945731	1.080861	-0.267101
O21	O	0.945740	0.738112	0.075630
O22	O	0.642937	1.272462	0.267229
O23	O	0.642932	1.272465	-0.075510
O24	O	0.642942	0.929717	0.267221
O25	O	0.794332	1.272464	-0.075503
O26	O	0.794339	1.080857	0.267232
O27	O	0.794341	0.929716	0.267229
O28	O	0.794334	1.272463	0.075635
O29	O	1.065160	0.929719	-0.267099
O30	O	0.523513	1.080858	0.267219
O31	O	0.523511	1.272463	0.267223
O32	O	0.523508	1.272464	0.075622
O33	O	1.065165	0.738113	-0.075502
O34	O	1.065162	0.929717	-0.075498
O35	O	0.705211	1.061685	0.169246
O36	O	0.705208	1.174481	0.056456
O37	O	0.883462	1.061686	-0.056331
O38	O	0.883465	0.948890	0.056459
C39	C	0.556086	1.005290	0.000049
C40	C	0.475226	1.005291	0.000045
C41	C	0.794340	1.005286	0.301574
C42	C	0.794342	1.005285	0.403906
C43	C	0.794332	1.306808	0.000067
C44	C	0.794331	1.409141	0.000069
C45	C	0.179116	1.005285	0.000078
C46	C	0.261503	1.005283	0.000071
C47	C	0.327169	1.005287	0.000061
C48	C	0.409560	1.005287	0.000055
C49	C	1.032587	1.005287	0.000071
C50	C	1.113447	1.005287	0.000075
C51	C	0.794340	0.703769	0.000053
C52	C	0.794342	0.601436	0.000051
C53	C	0.701286	1.516095	0.058943
C54	C	0.701291	1.612244	0.058931
C55	C	0.887394	1.494471	-0.058830
C56	C	0.887388	1.398325	-0.058824
C57	C	0.608230	1.526912	0.117836
C58	C	0.515177	1.633871	0.176716
C59	C	0.515182	1.730019	0.176704
C60	C	0.608239	1.719209	0.117812
C61	C	0.794332	1.005292	-0.301454
C62	C	0.794331	1.005293	-0.403785
C63	C	0.887386	0.946413	0.393111
C64	C	0.887382	0.946413	0.489266
C65	C	0.701279	1.064167	0.607007
C66	C	0.701285	1.064159	0.510854
C67	C	0.980443	0.887538	0.286163
C68	C	1.073495	0.828662	0.275363
C69	C	1.073491	0.828663	0.371518
C70	C	0.980433	0.887539	0.478473
C71	C	0.556082	1.306810	0.000056
C72	C	0.475220	1.409143	0.000054
C73	C	0.556090	1.005287	0.301563
C74	C	0.475231	1.005287	0.403891
C75	C	0.556086	1.306807	0.301570
C76	C	0.475226	1.409139	0.403900
C77	C	1.032587	0.703771	-0.301450
C78	C	1.113447	0.601438	-0.403779
C79	C	1.032591	0.703768	0.000065
C80	C	1.113453	0.601434	0.000066
C81	C	1.032583	1.005290	-0.301443
C82	C	1.113442	1.005290	-0.403770
C83	C	0.437247	1.398323	-0.058835
C84	C	0.361279	1.494467	-0.058859
C85	C	0.323281	1.601430	0.000013
C86	C	0.361262	1.612248	0.058904
C87	C	0.437234	1.516105	0.058921
C88	C	0.437259	1.064164	0.510833
C89	C	0.361294	1.064159	0.606989
C90	C	0.323298	1.005283	0.596201
C91	C	0.361277	0.946399	0.489248
C92	C	0.437246	0.946398	0.393094
C93	C	0.437251	1.516084	0.393079
C94	C	0.361285	1.612246	0.489220
C95	C	0.323290	1.601460	0.596179
C96	C	0.361271	1.494504	0.606997
C97	C	0.437241	1.398345	0.510858
C98	C	1.151431	0.494493	-0.392959
C99	C	1.227421	0.398332	-0.489100
C100	C	1.265420	0.409117	-0.596059
C101	C	1.227433	0.516074	-0.606877
C102	C	1.151450	0.612233	-0.510738
C103	C	1.151434	0.612254	0.058945
C104	C	1.227423	0.516110	0.058942
C105	C	1.265423	0.409147	0.000067
C106	C	1.227439	0.398329	-0.058819
C107	C	1.151457	0.494472	-0.058823
C108	C	1.151414	1.064178	-0.392946
C109	C	1.227379	1.064200	-0.489085
C110	C	1.265376	1.005328	-0.596046
C111	C	1.227396	0.946439	-0.606868
C112	C	1.151427	0.946424	-0.510730
H113	H	0.608215	1.448629	0.117855
F114	F	0.980456	0.887537	0.183822
H115	H	0.625520	1.112095	0.519647
H116	H	1.120519	0.898466	-0.519559
H117	H	1.149259	0.780719	0.188276
F118	F	1.267884	0.527535	-0.720721
H119	H	0.468187	1.112108	0.519638
H120	H	1.258336	0.311253	-0.480269
H121	H	0.439414	1.642664	0.224654
F122	F	1.110989	1.126842	-0.279119
H123	H	0.439415	1.817105	0.224639
F124	F	0.320809	1.726095	0.121559
F125	F	1.267852	0.883779	-0.720713
H126	H	0.963156	1.485680	-0.106776
F127	F	1.267832	0.527647	0.121623
F128	F	0.320868	1.482930	-0.121537
F129	F	1.346288	0.306766	-0.698371
H130	H	0.468184	1.311237	-0.106789
H131	H	0.468153	0.898457	0.306020
H132	H	0.608236	1.797505	0.117800
H133	H	0.330368	1.699325	0.480392
F134	F	0.986416	1.284491	-0.121492
F135	F	0.320885	1.126838	0.720806
F136	F	0.320827	0.883744	0.477784
F137	F	0.242424	1.703745	-0.000013
F138	F	0.477680	1.527589	0.279254
H139	H	0.261430	1.679768	0.674453
H140	H	1.149258	0.780714	0.362719
F141	F	1.267791	1.126875	-0.477544
H142	H	0.261439	1.005294	0.674506
F143	F	0.320823	1.483042	0.720841
H144	H	0.468142	1.524931	0.106882
H145	H	0.468150	1.311269	0.519684
F146	F	1.111001	0.482989	-0.279134
H147	H	0.980437	0.887522	0.556764
H148	H	1.120525	0.699309	-0.519561
H149	H	1.120500	0.699341	0.106896
F150	F	1.111036	0.482939	-0.121486
F151	F	1.346290	0.306832	0.000082
H152	H	1.258390	0.311227	-0.106754
H153	H	1.327235	1.005349	-0.674318
H154	H	0.625517	1.112101	0.694095
