data_functionalizedCrystal
_audit_creation_method	'MofGen! by Chris Wilmer'
_symmetry_space_group_name_H-M	'P1'
_symmetry_Int_Tables_number	1
_symmetry_cell_setting	triclinic
loop_
_symmetry_equiv_pos_as_xyz
  x,y,z
_cell_length_a	25.639242
_cell_length_b	25.639239
_cell_length_c	19.120904
_cell_angle_alpha	87.589896
_cell_angle_beta	87.577846
_cell_angle_gamma	90.030990
loop_
_atom_site_label
_atom_site_type_symbol
_atom_site_fract_x
_atom_site_fract_y
_atom_site_fract_z
Zn1	Zn	0.786628	-0.220879	0.397121
Zn2	Zn	1.119961	0.112454	0.730455
Zn3	Zn	1.453295	0.445787	1.063788
Zn4	Zn	0.790277	-0.304584	0.279670
Zn5	Zn	1.123610	0.028749	0.613003
Zn6	Zn	1.456944	0.362082	0.946337
Zn7	Zn	0.702929	-0.217153	0.279686
Zn8	Zn	1.036263	0.116180	0.613019
Zn9	Zn	1.369596	0.449513	0.946352
Zn10	Zn	0.699151	-0.308272	0.397076
Zn11	Zn	1.032484	0.025061	0.730409
Zn12	Zn	1.365817	0.358394	1.063743
O13	O	0.744746	-0.262722	0.338388
O14	O	1.078080	0.070611	0.671722
O15	O	1.411413	0.403944	1.005055
O16	O	0.860277	-0.231999	0.381554
O17	O	1.193610	0.101334	0.714887
O18	O	1.526943	0.434668	1.048220
O19	O	0.781799	-0.289883	0.181390
O20	O	1.115132	0.043450	0.514723
O21	O	1.448465	0.376783	0.848056
O22	O	0.714086	-0.144483	0.295289
O23	O	1.047420	0.188850	0.628623
O24	O	1.380753	0.522183	0.961956
O25	O	0.862958	-0.293496	0.295263
O26	O	1.196291	0.039837	0.628596
O27	O	1.529624	0.373170	0.961929
O28	O	0.775579	-0.147221	0.381569
O29	O	1.108913	0.186113	0.714902
O30	O	1.442246	0.519446	1.048236
O31	O	0.717625	-0.225648	0.181401
O32	O	1.050958	0.107685	0.514735
O33	O	1.384291	0.441018	0.848068
O34	O	0.629263	-0.229225	0.295245
O35	O	0.962597	0.104109	0.628579
O36	O	1.295930	0.437442	0.961912
O37	O	0.707646	-0.299782	0.495364
O38	O	1.040979	0.033551	0.828698
O39	O	1.374313	0.366884	1.162031
O40	O	0.626487	-0.296169	0.381491
O41	O	0.959820	0.037164	0.714825
O42	O	1.293154	0.370497	1.048158
O43	O	0.771915	-0.235575	0.495398
O44	O	1.105249	0.097758	0.828731
O45	O	1.438582	0.431091	1.162064
O46	O	0.778135	-0.378238	0.295219
O47	O	1.111468	-0.044904	0.628552
O48	O	1.444801	0.288429	0.961885
O49	O	0.711185	-0.380948	0.381476
O50	O	1.044518	-0.047614	0.714810
O51	O	1.377851	0.285719	1.048143
C52	C	0.608904	-0.262693	0.338366
C53	C	0.942238	0.070640	0.671699
C54	C	1.275571	0.403973	1.005032
C55	C	0.550790	-0.262694	0.338372
C56	C	0.884123	0.070639	0.671706
C57	C	1.217457	0.403973	1.005039
C58	C	0.298206	-0.230763	0.383402
C59	C	0.631539	0.102571	0.716735
C60	C	0.964872	0.435904	1.050069
C61	C	0.352810	-0.230757	0.383398
C62	C	0.686143	0.102576	0.716731
C63	C	1.019477	0.435909	1.050065
O64	O	0.379864	-0.203585	0.421679
O65	O	0.713197	0.129748	0.755012
O66	O	1.046531	0.463082	1.088345
N67	N	0.381516	-0.262717	0.338396
N68	N	0.714849	0.070617	0.671730
N69	N	1.048182	0.403950	1.005063
C70	C	0.355614	-0.294687	0.293401
C71	C	0.688947	0.038646	0.626734
C72	C	1.022280	0.371980	0.960067
O73	O	0.385044	-0.321871	0.255123
O74	O	0.718377	0.011463	0.588457
O75	O	1.051710	0.344796	0.921790
C76	C	0.301010	-0.294695	0.293409
C77	C	0.634343	0.038639	0.626742
C78	C	0.967677	0.371972	0.960075
C79	C	0.272307	-0.262729	0.338408
C80	C	0.605641	0.070604	0.671742
C81	C	0.938974	0.403937	1.005075
C82	C	0.269503	-0.198800	0.428399
C83	C	0.602836	0.134533	0.761732
C84	C	0.936170	0.467866	1.095065
C85	C	0.214902	-0.198805	0.428401
C86	C	0.548236	0.134528	0.761735
C87	C	0.881569	0.467862	1.095068
C88	C	0.189004	-0.230772	0.383408
C89	C	0.522338	0.102561	0.716741
C90	C	0.855671	0.435895	1.050074
C91	C	0.217707	-0.262734	0.338411
C92	C	0.551040	0.070599	0.671745
C93	C	0.884374	0.403932	1.005078
C94	C	0.275109	-0.326668	0.248417
C95	C	0.608442	0.006666	0.581750
C96	C	0.941776	0.339999	0.915084
C97	C	0.220502	-0.326673	0.248429
C98	C	0.553835	0.006660	0.581763
C99	C	0.887168	0.339994	0.915096
C100	C	0.191799	-0.294708	0.293429
C101	C	0.525132	0.038626	0.626762
C102	C	0.858466	0.371959	0.960096
C103	C	0.137208	-0.294706	0.293421
C104	C	0.470541	0.038628	0.626754
C105	C	0.803875	0.371961	0.960087
N106	N	0.108503	-0.262747	0.338422
N107	N	0.441836	0.070587	0.671756
N108	N	0.775169	0.403920	1.005089
C109	C	0.134401	-0.230780	0.383416
C110	C	0.467734	0.102554	0.716749
C111	C	0.801067	0.435887	1.050083
C112	C	0.470285	-0.294669	0.293388
C113	C	0.803618	0.038664	0.626721
C114	C	1.136951	0.371997	0.960055
C115	C	0.524887	-0.294659	0.293376
C116	C	0.858221	0.038674	0.626709
C117	C	1.191554	0.372007	0.960043
C118	C	0.522080	-0.230730	0.383374
C119	C	0.855413	0.102603	0.716708
C120	C	1.188747	0.435937	1.050041
C121	C	0.467476	-0.230738	0.383382
C122	C	0.800810	0.102596	0.716716
C123	C	1.134143	0.435929	1.050049
C124	C	0.441579	-0.262710	0.338390
C125	C	0.774913	0.070623	0.671723
C126	C	1.108246	0.403957	1.005056
C127	C	0.019736	-0.230792	0.383418
C128	C	0.353069	0.102542	0.716751
C129	C	0.686402	0.435875	1.050085
C130	C	-0.034870	-0.230797	0.383415
C131	C	0.298464	0.102536	0.716748
C132	C	0.631797	0.435869	1.050082
C133	C	-0.032058	-0.294728	0.293419
C134	C	0.301276	0.038605	0.626753
C135	C	0.634609	0.371938	0.960086
C136	C	0.022543	-0.294721	0.293420
C137	C	0.355876	0.038613	0.626753
C138	C	0.689210	0.371946	0.960086
C139	C	0.048438	-0.262751	0.338425
C140	C	0.381771	0.070583	0.671758
C141	C	0.715105	0.403916	1.005091
O142	O	0.110119	-0.321866	0.255161
O143	O	0.443452	0.011468	0.588495
O144	O	0.776785	0.344801	0.921828
O145	O	0.104964	-0.203606	0.421693
O146	O	0.438297	0.129728	0.755027
O147	O	0.771631	0.463061	1.088360
C148	C	0.744659	-0.398564	0.338356
C149	C	1.077993	-0.065231	0.671689
C150	C	1.411326	0.268103	1.005023
C151	C	0.744669	-0.456678	0.338366
C152	C	1.078003	-0.123345	0.671699
C153	C	1.411336	0.209988	1.005032
C154	C	0.779692	-0.815621	0.293550
C155	C	1.113025	-0.482288	0.626884
C156	C	1.446359	-0.148954	0.960217
C157	C	0.779712	-0.870225	0.293560
C158	C	1.113045	-0.536892	0.626893
C159	C	1.446379	-0.203559	0.960226
O160	O	0.809399	-0.897253	0.255421
O161	O	1.142733	-0.563920	0.588754
O162	O	1.476066	-0.230587	0.922087
N163	N	0.744837	-0.898963	0.338435
N164	N	1.078170	-0.565630	0.671768
N165	N	1.411503	-0.232296	1.005101
C166	C	0.709943	-0.873093	0.383308
C167	C	1.043276	-0.539760	0.716642
C168	C	1.376609	-0.206426	1.049975
O169	O	0.680281	-0.902550	0.421479
O170	O	1.013614	-0.569217	0.754813
O171	O	1.346947	-0.235884	1.088146
C172	C	0.709926	-0.818490	0.383302
C173	C	1.043259	-0.485156	0.716635
C174	C	1.376592	-0.151823	1.049969
C175	C	0.744800	-0.789755	0.338419
C176	C	1.078133	-0.456421	0.671752
C177	C	1.411466	-0.123088	1.005086
C178	C	0.814563	-0.786886	0.248672
C179	C	1.147897	-0.453553	0.582005
C180	C	1.481230	-0.120219	0.915338
C181	C	0.814543	-0.732285	0.248661
C182	C	1.147876	-0.398952	0.581995
C183	C	1.481209	-0.065619	0.915328
C184	C	0.779650	-0.706419	0.293530
C185	C	1.112984	-0.373086	0.626863
C186	C	1.446317	-0.039752	0.960197
C187	C	0.744779	-0.735154	0.338409
C188	C	1.078112	-0.401821	0.671742
C189	C	1.411446	-0.068487	1.005076
C190	C	0.675035	-0.792621	0.428179
C191	C	1.008368	-0.459287	0.761512
C192	C	1.341701	-0.125954	1.094845
C193	C	0.675021	-0.738013	0.428169
C194	C	1.008354	-0.404680	0.761502
C195	C	1.341688	-0.071347	1.094835
C196	C	0.709895	-0.709279	0.383286
C197	C	1.043228	-0.375945	0.716619
C198	C	1.376562	-0.042612	1.049952
C199	C	0.709866	-0.654687	0.383267
C200	C	1.043199	-0.321354	0.716601
C201	C	1.376532	0.011980	1.049934
N202	N	0.744741	-0.625950	0.338392
N203	N	1.078074	-0.292616	0.671726
N204	N	1.411408	0.040717	1.005059
C205	C	0.779633	-0.651816	0.293524
C206	C	1.112967	-0.318482	0.626857
C207	C	1.446300	0.014851	0.960190
C208	C	0.709982	-0.987764	0.383319
C209	C	1.043315	-0.654431	0.716653
C210	C	1.376648	-0.321097	1.049986
C211	C	0.709996	-1.042366	0.383323
C212	C	1.043329	-0.709033	0.716656
C213	C	1.376663	-0.375700	1.049989
C214	C	0.779766	-1.039495	0.293575
C215	C	1.113099	-0.706162	0.626908
C216	C	1.446433	-0.372828	0.960241
C217	C	0.779749	-0.984892	0.293568
C218	C	1.113082	-0.651558	0.626902
C219	C	1.446416	-0.318225	0.960235
C220	C	0.744857	-0.959027	0.338444
C221	C	1.078190	-0.625693	0.671778
C222	C	1.411524	-0.292360	1.005111
C223	C	0.779587	-0.537150	0.293505
C224	C	1.112920	-0.203817	0.626839
C225	C	1.446254	0.129517	0.960172
C226	C	0.779562	-0.482544	0.293497
C227	C	1.112895	-0.149211	0.626830
C228	C	1.446228	0.184122	0.960164
C229	C	0.709794	-0.485421	0.383247
C230	C	1.043127	-0.152087	0.716581
C231	C	1.376460	0.181246	1.049914
C232	C	0.709817	-0.540021	0.383253
C233	C	1.043150	-0.206688	0.716587
C234	C	1.376484	0.126645	1.049920
C235	C	0.744718	-0.565885	0.338380
C236	C	1.078051	-0.232551	0.671713
C237	C	1.411384	0.100782	1.005047
O238	O	0.680195	-0.627624	0.421389
O239	O	1.013528	-0.294290	0.754722
O240	O	1.346862	0.039043	1.088056
O241	O	0.809295	-0.622352	0.255366
O242	O	1.142628	-0.289019	0.588699
O243	O	1.475962	0.044315	0.922032
C244	C	0.881118	-0.262752	0.338411
C245	C	1.214452	0.070582	0.671745
C246	C	1.547785	0.403915	1.005078
C247	C	0.939232	-0.262764	0.338421
C248	C	1.272566	0.070569	0.671755
C249	C	1.605899	0.403902	1.005088
C250	C	0.738952	-0.268506	0.521577
C251	C	1.072285	0.064827	0.854910
C252	C	1.405619	0.398161	1.188244
C253	C	0.736483	-0.270971	0.599641
C254	C	1.069816	0.062363	0.932974
C255	C	1.403150	0.395696	1.266308
C256	C	0.744847	-0.126351	0.338436
C257	C	1.078181	0.206983	0.671769
C258	C	1.411514	0.540316	1.005103
C259	C	0.744890	-0.068237	0.338456
C260	C	1.078224	0.265096	0.671790
C261	C	1.411557	0.598429	1.005123
C262	C	0.750548	-0.256924	0.155912
C263	C	1.083881	0.076410	0.489246
C264	C	1.417215	0.409743	0.822579
C265	C	0.753118	-0.254312	0.077849
C266	C	1.086452	0.079022	0.411182
C267	C	1.419785	0.412355	0.744515
C268	C	0.768783	-0.238701	0.636334
C269	C	1.102116	0.094633	0.969668
C270	C	1.435449	0.427966	1.303001
C271	C	0.766456	-0.241014	0.709684
C272	C	1.099790	0.092319	1.043017
C273	C	1.433123	0.425652	1.376350
C274	C	0.731833	-0.275601	0.746339
C275	C	1.065166	0.057732	1.079672
C276	C	1.398499	0.391066	1.413005
C277	C	0.699529	-0.307872	0.709640
C278	C	1.032863	0.025461	1.042974
C279	C	1.366196	0.358794	1.376307
C280	C	0.701853	-0.305555	0.636292
C281	C	1.035187	0.027778	0.969626
C282	C	1.368520	0.361111	1.302959
C283	C	0.723139	-0.284266	0.967802
C284	C	1.056472	0.049067	1.301135
C285	C	1.389806	0.382401	1.634469
C286	C	0.720819	-0.286582	1.041155
C287	C	1.054152	0.046752	1.374489
C288	C	1.387485	0.380085	1.707822
C289	C	0.787745	-0.219723	1.041194
C290	C	1.121079	0.113611	1.374527
C291	C	1.454412	0.446944	1.707860
C292	C	0.790068	-0.217411	0.967844
C293	C	1.123402	0.115922	1.301177
C294	C	1.456735	0.449255	1.634511
C295	C	0.757763	-0.249680	0.931152
C296	C	1.091097	0.083653	1.264485
C297	C	1.424430	0.416986	1.597819
C298	C	0.729455	-0.277968	0.821314
C299	C	1.062788	0.055365	1.154647
C300	C	1.396122	0.388699	1.487980
C301	C	0.760139	-0.247310	0.856178
C302	C	1.093472	0.086023	1.189512
C303	C	1.426805	0.419356	1.522845
H304	H	0.543176	-0.204701	0.420011
H305	H	0.876509	0.128632	0.753344
H306	H	1.209843	0.461966	1.086678
H307	H	0.814046	-0.193450	1.071076
H308	H	1.147379	0.139883	1.404409
H309	H	1.480712	0.473216	1.737743
H310	H	0.199419	-0.352711	0.211792
H311	H	0.532752	-0.019377	0.545125
H312	H	0.866086	0.313956	0.878459
H313	H	0.671336	-0.336032	0.739491
H314	H	1.004669	-0.002698	1.072824
H315	H	1.338003	0.330635	1.406157
H316	H	0.681564	-0.966708	0.419860
H317	H	1.014898	-0.633374	0.753194
H318	H	1.348231	-0.300041	1.086527
H319	H	0.675546	-0.331828	0.606418
H320	H	1.008880	0.001505	0.939751
H321	H	1.342213	0.334839	1.273084
Cl322	Cl	0.823462	-0.569655	0.237091
Cl323	Cl	1.156795	-0.236322	0.570424
Cl324	Cl	1.490129	0.097011	0.903758
H325	H	0.646608	-0.716957	0.464714
H326	H	0.979942	-0.383624	0.798048
H327	H	1.313275	-0.050290	1.131381
Cl328	Cl	0.677285	-0.330062	1.087235
Cl329	Cl	1.010619	0.003271	1.420568
Cl330	Cl	1.343952	0.336604	1.753902
H331	H	0.681421	-0.563419	0.419803
H332	H	1.014755	-0.230085	0.753136
H333	H	1.348088	0.103248	1.086469
Cl334	Cl	-0.064626	-0.334913	0.236858
Cl335	Cl	0.268708	-0.001579	0.570191
Cl336	Cl	0.602041	0.331754	0.903525
H337	H	0.681593	-1.065758	0.419864
H338	H	1.014927	-0.732424	0.753198
H339	H	1.348260	-0.399091	1.086531
H340	H	0.808179	-1.060565	0.257043
H341	H	1.141512	-0.727232	0.590376
H342	H	1.474846	-0.393899	0.923709
Cl343	Cl	0.052281	-0.190599	0.439995
Cl344	Cl	0.385614	0.142734	0.773329
Cl345	Cl	0.718948	0.476068	1.106662
H346	H	0.646634	-0.816007	0.464724
H347	H	0.979967	-0.482674	0.798057
H348	H	1.313301	-0.149341	1.131391
H349	H	0.808146	-0.961499	0.257021
H350	H	1.141480	-0.628165	0.590355
H351	H	1.474813	-0.294832	0.923688
H352	H	0.696841	-0.310550	0.937936
H353	H	1.030175	0.022784	1.271270
H354	H	1.363508	0.356117	1.604603
H355	H	0.788327	-0.219148	0.826331
H356	H	1.121660	0.114185	1.159664
H357	H	1.454994	0.447519	1.492997
Cl358	Cl	0.807087	-0.200468	0.755809
Cl359	Cl	1.140420	0.132866	1.089143
Cl360	Cl	1.473754	0.466199	1.422476
H361	H	0.807960	-0.459150	0.256946
H362	H	1.141293	-0.125817	0.590279
H363	H	1.474627	0.207517	0.923612
H364	H	0.842942	-0.708893	0.212116
H365	H	1.176275	-0.375559	0.545449
H366	H	1.509608	-0.042226	0.878783
H367	H	0.701267	-0.306131	0.851166
H368	H	1.034600	0.027202	1.184500
H369	H	1.367933	0.360536	1.517833
H370	H	-0.058237	-0.204765	0.420059
H371	H	0.275096	0.128568	0.753392
H372	H	0.608430	0.461902	1.086726
H373	H	0.681383	-0.464352	0.419777
H374	H	1.014716	-0.131018	0.753110
H375	H	1.348050	0.202315	1.086444
Cl376	Cl	0.812315	-0.195220	0.590261
Cl377	Cl	1.145648	0.138113	0.923594
Cl378	Cl	1.478982	0.471446	1.256928
H379	H	0.548253	-0.320683	0.256725
H380	H	0.881586	0.012651	0.590058
H381	H	1.214919	0.345984	0.923392
Cl382	Cl	0.302051	-0.158608	0.484971
Cl383	Cl	0.635384	0.174725	0.818304
Cl384	Cl	0.968717	0.508058	1.151637
Cl385	Cl	0.431399	-0.190553	0.439957
Cl386	Cl	0.764732	0.142781	0.773290
Cl387	Cl	1.098066	0.476114	1.106623
Cl388	Cl	0.437734	-0.334861	0.236812
Cl389	Cl	0.771067	-0.001528	0.570145
Cl390	Cl	1.104401	0.331806	0.903479
Cl391	Cl	0.178827	-0.158623	0.484983
Cl392	Cl	0.512160	0.174710	0.818316
Cl393	Cl	0.845494	0.508043	1.151649
Cl394	Cl	0.058627	-0.334910	0.236853
Cl395	Cl	0.391960	-0.001576	0.570186
Cl396	Cl	0.725294	0.331757	0.903520
Cl397	Cl	0.858434	-0.819393	0.192257
Cl398	Cl	1.191768	-0.486060	0.525591
Cl399	Cl	1.525101	-0.152727	0.858924
Cl400	Cl	0.311179	-0.366847	0.191832
Cl401	Cl	0.644513	-0.033514	0.525165
Cl402	Cl	0.977846	0.299820	0.858498
Cl403	Cl	0.833598	-0.173929	0.921769
Cl404	Cl	1.166931	0.159404	1.255102
Cl405	Cl	1.500264	0.492737	1.588435
