data_functionalizedCrystal
_audit_creation_method	'MofGen! by Chris Wilmer'
_symmetry_space_group_name_H-M	'P1'
_symmetry_Int_Tables_number	1
_symmetry_cell_setting	triclinic
loop_
_symmetry_equiv_pos_as_xyz
  x,y,z
_cell_length_a	18.215407
_cell_length_b	12.827892
_cell_length_c	18.215399
_cell_angle_alpha	90.023838
_cell_angle_beta	90.017368
_cell_angle_gamma	90.012645
loop_
_atom_site_label
_atom_site_type_symbol
_atom_site_fract_x
_atom_site_fract_y
_atom_site_fract_z
Zn1	Zn	1.125121	-0.416115	0.416088
Zn2	Zn	1.125051	-0.590874	0.293031
Zn3	Zn	1.002054	-0.416140	0.293041
Zn4	Zn	1.002041	-0.590807	0.416061
O5	O	1.063567	-0.503484	0.354555
O6	O	1.228096	-0.439315	0.399772
O7	O	1.108711	-0.567734	0.190048
O8	O	1.018414	-0.269901	0.309379
O9	O	1.228044	-0.567710	0.309362
O10	O	1.108831	-0.269882	0.399782
O11	O	1.018346	-0.439358	0.190056
O12	O	0.899068	-0.439292	0.309353
O13	O	1.018392	-0.567595	0.519049
O14	O	0.899058	-0.567619	0.399735
O15	O	1.108819	-0.439250	0.519069
O16	O	1.108698	-0.737101	0.309336
O17	O	1.018323	-0.737052	0.399725
C18	C	0.872360	-0.503452	0.354543
C19	C	0.790562	-0.503463	0.354555
C20	C	0.602394	-0.436746	0.401705
C21	C	0.525535	-0.436755	0.401708
C22	C	0.525492	-0.570252	0.307419
C23	C	0.602349	-0.570237	0.307413
C24	C	0.640798	-0.503485	0.354560
C25	C	0.487082	-0.503509	0.354569
C26	C	0.403748	-0.503519	0.354571
C27	C	0.724137	-0.503473	0.354557
C28	C	1.063521	-0.774994	0.354542
C29	C	1.063569	-0.891147	0.354562
C30	C	1.108339	-1.062884	0.399354
C31	C	1.108291	-0.942833	0.399336
C32	C	1.255520	-0.503517	0.354569
C33	C	1.337318	-0.503531	0.354575
C34	C	1.063612	-0.503412	0.546508
C35	C	1.063631	-0.503381	0.628307
C36	C	1.063632	-0.230914	0.354585
C37	C	1.063660	-0.114761	0.354597
C38	C	1.063564	-0.503480	0.163349
C39	C	1.063688	-0.503217	0.081551
C40	C	1.110733	-0.436489	0.816513
C41	C	1.110742	-0.436459	0.893372
C42	C	1.016580	-0.570112	0.893340
C43	C	1.016569	-0.570136	0.816482
C44	C	1.063649	-0.503327	0.778071
C45	C	1.063670	-0.503272	0.931787
C46	C	1.063679	-0.503239	1.015121
C47	C	1.063639	-0.503357	0.694732
H48	H	0.633619	-0.624585	0.269018
H49	H	1.149067	-0.382086	0.785241
O50	O	1.153902	-0.889459	0.444983
C51	C	1.143690	-0.781478	0.434812
H52	H	1.119605	-0.766753	0.377985
H53	H	1.104442	-0.750509	0.478405
C54	C	1.247670	-0.743334	0.511374
C55	C	1.218094	-0.725249	0.441575
H56	H	1.293565	-0.708648	0.515549
H57	H	1.254549	-0.816083	0.518229
H58	H	1.214956	-0.717526	0.547694
H59	H	1.250804	-0.751068	0.405258
H60	H	1.211223	-0.652503	0.434714
H61	H	1.149081	-0.382032	0.924668
H62	H	0.978251	-0.624508	0.924624
H63	H	1.146629	-1.107347	0.437684
H64	H	0.978222	-0.624562	0.785182
H65	H	0.633697	-0.382389	0.440093
H66	H	0.494270	-0.382407	0.440097
H67	H	0.494177	-0.624599	0.269034
H68	H	1.025313	-0.935753	0.316245
H69	H	1.025376	-1.070299	0.316262
