data_functionalizedCrystal
_audit_creation_method	'MofGen! by Chris Wilmer'
_symmetry_space_group_name_H-M	'P1'
_symmetry_Int_Tables_number	1
_symmetry_cell_setting	triclinic
loop_
_symmetry_equiv_pos_as_xyz
  x,y,z
_cell_length_a	18.050591
_cell_length_b	21.295417
_cell_length_c	18.050582
_cell_angle_alpha	90.025708
_cell_angle_beta	90.020922
_cell_angle_gamma	90.025707
loop_
_atom_site_label
_atom_site_type_symbol
_atom_site_fract_x
_atom_site_fract_y
_atom_site_fract_z
Zn1	Zn	1.135285	-0.250716	0.420015
Zn2	Zn	1.468618	0.082617	0.753349
Zn3	Zn	1.801952	0.415950	1.086682
Zn4	Zn	1.135192	-0.355977	0.295818
Zn5	Zn	1.468526	-0.022644	0.629152
Zn6	Zn	1.801859	0.310689	0.962485
Zn7	Zn	1.011104	-0.250719	0.295826
Zn8	Zn	1.344437	0.082615	0.629160
Zn9	Zn	1.677771	0.415948	0.962493
Zn10	Zn	1.011049	-0.355944	0.419954
Zn11	Zn	1.344382	-0.022611	0.753287
Zn12	Zn	1.677716	0.310722	1.086621
O13	O	1.073158	-0.303339	0.357903
O14	O	1.406491	0.029994	0.691237
O15	O	1.739824	0.363328	1.024570
O16	O	1.239197	-0.264692	0.403563
O17	O	1.572530	0.068641	0.736896
O18	O	1.905864	0.401974	1.070229
O19	O	1.118716	-0.342030	0.191895
O20	O	1.452049	-0.008696	0.525228
O21	O	1.785383	0.324637	0.858561
O22	O	1.027639	-0.162629	0.312329
O23	O	1.360972	0.170704	0.645663
O24	O	1.694305	0.504038	0.978996
O25	O	1.239129	-0.342027	0.312316
O26	O	1.572463	-0.008694	0.645649
O27	O	1.905796	0.324639	0.978982
O28	O	1.118874	-0.162627	0.403570
O29	O	1.452207	0.170706	0.736904
O30	O	1.785541	0.504039	1.070237
O31	O	1.027549	-0.264697	0.191901
O32	O	1.360882	0.068637	0.525234
O33	O	1.694216	0.401970	0.858567
O34	O	0.907172	-0.264664	0.312270
O35	O	1.240506	0.068669	0.645603
O36	O	1.573839	0.402002	0.978936
O37	O	1.027545	-0.341970	0.523887
O38	O	1.360878	-0.008637	0.857220
O39	O	1.694211	0.324696	1.190553
O40	O	0.907132	-0.341973	0.403466
O41	O	1.240465	-0.008640	0.736799
O42	O	1.573798	0.324694	1.070132
O43	O	1.118820	-0.264660	0.523932
O44	O	1.452154	0.068673	0.857265
O45	O	1.785487	0.402007	1.190598
O46	O	1.118663	-0.444062	0.312256
O47	O	1.451996	-0.110729	0.645590
O48	O	1.785329	0.222604	0.978923
O49	O	1.027455	-0.444038	0.403458
O50	O	1.360788	-0.110705	0.736791
O51	O	1.694122	0.222629	1.070125
C52	C	0.880205	-0.303316	0.357862
C53	C	1.213539	0.030018	0.691196
C54	C	1.546872	0.363351	1.024529
C55	C	0.797660	-0.303321	0.357862
C56	C	1.130993	0.030012	0.691196
C57	C	1.464326	0.363346	1.024529
C58	C	0.598210	-0.261232	0.308384
C59	C	0.931543	0.072102	0.641718
C60	C	1.264876	0.405435	0.975051
C61	C	0.548788	-0.318646	0.290105
C62	C	0.882121	0.014687	0.623438
C63	C	1.215455	0.348020	0.956771
C64	C	0.646529	-0.303340	0.357896
C65	C	0.979863	0.029993	0.691229
C66	C	1.313196	0.363327	1.024563
C67	C	0.548869	-0.245945	0.376174
C68	C	0.882202	0.087388	0.709507
C69	C	1.215536	0.420722	1.042841
C70	C	0.500544	-0.303353	0.357927
C71	C	0.833877	0.029980	0.691260
C72	C	1.167211	0.363313	1.024594
C73	C	0.598195	-0.360785	0.339581
C74	C	0.931528	-0.027452	0.672914
C75	C	1.264862	0.305882	1.006248
C76	C	0.598280	-0.288045	0.425682
C77	C	0.931614	0.045289	0.759015
C78	C	1.264947	0.378622	1.092348
C79	C	0.548881	-0.345499	0.407428
C80	C	0.882215	-0.012166	0.740761
C81	C	1.215548	0.321167	1.074094
C82	C	0.730628	-0.303331	0.357876
C83	C	1.063961	0.030002	0.691210
C84	C	1.397294	0.363335	1.024543
C85	C	0.416448	-0.303368	0.357947
C86	C	0.749781	0.029965	0.691280
C87	C	1.083114	0.363298	1.024614
C88	C	1.073063	-0.466891	0.357866
C89	C	1.406396	-0.133557	0.691199
C90	C	1.739730	0.199776	1.024533
C91	C	1.073090	-0.536859	0.357875
C92	C	1.406424	-0.203526	0.691208
C93	C	1.739757	0.129808	1.024541
C94	C	1.120569	-0.569667	0.405418
C95	C	1.453903	-0.236334	0.738751
C96	C	1.787236	0.096999	1.072084
C97	C	1.120595	-0.635410	0.405436
C98	C	1.453929	-0.302077	0.738769
C99	C	1.787262	0.031257	1.072103
C100	C	1.073151	-0.668341	0.357898
C101	C	1.406484	-0.335008	0.691231
C102	C	1.739817	-0.001675	1.024565
C103	C	1.025662	-0.635525	0.310352
C104	C	1.358996	-0.302192	0.643685
C105	C	1.692329	0.031142	0.977018
C106	C	1.025632	-0.569784	0.310340
C107	C	1.358966	-0.236450	0.643673
C108	C	1.692299	0.096883	0.977006
N109	N	1.067546	-0.771598	0.292903
N110	N	1.400880	-0.438265	0.626236
N111	N	1.734213	-0.104932	0.959570
N112	N	1.067579	-0.834050	0.292916
N113	N	1.400913	-0.500716	0.626250
N114	N	1.734246	-0.167383	0.959583
C115	C	1.073237	-0.866416	0.357932
C116	C	1.406571	-0.533083	0.691265
C117	C	1.739904	-0.199749	1.024598
N118	N	1.078876	-0.833972	0.422935
N119	N	1.412209	-0.500638	0.756268
N120	N	1.745542	-0.167305	1.089601
N121	N	1.078846	-0.771515	0.422920
N122	N	1.412180	-0.438181	0.756254
N123	N	1.745513	-0.104848	1.089587
C124	C	1.073178	-0.739627	0.357906
C125	C	1.406511	-0.406293	0.691239
C126	C	1.739844	-0.072960	1.024572
C127	C	1.120747	-0.970510	0.405499
C128	C	1.454080	-0.637177	0.738832
C129	C	1.787414	-0.303843	1.072165
C130	C	1.120768	-1.036254	0.405518
C131	C	1.454101	-0.702920	0.738851
C132	C	1.787435	-0.369587	1.072185
C133	C	1.025839	-1.036368	0.310427
C134	C	1.359172	-0.703034	0.643760
C135	C	1.692506	-0.369701	0.977094
C136	C	1.025814	-0.970625	0.310414
C137	C	1.359147	-0.637292	0.643747
C138	C	1.692481	-0.303958	0.977081
C139	C	1.073272	-0.937700	0.357949
C140	C	1.406605	-0.604367	0.691282
C141	C	1.739939	-0.271034	1.024615
C142	C	1.266863	-0.303363	0.357945
C143	C	1.600196	0.029970	0.691278
C144	C	1.933530	0.363304	1.024612
C145	C	1.349409	-0.303373	0.357963
C146	C	1.682742	0.029960	0.691296
C147	C	2.016076	0.363293	1.024630
C148	C	1.073187	-0.303311	0.551609
C149	C	1.406520	0.030022	0.884942
C150	C	1.739853	0.363355	1.218276
C151	C	1.073199	-0.303299	0.634155
C152	C	1.406532	0.030034	0.967488
C153	C	1.739866	0.363367	1.300822
C154	C	1.073273	-0.139149	0.357957
C155	C	1.406606	0.194184	0.691291
C156	C	1.739939	0.527518	1.024624
C157	C	1.073322	-0.069181	0.357980
C158	C	1.406655	0.264153	0.691314
C159	C	1.739989	0.597486	1.024647
C160	C	1.073171	-0.303322	0.164951
C161	C	1.406505	0.030012	0.498285
C162	C	1.739838	0.363345	0.831618
C163	C	1.073303	-0.303156	0.082406
C164	C	1.406636	0.030177	0.415739
C165	C	1.739969	0.363511	0.749073
C166	C	1.023601	-0.345283	0.833581
C167	C	1.356935	-0.011950	1.166915
C168	C	1.690268	0.321383	1.500248
C169	C	1.091356	-0.360675	0.882979
C170	C	1.424689	-0.027341	1.216312
C171	C	1.758023	0.305992	1.549645
C172	C	1.073236	-0.303251	0.785285
C173	C	1.406569	0.030082	1.118619
C174	C	1.739902	0.363415	1.451952
C175	C	1.005518	-0.287842	0.882970
C176	C	1.338851	0.045491	1.216303
C177	C	1.672185	0.378824	1.549636
C178	C	1.073265	-0.303206	0.931271
C179	C	1.406598	0.030127	1.264604
C180	C	1.739932	0.363461	1.597937
C181	C	1.141026	-0.318673	0.833596
C182	C	1.474359	0.014661	1.166929
C183	C	1.807693	0.347994	1.500262
C184	C	1.055142	-0.245814	0.833582
C185	C	1.388476	0.087520	1.166916
C186	C	1.721809	0.420853	1.500249
C187	C	1.122944	-0.261183	0.882958
C188	C	1.456277	0.072150	1.216291
C189	C	1.789611	0.405483	1.549624
C190	C	1.073218	-0.303279	0.701187
C191	C	1.406551	0.030054	1.034520
C192	C	1.739884	0.363388	1.367854
C193	C	1.073291	-0.303178	1.015367
C194	C	1.406624	0.030155	1.348701
C195	C	1.739957	0.363488	1.682034
H196	H	0.619772	-0.409343	0.324071
H197	H	0.953105	-0.076010	0.657404
H198	H	1.286439	0.257324	0.990737
H199	H	0.527359	-0.381156	0.449311
H200	H	0.860692	-0.047822	0.782645
H201	H	1.194025	0.285511	1.115978
H202	H	0.527163	-0.197408	0.391595
H203	H	0.860496	0.135926	0.724928
H204	H	1.193829	0.469259	1.058261
N205	N	0.977327	-0.937104	0.261842
N206	N	1.310660	-0.603770	0.595175
N207	N	1.643993	-0.270437	0.928508
N208	N	1.003466	-0.900421	0.214539
N209	N	1.336799	-0.567088	0.547873
N210	N	1.670132	-0.233754	0.881206
H211	H	0.969217	-0.876744	0.180237
H212	H	1.302550	-0.543411	0.513570
H213	H	1.635883	-0.210078	0.846904
H214	H	0.620036	-0.275080	0.482976
H215	H	0.953370	0.058253	0.816310
H216	H	1.286703	0.391586	1.149643
N217	N	1.035893	-0.184927	0.806323
N218	N	1.369227	0.148406	1.139656
N219	N	1.702560	0.481739	1.472989
N220	N	1.033345	-0.175105	0.738102
N221	N	1.366678	0.158228	1.071436
N222	N	1.700011	0.491561	1.404769
H223	H	1.019742	-0.132104	0.718847
H224	H	1.353076	0.201229	1.052181
H225	H	1.686409	0.534563	1.385514
N226	N	1.169111	-0.668923	0.453997
N227	N	1.502444	-0.335590	0.787330
N228	N	1.835777	-0.002257	1.120664
N229	N	1.237637	-0.661533	0.449129
N230	N	1.570971	-0.328200	0.782463
N231	N	1.904304	0.005133	1.115796
H232	H	1.271903	-0.685200	0.483424
H233	H	1.605237	-0.351867	0.816757
H234	H	1.938570	-0.018533	1.150091
N235	N	1.169199	-0.936879	0.454079
N236	N	1.502532	-0.603545	0.787412
N237	N	1.835866	-0.270212	1.120745
N238	N	1.143011	-0.900194	0.501370
N239	N	1.476345	-0.566861	0.834703
N240	N	1.809678	-0.233528	1.168036
H241	H	1.177228	-0.876445	0.535685
H242	H	1.510561	-0.543112	0.869018
H243	H	1.843894	-0.209778	1.202352
H244	H	1.159210	-0.542862	0.444125
H245	H	1.492544	-0.209529	0.777458
H246	H	1.825877	0.123805	1.110792
H247	H	0.987031	-0.662342	0.271647
H248	H	1.320364	-0.329009	0.604981
H249	H	1.653697	0.004325	0.938314
H250	H	0.948238	-0.274828	0.904659
H251	H	1.281571	0.058505	1.237992
H252	H	1.614905	0.391838	1.571325
N253	N	0.625376	-0.216601	0.255809
N254	N	0.958709	0.116733	0.589142
N255	N	1.292042	0.450066	0.922476
N256	N	0.580918	-0.185088	0.217926
N257	N	0.914251	0.148246	0.551259
N258	N	1.247584	0.481579	0.884593
H259	H	0.600103	-0.153569	0.180794
H260	H	0.933437	0.179765	0.514127
H261	H	1.266770	0.513098	0.847460
N262	N	0.977124	-0.536277	0.261771
N263	N	1.310458	-0.202944	0.595104
N264	N	1.643791	0.130390	0.928438
N265	N	0.934760	-0.565684	0.219333
N266	N	1.268093	-0.232350	0.552667
N267	N	1.601427	0.100983	0.886000
H268	H	0.900500	-0.542019	0.185030
H269	H	1.233834	-0.208686	0.518363
H270	H	1.567167	0.124648	0.851696
N271	N	1.169267	-1.069759	0.454097
N272	N	1.502600	-0.736426	0.787430
N273	N	1.835934	-0.403093	1.120764
N274	N	1.211631	-1.040351	0.496534
N275	N	1.544965	-0.707018	0.829867
N276	N	1.878298	-0.373685	1.163200
H277	H	1.245884	-1.064015	0.530845
H278	H	1.579218	-0.730681	0.864178
H279	H	1.912551	-0.397348	1.197511
N280	N	0.977372	-1.070008	0.261878
N281	N	1.310706	-0.736674	0.595212
N282	N	1.644039	-0.403341	0.928545
N283	N	0.977401	-1.128705	0.261898
N284	N	1.310734	-0.795371	0.595231
N285	N	1.644068	-0.462038	0.928564
H286	H	0.943168	-1.152467	0.227611
H287	H	1.276501	-0.819133	0.560945
H288	H	1.609835	-0.485800	0.894278
N289	N	0.521526	-0.334886	0.218204
N290	N	0.854860	-0.001553	0.551538
N291	N	1.188193	0.331780	0.884871
N292	N	0.537325	-0.301426	0.163565
N293	N	0.870659	0.031907	0.496898
N294	N	1.203992	0.365240	0.830231
H295	H	0.518076	-0.312893	0.112783
H296	H	0.851409	0.020441	0.446116
H297	H	1.184742	0.353774	0.779450
H298	H	0.981667	-0.380875	0.811902
H299	H	1.315000	-0.047542	1.145235
H300	H	1.648333	0.285792	1.478569
N301	N	1.110572	-0.421588	0.910193
N302	N	1.443905	-0.088254	1.243526
N303	N	1.777238	0.245079	1.576860
N304	N	1.071137	-0.467960	0.894367
N305	N	1.404470	-0.134627	1.227701
N306	N	1.737804	0.198707	1.561034
H307	H	1.084703	-0.510981	0.913585
H308	H	1.418037	-0.177648	1.246918
H309	H	1.751370	0.155685	1.580251
H310	H	1.198323	-0.331742	0.811998
H311	H	1.531656	0.001591	1.145332
H312	H	1.864989	0.334925	1.478665
N313	N	1.175680	-0.216570	0.909978
N314	N	1.509013	0.116764	1.243311
N315	N	1.842347	0.450097	1.576645
N316	N	1.242707	-0.222346	0.894004
N317	N	1.576040	0.110987	1.227337
N318	N	1.909374	0.444321	1.560670
H319	H	1.279955	-0.190840	0.913087
H320	H	1.613288	0.142493	1.246421
H321	H	1.946621	0.475827	1.579754
