data_functionalizedCrystal
_audit_creation_method	'MofGen! by Chris Wilmer'
_symmetry_space_group_name_H-M	'P1'
_symmetry_Int_Tables_number	1
_symmetry_cell_setting	triclinic
loop_
_symmetry_equiv_pos_as_xyz
  x,y,z
_cell_length_a	14.971486
_cell_length_b	23.532357
_cell_length_c	13.448316
_cell_angle_alpha	89.987857
_cell_angle_beta	89.998199
_cell_angle_gamma	83.221211
loop_
_atom_site_label
_atom_site_type_symbol
_atom_site_fract_x
_atom_site_fract_y
_atom_site_fract_z
O1	O	1.186142	0.074218	-0.082590
O2	O	0.925646	0.083106	-0.082619
O3	O	1.063773	-0.004238	-0.082583
O4	O	1.048016	0.161562	-0.082626
O5	O	1.063755	-0.004243	0.082801
O6	O	0.925629	0.083101	0.082765
O7	O	1.186125	0.074213	0.082794
Cu8	Cu	1.055875	0.078656	0.097880
Cu9	Cu	1.055896	0.078663	-0.097705
O10	O	1.047998	0.161557	0.082758
C11	C	0.892317	0.082706	0.000070
C12	C	0.793033	0.081515	0.000060
C13	C	0.735251	0.132827	0.000048
C14	C	0.641964	0.131704	0.000063
C15	C	0.606460	0.079269	0.000083
C16	C	0.664249	0.027953	0.000098
C17	C	0.757535	0.029076	0.000090
C18	C	0.469812	0.025615	0.000112
C19	C	0.376520	0.024492	0.000118
C20	C	0.354241	0.128244	0.000086
C21	C	0.447526	0.129367	0.000078
C22	C	0.505309	0.078050	0.000090
C23	C	1.063370	-0.025459	0.000112
C24	C	1.062185	-0.088682	0.000121
C25	C	1.054755	-0.480723	-0.090084
C26	C	1.053629	-0.540127	-0.090090
O27	O	1.053024	-0.570843	-0.166760
N28	N	1.053061	-0.569844	0.000060
C29	C	1.053610	-0.540152	0.090221
O30	O	1.053023	-0.570883	0.166899
C31	C	1.054730	-0.480748	0.090225
C32	C	1.055307	-0.451036	0.000070
C33	C	1.055331	-0.451010	-0.180232
C34	C	1.056459	-0.391610	-0.180226
C35	C	1.057011	-0.361923	-0.090072
C36	C	1.056435	-0.391635	0.000076
C37	C	1.055273	-0.451057	0.180385
C38	C	1.056393	-0.391649	0.180382
C39	C	1.056970	-0.361937	0.090227
C40	C	1.058115	-0.302548	0.090237
N41	N	1.058683	-0.272832	0.000087
C42	C	1.058131	-0.302519	-0.090067
C43	C	1.051256	-0.664904	0.090204
C44	C	1.050143	-0.724307	0.090200
C45	C	1.050160	-0.724278	-0.090111
C46	C	1.051280	-0.664874	-0.090106
C47	C	1.051824	-0.635187	0.000054
C48	C	1.060501	-0.177775	-0.090047
C49	C	1.061633	-0.118370	-0.090033
C50	C	1.061611	-0.118404	0.090277
C51	C	1.060484	-0.177804	0.090264
C52	C	1.059926	-0.207488	0.000093
O53	O	1.058717	-0.271794	0.166867
O54	O	1.058707	-0.271780	-0.166733
C55	C	1.219454	0.074613	0.000103
C56	C	1.318738	0.075804	0.000106
C57	C	1.048401	0.182778	0.000061
C58	C	1.049586	0.246001	0.000045
N59	N	1.055868	0.078651	0.235445
N60	N	1.055911	0.078663	-0.235269
C61	C	1.117049	0.039991	0.287501
C62	C	1.117054	0.039991	0.391604
C63	C	1.055882	0.078654	0.443649
C64	C	0.994695	0.117315	0.391586
C65	C	0.994685	0.117313	0.287484
C66	C	0.994719	0.117319	0.608566
C67	C	0.994729	0.117323	0.712674
C68	C	1.117088	0.039998	0.712685
C69	C	1.117079	0.039995	0.608584
C70	C	1.055892	0.078657	0.556528
H71	H	1.060042	-0.201936	-0.163472
O72	O	1.176583	0.002422	0.442017
C73	C	1.297931	-0.074283	0.431042
C74	C	1.230572	-0.031758	0.373827
H75	H	1.341587	-0.101936	0.375935
H76	H	1.342443	-0.049667	0.479730
H77	H	1.259581	-0.102754	0.479830
H78	H	1.268849	-0.003276	0.324985
H79	H	1.186061	-0.056410	0.325202
O80	O	1.176491	0.002361	0.763135
C81	C	1.229804	-0.096611	0.795058
C82	C	1.162493	-0.054056	0.737842
H83	H	1.218498	-0.142233	0.774646
H84	H	1.301386	-0.089155	0.774553
H85	H	1.219319	-0.089943	0.878397
H86	H	1.172896	-0.060698	0.654490
H87	H	1.090935	-0.061522	0.758430
O88	O	0.341928	-0.026409	0.000281
C89	C	0.249584	-0.087898	0.086034
C90	C	0.288680	-0.030227	0.085959
H91	H	0.206540	-0.091009	0.155308
H92	H	0.206407	-0.091031	0.016873
H93	H	0.306923	-0.124370	0.086003
H94	H	0.231398	0.006279	0.086025
H95	H	0.331881	-0.027144	0.155114
O96	O	0.298204	0.178130	0.000211
C97	C	0.250580	0.266447	0.085891
C98	C	0.314112	0.209982	0.085868
H99	H	0.263406	0.292209	0.155148
H100	H	0.263429	0.292288	0.016713
H101	H	0.177816	0.256623	0.085857
H102	H	0.386898	0.219754	0.085937
H103	H	0.301184	0.184157	0.155040
H104	H	0.944916	0.148805	0.755044
H105	H	1.054878	-0.475175	-0.253650
H106	H	1.049707	-0.748459	-0.163519
O107	O	0.813631	-0.020784	-0.000080
C108	C	0.861184	-0.109128	-0.085708
C109	C	0.797619	-0.052677	-0.085656
H110	H	0.848248	-0.134935	-0.154877
H111	H	0.933973	-0.099352	-0.085779
H112	H	0.848345	-0.134908	-0.016455
H113	H	0.810377	-0.026869	-0.154896
H114	H	0.724851	-0.062493	-0.085533
O115	O	0.935251	0.154932	0.558151
C116	C	0.813862	0.231611	0.569120
C117	C	0.881167	0.189054	0.626338
H118	H	0.770106	0.259202	0.624225
H119	H	0.852167	0.260140	0.520393
H120	H	0.769443	0.206965	0.520372
H121	H	0.925603	0.213653	0.675141
H122	H	0.842807	0.160525	0.675003
O123	O	0.935222	0.154923	0.237068
C124	C	0.813825	0.231597	0.248037
C125	C	0.881137	0.189044	0.305255
H126	H	0.770067	0.259186	0.303141
H127	H	0.852124	0.260127	0.199306
H128	H	0.769408	0.206948	0.199292
H129	H	0.925570	0.213647	0.354054
H130	H	0.842782	0.160514	0.353923
O131	O	0.525816	-0.024286	0.000075
C132	C	0.538075	-0.127311	0.000146
C133	C	0.474549	-0.070844	0.000175
H134	H	0.496651	-0.164968	0.000248
H135	H	0.582283	-0.129413	-0.069089
H136	H	0.582331	-0.129353	0.069337
H137	H	0.430237	-0.068764	-0.068969
H138	H	0.430402	-0.068766	0.069455
O139	O	1.062017	-0.089531	-0.177653
C140	C	0.984872	-0.064999	-0.331793
C141	C	0.984325	-0.097664	-0.232587
H142	H	0.922074	-0.071573	-0.376245
H143	H	0.985710	-0.017427	-0.316403
H144	H	1.047281	-0.081850	-0.376208
H145	H	0.921925	-0.080861	-0.188123
H146	H	0.983533	-0.145232	-0.248048
O147	O	1.056968	-0.362835	-0.267892
C148	C	1.056907	-0.369101	-0.446734
C149	C	1.056315	-0.401753	-0.347518
H150	H	1.056399	-0.400554	-0.511138
H151	H	0.994812	-0.336133	-0.451318
H152	H	1.120022	-0.346444	-0.451192
H153	H	0.993242	-0.424444	-0.342994
H154	H	1.118452	-0.434689	-0.342977
H155	H	0.764150	0.175526	0.000031
H156	H	1.166866	0.008510	0.245132
H157	H	0.944883	0.148793	0.433967
H158	H	0.594921	0.173488	0.000053
O159	O	1.051792	-0.636097	-0.177771
C160	C	1.051748	-0.642359	-0.356613
C161	C	1.051148	-0.675013	-0.257401
H162	H	1.051247	-0.673810	-0.421020
H163	H	0.989652	-0.609392	-0.361201
H164	H	1.114861	-0.619701	-0.361062
H165	H	0.988077	-0.697706	-0.252885
H166	H	1.113287	-0.707948	-0.252855
H167	H	1.056823	-0.367480	0.253804
H168	H	0.476430	0.172064	0.000052
H169	H	0.635335	-0.014741	0.000128
O170	O	1.049555	-0.753076	0.177866
C171	C	1.049711	-0.746823	0.356708
C172	C	1.050364	-0.714174	0.257496
H173	H	1.050384	-0.715386	0.421115
H174	H	0.986564	-0.769443	0.361281
H175	H	1.111772	-0.779824	0.361172
H176	H	0.988345	-0.681146	0.252966
H177	H	1.113552	-0.691593	0.252965
H178	H	1.062065	-0.094222	0.163678
H179	H	1.060023	-0.201998	0.163675
O180	O	1.051640	-0.636030	0.177766
C181	C	0.975430	-0.562556	0.282399
C182	C	0.974876	-0.595217	0.183214
H183	H	0.913383	-0.529544	0.286828
H184	H	0.974776	-0.593973	0.346864
H185	H	1.038588	-0.539947	0.286905
H186	H	0.911729	-0.617828	0.178611
H187	H	0.975578	-0.563774	0.118796
H188	H	1.054805	-0.475239	0.253800
H189	H	1.166894	0.008516	0.566209
