data_functionalizedCrystal
_audit_creation_method	'MofGen! by Chris Wilmer'
_symmetry_space_group_name_H-M	'P1'
_symmetry_Int_Tables_number	1
_symmetry_cell_setting	triclinic
loop_
_symmetry_equiv_pos_as_xyz
  x,y,z
_cell_length_a	19.077105
_cell_length_b	12.827892
_cell_length_c	12.827893
_cell_angle_alpha	90.007453
_cell_angle_beta	92.302424
_cell_angle_gamma	87.711903
loop_
_atom_site_label
_atom_site_type_symbol
_atom_site_fract_x
_atom_site_fract_y
_atom_site_fract_z
Zn1	Zn	1.075931	-0.480516	0.655011
Zn2	Zn	1.575931	0.019484	1.155011
Zn3	Zn	1.075891	-0.655222	0.480269
Zn4	Zn	1.575891	-0.155222	0.980269
Zn5	Zn	0.958262	-0.473466	0.473267
Zn6	Zn	1.458262	0.026534	0.973267
Zn7	Zn	0.958221	-0.648180	0.647951
Zn8	Zn	1.458221	-0.148180	1.147951
O9	O	1.017076	-0.564346	0.564125
O10	O	1.517076	-0.064346	1.064125
O11	O	1.174417	-0.509588	0.637715
O12	O	1.674417	-0.009588	1.137715
O13	O	1.060288	-0.631109	0.333104
O14	O	1.560288	-0.131109	0.833104
O15	O	0.973905	-0.328167	0.497400
O16	O	1.473905	0.171833	0.997400
O17	O	1.174387	-0.637945	0.509333
O18	O	1.674387	-0.137945	1.009333
O19	O	1.060356	-0.333346	0.630926
O20	O	1.560356	0.166654	1.130926
O21	O	0.973866	-0.497573	0.327960
O22	O	1.473866	0.002427	0.827960
O23	O	0.859766	-0.490745	0.490555
O24	O	1.359766	0.009255	0.990555
O25	O	0.973835	-0.625942	0.795124
O26	O	1.473835	-0.125942	1.295124
O27	O	0.859736	-0.619107	0.618895
O28	O	1.359736	-0.119107	1.118895
O29	O	1.060316	-0.502760	0.800310
O30	O	1.560316	-0.002760	1.300310
O31	O	1.060248	-0.800522	0.502488
O32	O	1.560248	-0.300522	1.002488
O33	O	0.973796	-0.795348	0.625684
O34	O	1.473796	-0.295348	1.125684
C35	C	0.834213	-0.553397	0.553200
C36	C	1.334213	-0.053397	1.053200
C37	C	0.755984	-0.548738	0.548551
C38	C	1.255984	-0.048738	1.048551
C39	C	0.719234	-0.613482	0.613081
C40	C	1.219234	-0.113482	1.113081
C41	C	0.645729	-0.609091	0.608718
C42	C	1.145729	-0.109091	1.108718
C43	C	0.608975	-0.539961	0.539819
C44	C	1.108975	-0.039961	1.039819
C45	C	0.645730	-0.475210	0.475286
C46	C	1.145730	0.024790	0.975286
C47	C	0.719233	-0.479597	0.479655
C48	C	1.219233	0.020403	0.979655
C49	C	0.389142	-0.519659	0.519603
C50	C	0.889142	-0.019659	1.019603
C51	C	0.315633	-0.515279	0.515236
C52	C	0.815633	-0.015279	1.015236
C53	C	0.315637	-0.649159	0.648671
C54	C	0.815637	-0.149159	1.148671
C55	C	0.389142	-0.653544	0.653029
C56	C	0.889142	-0.153544	1.153029
C57	C	0.425891	-0.588790	0.588500
C58	C	0.925891	-0.088790	1.088500
N59	N	0.533841	-0.535473	0.535355
N60	N	1.033841	-0.035473	1.035355
N61	N	0.501023	-0.593273	0.592970
N62	N	1.001023	-0.093273	1.092970
C63	C	1.017032	-0.835853	0.564103
C64	C	1.517032	-0.335853	1.064103
C65	C	1.017078	-0.952009	0.564133
C66	C	1.517078	-0.452009	1.064133
C67	C	1.059908	-1.006322	0.503246
C68	C	1.559908	-0.506322	1.003246
C69	C	1.059956	-1.126376	0.503275
C70	C	1.559956	-0.626376	1.003275
C71	C	1.200654	-0.575338	0.575093
C72	C	1.700654	-0.075338	1.075093
C73	C	1.278883	-0.580023	0.579767
C74	C	1.778883	-0.080023	1.079767
C75	C	1.017075	-0.564352	0.836695
C76	C	1.517075	-0.064352	1.336695
C77	C	1.017075	-0.564354	0.952848
C78	C	1.517075	-0.064354	1.452848
C79	C	1.017140	-0.291780	0.564170
C80	C	1.517140	0.208220	1.064170
C81	C	1.017167	-0.175628	0.564189
C82	C	1.517167	0.324372	1.064189
C83	C	0.974285	-0.625304	1.002066
C84	C	1.474285	-0.125304	1.502066
C85	C	0.974284	-0.625308	1.122116
C86	C	1.474284	-0.125308	1.622116
C87	C	1.017072	-0.564363	1.292614
C88	C	1.517072	-0.064363	1.792614
C89	C	1.017073	-0.564361	1.176461
C90	C	1.517073	-0.064361	1.676461
H91	H	0.615810	-0.661812	0.661265
H92	H	1.115810	-0.161812	1.161265
H93	H	1.096622	-1.173074	0.451144
H94	H	1.596622	-0.673074	0.951144
H95	H	0.937655	-0.677486	0.955327
H96	H	1.437655	-0.177486	1.455327
F97	F	0.926395	-0.693509	1.177449
F98	F	1.426395	-0.193509	1.677449
H99	H	0.285710	-0.458973	0.459136
H100	H	0.785710	0.041027	0.959136
H101	H	0.419054	-0.466939	0.467050
H102	H	0.919054	0.033061	0.967050
F103	F	1.064956	-0.496146	1.121135
F104	F	1.564956	0.003854	1.621135
F105	F	1.064962	-0.496157	1.013934
F106	F	1.564962	0.003843	1.513934
H107	H	0.749153	-0.669778	0.669183
H108	H	1.249153	-0.169778	1.169183
H109	H	0.419062	-0.709839	0.709132
H110	H	0.919062	-0.209839	1.209132
H111	H	0.285708	-0.701876	0.701208
H112	H	0.785708	-0.201876	1.201208
H113	H	0.615799	-0.418919	0.419191
H114	H	1.115799	0.081081	0.919191
H115	H	1.096544	-0.963946	0.451099
H116	H	1.596544	-0.463946	0.951099
H117	H	0.980448	-0.994388	0.616287
H118	H	1.480448	-0.494388	1.116287
F119	F	0.758345	-0.410686	0.410974
F120	F	1.258345	0.089314	0.910974
F121	F	0.969231	-1.114600	0.632324
F122	F	1.469231	-0.614600	1.132324
