data_functionalizedCrystal
_audit_creation_method	'MofGen! by Chris Wilmer'
_symmetry_space_group_name_H-M	'P1'
_symmetry_Int_Tables_number	1
_symmetry_cell_setting	triclinic
loop_
_symmetry_equiv_pos_as_xyz
  x,y,z
_cell_length_a	18.426585
_cell_length_b	19.375551
_cell_length_c	19.377059
_cell_angle_alpha	97.576278
_cell_angle_beta	90.001989
_cell_angle_gamma	68.983277
loop_
_atom_site_label
_atom_site_type_symbol
_atom_site_fract_x
_atom_site_fract_y
_atom_site_fract_z
Zr1	Zr	0.855896	0.637461	-0.060244
O2	O	0.779396	0.733777	0.014926
O3	O	0.859849	0.520444	-0.064163
O4	O	0.902679	0.607612	0.042508
O5	O	0.724961	0.677374	-0.197644
O6	O	1.022106	0.607616	0.042510
O7	O	0.736566	0.646609	-0.091745
O8	O	0.945492	0.451688	-0.148305
O9	O	0.801575	0.833302	-0.006829
O10	O	0.974219	0.576245	-0.088939
O11	O	0.876432	0.599202	-0.167972
O12	O	0.926857	0.701831	-0.042381
O13	O	0.829070	0.724788	-0.121414
Zr14	Zr	1.027860	0.686533	-0.229139
Zr15	Zr	1.046368	0.637467	-0.060241
Zr16	Zr	0.837387	0.686528	-0.229141
Zr17	Zr	0.891269	0.796192	-0.094942
Zr18	Zr	0.992486	0.527803	-0.194441
O19	O	1.023906	0.803551	-0.225220
O20	O	1.050223	0.733785	0.014930
O21	O	0.753079	0.803543	-0.225224
O22	O	1.104360	0.590218	-0.304309
O23	O	1.130677	0.520452	-0.064159
O24	O	0.833532	0.590210	-0.304313
O25	O	1.158794	0.646621	-0.091739
O26	O	0.981077	0.716382	-0.331891
O27	O	0.861650	0.716379	-0.331893
O28	O	1.147189	0.677386	-0.197638
O29	O	0.952975	0.833306	-0.006827
O30	O	0.930780	0.490689	-0.282556
O31	O	1.082180	0.490693	-0.282553
O32	O	1.096892	0.451692	-0.148303
O33	O	0.786863	0.872303	-0.141080
O34	O	0.938263	0.872307	-0.141078
O35	O	0.956898	0.622164	-0.247002
O36	O	1.054686	0.599207	-0.167969
O37	O	1.007324	0.724793	-0.121411
O38	O	0.909536	0.747750	-0.200444
C39	C	0.897631	0.463450	-0.101290
C40	C	0.882614	0.396065	-0.086560
C41	C	1.069400	-0.014898	-0.269944
C42	C	1.055346	-0.078242	-0.256095
C43	C	0.960973	-0.002547	-0.163375
C44	C	0.975022	0.060804	-0.177214
C45	C	1.029236	0.054622	-0.230499
C46	C	0.934857	0.130325	-0.137770
C47	C	0.948902	0.193671	-0.151610
C48	C	1.003112	0.187496	-0.204894
C49	C	1.043281	0.117968	-0.244340
C50	C	0.880639	0.136506	-0.084487
C51	C	0.840475	0.206026	-0.045043
C52	C	0.854523	0.269373	-0.058880
C53	C	0.908733	0.263199	-0.112164
C54	C	0.814355	0.338901	-0.019434
C55	C	0.828400	0.402247	-0.033275
C56	C	0.922778	0.326545	-0.126005
C57	C	0.703626	0.661990	-0.144695
C58	C	0.622765	0.661988	-0.144696
C59	C	0.326658	0.662010	-0.144688
C60	C	0.409043	0.662007	-0.144689
C61	C	0.474709	0.661999	-0.144691
C62	C	0.557099	0.661996	-0.144694
C63	C	1.180130	0.662004	-0.144688
C64	C	1.260990	0.662006	-0.144687
C65	C	0.965029	0.600623	0.066573
C66	C	0.972887	0.579793	0.138274
C67	C	0.986125	0.860544	-0.188093
C68	C	1.001142	0.927930	-0.202822
C69	C	1.008681	0.484884	0.215034
C70	C	1.001295	0.504465	0.147662
C71	C	0.951849	0.635571	0.196260
C72	C	0.959227	0.616002	0.263637
C73	C	0.987644	0.540657	0.273018
C74	C	0.938190	0.671775	0.321621
C75	C	0.945571	0.652207	0.388992
C76	C	0.973990	0.576865	0.398379
C77	C	0.995026	0.521089	0.340389
C78	C	0.909777	0.747119	0.312239
C79	C	0.888740	0.802892	0.370223
C80	C	0.896117	0.783324	0.437596
C81	C	0.924535	0.707983	0.446983
C82	C	0.875080	0.839101	0.495586
C83	C	0.882462	0.819532	0.562957
C84	C	0.931916	0.688415	0.514354
C85	C	0.918729	0.723368	0.644043
C86	C	0.910879	0.744188	0.572338
C87	C	1.135883	0.463457	-0.101287
C88	C	1.201726	0.396074	-0.086556
C89	C	0.874479	0.524824	-0.312555
C90	C	0.851605	0.478269	-0.369526
C91	C	1.112731	0.524831	-0.312551
C92	C	1.170717	0.478278	-0.369521
C93	C	0.771024	0.799163	0.023168
C94	C	0.713038	0.845716	0.080139
C95	C	0.747873	0.860538	-0.188096
C96	C	0.682029	0.927920	-0.202827
C97	C	1.009276	0.799170	0.023172
C98	C	1.032151	0.845725	0.080143
C99	C	1.190645	0.352443	-0.038378
C100	C	1.252509	0.289134	-0.024522
C101	C	1.325451	0.269454	-0.058849
C102	C	1.336532	0.313093	-0.107030
C103	C	1.274670	0.376403	-0.120881
C104	C	0.882864	0.468394	-0.437541
C105	C	0.861369	0.424662	-0.491080
C106	C	0.808619	0.390800	-0.476602
C107	C	0.777355	0.400679	-0.408581
C108	C	0.798846	0.444415	-0.355044
C109	C	1.249000	0.444434	-0.355021
C110	C	1.303494	0.400699	-0.408546
C111	C	1.279703	0.390806	-0.476570
C112	C	1.201412	0.424657	-0.491070
C113	C	1.146921	0.468395	-0.437547
C114	C	0.634757	0.879569	0.065636
C115	C	0.580267	0.923323	0.119157
C116	C	0.604059	0.933219	0.187180
C117	C	0.682349	0.899364	0.201682
C118	C	0.736838	0.855615	0.148160
C119	C	0.693112	0.971557	-0.250999
C120	C	0.631255	1.034878	-0.264840
C121	C	0.558313	1.054558	-0.230511
C122	C	0.547232	1.010918	-0.182333
C123	C	0.609090	0.947601	-0.168490
C124	C	1.084903	0.879574	0.065645
C125	C	1.106411	0.923311	0.119171
C126	C	1.075161	0.933203	0.187194
C127	C	1.022406	0.899348	0.201692
C128	C	1.000903	0.855608	0.148168
H129	H	1.113550	-0.019935	-0.313331
C130	C	1.024437	0.443104	0.083878
N131	N	1.041867	0.396888	0.035837
C132	C	0.865195	0.066821	-0.069261
N133	N	0.853566	0.014332	-0.057790
C134	C	1.389608	0.363462	-0.392579
N135	N	1.454467	0.335414	-0.380550
H136	H	0.615369	0.871514	0.010253
H137	H	0.795680	0.458858	-0.001166
H138	H	1.083179	0.495946	-0.449362
C139	C	1.164439	0.960549	0.103206
N140	N	1.208145	0.988596	0.091180
C141	C	1.416773	0.291431	-0.144790
N142	N	1.477211	0.275110	-0.173234
H143	H	0.770208	0.343924	0.023946
H144	H	0.701713	0.907428	0.257072
C145	C	1.275191	0.455310	-0.280199
N146	N	1.294925	0.463504	-0.223845
H147	H	0.903769	0.763049	0.257380
C148	C	0.857488	0.885769	0.359896
N149	N	0.833947	0.948193	0.352118
H150	H	0.487835	1.026952	-0.154386
C151	C	0.643459	1.082867	-0.317844
N152	N	0.652653	1.119009	-0.357768
H153	H	0.507951	1.106117	-0.241790
H154	H	0.886835	0.416625	-0.546460
C155	C	1.339654	0.342685	-0.535439
N156	N	1.384812	0.306435	-0.579775
H157	H	0.955048	0.627062	0.521991
H158	H	0.851950	0.900446	0.487937
C159	C	1.099531	-0.154717	-0.299495
N160	N	1.132807	-0.212317	-0.332185
C161	C	0.596882	0.899600	-0.115504
N162	N	0.587681	0.863447	-0.075594
H163	H	0.791126	0.355189	-0.520201
H164	H	0.796331	0.211050	-0.001660
H165	H	0.980004	0.560935	0.453238
H166	H	0.925817	0.495962	-0.449342
H167	H	0.734404	0.373103	-0.396803
C168	C	1.026285	0.438206	0.350710
N169	N	1.049831	0.375781	0.358485
H170	H	0.773390	0.452447	-0.299664
H171	H	1.182051	0.416595	-0.546462
H172	H	0.516524	0.950881	0.107337
C173	C	1.119293	0.868699	-0.009176
N174	N	1.145204	0.860507	-0.065530
C175	C	0.544108	0.981340	0.246049
N176	N	0.498949	1.017581	0.290388
C177	C	1.039941	0.402001	0.225355
N178	N	1.063487	0.339576	0.233130
C179	C	0.822947	0.818371	0.164127
N180	N	0.887804	0.790317	0.176158
C181	C	0.773345	0.949924	-0.288767
N182	N	0.833776	0.933639	-0.317213
H183	H	1.092676	0.968821	0.230770
H184	H	0.996966	0.907409	0.257084
C185	C	1.240301	0.241137	0.028472
N186	N	1.231103	0.204986	0.068385
H187	H	0.966928	0.321508	-0.169392
C188	C	1.393491	0.199804	-0.043610
N189	N	1.444735	0.147340	-0.032131
H190	H	0.865331	0.864948	0.610171
H191	H	1.014542	0.239079	-0.216166
H192	H	1.087431	0.112932	-0.287727
H193	H	0.916829	0.002477	-0.119992
H194	H	0.928714	0.696917	0.188613
H195	H	0.957945	0.828052	0.159982
H196	H	1.283702	0.411923	-0.160115
H197	H	1.131260	0.368461	-0.010414
