data_functionalizedCrystal
_audit_creation_method	'MofGen! by Chris Wilmer'
_symmetry_space_group_name_H-M	'P1'
_symmetry_Int_Tables_number	1
_symmetry_cell_setting	triclinic
loop_
_symmetry_equiv_pos_as_xyz
  x,y,z
_cell_length_a	23.532361
_cell_length_b	22.010155
_cell_length_c	14.971486
_cell_angle_alpha	90.004049
_cell_angle_beta	96.778102
_cell_angle_gamma	90.004127
loop_
_atom_site_label
_atom_site_type_symbol
_atom_site_fract_x
_atom_site_fract_y
_atom_site_fract_z
O1	O	0.755745	0.050465	-0.108368
O2	O	1.255745	0.550465	0.391632
O3	O	0.589945	0.050479	-0.124122
O4	O	1.089945	0.550479	0.375878
O5	O	0.677289	0.050467	0.014004
O6	O	1.177289	0.550467	0.514004
O7	O	0.668401	0.050477	-0.246493
O8	O	1.168401	0.550477	0.253507
O9	O	0.677273	-0.050583	0.013983
O10	O	1.177273	0.449417	0.513983
O11	O	0.589930	-0.050571	-0.124142
O12	O	1.089930	0.449429	0.375858
O13	O	0.755729	-0.050586	-0.108388
O14	O	1.255729	0.449414	0.391612
Cu15	Cu	0.672828	-0.059805	-0.116267
Cu16	Cu	1.172828	0.440195	0.383733
Cu17	Cu	0.672847	0.059699	-0.116243
Cu18	Cu	1.172847	0.559699	0.383757
O19	O	0.668386	-0.050574	-0.246514
O20	O	1.168386	0.449426	0.253486
C21	C	0.568719	-0.000044	-0.123737
C22	C	1.068719	0.499956	0.376263
C23	C	0.505496	-0.000039	-0.122551
C24	C	1.005496	0.499961	0.377449
N25	N	0.672819	-0.143858	-0.116284
N26	N	1.172819	0.356142	0.383716
C27	C	0.232238	0.055040	-0.117352
C28	C	0.732238	0.555040	0.382648
C29	C	0.291643	0.055042	-0.118475
C30	C	0.791643	0.555042	0.381525
O31	O	0.322379	0.101886	-0.119015
O32	O	0.822379	0.601886	0.380985
N33	N	0.321342	-0.000041	-0.119053
N34	N	0.821342	0.499959	0.380947
C35	C	0.291635	-0.055129	-0.118500
C36	C	0.791635	0.444871	0.381500
O37	O	0.322351	-0.101981	-0.119094
O38	O	0.822351	0.398019	0.380906
C39	C	0.232232	-0.055130	-0.117370
C40	C	0.732232	0.444870	0.382630
C41	C	0.202535	-0.000044	-0.116801
C42	C	0.702535	0.499956	0.383199
C43	C	0.202541	0.110122	-0.116781
C44	C	0.702541	0.610122	0.383219
C45	C	0.143141	0.110120	-0.115660
C46	C	0.643141	0.610120	0.384340
C47	C	0.113437	0.055037	-0.115110
C48	C	0.613437	0.555037	0.384890
C49	C	0.143134	-0.000045	-0.115680
C50	C	0.643134	0.499955	0.384320
C51	C	0.202526	-0.110217	-0.116810
C52	C	0.702526	0.389783	0.383190
C53	C	0.143119	-0.110213	-0.115680
C54	C	0.643119	0.389787	0.384320
C55	C	0.113422	-0.055127	-0.115111
C56	C	0.613422	0.444873	0.384889
C57	C	0.054030	-0.055131	-0.114008
C58	C	0.554030	0.444869	0.385992
N59	N	0.024331	-0.000048	-0.113430
N60	N	0.524331	0.499952	0.386570
C61	C	0.054034	0.055036	-0.113980
C62	C	0.554034	0.555036	0.386020
C63	C	0.416385	-0.055123	-0.120869
C64	C	0.916385	0.444877	0.379131
C65	C	0.475787	-0.055123	-0.122005
C66	C	0.975787	0.444877	0.377995
C67	C	0.475791	0.055048	-0.121978
C68	C	0.975791	0.555048	0.378022
C69	C	0.416388	0.055047	-0.120849
C70	C	0.916388	0.555047	0.379151
C71	C	0.386686	-0.000040	-0.120291
C72	C	0.886686	0.499960	0.379709
C73	C	-0.070711	0.055028	-0.111627
C74	C	0.429289	0.555028	0.388373
C75	C	-0.130118	0.055021	-0.110509
C76	C	0.369882	0.555021	0.389491
C77	C	-0.130116	-0.055149	-0.110532
C78	C	0.369884	0.444851	0.389468
C79	C	-0.070715	-0.055143	-0.111654
C80	C	0.429285	0.444857	0.388346
C81	C	-0.041014	-0.000050	-0.112198
C82	C	0.458986	0.499950	0.387802
O83	O	0.023257	-0.101951	-0.113464
O84	O	0.523257	0.398049	0.386536
O85	O	0.023311	0.101880	-0.113374
O86	O	0.523311	0.601880	0.386626
C87	C	0.711525	-0.563642	-0.055090
C88	C	1.211525	-0.063642	0.444910
C89	C	0.711527	-0.627250	-0.055083
C90	C	1.211527	-0.127250	0.444917
O91	O	0.744414	-0.660146	-0.003065
O92	O	1.244414	-0.160146	0.496935
N93	N	0.672846	-0.659065	-0.116224
N94	N	1.172846	-0.159065	0.383776
C95	C	0.634156	-0.627269	-0.177369
C96	C	1.134156	-0.127269	0.322631
O97	O	0.601255	-0.660170	-0.229373
O98	O	1.101255	-0.160170	0.270627
C99	C	0.634151	-0.563662	-0.177370
C100	C	1.134151	-0.063662	0.322630
C101	C	0.672839	-0.531851	-0.116231
C102	C	1.172839	-0.031851	0.383769
C103	C	0.750209	-0.531831	0.006045
C104	C	1.250209	-0.031831	0.506045
C105	C	0.750207	-0.468228	0.006037
C106	C	1.250207	0.031772	0.506037
C107	C	0.711521	-0.436436	-0.055105
C108	C	1.211521	0.063564	0.444895
C109	C	0.672837	-0.468247	-0.116239
C110	C	1.172837	0.031753	0.383761
C111	C	0.595459	-0.531867	-0.238510
C112	C	1.095459	-0.031867	0.261490
C113	C	0.595457	-0.468256	-0.238505
C114	C	1.095457	0.031744	0.261495
C115	C	0.634145	-0.436445	-0.177367
C116	C	1.134145	0.063555	0.322633
C117	C	0.634149	-0.372853	-0.177388
C118	C	1.134149	0.127147	0.322612
N119	N	0.672830	-0.341038	-0.116248
N120	N	1.172830	0.158962	0.383752
C121	C	0.711516	-0.372829	-0.055106
C122	C	1.211516	0.127171	0.444894
C123	C	0.634169	-0.760846	-0.177361
C124	C	1.134169	-0.260846	0.322639
C125	C	0.634176	-0.824452	-0.177364
C126	C	1.134176	-0.324452	0.322636
C127	C	0.711547	-0.824429	-0.055078
C128	C	1.211547	-0.324429	0.444922
C129	C	0.711542	-0.760822	-0.055079
C130	C	1.211542	-0.260822	0.444921
C131	C	0.672850	-0.729032	-0.116220
C132	C	1.172850	-0.229032	0.383780
C133	C	0.711509	-0.239258	-0.055127
C134	C	1.211509	0.260742	0.444873
C135	C	0.711505	-0.175649	-0.055142
C136	C	1.211505	0.324351	0.444858
C137	C	0.634133	-0.175678	-0.177425
C138	C	1.134133	0.324322	0.322575
C139	C	0.634138	-0.239281	-0.177413
C140	C	1.134138	0.260719	0.322587
C141	C	0.672828	-0.271070	-0.116257
C142	C	1.172828	0.228930	0.383743
O143	O	0.601278	-0.339916	-0.229377
O144	O	1.101278	0.160084	0.270623
O145	O	0.744407	-0.339920	-0.003103
O146	O	1.244407	0.160080	0.496897
C147	C	0.776955	-0.000061	-0.108772
C148	C	1.276955	0.499939	0.391228
C149	C	0.840179	-0.000063	-0.109959
C150	C	1.340179	0.499937	0.390041
C151	C	0.676884	-0.000058	0.047314
C152	C	1.176884	0.499942	0.547314
C153	C	0.675693	-0.000057	0.146598
C154	C	1.175693	0.499943	0.646598
N155	N	0.672860	0.143751	-0.116219
N156	N	1.172860	0.643751	0.383781
C157	C	0.668791	-0.000047	-0.279824
C158	C	1.168791	0.499953	0.220176
C159	C	0.669982	-0.000044	-0.379108
C160	C	1.169982	0.499956	0.120892
C161	C	0.727005	-0.000062	0.204379
C162	C	1.227005	0.499938	0.704379
C163	C	0.725882	-0.000056	0.297666
C164	C	1.225882	0.499944	0.797666
C165	C	0.673447	-0.000049	0.333171
C166	C	1.173447	0.499951	0.833171
C167	C	0.622131	-0.000042	0.275382
C168	C	1.122131	0.499958	0.775382
C169	C	0.623254	-0.000044	0.182097
C170	C	1.123254	0.499956	0.682097
C171	C	0.619793	-0.000040	0.469820
C172	C	1.119793	0.499960	0.969820
C173	C	0.618670	-0.000039	0.563111
C174	C	1.118670	0.499961	1.063111
C175	C	0.722421	-0.000052	0.585389
C176	C	1.222421	0.499948	1.085389
C177	C	0.723545	-0.000053	0.492103
C178	C	1.223545	0.499947	0.992103
C179	C	0.672228	-0.000048	0.434321
C180	C	1.172228	0.499952	0.934321
H181	H	-0.154295	0.099881	-0.110049
H182	H	0.345705	0.599881	0.389951
Cl183	Cl	0.546811	-0.428296	-0.315372
Cl184	Cl	1.046811	0.071704	0.184628
H185	H	0.581470	-0.000040	0.135052
H186	H	1.081470	0.499960	0.635052
Cl187	Cl	0.513111	-0.124377	-0.122739
Cl188	Cl	1.013111	0.375623	0.377261
H189	H	-0.046536	0.099890	-0.112072
H190	H	0.453464	0.599890	0.387928
H191	H	-0.046536	-0.099999	-0.112135
H192	H	0.453464	0.400001	0.387865
H193	H	0.743011	-0.149750	-0.005356
H194	H	1.243011	0.350250	0.494644
H195	H	0.743013	-0.265133	-0.005326
H196	H	1.243013	0.234867	0.494674
Cl197	Cl	0.585507	-0.279271	-0.254285
Cl198	Cl	1.085507	0.220729	0.245715
H199	H	0.118967	0.154977	-0.115193
H200	H	0.618967	0.654977	0.384807
H201	H	-0.154312	-0.099997	-0.110087
H202	H	0.345688	0.400003	0.389913
H203	H	0.781711	-0.557710	0.055838
H204	H	1.281711	-0.057710	0.555838
H205	H	0.781708	-0.442330	0.055824
H206	H	1.281708	0.057670	0.555824
H207	H	0.743044	-0.734925	-0.005294
H208	H	1.243044	-0.234925	0.494706
Cl209	Cl	0.239845	-0.179473	-0.117525
Cl210	Cl	0.739845	0.320527	0.382475
H211	H	0.392205	-0.099985	-0.120427
H212	H	0.892205	0.400015	0.379573
H213	H	0.118938	-0.155073	-0.115234
H214	H	0.618938	0.344927	0.384766
H215	H	0.579437	-0.000033	0.304297
H216	H	1.079437	0.499967	0.804297
Cl217	Cl	0.239872	0.179380	-0.117473
Cl218	Cl	0.739872	0.679380	0.382527
Cl219	Cl	0.760179	-0.864408	0.021788
Cl220	Cl	1.260179	-0.364408	0.521788
H221	H	0.392212	0.099903	-0.120386
H222	H	0.892212	0.599903	0.379614
H223	H	0.499986	0.099900	-0.122426
H224	H	0.999986	0.599900	0.377574
Cl225	Cl	0.790392	-0.000064	0.370302
Cl226	Cl	1.290392	0.499936	0.870302
Cl227	Cl	0.585546	-0.864436	-0.254239
Cl228	Cl	1.085546	-0.364436	0.245761
Cl229	Cl	0.789464	-0.000059	0.447470
Cl230	Cl	1.289464	0.499941	0.947470
H231	H	0.764205	-0.000054	0.632440
H232	H	1.264205	0.499946	1.132440
H233	H	0.602663	-0.734966	-0.227156
H234	H	1.102663	-0.234966	0.272844
H235	H	0.563956	-0.557759	-0.288294
H236	H	1.063956	-0.057759	0.211706
H237	H	0.602636	-0.149783	-0.227209
H238	H	1.102636	0.350217	0.272791
H239	H	0.575973	-0.000043	0.592016
H240	H	1.075973	0.499957	1.092016
Cl241	Cl	0.555280	-0.000032	0.397181
Cl242	Cl	1.055280	0.499968	0.897181
Cl243	Cl	0.792927	-0.000077	0.159754
Cl244	Cl	1.292927	0.499923	0.659754
