data_functionalizedCrystal
_audit_creation_method	'MofGen! by Chris Wilmer'
_symmetry_space_group_name_H-M	'P1'
_symmetry_Int_Tables_number	1
_symmetry_cell_setting	triclinic
loop_
_symmetry_equiv_pos_as_xyz
  x,y,z
_cell_length_a	16.109301
_cell_length_b	17.038272
_cell_length_c	15.186229
_cell_angle_alpha	89.995962
_cell_angle_beta	89.999362
_cell_angle_gamma	87.286518
loop_
_atom_site_label
_atom_site_type_symbol
_atom_site_fract_x
_atom_site_fract_y
_atom_site_fract_z
O1	O	1.110268	0.100495	-0.073174
O2	O	0.869094	0.113001	-0.073188
O3	O	0.988247	-0.007067	-0.073174
O4	O	0.991114	0.220563	-0.073187
O5	O	0.988239	-0.007069	0.073284
O6	O	0.869085	0.113000	0.073270
O7	O	1.110259	0.100493	0.073284
Zn8	Zn	0.989671	0.106746	0.096530
Zn9	Zn	0.989682	0.106748	-0.096434
O10	O	0.991105	0.220562	0.073270
C11	C	0.838079	0.112494	0.000039
C12	C	0.745676	0.110975	0.000034
C13	C	0.528212	0.178690	0.000040
C14	C	0.441390	0.177257	0.000046
C15	C	0.451147	0.034799	0.000051
C16	C	0.537968	0.036233	0.000051
C17	C	0.576498	0.108181	0.000042
C18	C	0.402855	0.105314	0.000047
C19	C	0.308719	0.103759	0.000053
C20	C	0.670640	0.109736	0.000037
C21	C	0.985636	-0.036196	0.000055
C22	C	0.977857	-0.122989	0.000054
C23	C	1.049277	-0.173104	0.000059
C24	C	1.041963	-0.254654	0.000050
C25	C	0.963228	-0.286089	0.000043
C26	C	0.891802	-0.235967	0.000035
C27	C	0.899116	-0.154418	0.000038
C28	C	0.937385	-0.531846	0.000029
C29	C	0.930076	-0.613402	0.000029
C30	C	1.080238	-0.632083	0.000043
C31	C	1.087546	-0.550532	0.000051
C32	C	1.016120	-0.500418	0.000038
C33	C	0.955749	-0.369446	0.000037
C34	C	1.023599	-0.417062	0.000038
C35	C	1.141274	0.101001	0.000055
C36	C	1.233677	0.102519	0.000054
C37	C	0.993717	0.249691	0.000039
C38	C	1.001496	0.336484	0.000034
N39	N	0.989669	0.106744	0.228223
N40	N	0.989690	0.106744	-0.228126
C41	C	1.042451	0.053596	0.453952
C42	C	1.042453	0.053594	0.546141
C43	C	0.936902	0.159895	0.546138
C44	C	0.936896	0.159893	0.453950
C45	C	0.989675	0.106744	0.407859
C46	C	0.989684	0.106745	0.592237
C47	C	0.989686	0.106743	0.692193
C48	C	0.989672	0.106744	0.307897
H49	H	0.577284	-0.021187	0.000055
H50	H	1.113392	-0.147517	0.000071
H51	H	1.100122	-0.295455	0.000056
C52	C	0.570592	0.257834	0.000041
N53	N	0.602510	0.317448	0.000045
C54	C	1.100503	-0.004880	0.596839
N55	N	1.144226	-0.048928	0.635023
H56	H	1.151661	-0.524945	0.000057
H57	H	0.402079	0.234672	0.000047
C58	C	1.158801	-0.687214	0.000048
N59	N	1.217978	-0.728740	0.000048
C60	C	0.843457	-0.647976	0.000014
N61	N	0.778218	-0.674018	0.000003
C62	C	0.858813	-0.476731	0.000011
N63	N	0.799629	-0.435215	-0.000006
C64	C	0.878847	0.218354	0.596847
N65	N	0.835118	0.262387	0.635039
C66	C	0.878876	0.218398	0.403245
N67	N	0.835191	0.262475	0.365055
C68	C	0.805191	-0.270548	0.000034
N69	N	0.739954	-0.296593	0.000040
H70	H	0.419765	-0.023778	0.000064
C71	C	1.100502	-0.004876	0.403255
N72	N	1.144225	-0.048921	0.365073
H73	H	0.840958	-0.113615	0.000033
H74	H	1.087705	-0.391465	0.000025
H75	H	0.891642	-0.395049	0.000032
