data_functionalizedCrystal
_audit_creation_method	'MofGen! by Chris Wilmer'
_symmetry_space_group_name_H-M	'P1'
_symmetry_Int_Tables_number	1
_symmetry_cell_setting	triclinic
loop_
_symmetry_equiv_pos_as_xyz
  x,y,z
_cell_length_a	18.101395
_cell_length_b	16.120566
_cell_length_c	16.120704
_cell_angle_alpha	90.137199
_cell_angle_beta	87.105894
_cell_angle_gamma	92.872739
loop_
_atom_site_label
_atom_site_type_symbol
_atom_site_fract_x
_atom_site_fract_y
_atom_site_fract_z
Zn1	Zn	-0.375355	-1.247277	0.534629
Zn2	Zn	0.124645	-0.747277	1.034629
Zn3	Zn	-0.493202	-1.254237	0.395573
Zn4	Zn	0.006798	-0.754237	0.895573
Zn5	Zn	-0.362794	-1.115298	0.388541
Zn6	Zn	0.137206	-0.615298	0.888541
Zn7	Zn	-0.492564	-1.108168	0.527534
Zn8	Zn	0.007436	-0.608168	1.027534
O9	O	-0.430979	-1.181245	0.461569
O10	O	0.069021	-0.681245	0.961569
O11	O	-0.396511	-1.364564	0.522096
O12	O	0.103489	-0.864564	1.022096
O13	O	-0.470914	-1.241703	0.278276
O14	O	0.029086	-0.741703	0.778276
O15	O	-0.260832	-1.132876	0.407947
O16	O	0.239168	-0.632876	0.907947
O17	O	-0.483093	-1.369678	0.419932
O18	O	0.016907	-0.869678	0.919932
O19	O	-0.270060	-1.229841	0.515277
O20	O	0.229940	-0.729841	1.015277
O21	O	-0.375104	-1.139625	0.273110
O22	O	0.124896	-0.639625	0.773110
O23	O	-0.374485	-0.997988	0.401066
O24	O	0.125515	-0.497988	0.901066
O25	O	-0.482006	-1.120725	0.644839
O26	O	0.017994	-0.620725	1.144839
O27	O	-0.469826	-0.992750	0.503184
O28	O	0.030174	-0.492750	1.003184
O29	O	-0.395893	-1.222927	0.650052
O30	O	0.104107	-0.722927	1.150052
O31	O	-0.596746	-1.234790	0.413051
O32	O	-0.096746	-0.734790	0.913051
O33	O	-0.596277	-1.127474	0.510002
O34	O	-0.096277	-0.627474	1.010002
C35	C	-0.420724	-0.965197	0.450592
C36	C	0.079276	-0.465197	0.950592
C37	C	-0.416355	-0.872770	0.445916
C38	C	0.083645	-0.372770	0.945916
C39	C	-0.623383	-1.181135	0.461539
C40	C	-0.123383	-0.681135	0.961539
C41	C	-0.705699	-1.181163	0.461558
C42	C	-0.205699	-0.681163	0.961558
C43	C	-0.408362	-0.703544	0.437386
C44	C	0.091638	-0.203544	0.937386
C45	C	-0.453659	-0.659786	0.485760
C46	C	0.046341	-0.159786	0.985760
C47	C	-0.449212	-0.565623	0.481013
C48	C	0.050788	-0.065623	0.981013
C49	C	-0.412809	-0.797716	0.442131
C50	C	0.087191	-0.297716	0.942131
C51	C	-1.004801	-1.181343	0.461612
C52	C	-0.504801	-0.681343	0.961612
C53	C	-0.973225	-1.113963	0.522778
C54	C	-0.473225	-0.613963	1.022778
C55	C	-0.887584	-1.113669	0.522561
C56	C	-0.387584	-0.613669	1.022561
C57	C	-0.856413	-1.181253	0.461586
C58	C	-0.356413	-0.681253	0.961586
C59	C	-0.882661	-1.161989	0.372746
C60	C	-0.382661	-0.661989	0.872746
C61	C	-0.968303	-1.161556	0.373111
C62	C	-0.468303	-0.661556	0.873111
C63	C	-0.978282	-1.268167	0.488522
C64	C	-0.478282	-0.768167	0.988522
C65	C	-0.892689	-1.267551	0.490417
C66	C	-0.392689	-0.767551	0.990417
C67	C	-0.772550	-1.181204	0.461566
C68	C	-0.272550	-0.681204	0.961566
C69	C	-1.088663	-1.181390	0.461626
C70	C	-0.588663	-0.681390	0.961626
C71	C	-0.237825	-1.181377	0.461619
C72	C	0.262175	-0.681377	0.961619
C73	C	-0.155515	-1.181434	0.461640
C74	C	0.344485	-0.681434	0.961640
C75	C	-0.440279	-1.170254	0.678462
C76	C	0.059721	-0.670254	1.178462
C77	C	-0.444242	-1.165571	0.770888
C78	C	0.055758	-0.665571	1.270888
C79	C	-0.441276	-0.398137	0.472576
C80	C	0.058724	0.101863	0.972576
C81	C	-0.445669	-0.490565	0.477232
C82	C	0.054331	0.009435	0.977232
C83	C	-0.410591	-1.205473	0.983872
C84	C	0.089409	-0.705473	1.483872
C85	C	-0.451446	-1.156992	0.940106
C86	C	0.048554	-0.656992	1.440106
C87	C	-0.447437	-1.161767	0.845944
C88	C	0.052563	-0.661767	1.345944
C89	C	-0.414600	-1.200700	1.078042
C90	C	0.085400	-0.700700	1.578042
C91	C	-0.421738	-1.192192	1.245521
C92	C	0.078262	-0.692192	1.745521
C93	C	-0.417797	-1.196892	1.153095
C94	C	0.082203	-0.696892	1.653095
H95	H	-0.366246	-0.670289	0.392410
H96	H	0.133754	-0.170289	0.892410
N97	N	-0.506504	-0.701489	0.542190
N98	N	-0.006504	-0.201489	1.042190
N99	N	-0.504555	-0.688008	0.618458
N100	N	-0.004555	-0.188008	1.118458
H101	H	-0.541877	-0.717464	0.658308
H102	H	-0.041877	-0.217464	1.158308
H103	H	-0.489430	-1.111895	0.973354
H104	H	0.010570	-0.611895	1.473354
H105	H	-0.870026	-1.125205	0.588296
H106	H	-0.370026	-0.625205	1.088296
N107	N	-0.851027	-1.083406	0.344403
N108	N	-0.351027	-0.583406	0.844403
N109	N	-0.865271	-1.056678	0.274565
N110	N	-0.365271	-0.556678	0.774565
H111	H	-0.842932	-1.001177	0.254550
H112	H	-0.342932	-0.501177	0.754550
N113	N	-0.362940	-1.262033	0.942157
N114	N	0.137060	-0.762033	1.442157
N115	N	-0.359714	-1.265877	0.864615
N116	N	0.140286	-0.765877	1.364615
H117	H	-0.326063	-1.305823	0.835144
H118	H	0.173937	-0.805823	1.335144
H119	H	-0.997281	-1.125341	0.588715
H120	H	-0.497281	-0.625341	1.088715
N121	N	-0.995665	-1.033606	0.500234
N122	N	-0.495665	-0.533606	1.000234
N123	N	-1.034810	-1.025745	0.439316
N124	N	-0.534810	-0.525745	0.939316
H125	H	-1.050661	-0.968993	0.423392
H126	H	-0.550661	-0.468993	0.923392
N127	N	-0.857288	-1.032819	0.499761
N128	N	-0.357288	-0.532819	0.999761
N129	N	-0.899403	-0.976436	0.483953
N130	N	-0.399403	-0.476436	0.983953
H131	H	-0.878007	-0.919332	0.467849
H132	H	-0.378007	-0.419332	0.967849
N133	N	-0.988602	-1.082110	0.345152
N134	N	-0.488602	-0.582110	0.845152
N135	N	-0.967166	-1.056785	0.274328
N136	N	-0.467166	-0.556785	0.774328
H137	H	-0.981499	-1.000674	0.254580
H138	H	-0.481499	-0.500674	0.754580
N139	N	-0.994256	-1.220737	0.313671
N140	N	-0.494256	-0.720737	0.813671
N141	N	-0.949116	-1.262223	0.272047
N142	N	-0.449116	-0.762223	0.772047
H143	H	-0.967441	-1.304010	0.230058
H144	H	-0.467441	-0.804010	0.730058
H145	H	-1.003563	-1.286600	0.552434
H146	H	-0.503563	-0.786600	1.052434
H147	H	-0.862308	-1.209717	0.325735
H148	H	-0.362308	-0.709717	0.825735
H149	H	-0.875955	-1.282160	0.555821
H150	H	-0.375955	-0.782160	1.055821
H151	H	-0.998772	-1.318312	0.444027
H152	H	-0.498772	-0.818312	0.944027
N153	N	-0.866464	-1.333406	0.439042
N154	N	-0.366464	-0.833406	0.939042
N155	N	-0.820408	-1.317737	0.380075
N156	N	-0.320408	-0.817737	0.880075
H157	H	-0.801888	-1.364245	0.343782
H158	H	-0.301888	-0.864245	0.843782
