data_functionalizedCrystal
_audit_creation_method	'MofGen! by Chris Wilmer'
_symmetry_space_group_name_H-M	'P1'
_symmetry_Int_Tables_number	1
_symmetry_cell_setting	triclinic
loop_
_symmetry_equiv_pos_as_xyz
  x,y,z
_cell_length_a	13.897449
_cell_length_b	12.594516
_cell_length_c	13.897441
_cell_angle_alpha	89.974595
_cell_angle_beta	89.981404
_cell_angle_gamma	90.017332
loop_
_atom_site_label
_atom_site_type_symbol
_atom_site_fract_x
_atom_site_fract_y
_atom_site_fract_z
Zn1	Zn	1.474693	-0.423682	-0.545409
Zn2	Zn	1.974693	0.076318	-0.045409
Zn3	Zn	1.474598	-0.601690	-0.384123
Zn4	Zn	1.974598	-0.101690	0.115877
Zn5	Zn	1.313388	-0.423730	-0.384128
Zn6	Zn	1.813388	0.076270	0.115872
Zn7	Zn	1.313369	-0.601623	-0.545375
Zn8	Zn	1.813369	-0.101623	-0.045375
O9	O	1.394012	-0.512681	-0.464759
O10	O	1.894012	-0.012681	0.035241
O11	O	1.609662	-0.447303	-0.524027
O12	O	2.109662	0.052697	-0.024027
O13	O	1.453181	-0.578131	-0.249142
O14	O	1.953181	-0.078131	0.250858
O15	O	1.334834	-0.274778	-0.405539
O16	O	1.834834	0.225222	0.094461
O17	O	1.609592	-0.578085	-0.405530
O18	O	2.109592	-0.078085	0.094470
O19	O	1.453344	-0.274743	-0.524032
O20	O	1.953344	0.225257	-0.024032
O21	O	1.334742	-0.447384	-0.249145
O22	O	1.834742	0.052616	0.250855
O23	O	1.178404	-0.447320	-0.405506
O24	O	1.678404	0.052680	0.094494
O25	O	1.334800	-0.577971	-0.680362
O26	O	1.834800	-0.077971	-0.180362
O27	O	1.178390	-0.578017	-0.523973
O28	O	1.678390	-0.078017	-0.023973
O29	O	1.453325	-0.447238	-0.680387
O30	O	1.953325	0.052762	-0.180387
O31	O	1.453162	-0.750627	-0.405497
O32	O	1.953162	-0.250627	0.094503
O33	O	1.334708	-0.750578	-0.523968
O34	O	1.834708	-0.250578	-0.023968
C35	C	1.143398	-0.512667	-0.464737
C36	C	1.643398	-0.012667	0.035263
C37	C	1.036184	-0.512686	-0.464750
C38	C	1.536184	-0.012686	0.035250
C39	C	1.393949	-0.789222	-0.464749
C40	C	1.893949	-0.289222	0.035251
C41	C	1.394010	-0.907528	-0.464778
C42	C	1.894010	-0.407528	0.035222
C43	C	0.839889	-0.512690	-0.464776
C44	C	1.339889	-0.012690	0.035224
C45	C	0.949121	-0.512685	-0.464759
C46	C	1.449121	-0.012685	0.035241
C47	C	1.329576	-0.976793	-0.529169
C48	C	1.829576	-0.476793	-0.029169
C49	C	1.306076	-1.047657	-0.441152
C50	C	1.806076	-0.547657	0.058848
C51	C	1.417598	-1.047462	-0.552810
C52	C	1.917598	-0.547462	-0.052810
C53	C	1.370463	-0.976834	-0.376714
C54	C	1.870463	-0.476834	0.123286
C55	C	1.482026	-0.976632	-0.488431
C56	C	1.982026	-0.476632	0.011569
C57	C	1.458559	-1.047465	-0.400353
C58	C	1.958559	-0.547465	0.099647
C59	C	1.645605	-0.512696	-0.464781
C60	C	2.145605	-0.012696	0.035219
C61	C	1.752819	-0.512703	-0.464791
C62	C	2.252819	-0.012703	0.035209
C63	C	1.394071	-0.512592	-0.716352
C64	C	1.894071	-0.012592	-0.216352
C65	C	1.394096	-0.512554	-0.823566
C66	C	1.894096	-0.012554	-0.323566
C67	C	1.394102	-0.235060	-0.464789
C68	C	1.894102	0.264940	0.035211
C69	C	1.394140	-0.116755	-0.464802
C70	C	1.894140	0.383245	0.035198
C71	C	1.394116	-0.512524	-0.910636
C72	C	1.894116	-0.012524	-0.410636
C73	C	1.394144	-0.512476	-1.019868
C74	C	1.894144	-0.012476	-0.519868
C75	C	1.394009	-0.512693	-0.214145
C76	C	1.894009	-0.012693	0.285855
C77	C	1.394170	-0.512432	-0.106931
C78	C	1.894170	-0.012432	0.393069
H79	H	1.274990	-0.945760	-0.583543
H80	H	1.774990	-0.445760	-0.083543
Br81	Br	1.182111	-1.099650	-0.407810
Br82	Br	1.682111	-0.599650	0.092190
H83	H	1.513104	-1.078301	-0.345847
H84	H	2.013104	-0.578301	0.154153
Br85	Br	1.605960	-0.924596	-0.521811
Br86	Br	2.105960	-0.424596	-0.021811
Br87	Br	1.337159	-0.925347	-0.252609
Br88	Br	1.837159	-0.425347	0.247391
Br89	Br	1.450761	-1.099180	-0.676874
Br90	Br	1.950761	-0.599180	-0.176874
