data_functionalizedCrystal
_audit_creation_method	'MofGen! by Chris Wilmer'
_symmetry_space_group_name_H-M	'P1'
_symmetry_Int_Tables_number	1
_symmetry_cell_setting	triclinic
loop_
_symmetry_equiv_pos_as_xyz
  x,y,z
_cell_length_a	15.944551
_cell_length_b	13.448316
_cell_length_c	14.971486
_cell_angle_alpha	89.993189
_cell_angle_beta	83.556433
_cell_angle_gamma	89.997731
loop_
_atom_site_label
_atom_site_type_symbol
_atom_site_fract_x
_atom_site_fract_y
_atom_site_fract_z
O1	O	1.114636	-0.082589	0.115362
O2	O	0.870100	-0.082613	0.129585
O3	O	0.998923	-0.082593	-0.007734
O4	O	0.985814	-0.082609	0.252680
O5	O	0.998906	0.082791	-0.007742
O6	O	0.870084	0.082770	0.129576
O7	O	1.114620	0.082795	0.115354
Cu8	Cu	0.992351	0.097884	0.122464
Cu9	Cu	0.992370	-0.097702	0.122474
O10	O	0.985798	0.082775	0.252672
C11	C	0.838798	0.000075	0.128990
C12	C	0.745550	0.000066	0.127220
C13	C	0.530608	0.000091	0.037872
C14	C	0.469636	-0.081455	0.079366
C15	C	0.574821	0.000078	0.124017
C16	C	0.469642	0.081601	0.079379
C17	C	0.409905	0.000094	0.120918
C18	C	0.515077	-0.081535	0.165535
C19	C	0.515089	0.081594	0.165535
C20	C	0.454134	0.000029	0.207092
C21	C	0.669825	0.000068	0.125801
C22	C	0.314903	0.000097	0.119141
C23	C	0.998328	0.000098	-0.041062
C24	C	0.996572	0.000097	-0.140357
C25	C	1.145923	0.000104	0.115948
C26	C	1.239171	0.000107	0.117718
N27	N	0.992343	0.235448	0.122456
N28	N	0.992384	-0.235266	0.122475
C29	C	1.049404	0.287497	0.061677
C30	C	1.049409	0.391600	0.061676
C31	C	0.992357	0.443653	0.122460
C32	C	0.935291	0.391596	0.183243
C33	C	0.935282	0.287495	0.183238
C34	C	0.935314	0.608576	0.183249
C35	C	0.935324	0.712685	0.183254
C36	C	1.049441	0.712682	0.061686
C37	C	1.049432	0.608581	0.061682
C38	C	0.992367	0.556531	0.122466
C39	C	1.072251	0.000106	-0.197664
C40	C	1.070595	0.000095	-0.290962
C41	C	0.993259	0.000084	-0.326951
C42	C	0.917574	0.000073	-0.269637
C43	C	0.919230	0.000076	-0.176341
C44	C	0.914127	0.000069	-0.464095
C45	C	0.912470	0.000067	-0.557398
C46	C	1.065491	0.000088	-0.578717
C47	C	1.067148	0.000091	-0.485421
C48	C	0.991462	0.000082	-0.428113
C49	C	0.986392	0.000081	0.286000
C50	C	0.988149	0.000076	0.385295
H51	H	1.095865	0.245123	0.012183
C52	C	1.112160	0.448850	-0.005208
N53	N	1.159418	0.491970	-0.055596
C54	C	1.112210	0.769938	-0.005180
N55	N	1.159488	0.813068	-0.055540
H56	H	0.535106	-0.150550	0.201947
H57	H	1.132222	0.000104	-0.337618
C58	C	0.872559	0.769940	0.250114
N59	N	0.825283	0.813064	0.300473
H60	H	1.095892	0.566200	0.012192
H61	H	0.535248	0.150534	0.201937
H62	H	0.449514	0.150539	0.042923
C63	C	1.157328	0.000118	-0.158086
N64	N	1.221411	0.000123	-0.128279
C65	C	0.872530	0.551324	0.250105
N66	N	0.825242	0.508202	0.300460
C67	C	0.575516	-0.000012	-0.058725
N68	N	0.609342	-0.000095	-0.131481
C69	C	1.152222	0.000109	-0.445835
N70	N	1.216300	0.000119	-0.416020
C71	C	0.827396	0.000042	-0.596983
N72	N	0.763317	0.000020	-0.626799
H73	H	0.888834	0.433983	0.232731
H74	H	0.888817	0.245117	0.232730
C75	C	0.830868	0.000063	-0.401058
N76	N	0.768158	0.000066	-0.353579
H77	H	1.127118	0.000093	-0.625382
C78	C	0.409423	-0.000040	0.303773
N79	N	0.375743	-0.000097	0.376591
H80	H	0.857604	0.000069	-0.129681
C81	C	0.442423	-0.174581	0.030147
N82	N	0.421928	-0.244719	-0.006931
H83	H	0.854605	0.000057	-0.298946
