data_functionalizedCrystal
_audit_creation_method	'MofGen! by Chris Wilmer'
_symmetry_space_group_name_H-M	'P1'
_symmetry_Int_Tables_number	1
_symmetry_cell_setting	triclinic
loop_
_symmetry_equiv_pos_as_xyz
  x,y,z
_cell_length_a	12.759400
_cell_length_b	12.759401
_cell_length_c	18.215399
_cell_angle_alpha	89.985449
_cell_angle_beta	90.026955
_cell_angle_gamma	89.987166
loop_
_atom_site_label
_atom_site_type_symbol
_atom_site_fract_x
_atom_site_fract_y
_atom_site_fract_z
Zn1	Zn	-0.418304	-1.606204	0.416089
Zn2	Zn	-0.594009	-1.606113	0.293030
Zn3	Zn	-0.418339	-1.430521	0.293041
Zn4	Zn	-0.593936	-1.430494	0.416059
O5	O	-0.506147	-1.518333	0.354555
O6	O	-0.441628	-1.753213	0.399772
O7	O	-0.570751	-1.582794	0.190047
O8	O	-0.271313	-1.453875	0.309380
O9	O	-0.570717	-1.753146	0.309361
O10	O	-0.271288	-1.582948	0.399783
O11	O	-0.441687	-1.453787	0.190055
O12	O	-0.441616	-1.283496	0.309352
O13	O	-0.570593	-1.453829	0.519048
O14	O	-0.570626	-1.283477	0.399733
O15	O	-0.441557	-1.582922	0.519069
O16	O	-0.741020	-1.582768	0.309333
O17	O	-0.740967	-1.453742	0.399722
C18	C	-0.506118	-1.245366	0.354541
C19	C	-0.506131	-1.128589	0.354553
C20	C	-0.573412	-1.073744	0.401536
C21	C	-0.573422	-0.964020	0.401542
C22	C	-0.438865	-0.963995	0.307577
C23	C	-0.438851	-1.073717	0.307574
C24	C	-0.651100	-1.073758	0.455784
C25	C	-0.651110	-0.964034	0.455790
C26	C	-0.779114	-1.518271	0.354539
C27	C	-0.895891	-1.518340	0.354557
C28	C	-0.950746	-1.585599	0.307544
C29	C	-1.060470	-1.585663	0.307566
C30	C	-1.060474	-1.451201	0.401619
C31	C	-0.950752	-1.451143	0.401599
C32	C	-0.950744	-1.663226	0.253241
C33	C	-1.060468	-1.663291	0.253264
C34	C	-0.232114	-1.518424	0.354586
C35	C	-0.115337	-1.518463	0.354600
C36	C	-0.506063	-1.518383	0.546508
C37	C	-0.506027	-1.518404	0.628307
C38	C	-0.506168	-0.792366	0.354565
C39	C	-0.506154	-0.909143	0.354562
C40	C	-0.506155	-1.518344	0.163348
C41	C	-0.505894	-1.518526	0.081550
C42	C	-0.438778	-1.451287	0.816506
C43	C	-0.438757	-1.451305	0.893365
C44	C	-0.573151	-1.585647	0.893345
C45	C	-0.573176	-1.585622	0.816488
C46	C	-0.505984	-1.518444	0.778070
C47	C	-0.505937	-1.518486	0.931786
C48	C	-0.505915	-1.518507	1.015120
C49	C	-0.506008	-1.518422	0.694731
H50	H	-0.622071	-0.930029	0.509973
Br51	Br	-0.347514	-1.148147	0.243826
H52	H	-1.105156	-1.396493	0.439919
H53	H	-0.732457	-0.934240	0.440427
H54	H	-0.384032	-1.396618	0.924656
Br55	Br	-0.900976	-1.798796	0.278752
Br56	Br	-0.347559	-0.889520	0.243826
Br57	Br	-0.614952	-1.123439	0.550824
H58	H	-0.916790	-1.634108	0.199076
H59	H	-0.906090	-1.396385	0.439888
H60	H	-0.728351	-1.107775	0.435271
Br61	Br	-1.110239	-1.627078	0.158255
Br62	Br	-1.117065	-1.792116	0.287386
H63	H	-0.384066	-1.396585	0.785228
H64	H	-0.627856	-1.640342	0.924634
Br65	Br	-0.664399	-1.676763	0.764320
