data_functionalizedCrystal
_audit_creation_method	'MofGen! by Chris Wilmer'
_symmetry_space_group_name_H-M	'P1'
_symmetry_Int_Tables_number	1
_symmetry_cell_setting	triclinic
loop_
_symmetry_equiv_pos_as_xyz
  x,y,z
_cell_length_a	12.759401
_cell_length_b	12.759400
_cell_length_c	12.759393
_cell_angle_alpha	90.030452
_cell_angle_beta	90.019676
_cell_angle_gamma	90.014999
loop_
_atom_site_label
_atom_site_type_symbol
_atom_site_fract_x
_atom_site_fract_y
_atom_site_fract_z
Zn1	Zn	1.606267	-0.418204	0.593985
Zn2	Zn	2.106267	0.081796	1.093985
Zn3	Zn	1.606159	-0.593919	0.418305
Zn4	Zn	2.106159	-0.093919	0.918305
Zn5	Zn	1.430566	-0.418256	0.418324
Zn6	Zn	1.930566	0.081744	0.918324
Zn7	Zn	1.430558	-0.593842	0.593946
Zn8	Zn	1.930558	-0.093842	1.093946
O9	O	1.518388	-0.506055	0.506140
O10	O	2.018388	-0.006055	1.006140
O11	O	1.753274	-0.441523	0.570689
O12	O	2.253274	0.058477	1.070689
O13	O	1.582824	-0.570671	0.271287
O14	O	2.082824	-0.070671	0.771287
O15	O	1.453922	-0.271228	0.441650
O16	O	1.953922	0.228772	0.941650
O17	O	1.753194	-0.570620	0.441618
O18	O	2.253194	-0.070620	0.941618
O19	O	1.583009	-0.271189	0.570707
O20	O	2.083009	0.228811	1.070707
O21	O	1.453817	-0.441612	0.271300
O22	O	1.953817	0.058388	0.771300
O23	O	1.283544	-0.441538	0.441612
O24	O	1.783544	0.058462	0.941612
O25	O	1.453909	-0.570489	0.740973
O26	O	1.953909	-0.070489	1.240973
O27	O	1.283538	-0.570540	0.570641
O28	O	1.783538	-0.070540	1.070641
O29	O	1.583001	-0.441448	0.741001
O30	O	2.083001	0.058552	1.241001
O31	O	1.582816	-0.740930	0.441580
O32	O	2.082816	-0.240930	0.941580
O33	O	1.453803	-0.740874	0.570623
O34	O	1.953803	-0.240874	1.070623
C35	C	1.245420	-0.506037	0.506125
C36	C	1.745420	-0.006037	1.006125
C37	C	1.128644	-0.506055	0.506144
C38	C	1.628644	-0.006055	1.006144
C39	C	1.073824	-0.438955	0.573455
C40	C	1.573824	0.061045	1.073455
C41	C	0.964100	-0.438966	0.573462
C42	C	1.464100	0.061034	1.073462
C43	C	0.964025	-0.573185	0.438844
C44	C	1.464025	-0.073185	0.938844
C45	C	1.073747	-0.573168	0.438832
C46	C	1.573747	-0.073168	0.938832
C47	C	1.518326	-0.779023	0.506118
C48	C	2.018326	-0.279023	1.006118
C49	C	1.518395	-0.895799	0.506144
C50	C	2.018395	-0.395799	1.006144
C51	C	1.585711	-1.060387	0.439060
C52	C	2.085711	-0.560387	0.939060
C53	C	1.585648	-0.950663	0.439027
C54	C	2.085648	-0.450663	0.939027
C55	C	1.451194	-0.950665	0.573292
C56	C	1.951194	-0.450665	1.073292
C57	C	1.451252	-1.060387	0.573319
C58	C	1.951252	-0.560387	1.073319
C59	C	1.792421	-0.506074	0.506156
C60	C	2.292421	-0.006074	1.006156
C61	C	1.909197	-0.506082	0.506162
C62	C	2.409197	-0.006082	1.006162
C63	C	1.518466	-0.505954	0.780174
C64	C	2.018466	-0.005954	1.280174
C65	C	1.518500	-0.505911	0.896950
C66	C	2.018500	-0.005911	1.396950
C67	C	1.518478	-0.232022	0.506185
C68	C	2.018478	0.267978	1.006185
C69	C	1.518517	-0.115245	0.506204
C70	C	2.018517	0.384755	1.006204
C71	C	1.518370	-0.506080	0.233173
C72	C	2.018370	-0.006080	0.733173
C73	C	1.518540	-0.505827	0.116397
C74	C	2.018540	-0.005827	0.616397
C75	C	1.585723	-0.438709	0.951829
C76	C	2.085723	0.061291	1.451829
C77	C	1.585741	-0.438664	1.061553
C78	C	2.085741	0.061336	1.561553
C79	C	1.451309	-0.573032	1.061511
C80	C	1.951309	-0.073032	1.561511
C81	C	1.451287	-0.573072	0.951788
C82	C	1.951287	-0.073072	1.451788
H83	H	0.919315	-0.627827	0.384042
H84	H	1.419315	-0.127827	0.884042
H85	H	1.118517	-0.384304	0.628261
H86	H	1.618517	0.115696	1.128261
N87	N	0.904971	-0.366583	0.646049
N88	N	1.404971	0.133417	1.146049
H89	H	0.956401	-0.324064	0.688682
H90	H	1.456401	0.175936	1.188682
H91	H	0.859455	-0.409404	0.694601
H92	H	1.359455	0.090596	1.194601
H93	H	1.640479	-0.383939	1.106230
H94	H	2.140479	0.116061	1.606230
N95	N	1.378831	-0.645464	1.120677
N96	N	1.878831	-0.145464	1.620677
H97	H	1.395113	-0.720542	1.101576
H98	H	1.895113	-0.220542	1.601576
H99	H	1.303793	-0.629057	1.101559
H100	H	1.803793	-0.129057	1.601559
N101	N	1.132884	-0.645535	0.366222
N102	N	1.632884	-0.145535	0.866222
H103	H	1.081460	-0.688058	0.323586
H104	H	1.581460	-0.188058	0.823586
H105	H	1.178426	-0.694200	0.408895
H106	H	1.678426	-0.194200	0.908895
N107	N	1.378756	-0.645536	0.892588
N108	N	1.878756	-0.145536	1.392588
H109	H	1.336180	-0.688076	0.943975
H110	H	1.836180	-0.188076	1.443975
H111	H	1.421479	-0.694181	0.847050
H112	H	1.921479	-0.194181	1.347050
N113	N	1.658246	-1.119566	0.366671
N114	N	2.158246	-0.619566	0.866671
H115	H	1.733295	-1.100399	0.383043
H116	H	2.233295	-0.600399	0.883043
H117	H	1.641864	-1.100521	0.291615
H118	H	2.141864	-0.600521	0.791615
N119	N	1.658125	-0.891493	0.366610
N120	N	2.158125	-0.391493	0.866610
H121	H	1.700744	-0.942898	0.324102
H122	H	2.200744	-0.442898	0.824102
H123	H	1.706694	-0.845896	0.409413
H124	H	2.206694	-0.345896	0.909413
H125	H	1.396430	-0.905989	0.627937
H126	H	1.896430	-0.405989	1.127937
N127	N	1.378766	-1.119566	0.645733
N128	N	1.878766	-0.619566	1.145733
H129	H	1.336149	-1.068166	0.688250
H130	H	1.836149	-0.568166	1.188250
H131	H	1.421527	-1.165023	0.694401
H132	H	1.921527	-0.665023	1.194401
N133	N	1.658212	-0.366275	0.892680
N134	N	2.158212	0.133725	1.392680
H135	H	1.700799	-0.323695	0.944099
H136	H	2.200799	0.176305	1.444099
H137	H	1.615455	-0.317667	0.847156
H138	H	2.115455	0.182333	1.347156
