data_functionalizedCrystal
_audit_creation_method	'MofGen! by Chris Wilmer'
_symmetry_space_group_name_H-M	'P1'
_symmetry_Int_Tables_number	1
_symmetry_cell_setting	triclinic
loop_
_symmetry_equiv_pos_as_xyz
  x,y,z
_cell_length_a	14.044191
_cell_length_b	11.026607
_cell_length_c	9.482944
_cell_angle_alpha	81.873049
_cell_angle_beta	99.639312
_cell_angle_gamma	79.111103
loop_
_atom_site_label
_atom_site_type_symbol
_atom_site_fract_x
_atom_site_fract_y
_atom_site_fract_z
O1	O	1.324996	-0.316745	0.120814
O2	O	1.824996	0.183255	0.620814
O3	O	1.047193	-0.305983	0.120833
O4	O	1.547193	0.194017	0.620833
O5	O	1.163070	-0.132218	0.120820
O6	O	1.663070	0.367782	0.620820
O7	O	1.209119	-0.490511	0.120827
O8	O	1.709119	0.009489	0.620827
O9	O	1.130193	-0.094916	-0.120971
O10	O	1.630193	0.405084	0.379029
O11	O	1.014316	-0.268682	-0.120958
O12	O	1.514316	0.231318	0.379042
O13	O	1.292119	-0.279444	-0.120977
O14	O	1.792119	0.220556	0.379023
Cu15	Cu	1.150216	-0.270657	-0.143045
Cu16	Cu	1.650216	0.229343	0.356955
Cu17	Cu	1.189096	-0.314770	0.142901
Cu18	Cu	1.689096	0.185230	0.642901
O19	O	1.176242	-0.453210	-0.120963
O20	O	1.676242	0.046790	0.379037
C21	C	0.994636	-0.282624	-0.000060
C22	C	1.494636	0.217376	0.499940
C23	C	0.887014	-0.268577	-0.000053
C24	C	1.387014	0.231423	0.499947
C25	C	0.649344	-0.342521	-0.000066
C26	C	1.149344	0.157479	0.499934
C27	C	0.689977	-0.242914	-0.000065
C28	C	1.189977	0.257086	0.499935
C29	C	0.799619	-0.257196	-0.000058
C30	C	1.299619	0.242804	0.499942
C31	C	0.539692	-0.328240	-0.000073
C32	C	1.039692	0.171760	0.499927
C33	C	1.138136	-0.067437	-0.000073
C34	C	1.638136	0.432563	0.499927
C35	C	1.112813	0.070018	-0.000066
C36	C	1.612813	0.570018	0.499934
C37	C	1.344676	-0.302804	-0.000080
C38	C	1.844676	0.197196	0.499920
C39	C	1.452299	-0.316852	-0.000078
C40	C	1.952299	0.183148	0.499922
C41	C	1.201176	-0.517991	-0.000067
C42	C	1.701176	-0.017991	0.499933
C43	C	1.226501	-0.655448	-0.000064
C44	C	1.726501	-0.155448	0.499936
N45	N	1.122876	-0.239630	-0.344163
N46	N	1.622876	0.260370	0.155837
C47	C	1.182737	0.136253	-0.000069
C48	C	1.682737	0.636253	0.499931
C49	C	1.156566	0.278320	-0.000062
C50	C	1.656566	0.778320	0.499938
C51	C	1.181025	-0.305617	-0.416365
C52	C	1.681025	0.194383	0.083635
C53	C	1.158284	-0.279791	-0.583782
C54	C	1.658284	0.220209	-0.083782
N55	N	1.216442	-0.345788	0.344020
N56	N	1.716442	0.154212	0.844020
H57	H	1.261977	0.087784	-0.000083
H58	H	1.761977	0.587784	0.499917
H59	H	0.696898	-0.438517	-0.000059
H60	H	1.196898	0.061483	0.499941
C61	C	1.049507	0.343791	-0.000057
C62	C	1.549507	0.843791	0.499943
N63	N	0.968872	0.393107	-0.000057
N64	N	1.468872	0.893107	0.499943
C65	C	1.333560	0.279085	-0.000074
C66	C	1.833560	0.779085	0.499926
N67	N	1.414195	0.229774	-0.000082
N68	N	1.914195	0.729774	0.499918
C69	C	1.005759	0.135495	-0.000061
C70	C	1.505759	0.635495	0.499939
N71	N	0.925124	0.184810	-0.000061
N72	N	1.425124	0.684810	0.499939
H73	H	1.283069	-0.421404	-0.593859
H74	H	1.783069	0.078596	-0.093859
H75	H	1.247648	-0.381226	-0.354237
H76	H	1.747648	0.118774	0.145763
H77	H	1.091662	-0.204170	-0.645905
H78	H	1.591662	0.295830	-0.145905
C79	C	1.032872	-0.137479	-0.428089
C80	C	1.532872	0.362521	0.071911
N81	N	0.965078	-0.060538	-0.491300
N82	N	1.465078	0.439462	0.008700
H83	H	0.642434	-0.146927	0.000035
H84	H	1.142434	0.353073	0.500035
