data_functionalizedCrystal
_audit_creation_method	'MofGen! by Chris Wilmer'
_symmetry_space_group_name_H-M	'P1'
_symmetry_Int_Tables_number	1
_symmetry_cell_setting	triclinic
loop_
_symmetry_equiv_pos_as_xyz
  x,y,z
_cell_length_a	13.897441
_cell_length_b	13.897449
_cell_length_c	13.897448
_cell_angle_alpha	90.018972
_cell_angle_beta	90.030599
_cell_angle_gamma	90.020733
loop_
_atom_site_label
_atom_site_type_symbol
_atom_site_fract_x
_atom_site_fract_y
_atom_site_fract_z
Zn1	Zn	-0.545381	-1.474703	0.383951
Zn2	Zn	-0.045381	-0.974703	0.883951
Zn3	Zn	-0.384083	-1.474597	0.545273
Zn4	Zn	0.115917	-0.974597	1.045273
Zn5	Zn	-0.384100	-1.313392	0.383997
Zn6	Zn	0.115900	-0.813392	0.883997
Zn7	Zn	-0.545335	-1.313373	0.545210
Zn8	Zn	-0.045335	-0.813373	1.045210
O9	O	-0.464725	-1.394016	0.464608
O10	O	0.035275	-0.894016	0.964608
O11	O	-0.523997	-1.609670	0.405358
O12	O	-0.023997	-1.109670	0.905358
O13	O	-0.249103	-1.453176	0.523925
O14	O	0.250897	-0.953176	1.023925
O15	O	-0.405520	-1.334842	0.249009
O16	O	0.094480	-0.834842	0.749009
O17	O	-0.405491	-1.609592	0.523881
O18	O	0.094509	-1.109592	1.023881
O19	O	-0.524013	-1.453356	0.248976
O20	O	-0.024013	-0.953356	0.748976
O21	O	-0.249116	-1.334739	0.405436
O22	O	0.250884	-0.834739	0.905436
O23	O	-0.405476	-1.178408	0.405375
O24	O	0.094524	-0.678408	0.905375
O25	O	-0.680323	-1.334811	0.523773
O26	O	-0.180323	-0.834811	1.023773
O27	O	-0.523935	-1.178394	0.523817
O28	O	-0.023935	-0.678394	1.023817
O29	O	-0.680357	-1.453339	0.405297
O30	O	-0.180357	-0.953339	0.905297
O31	O	-0.405447	-1.453158	0.680246
O32	O	0.094553	-0.953158	1.180246
O33	O	-0.523918	-1.334708	0.680200
O34	O	-0.023918	-0.834708	1.180200
C35	C	-0.464703	-1.143402	0.464595
C36	C	0.035297	-0.643402	0.964595
C37	C	-0.464716	-1.036188	0.464613
C38	C	0.035284	-0.536188	0.964613
C39	C	-0.716318	-1.394085	0.464522
C40	C	-0.216318	-0.894085	0.964522
C41	C	-0.823532	-1.394114	0.464486
C42	C	-0.323532	-0.894114	0.964486
C43	C	-0.464697	-1.393946	0.715222
C44	C	0.035303	-0.893946	1.215222
C45	C	-0.464717	-1.394004	0.822436
C46	C	0.035283	-0.894004	1.322436
C47	C	-1.019827	-1.394140	0.464421
C48	C	-0.519827	-0.894140	0.964421
C49	C	-0.910594	-1.394122	0.464460
C50	C	-0.410594	-0.894122	0.964460
C51	C	-0.214110	-1.394003	0.464623
C52	C	0.285890	-0.894003	0.964623
C53	C	-0.106897	-1.394161	0.464388
C54	C	0.393103	-0.894161	0.964388
C55	C	-0.464747	-1.645609	0.464621
C56	C	0.035253	-1.145609	0.964621
C57	C	-0.464757	-1.752823	0.464627
C58	C	0.035243	-1.252823	0.964627
C59	C	-0.464741	-0.839893	0.464616
C60	C	0.035259	-0.339893	0.964616
C61	C	-0.464725	-0.949125	0.464611
C62	C	0.035275	-0.449125	0.964611
C63	C	-0.464774	-1.394113	0.213015
C64	C	0.035226	-0.894113	0.713015
C65	C	-0.464795	-1.394154	0.105801
C66	C	0.035205	-0.894154	0.605801
C67	C	-0.464778	-1.394105	1.018731
C68	C	0.035222	-0.894105	1.518731
C69	C	-0.464747	-1.394046	0.909499
C70	C	0.035253	-0.894046	1.409499
