data_functionalizedCrystal
_audit_creation_method	'MofGen! by Chris Wilmer'
_symmetry_space_group_name_H-M	'P1'
_symmetry_Int_Tables_number	1
_symmetry_cell_setting	triclinic
loop_
_symmetry_equiv_pos_as_xyz
  x,y,z
_cell_length_a	12.827893
_cell_length_b	12.827892
_cell_length_c	12.827885
_cell_angle_alpha	89.970024
_cell_angle_beta	89.980728
_cell_angle_gamma	90.015362
loop_
_atom_site_label
_atom_site_type_symbol
_atom_site_fract_x
_atom_site_fract_y
_atom_site_fract_z
Zn1	Zn	1.597670	-0.415981	-0.590849
Zn2	Zn	1.597564	-0.590759	-0.416109
Zn3	Zn	1.422911	-0.416033	-0.416122
Zn4	Zn	1.422896	-0.590681	-0.590809
O5	O	1.510260	-0.503364	-0.503472
O6	O	1.743892	-0.439177	-0.567680
O7	O	1.574357	-0.567636	-0.269875
O8	O	1.446144	-0.269790	-0.439322
O9	O	1.743814	-0.567586	-0.439300
O10	O	1.574538	-0.269752	-0.567693
O11	O	1.446041	-0.439265	-0.269884
O12	O	1.276673	-0.439189	-0.439284
O13	O	1.446118	-0.567452	-0.737050
O14	O	1.276662	-0.567502	-0.567625
O15	O	1.574524	-0.439101	-0.737080
O16	O	1.574343	-0.736985	-0.439261
O17	O	1.446016	-0.736927	-0.567612
C18	C	1.238750	-0.503343	-0.503452
C19	C	1.122597	-0.503360	-0.503469
C20	C	1.070835	-0.566953	-0.566878
C21	C	0.950784	-0.566971	-0.566896
C22	C	1.510195	-0.774873	-0.503454
C23	C	1.510262	-0.891027	-0.503481
C24	C	1.573838	-0.942805	-0.440039
C25	C	1.573910	-1.062855	-0.440066
C26	C	1.782830	-0.503385	-0.503493
C27	C	1.898983	-0.503393	-0.503502
C28	C	1.510331	-0.503262	-0.776043
C29	C	1.510362	-0.503219	-0.892196
C30	C	1.510354	-0.230793	-0.503514
C31	C	1.510394	-0.114640	-0.503531
C32	C	1.573864	-0.566715	-0.943976
C33	C	1.573896	-0.566672	-1.064026
C34	C	1.510249	-0.503389	-0.231962
C35	C	1.510422	-0.503138	-0.115810
H36	H	0.906270	-0.621418	-0.621181
O37	O	1.129854	-0.639051	-0.638777
H38	H	1.073675	-0.685631	-0.685235
O39	O	1.645878	-0.883797	-0.368078
H40	H	1.628049	-0.904755	-0.286026
O41	O	1.645850	-0.638766	-0.884975
H42	H	1.727897	-0.620853	-0.905866
H43	H	1.456024	-0.448822	-0.936742
H44	H	1.455890	-0.935574	-0.557819
H45	H	1.628262	-0.621034	-1.108556
H46	H	1.456049	-0.448777	-1.071287
H47	H	1.078036	-0.448926	-0.449199
O48	O	0.957922	-0.431268	-0.431576
H49	H	1.007674	-0.378184	-0.478470
H50	H	1.628336	-1.107384	-0.385748
H51	H	1.455957	-1.070120	-0.557845
