data_functionalizedCrystal
_audit_creation_method	'MofGen! by Chris Wilmer'
_symmetry_space_group_name_H-M	'P1'
_symmetry_Int_Tables_number	1
_symmetry_cell_setting	triclinic
loop_
_symmetry_equiv_pos_as_xyz
  x,y,z
_cell_length_a	34.408637
_cell_length_b	34.407814
_cell_length_c	34.404193
_cell_angle_alpha	60.004510
_cell_angle_beta	60.009006
_cell_angle_gamma	59.994604
loop_
_atom_site_label
_atom_site_type_symbol
_atom_site_fract_x
_atom_site_fract_y
_atom_site_fract_z
O1	O	0.053973	-0.567860	0.474801
O2	O	0.553973	-0.067860	0.974801
O3	O	0.020377	-0.442124	0.382567
O4	O	0.520377	0.057876	0.882567
O5	O	0.100004	-0.521670	0.382483
O6	O	0.600004	-0.021670	0.882483
O7	O	-0.025653	-0.488314	0.474886
O8	O	0.474347	0.011686	0.974886
O9	O	0.126426	-0.495253	0.408816
O10	O	0.626426	0.004747	0.908816
O11	O	0.046800	-0.415707	0.408900
O12	O	0.546800	0.084293	0.908900
O13	O	0.080396	-0.541443	0.501134
O14	O	0.580396	-0.041443	1.001134
Zn15	Zn	0.067793	-0.474381	0.459198
Zn16	Zn	0.567793	0.025619	0.959198
Zn17	Zn	0.032980	-0.509186	0.424503
Zn18	Zn	0.532980	-0.009186	0.924503
O19	O	0.000769	-0.461897	0.501219
O20	O	0.500769	0.038103	1.001219
N21	N	0.091552	-0.450631	0.482879
N22	N	0.591552	0.049369	0.982879
N23	N	0.009225	-0.532940	0.400823
N24	N	0.509225	-0.032940	0.900823
C25	C	0.142848	-0.268847	0.534081
C26	C	0.642848	0.231153	1.034081
C27	C	0.142979	-0.399386	0.664559
C28	C	0.642979	0.100614	1.164559
C29	C	0.142862	-0.399365	0.534081
C30	C	0.642862	0.100635	1.034081
C31	C	0.273409	-0.399338	0.533986
C32	C	0.773409	0.100662	1.033986
C33	C	0.157225	-0.311914	0.548422
C34	C	0.657225	0.188086	1.048422
C35	C	0.157300	-0.385019	0.621491
C36	C	0.657300	0.114981	1.121491
C37	C	0.230339	-0.384991	0.548370
C38	C	0.730339	0.115009	1.048370
C39	C	0.157235	-0.385007	0.548422
C40	C	0.657235	0.114993	1.048422
C41	C	0.124548	-0.214028	0.515827
C42	C	0.624548	0.285972	1.015827
C43	C	0.124571	-0.417639	0.515827
C44	C	0.624571	0.082361	1.015827
C45	C	0.175526	-0.366733	0.566676
C46	C	0.675526	0.133267	1.066676
C47	C	0.353121	-0.385580	0.491988
C48	C	0.853121	0.114420	0.991988
C49	C	0.402952	-0.402180	0.475348
C50	C	0.902952	0.097820	0.975348
C51	C	0.402981	-0.482812	0.506096
C52	C	0.902981	0.017188	1.006096
C53	C	0.353151	-0.466211	0.522737
C54	C	0.853151	0.033789	1.022737
C55	C	0.136544	-0.189099	0.466839
C56	C	0.636544	0.310901	0.966839
C57	C	0.119905	-0.139265	0.450247
C58	C	0.619905	0.360735	0.950247
C59	C	0.079280	-0.139291	0.531632
C60	C	0.579280	0.360709	1.031632
C61	C	0.095918	-0.189125	0.548224
C62	C	0.595918	0.310875	1.048224
C63	C	0.075577	-0.405615	0.527900
C64	C	0.575577	0.094385	1.027900
C65	C	0.058953	-0.422228	0.511301
C66	C	0.558953	0.077772	1.011301
C67	C	0.140315	-0.462889	0.470566
C68	C	0.640315	0.037111	0.970566
C69	C	0.156941	-0.446276	0.487159
C70	C	0.656941	0.053724	0.987159
C71	C	0.075772	-0.405653	0.744326
C72	C	0.575772	0.094347	1.244326
C73	C	0.059206	-0.422280	0.794159
C74	C	0.559206	0.077720	1.294159
C75	C	0.140607	-0.462951	0.794094
C76	C	0.640607	0.037049	1.294094
C77	C	0.157172	-0.446325	0.744260
C78	C	0.657172	0.053675	1.244260
C79	C	0.124753	-0.417674	0.719377
C80	C	0.624753	0.082326	1.219377
C81	C	0.328223	-0.417595	0.515681
C82	C	0.828223	0.082405	1.015681
C83	C	-0.172390	-0.583988	0.349141
C84	C	0.327610	-0.083988	0.849141
C85	C	-0.041751	-0.584138	0.218783
C86	C	0.458249	-0.084138	0.718783
C87	C	-0.041941	-0.584130	0.349402
C88	C	0.458059	-0.084130	0.849402
C89	C	-0.041957	-0.714607	0.349338
C90	C	0.458043	-0.214607	0.849338
C91	C	-0.129326	-0.598388	0.334853
C92	C	0.370674	-0.098388	0.834853
C93	C	-0.056165	-0.598473	0.261852
C94	C	0.443835	-0.098473	0.761852
C95	C	-0.056282	-0.671535	0.334962
C96	C	0.443718	-0.171535	0.834962
C97	C	-0.056272	-0.598469	0.334999
C98	C	0.443728	-0.098469	0.834999
C99	C	-0.227205	-0.565659	0.367327
C100	C	0.272795	-0.065659	0.867327
C101	C	-0.023703	-0.565882	0.367734
C102	C	0.476297	-0.065882	0.867734
C103	C	-0.074511	-0.616717	0.316667
C104	C	0.425489	-0.116717	0.816667
C105	C	-0.055754	-0.794298	0.391257
C106	C	0.444246	-0.294298	0.891257
C107	C	-0.039181	-0.844132	0.407888
C108	C	0.460819	-0.344132	0.907888
C109	C	0.041447	-0.844215	0.377269
C110	C	0.541447	-0.344215	0.877269
C111	C	0.024873	-0.794381	0.360637
C112	C	0.524873	-0.294381	0.860637
C113	C	-0.252183	-0.577666	0.416302
C114	C	0.247817	-0.077666	0.916302
C115	C	-0.302014	-0.561001	0.432833
C116	C	0.197986	-0.061001	0.932833
C117	C	-0.301886	-0.520329	0.351410
C118	C	0.198114	-0.020329	0.851410
C119	C	-0.252055	-0.536994	0.334880
C120	C	0.247945	-0.036994	0.834880
C121	C	-0.035709	-0.516892	0.355682
C122	C	0.464291	-0.016892	0.855682
C123	C	-0.019129	-0.500308	0.372353
C124	C	0.480871	-0.000308	0.872353
C125	C	0.021465	-0.581700	0.413115
C126	C	0.521465	-0.081700	0.913115
C127	C	0.004884	-0.598286	0.396450
C128	C	0.504884	-0.098286	0.896450
C129	C	-0.035389	-0.516907	0.139026
C130	C	0.464611	-0.016907	0.639026
C131	C	-0.018707	-0.500324	0.089193
C132	C	0.481293	-0.000324	0.589193
C133	C	0.021949	-0.581721	0.089240
C134	C	0.521949	-0.081721	0.589240
C135	C	0.005268	-0.598303	0.139074
C136	C	0.505268	-0.098303	0.639074
C137	C	-0.023402	-0.565894	0.163965
C138	C	0.476598	-0.065894	0.663965
C139	C	-0.023728	-0.769425	0.367633
C140	C	0.476272	-0.269425	0.867633
N141	N	0.427173	-0.450553	0.482630
N142	N	0.927173	0.049447	0.982630
O143	O	0.589997	-0.458460	0.365361
O144	O	1.089997	0.041540	0.865361
O145	O	0.590185	-0.550997	0.490963
O146	O	1.090185	-0.050997	0.990963
O147	O	0.590104	-0.550786	0.411309
O148	O	1.090104	-0.050786	0.911309
O149	O	0.590077	-0.458671	0.445016
O150	O	1.090077	0.041329	0.945016
O151	O	0.510940	-0.524462	0.437777
O152	O	1.010940	-0.024462	0.937777
O153	O	0.511020	-0.524674	0.517432
O154	O	1.011020	-0.024674	1.017432
O155	O	0.510832	-0.432136	0.391830
O156	O	1.010832	0.067864	0.891830
Zn157	Zn	0.498357	-0.474225	0.458833
Zn158	Zn	0.998357	0.025775	0.958833
Zn159	Zn	0.602660	-0.508908	0.423960
Zn160	Zn	1.102660	-0.008908	0.923960
O161	O	0.510913	-0.432348	0.471484
O162	O	1.010913	0.067652	0.971484
N163	N	0.673844	-0.532580	0.400158
N164	N	1.173844	-0.032580	0.900158
N165	N	0.091520	-0.115070	0.482873
N166	N	0.591520	0.384930	0.982873
O167	O	-0.025663	0.047841	0.474857
O168	O	0.474337	0.547841	0.974857
O169	O	0.099940	0.047877	0.382299
O170	O	0.599940	0.547877	0.882299
O171	O	0.020247	0.047844	0.382560
O172	O	0.520247	0.547844	0.882560
O173	O	0.054030	0.047874	0.474596
O174	O	0.554030	0.547874	0.974596
O175	O	0.046674	-0.031326	0.408942
O176	O	0.546674	0.468674	0.908942
O177	O	0.126367	-0.031293	0.408680
O178	O	0.626367	0.468707	0.908680
O179	O	0.000764	-0.031329	0.501238
O180	O	0.500764	0.468671	1.001238
Zn181	Zn	0.067761	-0.043881	0.459148
Zn182	Zn	0.567761	0.456119	0.959148
Zn183	Zn	0.032943	0.060429	0.424389
Zn184	Zn	0.532943	0.560429	0.924389
O185	O	0.080457	-0.031296	0.500977
O186	O	0.580457	0.468704	1.000977
N187	N	0.009178	0.131618	0.400665
N188	N	0.509178	0.631618	0.900665
N189	N	0.091852	-0.450680	0.818332
N190	N	0.591852	0.049320	1.318332
O191	O	0.083862	-0.567845	0.981235
O192	O	0.583862	-0.067845	1.481235
O193	O	-0.008657	-0.442198	0.981276
O194	O	0.491343	0.057802	1.481276
O195	O	-0.008441	-0.521875	0.981252
O196	O	0.491559	-0.021875	1.481252
O197	O	0.083646	-0.488168	0.981258
O198	O	0.583646	0.011832	1.481258
O199	O	0.017919	-0.495468	0.902085
O200	O	0.517919	0.004532	1.402085
O201	O	0.017703	-0.415791	0.902109
O202	O	0.517703	0.084209	1.402109
O203	O	0.110222	-0.541438	0.902067
O204	O	0.610222	-0.041438	1.402067
Zn205	Zn	0.068148	-0.474422	0.889518
Zn206	Zn	0.568148	0.025578	1.389518
Zn207	Zn	0.033417	-0.509214	0.993825
Zn208	Zn	0.533417	-0.009214	1.493825
O209	O	0.110006	-0.461761	0.902091
O210	O	0.610006	0.038239	1.402091
N211	N	0.009712	-0.532961	1.065011
N212	N	0.509712	-0.032961	1.565011
C213	C	0.030439	-0.413071	0.383027
C214	C	0.530439	0.086929	0.883027
C215	C	0.129046	-0.511580	0.382922
C216	C	0.629046	-0.011580	0.882922
C217	C	0.070334	-0.570496	0.500675
C218	C	0.570334	-0.070496	1.000675
C219	C	-0.028274	-0.471987	0.500780
C220	C	0.471726	0.028013	1.000780
C221	C	0.550625	-0.550579	0.520021
C222	C	1.050625	-0.050579	1.020021
C223	C	0.550527	-0.550317	0.421379
C224	C	1.050527	-0.050317	0.921379
C225	C	0.550389	-0.432554	0.362773
C226	C	1.050389	0.067446	0.862773
C227	C	0.550491	-0.432816	0.461414
C228	C	1.050491	0.067184	0.961414
C229	C	0.128944	0.008394	0.382712
C230	C	0.628944	0.508394	0.882712
C231	C	0.030287	0.008256	0.383068
C232	C	0.530287	0.508256	0.883068
C233	C	-0.028273	0.008252	0.500793
C234	C	0.471727	0.508252	1.000793
C235	C	0.070417	0.008292	0.500470
C236	C	0.570417	0.508292	1.000470
C237	C	-0.008218	-0.413165	0.941698
C238	C	0.491782	0.086835	1.441698
C239	C	-0.007945	-0.511830	0.941653
C240	C	0.492055	-0.011830	1.441653
C241	C	0.109783	-0.570471	0.941646
C242	C	0.609783	-0.070471	1.441646
C243	C	0.109516	-0.471800	0.941673
C244	C	0.609516	0.028200	1.441673
H245	H	0.049370	-0.382321	0.724071
H246	H	0.549370	0.117679	1.224071
O247	O	-0.042463	-0.520338	0.941548
O248	O	0.457537	-0.020338	1.441548
C249	C	-0.094340	-0.497430	0.900465
C250	C	0.405660	0.002570	1.400465
C251	C	-0.055259	-0.487736	0.900530
C252	C	0.444741	0.012264	1.400530
H253	H	-0.104690	-0.471084	0.867300
H254	H	0.395310	0.028916	1.367300
H255	H	-0.126861	-0.493152	0.933567
H256	H	0.373139	0.006848	1.433567
H257	H	-0.080375	-0.535261	0.900465
H258	H	0.419625	-0.035261	1.400465
H259	H	-0.069179	-0.449908	0.900512
H260	H	0.430821	0.050092	1.400512
H261	H	-0.022745	-0.492046	0.867430
H262	H	0.477255	0.007954	1.367430
H263	H	-0.037264	-0.377079	0.941710
H264	H	0.462736	0.122921	1.441710
O265	O	0.550708	-0.585193	0.563075
O266	O	1.050708	-0.085193	1.063075
C267	C	0.550765	-0.607316	0.641480
C268	C	1.050765	-0.107316	1.141480
C269	C	0.550682	-0.568078	0.592741
C270	C	1.050682	-0.068078	1.092741
H271	H	0.550734	-0.593490	0.665482
H272	H	1.050734	-0.093490	1.165482
H273	H	0.583922	-0.639766	0.636478
H274	H	1.083922	-0.139766	1.136478
H275	H	0.517662	-0.617734	0.658575
H276	H	1.017662	-0.117734	1.158575
H277	H	0.583763	-0.557619	0.575619
H278	H	1.083763	-0.057619	1.075619
H279	H	0.517503	-0.535654	0.597774
H280	H	1.017503	-0.035654	1.097774
H281	H	0.550540	-0.579254	0.414165
H282	H	1.050540	-0.079254	0.914165
H283	H	-0.064365	-0.464880	0.529794
H284	H	0.435635	0.035120	1.029794
H285	H	0.550329	-0.403500	0.326702
H286	H	1.050329	0.096500	0.826702
O287	O	0.078816	-0.613587	0.535253
O288	O	0.578816	-0.113587	1.035253
C289	C	0.055867	-0.683587	0.587233
C290	C	0.555867	-0.183587	1.087233
C291	C	0.046202	-0.634791	0.548084
C292	C	0.546202	-0.134791	1.048084
H293	H	0.029511	-0.700749	0.597612
H294	H	0.529511	-0.200749	1.097612
H295	H	0.051582	-0.678662	0.619725
H296	H	0.551582	-0.178662	1.119725
H297	H	0.093690	-0.707491	0.573320
H298	H	0.593690	-0.207491	1.073320
H299	H	0.008381	-0.610861	0.561952
H300	H	0.508381	-0.110861	1.061952
H301	H	0.050518	-0.639752	0.515600
H302	H	0.550518	-0.139752	1.015600
O303	O	0.144379	-0.613552	0.941650
O304	O	0.644379	-0.113552	1.441650
C305	C	0.166525	-0.691957	0.941589
C306	C	0.666525	-0.191957	1.441589
C307	C	0.127299	-0.643194	0.941598
C308	C	0.627299	-0.143194	1.441598
H309	H	0.152734	-0.715933	0.941537
H310	H	0.652734	-0.215933	1.441537
H311	H	0.176916	-0.709091	0.974725
H312	H	0.676916	-0.209091	1.474725
H313	H	0.198981	-0.686933	0.908462
H314	H	0.698981	-0.186933	1.408462
H315	H	0.094818	-0.648177	0.974702
H316	H	0.594818	-0.148177	1.474702
H317	H	0.116948	-0.626077	0.908440
H318	H	0.616948	-0.126077	1.408440
H319	H	0.550485	-0.403881	0.468626
H320	H	1.050485	0.096119	0.968626
O321	O	0.172133	-0.520128	0.348362
O322	O	0.672133	-0.020128	0.848362
C323	C	0.250511	-0.576530	0.326325
C324	C	0.750511	-0.076530	0.826325
C325	C	0.201741	-0.566909	0.365508
C326	C	0.701741	-0.066909	0.865508
H327	H	0.274458	-0.614354	0.340169
H328	H	0.774458	-0.114354	0.840169
H329	H	0.267668	-0.550155	0.315911
H330	H	0.767668	-0.050155	0.815911
H331	H	0.245497	-0.572209	0.293868
H332	H	0.745497	-0.072209	0.793868
H333	H	0.206713	-0.571236	0.397990
H334	H	0.706713	-0.071236	0.897990
H335	H	0.184600	-0.593281	0.375881
H336	H	0.684600	-0.093281	0.875881
O337	O	0.171905	0.008692	0.348003
O338	O	0.671905	0.508692	0.848003
C339	C	0.250201	0.009082	0.325712
C340	C	0.750201	0.509082	0.825712
C341	C	0.201565	0.008756	0.365058
C342	C	0.701565	0.508756	0.865058
H343	H	0.274198	0.009124	0.339490
H344	H	0.774198	0.509124	0.839490
H345	H	0.245015	0.042295	0.293355
H346	H	0.745015	0.542295	0.793355
H347	H	0.267406	-0.023969	0.315171
H348	H	0.767406	0.476031	0.815171
H349	H	0.184333	0.041784	0.375640
H350	H	0.684333	0.541784	0.875640
H351	H	0.206782	-0.024479	0.397389
H352	H	0.706782	0.475521	0.897389
H353	H	0.023050	0.008252	0.354152
H354	H	0.523050	0.508252	0.854152
H355	H	0.077653	0.008301	0.529384
H356	H	0.577653	0.508301	1.029384
O357	O	0.143987	-0.463112	0.941647
O358	O	0.643987	0.036888	1.441647
C359	C	0.165748	-0.406566	0.941683
C360	C	0.665748	0.093434	1.441683
C361	C	0.126672	-0.416338	0.941702
C362	C	0.626672	0.083662	1.441702
H363	H	0.151760	-0.368753	0.941737
H364	H	0.651760	0.131247	1.441737
H365	H	0.198228	-0.410786	0.908536
H366	H	0.698228	0.089214	1.408536
H367	H	0.176177	-0.432944	0.974799
H368	H	0.676177	0.067056	1.474799
H369	H	0.116203	-0.389969	0.908608
H370	H	0.616203	0.110031	1.408608
H371	H	0.094218	-0.412135	0.974870
H372	H	0.594218	0.087865	1.474870
O373	O	-0.071341	0.008332	0.535416
O374	O	0.428659	0.508332	1.035416
C375	C	-0.156026	0.049325	0.558425
C376	C	0.343974	0.549325	1.058425
C377	C	-0.107280	0.049296	0.519178
C378	C	0.392720	0.549296	1.019178
H379	H	-0.185097	0.082435	0.545307
H380	H	0.314903	0.582435	1.045307
H381	H	-0.156092	0.049364	0.591575
H382	H	0.343908	0.549364	1.091575
H383	H	-0.162976	0.016171	0.567438
H384	H	0.337024	0.516171	1.067438
H385	H	-0.100299	0.082443	0.510124
H386	H	0.399701	0.582443	1.010124
H387	H	-0.107238	0.049231	0.486053
H388	H	0.392762	0.549231	0.986053
O389	O	0.011608	-0.410532	0.818316
O390	O	0.511608	0.089468	1.318316
C391	C	-0.067380	-0.368452	0.813115
C392	C	0.432620	0.131548	1.313115
C393	C	-0.013488	-0.381709	0.785698
C394	C	0.486512	0.118291	1.285698
H395	H	-0.087685	-0.345154	0.786754
H396	H	0.412315	0.154846	1.286754
H397	H	-0.077198	-0.348141	0.836434
H398	H	0.422802	0.151859	1.336434
H399	H	-0.077152	-0.402280	0.836458
H400	H	0.422848	0.097720	1.336458
H401	H	-0.003677	-0.347906	0.762328
H402	H	0.496323	0.152094	1.262328
H403	H	-0.003699	-0.402038	0.762409
H404	H	0.496301	0.097962	1.262409
H405	H	0.197059	-0.456117	0.723950
H406	H	0.697059	0.043883	1.223950
O407	O	0.172163	-0.490791	0.818192
O408	O	0.672163	0.009209	1.318192
C409	C	0.254650	-0.529357	0.812868
C410	C	0.754650	-0.029357	1.312868
C411	C	0.218966	-0.497827	0.785519
C412	C	0.718966	0.002173	1.285519
H413	H	0.292498	-0.535048	0.786464
H414	H	0.792498	-0.035048	1.286464
H415	H	0.248965	-0.565228	0.836179
H416	H	0.748965	-0.065228	1.336179
H417	H	0.248899	-0.511108	0.836214
H418	H	0.748899	-0.011108	1.336214
H419	H	0.224695	-0.516035	0.762147
H420	H	0.724695	-0.016035	1.262147
H421	H	0.224659	-0.461958	0.762238
H422	H	0.724659	0.038042	1.262238
H423	H	0.159856	-0.209371	0.440456
H424	H	0.659856	0.290629	0.940456
H425	H	0.049217	-0.382297	0.551240
H426	H	0.549217	0.117703	1.051240
H427	H	0.023260	-0.376951	0.354059
H428	H	0.523260	0.123049	0.854059
H429	H	0.019058	-0.412426	0.521121
H430	H	0.519058	0.087574	1.021121
H431	H	0.196836	-0.456064	0.477324
H432	H	0.696836	0.043936	0.977324
O433	O	0.171784	-0.490638	0.442651
O434	O	0.671784	0.009362	0.942651
C435	C	0.236229	-0.496984	0.369291
C436	C	0.736229	0.003016	0.869291
C437	C	0.200611	-0.465507	0.400853
C438	C	0.700611	0.034493	0.900853
H439	H	0.259552	-0.476682	0.335495
H440	H	0.759552	0.023318	0.835495
H441	H	0.215961	-0.506784	0.359458
H442	H	0.715961	-0.006784	0.859458
H443	H	0.259566	-0.530805	0.389576
H444	H	0.759566	-0.030805	0.889576
H445	H	0.177266	-0.431666	0.380598
H446	H	0.677266	0.068334	0.880598
H447	H	0.220909	-0.455745	0.410689
H448	H	0.720909	0.044255	0.910689
O449	O	0.329040	-0.497374	0.545725
O450	O	0.829040	0.002626	1.045725
C451	C	0.334336	-0.579108	0.574488
C452	C	0.834336	-0.079108	1.074488
C453	C	0.361700	-0.543864	0.548438
C454	C	0.861700	-0.043864	1.048438
H455	H	0.360729	-0.616704	0.576699
H456	H	0.860729	-0.116704	1.076699
H457	H	0.310995	-0.569145	0.554136
H458	H	0.810995	-0.069145	1.054136
H459	H	0.311019	-0.577565	0.611950
H460	H	0.811019	-0.077565	1.111950
H461	H	0.385042	-0.545388	0.510976
H462	H	0.885042	-0.045388	1.010976
H463	H	0.385010	-0.553838	0.568827
H464	H	0.885010	-0.053838	1.068827
H465	H	0.423225	-0.376108	0.456057
H466	H	0.923225	0.123892	0.956057
O467	O	0.328978	-0.338341	0.485114
O468	O	0.828978	0.161659	0.985114
C469	C	0.334212	-0.260115	0.452833
C470	C	0.834212	0.239885	0.952833
C471	C	0.361610	-0.313601	0.460598
C472	C	0.861610	0.186399	0.960598
H473	H	0.360583	-0.240096	0.433002
H474	H	0.860583	0.259904	0.933002
H475	H	0.310918	-0.254541	0.488758
H476	H	0.810918	0.245459	0.988758
H477	H	0.310845	-0.246107	0.430960
H478	H	0.810845	0.253893	0.930960
H479	H	0.385002	-0.327645	0.482454
H480	H	0.885002	0.172355	0.982454
H481	H	0.384873	-0.319143	0.424657
H482	H	0.884873	0.180857	0.924657
H483	H	0.423275	-0.522397	0.511838
H484	H	0.923275	-0.022397	1.011838
H485	H	0.055974	-0.119015	0.558014
H486	H	0.555974	0.380985	1.058014
O487	O	0.131616	-0.115120	0.402643
O488	O	0.631616	0.384880	0.902643
C489	C	0.173638	-0.120352	0.323670
C490	C	0.673638	0.379648	0.823670
C491	C	0.160423	-0.147753	0.377568
C492	C	0.660423	0.352247	0.877568
H493	H	0.196921	-0.146724	0.303380
H494	H	0.696921	0.353276	0.803380
H495	H	0.193946	-0.097023	0.313817
H496	H	0.693946	0.402977	0.813817
H497	H	0.139794	-0.097018	0.313910
H498	H	0.639794	0.402982	0.813910
H499	H	0.194241	-0.171113	0.387366
H500	H	0.694241	0.328887	0.887366
H501	H	0.140096	-0.171052	0.387391
H502	H	0.640096	0.328948	0.887391
O503	O	0.084321	-0.213305	0.595818
O504	O	0.584321	0.286695	1.095818
C505	C	0.088158	-0.228500	0.670421
C506	C	0.588158	0.271500	1.170421
C507	C	0.101334	-0.201103	0.616523
C508	C	0.601334	0.298897	1.116523
H509	H	0.101898	-0.218638	0.687179
H510	H	0.601898	0.281362	1.187179
H511	H	0.104974	-0.268405	0.676766
H512	H	0.604974	0.231595	1.176766
H513	H	0.047811	-0.218715	0.687228
H514	H	0.547811	0.281285	1.187228
H515	H	0.141674	-0.210848	0.599681
H516	H	0.641674	0.289152	1.099681
H517	H	0.084483	-0.161205	0.610212
H518	H	0.584483	0.338795	1.110212
O519	O	-0.030443	-0.452731	0.064992
O520	O	0.469557	0.047269	0.564992
C521	C	-0.093569	-0.378054	0.049665
C522	C	0.406431	0.121946	0.549665
C523	C	-0.080346	-0.431948	0.077093
C524	C	0.419654	0.068052	0.577093
H525	H	-0.133917	-0.361233	0.059447
H526	H	0.366083	0.138767	0.559447
H527	H	-0.076760	-0.371736	0.009767
H528	H	0.423240	0.128264	0.509767
H529	H	-0.079816	-0.361288	0.059502
H530	H	0.420184	0.138712	0.559502
H531	H	-0.094097	-0.448750	0.067296
H532	H	0.405903	0.051250	0.567296
H533	H	-0.097149	-0.438232	0.116985
H534	H	0.402851	0.061768	0.616985
O535	O	-0.063193	-0.485468	0.163254
O536	O	0.436807	0.014532	0.663254
C537	C	-0.072140	-0.456958	0.219528
C538	C	0.427860	0.043042	0.719528
C539	C	-0.040614	-0.492595	0.192129
C540	C	0.459386	0.007405	0.692129
H541	H	-0.053893	-0.462701	0.242873
H542	H	0.446107	0.037299	0.742873
H543	H	-0.108000	-0.462661	0.242835
H544	H	0.392000	0.037339	0.742835
H545	H	-0.077853	-0.419102	0.193131
H546	H	0.422147	0.080898	0.693131
H547	H	-0.034863	-0.530465	0.218492
H548	H	0.465137	-0.030465	0.718492
H549	H	-0.004773	-0.486850	0.168815
H550	H	0.495227	0.013150	0.668815
O551	O	0.049802	-0.613268	0.065135
O552	O	0.549802	-0.113268	0.565135
C553	C	0.088333	-0.695752	0.070441
C554	C	0.588333	-0.195752	0.570441
C555	C	0.056793	-0.660080	0.097800
C556	C	0.556793	-0.160080	0.597800
H557	H	0.093986	-0.733608	0.096839
H558	H	0.593986	-0.233608	0.596839
H559	H	0.124216	-0.690093	0.047179
H560	H	0.624216	-0.190093	0.547179
H561	H	0.070115	-0.689961	0.047045
H562	H	0.570115	-0.189961	0.547045
H563	H	0.074968	-0.665849	0.121221
H564	H	0.574968	-0.165849	0.621221
H565	H	0.020911	-0.665748	0.121031
H566	H	0.520911	-0.165748	0.621031
H567	H	-0.058984	-0.490504	0.332300
H568	H	0.441016	0.009496	0.832300
O569	O	0.016884	-0.645877	0.163374
O570	O	0.516884	-0.145877	0.663374
C571	C	0.009177	-0.707499	0.240162
C572	C	0.509177	-0.207499	0.740162
C573	C	-0.004002	-0.653611	0.212704
C574	C	0.495998	-0.153611	0.712704
H575	H	-0.007711	-0.713768	0.280051
H576	H	0.492289	-0.213768	0.780051
H577	H	0.049517	-0.724358	0.230467
H578	H	0.549517	-0.224358	0.730467
H579	H	-0.004544	-0.724265	0.230291
H580	H	0.495456	-0.224265	0.730291
H581	H	0.009688	-0.636803	0.222560
H582	H	0.509688	-0.136803	0.722560
H583	H	-0.044344	-0.636786	0.222402
H584	H	0.455656	-0.136786	0.722402
O585	O	-0.030805	-0.452703	0.360576
O586	O	0.469195	0.047297	0.860576
C587	C	-0.072808	-0.373719	0.318378
C588	C	0.427192	0.126281	0.818378
C589	C	-0.059619	-0.427617	0.331677
C590	C	0.440381	0.072383	0.831677
H591	H	-0.096114	-0.353422	0.295019
H592	H	0.403886	0.146578	0.795019
H593	H	-0.038984	-0.363941	0.298119
H594	H	0.461016	0.136059	0.798119
H595	H	-0.093118	-0.363893	0.352183
H596	H	0.406882	0.136107	0.852183
H597	H	-0.039321	-0.437481	0.297896
H598	H	0.460679	0.062519	0.797896
H599	H	-0.093460	-0.437366	0.351954
H600	H	0.406540	0.062634	0.851954
H601	H	0.014660	-0.638178	0.406265
H602	H	0.514660	-0.138178	0.906265
O603	O	0.049217	-0.613245	0.441018
O604	O	0.549217	-0.113245	0.941018
C605	C	0.087761	-0.695728	0.479661
C606	C	0.587761	-0.195728	0.979661
C607	C	0.056320	-0.660059	0.448066
C608	C	0.556320	-0.160059	0.948066
H609	H	0.093522	-0.733584	0.485361
H610	H	0.593522	-0.233584	0.985361
H611	H	0.069467	-0.690004	0.515521
H612	H	0.569467	-0.190004	1.015521
H613	H	0.123603	-0.689996	0.461460
H614	H	0.623603	-0.189996	0.961460
H615	H	0.020474	-0.665768	0.466225
H616	H	0.520474	-0.165768	0.966225
H617	H	0.074652	-0.665791	0.412208
H618	H	0.574652	-0.165791	0.912208
H619	H	0.050956	-0.774133	0.341399
H620	H	0.550956	-0.274133	0.841399
H621	H	0.081021	-0.864532	0.371574
H622	H	0.581021	-0.364532	0.871574
H623	H	-0.095331	-0.773979	0.396956
H624	H	0.404669	-0.273979	0.896956
O625	O	-0.070358	-0.868224	0.430846
O626	O	0.429642	-0.368224	0.930846
C627	C	-0.152076	-0.862889	0.459441
C628	C	0.347924	-0.362889	0.959441
C629	C	-0.116823	-0.835545	0.433441
C630	C	0.383177	-0.335545	0.933441
H631	H	-0.189648	-0.836480	0.461539
H632	H	0.310352	-0.336480	0.961539
H633	H	-0.150642	-0.886199	0.496942
H634	H	0.349358	-0.386199	0.996942
H635	H	-0.142026	-0.886237	0.439060
H636	H	0.357974	-0.386237	0.939060
H637	H	-0.126848	-0.812171	0.453783
H638	H	0.373152	-0.312171	0.953783
H639	H	-0.118262	-0.812265	0.395938
H640	H	0.381738	-0.312265	0.895938
H641	H	-0.322352	-0.570775	0.472713
H642	H	0.177648	-0.070775	0.972713
O643	O	-0.228100	-0.605559	0.447869
O644	O	0.271900	-0.105559	0.947869
C645	C	-0.212952	-0.678905	0.512373
C646	C	0.287048	-0.178905	1.012373
C647	C	-0.240266	-0.647357	0.476658
C648	C	0.259734	-0.147357	0.976658
H649	H	-0.222771	-0.712711	0.535652
H650	H	0.277229	-0.212711	1.035652
H651	H	-0.222785	-0.658643	0.535744
H652	H	0.277215	-0.158643	1.035744
H653	H	-0.173048	-0.688731	0.492137
H654	H	0.326952	-0.188731	0.992137
H655	H	-0.280176	-0.637523	0.496856
H656	H	0.219824	-0.137523	0.996856
H657	H	-0.230394	-0.667638	0.453288
H658	H	0.269606	-0.167638	0.953288
O659	O	-0.325973	-0.492543	0.319845
O660	O	0.174027	0.007457	0.819845
C661	C	-0.341137	-0.486183	0.255318
C662	C	0.158863	0.013817	0.755318
C663	C	-0.313823	-0.517697	0.291033
C664	C	0.186177	-0.017697	0.791033
H665	H	-0.331332	-0.506511	0.232022
H666	H	0.168668	-0.006511	0.732022
H667	H	-0.331291	-0.452396	0.231965
H668	H	0.168709	0.047604	0.731965
H669	H	-0.381041	-0.476320	0.275555
H670	H	0.118959	0.023680	0.775555
H671	H	-0.273913	-0.527597	0.270836
H672	H	0.226087	-0.027597	0.770836
H673	H	-0.323709	-0.551462	0.314386
H674	H	0.176291	-0.051462	0.814386
O675	O	-0.227741	-0.525415	0.287316
O676	O	0.272259	-0.025415	0.787316
C677	C	-0.171438	-0.554094	0.221371
C678	C	0.328562	-0.054094	0.721371
C679	C	-0.198935	-0.567276	0.275247
C680	C	0.301065	-0.067276	0.775247
H681	H	-0.148150	-0.587930	0.211596
H682	H	0.351850	-0.087930	0.711596
H683	H	-0.148068	-0.533862	0.211592
H684	H	0.351932	-0.033862	0.711592
H685	H	-0.197770	-0.530725	0.201034
H686	H	0.302230	-0.030725	0.701034
H687	H	-0.172638	-0.590661	0.295622
H688	H	0.327362	-0.090661	0.795622
H689	H	-0.222313	-0.587484	0.284990
H690	H	0.277687	-0.087484	0.784990
