data_functionalizedCrystal
_audit_creation_method	'MofGen! by Chris Wilmer'
_symmetry_space_group_name_H-M	'P1'
_symmetry_Int_Tables_number	1
_symmetry_cell_setting	triclinic
loop_
_symmetry_equiv_pos_as_xyz
  x,y,z
_cell_length_a	8.559649
_cell_length_b	14.971486
_cell_length_c	14.048226
_cell_angle_alpha	90.001501
_cell_angle_beta	89.995035
_cell_angle_gamma	103.303603
loop_
_atom_site_label
_atom_site_type_symbol
_atom_site_fract_x
_atom_site_fract_y
_atom_site_fract_z
O1	O	0.208203	-1.172520	-0.079048
O2	O	0.233135	-0.910393	-0.079073
O3	O	-0.011889	-1.064550	-0.079057
O4	O	0.453227	-1.018363	-0.079064
O5	O	-0.011903	-1.064535	0.079264
O6	O	0.233121	-0.910377	0.079248
O7	O	0.208188	-1.172505	0.079274
Zn8	Zn	0.220652	-1.041438	0.104398
Zn9	Zn	0.220671	-1.041459	-0.104197
O10	O	0.453212	-1.018347	0.079258
C11	C	0.232013	-0.877137	0.000084
C12	C	0.228672	-0.778072	0.000074
C13	C	-0.071419	-1.068043	0.000102
C14	C	-0.248779	-1.078461	0.000098
C15	C	0.209310	-1.205760	0.000114
C16	C	0.212652	-1.304826	0.000118
C17	C	0.512743	-1.014855	0.000096
C18	C	0.690103	-1.004436	0.000094
N19	N	0.220638	-1.041431	0.246758
C20	C	0.372617	-0.710872	0.000074
C21	C	0.369468	-0.617791	0.000088
C22	C	0.222372	-0.591911	0.000096
C23	C	0.078416	-0.659119	0.000099
C24	C	0.081566	-0.752198	0.000092
C25	C	0.071859	-0.465111	0.000113
C26	C	0.068707	-0.372025	0.000118
C27	C	0.359760	-0.330704	0.000108
C28	C	0.362910	-0.423783	0.000101
C29	C	0.218954	-0.490984	0.000103
N30	N	0.220673	-1.041474	-0.246558
C31	C	0.112186	-1.109708	0.296583
C32	C	0.112186	-1.109714	0.396241
C33	C	0.220645	-1.041446	0.446072
C34	C	0.329102	-0.973163	0.396240
C35	C	0.329094	-0.973153	0.296584
C36	C	0.329114	-0.973188	0.603954
C37	C	0.329124	-0.973197	0.703617
C38	C	0.112205	-1.109748	0.703611
C39	C	0.112197	-1.109739	0.603955
C40	C	0.220657	-1.041456	0.554130
H41	H	-0.226536	-0.933089	0.000090
H42	H	0.486682	-0.563079	0.000086
H43	H	-0.045367	-0.519825	0.000115
C44	C	-0.359740	-1.173660	-0.000038
C45	C	-0.330687	-1.221272	-0.081477
C46	C	-0.432857	-1.308974	-0.081629
H47	H	-0.468227	-1.168388	-0.000082
H48	H	-0.340241	-1.206136	0.055145
H49	H	-0.350198	-1.188805	-0.136646
H50	H	-0.222220	-1.226570	-0.081451
H51	H	-0.413358	-1.341450	-0.026446
H52	H	-0.541338	-1.303693	-0.081670
H53	H	-0.413149	-1.341293	-0.136879
H54	H	0.492399	-0.731935	0.000066
C55	C	-0.081244	-0.630969	-0.000088
C56	C	-0.091565	-0.578757	-0.081551
C57	C	-0.238631	-0.552822	-0.081765
H58	H	-0.088685	-0.595468	0.055059
H59	H	-0.166571	-0.684302	-0.000139
H60	H	-0.006261	-0.525433	-0.081491
H61	H	-0.084152	-0.614240	-0.136711
H62	H	-0.323958	-0.606155	-0.081816
H63	H	-0.246059	-0.517324	-0.026615
H64	H	-0.245659	-0.517401	-0.137041
H65	H	0.482689	-0.444850	0.000085
C66	C	-0.074892	-0.825025	0.000039
C67	C	-0.204389	-0.782441	0.000020
C68	C	-0.348546	-0.849498	-0.000039
H69	H	-0.079946	-0.862233	0.055231
H70	H	-0.079794	-0.862184	-0.055197
H71	H	-0.199489	-0.745297	0.055249
H72	H	-0.199387	-0.745238	-0.055168
H73	H	-0.353448	-0.886657	-0.055274
H74	H	-0.353584	-0.886703	0.055154
H75	H	-0.436426	-0.820615	-0.000061
H76	H	0.476974	-0.275983	0.000111
H77	H	-0.051071	-0.350958	0.000126
H78	H	0.023873	-1.165303	0.256018
H79	H	0.023875	-1.165310	0.436808
C80	C	-0.005735	-1.183911	0.550023
C81	C	-0.100748	-1.243698	0.614985
C82	C	-0.209422	-1.312027	0.565337
H83	H	0.051662	-1.217277	0.511132
H84	H	-0.072425	-1.156336	0.511178
H85	H	-0.034066	-1.271271	0.653813
H86	H	-0.158180	-1.210359	0.653877
H87	H	-0.276113	-1.284452	0.526493
H88	H	-0.152012	-1.345386	0.526448
H89	H	-0.273911	-1.352596	0.609406
C90	C	0.446924	-0.898961	0.757549
C91	C	0.541861	-0.839136	0.692588
C92	C	0.650372	-0.770727	0.742235
H93	H	0.513694	-0.926432	0.796423
H94	H	0.389352	-0.865652	0.796410
H95	H	0.599428	-0.872441	0.653743
H96	H	0.475135	-0.811642	0.653711
H97	H	0.592801	-0.737418	0.781096
H98	H	0.717131	-0.798207	0.781107
H99	H	0.714789	-0.730123	0.698167
H100	H	0.023894	-1.165346	0.744185
C101	C	0.446949	-0.899191	0.549733
C102	C	0.544855	-0.940104	0.492487
C103	C	0.653411	-0.871974	0.442515
H104	H	0.511707	-0.858498	0.593570
H105	H	0.389407	-0.865922	0.510811
H106	H	0.602394	-0.973357	0.531405
H107	H	0.480143	-0.980790	0.448632
H108	H	0.595868	-0.838705	0.403594
H109	H	0.718156	-0.831285	0.486360
H110	H	0.719843	-0.899724	0.403662
C111	C	0.447105	-0.899110	0.242534
C112	C	0.604149	-0.902839	0.266739
C113	C	0.712901	-0.834649	0.216959
H114	H	0.429794	-0.840570	0.258836
H115	H	0.431673	-0.908877	0.176037
H116	H	0.619575	-0.893065	0.333220
H117	H	0.621512	-0.961363	0.250434
H118	H	0.697469	-0.844416	0.150462
H119	H	0.695574	-0.776113	0.233264
H120	H	0.819467	-0.837175	0.233368
H121	H	0.417407	-0.917573	0.436818
