data_functionalizedCrystal
_audit_creation_method	'MofGen! by Chris Wilmer'
_symmetry_space_group_name_H-M	'P1'
_symmetry_Int_Tables_number	1
_symmetry_cell_setting	triclinic
loop_
_symmetry_equiv_pos_as_xyz
  x,y,z
_cell_length_a	19.288864
_cell_length_b	15.995350
_cell_length_c	17.766277
_cell_angle_alpha	89.995869
_cell_angle_beta	89.976791
_cell_angle_gamma	83.314311
loop_
_atom_site_label
_atom_site_type_symbol
_atom_site_fract_x
_atom_site_fract_y
_atom_site_fract_z
O1	O	0.921624	0.104452	-0.062832
O2	O	1.421624	0.604452	0.437168
O3	O	0.719400	0.118542	-0.062780
O4	O	1.219400	0.618542	0.437220
O5	O	0.826040	-0.010412	-0.062807
O6	O	1.326040	0.489588	0.437193
O7	O	0.814984	0.233405	-0.062805
O8	O	1.314984	0.733405	0.437195
O9	O	0.826021	-0.010418	0.062382
O10	O	1.326021	0.489582	0.562382
O11	O	0.719381	0.118535	0.062408
O12	O	1.219381	0.618535	0.562408
O13	O	0.921605	0.104445	0.062357
O14	O	1.421605	0.604445	0.562357
Cu15	Cu	0.820492	0.111490	0.073813
Cu16	Cu	1.320492	0.611490	0.573813
Cu17	Cu	0.820514	0.111497	-0.074237
Cu18	Cu	1.320514	0.611497	0.425763
O19	O	0.814965	0.233399	0.062383
O20	O	1.314965	0.733399	0.562383
C21	C	0.693513	0.118085	-0.000179
C22	C	1.193513	0.618085	0.499821
C23	C	0.616406	0.116724	-0.000159
C24	C	1.116406	0.616724	0.499841
C25	C	0.571906	0.192388	-0.000171
C26	C	1.071906	0.692388	0.499829
C27	C	0.499456	0.191110	-0.000179
C28	C	0.999456	0.691110	0.499821
C29	C	0.471508	0.114163	-0.000191
C30	C	0.971508	0.614163	0.499809
C31	C	0.516018	0.038489	-0.000176
C32	C	1.016018	0.538489	0.499824
C33	C	0.588467	0.039769	-0.000160
C34	C	1.088467	0.539769	0.499840
C35	C	0.363096	0.053676	-0.044076
C36	C	0.863096	0.553676	0.455924
C37	C	0.290648	0.052398	-0.044097
C38	C	0.790648	0.552398	0.455903
C39	C	0.248053	0.110209	-0.000237
C40	C	0.748053	0.610209	0.499763
C41	C	0.277912	0.169312	0.043634
C42	C	0.777912	0.669312	0.543634
C43	C	0.350361	0.170593	0.043650
C44	C	0.850361	0.670593	0.543650
C45	C	0.392951	0.112765	-0.000208
C46	C	0.892951	0.612765	0.499792
C47	C	0.124993	0.184492	-0.000256
C48	C	0.624993	0.684492	0.499744
C49	C	0.052542	0.183210	-0.000260
C50	C	0.552542	0.683210	0.499740
C51	C	0.069106	0.030587	-0.000264
C52	C	0.569106	0.530587	0.499736
C53	C	0.141556	0.031871	-0.000253
C54	C	0.641556	0.531871	0.499747
C55	C	0.169495	0.108826	-0.000252
C56	C	0.669495	0.608826	0.499748
C57	C	0.825574	-0.041608	-0.000214
C58	C	1.325574	0.458392	0.499786
C59	C	0.824203	-0.134553	-0.000218
C60	C	1.324203	0.365447	0.499782
C61	C	0.819282	-0.472282	-0.000214
C62	C	1.319282	0.027718	0.499786
C63	C	0.743335	-0.424562	-0.000475
C64	C	1.243335	0.075438	0.499525
C65	C	0.744706	-0.327877	-0.000193
C66	C	1.244706	0.172123	0.499807
C67	C	0.821723	-0.304731	-0.000216
C68	C	1.321723	0.195269	0.499784
C69	C	0.859172	-0.345953	0.071262
C70	C	1.359172	0.154047	0.571262
C71	C	0.857264	-0.442582	0.071322
C72	C	1.357264	0.057418	0.571322
C73	C	0.858855	-0.442939	-0.071041
C74	C	1.358855	0.057061	0.428959
C75	C	0.858837	-0.345993	-0.071986
C76	C	1.358837	0.154007	0.428014
C77	C	0.823107	-0.210039	-0.000215
C78	C	1.323107	0.289961	0.499785
C79	C	0.817901	-0.566975	-0.000210
C80	C	1.317901	-0.066975	0.499790
C81	C	0.947492	0.104902	-0.000246
C82	C	1.447492	0.604902	0.499754
C83	C	1.024600	0.106263	-0.000271
C84	C	1.524600	0.606263	0.499729
C85	C	0.815432	0.264595	-0.000211
C86	C	1.315432	0.764595	0.499789
C87	C	0.816802	0.357540	-0.000212
C88	C	1.316802	0.857540	0.499788
N89	N	0.820481	0.111484	0.177944
N90	N	1.320481	0.611484	0.677944
N91	N	0.820530	0.111497	-0.178367
N92	N	1.320530	0.611497	0.321633
C93	C	0.867717	0.054411	0.217319
C94	C	1.367717	0.554411	0.717319
C95	C	0.867721	0.054407	0.296120
C96	C	1.367721	0.554407	0.796120
C97	C	0.820496	0.111490	0.335544
C98	C	1.320496	0.611490	0.835544
C99	C	0.773251	0.168567	0.296160
C100	C	1.273251	0.668567	0.796160
C101	C	0.773244	0.168564	0.217359
C102	C	1.273244	0.668564	0.717359
C103	C	0.811395	0.187781	0.460384
C104	C	1.311395	0.687781	0.960384
C105	C	0.811407	0.187785	0.539183
C106	C	1.311407	0.687785	1.039183
C107	C	0.820514	0.111500	0.578590
C108	C	1.320514	0.611500	1.078590
C109	C	0.829624	0.035208	0.539190
C110	C	1.329624	0.535208	1.039190
C111	C	0.829617	0.035204	0.460389
C112	C	1.329617	0.535204	0.960389
C113	C	0.820498	0.111500	0.420990
C114	C	1.320498	0.611500	0.920990
C115	C	0.867757	0.054419	0.703411
C116	C	1.367757	0.554419	1.203411
C117	C	0.867756	0.054414	0.782215
C118	C	1.367756	0.554414	1.282215
C119	C	0.773290	0.168581	0.782252
C120	C	1.273290	0.668581	1.282252
C121	C	0.773288	0.168579	0.703451
C122	C	1.273288	0.668579	1.203451
C123	C	0.820525	0.111499	0.664035
C124	C	1.320525	0.611499	1.164035
H125	H	0.177789	-0.029743	-0.000247
H126	H	0.677789	0.470257	0.499753
O127	O	0.802649	0.261837	0.422021
O128	O	1.302649	0.761837	0.922021
C129	C	0.861611	0.268410	0.376422
C130	C	1.361611	0.768410	0.876422
H131	H	0.889351	0.202841	0.364614
H132	H	1.389351	0.702841	0.864614
H133	H	0.844373	0.300239	0.321012
H134	H	1.344373	0.800239	0.821012
H135	H	0.898787	0.307465	0.406764
H136	H	1.398787	0.807465	0.906764
H137	H	0.734827	0.215056	0.671389
H138	H	1.234827	0.715056	1.171389
H139	H	0.829941	-0.460783	0.124769
H140	H	1.329941	0.039217	0.624769
H141	H	0.713107	-0.444044	0.050512
H142	H	1.213107	0.055956	0.550512
H143	H	0.803994	0.249907	0.571257
H144	H	1.303994	0.749907	1.071257
H145	H	0.837040	-0.026911	0.571273
H146	H	1.337040	0.473089	1.071273
H147	H	0.913023	-0.475041	0.074549
H148	H	1.413023	0.024959	0.574549
H149	H	0.624700	-0.021848	-0.000151
H150	H	1.124700	0.478152	0.499849
H151	H	0.463217	0.252727	-0.000186
H152	H	0.963217	0.752727	0.499814
O153	O	0.913661	-0.001114	0.665234
O154	O	1.413661	0.498886	1.165234
C155	C	0.955361	-0.051482	0.716890
C156	C	1.455361	0.448518	1.216890
H157	H	0.926889	-0.052340	0.773076
H158	H	1.426889	0.447660	1.273076
H159	H	0.965957	-0.118384	0.694122
H160	H	1.465957	0.381616	1.194122
H161	H	1.006957	-0.024455	0.725243
H162	H	1.506957	0.475545	1.225243
O163	O	0.009342	0.256738	-0.000404
O164	O	0.509342	0.756738	0.499596
C165	C	0.022054	0.303479	-0.065231
C166	C	0.522054	0.803479	0.434769
H167	H	0.046838	0.259178	-0.110542
H168	H	0.546838	0.759178	0.389458
H169	H	-0.029335	0.337251	-0.087004
H170	H	0.470665	0.837251	0.412996
H171	H	0.058938	0.351802	-0.050569
H172	H	0.558938	0.851802	0.449431
O173	O	0.261762	-0.005091	-0.086727
O174	O	0.761762	0.494909	0.413273
C175	C	0.314890	-0.055837	-0.125439
C176	C	0.814890	0.444163	0.374561
H177	H	0.366505	-0.054819	-0.094412
H178	H	0.866505	0.445181	0.405588
H179	H	0.301230	-0.123215	-0.128273
H180	H	0.801230	0.376785	0.371727
H181	H	0.319896	-0.030514	-0.184937
H182	H	0.819896	0.469486	0.315063
H183	H	0.833147	-0.317477	0.124469
H184	H	1.333147	0.182523	0.624469
H185	H	0.397772	0.006598	-0.079796
H186	H	0.897772	0.506598	0.420204
H187	H	0.712988	-0.442976	-0.051732
H188	H	1.212988	0.057024	0.448268
O189	O	0.913671	-0.000916	0.820550
O190	O	1.413671	0.499084	1.320550
C191	C	0.956527	0.043802	0.866093
C192	C	1.456527	0.543802	1.366093
H193	H	0.928856	0.109405	0.877906
H194	H	1.428856	0.609405	1.377906
H195	H	0.967520	0.008822	0.921503
H196	H	1.467520	0.508822	1.421503
H197	H	1.007856	0.049339	0.835698
H198	H	1.507856	0.549339	1.335698
H199	H	0.734799	0.215044	0.328262
H200	H	1.234799	0.715044	0.828262
O201	O	0.829140	-0.467353	-0.135605
O202	O	1.329140	0.032647	0.364395
C203	C	0.772109	-0.511415	-0.117733
C204	C	1.272109	-0.011415	0.382267
H205	H	0.752118	-0.492595	-0.059034
H206	H	1.252118	0.007405	0.440966
H207	H	0.728600	-0.495276	-0.160548
H208	H	1.228600	0.004724	0.339452
H209	H	0.789490	-0.582002	-0.119166
H210	H	1.289490	-0.082002	0.380834
O211	O	0.488955	-0.036310	-0.000291
O212	O	0.988955	0.463690	0.499709
C213	C	0.511721	-0.082408	-0.065132
C214	C	1.011721	0.417592	0.434868
H215	H	0.561982	-0.059780	-0.086733
H216	H	1.061982	0.440220	0.413267
H217	H	0.521766	-0.152174	-0.050551
H218	H	1.021766	0.347826	0.449449
H219	H	0.469825	-0.072547	-0.110544
H220	H	0.969825	0.427453	0.389456
H221	H	0.906178	0.007931	0.185229
H222	H	1.406178	0.507931	0.685229
O223	O	0.709645	-0.293944	-0.061398
O224	O	1.209645	0.206056	0.438602
C225	C	0.741886	-0.328411	-0.127461
C226	C	1.241886	0.171589	0.372539
H227	H	0.772636	-0.391876	-0.113980
H228	H	1.272636	0.108124	0.386020
H229	H	0.700271	-0.337331	-0.171339
H230	H	1.200271	0.162669	0.328661
H231	H	0.778822	-0.283897	-0.150485
H232	H	1.278822	0.216103	0.349515
H233	H	0.837032	-0.026916	0.428312
H234	H	1.337032	0.473084	0.928312
H235	H	0.734836	0.215056	0.814350
H236	H	1.234836	0.715056	1.314350
H237	H	0.734778	0.215040	0.185299
H238	H	1.234778	0.715040	0.685299
H239	H	0.594649	0.255051	-0.000172
H240	H	1.094649	0.755051	0.499828
H241	H	0.906187	0.007930	0.328186
H242	H	1.406187	0.507930	0.828186
O243	O	0.925625	-0.481182	-0.071546
O244	O	1.425625	0.018818	0.428454
C245	C	0.936585	-0.534174	-0.008203
C246	C	1.436585	-0.034174	0.491797
H247	H	0.884361	-0.552220	0.012411
H248	H	1.384361	-0.052220	0.512411
H249	H	0.972119	-0.593462	-0.024316
H250	H	1.472119	-0.093462	0.475684
H251	H	0.962137	-0.499693	0.038514
H252	H	1.462137	0.000307	0.538514
O253	O	0.925834	-0.327931	-0.077316
O254	O	1.425834	0.172069	0.422684
C255	C	0.957076	-0.366142	-0.142410
C256	C	1.457076	0.133858	0.357590
H257	H	0.914772	-0.378083	-0.184548
H258	H	1.414772	0.121917	0.315452
H259	H	0.993246	-0.322756	-0.168740
H260	H	1.493246	0.177244	0.331260
H261	H	0.988472	-0.428484	-0.126580
H262	H	1.488472	0.071516	0.373420
O263	O	0.379257	0.228026	0.086336
O264	O	0.879257	0.728026	0.586336
C265	C	0.326131	0.278795	0.125032
C266	C	0.826131	0.778795	0.625032
H267	H	0.278189	0.243715	0.130317
H268	H	0.778189	0.743715	0.630317
H269	H	0.345433	0.293918	0.183558
H270	H	0.845433	0.793918	0.683558
H271	H	0.311812	0.339806	0.092513
H272	H	0.811812	0.839806	0.592513
O273	O	0.709245	-0.294585	0.061032
O274	O	1.209245	0.205415	0.561032
C275	C	0.639591	-0.313040	0.057819
C276	C	1.139591	0.186960	0.557819
H277	H	0.636555	-0.370790	0.020904
H278	H	1.136555	0.129210	0.520904
H279	H	0.620728	-0.326203	0.116997
H280	H	1.120728	0.173797	0.616997
H281	H	0.605168	-0.257052	0.032959
H282	H	1.105168	0.242948	0.532959
O283	O	0.926649	-0.329247	0.074324
O284	O	1.426649	0.170753	0.574324
C285	C	0.941050	-0.279947	0.011690
C286	C	1.441050	0.220053	0.511690
H287	H	0.890248	-0.245250	-0.010662
H288	H	1.390248	0.254750	0.489338
H289	H	0.977537	-0.232311	0.029365
H290	H	1.477537	0.267689	0.529365
H291	H	0.967007	-0.322413	-0.034281
H292	H	1.467007	0.177587	0.465719
O293	O	0.041851	-0.044087	-0.000310
O294	O	0.541851	0.455913	0.499690
C295	C	-0.031637	-0.028995	-0.000306
C296	C	0.468363	0.471005	0.499694
H297	H	-0.048636	0.036414	-0.024005
H298	H	0.451364	0.536414	0.475995
H299	H	-0.053863	-0.078213	-0.036659
H300	H	0.446137	0.421787	0.463341
H301	H	-0.051836	-0.032981	0.059749
H302	H	0.448164	0.467019	0.559749
O303	O	0.152174	0.259220	-0.000377
O304	O	0.652174	0.759220	0.499623
C305	C	0.193634	0.264527	-0.065195
C306	C	0.693634	0.764527	0.434805
H307	H	0.176522	0.220847	-0.110521
H308	H	0.676522	0.720847	0.389479
H309	H	0.187146	0.332036	-0.086950
H310	H	0.687146	0.832036	0.413050
H311	H	0.250758	0.244991	-0.050528
H312	H	0.750758	0.744991	0.449472
O313	O	0.826271	-0.313166	-0.135053
O314	O	1.326271	0.186834	0.364947
C315	C	0.829087	-0.225502	-0.136877
C316	C	1.329087	0.274498	0.363123
H317	H	0.874700	-0.209309	-0.101062
H318	H	1.374700	0.290691	0.398938
H319	H	0.836549	-0.204651	-0.197412
H320	H	1.336549	0.295349	0.302588
H321	H	0.778293	-0.191660	-0.113634
H322	H	1.278293	0.308340	0.386366
H323	H	0.243232	0.216387	0.079349
H324	H	0.743232	0.716387	0.579349
