data_functionalizedCrystal
_audit_creation_method	'MofGen! by Chris Wilmer'
_symmetry_space_group_name_H-M	'P1'
_symmetry_Int_Tables_number	1
_symmetry_cell_setting	triclinic
loop_
_symmetry_equiv_pos_as_xyz
  x,y,z
_cell_length_a	25.639233
_cell_length_b	16.959455
_cell_length_c	16.959454
_cell_angle_alpha	90.017022
_cell_angle_beta	90.012406
_cell_angle_gamma	90.012273
loop_
_atom_site_label
_atom_site_type_symbol
_atom_site_fract_x
_atom_site_fract_y
_atom_site_fract_z
Zn1	Zn	-0.295627	-1.208368	0.314842
Zn2	Zn	0.037706	-0.875034	0.648175
Zn3	Zn	0.371039	-0.541701	0.981509
Zn4	Zn	-0.208201	-1.208295	0.447001
Zn5	Zn	0.125132	-0.874962	0.780335
Zn6	Zn	0.458465	-0.541628	1.113668
Zn7	Zn	-0.208206	-1.076201	0.314834
Zn8	Zn	0.125127	-0.742868	0.648167
Zn9	Zn	0.458460	-0.409534	0.981501
Zn10	Zn	-0.295606	-1.076161	0.446975
Zn11	Zn	0.037727	-0.742828	0.780309
Zn12	Zn	0.371060	-0.409494	1.113642
O13	O	-0.251910	-1.142256	0.380913
O14	O	0.081423	-0.808923	0.714247
O15	O	0.414756	-0.475589	1.047580
O16	O	-0.284037	-1.318969	0.332388
O17	O	0.049297	-0.985636	0.665721
O18	O	0.382630	-0.652302	0.999054
O19	O	-0.135037	-1.190759	0.429477
O20	O	0.198297	-0.857425	0.762810
O21	O	0.531630	-0.524092	1.096143
O22	O	-0.219814	-1.093780	0.204224
O23	O	0.113519	-0.760447	0.537557
O24	O	0.446853	-0.427114	0.870891
O25	O	-0.219805	-1.318916	0.429485
O26	O	0.113528	-0.985582	0.762818
O27	O	0.446861	-0.652249	1.096151
O28	O	-0.284042	-1.190883	0.204230
O29	O	0.049292	-0.857549	0.537563
O30	O	0.382625	-0.524216	0.870897
O31	O	-0.135041	-1.093710	0.332374
O32	O	0.198293	-0.760376	0.665707
O33	O	0.531626	-0.427043	0.999040
O34	O	-0.219794	-0.965585	0.332348
O35	O	0.113540	-0.632251	0.665682
O36	O	0.446873	-0.298918	0.999015
O37	O	-0.368774	-1.093712	0.429440
O38	O	-0.035441	-0.760379	0.762774
O39	O	0.297892	-0.427045	1.096107
O40	O	-0.284006	-0.965555	0.429432
O41	O	0.049327	-0.632222	0.762766
O42	O	0.382661	-0.298889	1.096099
O43	O	-0.368790	-1.190844	0.332362
O44	O	-0.035456	-0.857511	0.665696
O45	O	0.297877	-0.524177	0.999029
O46	O	-0.219785	-1.190720	0.557609
O47	O	0.113548	-0.857387	0.890942
O48	O	0.446882	-0.524053	1.224276
O49	O	-0.284001	-1.093642	0.557590
O50	O	0.049332	-0.760308	0.890923
O51	O	0.382666	-0.426975	1.224256
C52	C	-0.251898	-0.936890	0.380887
C53	C	0.081435	-0.603557	0.714220
C54	C	0.414768	-0.270223	1.047554
C55	C	-0.251906	-0.849033	0.380895
C56	C	0.081428	-0.515700	0.714228
C57	C	0.414761	-0.182367	1.047562
C58	C	-0.251901	-1.142190	0.586280
C59	C	0.081432	-0.808857	0.919613
C60	C	0.414765	-0.475523	1.252946
C61	C	-0.251915	-1.142234	0.674136
C62	C	0.081418	-0.808901	1.007469
C63	C	0.414752	-0.475567	1.340803
C64	C	-0.388283	-1.142282	0.380899
C65	C	-0.054950	-0.808948	0.714233
C66	C	0.278383	-0.475615	1.047566
C67	C	-0.446397	-1.142293	0.380893
C68	C	-0.113064	-0.808959	0.714227
C69	C	0.220269	-0.475626	1.047560
C70	C	-0.806774	-1.192933	0.330195
C71	C	-0.473441	-0.859600	0.663528
C72	C	-0.140108	-0.526266	0.996862
C73	C	-0.861379	-1.192943	0.330173
C74	C	-0.528045	-0.859610	0.663506
C75	C	-0.194712	-0.526276	0.996840
O76	O	-0.889627	-1.235936	0.287160
O77	O	-0.556294	-0.902602	0.620494
O78	O	-0.222960	-0.569269	0.953827
N79	N	-0.888680	-1.142380	0.380708
N80	N	-0.555347	-0.809046	0.714041
N81	N	-0.222013	-0.475713	1.047375
C82	C	-0.861374	-1.091798	0.431263
C83	C	-0.528041	-0.758464	0.764596
C84	C	-0.194708	-0.425131	1.097929
O85	O	-0.889610	-1.048790	0.474244
O86	O	-0.556277	-0.715457	0.807578
O87	O	-0.222944	-0.382123	1.140911
C88	C	-0.806771	-1.091784	0.431280
C89	C	-0.473438	-0.758451	0.764613
C90	C	-0.140104	-0.425118	1.097947
C91	C	-0.779472	-1.142357	0.380747
C92	C	-0.446139	-0.809023	0.714081
C93	C	-0.112806	-0.475690	1.047414
C94	C	-0.779476	-1.243501	0.279666
C95	C	-0.446142	-0.910167	0.612999
C96	C	-0.112809	-0.576834	0.946332
C97	C	-0.724875	-1.243492	0.279689
C98	C	-0.391542	-0.910158	0.613022
C99	C	-0.058208	-0.576825	0.946355
C100	C	-0.697573	-1.192915	0.330241
C101	C	-0.364240	-0.859582	0.663574
C102	C	-0.030907	-0.526249	0.996908
C103	C	-0.724872	-1.142348	0.380770
C104	C	-0.391539	-0.809014	0.714104
C105	C	-0.058205	-0.475681	1.047437
C106	C	-0.779466	-1.041199	0.481830
C107	C	-0.446133	-0.707866	0.815163
C108	C	-0.112800	-0.374532	1.148497
C109	C	-0.724859	-1.041190	0.481843
C110	C	-0.391526	-0.707856	0.815176
C111	C	-0.058193	-0.374523	1.148509
C112	C	-0.697561	-1.091762	0.431310
C113	C	-0.364227	-0.758429	0.764643
C114	C	-0.030894	-0.425095	1.097976
C115	C	-0.642969	-1.091762	0.431346
C116	C	-0.309636	-0.758429	0.764679
C117	C	0.023697	-0.425096	1.098013
N118	N	-0.615668	-1.142326	0.380811
N119	N	-0.282335	-0.808992	0.714144
N120	N	0.050999	-0.475659	1.047477
C121	C	-0.642970	-1.192902	0.330258
C122	C	-0.309637	-0.859569	0.663592
C123	C	0.023697	-0.526235	0.996925
C124	C	-0.976045	-1.091828	0.431222
C125	C	-0.642712	-0.758495	0.764555
C126	C	-0.309378	-0.425161	1.097888
C127	C	-1.030647	-1.091845	0.431209
C128	C	-0.697314	-0.758511	0.764542
C129	C	-0.363981	-0.425178	1.097876
C130	C	-1.030648	-1.192989	0.330118
C131	C	-0.697315	-0.859656	0.663451
C132	C	-0.363981	-0.526322	0.996785
C133	C	-0.976045	-1.192976	0.330135
C134	C	-0.642711	-0.859643	0.663469
C135	C	-0.309378	-0.526309	0.996802
C136	C	-0.948744	-1.142391	0.380687
C137	C	-0.615410	-0.809058	0.714020
C138	C	-0.282077	-0.475725	1.047353
C139	C	-0.528305	-1.192880	0.330311
C140	C	-0.194971	-0.859547	0.663644
C141	C	0.138362	-0.526213	0.996978
C142	C	-0.473699	-1.192869	0.330341
C143	C	-0.140366	-0.859536	0.663674
C144	C	0.192967	-0.526202	0.997008
C145	C	-0.473704	-1.091722	0.431429
C146	C	-0.140370	-0.758389	0.764762
C147	C	0.192963	-0.425055	1.098095
C148	C	-0.528304	-1.091736	0.431402
C149	C	-0.194971	-0.758402	0.764736
C150	C	0.138362	-0.425069	1.098069
C151	C	-0.555603	-1.142317	0.380837
C152	C	-0.222270	-0.808984	0.714170
C153	C	0.111063	-0.475651	1.047504
O154	O	-0.614686	-1.048789	0.474334
O155	O	-0.281353	-0.715456	0.807668
O156	O	0.051980	-0.382123	1.141001
O157	O	-0.614727	-1.235895	0.287277
O158	O	-0.281394	-0.902562	0.620610
O159	O	0.051939	-0.569229	0.953943
C160	C	-0.116068	-1.142276	0.380870
C161	C	0.217265	-0.808943	0.714203
C162	C	0.550599	-0.475610	1.047537
C163	C	-0.057954	-1.142418	0.380653
C164	C	0.275379	-0.809085	0.713987
C165	C	0.608713	-0.475752	1.047320
C166	C	-0.251923	-1.348424	0.380940
C167	C	0.081411	-1.015091	0.714273
C168	C	0.414744	-0.681758	1.047607
C169	C	-0.251928	-1.436281	0.380951
C170	C	0.081405	-1.102948	0.714285
C171	C	0.414739	-0.769614	1.047618
C172	C	-0.218545	-0.477549	0.330320
C173	C	0.114789	-0.144215	0.663654
C174	C	0.448122	0.189118	0.996987
C175	C	-0.285306	-0.477567	0.431571
C176	C	0.048028	-0.144233	0.764905
C177	C	0.381361	0.189100	1.098238
C178	C	-0.285303	-0.560113	0.431560
C179	C	0.048031	-0.226779	0.764893
C180	C	0.381364	0.106554	1.098227
C181	C	-0.251919	-0.601380	0.380929
C182	C	0.081414	-0.268047	0.714262
C183	C	0.414747	0.065286	1.047595
C184	C	-0.218539	-0.560102	0.330309
C185	C	0.114794	-0.226769	0.663642
C186	C	0.448127	0.106565	0.996976
C187	C	-0.318678	-0.601397	0.482184
C188	C	0.014655	-0.268064	0.815518
C189	C	0.347988	0.065270	1.148851
C190	C	-0.318676	-0.683948	0.482176
C191	C	0.014657	-0.350615	0.815509
C192	C	0.347991	-0.017281	1.148842
C193	C	-0.285295	-0.725217	0.431540
C194	C	0.048038	-0.391884	0.764873
C195	C	0.381372	-0.058550	1.098207
C196	C	-0.251914	-0.683934	0.380918
C197	C	0.081419	-0.350601	0.714251
C198	C	0.414753	-0.017267	1.047584
C199	C	-0.218531	-0.725202	0.330287
C200	C	0.114802	-0.391868	0.663620
C201	C	0.448136	-0.058535	0.996953
C202	C	-0.185152	-0.683920	0.279659
C203	C	0.148181	-0.350586	0.612993
C204	C	0.481514	-0.017253	0.946326
C205	C	-0.185159	-0.601371	0.279673
C206	C	0.148175	-0.268038	0.613007
C207	C	0.481508	0.065295	0.946340
C208	C	-0.285289	-0.807766	0.431526
C209	C	0.048045	-0.474432	0.764859
C210	C	0.381378	-0.141099	1.098193
C211	C	-0.218526	-0.807755	0.330275
C212	C	0.114808	-0.474422	0.663609
C213	C	0.448141	-0.141088	0.996942
C214	C	-0.251931	-1.142344	0.174745
C215	C	0.081403	-0.809011	0.508078
C216	C	0.414736	-0.475677	0.841412
C217	C	-0.251939	-1.142382	0.086888
C218	C	0.081394	-0.809048	0.420222
C219	C	0.414727	-0.475715	0.753555
C220	C	-0.285344	-1.091781	1.045632
C221	C	0.047989	-0.758447	1.378965
C222	C	0.381323	-0.425114	1.712298
C223	C	-0.218530	-1.192952	1.045592
C224	C	0.114803	-0.859618	1.378925
C225	C	0.448137	-0.526285	1.712258
C226	C	-0.218525	-1.192924	0.963046
C227	C	0.114808	-0.859591	1.296379
C228	C	0.448142	-0.526257	1.629712
C229	C	-0.251930	-1.142323	0.921789
C230	C	0.081404	-0.808990	1.255122
C231	C	0.414737	-0.475657	1.588456
C232	C	-0.285339	-1.091750	0.963078
C233	C	0.047994	-0.758417	1.296411
C234	C	0.381327	-0.425083	1.629745
C235	C	-0.185112	-1.243491	0.921750
C236	C	0.148221	-0.910157	1.255084
C237	C	0.481554	-0.576824	1.588417
C238	C	-0.185106	-1.243465	0.839200
C239	C	0.148227	-0.910131	1.172533
C240	C	0.481561	-0.576798	1.505866
C241	C	-0.218514	-1.192867	0.797941
C242	C	0.114820	-0.859534	1.131275
C243	C	0.448153	-0.526200	1.464608
C244	C	-0.251925	-1.142292	0.839235
C245	C	0.081408	-0.808959	1.172569
C246	C	0.414742	-0.475626	1.505902
C247	C	-0.285330	-1.091691	0.797979
C248	C	0.048004	-0.758358	1.131312
C249	C	0.381337	-0.425025	1.464645
C250	C	-0.318744	-1.041120	0.839271
C251	C	0.014590	-0.707787	1.172605
C252	C	0.347923	-0.374454	1.505938
C253	C	-0.318747	-1.041152	0.921820
C254	C	0.014586	-0.707819	1.255153
C255	C	0.347920	-0.374486	1.588487
C256	C	-0.218510	-1.192835	0.715393
C257	C	0.114823	-0.859501	1.048726
C258	C	0.448156	-0.526168	1.382060
C259	C	-0.285325	-1.091661	0.715425
C260	C	0.048009	-0.758327	1.048759
C261	C	0.381342	-0.424994	1.382092
H262	H	-0.451475	-1.234054	0.289190
H263	H	-0.118142	-0.900721	0.622524
H264	H	0.215191	-0.567387	0.955857
N265	N	-0.354776	-0.986603	0.966358
N266	N	-0.021443	-0.653270	1.299692
N267	N	0.311890	-0.319936	1.633025
H268	H	-0.375939	-0.954542	0.927699
H269	H	-0.042605	-0.621209	1.261032
H270	H	0.290728	-0.287876	1.594365
H271	H	-0.378993	-1.018762	1.000580
H272	H	-0.045659	-0.685429	1.333913
H273	H	0.287674	-0.352096	1.667247
N274	N	-0.321284	-0.852287	0.486128
N275	N	0.012049	-0.518954	0.819462
N276	N	0.345383	-0.185620	1.152795
H277	H	-0.345550	-0.886554	0.454061
H278	H	-0.012216	-0.553221	0.787394
H279	H	0.321117	-0.219887	1.120727
H280	H	-0.299952	-0.886475	0.522691
H281	H	0.033381	-0.553141	0.856024
H282	H	0.366715	-0.219808	1.189358
H283	H	-0.312529	-1.050458	0.681839
H284	H	0.020804	-0.717125	1.015172
H285	H	0.354138	-0.383791	1.348506
H286	H	-0.157912	-1.284681	0.955348
H287	H	0.175421	-0.951348	1.288681
H288	H	0.508754	-0.618015	1.622014
N289	N	-0.149074	-1.298013	0.794665
N290	N	0.184260	-0.964680	1.127999
N291	N	0.517593	-0.631346	1.461332
H292	H	-0.127914	-1.330074	0.833328
H293	H	0.205419	-0.996741	1.166662
H294	H	0.538752	-0.663407	1.499995
H295	H	-0.170382	-1.334556	0.760388
H296	H	0.162951	-1.001223	1.093721
H297	H	0.496285	-0.667890	1.427054
H298	H	-0.345853	-0.567791	0.523411
H299	H	-0.012520	-0.234458	0.856744
H300	H	0.320813	0.098876	1.190078
N301	N	-0.808901	-0.986652	0.536333
N302	N	-0.475568	-0.653318	0.869667
N303	N	-0.142234	-0.319985	1.203000
H304	H	-0.783312	-0.954611	0.568351
H305	H	-0.449979	-0.621278	0.901685
H306	H	-0.116645	-0.287945	1.235018
H307	H	-0.831552	-0.950089	0.504144
H308	H	-0.498219	-0.616756	0.837477
H309	H	-0.164885	-0.283423	1.170810
H310	H	-0.345940	-0.999917	0.805671
H311	H	-0.012606	-0.666584	1.139004
H312	H	0.320727	-0.333250	1.472337
N313	N	-0.695442	-1.298036	0.225175
N314	N	-0.362109	-0.964703	0.558509
N315	N	-0.028775	-0.631369	0.891842
H316	H	-0.704951	-1.285776	0.168699
H317	H	-0.371617	-0.952443	0.502032
H318	H	-0.038284	-0.619110	0.835366
H319	H	-0.656715	-1.290342	0.232912
H320	H	-0.323382	-0.957009	0.566245
H321	H	0.009951	-0.623675	0.899578
N322	N	-0.321384	-1.037240	1.090161
N323	N	0.011950	-0.703906	1.423494
N324	N	0.345283	-0.370573	1.756828
H325	H	-0.316321	-1.044935	1.148716
H326	H	0.017012	-0.711602	1.482050
H327	H	0.350346	-0.378269	1.815383
H328	H	-0.313210	-0.980791	1.075774
H329	H	0.020123	-0.647458	1.409107
H330	H	0.353456	-0.314125	1.742441
H331	H	-0.157970	-0.717531	0.238439
H332	H	0.175364	-0.384197	0.571772
H333	H	0.508697	-0.050864	0.905106
H334	H	-0.550532	-1.050563	0.472557
H335	H	-0.217199	-0.717230	0.805891
H336	H	0.116135	-0.383896	1.139224
H337	H	-0.191330	-1.234144	1.079188
H338	H	0.142003	-0.900811	1.412521
H339	H	0.475336	-0.567477	1.745854
N340	N	-0.182540	-0.433033	0.275724
N341	N	0.150794	-0.099699	0.609057
N342	N	0.484127	0.233634	0.942390
H343	H	-0.145170	-0.447387	0.287921
H344	H	0.188163	-0.114053	0.621254
H345	H	0.521496	0.219280	0.954588
H346	H	-0.190765	-0.447434	0.219286
H347	H	0.142568	-0.114101	0.552619
H348	H	0.475902	0.219232	0.885953
N349	N	-0.182476	-1.247368	0.670850
N350	N	0.150857	-0.914035	1.004183
N351	N	0.484190	-0.580701	1.337517
H352	H	-0.145113	-1.235132	0.685239
H353	H	0.188220	-0.901799	1.018572
H354	H	0.521554	-0.568466	1.351906
H355	H	-0.190672	-1.303821	0.685192
H356	H	0.142661	-0.970487	1.018525
H357	H	0.475994	-0.637154	1.351858
N358	N	-0.557744	-1.247431	0.275771
N359	N	-0.224411	-0.914097	0.609104
N360	N	0.108922	-0.580764	0.942438
H361	H	-0.532158	-1.279459	0.243768
H362	H	-0.198825	-0.946126	0.577102
H363	H	0.134508	-0.612793	0.910435
H364	H	-0.580403	-1.284004	0.307937
H365	H	-0.247070	-0.950671	0.641270
H366	H	0.086263	-0.617337	0.974604
H367	H	-0.312482	-0.443962	0.472797
H368	H	0.020852	-0.110628	0.806131
H369	H	0.354185	0.222705	1.139464
N370	N	-0.808911	-1.298054	0.225127
N371	N	-0.475578	-0.964721	0.558461
N372	N	-0.142244	-0.631387	0.891794
H373	H	-0.799405	-1.354520	0.237417
H374	H	-0.466071	-1.021186	0.570751
H375	H	-0.132738	-0.687853	0.904084
H376	H	-0.847638	-1.290336	0.232793
H377	H	-0.514304	-0.957003	0.566126
H378	H	-0.180971	-0.623669	0.899460
H379	H	-1.052887	-1.234169	0.288953
H380	H	-0.719554	-0.900836	0.622287
H381	H	-0.386220	-0.567503	0.955620
N382	N	-0.354674	-0.728470	0.536777
N383	N	-0.021341	-0.395137	0.870111
N384	N	0.311992	-0.061804	1.203444
H385	H	-0.375822	-0.689801	0.568854
H386	H	-0.042489	-0.356467	0.902187
H387	H	0.290845	-0.023134	1.235520
H388	H	-0.378906	-0.762735	0.504652
H389	H	-0.045572	-0.429402	0.837985
H390	H	0.287761	-0.096068	1.171318
H391	H	-0.191344	-0.841349	0.289040
H392	H	0.141989	-0.508016	0.622373
H393	H	0.475323	-0.174683	0.955707
N394	N	-0.946603	-1.247524	0.275636
N395	N	-0.613270	-0.914191	0.608969
N396	N	-0.279937	-0.580858	0.942303
H397	H	-0.923945	-1.215421	0.239005
H398	H	-0.590612	-0.882088	0.572339
H399	H	-0.257278	-0.548754	0.905672
H400	H	-0.923982	-1.284122	0.307834
H401	H	-0.590649	-0.950788	0.641167
H402	H	-0.257316	-0.617455	0.974501
N403	N	-1.060088	-1.037310	0.485723
N404	N	-0.726755	-0.703977	0.819056
N405	N	-0.393421	-0.370644	1.152390
H406	H	-1.034502	-1.005273	0.517749
H407	H	-0.701169	-0.671939	0.851082
H408	H	-0.367835	-0.338606	1.184415
H409	H	-1.082740	-1.000745	0.453538
H410	H	-0.749407	-0.667412	0.786871
H411	H	-0.416073	-0.334078	1.120205
H412	H	-0.953820	-1.050635	0.472391
H413	H	-0.620487	-0.717302	0.805724
H414	H	-0.287153	-0.383968	1.139058
H415	H	-0.702634	-0.999988	0.523000
H416	H	-0.369300	-0.666655	0.856334
H417	H	-0.035967	-0.333322	1.189667
H418	H	-0.157983	-0.567752	0.238457
H419	H	0.175350	-0.234419	0.571790
H420	H	0.508684	0.098914	0.905123
H421	H	-0.451465	-1.050546	0.472590
H422	H	-0.118131	-0.717213	0.805923
H423	H	0.215202	-0.383880	1.139256
