data_functionalizedCrystal
_audit_creation_method	'MofGen! by Chris Wilmer'
_symmetry_space_group_name_H-M	'P1'
_symmetry_Int_Tables_number	1
_symmetry_cell_setting	triclinic
loop_
_symmetry_equiv_pos_as_xyz
  x,y,z
_cell_length_a	6.394989
_cell_length_b	17.699083
_cell_length_c	16.776229
_cell_angle_alpha	90.001114
_cell_angle_beta	90.003593
_cell_angle_gamma	84.890363
loop_
_atom_site_label
_atom_site_type_symbol
_atom_site_fract_x
_atom_site_fract_y
_atom_site_fract_z
O1	O	-0.264131	-1.006774	-0.066171
O2	O	-0.298495	-0.786746	-0.066197
O3	O	0.022767	-0.899883	-0.066184
O4	O	-0.585393	-0.893637	-0.066184
O5	O	0.022786	-0.899868	0.066392
O6	O	-0.298476	-0.786731	0.066380
O7	O	-0.264112	-1.006758	0.066405
Zn8	Zn	-0.281290	-0.896742	0.087442
Zn9	Zn	-0.281316	-0.896763	-0.087233
O10	O	-0.585374	-0.893621	0.066393
C11	C	-0.297254	-0.758529	0.000088
C12	C	-0.293560	-0.674473	0.000078
C13	C	-0.265353	-1.034976	0.000119
C14	C	-0.269047	-1.119031	0.000123
N15	N	-0.281271	-0.896733	0.206653
C16	C	0.100592	-0.898640	0.000101
C17	C	0.336808	-0.894866	0.000100
N18	N	-0.281319	-0.896777	-0.206444
C19	C	-0.482134	-0.627777	0.000079
C20	C	-0.478651	-0.548798	0.000089
C21	C	-0.286591	-0.516517	0.000093
C22	C	-0.098003	-0.563220	0.000095
C23	C	-0.101488	-0.642197	0.000091
C24	C	-0.083942	-0.244713	0.000115
C25	C	-0.080470	-0.165730	0.000117
C26	C	-0.461104	-0.151314	0.000113
C27	C	-0.464590	-0.230291	0.000109
C28	C	-0.276002	-0.276987	0.000115
C29	C	-0.279782	-0.362625	0.000105
C30	C	-0.282810	-0.430881	0.000097
C31	C	-0.139075	-0.946847	0.248376
C32	C	-0.139073	-0.946851	0.331828
C33	C	-0.281280	-0.896745	0.373556
C34	C	-0.423483	-0.846626	0.331828
C35	C	-0.423473	-0.846619	0.248377
C36	C	-0.423524	-0.846654	0.668375
C37	C	-0.423527	-0.846667	0.751831
C38	C	-0.139124	-0.946886	0.751826
C39	C	-0.139114	-0.946879	0.668375
C40	C	-0.281309	-0.896758	0.626654
C41	C	-0.281307	-0.896753	0.536166
C42	C	-0.281294	-0.896753	0.464043
H43	H	-0.638531	-0.654053	0.000075
O44	O	0.119463	-0.295067	0.000121
H45	H	0.126984	-0.331400	-0.053912
O46	O	-0.576902	-0.792605	0.623379
H47	H	-0.675802	-0.757773	0.666418
O48	O	0.126694	-0.130912	0.000137
H49	H	0.217316	-0.149530	-0.053890
H50	H	0.058376	-0.536930	0.000110
H51	H	-0.632207	-0.510780	0.000089
O52	O	0.014256	-1.000941	0.796832
H53	H	-0.012185	-1.060188	0.780812
H54	H	-0.620984	-0.256569	0.000102
H55	H	-0.614661	-0.113284	0.000113
H56	H	-0.539263	-0.805825	0.365808
O57	O	0.101898	-0.692569	0.000093
H58	H	0.193825	-0.680876	-0.053944
O59	O	0.014314	-1.000887	0.203370
H60	H	0.113207	-1.035728	0.246406
O61	O	0.014257	-1.000915	0.376832
H62	H	0.113112	-1.035767	0.333796
H63	H	-0.023323	-0.987682	0.634403
H64	H	-0.539333	-0.805862	0.785805
H65	H	-0.539261	-0.805811	0.214407
