data_functionalizedCrystal
_audit_creation_method	'MofGen! by Chris Wilmer'
_symmetry_space_group_name_H-M	'P1'
_symmetry_Int_Tables_number	1
_symmetry_cell_setting	triclinic
loop_
_symmetry_equiv_pos_as_xyz
  x,y,z
_cell_length_a	14.519731
_cell_length_b	9.065218
_cell_length_c	12.996460
_cell_angle_alpha	89.987569
_cell_angle_beta	89.993340
_cell_angle_gamma	95.647598
loop_
_atom_site_label
_atom_site_type_symbol
_atom_site_fract_x
_atom_site_fract_y
_atom_site_fract_z
O1	O	1.225257	-0.193547	0.085587
O2	O	1.558591	0.139786	0.418920
O3	O	1.891924	0.473120	0.752253
O4	O	0.956950	-0.216289	0.085590
O5	O	1.290283	0.117044	0.418924
O6	O	1.623616	0.450378	0.752257
O7	O	1.096649	0.009828	0.085562
O8	O	1.429983	0.343161	0.418895
O9	O	1.763316	0.676494	0.752229
O10	O	1.085558	-0.419664	0.085615
O11	O	1.418891	-0.086330	0.418948
O12	O	1.752224	0.247003	0.752282
O13	O	1.096667	0.009841	-0.085572
O14	O	1.430001	0.343174	0.247762
O15	O	1.763334	0.676507	0.581095
O16	O	0.956968	-0.216276	-0.085543
O17	O	1.290301	0.117057	0.247790
O18	O	1.623634	0.450391	0.581123
O19	O	1.225276	-0.193534	-0.085547
O20	O	1.558609	0.139799	0.247786
O21	O	1.891942	0.473133	0.581120
Cu22	Cu	1.091123	-0.204904	-0.101171
Cu23	Cu	1.424457	0.128429	0.232162
Cu24	Cu	1.757790	0.461763	0.565495
Cu25	Cu	1.091102	-0.204919	0.101214
Cu26	Cu	1.424435	0.128414	0.434548
Cu27	Cu	1.757768	0.461747	0.767881
O28	O	1.085576	-0.419651	-0.085519
O29	O	1.418909	-0.086317	0.247814
O30	O	1.752243	0.247016	0.581148
C31	C	0.922591	-0.215217	0.000023
C32	C	1.255925	0.118116	0.333357
C33	C	1.589258	0.451450	0.666690
C34	C	0.820188	-0.212024	0.000024
C35	C	1.153521	0.121310	0.333357
C36	C	1.486855	0.454643	0.666690
C37	C	0.737025	-0.209429	0.000027
C38	C	1.070358	0.123904	0.333361
C39	C	1.403691	0.457237	0.666694
C40	C	0.632692	-0.206187	0.000027
C41	C	0.966026	0.127146	0.333361
C42	C	1.299359	0.460480	0.666694
C43	C	0.549534	-0.203614	0.000027
C44	C	0.882868	0.129719	0.333360
C45	C	1.216201	0.463053	0.666694
C46	C	0.445195	-0.200372	0.000029
C47	C	0.778529	0.132961	0.333362
C48	C	1.111862	0.466294	0.666696
C49	C	1.095592	0.064801	-0.000009
C50	C	1.428926	0.398134	0.333324
C51	C	1.762259	0.731468	0.666657
C52	C	1.092405	0.228584	-0.000023
C53	C	1.425738	0.561918	0.333310
C54	C	1.759072	0.895251	0.666644
C55	C	1.259634	-0.194606	0.000022
C56	C	1.592967	0.138727	0.333355
C57	C	1.926300	0.472060	0.666689
C58	C	1.362037	-0.197799	0.000029
C59	C	1.695371	0.135534	0.333362
C60	C	2.028704	0.468867	0.666695
N61	N	1.091145	-0.204892	-0.243518
N62	N	1.424478	0.128441	0.089815
N63	N	1.757812	0.461774	0.423148
C64	C	1.086633	0.525376	0.000026
C65	C	1.419966	0.858709	0.333360
C66	C	1.753299	1.192043	0.666693
C67	C	1.089820	0.361592	-0.000038
C68	C	1.423153	0.694926	0.333296
C69	C	1.756487	1.028259	0.666629
N70	N	1.091087	-0.204919	0.243561
N71	N	1.424421	0.128414	0.576895
N72	N	1.757754	0.461747	0.910228
C73	C	1.091090	-0.204921	0.336667
C74	C	1.424423	0.128413	0.670001
C75	C	1.757757	0.461746	1.003334
C76	C	1.091103	-0.204918	0.453473
C77	C	1.424436	0.128415	0.786806
C78	C	1.757769	0.461749	1.120139
C79	C	1.091118	-0.204908	0.546571
C80	C	1.424451	0.128426	0.879904
C81	C	1.757785	0.461759	1.213238
C82	C	1.091130	-0.204902	0.663383
C83	C	1.424463	0.128431	0.996717
C84	C	1.757796	0.461764	1.330050
