data_functionalizedCrystal
_audit_creation_method	'MofGen! by Chris Wilmer'
_symmetry_space_group_name_H-M	'P1'
_symmetry_Int_Tables_number	1
_symmetry_cell_setting	triclinic
loop_
_symmetry_equiv_pos_as_xyz
  x,y,z
_cell_length_a	12.837939
_cell_length_b	12.811434
_cell_length_c	11.892095
_cell_angle_alpha	99.326143
_cell_angle_beta	94.310906
_cell_angle_gamma	90.588503
loop_
_atom_site_label
_atom_site_type_symbol
_atom_site_fract_x
_atom_site_fract_y
_atom_site_fract_z
O1	O	-1.381294	0.268695	-0.066437
O2	O	-1.079529	0.255122	-0.067834
O3	O	-1.239109	0.108867	-0.082823
O4	O	-1.221713	0.414949	-0.051448
O5	O	-1.225804	0.121041	0.106432
O6	O	-1.066223	0.267295	0.121421
O7	O	-1.367989	0.280869	0.122818
Zn8	Zn	-1.214993	0.276015	0.152168
Zn9	Zn	-1.232524	0.259976	-0.097184
O10	O	-1.208408	0.427123	0.137807
C11	C	-1.034269	0.256623	0.026323
C12	C	-0.919232	0.242947	0.024919
C13	C	-1.231890	0.075505	0.007759
C14	C	-1.230190	-0.042043	-0.004298
C15	C	-0.677791	0.407362	0.041790
C16	C	-0.569703	0.394517	0.040472
C17	C	-0.594965	0.204414	0.020973
C18	C	-0.703053	0.217259	0.022291
C19	C	-0.744462	0.318736	0.032698
C20	C	-0.852553	0.331579	0.034008
C21	C	-0.877812	0.141477	0.014517
C22	C	-0.769724	0.128633	0.013200
C23	C	-0.413249	0.279368	0.028660
C24	C	-0.528285	0.293046	0.030062
C25	C	-1.215627	0.460485	0.047223
C26	C	-1.217328	0.578033	0.059272
N27	N	-1.203037	0.286961	0.322344
C28	C	-1.235051	0.785644	-0.124436
C29	C	-1.236650	0.896090	-0.113121
C30	C	-1.222133	0.909372	0.093217
C31	C	-1.220534	0.798926	0.081901
C32	C	-1.226992	0.737066	-0.026929
C33	C	-1.225385	0.626618	-0.038243
C34	C	-1.210875	0.639902	0.168093
C35	C	-1.212474	0.750348	0.179409
N36	N	-1.244489	0.249022	-0.267361
C37	C	-1.327688	0.172791	0.547291
C38	C	-1.319338	0.180451	0.666418
C39	C	-1.177982	0.309935	0.679726
C40	C	-1.186333	0.302275	0.560599
C41	C	-1.261189	0.233702	0.494385
C42	C	-1.269543	0.226048	0.375257
C43	C	-1.128183	0.355526	0.388567
C44	C	-1.119833	0.363186	0.507694
H45	H	-0.886265	0.414207	0.042483
H46	H	-0.711507	0.489988	0.050261
O47	O	-0.497789	0.490104	0.050272
H48	H	-0.544747	0.562820	0.057722
O49	O	-1.205508	0.817068	0.296786
H50	H	-1.207968	0.902031	0.288276
H51	H	-0.561223	0.121802	0.012594
H52	H	-0.735992	0.046013	0.004740
H53	H	-1.230637	0.576253	-0.126858
O54	O	-1.245339	0.948481	-0.218293
H55	H	-1.245373	1.035674	-0.192146
O56	O	-0.949719	0.045877	0.004717
H57	H	-1.031837	0.071853	0.007388
H58	H	-1.204306	0.600338	0.247491
H59	H	-1.330497	0.170215	0.321347
O60	O	-1.039108	0.437156	0.579111
H61	H	-0.985065	0.391061	0.628322
H62	H	-1.388646	0.116963	0.493379
H63	H	-1.373487	0.130849	0.709489
O64	O	-1.097249	0.383892	0.751149
H65	H	-1.102622	0.378984	0.842872
O66	O	-1.215185	0.976101	0.210589
H67	H	-1.144953	1.029050	0.220919
O68	O	-1.242001	0.718913	-0.241808
H69	H	-1.247872	0.771249	-0.307712
O70	O	-1.056444	0.421224	0.331508
H71	H	-1.074819	0.404375	0.237547
