data_functionalizedCrystal
_audit_creation_method	'MofGen! by Chris Wilmer'
_symmetry_space_group_name_H-M	'P1'
_symmetry_Int_Tables_number	1
_symmetry_cell_setting	triclinic
loop_
_symmetry_equiv_pos_as_xyz
  x,y,z
_cell_length_a	8.634740
_cell_length_b	10.723022
_cell_length_c	7.681481
_cell_angle_alpha	84.204373
_cell_angle_beta	96.618670
_cell_angle_gamma	92.518766
loop_
_atom_site_label
_atom_site_type_symbol
_atom_site_fract_x
_atom_site_fract_y
_atom_site_fract_z
O1	O	2.035894	0.417428	-0.146428
O2	O	1.586580	0.383270	-0.146430
O3	O	1.821603	0.219947	-0.146422
O4	O	1.800871	0.580751	-0.146435
O5	O	1.850530	0.199791	0.146436
O6	O	1.615507	0.363114	0.146429
O7	O	2.064821	0.397272	0.146431
Zn8	Zn	1.844757	0.376993	0.192927
Zn9	Zn	1.806644	0.403549	-0.192927
O10	O	1.829798	0.560596	0.146423
C11	C	1.543512	0.365454	-0.000001
C12	C	1.372085	0.342382	-0.000002
C13	C	1.834558	0.163199	0.000005
C14	C	1.830045	0.024133	-0.000001
C15	C	1.694516	-0.039784	-0.000005
C16	C	1.689849	-0.183515	-0.000011
C17	C	2.107889	0.415089	-0.000002
C18	C	2.279315	0.438162	-0.000013
C19	C	1.816842	0.617344	-0.000008
C20	C	1.821354	0.756410	-0.000013
N21	N	1.870779	0.358870	0.456263
N22	N	1.780635	0.421664	-0.456262
H23	H	1.320349	0.242727	-0.000049
C24	C	1.995109	0.272284	0.557849
C25	C	2.015013	0.258444	0.760617
C26	C	2.139341	0.171860	0.862203
C27	C	2.243766	0.099114	0.761022
C28	C	2.223865	0.112952	0.558243
C29	C	2.099537	0.199536	0.456657
H30	H	1.937708	0.312296	0.835527
H31	H	2.154072	0.161617	1.012314
H32	H	2.335801	0.035019	0.836222
H33	H	2.301170	0.059099	0.483333
H34	H	2.084807	0.209779	0.306546
C35	C	1.533077	-0.257752	-0.000016
C36	C	1.506679	-0.358645	0.152053
C37	C	1.349901	-0.432884	0.152049
C38	C	1.219521	-0.406230	-0.000025
C39	C	1.245914	-0.305332	-0.152105
C40	C	1.402692	-0.231092	-0.152101
H41	H	1.603198	-0.378380	0.264637
H42	H	1.330364	-0.507575	0.264630
H43	H	1.103464	-0.461186	-0.000028
H44	H	1.149395	-0.285596	-0.264689
H45	H	1.422229	-0.156401	-0.264682
C46	C	1.978132	-0.169362	-0.000009
C47	C	2.034571	-0.089413	0.152069
C48	C	2.191349	-0.015175	0.152073
C49	C	2.291688	-0.020884	-0.000000
C50	C	2.235251	-0.100836	-0.152089
C51	C	2.078473	-0.175074	-0.152094
H52	H	1.960292	-0.085184	0.264653
H53	H	2.233127	0.044011	0.264661
H54	H	2.407745	0.034072	0.000003
H55	H	2.309529	-0.105065	-0.264673
H56	H	2.036695	-0.234260	-0.264681
H57	H	1.331040	0.537812	-0.000000
H58	H	1.581941	0.011901	0.000005
H59	H	1.942622	-0.027553	0.000005
H60	H	1.688616	0.485757	0.468538
