data_functionalizedCrystal
_audit_creation_method	'MofGen! by Chris Wilmer'
_symmetry_space_group_name_H-M	'P1'
_symmetry_Int_Tables_number	1
_symmetry_cell_setting	triclinic
loop_
_symmetry_equiv_pos_as_xyz
  x,y,z
_cell_length_a	21.395364
_cell_length_b	16.959454
_cell_length_c	21.395356
_cell_angle_alpha	89.977834
_cell_angle_beta	89.976411
_cell_angle_gamma	90.035026
loop_
_atom_site_label
_atom_site_type_symbol
_atom_site_fract_x
_atom_site_fract_y
_atom_site_fract_z
Zn1	Zn	0.957900	-0.314386	-0.354286
Zn2	Zn	0.957823	-0.446568	-0.249518
Zn3	Zn	0.853116	-0.314442	-0.249522
Zn4	Zn	0.853103	-0.446561	-0.354258
O5	O	0.905486	-0.380489	-0.301896
O6	O	1.045567	-0.331900	-0.340398
O7	O	0.943907	-0.429068	-0.161841
O8	O	0.867053	-0.203824	-0.263432
O9	O	1.045511	-0.429014	-0.263425
O10	O	0.944037	-0.203783	-0.340402
O11	O	0.866979	-0.331995	-0.161844
O12	O	0.765437	-0.331988	-0.263406
O13	O	0.867031	-0.429002	-0.441940
O14	O	0.765427	-0.429056	-0.340355
O15	O	0.944025	-0.331893	-0.441960
O16	O	0.943894	-0.557178	-0.263399
O17	O	0.866957	-0.557173	-0.340351
C18	C	0.742698	-0.380528	-0.301878
C19	C	0.673057	-0.380563	-0.301886
C20	C	0.640395	-0.330079	-0.342027
C21	C	0.574960	-0.330058	-0.342030
C22	C	0.542188	-0.380535	-0.301897
C23	C	0.574858	-0.431023	-0.261748
C24	C	0.640292	-0.431037	-0.261742
C25	C	0.438475	-0.451719	-0.296865
C26	C	0.373042	-0.451707	-0.296875
C27	C	0.340368	-0.380492	-0.301911
C28	C	0.373135	-0.309287	-0.306950
C29	C	0.438569	-0.309301	-0.306944
C30	C	0.471236	-0.380526	-0.301899
C31	C	0.236754	-0.329981	-0.342057
C32	C	0.171317	-0.329958	-0.342055
C33	C	0.171216	-0.430930	-0.261777
C34	C	0.236652	-0.430946	-0.261776
C35	C	0.269416	-0.380472	-0.301919
C36	C	0.905433	-0.585856	-0.301885
C37	C	0.905468	-0.673712	-0.301902
C38	C	0.865482	-1.045215	-0.341961
C39	C	0.945663	-1.045160	-0.261895
C40	C	0.945641	-0.962615	-0.261889
C41	C	0.905539	-0.921365	-0.301919
C42	C	0.865458	-0.962662	-0.341955
C43	C	0.985717	-0.921312	-0.221850
C44	C	0.985696	-0.838761	-0.221842
C45	C	0.945596	-0.797510	-0.261876
C46	C	0.905514	-0.838812	-0.301913
C47	C	0.865412	-0.797562	-0.341943
C48	C	0.825332	-0.838862	-0.381985
C49	C	0.825358	-0.921411	-0.381988
C50	C	0.945571	-0.714962	-0.261872
C51	C	0.865387	-0.715009	-0.341937
C52	C	1.068909	-0.380451	-0.301914
C53	C	1.138550	-0.380435	-0.301922
C54	C	0.905535	-0.380440	-0.465319
C55	C	0.905556	-0.380419	-0.534961
C56	C	0.905555	-0.174321	-0.301920
C57	C	0.905585	-0.086465	-0.301931
C58	C	0.865510	-0.329868	-0.567665
C59	C	0.865508	-0.329854	-0.633101
C60	C	0.905563	-0.380382	-0.665829
C61	C	0.945611	-0.430943	-0.633116
C62	C	0.945608	-0.430962	-0.567682
C63	C	0.962016	-0.386578	-0.769516
C64	C	0.962020	-0.386553	-0.834949
C65	C	0.905573	-0.380328	-0.867650
C66	C	0.849120	-0.374111	-0.834910
C67	C	0.849116	-0.374130	-0.769476
C68	C	0.905571	-0.380367	-0.736781
C69	C	0.865522	-0.329759	-0.971307
C70	C	0.865519	-0.329749	-1.036744
C71	C	0.945627	-0.430835	-1.036758
C72	C	0.945625	-0.430848	-0.971323
C73	C	0.905573	-0.380306	-0.938601
C74	C	0.905473	-0.380481	-0.139108
C75	C	0.905573	-0.380279	-0.069468
H76	H	0.263432	-0.288877	-0.374740
O77	O	0.794224	-0.368128	-0.737769
C78	C	0.682244	-0.355749	-0.744627
C79	C	0.744364	-0.362555	-0.780613
H80	H	0.641918	-0.351225	-0.779251
H81	H	0.675570	-0.410133	-0.714002
H82	H	0.683265	-0.300790	-0.713981
H83	H	0.743388	-0.417482	-0.811293
H84	H	0.751014	-0.308133	-0.811199
O85	O	0.543320	-0.280996	-0.381088
C86	C	0.550321	-0.180834	-0.460700
C87	C	0.586227	-0.236365	-0.416507
H88	H	0.584995	-0.144724	-0.489338
H89	H	0.519700	-0.217145	-0.493452
H90	H	0.519677	-0.139480	-0.431988
H91	H	0.616905	-0.277730	-0.445168
H92	H	0.616808	-0.200005	-0.383753
O93	O	0.794285	-0.368219	-0.866690
C94	C	0.724062	-0.428675	-0.940541
C95	C	0.786170	-0.435452	-0.904579
H96	H	0.717488	-0.483017	-0.971193
H97	H	0.683692	-0.424289	-0.905925
H98	H	0.725049	-0.373662	-0.971163
H99	H	0.785245	-0.490462	-0.873956
H100	H	0.826513	-0.439794	-0.939229
O101	O	0.826551	-0.280649	-0.939614
C102	C	0.747114	-0.180363	-0.946505
C103	C	0.791208	-0.235950	-0.982472
H104	H	0.718537	-0.144198	-0.981140
H105	H	0.714300	-0.216636	-0.915870
H106	H	0.775899	-0.139065	-0.915869
H107	H	0.762473	-0.277259	-1.013142
H108	H	0.824023	-0.199628	-1.013067
H109	H	0.792727	-0.955044	-0.414587
H110	H	0.144535	-0.472030	-0.229100
H111	H	0.832904	-0.288587	-1.063371
O112	O	0.984522	-0.479838	-1.068639
C113	C	1.020015	-0.524629	-1.169450
C114	C	0.975943	-0.469081	-1.133420
H115	H	1.013084	-0.515964	-1.221832
H116	H	1.070552	-0.510730	-1.156648
H117	H	1.009005	-0.588366	-1.156538
H118	H	0.986896	-0.405326	-1.146313
H119	H	0.925419	-0.483049	-1.146225
O120	O	0.984591	-0.479972	-0.939647
C121	C	1.064022	-0.580261	-0.946568
C122	C	1.019935	-0.524652	-0.982518
H123	H	1.092600	-0.616411	-0.981214
H124	H	1.096836	-0.544008	-0.915968
H125	H	1.035232	-0.621573	-0.915899
H126	H	1.048674	-0.483329	-1.013221
H127	H	0.987120	-0.560954	-1.013079
O128	O	1.016909	-0.392633	-0.866653
C129	C	1.128893	-0.404941	-0.859784
C130	C	1.066774	-0.398079	-0.823804
H131	H	1.169226	-0.409330	-0.825157
H132	H	1.127943	-0.459935	-0.890396
H133	H	1.135498	-0.350576	-0.890444
H134	H	1.060129	-0.452402	-0.793111
H135	H	1.067752	-0.343052	-0.793232
H136	H	1.007985	-0.391640	-0.742896
H137	H	0.978224	-0.472084	-0.659768
H138	H	0.978220	-0.472126	-0.541054
H139	H	0.263245	-0.472059	-0.229091
O140	O	0.672248	-0.281157	-0.381084
C141	C	0.746199	-0.270671	-0.465661
C142	C	0.710153	-0.326166	-0.421479
H143	H	0.776864	-0.307038	-0.498323
H144	H	0.711636	-0.234599	-0.494396
H145	H	0.776815	-0.229280	-0.436936
H146	H	0.679536	-0.367605	-0.450156
H147	H	0.744749	-0.362183	-0.392742
O148	O	0.826618	-1.085294	-0.380945
C149	C	0.796135	-1.110480	-0.487496
C150	C	0.840196	-1.065055	-0.443419
H151	H	0.807088	-1.094122	-0.538015
H152	H	0.803043	-1.176575	-0.480683
H153	H	0.745617	-1.094330	-0.476413
H154	H	0.890730	-1.081139	-0.454474
H155	H	0.833234	-0.998971	-0.450240
O156	O	0.470114	-0.520977	-0.292000
C157	C	0.463115	-0.662234	-0.281987
C158	C	0.427208	-0.583863	-0.287505
H159	H	0.428441	-0.713096	-0.278338
H160	H	0.493747	-0.670705	-0.325074
H161	H	0.493749	-0.660909	-0.238415
H162	H	0.396540	-0.585131	-0.331052
H163	H	0.396616	-0.575421	-0.244387
H164	H	0.346533	-0.251297	-0.311051
O165	O	0.470302	-0.240065	-0.311809
C166	C	0.463498	-0.098806	-0.321831
C167	C	0.427482	-0.177157	-0.316315
H168	H	0.428893	-0.047926	-0.325488
H169	H	0.494097	-0.090347	-0.278739
H170	H	0.494172	-0.100150	-0.365398
H171	H	0.396774	-0.175869	-0.272773
H172	H	0.396922	-0.185586	-0.359437
H173	H	0.144725	-0.288843	-0.374742
O174	O	0.341189	-0.520864	-0.292094
C175	C	0.267258	-0.609503	-0.339876
C176	C	0.303300	-0.531169	-0.345377
H177	H	0.236607	-0.617851	-0.382944
H178	H	0.301823	-0.660437	-0.336306
H179	H	0.236629	-0.608185	-0.296277
H180	H	0.333931	-0.532410	-0.388974
H181	H	0.268702	-0.480269	-0.348913
H182	H	0.548171	-0.472122	-0.229072
O183	O	0.984573	-1.085349	-0.223048
C184	C	1.020060	-1.212499	-0.187490
C185	C	0.975987	-1.167081	-0.231543
H186	H	1.013125	-1.278588	-0.194334
H187	H	1.070597	-1.196285	-0.198509
H188	H	1.009056	-1.196241	-0.136976
H189	H	0.986935	-1.183315	-0.282073
H190	H	0.925463	-1.183299	-0.220471
H191	H	0.832899	-0.288685	-0.659734
O192	O	0.671926	-0.480158	-0.222730
C193	C	0.664921	-0.580271	-0.143080
C194	C	0.629017	-0.524693	-0.187238
H195	H	0.630244	-0.616280	-0.114363
H196	H	0.695524	-0.621710	-0.171759
H197	H	0.695582	-0.543922	-0.110394
H198	H	0.598322	-0.560978	-0.219933
H199	H	0.598453	-0.483252	-0.158520
O200	O	0.826373	-0.675064	-0.380845
C201	C	0.746880	-0.683830	-0.460295
C202	C	0.791019	-0.729165	-0.416253
H203	H	0.718294	-0.727551	-0.488943
H204	H	0.714076	-0.645264	-0.431529
H205	H	0.775630	-0.645104	-0.493051
H206	H	0.762320	-0.767933	-0.383489
H207	H	0.823825	-0.767681	-0.445058
O208	O	1.024595	-0.961502	-0.182972
C209	C	1.060013	-1.088655	-0.147350
C210	C	1.015996	-1.043234	-0.191458
H211	H	1.053067	-1.154742	-0.154186
H212	H	1.110565	-1.072465	-0.158321
H213	H	1.048962	-1.072374	-0.096850
H214	H	1.026991	-1.059490	-0.241973
H215	H	0.965456	-1.059427	-0.180433
H216	H	0.792678	-0.805267	-0.414574
H217	H	1.018331	-0.805140	-0.189239
H218	H	0.978200	-0.681339	-0.229268
H219	H	0.832895	-0.288716	-0.541028
