data_functionalizedCrystal
_audit_creation_method	'MofGen! by Chris Wilmer'
_symmetry_space_group_name_H-M	'P1'
_symmetry_Int_Tables_number	1
_symmetry_cell_setting	triclinic
loop_
_symmetry_equiv_pos_as_xyz
  x,y,z
_cell_length_a	27.440279
_cell_length_b	27.440280
_cell_length_c	18.760492
_cell_angle_alpha	90.001386
_cell_angle_beta	60.003927
_cell_angle_gamma	60.011417
loop_
_atom_site_label
_atom_site_type_symbol
_atom_site_fract_x
_atom_site_fract_y
_atom_site_fract_z
Zr1	Zr	0.533224	0.469684	-0.093285
O2	O	0.634874	0.391902	-0.207083
O3	O	0.431581	0.493504	-0.058423
O4	O	0.533221	0.493543	-0.207097
O5	O	0.533233	0.391860	0.058894
O6	O	0.533212	0.573746	-0.207083
O7	O	0.533233	0.391864	-0.058409
O8	O	0.351396	0.573676	0.058869
O9	O	0.715049	0.391929	-0.207058
O10	O	0.473379	0.563546	-0.043516
O11	O	0.473386	0.503689	0.044015
O12	O	0.593054	0.503735	-0.131030
O13	O	0.593061	0.443878	-0.043500
Zr14	Zr	0.533209	0.597592	0.093822
Zr15	Zr	0.533209	0.597598	-0.093262
Zr16	Zr	0.533224	0.469678	0.093799
Zr17	Zr	0.661095	0.469727	-0.093245
Zr18	Zr	0.405338	0.597549	0.093781
O19	O	0.634853	0.573772	0.058960
O20	O	0.634852	0.573780	-0.207050
O21	O	0.634874	0.391894	0.058926
O22	O	0.431560	0.675374	0.207620
O23	O	0.431559	0.675382	-0.058389
O24	O	0.431581	0.493496	0.207587
O25	O	0.533200	0.675416	-0.058357
O26	O	0.533212	0.573733	0.207634
O27	O	0.533222	0.493531	0.207619
O28	O	0.533200	0.675412	0.058946
O29	O	0.715038	0.493604	-0.207039
O30	O	0.351396	0.573672	0.207576
O31	O	0.351384	0.675347	0.207595
O32	O	0.351384	0.675351	0.058888
O33	O	0.715050	0.391925	-0.058351
O34	O	0.715038	0.493600	-0.058332
O35	O	0.473379	0.563541	0.131567
O36	O	0.473372	0.623398	0.044037
O37	O	0.593047	0.563587	-0.043478
O38	O	0.593055	0.503730	0.044053
C39	C	0.373269	0.533584	0.000217
C40	C	0.318985	0.533566	0.000200
C41	C	0.084230	0.502386	0.045964
C42	C	0.135260	0.502374	0.045952
O43	O	0.161639	0.475813	0.084827
N44	N	0.160781	0.533610	0.000251
C45	C	0.135265	0.564865	-0.045434
O46	O	0.161658	0.591434	-0.084307
C47	C	0.084232	0.564880	-0.045417
C48	C	0.058718	0.533637	0.000280
C49	C	0.058715	0.471145	0.091658
C50	C	0.007690	0.471156	0.091668
C51	C	-0.017822	0.502408	0.045984
C52	C	0.007693	0.533648	0.000290
C53	C	0.058713	0.596139	-0.091097
C54	C	0.007677	0.596151	-0.091075
C55	C	-0.017837	0.564908	-0.045378
C56	C	-0.068844	0.564910	-0.045384
N57	N	-0.094366	0.533674	0.000317
C58	C	-0.068854	0.502422	0.046001
C59	C	0.242436	0.564833	-0.045466
C60	C	0.293471	0.564815	-0.045488
C61	C	0.293462	0.502324	0.045900
C62	C	0.242429	0.502339	0.045917
C63	C	0.216915	0.533596	0.000236
C64	C	-0.176012	0.502447	0.046018
C65	C	-0.227040	0.502459	0.046021
C66	C	-0.227029	0.564952	-0.045363
C67	C	-0.176002	0.564938	-0.045370
C68	C	-0.150497	0.533684	0.000327
O69	O	-0.095258	0.591459	-0.084236
O70	O	-0.095260	0.475865	0.084877
C71	C	0.533235	0.373637	0.000239
C72	C	0.533242	0.319334	0.000229
C73	C	0.470736	0.013857	0.045974
C74	C	0.470732	-0.037161	0.045982
O75	O	0.417604	-0.036997	0.084859
N76	N	0.533201	-0.093899	0.000299
C77	C	0.595677	-0.099618	-0.045387
O78	O	0.648812	-0.152562	-0.084242
C79	C	0.595680	-0.048600	-0.045389
C80	C	0.533208	0.008137	0.000290
C81	C	0.408268	0.070592	0.091649
C82	C	0.408272	0.121607	0.091640
C83	C	0.470744	0.115887	0.045956
C84	C	0.533212	0.059152	0.000280
C85	C	0.658156	-0.054319	-0.091069
C86	C	0.658154	-0.003295	-0.091067
C87	C	0.595681	0.053442	-0.045388
C88	C	0.595688	0.104447	-0.045414
N89	N	0.533219	0.161185	0.000269
C90	C	0.470747	0.166905	0.045953
C91	C	0.595666	-0.206756	-0.045377
C92	C	0.595664	-0.257773	-0.045381
C93	C	0.470718	-0.195314	0.045989
C94	C	0.470721	-0.144296	0.045987
C95	C	0.533197	-0.150018	0.000305
C96	C	0.470760	0.274037	0.045930
C97	C	0.470770	0.325054	0.045914
C98	C	0.595715	0.262590	-0.045452
C99	C	0.595706	0.211577	-0.045440
C100	C	0.533223	0.217305	0.000258
O101	O	0.648788	0.104329	-0.084268
O102	O	0.417622	0.219851	0.084811
C103	C	0.693164	0.533692	0.000320
C104	C	0.747449	0.533710	0.000337
C105	C	0.533216	0.533645	-0.233745
C106	C	0.533216	0.533647	-0.313168
C107	C	0.533198	0.693639	0.000298
C108	C	0.533192	0.747942	0.000308
C109	C	0.470745	0.564853	-0.603300
C110	C	0.595688	0.502408	-0.694662
C111	C	0.595689	0.502412	-0.620042
C112	C	0.533217	0.533636	-0.537046
C113	C	0.470744	0.564856	-0.528671
C114	C	0.658161	0.471188	-0.628410
C115	C	0.658165	0.471190	-0.553787
C116	C	0.595692	0.502418	-0.470789
C117	C	0.533216	0.533640	-0.462417
C118	C	0.470744	0.564864	-0.379422
C119	C	0.408268	0.596089	-0.371048
C120	C	0.408271	0.596084	-0.445674
C121	C	0.595689	0.502423	-0.396163
C122	C	0.470743	0.564867	-0.304793
C123	C	0.533217	0.533631	0.234282
C124	C	0.533217	0.533629	0.313704
C125	C	0.373251	0.693585	0.000247
C126	C	0.318960	0.747870	0.000239
C127	C	0.373270	0.533577	0.234231
C128	C	0.318985	0.533557	0.313636
C129	C	0.373251	0.693578	0.234260
C130	C	0.318960	0.747861	0.313675
C131	C	0.693183	0.373698	-0.233724
C132	C	0.747473	0.319415	-0.313138
C133	C	0.693183	0.373691	0.000290
C134	C	0.747474	0.319406	0.000298
C135	C	0.693164	0.533699	-0.233694
C136	C	0.747448	0.533719	-0.313099
C137	C	0.293468	0.742121	-0.045474
C138	C	0.242462	0.793122	-0.045498
C139	C	0.216947	0.849872	0.000196
C140	C	0.242444	0.855620	0.045910
C141	C	0.293452	0.804619	0.045929
C142	C	0.293489	0.564789	0.396635
C143	C	0.242490	0.564767	0.471251
C144	C	0.216984	0.533517	0.462867
C145	C	0.242486	0.502280	0.379859
C146	C	0.293487	0.502299	0.305245
C147	C	0.293461	0.804602	0.305279
C148	C	0.242456	0.855611	0.379890
C149	C	0.216947	0.849877	0.462897
C150	C	0.242452	0.793130	0.471292
C151	C	0.293459	0.742122	0.396681
C152	C	0.772979	0.262674	-0.304742
C153	C	0.824000	0.211665	-0.379354
C154	C	0.849511	0.217399	-0.462360
C155	C	0.824003	0.274147	-0.470755
C156	C	0.772987	0.325154	-0.396144
C157	C	0.772971	0.325156	0.046003
C158	C	0.823990	0.274154	0.046007
C159	C	0.849508	0.217404	0.000310
C160	C	0.824008	0.211656	-0.045401
C161	C	0.772994	0.262657	-0.045409
C162	C	0.772938	0.564976	-0.304687
C163	C	0.823937	0.565007	-0.379289
C164	C	0.849450	0.533778	-0.462302
C165	C	0.823955	0.502520	-0.470713
C166	C	0.772954	0.502493	-0.396112
H167	H	-0.013081	0.445717	0.128883
N168	N	0.663082	0.150378	-0.094702
H169	H	0.665868	0.127811	-0.140681
H170	H	0.702621	0.154544	-0.123591
H171	H	0.844736	0.477093	-0.538313
N172	N	0.851492	0.280357	0.095305
H173	H	0.812577	0.302876	0.159225
H174	H	0.887696	0.239418	0.088301
H175	H	0.646550	0.476985	-0.762239
H176	H	0.357406	0.621506	-0.438865
H177	H	0.891047	0.175881	0.000324
N178	N	0.663093	0.256426	-0.094729
H179	H	0.653610	0.297357	-0.087797
H180	H	0.690372	0.233877	-0.070725
N181	N	0.745465	0.468777	-0.405191
H182	H	0.769371	0.448998	-0.469102
H183	H	0.754352	0.437363	-0.376232
H184	H	0.844792	0.165443	-0.082606
H185	H	0.844760	0.165464	-0.372502
H186	H	0.175412	0.891395	0.000174
N187	N	0.851426	0.598724	-0.370206
H188	H	0.827526	0.618497	-0.306296
H189	H	0.902632	0.570059	-0.399168
N190	N	0.663046	-0.318964	-0.094650
H191	H	0.653572	-0.350421	-0.087717
H192	H	0.690327	-0.323685	-0.158549
N193	N	0.214965	0.468584	0.370822
H194	H	0.253874	0.424887	0.337864
H195	H	0.178775	0.473366	0.430717
H196	H	0.314214	0.695922	0.403530
H197	H	0.646556	0.476995	-0.402984
N198	N	0.320964	0.810805	0.215762
H199	H	0.372167	0.791044	0.182775
H200	H	0.312039	0.791041	0.182823
N201	N	0.745495	0.256451	-0.094708
H202	H	0.769404	0.212760	-0.123650
H203	H	0.694292	0.276235	-0.052763
H204	H	0.419870	0.590296	-0.237217
N205	N	0.725538	0.437508	-0.717921
H206	H	0.716057	0.442247	-0.763923
H207	H	0.752818	0.453921	-0.724826
N208	N	0.320993	0.598505	-0.094791
H209	H	0.282085	0.642203	-0.070822
H210	H	0.357203	0.593712	-0.087860
N211	N	-0.148474	0.598627	-0.094669
H212	H	-0.097274	0.569977	-0.140653
H213	H	-0.172428	0.618420	-0.123556
H214	H	0.221709	0.788430	-0.082724
N215	N	0.745427	0.598661	-0.215157
H216	H	0.769317	0.618467	-0.221161
H217	H	0.694222	0.630051	-0.182216
H218	H	-0.013096	0.621607	-0.128273
N219	N	0.340885	0.182794	0.140923
H220	H	0.338098	0.205356	0.186909
H221	H	0.338129	0.205311	0.098961
H222	H	0.314242	0.695916	-0.082694
N223	N	0.320966	0.468602	0.215742
H224	H	0.312085	0.497242	0.182729
H225	H	0.372161	0.437169	0.182812
N226	N	0.745479	0.256473	-0.215224
H227	H	0.754349	0.276255	-0.182218
H228	H	0.694286	0.276216	-0.182306
H229	H	-0.155250	0.476996	0.083227
H230	H	0.890979	0.533804	-0.523040
H231	H	0.314201	0.809309	0.083159
N232	N	-0.254560	0.468762	0.095313
H233	H	-0.230656	0.448966	0.124256
H234	H	-0.305761	0.497445	0.141254
N235	N	0.214930	0.786948	0.560821
H236	H	0.253839	0.764423	0.567838
H237	H	0.178736	0.827893	0.606752
N238	N	0.086223	0.437439	0.140941
H239	H	0.062308	0.417655	0.169887
H240	H	0.137423	0.406031	0.098983
N241	N	0.214921	0.916831	0.095191
H242	H	0.178738	0.948262	0.088240
H243	H	0.193789	0.921553	0.159093
N244	N	0.214952	0.916812	0.370825
H245	H	0.238849	0.912700	0.306918
H246	H	0.163748	0.939328	0.399787
H247	H	0.709029	-0.100509	-0.128264
N248	N	0.904535	0.162381	-0.542830
H249	H	0.916816	0.125567	-0.524907
H250	H	0.886747	0.162400	-0.578722
H251	H	0.314250	0.590237	0.403478
N252	N	0.214910	0.468644	0.095207
H253	H	0.238820	0.448845	0.124142
H254	H	0.163710	0.497327	0.141154
H255	H	0.221733	0.590206	0.538832
H256	H	0.175414	0.891416	0.523643
H257	H	0.314242	0.476878	0.083099
H258	H	0.175456	0.533506	0.523630
H259	H	0.221669	0.590284	-0.082672
H260	H	0.419878	0.590278	-0.596486
H261	H	0.419850	-0.190664	0.083185
N262	N	0.851521	0.280327	-0.560286
H263	H	0.887707	0.239400	-0.606270
H264	H	0.812568	0.302869	-0.567214
H265	H	0.646545	-0.211424	-0.082581
H266	H	0.752221	0.371354	-0.402991
H267	H	0.709037	0.445765	-0.560614
N268	N	0.340888	0.629767	-0.281529
H269	H	0.350372	0.625027	-0.235530
H270	H	0.313608	0.673450	-0.274622
N271	N	0.745456	0.386362	0.095287
H272	H	0.724299	0.391135	0.159207
H273	H	0.784403	0.391115	0.071251
N274	N	0.086224	0.629836	-0.140387
H275	H	0.062309	0.649635	-0.169316
H276	H	0.077368	0.661232	-0.098438
H277	H	0.419895	0.371252	0.083113
N278	N	-0.254551	0.598652	-0.094637
H279	H	-0.305751	0.630083	-0.052719
H280	H	-0.230600	0.618406	-0.123592
N281	N	0.403370	0.280218	0.095217
H282	H	0.363803	0.323905	0.124146
H283	H	0.400645	0.260411	0.053262
H284	H	0.357393	0.075259	0.128856
N285	N	0.403341	-0.083103	0.095251
H286	H	0.363769	-0.087228	0.124187
H287	H	0.400615	-0.060572	0.141194
H288	H	0.709031	-0.007961	-0.128256
