data_functionalizedCrystal
_audit_creation_method	'MofGen! by Chris Wilmer'
_symmetry_space_group_name_H-M	'P1'
_symmetry_Int_Tables_number	1
_symmetry_cell_setting	triclinic
loop_
_symmetry_equiv_pos_as_xyz
  x,y,z
_cell_length_a	23.532407
_cell_length_b	15.944551
_cell_length_c	14.421503
_cell_angle_alpha	90.003340
_cell_angle_beta	89.997762
_cell_angle_gamma	83.173708
loop_
_atom_site_label
_atom_site_type_symbol
_atom_site_fract_x
_atom_site_fract_y
_atom_site_fract_z
O1	O	0.755658	0.101953	-0.076998
O2	O	1.255658	0.601953	0.423002
O3	O	0.589852	0.116706	-0.077025
O4	O	1.089852	0.616706	0.422975
O5	O	0.677283	-0.012983	-0.077003
O6	O	1.177283	0.487017	0.422997
O7	O	0.668227	0.231642	-0.077021
O8	O	1.168227	0.731642	0.422979
O9	O	0.677268	-0.012964	0.077221
O10	O	1.177268	0.487036	0.577221
O11	O	0.589837	0.116726	0.077198
O12	O	1.089837	0.616726	0.577198
O13	O	0.755643	0.101972	0.077225
O14	O	1.255643	0.601972	0.577225
Cu15	Cu	0.672739	0.109351	0.091294
Cu16	Cu	1.172739	0.609351	0.591294
Cu17	Cu	0.672756	0.109328	-0.091094
Cu18	Cu	1.172756	0.609328	0.408906
O19	O	0.668213	0.231662	0.077203
O20	O	1.168213	0.731662	0.577203
C21	C	0.676899	-0.044265	0.000109
C22	C	1.176899	0.455735	0.500109
C23	C	0.675772	-0.137501	0.000110
C24	C	1.175772	0.362499	0.500110
C25	C	0.568627	0.116340	0.000083
C26	C	1.068627	0.616340	0.500083
C27	C	0.505406	0.115211	0.000073
C28	C	1.005406	0.615211	0.500073
C29	C	0.618885	-0.351879	0.000087
C30	C	1.118885	0.148121	0.500087
C31	C	0.645294	-0.413109	0.076133
C32	C	1.145294	0.086891	0.576133
C33	C	0.673733	-0.308210	0.000102
C34	C	1.173733	0.191790	0.500102
C35	C	0.645322	-0.413111	-0.075919
C36	C	1.145322	0.086889	0.424081
C37	C	0.671760	-0.473106	0.000091
C38	C	1.171760	0.026894	0.500091
C39	C	0.700158	-0.368212	0.076211
C40	C	1.200158	0.131788	0.576211
C41	C	0.700178	-0.368208	-0.075910
C42	C	1.200178	0.131792	0.424090
C43	C	0.726627	-0.429421	0.000155
C44	C	1.226627	0.070579	0.500155
C45	C	0.674869	-0.213217	0.000109
C46	C	1.174869	0.286783	0.500109
C47	C	0.670629	-0.568097	0.000090
C48	C	1.170629	-0.068097	0.500090
C49	C	0.106572	0.184874	0.000109
C50	C	0.606572	0.684874	0.500109
C51	C	0.047168	0.183824	0.000115
C52	C	0.547168	0.683824	0.500115
O53	O	0.010674	0.248403	0.000144
O54	O	0.510674	0.748403	0.500144
N55	N	0.024243	0.106724	0.000119
N56	N	0.524243	0.606724	0.500119
C57	C	0.060726	0.030668	0.000127
C58	C	0.560726	0.530668	0.500127
O59	O	0.035772	-0.035009	0.000132
O60	O	0.535772	0.464991	0.500132
C61	C	0.120129	0.031718	0.000128
C62	C	0.620129	0.531718	0.500128
C63	C	0.143051	0.108823	0.000114
C64	C	0.643051	0.608823	0.500114
C65	C	0.129494	0.261973	0.000097
C66	C	0.629494	0.761973	0.500097
C67	C	0.188894	0.263022	0.000089
C68	C	0.688894	0.763022	0.500089
C69	C	0.225373	0.186971	0.000094
C70	C	0.725373	0.686971	0.500094
C71	C	0.202451	0.109872	0.000107
C72	C	0.702451	0.609872	0.500107
C73	C	0.156611	-0.044337	0.000143
C74	C	0.656611	0.455663	0.500143
C75	C	0.216018	-0.043281	0.000144
C76	C	0.716018	0.456719	0.500144
C77	C	0.238939	0.033825	0.000131
C78	C	0.738939	0.533825	0.500131
C79	C	0.298329	0.034871	0.000105
C80	C	0.798329	0.534871	0.500105
N81	N	0.321254	0.111971	0.000100
N82	N	0.821254	0.611971	0.500100
C83	C	0.284776	0.188022	0.000095
C84	C	0.784776	0.688022	0.500095
C85	C	-0.064025	0.028468	0.000127
C86	C	0.435975	0.528468	0.500127
C87	C	-0.123427	0.027417	0.000119
C88	C	0.376573	0.527417	0.500119
C89	C	-0.136981	0.180574	0.000109
C90	C	0.363019	0.680574	0.500109
C91	C	-0.077578	0.181624	0.000110
C92	C	0.422422	0.681624	0.500110
C93	C	-0.041100	0.105569	0.000123
C94	C	0.458900	0.605569	0.500123
C95	C	0.409521	0.190219	0.000079
C96	C	0.909521	0.690219	0.500079
C97	C	0.468927	0.191261	0.000067
C98	C	0.968927	0.691261	0.500067
C99	C	0.482476	0.038104	0.000083
C100	C	0.982476	0.538104	0.500083
C101	C	0.423075	0.037062	0.000089
C102	C	0.923075	0.537062	0.500089
C103	C	0.386599	0.113126	0.000090
C104	C	0.886599	0.613126	0.500090
O105	O	0.334859	-0.029673	0.000080
O106	O	0.834859	0.470327	0.500080
O107	O	0.309738	0.253687	0.000103
O108	O	0.809738	0.753687	0.500103
C109	C	0.776868	0.102338	0.000115
C110	C	1.276868	0.602338	0.500115
C111	C	0.840090	0.103468	0.000119
C112	C	1.340090	0.603468	0.500119
C113	C	0.668596	0.262943	0.000089
C114	C	1.168596	0.762943	0.500089
C115	C	0.669723	0.356179	0.000082
C116	C	1.169723	0.856179	0.500082
N117	N	0.672731	0.109366	0.219575
N118	N	1.172731	0.609366	0.719575
N119	N	0.672769	0.109306	-0.219375
N120	N	1.172769	0.609306	0.280625
C121	C	0.632296	0.169308	0.469218
C122	C	1.132296	0.669308	0.969218
C123	C	0.683757	0.185182	0.531028
C124	C	1.183757	0.685182	1.031028
C125	C	0.672745	0.109346	0.408736
C126	C	1.172745	0.609346	0.908736
C127	C	0.621298	0.093492	0.531020
C128	C	1.121298	0.593492	1.031020
C129	C	0.672754	0.109328	0.591458
C130	C	1.172754	0.609328	1.091458
C131	C	0.724232	0.125257	0.469185
C132	C	1.224232	0.625257	0.969185
C133	C	0.661739	0.033535	0.469172
C134	C	1.161739	0.533535	0.969172
C135	C	0.713237	0.049376	0.530954
C136	C	1.213237	0.549376	1.030954
C137	C	0.672739	0.109358	0.303475
C138	C	1.172739	0.609358	0.803475
C139	C	0.672766	0.109315	0.696717
C140	C	1.172766	0.609315	1.196717
H141	H	0.573358	-0.318187	0.000156
H142	H	1.073358	0.181813	0.500156
H143	H	-0.142084	-0.035370	0.000116
H144	H	0.357916	0.464630	0.500116
H145	H	0.598124	0.220056	0.442111
H146	H	1.098124	0.720056	0.942111
C147	C	-0.177112	0.264231	0.000111
C148	C	0.322888	0.764231	0.500111
H149	H	-0.154957	0.310305	0.000100
H150	H	0.345043	0.810305	0.500100
H151	H	-0.200568	0.267006	0.053892
H152	H	0.299432	0.767006	0.553892
H153	H	-0.200566	0.266995	-0.053677
H154	H	0.299434	0.766995	0.446323
H155	H	0.404412	-0.025724	0.000087
H156	H	0.904412	0.474276	0.500087
H157	H	0.767753	0.138736	0.442138
H158	H	1.267753	0.638736	0.942138
H159	H	-0.034327	-0.033470	0.000129
H160	H	0.465673	0.466530	0.500129
H161	H	0.207551	0.325809	0.000078
H162	H	0.707551	0.825809	0.500078
H163	H	0.137960	-0.107125	0.000154
H164	H	0.637960	0.392875	0.500154
C165	C	0.562518	0.075376	0.567703
C166	C	1.062518	0.575376	1.067703
H167	H	0.533823	0.118036	0.546552
H168	H	1.033823	0.618036	1.046552
H169	H	0.563042	0.074983	0.633566
H170	H	1.063042	0.574983	1.133566
H171	H	0.554422	0.021935	0.545602
H172	H	1.054422	0.521935	1.045602
H173	H	0.099799	0.323906	0.000096
H174	H	0.599799	0.823906	0.500096
C175	C	0.256140	-0.126944	0.000148
C176	C	0.756140	0.373056	0.500148
H177	H	0.233977	-0.173010	0.000147
H178	H	0.733977	0.326990	0.500147
H179	H	0.279598	-0.129716	0.053924
H180	H	0.779598	0.370284	0.553924
H181	H	0.279592	-0.129725	-0.053645
H182	H	0.779592	0.370275	0.446355
C183	C	0.494140	0.276078	0.000052
C184	C	0.994140	0.776078	0.500052
H185	H	0.534743	0.265816	0.000040
H186	H	1.034743	0.765816	0.500040
H187	H	0.481620	0.307379	0.053830
H188	H	0.981620	0.807379	0.553830
H189	H	0.481617	0.307358	-0.053739
H190	H	0.981617	0.807358	0.446261
C191	C	0.759499	-0.019137	0.567355
C192	C	1.259499	0.480863	1.067355
H193	H	0.796009	-0.007739	0.546067
H194	H	1.296009	0.492261	1.046067
H195	H	0.751988	-0.072849	0.545239
H196	H	1.251988	0.427151	1.045239
H197	H	0.759046	-0.019075	0.633225
H198	H	1.259046	0.480925	1.133225
H199	H	0.512187	-0.023814	0.000083
H200	H	1.012187	0.476186	0.500083
H201	H	0.693074	0.249286	0.558197
H202	H	1.193074	0.749286	1.058197
C203	C	0.649130	-0.053032	0.432429
C204	C	1.149130	0.446968	0.932429
H205	H	0.612538	-0.064206	0.453562
H206	H	1.112538	0.435794	0.953562
H207	H	0.677492	-0.095742	0.454485
H208	H	1.177492	0.404258	0.954485
H209	H	0.649566	-0.052547	0.366562
H210	H	1.149566	0.447453	0.866562
H211	H	0.723331	-0.348409	0.140572
H212	H	1.223331	0.151591	0.640572
H213	H	0.723363	-0.348281	-0.140196
H214	H	1.223363	0.151719	0.359804
C215	C	0.369405	0.273887	0.000068
C216	C	0.869405	0.773887	0.500068
H217	H	0.391572	0.319949	0.000049
H218	H	0.891572	0.819949	0.500049
H219	H	0.345947	0.276682	0.053847
H220	H	0.845947	0.776682	0.553847
H221	H	0.345954	0.276652	-0.053722
H222	H	0.845954	0.776652	0.446278
H223	H	0.772194	-0.462964	0.000205
H224	H	1.272194	0.037036	0.500205
C225	C	0.613949	-0.440005	0.162971
C226	C	1.113949	0.059995	0.662971
H227	H	0.575675	-0.413181	0.162874
H228	H	1.075675	0.086819	0.662874
H229	H	0.633060	-0.423876	0.216972
H230	H	1.133060	0.076124	0.716972
H231	H	0.613763	-0.499552	0.162627
H232	H	1.113763	0.000448	0.662627
H233	H	0.622122	-0.433001	-0.140214
H234	H	1.122122	0.066999	0.359786
C235	C	-0.052369	0.266439	0.000103
C236	C	0.447631	0.766439	0.500103
H237	H	-0.082607	0.311577	0.000105
H238	H	0.417393	0.811577	0.500105
H239	H	-0.029475	0.270030	-0.053675
H240	H	0.470525	0.770030	0.446325
H241	H	-0.029483	0.270042	0.053894
H242	H	0.470517	0.770042	0.553894
