data_functionalizedCrystal
_audit_creation_method	'MofGen! by Chris Wilmer'
_symmetry_space_group_name_H-M	'P1'
_symmetry_Int_Tables_number	1
_symmetry_cell_setting	triclinic
loop_
_symmetry_equiv_pos_as_xyz
  x,y,z
_cell_length_a	6.817900
_cell_length_b	7.076028
_cell_length_c	10.943867
_cell_angle_alpha	88.411059
_cell_angle_beta	108.843261
_cell_angle_gamma	117.700652
loop_
_atom_site_label
_atom_site_type_symbol
_atom_site_fract_x
_atom_site_fract_y
_atom_site_fract_z
V1	V	-4.226662	-0.664979	-0.176577
O2	O	-4.182225	-0.652345	0.010602
O3	O	-4.203880	-0.660407	-0.352157
O4	O	-4.253095	-0.955010	-0.172932
O5	O	-4.132670	-0.355703	-0.169864
V6	V	-4.697273	-0.627990	-0.154298
O7	O	-4.516242	-0.746117	-0.225447
O8	O	-4.857890	-0.546851	-0.105427
O9	O	-4.496848	-0.632561	0.021283
O10	O	-4.859107	-0.640624	-0.341476
O11	O	-4.908662	-0.937266	-0.161010
O12	O	-4.447634	-0.337959	-0.157942
C13	C	-4.052692	-0.649911	-0.394989
C14	C	-4.115851	-0.648106	-0.538522
C15	C	-4.346972	-0.658150	-0.629374
C16	C	-4.372491	-0.828178	-0.727965
C17	C	-4.202871	-0.474905	-0.695685
C18	C	-4.140607	-0.818304	-0.635236
C19	C	-3.970936	-0.464874	-0.602935
C20	C	-3.996316	-0.634938	-0.701486
C21	C	-4.248585	-0.267254	-0.164509
C22	C	-4.122434	-0.025695	-0.166359
C23	C	-4.311378	-0.643052	0.064108
C24	C	-4.227461	-0.644870	0.207640
H25	H	-4.229881	-0.329776	-0.722666
H26	H	-3.848513	-0.625156	-0.733136
N27	N	-3.757274	-0.272232	-0.534785
N28	N	-3.580271	-0.283716	-0.462186
H29	H	-3.429374	-0.147650	-0.414051
H30	H	-4.494668	-0.668200	-0.597508
H31	H	-4.542850	-0.981763	-0.782240
N32	N	-4.107015	-1.000569	-0.601601
N33	N	-4.052872	-1.031435	-0.485203
H34	H	-4.029147	-1.160157	-0.461444
