data_functionalizedCrystal
_audit_creation_method	'MofGen! by Chris Wilmer'
_symmetry_space_group_name_H-M	'P1'
_symmetry_Int_Tables_number	1
_symmetry_cell_setting	triclinic
loop_
_symmetry_equiv_pos_as_xyz
  x,y,z
_cell_length_a	19.188930
_cell_length_b	10.268362
_cell_length_c	11.792241
_cell_angle_alpha	90.005428
_cell_angle_beta	96.330902
_cell_angle_gamma	89.981535
loop_
_atom_site_label
_atom_site_type_symbol
_atom_site_fract_x
_atom_site_fract_y
_atom_site_fract_z
O1	O	0.926947	-0.108720	-0.141694
O2	O	0.723744	-0.108631	-0.160769
O3	O	0.830277	-0.108668	0.014013
O4	O	0.820415	-0.108682	-0.316476
O5	O	0.830268	0.107932	0.014020
O6	O	0.723735	0.107970	-0.160762
O7	O	0.926938	0.107881	-0.141687
Cu8	Cu	0.825336	0.127703	-0.151224
Cu9	Cu	0.825347	-0.128453	-0.151232
O10	O	0.820405	0.107919	-0.316469
C11	C	0.697725	-0.000319	-0.160148
C12	C	0.620210	-0.000285	-0.158293
N13	N	0.825333	0.307869	-0.151217
N14	N	0.825355	-0.308618	-0.151230
C15	C	0.575867	-0.000309	-0.260849
C16	C	0.503033	-0.000324	-0.259107
C17	C	0.474546	-0.000339	-0.154803
C18	C	0.518899	-0.000307	-0.052234
C19	C	0.591731	-0.000280	-0.053979
N20	N	0.366117	-0.074107	-0.075079
N21	N	0.296929	-0.074136	-0.073428
C22	C	0.255107	-0.000419	-0.149540
N23	N	0.285086	0.073312	-0.227382
N24	N	0.354280	0.073335	-0.229036
C25	C	0.395573	-0.000368	-0.152900
C26	C	0.131789	-0.000457	-0.250214
C27	C	0.058955	-0.000463	-0.248468
C28	C	0.074822	-0.000460	-0.041591
C29	C	0.147655	-0.000440	-0.043341
C30	C	0.176134	-0.000445	-0.147655
C31	C	0.952957	-0.000434	-0.142309
C32	C	1.030472	-0.000477	-0.144163
C33	C	0.829653	-0.000368	0.056298
C34	C	0.827799	-0.000368	0.182284
C35	C	0.825343	0.573539	-0.151230
C36	C	0.825335	0.425701	-0.151226
C37	C	0.821029	-0.000385	-0.358754
C38	C	0.822884	-0.000393	-0.484740
C39	C	0.824389	-0.000389	0.412945
C40	C	0.826283	-0.000378	0.284588
H41	H	0.466922	-0.000340	-0.342624
N42	N	0.488183	-0.000333	0.060270
H43	H	0.504302	0.079970	0.105187
H44	H	0.435320	-0.000408	0.045726
N45	N	0.195480	-0.000434	0.067282
H46	H	0.226074	-0.080717	0.071166
H47	H	0.225985	0.079924	0.071111
N48	N	0.011146	-0.000469	-0.359111
H49	H	-0.019412	-0.080764	-0.363028
H50	H	-0.019395	0.079877	-0.362946
N51	N	0.639563	-0.000247	0.056639
H52	H	0.610468	-0.000253	0.122983
H53	H	0.670149	-0.080533	0.060422
N54	N	0.044107	-0.000462	0.070911
H55	H	-0.008761	-0.000478	0.056457
H56	H	0.060322	-0.080751	0.115774
H57	H	0.599050	-0.000316	-0.345790
N58	N	0.162513	-0.000456	-0.362717
H59	H	0.123367	-0.000462	-0.427424
H60	H	0.192367	0.079848	-0.367942
