data_functionalizedCrystal
_audit_creation_method	'MofGen! by Chris Wilmer'
_symmetry_space_group_name_H-M	'P1'
_symmetry_Int_Tables_number	1
_symmetry_cell_setting	triclinic
loop_
_symmetry_equiv_pos_as_xyz
  x,y,z
_cell_length_a	12.594517
_cell_length_b	12.594516
_cell_length_c	16.625539
_cell_angle_alpha	90.025003
_cell_angle_beta	90.011051
_cell_angle_gamma	90.007702
loop_
_atom_site_label
_atom_site_type_symbol
_atom_site_fract_x
_atom_site_fract_y
_atom_site_fract_z
Zn1	Zn	1.627294	-0.423857	0.455723
Zn2	Zn	1.877294	-0.173857	0.705723
Zn3	Zn	2.127294	0.076143	0.955723
Zn4	Zn	2.377294	0.326143	1.205723
Zn5	Zn	1.627199	-0.601858	0.320898
Zn6	Zn	1.877199	-0.351858	0.570898
Zn7	Zn	2.127199	-0.101858	0.820898
Zn8	Zn	2.377199	0.148142	1.070898
Zn9	Zn	1.449299	-0.423882	0.320926
Zn10	Zn	1.699299	-0.173882	0.570926
Zn11	Zn	1.949299	0.076118	0.820926
Zn12	Zn	2.199299	0.326118	1.070926
Zn13	Zn	1.449293	-0.601781	0.455710
Zn14	Zn	1.699293	-0.351781	0.705710
Zn15	Zn	1.949293	-0.101781	0.955710
Zn16	Zn	2.199293	0.148219	1.205710
O17	O	1.538271	-0.512845	0.388314
O18	O	1.788271	-0.262845	0.638314
O19	O	2.038271	-0.012845	0.888314
O20	O	2.288271	0.237155	1.138314
O21	O	1.776227	-0.447491	0.437832
O22	O	2.026227	-0.197491	0.687832
O23	O	2.276227	0.052509	0.937832
O24	O	2.526227	0.302509	1.187832
O25	O	1.603563	-0.578292	0.208069
O26	O	1.853563	-0.328292	0.458069
O27	O	2.103563	-0.078292	0.708069
O28	O	2.353563	0.171708	0.958069
O29	O	1.472952	-0.274933	0.338824
O30	O	1.722952	-0.024933	0.588824
O31	O	1.972952	0.225067	0.838824
O32	O	2.222952	0.475067	1.088824
O33	O	1.776157	-0.578268	0.338777
O34	O	2.026157	-0.328268	0.588777
O35	O	2.276157	-0.078268	0.838777
O36	O	2.526157	0.171732	1.088777
O37	O	1.603724	-0.274915	0.437859
O38	O	1.853724	-0.024915	0.687859
O39	O	2.103724	0.225085	0.937859
O40	O	2.353724	0.475085	1.187859
O41	O	1.472861	-0.447533	0.208090
O42	O	1.722861	-0.197533	0.458090
O43	O	1.972861	0.052467	0.708090
O44	O	2.222861	0.302467	0.958090
O45	O	1.300352	-0.447458	0.338812
O46	O	1.550352	-0.197458	0.588812
O47	O	1.800352	0.052542	0.838812
O48	O	2.050352	0.302542	1.088812
O49	O	1.472942	-0.578137	0.568544
O50	O	1.722942	-0.328137	0.818544
O51	O	1.972942	-0.078137	1.068544
O52	O	2.222942	0.171863	1.318544
O53	O	1.300348	-0.578160	0.437837
O54	O	1.550348	-0.328160	0.687837
O55	O	1.800348	-0.078160	0.937837
O56	O	2.050348	0.171840	1.187837
O57	O	1.603719	-0.447417	0.568554
O58	O	1.853719	-0.197417	0.818554
O59	O	2.103719	0.052583	1.068554
O60	O	2.353719	0.302583	1.318554
O61	O	1.603557	-0.750794	0.338764
O62	O	1.853557	-0.500794	0.588764
O63	O	2.103557	-0.250794	0.838764
O64	O	2.353557	-0.000794	1.088764
O65	O	1.472850	-0.750737	0.437810
O66	O	1.722850	-0.500737	0.687810
O67	O	1.972850	-0.250737	0.937810
O68	O	2.222850	-0.000737	1.187810
C69	C	1.261730	-0.512804	0.388327
C70	C	1.511730	-0.262804	0.638327
C71	C	1.761730	-0.012804	0.888327
C72	C	2.011730	0.237196	1.138327
C73	C	1.143425	-0.512813	0.388351
C74	C	1.393425	-0.262813	0.638351
C75	C	1.643425	-0.012813	0.888351
C76	C	1.893425	0.237187	1.138351
C77	C	1.074200	-0.584041	0.442107
C78	C	1.324200	-0.334041	0.692107
C79	C	1.574200	-0.084041	0.942107
C80	C	1.824200	0.165959	1.192107
C81	C	1.003384	-0.486996	0.461937
C82	C	1.253384	-0.236996	0.711937
C83	C	1.503384	0.013004	0.961937
C84	C	1.753384	0.263004	1.211937
C85	C	1.003442	-0.609938	0.368503
C86	C	1.253442	-0.359938	0.618503
C87	C	1.503442	-0.109938	0.868503
C88	C	1.753442	0.140062	1.118503
C89	C	1.074167	-0.415716	0.408220
C90	C	1.324167	-0.165716	0.658220
C91	C	1.574167	0.084284	0.908220
C92	C	1.824167	0.334284	1.158220
C93	C	1.074231	-0.538723	0.314751
C94	C	1.324231	-0.288723	0.564751
C95	C	1.574231	-0.038723	0.814751
C96	C	1.824231	0.211277	1.064751
C97	C	1.003447	-0.441612	0.334554
C98	C	1.253447	-0.191612	0.584554
C99	C	1.503447	0.058388	0.834554
C100	C	1.753447	0.308388	1.084554
C101	C	1.538222	-0.789386	0.388300
C102	C	1.788222	-0.539386	0.638300
C103	C	2.038222	-0.289386	0.888300
C104	C	2.288222	-0.039386	1.138300
C105	C	1.538298	-0.907691	0.388321
C106	C	1.788298	-0.657691	0.638321
C107	C	2.038298	-0.407691	0.888321
C108	C	2.288298	-0.157691	1.138321
C109	C	1.609472	-0.976936	0.334508
C110	C	1.859472	-0.726936	0.584508
C111	C	2.109472	-0.476936	0.834508
C112	C	2.359472	-0.226936	1.084508
C113	C	1.635482	-1.047640	0.408099
C114	C	1.885482	-0.797640	0.658099
C115	C	2.135482	-0.547640	0.908099
C116	C	2.385482	-0.297640	1.158099
C117	C	1.512421	-1.047787	0.314777
C118	C	1.762421	-0.797787	0.564777
C119	C	2.012421	-0.547787	0.814777
C120	C	2.262421	-0.297787	1.064777
C121	C	1.564358	-0.976836	0.461951
C122	C	1.814358	-0.726836	0.711951
C123	C	2.064358	-0.476836	0.961951
C124	C	2.314358	-0.226836	1.211951
C125	C	1.441252	-0.976977	0.368580
C126	C	1.691252	-0.726977	0.618580
C127	C	1.941252	-0.476977	0.868580
C128	C	2.191252	-0.226977	1.118580
C129	C	1.467225	-1.047648	0.442222
C130	C	1.717225	-0.797648	0.692222
C131	C	1.967225	-0.547648	0.942222
C132	C	2.217225	-0.297648	1.192222
C133	C	1.815892	-0.512886	0.388302
C134	C	2.065892	-0.262886	0.638302
C135	C	2.315892	-0.012886	0.888302
C136	C	2.565892	0.237114	1.138302
C137	C	1.934197	-0.512903	0.388297
C138	C	2.184197	-0.262903	0.638297
C139	C	2.434197	-0.012903	0.888297
C140	C	2.684197	0.237097	1.138297
C141	C	1.538340	-0.512765	0.598623
C142	C	1.788340	-0.262765	0.848623
C143	C	2.038340	-0.012765	1.098623
C144	C	2.288340	0.237235	1.348623
C145	C	1.538370	-0.512732	0.688244
C146	C	1.788370	-0.262732	0.938244
C147	C	2.038370	-0.012732	1.188244
C148	C	2.288370	0.237268	1.438244
C149	C	1.538350	-0.235224	0.388346
C150	C	1.788350	0.014776	0.638346
C151	C	2.038350	0.264776	0.888346
C152	C	2.288350	0.514776	1.138346
C153	C	1.538383	-0.116918	0.388360
C154	C	1.788383	0.133082	0.638360
C155	C	2.038383	0.383082	0.888360
C156	C	2.288383	0.633082	1.138360
C157	C	1.538264	-0.512847	0.178824
C158	C	1.788264	-0.262847	0.428824
C159	C	2.038264	-0.012847	0.678824
C160	C	2.288264	0.237153	0.928824
C161	C	1.538440	-0.512581	0.089203
C162	C	1.788440	-0.262581	0.339203
C163	C	2.038440	-0.012581	0.589203
C164	C	2.288440	0.237419	0.839203
C165	C	1.538419	-0.512612	1.016420
C166	C	1.788419	-0.262612	1.266420
C167	C	2.038419	-0.012612	1.516420
C168	C	2.288419	0.237388	1.766420
C169	C	1.538402	-0.512649	0.925112
C170	C	1.788402	-0.262649	1.175112
C171	C	2.038402	-0.012649	1.425112
C172	C	2.288402	0.237351	1.675112
C173	C	1.538395	-0.512673	0.852335
C174	C	1.788395	-0.262673	1.102335
C175	C	2.038395	-0.012673	1.352335
C176	C	2.288395	0.237327	1.602335
C177	C	1.538377	-0.512708	0.761021
C178	C	1.788377	-0.262708	1.011021
C179	C	2.038377	-0.012708	1.261021
C180	C	2.288377	0.237292	1.511021
H181	H	0.972265	-0.465113	0.524157
H182	H	1.222265	-0.215113	0.774157
H183	H	1.472265	0.034887	1.024157
H184	H	1.722265	0.284887	1.274157
H185	H	1.586198	-0.945803	0.524216
H186	H	1.836198	-0.695803	0.774216
H187	H	2.086198	-0.445803	1.024216
H188	H	2.336198	-0.195803	1.274216
Cl189	Cl	1.121925	-0.288923	0.434215
Cl190	Cl	1.371925	-0.038923	0.684215
Cl191	Cl	1.621925	0.211077	0.934215
Cl192	Cl	1.871925	0.461077	1.184215
H193	H	1.105373	-0.560636	0.252550
H194	H	1.355373	-0.310636	0.502550
H195	H	1.605373	-0.060636	0.752550
H196	H	1.855373	0.189364	1.002550
Cl197	Cl	0.955779	-0.348570	0.264332
Cl198	Cl	1.205779	-0.098570	0.514332
Cl199	Cl	1.455779	0.151430	0.764332
Cl200	Cl	1.705779	0.401430	1.014332
Cl201	Cl	0.955474	-0.736691	0.342616
Cl202	Cl	1.205474	-0.486691	0.592616
Cl203	Cl	1.455474	-0.236691	0.842616
Cl204	Cl	1.705474	0.013309	1.092616
Cl205	Cl	1.762251	-1.095542	0.433927
Cl206	Cl	2.012251	-0.845542	0.683927
Cl207	Cl	2.262251	-0.595542	0.933927
Cl208	Cl	2.512251	-0.345542	1.183927
Cl209	Cl	1.702409	-0.928993	0.264309
Cl210	Cl	1.952409	-0.678993	0.514309
Cl211	Cl	2.202409	-0.428993	0.764309
Cl212	Cl	2.452409	-0.178993	1.014309
Cl213	Cl	1.374353	-1.095290	0.512586
Cl214	Cl	1.624353	-0.845290	0.762586
Cl215	Cl	1.874353	-0.595290	1.012586
Cl216	Cl	2.124353	-0.345290	1.262586
Cl217	Cl	1.478575	-1.095904	0.218729
Cl218	Cl	1.728575	-0.845904	0.468729
Cl219	Cl	1.978575	-0.595904	0.718729
Cl220	Cl	2.228575	-0.345904	0.968729
Cl221	Cl	1.122169	-0.676864	0.512378
Cl222	Cl	1.372169	-0.426864	0.762378
Cl223	Cl	1.622169	-0.176864	1.012378
Cl224	Cl	1.872169	0.073136	1.262378
Cl225	Cl	1.314517	-0.929019	0.342736
Cl226	Cl	1.564517	-0.679019	0.592736
Cl227	Cl	1.814517	-0.429019	0.842736
Cl228	Cl	2.064517	-0.179019	1.092736
