data_functionalizedCrystal
_audit_creation_method	'MofGen! by Chris Wilmer'
_symmetry_space_group_name_H-M	'P1'
_symmetry_Int_Tables_number	1
_symmetry_cell_setting	triclinic
loop_
_symmetry_equiv_pos_as_xyz
  x,y,z
_cell_length_a	10.489711
_cell_length_b	10.489716
_cell_length_c	14.586319
_cell_angle_alpha	90.000245
_cell_angle_beta	89.994956
_cell_angle_gamma	84.528072
loop_
_atom_site_label
_atom_site_type_symbol
_atom_site_fract_x
_atom_site_fract_y
_atom_site_fract_z
O1	O	1.694058	0.179788	-0.076265
O2	O	1.322856	0.196720	-0.076258
O3	O	1.516920	0.002653	-0.076265
O4	O	1.499994	0.373855	-0.076258
O5	O	1.516906	0.002650	0.076216
O6	O	1.322843	0.196717	0.076223
O7	O	1.694045	0.179785	0.076216
Cu8	Cu	1.508442	0.188251	0.090142
Cu9	Cu	1.508458	0.188254	-0.090184
O10	O	1.499981	0.373852	0.076223
C11	C	1.275317	0.195448	-0.000017
C12	C	1.133686	0.191646	-0.000015
C13	C	0.951289	0.308352	-0.000024
C14	C	1.043447	0.250057	-0.075204
C15	C	1.043406	0.250023	0.075130
C16	C	0.973507	0.126513	-0.075278
C17	C	0.973457	0.126496	0.075124
C18	C	1.065587	0.068111	-0.000075
C19	C	1.515642	-0.044880	-0.000027
C20	C	1.511837	-0.186511	-0.000035
C21	C	1.630843	-0.284198	-0.000029
C22	C	1.567964	-0.361550	-0.075207
C23	C	1.567923	-0.361517	0.075127
C24	C	1.449008	-0.261998	-0.075275
C25	C	1.448984	-0.261960	0.075127
C26	C	1.386018	-0.339263	-0.000069
C27	C	1.741584	0.181057	-0.000027
C28	C	1.883215	0.184859	-0.000035
C29	C	1.501259	0.421385	-0.000017
C30	C	1.505064	0.563016	-0.000015
N31	N	1.508440	0.188247	0.216974
N32	N	1.508471	0.188247	-0.217016
C33	C	1.594401	0.102344	0.451977
C34	C	1.594404	0.102341	0.547959
C35	C	1.422501	0.274155	0.547974
C36	C	1.422492	0.274151	0.451994
C37	C	1.508449	0.188247	0.403999
C38	C	1.508462	0.188248	0.595959
C39	C	1.508465	0.188245	0.700027
C40	C	1.508445	0.188248	0.299925
H41	H	0.942708	0.074310	-0.138912
H42	H	1.664390	0.032394	0.412901
C43	C	1.085330	0.320640	-0.161062
H44	H	1.142055	0.264318	-0.196458
H45	H	1.127644	0.392728	-0.142985
H46	H	1.012120	0.348407	-0.196718
H47	H	1.398803	-0.218687	-0.138902
C48	C	1.770675	-0.250864	-0.000132
H49	H	1.812776	-0.285133	-0.053617
H50	H	1.813346	-0.286427	0.052735
H51	H	1.772161	-0.160456	0.000404
C52	C	0.884137	0.445463	-0.000115
H53	H	0.832721	0.458175	0.053329
H54	H	0.831578	0.457551	-0.053023
H55	H	0.946693	0.505253	-0.000691
H56	H	1.618180	-0.404996	0.138683
C57	C	1.381177	-0.203152	0.160992
H58	H	1.423602	-0.237382	0.214361
H59	H	1.294678	-0.222943	0.161536
H60	H	1.383449	-0.112841	0.160063
H61	H	1.115053	-0.033485	-0.000115
H62	H	1.664392	0.032389	0.587020
H63	H	1.352518	0.344098	0.587062
H64	H	1.352494	0.344104	0.412927
H65	H	1.074352	0.302295	0.138690
C66	C	0.931531	0.055967	0.160987
H67	H	0.955202	0.099963	0.214358
H68	H	0.972247	-0.028894	0.161527
H69	H	0.841262	0.053352	0.160058
H70	H	1.282425	-0.363682	-0.000108
C71	C	1.635833	-0.420327	-0.161066
H72	H	1.722755	-0.401860	-0.160978
H73	H	1.594425	-0.384920	-0.214455
H74	H	1.632214	-0.510474	-0.160719
