data_functionalizedCrystal
_audit_creation_method	'MofGen! by Chris Wilmer'
_symmetry_space_group_name_H-M	'P1'
_symmetry_Int_Tables_number	1
_symmetry_cell_setting	triclinic
loop_
_symmetry_equiv_pos_as_xyz
  x,y,z
_cell_length_a	12.827893
_cell_length_b	11.169416
_cell_length_c	11.169409
_cell_angle_alpha	90.028030
_cell_angle_beta	90.023106
_cell_angle_gamma	90.011298
loop_
_atom_site_label
_atom_site_type_symbol
_atom_site_fract_x
_atom_site_fract_y
_atom_site_fract_z
Zn1	Zn	-1.597706	0.477767	-0.678684
Zn2	Zn	-1.597601	0.678508	-0.478016
Zn3	Zn	-1.422942	0.477831	-0.478007
Zn4	Zn	-1.422940	0.678401	-0.678649
O5	O	-1.510297	0.578127	-0.578339
O6	O	-1.743928	0.504414	-0.652083
O7	O	-1.574389	0.651959	-0.310065
O8	O	-1.446169	0.309873	-0.504638
O9	O	-1.743851	0.651897	-0.504653
O10	O	-1.574568	0.309826	-0.652074
O11	O	-1.446068	0.504523	-0.310058
O12	O	-1.276705	0.504419	-0.504604
O13	O	-1.446166	0.651715	-0.846603
O14	O	-1.276704	0.651777	-0.652015
O15	O	-1.574566	0.504310	-0.846629
O16	O	-1.574388	0.846443	-0.504619
O17	O	-1.446064	0.846365	-0.652024
C18	C	-1.238787	0.578094	-0.578305
C19	C	-1.122634	0.578109	-0.578320
C20	C	-1.070887	0.505257	-0.651384
C21	C	-0.950837	0.505271	-0.651401
C22	C	-1.510243	0.889951	-0.578345
C23	C	-1.510315	1.023351	-0.578388
C24	C	-0.782867	0.578151	-0.578363
C25	C	-0.899020	0.578136	-0.578349
C26	C	-1.510377	0.577993	-0.891381
C27	C	-1.510412	0.577937	-1.024781
C28	C	-1.510370	1.265084	-0.578371
C29	C	-1.510374	1.131684	-0.578417
C30	C	-1.510277	0.578173	-0.266514
C31	C	-1.510446	0.577892	-0.133115
H32	H	-0.906336	0.442903	-0.713958
H33	H	-0.943515	0.640517	-0.515799
H34	H	-1.078060	0.640488	-0.515776
H35	H	-1.115462	0.442871	-0.713921
