data_functionalizedCrystal
_audit_creation_method	'MofGen! by Chris Wilmer'
_symmetry_space_group_name_H-M	'P1'
_symmetry_Int_Tables_number	1
_symmetry_cell_setting	triclinic
loop_
_symmetry_equiv_pos_as_xyz
  x,y,z
_cell_length_a	12.837943
_cell_length_b	19.188930
_cell_length_c	11.892095
_cell_angle_alpha	93.870839
_cell_angle_beta	85.689438
_cell_angle_gamma	88.986861
loop_
_atom_site_label
_atom_site_type_symbol
_atom_site_fract_x
_atom_site_fract_y
_atom_site_fract_z
O1	O	1.381278	0.177430	-0.094009
O2	O	1.079513	0.168466	-0.094014
O3	O	1.239102	0.071891	-0.093990
O4	O	1.221689	0.274006	-0.094034
O5	O	1.225796	0.079929	0.094016
O6	O	1.066207	0.176505	0.093991
O7	O	1.367972	0.185469	0.093996
Zn8	Zn	1.214977	0.182263	0.123844
Zn9	Zn	1.232508	0.171672	-0.123862
O10	O	1.208383	0.282044	0.093971
C11	C	1.034253	0.169458	-0.000012
C12	C	0.919217	0.160427	-0.000013
C13	C	0.677767	0.268994	-0.000021
C14	C	0.569680	0.260512	-0.000021
C15	C	0.594952	0.134982	-0.000005
C16	C	0.703040	0.143464	-0.000005
C17	C	0.744443	0.210472	-0.000015
C18	C	0.852533	0.218953	-0.000023
C19	C	0.877803	0.093423	0.000001
C20	C	0.769716	0.084941	0.000001
C21	C	1.231885	0.049861	0.000016
C22	C	1.230191	-0.027760	0.000026
C23	C	1.323833	-0.066260	0.000033
C24	C	1.322244	-0.139194	0.000015
C25	C	1.227006	-0.173623	0.000012
C26	C	1.133352	-0.135114	-0.000001
C27	C	1.134944	-0.062182	0.000006
N28	N	1.149679	-0.283886	0.063993
N29	N	1.148172	-0.353168	0.063989
C30	C	1.222201	-0.393362	-0.000010
N31	N	1.297809	-0.361657	-0.063992
N32	N	1.299318	-0.292369	-0.063982
C33	C	1.225268	-0.252705	0.000004
C34	C	1.314126	-0.510946	-0.000025
C35	C	1.312534	-0.583882	-0.000050
C36	C	1.123638	-0.579799	-0.000054
C37	C	1.125234	-0.506866	-0.000041
C38	C	1.220481	-0.472444	-0.000020
C39	C	1.413232	0.184477	-0.000009
C40	C	1.528268	0.193508	-0.000015
C41	C	1.215600	0.304074	-0.000037
C42	C	1.217294	0.381694	-0.000054
N43	N	1.203020	0.189491	0.292896
N44	N	1.244474	0.164439	-0.292914
C45	C	1.327677	0.114101	0.529563
C46	C	1.319327	0.119160	0.647904
C47	C	1.177964	0.204661	0.647920
C48	C	1.186314	0.199603	0.529579
C49	C	1.261175	0.154323	0.470405
C50	C	1.269529	0.149269	0.352062
C51	C	1.128162	0.234767	0.352080
C52	C	1.119812	0.239825	0.470421
H53	H	0.735989	0.030385	0.000021
C54	C	0.891923	-0.031514	0.000012
C55	C	0.951096	0.029089	0.000007
H56	H	0.937174	-0.071229	0.000005
H57	H	0.844607	-0.029411	0.065572
H58	H	0.853872	-0.035006	-0.065552
H59	H	0.989141	0.032584	0.065575
H60	H	0.998430	0.026986	-0.065560
H61	H	1.398501	-0.170548	0.000016
H62	H	1.391682	-0.482919	-0.000013
H63	H	1.048980	-0.475518	-0.000040
C64	C	1.055835	0.358144	0.506843
C65	C	1.037524	0.289595	0.535465
H66	H	1.005028	0.388869	0.546992
H67	H	1.123581	0.371173	0.526232
H68	H	1.051295	0.360878	0.427894
H69	H	1.042071	0.286860	0.614413
H70	H	0.969760	0.276562	0.516083
C71	C	0.641935	0.392224	-0.000047
C72	C	0.723286	0.342647	-0.000036
H73	H	0.670037	0.437694	-0.000050
H74	H	0.604945	0.383502	-0.065604
H75	H	0.595661	0.389104	0.065520
H76	H	0.769556	0.345763	-0.065607
H77	H	0.760293	0.351371	0.065528
H78	H	1.055808	-0.163150	-0.000005
C79	C	0.966253	0.297193	-0.096686
C80	C	0.898044	0.292608	-0.000036
H81	H	0.994340	0.342667	-0.096694
H82	H	1.021431	0.263560	-0.096675
H83	H	0.929238	0.288471	-0.162238
H84	H	0.935061	0.301324	0.065517
H85	H	0.842858	0.326251	-0.000036
C86	C	0.440305	0.319665	-0.096680
C87	C	0.496386	0.324840	-0.000034
H88	H	0.395052	0.359379	-0.096681
H89	H	0.487636	0.317567	-0.162228
H90	H	0.400179	0.278543	-0.096663
H91	H	0.536519	0.365959	-0.000055
H92	H	0.449049	0.326945	0.065531
C93	C	1.428373	0.017508	0.096690
C94	C	1.428527	-0.028424	0.000041
H95	H	1.493009	0.040864	0.096693
H96	H	1.372836	0.050874	0.096681
H97	H	1.419185	-0.008070	0.162243
H98	H	1.437707	-0.002846	-0.065512
H99	H	1.484080	-0.061795	0.000040
H100	H	0.561216	0.080430	0.000095
C101	C	1.419988	0.137811	0.218887
C102	C	1.351765	0.099475	0.286985
H103	H	1.470745	0.107061	0.178711
H104	H	1.381574	0.161053	0.166743
H105	H	1.453924	0.171312	0.265031
H106	H	1.317822	0.065977	0.240840
H107	H	1.390184	0.076221	0.339135
H108	H	1.074014	0.267520	0.303900
H109	H	1.388638	0.077237	0.481383
H110	H	1.058687	-0.030834	0.000001
H111	H	1.388792	-0.615228	-0.000050
C112	C	0.968991	-0.602891	-0.096711
C113	C	1.018948	-0.617635	-0.000062
H114	H	0.904362	-0.626255	-0.096720
H115	H	0.956540	-0.553950	-0.096695
H116	H	1.012188	-0.618480	-0.162264
H117	H	0.975754	-0.602041	0.065491
H118	H	1.031395	-0.666586	-0.000068
H119	H	1.373479	0.086407	0.696067
H120	H	1.117008	0.241523	0.696115
