data_functionalizedCrystal
_audit_creation_method	'MofGen! by Chris Wilmer'
_symmetry_space_group_name_H-M	'P1'
_symmetry_Int_Tables_number	1
_symmetry_cell_setting	triclinic
loop_
_symmetry_equiv_pos_as_xyz
  x,y,z
_cell_length_a	8.559649
_cell_length_b	16.098538
_cell_length_c	8.597304
_cell_angle_alpha	94.919761
_cell_angle_beta	77.624695
_cell_angle_gamma	92.353685
loop_
_atom_site_label
_atom_site_type_symbol
_atom_site_fract_x
_atom_site_fract_y
_atom_site_fract_z
O1	O	2.125887	0.064901	-0.060510
O2	O	1.662532	0.070663	0.019737
O3	O	1.901680	0.051441	-0.248099
O4	O	1.886740	0.084123	0.207326
O5	O	1.887709	-0.085953	-0.232508
O6	O	1.648561	-0.066731	0.035328
O7	O	2.111916	-0.072493	-0.044919
Zn8	Zn	1.878020	-0.091426	-0.002320
Zn9	Zn	1.896428	0.089596	-0.022862
O10	O	1.872768	-0.053271	0.222917
C11	C	1.596157	0.002403	0.033613
C12	C	1.419194	0.003703	0.051715
N13	N	1.865469	-0.214969	0.011697
C14	C	1.967012	-0.266711	-0.101952
C15	C	1.958247	-0.353195	-0.092134
C16	C	1.847946	-0.387936	0.031341
C17	C	1.746393	-0.336188	0.144996
C18	C	1.755151	-0.249706	0.135170
C19	C	1.816196	-0.648631	0.066936
C20	C	1.807449	-0.735120	0.076756
C21	C	2.019302	-0.752121	-0.160377
C22	C	2.028057	-0.665636	-0.170186
C23	C	1.926498	-0.613896	-0.056537
C24	C	1.838988	-0.476336	0.041383
C25	C	1.935449	-0.525498	-0.066586
C26	C	2.178291	-0.004231	-0.058796
C27	C	2.355255	-0.005526	-0.076898
C28	C	1.892312	-0.021400	-0.298069
C29	C	1.885195	-0.033746	-0.470188
N30	N	1.908991	0.213138	-0.036893
C31	C	1.882136	0.019571	0.272886
C32	C	1.889254	0.031923	0.445005
H33	H	1.435896	-0.014417	-0.200858
C34	C	2.164458	-0.454709	-0.140599
C35	C	2.069867	-0.410076	-0.217046
H36	H	2.233360	-0.489830	-0.217719
H37	H	2.226672	-0.416810	-0.086589
H38	H	2.097485	-0.487768	-0.065660
H39	H	2.136839	-0.377012	-0.291977
H40	H	2.007647	-0.447980	-0.271082
H41	H	2.117873	-0.637353	-0.270730
C42	C	1.333705	-0.048953	0.310131
C43	C	1.310339	0.015716	0.219075
H44	H	1.266509	-0.041531	0.413451
H45	H	1.308111	-0.100899	0.259221
H46	H	1.442342	-0.048275	0.319493
H47	H	1.201704	0.015035	0.209703
H48	H	1.335922	0.067676	0.269996
H49	H	1.717624	-0.763401	0.177312
C50	C	2.175524	-0.292212	-0.335368
C51	C	2.088256	-0.228528	-0.237685
H52	H	2.250367	-0.268640	-0.419172
H53	H	2.230911	-0.321778	-0.273682
H54	H	2.104476	-0.329400	-0.379519
H55	H	2.159304	-0.191344	-0.193524
H56	H	2.032867	-0.198949	-0.299380
C57	C	2.039157	-0.864853	-0.364917
C58	C	2.130913	-0.808998	-0.285308
H59	H	2.108063	-0.899962	-0.442057
H60	H	1.972233	-0.897914	-0.289973
H61	H	1.974966	-0.834559	-0.416735
H62	H	2.195096	-0.839292	-0.233480
H63	H	2.197864	-0.775932	-0.360264
C64	C	1.870788	-0.180683	-0.437473
C65	C	1.873135	-0.122410	-0.549916
H66	H	1.863333	-0.235419	-0.486695
H67	H	1.966300	-0.174732	-0.397711
H68	H	1.781120	-0.171426	-0.351766
H69	H	1.962810	-0.131663	-0.635618
H70	H	1.777613	-0.128365	-0.589702
C71	C	1.605927	-0.640525	0.302325
C72	C	1.704576	-0.591766	0.191870
H73	H	1.537023	-0.605414	0.379463
H74	H	1.543713	-0.678418	0.248302
H75	H	1.670147	-0.670802	0.354141
H76	H	1.640356	-0.561493	0.140046
H77	H	1.766795	-0.553858	0.245900
C78	C	2.040771	0.160743	-0.553198
C79	C	1.901290	0.120577	-0.475242
H80	H	2.048188	0.215475	-0.503950
H81	H	2.131313	0.130204	-0.546233
H82	H	2.037393	0.163802	-0.662280
H83	H	1.904674	0.117513	-0.366163
H84	H	1.810725	0.151124	-0.482192
C85	C	1.638912	-0.461208	0.265362
C86	C	1.625150	-0.374373	0.280727
H87	H	1.564068	-0.484777	0.349168
H88	H	1.617782	-0.482680	0.165344
H89	H	1.744215	-0.475055	0.271182
H90	H	1.519849	-0.360526	0.274895
H91	H	1.646269	-0.352893	0.380771
C92	C	1.544881	-0.241581	0.370563
C93	C	1.643540	-0.192828	0.260103
H94	H	1.475980	-0.206466	0.447695
H95	H	1.482664	-0.279473	0.316541
H96	H	1.609094	-0.271859	0.422384
H97	H	1.579327	-0.162555	0.208273
H98	H	1.705762	-0.154921	0.314131
H99	H	2.025251	-0.497210	-0.167125
H100	H	1.749182	-0.504629	0.141922
