data_functionalizedCrystal
_audit_creation_method	'MofGen! by Chris Wilmer'
_symmetry_space_group_name_H-M	'P1'
_symmetry_Int_Tables_number	1
_symmetry_cell_setting	triclinic
loop_
_symmetry_equiv_pos_as_xyz
  x,y,z
_cell_length_a	27.732048
_cell_length_b	10.654541
_cell_length_c	9.730217
_cell_angle_alpha	90.004692
_cell_angle_beta	89.998755
_cell_angle_gamma	83.563292
loop_
_atom_site_label
_atom_site_type_symbol
_atom_site_fract_x
_atom_site_fract_y
_atom_site_fract_z
O1	O	-0.641857	-0.149417	-0.114113
O2	O	-0.501205	-0.172136	-0.114154
O3	O	-0.574765	0.022099	-0.114124
O4	O	-0.568296	-0.343652	-0.114143
O5	O	-0.574759	0.022106	0.114456
O6	O	-0.501199	-0.172129	0.114426
O7	O	-0.641851	-0.149410	0.114467
Zn8	Zn	-0.571524	-0.160769	0.150739
Zn9	Zn	-0.571532	-0.160778	-0.150425
O10	O	-0.568290	-0.343645	0.114437
C11	C	-0.574288	0.068880	0.000165
C12	C	-0.572867	0.208264	0.000162
C13	C	-0.483192	-0.171656	0.000131
C14	C	-0.429528	-0.170220	0.000115
C15	C	-0.659864	-0.149891	0.000180
C16	C	-0.713528	-0.151327	0.000186
C17	C	-0.091371	-0.275959	0.000169
C18	C	0.110322	-0.270631	0.000182
O19	O	0.140975	-0.367323	0.000236
N20	N	0.130162	-0.155458	0.000185
C21	C	0.099576	-0.041609	0.000195
O22	O	0.121080	0.056476	0.000212
C23	C	-0.102116	-0.046938	0.000192
C24	C	-0.121953	-0.162119	0.000174
C25	C	-0.111209	-0.391131	0.000153
C26	C	-0.161630	-0.392462	0.000143
C27	C	-0.192212	-0.278621	0.000148
C28	C	-0.172374	-0.163450	0.000164
C29	C	-0.132701	0.066910	0.000211
C30	C	-0.183126	0.065567	0.000214
C31	C	-0.202964	-0.049613	0.000196
C32	C	-0.253376	-0.050940	0.000158
N33	N	-0.273216	-0.166113	0.000155
C34	C	-0.242634	-0.279954	0.000150
C35	C	0.205468	-0.038819	0.000193
C36	C	0.255890	-0.037486	0.000191
C37	C	0.266632	-0.266509	0.000181
C38	C	0.216209	-0.267841	0.000173
C39	C	0.185627	-0.153992	0.000190
C40	C	-0.348521	-0.282740	0.000126
C41	C	-0.398946	-0.284060	0.000110
C42	C	-0.409684	-0.055038	0.000127
C43	C	-0.359263	-0.053716	0.000136
C44	C	-0.328682	-0.167578	0.000141
O45	O	-0.284058	0.045700	0.000119
O46	O	-0.264147	-0.378023	0.000163
C47	C	-0.040951	-0.274629	0.000180
C48	C	-0.021113	-0.159457	0.000196
C49	C	-0.051695	-0.045617	0.000201
C50	C	0.029310	-0.158124	0.000194
C51	C	0.059892	-0.271965	0.000189
C52	C	0.040051	-0.387138	0.000185
C53	C	-0.010369	-0.388469	0.000175
C54	C	-0.031854	0.069557	0.000204
C55	C	0.018566	0.070878	0.000213
C56	C	0.049148	-0.042962	0.000208
C57	C	-0.568768	-0.390427	0.000145
C58	C	-0.570189	-0.529811	0.000139
N59	N	-0.571522	-0.160762	0.356275
C60	C	-0.660829	0.239933	0.000206
C61	C	-0.704140	0.321248	0.000230
C62	C	-0.702803	0.452210	0.000225
C63	C	-0.658149	0.501858	0.000192
C64	C	-0.614838	0.420543	0.000168
C65	C	-0.616180	0.289580	0.000177
C66	C	-0.526877	0.388874	0.000115
C67	C	-0.528213	0.257912	0.000129
C68	C	-0.482223	0.438522	0.000082
C69	C	-0.438911	0.357207	0.000067
C70	C	-0.440250	0.226238	0.000074
C71	C	-0.484902	0.176597	0.000105
C72	C	-0.512393	-0.009472	0.356321
C73	C	-0.482834	0.066176	0.428284
C74	C	-0.482841	0.066176	0.572164
C75	C	-0.512409	-0.009483	0.644084
C76	C	-0.541968	-0.085130	0.572121
C77	C	-0.541959	-0.085119	0.428238
C78	C	-0.601093	-0.236426	0.572075
C79	C	-0.601090	-0.236421	0.428195
C80	C	-0.630662	-0.312085	0.643995
C81	C	-0.660224	-0.387728	0.572032
C82	C	-0.660217	-0.387723	0.428144
C83	C	-0.630649	-0.312069	0.356233
N84	N	-0.571534	-0.160778	0.644038
H85	H	-0.415095	-0.377858	0.000095
Cl86	Cl	-0.760274	0.258827	0.000263
H87	H	-0.458769	0.127769	0.630756
Cl88	Cl	-0.385798	0.124023	0.000033
H89	H	-0.458760	0.127774	0.369711
Cl90	Cl	-0.486590	0.011961	0.000122
H91	H	-0.512389	-0.009455	0.239167
Cl92	Cl	-0.512409	-0.009501	0.824963
Cl93	Cl	-0.310084	-0.425882	0.000130
Cl94	Cl	-0.630667	-0.312095	0.824874
Cl95	Cl	-0.757252	0.554438	0.000244
Cl96	Cl	-0.662514	0.075295	0.000243
H97	H	-0.343110	0.040073	0.000130
Cl98	Cl	0.078507	-0.530251	0.000173
H99	H	-0.630642	-0.312054	0.239078
Cl100	Cl	-0.697387	-0.482841	0.662452
H101	H	-0.481137	0.545160	0.000069
Cl102	Cl	-0.697378	-0.482834	0.337689
Cl103	Cl	-0.382781	0.419629	0.000009
Cl104	Cl	-0.656469	0.666497	0.000093
H105	H	-0.086314	-0.483839	0.000154
Cl106	Cl	0.191275	-0.412644	0.000156
Cl107	Cl	0.305087	-0.409622	0.000180
Cl108	Cl	0.280823	0.107319	0.000179
Cl109	Cl	-0.186560	-0.537268	0.000131
H110	H	-0.116558	0.160702	0.000226
Cl111	Cl	0.167029	0.104321	0.000210
Cl112	Cl	-0.221569	0.208701	0.000237
Cl113	Cl	-0.035300	-0.533276	0.000155
Cl114	Cl	0.043498	0.215692	0.000218
Cl115	Cl	-0.448139	0.088068	0.000140
H116	H	-0.056750	0.162262	0.000212
