data_functionalizedCrystal
_audit_creation_method	'MofGen! by Chris Wilmer'
_symmetry_space_group_name_H-M	'P1'
_symmetry_Int_Tables_number	1
_symmetry_cell_setting	triclinic
loop_
_symmetry_equiv_pos_as_xyz
  x,y,z
_cell_length_a	16.992694
_cell_length_b	11.792254
_cell_length_c	15.455313
_cell_angle_alpha	92.683372
_cell_angle_beta	87.142206
_cell_angle_gamma	87.433410
loop_
_atom_site_label
_atom_site_type_symbol
_atom_site_fract_x
_atom_site_fract_y
_atom_site_fract_z
O1	O	1.044834	0.236105	-0.072023
O2	O	1.544834	0.736105	0.427977
O3	O	0.816539	0.233462	-0.072048
O4	O	1.316539	0.733462	0.427952
O5	O	0.936221	0.070067	-0.072029
O6	O	1.436221	0.570067	0.427971
O7	O	0.925152	0.399500	-0.072042
O8	O	1.425152	0.899500	0.427958
O9	O	0.929377	0.079370	0.072232
O10	O	1.429377	0.579370	0.572232
O11	O	0.809695	0.242765	0.072213
O12	O	1.309695	0.742765	0.572213
O13	O	1.037990	0.245408	0.072238
O14	O	1.537990	0.745408	0.572238
Cu15	Cu	0.923217	0.244936	0.085398
Cu16	Cu	1.423217	0.744936	0.585398
Cu17	Cu	0.931311	0.233934	-0.085207
Cu18	Cu	1.431311	0.733934	0.414793
O19	O	0.918308	0.408803	0.072219
O20	O	1.418308	0.908803	0.572219
C21	C	0.783890	0.234716	0.000079
C22	C	1.283890	0.734716	0.500079
C23	C	0.696803	0.224577	0.000070
C24	C	1.196803	0.724577	0.500070
C25	C	0.932102	0.032371	0.000102
C26	C	1.432102	0.532371	0.500102
C27	C	0.930014	-0.093813	0.000101
C28	C	1.430014	0.406187	0.500101
C29	C	0.646981	0.322394	0.000066
C30	C	1.146981	0.822394	0.500066
C31	C	0.565153	0.312863	0.000079
C32	C	1.065153	0.812863	0.500079
C33	C	0.533148	0.205512	0.000088
C34	C	1.033148	0.705512	0.500088
C35	C	0.582976	0.107688	0.000094
C36	C	1.082976	0.607688	0.500094
C37	C	0.664802	0.117221	0.000088
C38	C	1.164802	0.617221	0.500088
C39	C	0.289380	0.166001	0.000113
C40	C	0.789380	0.666001	0.500113
C41	C	0.207548	0.156475	0.000117
C42	C	0.707548	0.656475	0.500117
C43	C	0.189730	0.361651	0.000103
C44	C	0.689730	0.861651	0.500103
C45	C	0.271559	0.371175	0.000091
C46	C	0.771559	0.871175	0.500091
C47	C	0.321379	0.273351	0.000102
C48	C	0.821379	0.773351	0.500102
N49	N	0.449507	0.195767	0.000098
N50	N	0.949507	0.695767	0.500098
N51	N	0.405019	0.283098	0.000098
N52	N	0.905019	0.783098	0.500098
C53	C	0.928319	-0.196288	0.000097
C54	C	1.428319	0.303712	0.500097
C55	C	0.926199	-0.324849	0.000089
C56	C	1.426199	0.175151	0.500089
C57	C	1.070639	0.244154	0.000109
C58	C	1.570639	0.744154	0.500109
C59	C	1.157726	0.254293	0.000113
C60	C	1.657726	0.754293	0.500113
C61	C	0.922427	0.446499	0.000087
C62	C	1.422427	0.946499	0.500087
C63	C	0.924515	0.572683	0.000082
C64	C	1.424515	1.072683	0.500082
N65	N	0.917530	0.252673	0.205392
N66	N	1.417530	0.752673	0.705392
N67	N	0.937005	0.226188	-0.205202
N68	N	1.437005	0.726188	0.294798
C69	C	0.968393	0.183286	0.250795
C70	C	1.468393	0.683286	0.750795
C71	C	0.964100	0.189149	0.341602
C72	C	1.464100	0.689149	0.841602
C73	C	0.908946	0.264405	0.387005
C74	C	1.408946	0.764405	0.887005
C75	C	0.858077	0.333795	0.341596
C76	C	1.358077	0.833795	0.841596
C77	C	0.862368	0.327926	0.250791
C78	C	1.362368	0.827926	0.750791
C79	C	0.890427	0.289709	0.658584
C80	C	1.390427	0.789709	1.158584
C81	C	0.886141	0.295575	0.749395
C82	C	1.386141	0.795575	1.249395
C83	C	0.992163	0.150927	0.749395
C84	C	1.492163	0.650927	1.249395
C85	C	0.996452	0.145069	0.658588
C86	C	1.496452	0.645069	1.158588
C87	C	0.945581	0.214455	0.613187
C88	C	1.445581	0.714455	1.113187
N89	N	0.904557	0.270402	0.479825
N90	N	1.404557	0.770402	0.979825
N91	N	0.949966	0.208451	0.520369
N92	N	1.449966	0.708451	1.020369
H93	H	0.524591	0.392516	0.000075
H94	H	1.024591	0.892516	0.500075
H95	H	1.041362	0.083790	0.621622
H96	H	1.541362	0.583790	1.121622
O97	O	1.047024	0.076082	0.798360
O98	O	1.547024	0.576082	1.298360
H99	H	1.034773	0.092795	0.869131
H100	H	1.534773	0.592795	1.369131
H101	H	0.813166	0.395067	0.378569
H102	H	1.313166	0.895067	0.878569
O103	O	0.826643	0.376734	0.798372
O104	O	1.326643	0.876734	1.298372
H105	H	0.791982	0.423986	0.751547
H106	H	1.291982	0.923986	1.251547
O107	O	0.343107	0.060493	0.000126
O108	O	0.843107	0.560493	0.500126
H109	H	0.334462	0.005681	-0.058671
H110	H	0.834462	0.505681	0.441329
H111	H	0.556911	0.020282	0.000114
H112	H	1.056911	0.520282	0.500114
O113	O	0.807513	0.402769	0.201814
O114	O	1.307513	0.902769	0.701814
H115	H	0.768446	0.456095	0.248639
H116	H	1.268446	0.956095	0.748639
O117	O	1.018958	0.114315	0.390579
O118	O	1.518958	0.614315	0.890579
H119	H	1.055316	0.168283	0.431946
H120	H	1.555316	0.668283	0.931946
O121	O	0.718545	0.011720	0.000089
O122	O	1.218545	0.511720	0.500089
H123	H	0.682545	-0.064531	0.000089
H124	H	1.182545	0.435469	0.500089
O125	O	0.835568	0.364553	0.609620
O126	O	1.335568	0.864553	1.109620
H127	H	0.796505	0.417878	0.656450
H128	H	1.296505	0.917878	1.156450
O129	O	1.027878	0.102112	0.201825
O130	O	1.527878	0.602112	0.701825
H131	H	1.062518	0.054839	0.248656
H132	H	1.562518	0.554839	0.748656
O133	O	0.173023	0.040686	0.000135
O134	O	0.673023	0.540686	0.500135
H135	H	0.221412	-0.025736	0.000150
H136	H	0.721412	0.474264	0.500150
O137	O	0.681500	0.438181	0.000065
O138	O	1.181500	0.938181	0.500065
H139	H	0.633104	0.504597	0.000076
H140	H	1.133104	1.004597	0.500076
O141	O	0.306068	0.486967	0.000101
O142	O	0.806068	0.986967	0.500101
H143	H	0.288865	0.530550	-0.058691
H144	H	0.788865	1.030550	0.441309
O145	O	0.135998	0.467160	0.000109
O146	O	0.635998	0.967160	0.500109
H147	H	0.073721	0.442503	0.000126
H148	H	0.573721	0.942503	0.500126
