data_functionalizedCrystal
_audit_creation_method	'MofGen! by Chris Wilmer'
_symmetry_space_group_name_H-M	'P1'
_symmetry_Int_Tables_number	1
_symmetry_cell_setting	triclinic
loop_
_symmetry_equiv_pos_as_xyz
  x,y,z
_cell_length_a	13.635800
_cell_length_b	21.967450
_cell_length_c	19.551833
_cell_angle_alpha	92.047629
_cell_angle_beta	78.336523
_cell_angle_gamma	60.653002
loop_
_atom_site_label
_atom_site_type_symbol
_atom_site_fract_x
_atom_site_fract_y
_atom_site_fract_z
V1	V	2.047311	-0.097410	-0.218205
O2	O	1.995342	0.003927	-0.213697
O3	O	2.066194	-0.192423	-0.217053
O4	O	2.018129	-0.096243	-0.313216
O5	O	2.043740	-0.092919	-0.116868
V6	V	2.284188	-0.085250	-0.206043
O7	O	2.188655	-0.124085	-0.244883
O8	O	2.367943	-0.058576	-0.179364
O9	O	2.153703	0.009763	-0.207194
O10	O	2.394856	-0.186588	-0.210550
O11	O	2.346458	-0.089741	-0.307379
O12	O	2.201767	-0.086418	-0.111031
V13	V	2.547311	-0.097410	-0.218205
O14	O	2.495342	0.003927	-0.213697
O15	O	2.566194	-0.192423	-0.217053
O16	O	2.518129	-0.096243	-0.313216
O17	O	2.543740	-0.092919	-0.116868
V18	V	2.784188	-0.085250	-0.206043
O19	O	2.688655	-0.124085	-0.244883
O20	O	2.867943	-0.058576	-0.179364
O21	O	2.653703	0.009763	-0.207194
O22	O	2.894856	-0.186588	-0.210550
O23	O	2.846458	-0.089741	-0.307379
O24	O	2.701767	-0.086418	-0.111031
C25	C	2.052233	0.032911	-0.210547
C26	C	1.985804	0.110587	-0.210860
C27	C	1.923123	0.157265	-0.146977
C28	C	1.860686	0.230251	-0.147262
C29	C	1.860938	0.256557	-0.211429
C30	C	1.923623	0.209872	-0.275316
C31	C	1.986052	0.136888	-0.275032
C32	C	1.999336	-0.215575	-0.213698
C33	C	2.055385	-0.293252	-0.213390
C34	C	2.059963	-0.319526	-0.149212
C35	C	2.112662	-0.392509	-0.148901
C36	C	2.160762	-0.439215	-0.212770
C37	C	2.156186	-0.412933	-0.276957
C38	C	2.103497	-0.339952	-0.277266
C39	C	2.201457	-0.560382	-0.259081
C40	C	2.254138	-0.633362	-0.258768
C41	C	2.323277	-0.664316	-0.211818
C42	C	2.339712	-0.622279	-0.165168
C43	C	2.287024	-0.549298	-0.165478
C44	C	2.217897	-0.518353	-0.212442
C45	C	2.384998	-0.769727	-0.147298
C46	C	2.437705	-0.842712	-0.146990
C47	C	2.481219	-0.863135	-0.275047
C48	C	2.428522	-0.790151	-0.275354
C49	C	2.380409	-0.743451	-0.211477
C50	C	1.938024	-0.092886	-0.336363
C51	C	1.955091	-0.092560	-0.414037
C52	C	2.552233	0.032911	-0.210547
C53	C	2.485804	0.110587	-0.210860
C54	C	2.055586	-0.095915	-0.454097
C55	C	2.071623	-0.095608	-0.527080
C56	C	1.987169	-0.091962	-0.560004
C57	C	1.886657	-0.088603	-0.519934
C58	C	1.870617	-0.088902	-0.446951
C59	C	1.972995	-0.129955	-0.679451
C60	C	1.989041	-0.129661	-0.752433
C61	C	2.036633	-0.091036	-0.785107
C62	C	2.068200	-0.052715	-0.744791
C63	C	2.052161	-0.053015	-0.671808
C64	C	2.004550	-0.091637	-0.639141
C65	C	2.154522	-0.094057	-0.904303
C66	C	2.170552	-0.093747	-0.977287
C67	C	1.985588	-0.086748	-0.970141
C68	C	1.969556	-0.087052	-0.897158
C69	C	2.054029	-0.090710	-0.864244
C70	C	2.113545	-0.089776	-0.087881
C71	C	2.086095	-0.090099	-0.010205
C72	C	2.499336	-0.215575	-0.213698
C73	C	2.555385	-0.293252	-0.213390
C74	C	2.438024	-0.092886	-0.336363
C75	C	2.455091	-0.092560	-0.414037
C76	C	2.613545	-0.089776	-0.087881
C77	C	2.586095	-0.090099	-0.010205
C78	C	2.674228	-0.333304	-0.216749
C79	C	2.726910	-0.406291	-0.216470
C80	C	2.660744	-0.439224	-0.212827
C81	C	2.541890	-0.399167	-0.209470
C82	C	2.489213	-0.326182	-0.209754
C83	C	2.555587	-0.095903	-0.454088
C84	C	2.571630	-0.095588	-0.527071
C85	C	2.487180	-0.091934	-0.560002
C86	C	2.386674	-0.088589	-0.519945
C87	C	2.370629	-0.088900	-0.446963
C88	C	2.488311	-0.093744	0.022708
C89	C	2.462498	-0.094039	0.095692
C90	C	2.534475	-0.090693	0.135762
C91	C	2.632266	-0.087045	0.102845
C92	C	2.658073	-0.086746	0.029862
H93	H	1.922904	0.135858	-0.094722
H94	H	2.195354	-0.450966	-0.328959
O95	O	1.793079	0.280597	-0.078353
H96	H	1.803411	0.250038	-0.033689
H97	H	2.020797	-0.281507	-0.097199
H98	H	2.116388	-0.413906	-0.096638
H99	H	2.106956	-0.021265	-0.771393
O100	O	2.236401	-0.678694	-0.309079
H101	H	2.284638	-0.734641	-0.300969
H102	H	1.810096	0.315987	-0.211651
O103	O	2.304756	-0.503961	-0.115169
H104	H	2.256495	-0.448013	-0.123271
O105	O	2.086182	-0.011674	-0.628323
H106	H	2.180542	-0.031511	-0.648057
O107	O	2.423629	-0.761813	-0.344579
H108	H	2.378939	-0.703219	-0.334066
H109	H	1.934228	-0.161404	-0.652853
H110	H	2.429689	-0.096468	-0.009908
H111	H	2.382867	-0.097009	0.122483
H112	H	1.923818	0.231302	-0.327559
O113	O	2.709895	-0.083443	0.146070
H114	H	2.711910	-0.033836	0.141419
O115	O	2.763547	-0.082815	-0.005633
H116	H	2.842934	-0.129071	0.002462
O117	O	2.646672	-0.099833	-0.418575
H118	H	2.719233	-0.102093	-0.458694
O119	O	1.762217	-0.085278	-0.403734
H120	H	1.786852	-0.133114	-0.377934
O121	O	2.098549	-0.311578	-0.346474
H122	H	2.049926	-0.327803	-0.374519
O123	O	2.053680	0.086544	-0.343936
H124	H	2.043373	0.117104	-0.388597
H125	H	2.488029	-0.425992	-0.206504
H126	H	2.513456	-0.090946	0.195187
O127	O	2.414277	-0.655657	-0.114523
H128	H	2.416844	-0.614166	-0.082134
H129	H	2.252385	-0.096473	-1.009902
H130	H	2.345821	-0.731702	-0.095286
H131	H	2.728120	-0.306499	-0.219711
O132	O	2.855095	-0.449484	-0.220076
H133	H	2.905607	-0.444794	-0.269672
O134	O	2.442634	-0.871052	-0.077764
H135	H	2.491229	-0.854794	-0.049728
O136	O	2.533092	-0.913499	-0.343938
H137	H	2.570495	-0.968663	-0.332942
H138	H	2.145161	-0.535186	-0.297316
O139	O	2.146676	-0.099840	-0.418592
H140	H	2.219245	-0.102110	-0.458712
H141	H	2.153464	-0.098344	-0.559703
O142	O	2.245613	-0.097988	-0.868792
H143	H	2.318181	-0.100256	-0.908911
O144	O	1.795809	-0.084862	-0.555568
H145	H	1.784968	-0.131185	-0.547463
H146	H	1.916819	-0.083773	-0.996946
O147	O	1.861169	-0.083441	-0.853941
H148	H	1.856277	-0.129580	-0.873858
O149	O	1.954848	-0.170910	-0.795900
H150	H	1.918984	-0.197778	-0.760912
O151	O	2.717555	-0.517940	-0.212487
H152	H	2.811306	-0.540250	-0.215418
O153	O	2.361025	-0.282982	-0.206122
H154	H	2.323875	-0.318149	-0.203534
H155	H	2.500261	-0.091683	-0.619429
H156	H	2.317921	-0.085615	-0.546769
O157	O	2.680038	-0.099196	-0.570261
H158	H	2.728145	-0.147088	-0.611324
H159	H	2.288794	-0.086179	-0.414359
