data_functionalizedCrystal
_audit_creation_method	'MofGen! by Chris Wilmer'
_symmetry_space_group_name_H-M	'P1'
_symmetry_Int_Tables_number	1
_symmetry_cell_setting	triclinic
loop_
_symmetry_equiv_pos_as_xyz
  x,y,z
_cell_length_a	12.759400
_cell_length_b	12.759401
_cell_length_c	12.759393
_cell_angle_alpha	90.021396
_cell_angle_beta	89.969070
_cell_angle_gamma	89.984534
loop_
_atom_site_label
_atom_site_type_symbol
_atom_site_fract_x
_atom_site_fract_y
_atom_site_fract_z
Zn1	Zn	-0.418181	-1.606255	-0.594069
Zn2	Zn	-0.593900	-1.606150	-0.418391
Zn3	Zn	-0.418238	-1.430557	-0.418399
Zn4	Zn	-0.593821	-1.430546	-0.594024
O5	O	-0.506035	-1.518377	-0.506221
O6	O	-0.441499	-1.753262	-0.570780
O7	O	-0.570655	-1.582818	-0.271371
O8	O	-0.271209	-1.453913	-0.441725
O9	O	-0.570599	-1.753185	-0.441711
O10	O	-0.271167	-1.582998	-0.570788
O11	O	-0.441597	-1.453811	-0.271377
O12	O	-0.441520	-1.283535	-0.441681
O13	O	-0.570465	-1.453894	-0.741051
O14	O	-0.570520	-1.283527	-0.570711
O15	O	-0.441423	-1.582987	-0.741084
O16	O	-0.740910	-1.582807	-0.441667
O17	O	-0.740852	-1.453792	-0.570703
C18	C	-0.506019	-1.245410	-0.506192
C19	C	-0.506037	-1.128633	-0.506205
C20	C	-0.779002	-1.518315	-0.506202
C21	C	-0.895779	-1.518385	-0.506229
C22	C	-0.573309	-1.073794	-0.573284
C23	C	-0.573311	-0.964070	-0.573302
C24	C	-0.438768	-0.964034	-0.439153
C25	C	-0.438760	-1.073756	-0.439141
C26	C	-0.950529	-1.585570	-0.573490
C27	C	-1.060253	-1.585629	-0.573518
C28	C	-1.060467	-1.451315	-0.439017
C29	C	-0.950745	-1.451251	-0.438994
C30	C	-0.232001	-1.518468	-0.506262
C31	C	-0.115225	-1.518507	-0.506280
C32	C	-0.505929	-1.518451	-0.780254
C33	C	-0.505883	-1.518482	-0.897031
C34	C	-0.506049	-0.792410	-0.506243
C35	C	-0.506047	-0.909187	-0.506235
C36	C	-0.438671	-1.451332	-0.951896
C37	C	-0.438638	-1.451356	-1.061620
C38	C	-0.573034	-1.585690	-1.061605
C39	C	-0.573071	-1.585659	-0.951883
C40	C	-0.506065	-1.518365	-0.233253
C41	C	-0.505814	-1.518537	-0.116477
H42	H	-0.628087	-1.118473	-0.627895
H43	H	-0.383908	-1.396675	-1.106286
O44	O	-0.638761	-0.910963	-0.638494
C45	C	-0.698114	-0.982932	-0.697699
H46	H	-0.701696	-1.061122	-0.654647
H47	H	-0.659737	-0.994653	-0.777558
C48	C	-0.805553	-0.844059	-0.765530
C49	C	-0.809960	-0.940091	-0.712648
H50	H	-0.874543	-0.817632	-0.774756
H51	H	-0.765564	-0.795571	-0.725645
H52	H	-0.773568	-0.853839	-0.832073
H53	H	-0.841932	-0.930308	-0.646102
H54	H	-0.849957	-0.988577	-0.752522
O55	O	-1.113980	-1.386061	-0.373846
C56	C	-1.177445	-1.318192	-0.433611
H57	H	-1.193792	-1.355212	-0.513268
H58	H	-1.135220	-1.240301	-0.445074
C59	C	-1.261651	-1.253798	-0.277970
C60	C	-1.281736	-1.299271	-0.375804
H61	H	-1.325981	-1.242122	-0.242311
H62	H	-1.218891	-1.299520	-0.237705
H63	H	-1.226461	-1.188894	-0.287536
H64	H	-1.316913	-1.364179	-0.366236
H65	H	-1.324504	-1.253559	-0.416067
H66	H	-0.905778	-1.640232	-0.628238
O67	O	-1.113552	-1.650947	-0.638707
C68	C	-1.176991	-1.718887	-0.578966
H69	H	-1.193524	-1.681881	-0.499319
H70	H	-1.134649	-1.796726	-0.567479
C71	C	-1.260849	-1.783391	-0.734639
C72	C	-1.281161	-1.737936	-0.636818
H73	H	-1.325104	-1.795147	-0.770326
H74	H	-1.218106	-1.737622	-0.774889
H75	H	-1.225561	-1.848253	-0.725053
H76	H	-1.316436	-1.673070	-0.646407
H77	H	-1.323912	-1.783695	-0.596571
O78	O	-0.373519	-0.910561	-0.374042
C79	C	-0.387930	-0.801957	-0.388454
H80	H	-0.469054	-0.786970	-0.422718
H81	H	-0.325684	-0.770862	-0.444518
C82	C	-0.278533	-0.763982	-0.240092
C83	C	-0.378174	-0.745574	-0.282168
H84	H	-0.272511	-0.729200	-0.174531
H85	H	-0.268821	-0.837150	-0.230384
H86	H	-0.226673	-0.738069	-0.286822
H87	H	-0.430032	-0.771498	-0.235444
H88	H	-0.387896	-0.672408	-0.291865
H89	H	-0.906164	-1.396536	-0.384222
H90	H	-0.627808	-1.640343	-0.907211
H91	H	-0.383962	-1.396632	-0.907238
H92	H	-0.383973	-1.118407	-0.384517
H93	H	-0.627735	-1.640384	-1.106279
