data_functionalizedCrystal
_audit_creation_method	'MofGen! by Chris Wilmer'
_symmetry_space_group_name_H-M	'P1'
_symmetry_Int_Tables_number	1
_symmetry_cell_setting	triclinic
loop_
_symmetry_equiv_pos_as_xyz
  x,y,z
_cell_length_a	11.169416
_cell_length_b	16.120542
_cell_length_c	11.169409
_cell_angle_alpha	92.921851
_cell_angle_beta	89.969126
_cell_angle_gamma	92.897986
loop_
_atom_site_label
_atom_site_type_symbol
_atom_site_fract_x
_atom_site_fract_y
_atom_site_fract_z
Zn1	Zn	-0.571003	-1.274675	-0.771647
Zn2	Zn	-0.071003	-0.774675	-0.271647
Zn3	Zn	-0.771737	-1.274598	-0.570963
Zn4	Zn	-0.271737	-0.774598	-0.070963
Zn5	Zn	-0.560868	-1.135247	-0.560798
Zn6	Zn	-0.060868	-0.635247	-0.060798
Zn7	Zn	-0.761438	-1.135252	-0.761431
Zn8	Zn	-0.261438	-0.635252	-0.261431
O9	O	-0.666262	-1.204943	-0.666210
O10	O	-0.166262	-0.704943	-0.166210
O11	O	-0.606182	-1.391333	-0.753555
O12	O	-0.106182	-0.891333	-0.253555
O13	O	-0.743834	-1.256079	-0.401662
O14	O	-0.243834	-0.756079	0.098338
O15	O	-0.394265	-1.153773	-0.588789
O16	O	0.105735	-0.653773	-0.088789
O17	O	-0.753661	-1.391277	-0.606113
O18	O	-0.253661	-0.891277	-0.106113
O19	O	-0.401711	-1.256210	-0.743698
O20	O	0.098289	-0.756210	-0.243698
O21	O	-0.588909	-1.153698	-0.394194
O22	O	-0.088909	-0.653698	0.105806
O23	O	-0.578922	-1.018580	-0.578884
O24	O	-0.078922	-0.518580	-0.078884
O25	O	-0.736107	-1.153781	-0.930739
O26	O	-0.236107	-0.653781	-0.430739
O27	O	-0.726280	-1.018584	-0.726288
O28	O	-0.226280	-0.518584	-0.226288
O29	O	-0.596195	-1.256215	-0.938244
O30	O	-0.096195	-0.756215	-0.438244
O31	O	-0.938319	-1.256084	-0.596208
O32	O	-0.438319	-0.756084	-0.096208
O33	O	-0.930752	-1.153707	-0.736144
O34	O	-0.430752	-0.653707	-0.236144
C35	C	-0.650385	-0.988331	-0.650375
C36	C	-0.150385	-0.488331	-0.150375
C37	C	-0.643622	-0.895663	-0.643629
C38	C	-0.143622	-0.395663	-0.143629
C39	C	-0.701309	-0.684734	-0.701137
C40	C	-0.201309	-0.184734	-0.201137
C41	C	-0.631285	-0.726004	-0.631311
C42	C	-0.131285	-0.226004	-0.131311
C43	C	-0.638151	-0.820411	-0.638167
C44	C	-0.138151	-0.320411	-0.138167
C45	C	-0.694444	-0.590318	-0.694283
C46	C	-0.194444	-0.090318	-0.194283
C47	C	-0.978084	-1.204910	-0.666198
C48	C	-0.478084	-0.704910	-0.166198
C49	C	-1.111488	-1.204972	-0.666239
C50	C	-0.611488	-0.704972	-0.166239
C51	C	-0.353223	-1.204999	-0.666249
C52	C	0.146777	-0.704999	-0.166249
C53	C	-0.219825	-1.205023	-0.666266
C54	C	0.280175	-0.705023	-0.166266
C55	C	-0.666133	-1.205007	-0.979257
C56	C	-0.166133	-0.705007	-0.479257
C57	C	-0.666078	-1.205035	-1.112659
C58	C	-0.166078	-0.705035	-0.612659
C59	C	-0.682195	-0.422401	-0.682091
C60	C	-0.182195	0.077599	-0.182091
C61	C	-0.688968	-0.515069	-0.688815
C62	C	-0.188968	-0.015069	-0.188815
C63	C	-0.666307	-1.204927	-0.354384
C64	C	-0.166307	-0.704927	0.145616
C65	C	-0.666035	-1.205062	-0.220994
C66	C	-0.166035	-0.705062	0.279006
H67	H	-0.766411	-0.720301	-0.766059
H68	H	-0.266411	-0.220301	-0.266059
O69	O	-0.553514	-0.683705	-0.553813
O70	O	-0.053514	-0.183705	-0.053813
C71	C	-0.489781	-0.740671	-0.490208
C72	C	0.010219	-0.240671	0.009792
H73	H	-0.490100	-0.802788	-0.543798
H74	H	0.009900	-0.302788	-0.043798
H75	H	-0.393409	-0.715423	-0.475752
H76	H	0.106591	-0.215423	0.024248
H77	H	-0.534297	-0.749866	-0.399645
H78	H	-0.034297	-0.249866	0.100355
