data_functionalizedCrystal
_audit_creation_method	'MofGen! by Chris Wilmer'
_symmetry_space_group_name_H-M	'P1'
_symmetry_Int_Tables_number	1
_symmetry_cell_setting	triclinic
loop_
_symmetry_equiv_pos_as_xyz
  x,y,z
_cell_length_a	21.295419
_cell_length_b	21.295417
_cell_length_c	14.908662
_cell_angle_alpha	86.735309
_cell_angle_beta	93.317758
_cell_angle_gamma	90.045308
loop_
_atom_site_label
_atom_site_type_symbol
_atom_site_fract_x
_atom_site_fract_y
_atom_site_fract_z
Zn1	Zn	0.982853	-0.270886	0.510063
Zn2	Zn	0.976692	-0.370088	0.359192
Zn3	Zn	0.871514	-0.264865	0.359220
Zn4	Zn	0.877543	-0.376146	0.510002
O5	O	0.927151	-0.320496	0.434619
O6	O	1.070126	-0.284030	0.490064
O7	O	0.957639	-0.351075	0.232953
O8	O	0.886339	-0.177576	0.379267
O9	O	1.065600	-0.356913	0.379219
O10	O	0.968139	-0.182000	0.490091
O11	O	0.880365	-0.273768	0.232974
O12	O	0.784224	-0.279642	0.379208
O13	O	0.896614	-0.367239	0.636253
O14	O	0.788653	-0.361400	0.489986
O15	O	0.973985	-0.289905	0.636298
O16	O	0.963485	-0.458980	0.379160
O17	O	0.890640	-0.463431	0.489959
C18	C	0.763598	-0.320526	0.434594
C19	C	0.693630	-0.320554	0.434605
C20	C	0.663146	-0.282673	0.492410
C21	C	0.597404	-0.282657	0.492414
C22	C	0.562148	-0.320532	0.434621
C23	C	0.592640	-0.358415	0.376804
C24	C	0.658381	-0.358426	0.376796
N25	N	0.458590	-0.375327	0.427570
N26	N	0.396139	-0.375315	0.427584
C27	C	0.364075	-0.320500	0.434641
N28	N	0.396821	-0.265698	0.441702
N29	N	0.459278	-0.265711	0.441694
C30	C	0.490863	-0.320524	0.434623
C31	C	0.262305	-0.282598	0.492454
C32	C	0.196562	-0.282580	0.492451
C33	C	0.191799	-0.358345	0.376846
C34	C	0.257541	-0.358357	0.376844
C35	C	0.292791	-0.320485	0.434653
C36	C	0.927066	-0.484046	0.434569
C37	C	0.927089	-0.554015	0.434578
C38	C	0.965057	-0.584545	0.376944
C39	C	0.965087	-0.650288	0.376964
C40	C	0.927138	-0.685498	0.434609
C41	C	0.889167	-0.654960	0.492255
C42	C	0.889143	-0.589218	0.492239
N43	N	0.872347	-0.789055	0.441478
N44	N	0.872372	-0.851506	0.441488
C45	C	0.927210	-0.883575	0.434661
N46	N	0.982024	-0.850832	0.427807
N47	N	0.981998	-0.788374	0.427793
C48	C	0.927160	-0.756785	0.434633
C49	C	0.965215	-0.985392	0.377046
C50	C	0.965247	-1.051137	0.377073
C51	C	0.889320	-1.055807	0.492358
C52	C	0.889295	-0.990064	0.492336
C53	C	0.927241	-0.954860	0.434675
C54	C	1.091342	-0.320468	0.434645
C55	C	1.161311	-0.320455	0.434656
C56	C	0.936659	-0.329919	0.669924
C57	C	0.940711	-0.333934	0.770196
C58	C	0.927253	-0.156309	0.434689
C59	C	0.927297	-0.086342	0.434719
C60	C	0.917716	-0.311065	0.200230
C61	C	0.913786	-0.306872	0.099958
C62	C	0.986646	-0.379839	0.911519
C63	C	0.982844	-0.376069	0.817303
C64	C	0.902376	-0.295568	0.817311
C65	C	0.906178	-0.299337	0.911526
C66	C	0.948316	-0.341473	0.958627
C67	C	0.952121	-0.345239	1.052844
C68	C	0.871650	-0.264741	1.052850
C69	C	0.867848	-0.260972	0.958634
H70	H	0.572579	-0.251806	0.539485
H71	H	0.996008	-0.675151	0.330032
C72	C	0.365199	-0.248979	0.543781
C73	C	0.301057	-0.240965	0.555987
H74	H	0.389120	-0.223279	0.583008
H75	H	0.373524	-0.237277	0.483197
H76	H	0.376454	-0.291817	0.556875
H77	H	0.289801	-0.198128	0.542887
H78	H	0.292729	-0.252664	0.616584
H79	H	0.163094	-0.389184	0.329789
C80	C	1.070114	-1.069434	0.333303
C81	C	1.007016	-1.084663	0.313718
H82	H	1.095908	-1.090119	0.294186
H83	H	1.081737	-1.082617	0.393922
H84	H	1.075490	-1.025235	0.325067
H85	H	1.001638	-1.128862	0.321961
H86	H	0.995389	-1.071483	0.253085
C87	C	0.826291	-0.219446	0.814212
C88	C	0.821535	-0.214654	0.906856
H89	H	0.797703	-0.190846	0.782250
H90	H	0.816424	-0.261118	0.798760
H91	H	0.867973	-0.209611	0.798795
H92	H	0.779855	-0.224493	0.922275
H93	H	0.831398	-0.172972	0.922315
H94	H	0.995957	-0.555884	0.329996
H95	H	1.014059	-0.407308	0.778951
H96	H	0.986433	-0.379547	1.091191
H97	H	0.868064	-0.261268	0.778946
H98	H	0.840441	-0.233498	1.091215
H99	H	0.282361	-0.389207	0.329776
H100	H	0.996115	-0.956728	0.330098
C101	C	1.094394	-0.411638	0.940544
C102	C	1.032964	-0.426151	0.963297
H103	H	1.122988	-0.440232	0.972506
H104	H	1.104248	-0.369964	0.956006
H105	H	1.097608	-0.414885	0.877690
H106	H	1.029749	-0.422899	1.026151
H107	H	1.023108	-0.467835	0.947841
H108	H	0.563930	-0.389254	0.329748
C109	C	0.814097	-0.600440	0.606195
C110	C	0.847401	-0.555655	0.555590
H111	H	0.788324	-0.579717	0.645299
H112	H	0.842910	-0.627418	0.640745
H113	H	0.788462	-0.624550	0.566856
H114	H	0.873039	-0.531548	0.594928
H115	H	0.818584	-0.528666	0.521036
C116	C	0.855486	-0.757812	0.543456
C117	C	0.847450	-0.693661	0.555617
H118	H	0.829729	-0.781702	0.582573
H119	H	0.898308	-0.769062	0.556718
H120	H	0.843860	-0.766180	0.482829
H121	H	0.859080	-0.685292	0.616242
H122	H	0.804618	-0.682407	0.542360
C123	C	0.885439	-1.134563	0.613712
C124	C	0.847607	-1.094502	0.555726
H125	H	0.859686	-1.158456	0.652832
H126	H	0.914226	-1.110255	0.648244
H127	H	0.908054	-1.162155	0.579381
H128	H	0.824995	-1.066907	0.590057
H129	H	0.818809	-1.118813	0.521191
C130	C	0.661245	-0.207778	0.606675
C131	C	0.701891	-0.241035	0.555940
H132	H	0.685167	-0.182069	0.645888
H133	H	0.636979	-0.236617	0.641116
H134	H	0.634031	-0.182086	0.567425
H135	H	0.729102	-0.266731	0.595190
H136	H	0.726169	-0.212192	0.521497
H137	H	0.171743	-0.251729	0.539522
H138	H	0.683200	-0.389275	0.329722
H139	H	0.858374	-0.965204	0.539263
