data_functionalizedCrystal
_audit_creation_method	'MofGen! by Chris Wilmer'
_symmetry_space_group_name_H-M	'P1'
_symmetry_Int_Tables_number	1
_symmetry_cell_setting	triclinic
loop_
_symmetry_equiv_pos_as_xyz
  x,y,z
_cell_length_a	14.853567
_cell_length_b	14.971491
_cell_length_c	13.448316
_cell_angle_alpha	90.008607
_cell_angle_beta	89.997194
_cell_angle_gamma	96.374417
loop_
_atom_site_label
_atom_site_type_symbol
_atom_site_fract_x
_atom_site_fract_y
_atom_site_fract_z
O1	O	0.117510	-1.186966	-0.082726
O2	O	0.131574	-0.926569	-0.082717
O3	O	-0.006689	-1.063723	-0.082725
O4	O	0.255773	-1.049812	-0.082718
O5	O	-0.006697	-1.063706	0.082659
O6	O	0.131566	-0.926552	0.082666
O7	O	0.117501	-1.186949	0.082658
Cu8	Cu	0.124533	-1.056749	0.097763
Cu9	Cu	0.124543	-1.056769	-0.097823
O10	O	0.255765	-1.049794	0.082665
C11	C	-0.040282	-1.063084	-0.000036
C12	C	-0.140365	-1.061195	-0.000044
C13	C	0.130940	-0.893235	-0.000025
C14	C	0.129053	-0.793938	-0.000022
C15	C	0.118135	-1.220282	-0.000037
C16	C	0.120023	-1.319579	-0.000046
C17	C	-0.552884	-0.971738	-0.000023
C18	C	-0.574192	-1.134680	-0.000028
C19	C	-0.480159	-1.136456	-0.000034
C20	C	-0.422483	-1.055872	-0.000033
C21	C	-0.458842	-0.973512	-0.000026
C22	C	-0.443793	-1.218815	-0.000031
C23	C	-0.349754	-1.220594	-0.000036
C24	C	-0.292077	-1.140009	-0.000042
C25	C	-0.328441	-1.057646	-0.000036
C26	C	-0.270766	-0.977061	-0.000034
C27	C	-0.307127	-0.894697	-0.000036
C28	C	-0.401165	-0.892926	-0.000031
C29	C	-0.198040	-1.141779	-0.000046
C30	C	-0.176723	-0.978835	-0.000037
C31	C	0.289357	-1.050433	-0.000026
C32	C	0.389441	-1.052322	-0.000024
C33	C	0.120913	-0.366241	-0.090196
C34	C	0.122684	-0.459541	-0.090192
C35	C	0.123571	-0.506178	-0.000038
C36	C	0.122677	-0.459510	0.090119
C37	C	0.120900	-0.366212	0.090114
C38	C	0.126383	-0.653972	0.090122
C39	C	0.128162	-0.747277	0.090128
C40	C	0.128167	-0.747302	-0.090183
C41	C	0.126390	-0.654004	-0.090188
C42	C	0.125499	-0.607342	-0.000032
N43	N	0.124525	-1.056741	0.235327
N44	N	0.124543	-1.056784	-0.235387
C45	C	0.063327	-1.117491	0.287364
C46	C	0.063327	-1.117497	0.391468
C47	C	0.124529	-1.056755	0.443532
C48	C	0.185729	-0.995998	0.391488
C49	C	0.185725	-0.995989	0.287386
C50	C	0.185735	-0.996023	0.608468
C51	C	0.185741	-0.996033	0.712576
C52	C	0.063337	-1.117531	0.712549
C53	C	0.063333	-1.117522	0.608448
C54	C	0.124535	-1.056765	0.556410
H55	H	-0.129769	-0.913212	-0.000041
H56	H	-0.260156	-0.829085	-0.000028
H57	H	0.235577	-0.946570	0.754962
O58	O	0.245212	-0.937101	0.236724
C59	C	0.300926	-0.985059	0.176505
H60	H	0.265138	-1.055003	0.160894
H61	H	0.367571	-0.991216	0.216613
C62	C	0.364058	-0.848737	0.096805
C63	C	0.320099	-0.934642	0.077624
H64	H	0.375889	-0.817637	0.035812
H65	H	0.326525	-0.816426	0.137378
H66	H	0.419590	-0.853880	0.130231
H67	H	0.264563	-0.929497	0.044210
H68	H	0.357623	-0.966951	0.037042
O69	O	0.245212	-0.936903	0.441905
C70	C	0.299238	-0.883293	0.373649
H71	H	0.262271	-0.882236	0.299446
H72	H	0.366264	-0.912407	0.362562
C73	C	0.363056	-0.788129	0.505439
C74	C	0.317648	-0.786825	0.414304
H75	H	0.374416	-0.728624	0.530517
H76	H	0.326660	-0.824249	0.551425
H77	H	0.418905	-0.812396	0.496187
H78	H	0.261795	-0.762570	0.423558
H79	H	0.354035	-0.750699	0.368319
O80	O	-0.436446	-0.812903	-0.000203
C81	C	-0.406974	-0.763769	-0.085844
H82	H	-0.387355	-0.811929	-0.145715
H83	H	-0.345749	-0.713992	-0.066481
C84	C	-0.508085	-0.653132	-0.051137
C85	C	-0.483995	-0.712284	-0.124675
H86	H	-0.555593	-0.621370	-0.075088
H87	H	-0.527938	-0.686232	0.006563
H88	H	-0.457057	-0.611659	-0.035008
H89	H	-0.535019	-0.753762	-0.140794
H90	H	-0.464152	-0.679190	-0.182379
H91	H	0.013502	-1.166986	0.566057
H92	H	-0.582494	-0.904679	-0.000027
H93	H	-0.320157	-1.287661	-0.000036
H94	H	0.013504	-1.167000	0.754924
H95	H	-0.621156	-1.200288	-0.000021
H96	H	0.120198	-0.328275	-0.163610
H97	H	0.120184	-0.328220	0.163523
O98	O	-0.499856	-1.297063	-0.000203
C99	C	-0.554902	-1.300910	-0.085844
H100	H	-0.520509	-1.255227	-0.145714
H101	H	-0.623304	-1.277665	-0.066481
C102	C	-0.611331	-1.454333	-0.051145
C103	C	-0.569085	-1.398230	-0.124681
H104	H	-0.620084	-1.514365	-0.075099
H105	H	-0.574249	-1.451741	0.006556
H106	H	-0.668329	-1.434952	-0.035015
H107	H	-0.512084	-1.417605	-0.140800
H108	H	-0.606158	-1.400828	-0.182385
H109	H	0.128889	-0.785245	0.163539
O110	O	0.129062	-0.792482	-0.177852
C111	C	0.127879	-0.731315	-0.257425
H112	H	0.155138	-0.661138	-0.230997
H113	H	0.055421	-0.730687	-0.285143
C114	C	0.154168	-0.846339	-0.375060
C115	C	0.187655	-0.760147	-0.342603
H116	H	0.191037	-0.864125	-0.427604
H117	H	0.154961	-0.887549	-0.321451
H118	H	0.093786	-0.845805	-0.398152
H119	H	0.248031	-0.760685	-0.319501
H120	H	0.186873	-0.718938	-0.396210
H121	H	-0.168438	-1.208839	-0.000038
O122	O	0.123709	-0.504804	-0.177791
C123	C	0.201285	-0.471965	-0.232647
H124	H	0.255328	-0.439302	-0.179896
H125	H	0.182619	-0.420082	-0.288857
C126	C	0.171858	-0.590419	-0.352684
C127	C	0.238238	-0.550309	-0.287894
H128	H	0.194651	-0.638744	-0.386767
H129	H	0.119592	-0.612542	-0.315729
H130	H	0.156309	-0.547175	-0.399517
H131	H	0.253777	-0.593550	-0.241055
H132	H	0.290508	-0.528195	-0.324842
O133	O	0.125560	-0.608777	0.177789
C134	C	0.126704	-0.669946	0.257363
H135	H	0.156490	-0.732789	0.230936
H136	H	0.054623	-0.689159	0.285088
C137	C	0.148505	-0.548735	0.374992
C138	C	0.185096	-0.625916	0.342536
H139	H	0.184520	-0.521575	0.427533
H140	H	0.147731	-0.507524	0.321382
H141	H	0.088438	-0.564757	0.398089
H142	H	0.245157	-0.609892	0.319428
H143	H	0.185881	-0.667124	0.396144
H144	H	0.125675	-0.616034	-0.163600
O145	O	0.003801	-1.176356	0.236706
C146	C	-0.051913	-1.128352	0.176561
H147	H	-0.016091	-1.058424	0.160957
H148	H	-0.118524	-1.122155	0.216730
C149	C	-0.115178	-1.264635	0.096841
C150	C	-0.071178	-1.178751	0.077669
H151	H	-0.127066	-1.295724	0.035842
H152	H	-0.077645	-1.296977	0.137365
H153	H	-0.170683	-1.259459	0.130318
H154	H	-0.015670	-1.183928	0.044205
H155	H	-0.108702	-1.146410	0.037138
O156	O	0.003856	-1.176607	0.441862
C157	C	-0.050170	-1.230210	0.373586
H158	H	-0.013208	-1.231244	0.299373
H159	H	-0.117202	-1.201104	0.362534
C160	C	-0.113960	-1.325411	0.505333
C161	C	-0.068560	-1.326688	0.414185
H162	H	-0.125308	-1.384922	0.530377
H163	H	-0.077565	-1.289296	0.551333
H164	H	-0.169815	-1.301152	0.496111
H165	H	-0.012701	-1.350935	0.423411
H166	H	-0.104946	-1.362809	0.368188
H167	H	0.123393	-0.497490	0.163524
H168	H	0.235570	-0.946546	0.566102
