data_functionalizedCrystal
_audit_creation_method	'MofGen! by Chris Wilmer'
_symmetry_space_group_name_H-M	'P1'
_symmetry_Int_Tables_number	1
_symmetry_cell_setting	triclinic
loop_
_symmetry_equiv_pos_as_xyz
  x,y,z
_cell_length_a	21.295418
_cell_length_b	21.295417
_cell_length_c	12.759393
_cell_angle_alpha	90.037048
_cell_angle_beta	90.041937
_cell_angle_gamma	90.045515
loop_
_atom_site_label
_atom_site_type_symbol
_atom_site_fract_x
_atom_site_fract_y
_atom_site_fract_z
Zn1	Zn	0.962348	-0.250313	0.594561
Zn2	Zn	1.295682	0.083020	0.927895
Zn3	Zn	1.629015	0.416354	1.261228
Zn4	Zn	0.962255	-0.355595	0.418861
Zn5	Zn	1.295589	-0.022262	0.752194
Zn6	Zn	1.628922	0.311072	1.085528
Zn7	Zn	0.857075	-0.250373	0.418832
Zn8	Zn	1.190408	0.082961	0.752165
Zn9	Zn	1.523741	0.416294	1.085499
Zn10	Zn	0.857042	-0.355577	0.594434
Zn11	Zn	1.190376	-0.022244	0.927767
Zn12	Zn	1.523709	0.311089	1.261101
O13	O	0.909680	-0.302964	0.506672
O14	O	1.243013	0.030369	0.840005
O15	O	1.576347	0.363702	1.173339
O16	O	1.050425	-0.264261	0.571320
O17	O	1.383759	0.069072	0.904653
O18	O	1.717092	0.402405	1.237986
O19	O	0.948278	-0.341669	0.271836
O20	O	1.281611	-0.008336	0.605169
O21	O	1.614944	0.324997	0.938503
O22	O	0.871092	-0.162275	0.442184
O23	O	1.204425	0.171058	0.775517
O24	O	1.537758	0.504391	1.108850
O25	O	1.050357	-0.341612	0.442234
O26	O	1.383690	-0.008278	0.775567
O27	O	1.717024	0.325055	1.108900
O28	O	0.948436	-0.162231	0.571291
O29	O	1.281769	0.171102	0.904625
O30	O	1.615103	0.504435	1.237958
O31	O	0.871002	-0.264363	0.271815
O32	O	1.204335	0.068970	0.605148
O33	O	1.537668	0.402304	0.938481
O34	O	0.768981	-0.264346	0.442060
O35	O	1.102314	0.068987	0.775394
O36	O	1.435648	0.402321	1.108727
O37	O	0.871037	-0.341581	0.741472
O38	O	1.204370	-0.008248	1.074805
O39	O	1.537703	0.325085	1.408139
O40	O	0.768957	-0.341639	0.571075
O41	O	1.102290	-0.008306	0.904408
O42	O	1.435624	0.325027	1.237741
O43	O	0.948404	-0.264244	0.741565
O44	O	1.281738	0.069089	1.074899
O45	O	1.615071	0.402423	1.408232
O46	O	0.948246	-0.443682	0.442110
O47	O	1.281580	-0.110349	0.775444
O48	O	1.614913	0.222985	1.108777
O49	O	0.870947	-0.443669	0.571103
O50	O	1.204280	-0.110336	0.904436
O51	O	1.537613	0.222998	1.237770
C52	C	0.746128	-0.302998	0.506551
C53	C	1.079462	0.030336	0.839884
C54	C	1.412795	0.363669	1.173218
C55	C	0.676160	-0.303027	0.506524
C56	C	1.009494	0.030306	0.839858
C57	C	1.342827	0.363640	1.173191
C58	C	0.643298	-0.343327	0.573601
C59	C	0.976631	-0.009994	0.906935
C60	C	1.309964	0.323340	1.240268
C61	C	0.577555	-0.343311	0.573649
C62	C	0.910889	-0.009978	0.906982
C63	C	1.244222	0.323355	1.240315
C64	C	0.544678	-0.303003	0.506600
C65	C	0.878011	0.030331	0.839933
C66	C	1.211345	0.363664	1.173267
C67	C	0.577548	-0.262695	0.439518
C68	C	0.910882	0.070639	0.772851
C69	C	1.244215	0.403972	1.106185
C70	C	0.643290	-0.262707	0.439480
C71	C	0.976623	0.070626	0.772814
C72	C	1.309956	0.403960	1.106147
N73	N	0.441404	-0.298091	0.414709
N74	N	0.774737	0.035242	0.748042
N75	N	1.108070	0.368575	1.081375
N76	N	0.378952	-0.298083	0.414748
N77	N	0.712285	0.035250	0.748081
N78	N	1.045619	0.368583	1.081414
C79	C	0.346603	-0.302962	0.506711
C80	C	0.679937	0.030371	0.840045
C81	C	1.013270	0.363704	1.173378
N82	N	0.379065	-0.307862	0.598637
N83	N	0.712398	0.025471	0.931970
N84	N	1.045732	0.358805	1.265303
N85	N	0.441522	-0.307873	0.598597
N86	N	0.774855	0.025460	0.931930
N87	N	1.108189	0.358794	1.265263
C88	C	0.473392	-0.302985	0.506634
C89	C	0.806726	0.030349	0.839967
C90	C	1.140059	0.363682	1.173301
C91	C	0.242455	-0.343248	0.573845
C92	C	0.575788	-0.009914	0.907179
C93	C	0.909122	0.323419	1.240512
C94	C	0.176711	-0.343228	0.573894
C95	C	0.510045	-0.009894	0.907228
C96	C	0.843378	0.323439	1.240561
C97	C	0.176706	-0.262614	0.439754
C98	C	0.510039	0.070719	0.773088
C99	C	0.843372	0.404052	1.106421
C100	C	0.242448	-0.262631	0.439715
C101	C	0.575782	0.070702	0.773048
C102	C	0.909115	0.404036	1.106381
C103	C	0.275319	-0.302951	0.506759
C104	C	0.608652	0.030382	0.840092
C105	C	0.941986	0.363716	1.173425
C106	C	0.909600	-0.466516	0.506619
C107	C	1.242933	-0.133183	0.839952
C108	C	1.576267	0.200151	1.173285
C109	C	0.909623	-0.536484	0.506631
C110	C	1.242956	-0.203151	0.839965
C111	C	1.576290	0.130182	1.173298
C112	C	0.949873	-0.569271	0.573906
C113	C	1.283206	-0.235938	0.907239
C114	C	1.616540	0.097396	1.240572
C115	C	0.949895	-0.635013	0.573931
C116	C	1.283229	-0.301680	0.907265
C117	C	1.616562	0.031653	1.240598
C118	C	0.909674	-0.667967	0.506664
C119	C	1.243008	-0.334633	0.839998
C120	C	1.576341	-0.001300	1.173331
C121	C	0.869416	-0.635172	0.439385
C122	C	1.202750	-0.301839	0.772719
C123	C	1.536083	0.031494	1.106052
C124	C	0.869391	-0.569431	0.439369
C125	C	1.202724	-0.236098	0.772702
C126	C	1.536058	0.097236	1.106035
N127	N	0.904916	-0.771236	0.414715
N128	N	1.238250	-0.437903	0.748048
N129	N	1.571583	-0.104569	1.081381
N130	N	0.904944	-0.833688	0.414734
N131	N	1.238278	-0.500354	0.748067
N132	N	1.571611	-0.167021	1.081400
C133	C	0.909748	-0.866041	0.506712
C134	C	1.243081	-0.532708	0.840045
C135	C	1.576414	-0.199375	1.173378
N136	N	0.914534	-0.833584	0.598673
N137	N	1.247868	-0.500251	0.932006
N138	N	1.581201	-0.166918	1.265339
N139	N	0.914510	-0.771127	0.598653
N140	N	1.247843	-0.437794	0.931986
N141	N	1.581176	-0.104461	1.265319
C142	C	0.909697	-0.739252	0.506675
C143	C	1.243030	-0.405919	0.840009
C144	C	1.576364	-0.072585	1.173342
C145	C	0.950024	-0.970113	0.574020
C146	C	1.283357	-0.636780	0.907353
C147	C	1.616691	-0.303447	1.240687
C148	C	0.950042	-1.035857	0.574048
C149	C	1.283375	-0.702524	0.907381
C150	C	1.616708	-0.369191	1.240714
C151	C	0.869566	-1.036015	0.439492
C152	C	1.202899	-0.702681	0.772825
C153	C	1.536233	-0.369348	1.106159
C154	C	0.869545	-0.970272	0.439474
C155	C	1.202878	-0.636939	0.772807
C156	C	1.536212	-0.303606	1.106140
C157	C	0.909777	-0.937326	0.506736
C158	C	1.243111	-0.603992	0.840070
C159	C	1.576444	-0.270659	1.173403
C160	C	1.073870	-0.302932	0.506794
C161	C	1.407204	0.030402	0.840127
C162	C	1.740537	0.363735	1.173461
C163	C	1.143839	-0.302918	0.506846
C164	C	1.477172	0.030416	0.840179
C165	C	1.810505	0.363749	1.173513
C166	C	0.909727	-0.302904	0.780706
C167	C	1.243061	0.030429	1.114039
C168	C	1.576394	0.363763	1.447372
C169	C	0.909747	-0.302878	0.897482
C170	C	1.243081	0.030455	1.230816
C171	C	1.576414	0.363788	1.564149
C172	C	0.909778	-0.138774	0.506748
C173	C	1.243111	0.194559	0.840082
C174	C	1.576444	0.527893	1.173415
C175	C	0.909819	-0.068806	0.506781
C176	C	1.243153	0.264527	0.840114
C177	C	1.576486	0.597861	1.173448
C178	C	0.909669	-0.302979	0.233705
C179	C	1.243003	0.030354	0.567038
C180	C	1.576336	0.363687	0.900371
C181	C	0.909771	-0.302828	0.116929
C182	C	1.243105	0.030506	0.450262
C183	C	1.576438	0.363839	0.783595
C184	C	0.950036	-0.262602	0.952395
C185	C	1.283369	0.070731	1.285728
C186	C	1.616702	0.404064	1.619061
C187	C	0.950046	-0.262575	1.062119
C188	C	1.283380	0.070758	1.395452
C189	C	1.616713	0.404091	1.728785
C190	C	0.869478	-0.343105	1.062009
C191	C	1.202812	-0.009772	1.395342
C192	C	1.536145	0.323561	1.728675
C193	C	0.869465	-0.343129	0.952286
C194	C	1.202798	-0.009796	1.285620
C195	C	1.536132	0.323538	1.618953
H196	H	0.670046	-0.229888	0.384858
H197	H	1.003379	0.103445	0.718191
H198	H	1.336713	0.436779	1.051524
H199	H	0.836653	-0.375926	0.907576
H200	H	1.169986	-0.042593	1.240909
H201	H	1.503320	0.290741	1.574242
F202	F	0.992689	-0.534210	0.645498
F203	F	1.326022	-0.200877	0.978831
F204	F	1.659356	0.132456	1.312165
H205	H	0.836772	-0.943576	0.384688
H206	H	1.170106	-0.610242	0.718022
H207	H	1.503439	-0.276909	1.051355
H208	H	0.670057	-0.376158	0.628196
H209	H	1.003390	-0.042824	0.961529
H210	H	1.336724	0.290509	1.294862
H211	H	0.982834	-0.229826	0.907776
H212	H	1.316168	0.103507	1.241110
H213	H	1.649501	0.436841	1.574443
F214	F	0.992931	-0.219712	1.120556
F215	F	1.326264	0.113621	1.453889
F216	F	1.659598	0.446955	1.787222
H217	H	0.550793	-0.376128	0.628275
H218	H	0.884127	-0.042795	0.961608
H219	H	1.217460	0.290538	1.294942
F220	F	0.826612	-0.385943	1.120344
F221	F	1.159945	-0.052609	1.453678
F222	F	1.493279	0.280724	1.787011
H223	H	0.982782	-0.943287	0.628793
H224	H	1.316115	-0.609954	0.962126
H225	H	1.649448	-0.276621	1.295459
H226	H	0.550775	-0.229874	0.384928
H227	H	0.884109	0.103460	0.718262
H228	H	1.217442	0.436793	1.051595
F229	F	0.992739	-0.669914	0.645532
F230	F	1.326073	-0.336581	0.978865
F231	F	1.659406	-0.003248	1.312199
F232	F	0.277441	-0.386156	0.645203
F233	F	0.610774	-0.052823	0.978537
F234	F	0.944107	0.280511	1.311870
F235	F	0.141737	-0.386120	0.645297
F236	F	0.475070	-0.052786	0.978630
F237	F	0.808403	0.280547	1.311963
F238	F	0.141720	-0.219711	0.368401
F239	F	0.475053	0.113622	0.701734
F240	F	0.808386	0.446956	1.035067
H241	H	0.269205	-0.229817	0.385088
H242	H	0.602539	0.103516	0.718421
H243	H	0.935872	0.436849	1.051754
H244	H	0.836667	-0.662007	0.384618
H245	H	1.170000	-0.328674	0.717952
H246	H	1.503333	0.004660	1.051285
H247	H	0.836614	-0.542735	0.384585
H248	H	1.169947	-0.209402	0.717918
H249	H	1.503280	0.123931	1.051252
F250	F	0.992877	-1.070751	0.645665
F251	F	1.326210	-0.737418	0.978998
F252	F	1.659544	-0.404084	1.312332
H253	H	0.836813	-1.062845	0.384728
H254	H	1.170147	-0.729511	0.718062
H255	H	1.503480	-0.396178	1.051395
