data_functionalizedCrystal
_audit_creation_method	'MofGen! by Chris Wilmer'
_symmetry_space_group_name_H-M	'P1'
_symmetry_Int_Tables_number	1
_symmetry_cell_setting	triclinic
loop_
_symmetry_equiv_pos_as_xyz
  x,y,z
_cell_length_a	25.639242
_cell_length_b	29.839131
_cell_length_c	25.639233
_cell_angle_alpha	89.980415
_cell_angle_beta	89.977834
_cell_angle_gamma	90.036947
loop_
_atom_site_label
_atom_site_type_symbol
_atom_site_fract_x
_atom_site_fract_y
_atom_site_fract_z
Zn1	Zn	0.799215	-0.178962	-0.295739
Zn2	Zn	1.132548	0.154372	0.037594
Zn3	Zn	1.465882	0.487705	0.370927
Zn4	Zn	0.799134	-0.254076	-0.208302
Zn5	Zn	1.132468	0.079257	0.125031
Zn6	Zn	1.465801	0.412591	0.458364
Zn7	Zn	0.711791	-0.178955	-0.208303
Zn8	Zn	1.045125	0.154378	0.125030
Zn9	Zn	1.378458	0.487712	0.458363
Zn10	Zn	0.711732	-0.254059	-0.295692
Zn11	Zn	1.045066	0.079274	0.037641
Zn12	Zn	1.378399	0.412607	0.370975
O13	O	0.755468	-0.216513	-0.252009
O14	O	1.088802	0.116820	0.081324
O15	O	1.422135	0.450154	0.414657
O16	O	0.872370	-0.188935	-0.284160
O17	O	1.205703	0.144398	0.049174
O18	O	1.539036	0.477731	0.382507
O19	O	0.787539	-0.244115	-0.135137
O20	O	1.120872	0.089218	0.198196
O21	O	1.454206	0.422551	0.531530
O22	O	0.723447	-0.116089	-0.219922
O23	O	1.056780	0.217245	0.113411
O24	O	1.390114	0.550578	0.446745
O25	O	0.872310	-0.244122	-0.219920
O26	O	1.205644	0.089212	0.113413
O27	O	1.538977	0.422545	0.446746
O28	O	0.787677	-0.116094	-0.284161
O29	O	1.121010	0.217240	0.049173
O30	O	1.454343	0.550573	0.382506
O31	O	0.723369	-0.188924	-0.135138
O32	O	1.056702	0.144409	0.198195
O33	O	1.390035	0.477742	0.531529
O34	O	0.638618	-0.188908	-0.219876
O35	O	0.971952	0.144425	0.113457
O36	O	1.305285	0.477759	0.446790
O37	O	0.723346	-0.244093	-0.368864
O38	O	1.056680	0.089240	-0.035530
O39	O	1.390013	0.422573	0.297803
O40	O	0.638575	-0.244087	-0.284081
O41	O	0.971908	0.089246	0.049253
O42	O	1.305242	0.422580	0.382586
O43	O	0.787619	-0.188919	-0.368898
O44	O	1.120953	0.144414	-0.035565
O45	O	1.454286	0.477747	0.297769
O46	O	0.787482	-0.316941	-0.219875
O47	O	1.120815	0.016392	0.113459
O48	O	1.454149	0.349726	0.446792
O49	O	0.723268	-0.316929	-0.284080
O50	O	1.056601	0.016405	0.049254
O51	O	1.389935	0.349738	0.382587
C52	C	0.619626	-0.216495	-0.251974
C53	C	0.952959	0.116838	0.081360
C54	C	1.286292	0.450171	0.414693
C55	C	0.561512	-0.216499	-0.251971
C56	C	0.894845	0.116835	0.081362
C57	C	1.228178	0.450168	0.414696
C58	C	0.201135	-0.245293	-0.285409
C59	C	0.534468	0.088041	0.047925
C60	C	0.867802	0.421374	0.381258
C61	C	0.146531	-0.245295	-0.285417
C62	C	0.479864	0.088038	0.047916
C63	C	0.813197	0.421371	0.381250
O64	O	0.118282	-0.269755	-0.313817
O65	O	0.451616	0.063578	0.019517
O66	O	0.784949	0.396911	0.352850
N67	N	0.119229	-0.216525	-0.252043
N68	N	0.452563	0.116808	0.081290
N69	N	0.785896	0.450141	0.414623
C70	C	0.146535	-0.187748	-0.218663
C71	C	0.479868	0.145586	0.114670
C72	C	0.813202	0.478919	0.448004
O73	O	0.118299	-0.163276	-0.190277
O74	O	0.451632	0.170057	0.143056
O75	O	0.784966	0.503390	0.476389
C76	C	0.201138	-0.187743	-0.218658
C77	C	0.534472	0.145590	0.114676
C78	C	0.867805	0.478924	0.448009
C79	C	0.228437	-0.216518	-0.252030
C80	C	0.561770	0.116815	0.081303
C81	C	0.895104	0.450149	0.414637
C82	C	0.228434	-0.274065	-0.318778
C83	C	0.561767	0.059268	0.014555
C84	C	0.895100	0.392602	0.347888
C85	C	0.283034	-0.274063	-0.318769
C86	C	0.616367	0.059270	0.014564
C87	C	0.949701	0.392604	0.347897
C88	C	0.310336	-0.245288	-0.285390
C89	C	0.643669	0.088045	0.047943
C90	C	0.977003	0.421379	0.381276
C91	C	0.283037	-0.216516	-0.252021
C92	C	0.616371	0.116818	0.081313
C93	C	0.949704	0.450151	0.414646
C94	C	0.228443	-0.158963	-0.185281
C95	C	0.561776	0.174370	0.148053
C96	C	0.895110	0.507704	0.481386
C97	C	0.283050	-0.158961	-0.185279
C98	C	0.616383	0.174373	0.148055
C99	C	0.949717	0.507706	0.481388
C100	C	0.310349	-0.187736	-0.218651
C101	C	0.643682	0.145598	0.114683
C102	C	0.977015	0.478931	0.448016
C103	C	0.364940	-0.187739	-0.218633
C104	C	0.698273	0.145595	0.114700
C105	C	1.031607	0.478928	0.448034
N106	N	0.392241	-0.216509	-0.252006
N107	N	0.725575	0.116825	0.081327
N108	N	1.058908	0.450158	0.414660
C109	C	0.364939	-0.245283	-0.285385
C110	C	0.698273	0.088050	0.047948
C111	C	1.031606	0.421383	0.381281
C112	C	0.031864	-0.187759	-0.218677
C113	C	0.365198	0.145574	0.114656
C114	C	0.698531	0.478908	0.447989
C115	C	-0.022738	-0.187766	-0.218679
C116	C	0.310595	0.145568	0.114654
C117	C	0.643929	0.478901	0.447987
C118	C	-0.022739	-0.245313	-0.285434
C119	C	0.310595	0.088020	0.047899
C120	C	0.643928	0.421354	0.381233
C121	C	0.031865	-0.245308	-0.285429
C122	C	0.365198	0.088025	0.047904
C123	C	0.698531	0.421358	0.381238
C124	C	0.059166	-0.216529	-0.252051
C125	C	0.392499	0.116804	0.081283
C126	C	0.725832	0.450138	0.414616
C127	C	0.479604	-0.245277	-0.285363
C128	C	0.812938	0.088057	0.047970
C129	C	1.146271	0.421390	0.381303
C130	C	0.534210	-0.245273	-0.285350
C131	C	0.867543	0.088060	0.047984
C132	C	1.200876	0.421393	0.381317
C133	C	0.534206	-0.187724	-0.218597
C134	C	0.867539	0.145609	0.114736
C135	C	1.200872	0.478942	0.448069
C136	C	0.479605	-0.187729	-0.218609
C137	C	0.812938	0.145604	0.114725
C138	C	1.146272	0.478937	0.448058
C139	C	0.452306	-0.216507	-0.251996
C140	C	0.785639	0.116826	0.081337
C141	C	1.118972	0.450160	0.414671
O142	O	0.393223	-0.163290	-0.190249
O143	O	0.726556	0.170043	0.143084
O144	O	1.059890	0.503377	0.476418
O145	O	0.393182	-0.269746	-0.313771
O146	O	0.726515	0.063587	0.019562
O147	O	1.059849	0.396920	0.352896
C148	C	0.755374	-0.333236	-0.251983
C149	C	1.088707	0.000098	0.081350
C150	C	1.422041	0.333431	0.414683
C151	C	0.755381	-0.383170	-0.251990
C152	C	1.088715	-0.049837	0.081344
C153	C	1.422048	0.283497	0.414677
C154	C	0.788965	-0.692807	-0.218627
C155	C	1.122299	-0.359474	0.114707
C156	C	1.455632	-0.026140	0.448040
C157	C	0.789030	-0.880480	-0.218647
C158	C	1.122363	-0.547147	0.114686
C159	C	1.455696	-0.213814	0.448020
O160	O	0.817509	-0.904740	-0.190260
O161	O	1.150843	-0.571406	0.143073
O162	O	1.484176	-0.238073	0.476406
N163	N	0.755577	-0.903955	-0.252049
N164	N	1.088910	-0.570622	0.081285
N165	N	1.422243	-0.237288	0.414618
C166	C	0.722108	-0.880509	-0.285450
C167	C	1.055441	-0.547176	0.047883
C168	C	1.388774	-0.213842	0.381216
O169	O	0.693659	-0.904782	-0.313865
O170	O	1.026992	-0.571449	0.019469
O171	O	1.360326	-0.238115	0.352802
C172	C	0.722046	-0.692837	-0.285432
C173	C	1.055379	-0.359503	0.047901
C174	C	1.388713	-0.026170	0.381235
C175	C	0.755498	-0.669364	-0.252024
C176	C	1.088831	-0.336031	0.081309
C177	C	1.422164	-0.002698	0.414642
C178	C	0.822415	-0.669335	-0.185222
C179	C	1.155748	-0.336001	0.148111
C180	C	1.489081	-0.002668	0.481445
C181	C	0.822396	-0.622419	-0.185215
C182	C	1.155729	-0.289086	0.148118
C183	C	1.489063	0.044247	0.481451
C184	C	0.788928	-0.598976	-0.218613
C185	C	1.122262	-0.265643	0.114720
C186	C	1.455595	0.067690	0.448054
C187	C	0.755479	-0.622449	-0.252018
C188	C	1.088812	-0.289115	0.081316
C189	C	1.422146	0.044218	0.414649
C190	C	0.688580	-0.669391	-0.318836
C191	C	1.021913	-0.336058	0.014497
C192	C	1.355247	-0.002725	0.347831
C193	C	0.688568	-0.622470	-0.318829
C194	C	1.021902	-0.289137	0.014504
C195	C	1.355235	0.044196	0.347837
C196	C	0.722020	-0.598998	-0.285422
C197	C	1.055353	-0.265664	0.047912
C198	C	1.388687	0.067669	0.381245
C199	C	0.721993	-0.552090	-0.285409
C200	C	1.055326	-0.218757	0.047925
C201	C	1.388660	0.114576	0.381258
N202	N	0.755446	-0.528615	-0.252007
N203	N	1.088779	-0.195282	0.081326
N204	N	1.422113	0.138051	0.414660
C205	C	0.788914	-0.552058	-0.218609
C206	C	1.122247	-0.218725	0.114724
C207	C	1.455580	0.114608	0.448058
C208	C	0.722141	-0.979039	-0.285457
C209	C	1.055475	-0.645706	0.047877
C210	C	1.388808	-0.312373	0.381210
C211	C	0.722156	-1.025957	-0.285461
C212	C	1.055489	-0.692624	0.047873
C213	C	1.388823	-0.359291	0.381206
C214	C	0.789079	-1.025925	-0.218658
C215	C	1.122413	-0.692592	0.114676
C216	C	1.455746	-0.359259	0.448009
C217	C	0.789062	-0.979007	-0.218652
C218	C	1.122395	-0.645673	0.114682
C219	C	1.455728	-0.312340	0.448015
C220	C	0.755595	-0.955565	-0.252055
C221	C	1.088928	-0.622231	0.081279
C222	C	1.422261	-0.288898	0.414612
C223	C	0.788872	-0.453533	-0.218597
C224	C	1.122205	-0.120199	0.114736
C225	C	1.455539	0.213134	0.448070
C226	C	0.788849	-0.406613	-0.218592
C227	C	1.122182	-0.073280	0.114742
C228	C	1.455516	0.260054	0.448075
C229	C	0.721928	-0.406649	-0.285396
C230	C	1.055261	-0.073316	0.047937
C231	C	1.388595	0.260018	0.381270
C232	C	0.721949	-0.453564	-0.285400
C233	C	1.055282	-0.120231	0.047933
C234	C	1.388616	0.213102	0.381267
C235	C	0.755425	-0.477005	-0.251999
C236	C	1.088758	-0.143672	0.081335
C237	C	1.422092	0.189662	0.414668
O238	O	0.693533	-0.527802	-0.313784
O239	O	1.026866	-0.194469	0.019549
O240	O	1.360199	0.138865	0.352882
O241	O	0.817366	-0.527777	-0.190207
O242	O	1.150700	-0.194444	0.143126
O243	O	1.484033	0.138889	0.476460
C244	C	0.788984	-0.739723	-0.218633
C245	C	1.122317	-0.406389	0.114700
C246	C	1.455650	-0.073056	0.448033
C247	C	0.755535	-0.763195	-0.252038
C248	C	1.088868	-0.429862	0.081295
C249	C	1.422201	-0.096528	0.414629
C250	C	0.722067	-0.739752	-0.285436
C251	C	1.055400	-0.406419	0.047898
C252	C	1.388733	-0.073085	0.381231
C253	C	0.755549	-0.810113	-0.252042
C254	C	1.088882	-0.476780	0.081291
C255	C	1.422216	-0.143446	0.414625
C256	C	0.789017	-0.833556	-0.218644
C257	C	1.122350	-0.500223	0.114689
C258	C	1.455684	-0.166889	0.448023
C259	C	0.822470	-0.810081	-0.185242
C260	C	1.155803	-0.476748	0.148091
C261	C	1.489137	-0.143414	0.481424
C262	C	0.822451	-0.763166	-0.185235
C263	C	1.155785	-0.429832	0.148098
C264	C	1.489118	-0.096499	0.481431
C265	C	0.688614	-0.763227	-0.318838
C266	C	1.021947	-0.429894	0.014496
C267	C	1.355280	-0.096560	0.347829
C268	C	0.688635	-0.810143	-0.318841
C269	C	1.021968	-0.476809	0.014492
C270	C	1.355301	-0.143476	0.347825
C271	C	0.722102	-0.833585	-0.285443
C272	C	1.055436	-0.500252	0.047890
C273	C	1.388769	-0.166919	0.381223
C274	C	0.891841	-0.216531	-0.252045
C275	C	1.225175	0.116802	0.081288
C276	C	1.558508	0.450136	0.414622
C277	C	0.949955	-0.216539	-0.252060
C278	C	1.283289	0.116794	0.081273
C279	C	1.616622	0.450128	0.414606
C280	C	0.755485	-0.216505	-0.388382
C281	C	1.088819	0.116828	-0.055049
C282	C	1.422152	0.450162	0.278284
C283	C	0.755492	-0.216502	-0.446496
C284	C	1.088826	0.116832	-0.113163
C285	C	1.422159	0.450165	0.220170
C286	C	0.755577	-0.099335	-0.252047
C287	C	1.088911	0.233999	0.081287
C288	C	1.422244	0.567332	0.414620
C289	C	0.755624	-0.049400	-0.252063
C290	C	1.088957	0.283933	0.081271
C291	C	1.422290	0.617266	0.414604
C292	C	0.789002	-0.187687	-0.806883
C293	C	1.122335	0.145646	-0.473550
C294	C	1.455669	0.478979	-0.140217
C295	C	0.789008	-0.187675	-0.861488
C296	C	1.122342	0.145658	-0.528154
C297	C	1.455675	0.478992	-0.194821
O298	O	0.817457	-0.163229	-0.889744
O299	O	1.150790	0.170105	-0.556411
O300	O	1.484124	0.503438	-0.223078
N301	N	0.755550	-0.216396	-0.888779
N302	N	1.088883	0.116937	-0.555446
N303	N	1.422217	0.450270	-0.222112
C304	C	0.722079	-0.245129	-0.861463
C305	C	1.055413	0.088204	-0.528130
C306	C	1.388746	0.421538	-0.194797
O307	O	0.693621	-0.269558	-0.889691
O308	O	1.026954	0.063776	-0.556358
O309	O	1.360287	0.397109	-0.223024
C310	C	0.722071	-0.245139	-0.806860
C311	C	1.055404	0.088194	-0.473527
C312	C	1.388737	0.421528	-0.140193
C313	C	0.755535	-0.216419	-0.779571
C314	C	1.088868	0.116915	-0.446238
C315	C	1.422202	0.450248	-0.112905
C316	C	0.822463	-0.158969	-0.779594
C317	C	1.155796	0.174364	-0.446261
C318	C	1.489130	0.507698	-0.112928
C319	C	0.822457	-0.158982	-0.724994
C320	C	1.155790	0.174351	-0.391661
C321	C	1.489124	0.507685	-0.058327
C322	C	0.788990	-0.187714	-0.697682
C323	C	1.122323	0.145620	-0.364349
C324	C	1.455657	0.478953	-0.031015
C325	C	0.755529	-0.216432	-0.724971
C326	C	1.088862	0.116901	-0.391637
C327	C	1.422196	0.450235	-0.058304
C328	C	0.688598	-0.273869	-0.779545
C329	C	1.021931	0.059464	-0.446212
C330	C	1.355264	0.392798	-0.112879
C331	C	0.688592	-0.273876	-0.724938
C332	C	1.021925	0.059457	-0.391605
C333	C	1.355258	0.392791	-0.058272
C334	C	0.722056	-0.245156	-0.697650
C335	C	1.055389	0.088177	-0.364316
C336	C	1.388722	0.421511	-0.030983
C337	C	0.722056	-0.245176	-0.643058
C338	C	1.055389	0.088157	-0.309725
C339	C	1.388723	0.421490	0.023608
N340	N	0.755514	-0.216455	-0.615767
N341	N	1.088848	0.116879	-0.282434
N342	N	1.422181	0.450212	0.050900
C343	C	0.788981	-0.187723	-0.643079
C344	C	1.122315	0.145610	-0.309745
C345	C	1.455648	0.478943	0.023588
C346	C	0.722100	-0.245106	-0.976134
C347	C	1.055433	0.088228	-0.642801
C348	C	1.388766	0.421561	-0.309467
C349	C	0.722110	-0.245099	-1.030736
C350	C	1.055444	0.088235	-0.697403
C351	C	1.388777	0.421568	-0.364070
C352	C	0.789039	-0.187644	-1.030757
C353	C	1.122372	0.145690	-0.697423
C354	C	1.455706	0.479023	-0.364090
C355	C	0.789030	-0.187653	-0.976153
C356	C	1.122364	0.145680	-0.642820
C357	C	1.455697	0.479013	-0.309487
C358	C	0.755558	-0.216384	-0.948843
C359	C	1.088891	0.116949	-0.615509
C360	C	1.422224	0.450282	-0.282176
C361	C	0.788967	-0.187753	-0.528414
C362	C	1.122300	0.145580	-0.195080
C363	C	1.455633	0.478913	0.138253
C364	C	0.788959	-0.187770	-0.473808
C365	C	1.122293	0.145563	-0.140475
C366	C	1.455626	0.478896	0.192859
C367	C	0.722029	-0.245223	-0.473793
C368	C	1.055363	0.088110	-0.140459
C369	C	1.388696	0.421443	0.192874
C370	C	0.722038	-0.245208	-0.528393
C371	C	1.055372	0.088125	-0.195060
C372	C	1.388705	0.421458	0.138274
C373	C	0.755509	-0.216470	-0.555702
C374	C	1.088842	0.116864	-0.222369
C375	C	1.422175	0.450197	0.110964
O376	O	0.693620	-0.269609	-0.614767
O377	O	1.026954	0.063725	-0.281433
O378	O	1.360287	0.397058	0.051900
O379	O	0.817430	-0.163295	-0.614845
O380	O	1.150764	0.170039	-0.281511
O381	O	1.484097	0.503372	0.051822
C382	C	0.755482	-0.216488	-0.116167
C383	C	1.088815	0.116845	0.217167
C384	C	1.422148	0.450178	0.550500
C385	C	0.755576	-0.216365	-0.058053
C386	C	1.088909	0.116968	0.275280
C387	C	1.422242	0.450301	0.608614
H388	H	0.305276	-0.135522	-0.158101
H389	H	0.638609	0.197812	0.175233
H390	H	0.971942	0.531145	0.508566
O391	O	0.309604	-0.301948	-0.351220
O392	O	0.642937	0.031385	-0.017886
O393	O	0.976271	0.364718	0.315447
C394	C	0.341209	-0.276410	-0.385050
C395	C	0.674542	0.056924	-0.051717
C396	C	1.007876	0.390257	0.281616
H397	H	0.349410	-0.242343	-0.366678
H398	H	0.682744	0.090990	-0.033344
H399	H	1.016077	0.424324	0.299989
H400	H	0.379594	-0.294718	-0.392025
H401	H	0.712927	0.038616	-0.058692
H402	H	1.046260	0.371949	0.274641
H403	H	0.320180	-0.271518	-0.423804
H404	H	0.653513	0.061816	-0.090471
H405	H	0.986847	0.395149	0.242862
O406	O	0.656152	-0.301810	-0.698349
O407	O	0.989485	0.031524	-0.365016
O408	O	1.322818	0.364857	-0.031682
C409	C	0.685890	-0.330845	-0.666781
C410	C	1.019224	0.002489	-0.333448
C411	C	1.352557	0.335822	-0.000114
H412	H	0.725527	-0.315007	-0.658615
H413	H	1.058860	0.018326	-0.325281
H414	H	1.392194	0.351660	0.008052
H415	H	0.664585	-0.336871	-0.628377
H416	H	0.997919	-0.003538	-0.295043
H417	H	1.331252	0.329795	0.038290
H418	H	0.691605	-0.364133	-0.687824
H419	H	1.024939	-0.030800	-0.354491
H420	H	1.358272	0.302534	-0.021157
O421	O	0.560751	-0.273273	-0.317696
O422	O	0.894084	0.060061	0.015637
O423	O	1.227417	0.393394	0.348970
C424	C	0.592310	-0.302244	-0.287867
C425	C	0.925643	0.031089	0.045467
C426	C	1.258976	0.364422	0.378800
H427	H	0.575832	-0.304969	-0.246684
H428	H	0.909166	0.028364	0.086650
H429	H	1.242499	0.361698	0.419983
H430	H	0.592914	-0.336841	-0.306705
H431	H	0.926247	-0.003508	0.026628
H432	H	1.259580	0.329826	0.359961
H433	H	0.633702	-0.288351	-0.286090
H434	H	0.967035	0.044983	0.047243
H435	H	1.300368	0.378316	0.380577
H436	H	0.816279	-0.164266	-0.953939
H437	H	1.149612	0.169067	-0.620605
H438	H	1.482946	0.502401	-0.287272
H439	H	0.849719	-0.829176	-0.158047
H440	H	1.183052	-0.495843	0.175286
H441	H	1.516386	-0.162510	0.508620
O442	O	0.854946	-0.599691	-0.152752
O443	O	1.188279	-0.266357	0.180582
O444	O	1.521613	0.066976	0.513915
C445	C	0.884478	-0.630451	-0.123272
C446	C	1.217811	-0.297118	0.210061
C447	C	1.551144	0.036216	0.543395
H448	H	0.886275	-0.663885	-0.144696
H449	H	1.219608	-0.330552	0.188637
H450	H	1.552942	0.002782	0.521971
H451	H	0.925675	-0.616870	-0.117742
H452	H	1.259008	-0.283537	0.215591
H453	H	1.592342	0.049796	0.548925
H454	H	0.865365	-0.635471	-0.083541
H455	H	1.198698	-0.302137	0.249793
H456	H	1.532031	0.031196	0.583126
O457	O	0.453032	-0.159751	-0.186266
O458	O	0.786365	0.173582	0.147067
O459	O	1.119698	0.506916	0.480400
C460	C	0.421505	-0.130765	-0.216111
C461	C	0.754838	0.202569	0.117223
C462	C	1.088171	0.535902	0.450556
H463	H	0.413330	-0.146667	-0.255696
H464	H	0.746663	0.186666	0.077637
H465	H	1.079997	0.519999	0.410971
H466	H	0.383102	-0.124703	-0.194836
H467	H	0.716435	0.208630	0.138498
H468	H	1.049768	0.541963	0.471831
H469	H	0.442587	-0.097486	-0.221932
H470	H	0.775920	0.235848	0.111401
H471	H	1.109254	0.569181	0.444734
O472	O	0.560792	-0.159837	-0.186150
O473	O	0.894125	0.173497	0.147183
O474	O	1.227458	0.506830	0.480517
C475	C	0.592333	-0.185370	-0.152316
C476	C	0.925667	0.147963	0.181018
C477	C	1.259000	0.481297	0.514351
H478	H	0.600492	-0.219441	-0.170680
H479	H	0.933826	0.113892	0.162654
H480	H	1.267159	0.447225	0.495987
H481	H	0.630743	-0.167064	-0.145351
H482	H	0.964076	0.166270	0.187982
H483	H	1.297410	0.499603	0.521316
H484	H	0.571272	-0.190252	-0.113558
H485	H	0.904605	0.143081	0.219776
H486	H	1.237938	0.476414	0.553109
H487	H	0.457384	-0.268709	-0.312552
H488	H	0.790717	0.064624	0.020782
H489	H	1.124050	0.397957	0.354115
H490	H	0.816220	-0.164350	-0.550642
H491	H	1.149553	0.168983	-0.217309
H492	H	1.482887	0.502317	0.116024
H493	H	0.816288	-0.164248	-1.053004
H494	H	1.149622	0.169086	-0.719671
H495	H	1.482955	0.502419	-0.386337
O496	O	0.656068	-0.301707	-0.806106
O497	O	0.989402	0.031627	-0.472773
O498	O	1.322735	0.364960	-0.139440
C499	C	0.622317	-0.276121	-0.837678
C500	C	0.955650	0.057212	-0.504345
C501	C	1.288984	0.390545	-0.171011
H502	H	0.640788	-0.242076	-0.845871
H503	H	0.974122	0.091257	-0.512538
H504	H	1.307455	0.424590	-0.179204
H505	H	0.615298	-0.294415	-0.876069
H506	H	0.948632	0.038918	-0.542736
H507	H	1.281965	0.372252	-0.209402
H508	H	0.583573	-0.271184	-0.816625
H509	H	0.916906	0.062149	-0.483292
H510	H	1.250239	0.395483	-0.149958
H511	H	0.694866	-0.268490	-1.052950
H512	H	1.028200	0.064843	-0.719617
H513	H	1.361533	0.398176	-0.386284
O514	O	0.689573	-0.273066	-0.949687
O515	O	1.022906	0.060268	-0.616354
O516	O	1.356240	0.393601	-0.283020
C517	C	0.660039	-0.298404	-0.985489
C518	C	0.993373	0.034929	-0.652156
C519	C	1.326706	0.368262	-0.318823
H520	H	0.681462	-0.299948	-1.024416
H521	H	1.014795	0.033386	-0.691083
H522	H	1.348129	0.366719	-0.357750
H523	H	0.654431	-0.333806	-0.969713
H524	H	0.987765	-0.000472	-0.636380
H525	H	1.321098	0.332861	-0.303046
H526	H	0.620344	-0.281950	-0.991289
H527	H	0.953678	0.051383	-0.657956
H528	H	1.287011	0.384717	-0.324622
O529	O	0.058438	-0.273195	-0.317875
O530	O	0.391771	0.060138	0.015458
O531	O	0.725105	0.393472	0.348791
C532	C	0.090043	-0.247658	-0.351708
C533	C	0.423376	0.085675	-0.018375
C534	C	0.756709	0.419008	0.314959
H535	H	0.098240	-0.213589	-0.333340
H536	H	0.431573	0.119745	-0.000006
H537	H	0.764906	0.453078	0.333327
H538	H	0.128430	-0.265964	-0.358677
H539	H	0.461763	0.067369	-0.025344
H540	H	0.795096	0.400702	0.307990
H541	H	0.069016	-0.242772	-0.390464
H542	H	0.402350	0.090561	-0.057131
H543	H	0.735683	0.423895	0.276203
H544	H	0.694794	-0.268599	-0.550613
H545	H	1.028127	0.064734	-0.217279
H546	H	1.361461	0.398068	0.116054
H547	H	0.694677	-0.387554	-0.312587
H548	H	1.028011	-0.054221	0.020746
H549	H	1.361344	0.279112	0.354080
H550	H	0.694783	-0.268617	-0.451545
H551	H	1.028116	0.064716	-0.118212
H552	H	1.361450	0.398049	0.215121
O553	O	-0.049207	-0.273241	-0.317935
O554	O	0.284126	0.060092	0.015398
O555	O	0.617459	0.393425	0.348731
C556	C	-0.035844	-0.263480	-0.370065
C557	C	0.297490	0.069854	-0.036732
C558	C	0.630823	0.403187	0.296601
H559	H	0.003816	-0.246212	-0.371182
H560	H	0.337149	0.087121	-0.037849
H561	H	0.670483	0.420454	0.295484
H562	H	-0.033991	-0.295931	-0.393443
H563	H	0.299343	0.037402	-0.060110
H564	H	0.632676	0.370735	0.273224
H565	H	-0.066549	-0.240403	-0.387724
H566	H	0.266784	0.092930	-0.054391
H567	H	0.600118	0.426263	0.278942
O568	O	0.201866	-0.131003	-0.152927
O569	O	0.535199	0.202331	0.180406
O570	O	0.868532	0.535664	0.513739
C571	C	0.170313	-0.102017	-0.182745
C572	C	0.503646	0.231316	0.150588
C573	C	0.836980	0.564650	0.483922
H574	H	0.162145	-0.117901	-0.222342
H575	H	0.495479	0.215432	0.110992
H576	H	0.828812	0.548765	0.444325
H577	H	0.131909	-0.095989	-0.161461
H578	H	0.465242	0.237345	0.171873
H579	H	0.798575	0.570678	0.505206
H580	H	0.191370	-0.068723	-0.188544
H581	H	0.524704	0.264610	0.144789
H582	H	0.858037	0.597944	0.478122
O583	O	0.201998	-0.302063	-0.351221
O584	O	0.535332	0.031271	-0.017887
O585	O	0.868665	0.364604	0.315446
C586	C	0.237812	-0.327444	-0.380677
C587	C	0.571146	0.005889	-0.047344
C588	C	0.904479	0.339222	0.285989
H589	H	0.276722	-0.328961	-0.359250
H590	H	0.610055	0.004373	-0.025917
H591	H	0.943389	0.337706	0.307417
H592	H	0.222025	-0.362852	-0.386179
H593	H	0.555358	-0.029519	-0.052846
H594	H	0.888692	0.303815	0.280488
H595	H	0.243650	-0.311045	-0.420422
H596	H	0.576984	0.022288	-0.087089
H597	H	0.910317	0.355622	0.246245
H598	H	-0.044960	-0.164338	-0.191499
H599	H	0.288373	0.168995	0.141834
H600	H	0.621707	0.502328	0.475167
H601	H	0.054089	-0.164324	-0.191493
H602	H	0.387423	0.169010	0.141840
H603	H	0.720756	0.502343	0.475174
O604	O	0.821517	-0.159931	-0.447274
O605	O	1.154850	0.173403	-0.113941
O606	O	1.488184	0.506736	0.219392
C607	C	0.855253	-0.185513	-0.415683
C608	C	1.188586	0.147820	-0.082349
C609	C	1.521920	0.481154	0.250984
H610	H	0.858460	-0.220893	-0.432134
H611	H	1.191794	0.112441	-0.098801
H612	H	1.525127	0.445774	0.234533
H613	H	0.895502	-0.169264	-0.415073
H614	H	1.228835	0.164070	-0.081740
H615	H	1.562168	0.497403	0.251594
H616	H	0.839078	-0.187069	-0.374297
H617	H	1.172412	0.146264	-0.040963
H618	H	1.505745	0.479598	0.292370
H619	H	0.816089	-0.387503	-0.191385
H620	H	1.149423	-0.054170	0.141948
H621	H	1.482756	0.279164	0.475281
H622	H	0.694912	-1.045065	-0.312660
H623	H	1.028245	-0.711731	0.020674
H624	H	1.361578	-0.378398	0.354007
H625	H	0.816133	-0.472612	-0.191400
H626	H	1.149466	-0.139279	0.141934
H627	H	1.482799	0.194054	0.475267
H628	H	0.849706	-0.135594	-0.702780
H629	H	1.183039	0.197739	-0.369447
H630	H	1.516373	0.531072	-0.036114
O631	O	0.821605	-1.048772	-0.186295
O632	O	1.154939	-0.715438	0.147038
O633	O	1.488272	-0.382105	0.480371
C634	C	0.814447	-1.095215	-0.193474
C635	C	1.147781	-0.761881	0.139860
C636	C	1.481114	-0.428548	0.473193
H637	H	0.797251	-1.101607	-0.233788
H638	H	1.130584	-0.768274	0.099545
H639	H	1.463917	-0.434940	0.432878
H640	H	0.853630	-1.113006	-0.190032
H641	H	1.186964	-0.779672	0.143302
H642	H	1.520297	-0.446339	0.476635
H643	H	0.786674	-1.108586	-0.162407
H644	H	1.120008	-0.775253	0.170926
H645	H	1.453341	-0.441919	0.504260
O646	O	0.855013	-0.692108	-0.152867
O647	O	1.188346	-0.358775	0.180466
O648	O	1.521680	-0.025441	0.513800
C649	C	0.888767	-0.719199	-0.182690
C650	C	1.222100	-0.385866	0.150644
C651	C	1.555433	-0.052533	0.483977
H652	H	0.891917	-0.705050	-0.223878
H653	H	1.225251	-0.371716	0.109456
H654	H	1.558584	-0.038383	0.442789
H655	H	0.929032	-0.719672	-0.163854
H656	H	1.262365	-0.386338	0.169479
H657	H	1.595699	-0.053005	0.502813
H658	H	0.872647	-0.754782	-0.184453
H659	H	1.205980	-0.421449	0.148880
H660	H	1.539313	-0.088116	0.482213
O661	O	0.821607	-0.956277	-0.186185
O662	O	1.154940	-0.622944	0.147149
O663	O	1.488274	-0.289610	0.480482
C664	C	0.851135	-0.987035	-0.156699
C665	C	1.184469	-0.653702	0.176634
C666	C	1.517802	-0.320368	0.509968
H667	H	0.852938	-1.020470	-0.178122
H668	H	1.186272	-0.687136	0.155212
H669	H	1.519605	-0.353803	0.488545
H670	H	0.892331	-0.973452	-0.151162
H671	H	1.225664	-0.640119	0.182171
H672	H	1.558997	-0.306786	0.515505
H673	H	0.832016	-0.992055	-0.116971
H674	H	1.165349	-0.658721	0.216362
H675	H	1.498683	-0.325388	0.549696
O676	O	0.689576	-0.956341	-0.317919
O677	O	1.022909	-0.623007	0.015414
O678	O	1.356243	-0.289674	0.348747
C679	C	0.660064	-0.987126	-0.347405
C680	C	0.993398	-0.653793	-0.014071
C681	C	1.326731	-0.320460	0.319262
H682	H	0.658288	-1.020579	-0.325986
H683	H	0.991621	-0.687245	0.007347
H684	H	1.324955	-0.353912	0.340680
H685	H	0.618859	-0.973607	-0.352933
H686	H	0.952192	-0.640274	-0.019600
H687	H	1.285525	-0.306940	0.313733
H688	H	0.679181	-0.992088	-0.387136
H689	H	1.012515	-0.658754	-0.053803
H690	H	1.345848	-0.325421	0.279530
O691	O	0.656082	-0.832961	-0.351222
O692	O	0.989415	-0.499628	-0.017888
O693	O	1.322749	-0.166295	0.315445
C694	C	0.622348	-0.860152	-0.321432
C695	C	0.955681	-0.526819	0.011901
C696	C	1.289014	-0.193486	0.345235
H697	H	0.619135	-0.846037	-0.280246
H698	H	0.952468	-0.512704	0.053088
H699	H	1.285802	-0.179371	0.386421
H700	H	0.582101	-0.860708	-0.340305
H701	H	0.915434	-0.527375	-0.006972
H702	H	1.248767	-0.194042	0.326362
H703	H	0.638527	-0.895698	-0.319657
H704	H	0.971861	-0.562365	0.013676
H705	H	1.305194	-0.229032	0.347010
O706	O	0.656142	-0.692164	-0.351367
O707	O	0.989476	-0.358830	-0.018034
O708	O	1.322809	-0.025497	0.315300
C709	C	0.667530	-0.680653	-0.403483
C710	C	1.000864	-0.347320	-0.070149
C711	C	1.334197	-0.013986	0.263184
H712	H	0.709295	-0.667725	-0.406156
H713	H	1.042629	-0.334392	-0.072823
H714	H	1.375962	-0.001058	0.260510
H715	H	0.663018	-0.711496	-0.429321
H716	H	0.996351	-0.378163	-0.095987
H717	H	1.329685	-0.044830	0.237346
H718	H	0.639487	-0.653430	-0.417113
H719	H	0.972820	-0.320097	-0.083780
H720	H	1.306153	0.013236	0.249553
O721	O	0.656132	-0.599678	-0.351333
O722	O	0.989465	-0.266345	-0.018000
O723	O	1.322799	0.066989	0.315334
C724	C	0.685866	-0.572493	-0.385121
C725	C	1.019200	-0.239159	-0.051788
C726	C	1.352533	0.094174	0.281545
H727	H	0.727049	-0.586595	-0.388394
H728	H	1.060382	-0.253262	-0.055061
H729	H	1.393716	0.080071	0.278272
H730	H	0.666931	-0.571961	-0.425339
H731	H	1.000264	-0.238628	-0.092006
H732	H	1.333597	0.094705	0.241328
H733	H	0.687663	-0.536939	-0.368954
H734	H	1.020996	-0.203606	-0.035620
H735	H	1.354330	0.129728	0.297713
H736	H	0.694712	-0.472677	-0.312605
H737	H	1.028045	-0.139343	0.020729
H738	H	1.361378	0.193990	0.354062
O739	O	0.854998	-0.740437	-0.152769
O740	O	1.188332	-0.407104	0.180565
O741	O	1.521665	-0.073770	0.513898
C742	C	0.884528	-0.771197	-0.123287
C743	C	1.217862	-0.437864	0.210046
C744	C	1.551195	-0.104531	0.543379
H745	H	0.886330	-0.804631	-0.144713
H746	H	1.219663	-0.471297	0.188620
H747	H	1.552997	-0.137964	0.521954
H748	H	0.925724	-0.757615	-0.117752
H749	H	1.259057	-0.424282	0.215582
H750	H	1.592391	-0.090949	0.548915
H751	H	0.865411	-0.776219	-0.083559
H752	H	1.198744	-0.442886	0.249775
H753	H	1.532078	-0.109553	0.583108
H754	H	0.849716	-0.135570	-0.801826
H755	H	1.183049	0.197763	-0.468493
H756	H	1.516383	0.531097	-0.135159
O757	O	0.656049	-0.740528	-0.351296
O758	O	0.989383	-0.407195	-0.017962
O759	O	1.322716	-0.073861	0.315371
C760	C	0.626540	-0.771313	-0.380784
C761	C	0.959873	-0.437980	-0.047450
C762	C	1.293206	-0.104647	0.285883
H763	H	0.624766	-0.804767	-0.359368
H764	H	0.958099	-0.471434	-0.026035
H765	H	1.291433	-0.138100	0.307298
H766	H	0.585333	-0.757796	-0.386311
H767	H	0.918666	-0.424462	-0.052977
H768	H	1.252000	-0.091129	0.280356
H769	H	0.645657	-0.776271	-0.420516
H770	H	0.978990	-0.442938	-0.087183
H771	H	1.312323	-0.109604	0.246151
