data_functionalizedCrystal
_audit_creation_method	'MofGen! by Chris Wilmer'
_symmetry_space_group_name_H-M	'P1'
_symmetry_Int_Tables_number	1
_symmetry_cell_setting	triclinic
loop_
_symmetry_equiv_pos_as_xyz
  x,y,z
_cell_length_a	6.817900
_cell_length_b	11.102244
_cell_length_c	16.305550
_cell_angle_alpha	93.871173
_cell_angle_beta	103.455250
_cell_angle_gamma	108.604870
loop_
_atom_site_label
_atom_site_type_symbol
_atom_site_fract_x
_atom_site_fract_y
_atom_site_fract_z
V1	V	-4.052579	-0.176911	-0.263029
O2	O	-4.012740	0.007398	-0.258024
O3	O	-4.029754	-0.349723	-0.261228
O4	O	-4.003652	-0.174674	-0.377746
O5	O	-4.039022	-0.168863	-0.140700
V6	V	-4.532962	-0.154808	-0.248398
O7	O	-4.320727	-0.225395	-0.295124
O8	O	-4.715011	-0.106324	-0.216303
O9	O	-4.332581	0.018004	-0.250199
O10	O	-4.690198	-0.339117	-0.253403
O11	O	-4.663916	-0.162856	-0.370727
O12	O	-4.358682	-0.157045	-0.133681
C13	C	-3.880993	-0.391836	-0.257078
C14	C	-3.943614	-0.533115	-0.256370
C15	C	-3.930174	-0.581034	-0.178786
C16	C	-3.989025	-0.713783	-0.178131
C17	C	-4.074747	-0.750686	-0.332650
C18	C	-4.015911	-0.617939	-0.333305
C19	C	-3.857877	-0.496210	-0.101851
C20	C	-3.844431	-0.544127	-0.024261
C21	C	-3.903283	-0.676877	-0.023605
C22	C	-3.975580	-0.761709	-0.100540
C23	C	-3.847697	-0.168542	-0.405708
C24	C	-3.889147	-0.167856	-0.499489
C25	C	-4.039838	-0.165200	-0.840235
C26	C	-3.802616	-0.157314	-0.799306
C27	C	-3.759607	-0.158553	-0.701811
C28	C	-3.965077	-0.166517	-0.671187
C29	C	-4.150793	-0.292032	-0.721812
C30	C	-4.192551	-0.291322	-0.819361
C31	C	-4.077233	-0.048574	-0.794393
C32	C	-4.029156	-0.047580	-0.696550
C33	C	-3.922838	-0.167266	-0.575649
C34	C	-4.082087	-0.164460	-0.935774
C35	C	-4.144684	0.060110	-0.254347
C36	C	-4.061302	0.201388	-0.255060
C37	C	-4.177980	-0.163182	-0.105715
C38	C	-4.115768	-0.163861	-0.011932
H39	H	-4.026887	-0.578925	-0.396482
C40	C	-3.812622	-0.627060	0.129064
C41	C	-3.888509	-0.729550	0.061679
H42	H	-3.803482	-0.659578	0.181716
H43	H	-3.908563	-0.580205	0.122906
H44	H	-3.674336	-0.571900	0.128276
H45	H	-4.026803	-0.784705	0.062463
H46	H	-3.792565	-0.776426	0.067839
C47	C	-3.901163	-0.379541	0.060669
C48	C	-3.764977	-0.450880	0.060301
H49	H	-3.852102	-0.321970	0.112872
H50	H	-4.042992	-0.436242	0.055026
H51	H	-3.900723	-0.332010	0.014363
H52	H	-3.765429	-0.498418	0.106603
H53	H	-3.623111	-0.394171	0.065952
C54	C	-4.013216	-0.931781	-0.015475
C55	C	-4.040272	-0.907631	-0.099821
H56	H	-4.053135	-1.021865	-0.015032
H57	H	-4.101194	-0.899094	0.010209
H58	H	-3.866954	-0.890779	0.015596
H59	H	-4.186538	-0.948626	-0.130890
H60	H	-3.952294	-0.940334	-0.125516
C61	C	-4.202979	-0.970565	-0.400252
C62	C	-4.154187	-0.843930	-0.417212
H63	H	-4.252003	-1.028125	-0.452459
H64	H	-4.312126	-0.988887	-0.371101
H65	H	-4.077880	-0.980567	-0.365705
H66	H	-4.279291	-0.833925	-0.451754
H67	H	-4.045031	-0.825601	-0.446377
C68	C	-3.495310	0.038020	-0.713969
C69	C	-3.570682	-0.036739	-0.654527
H70	H	-3.378658	0.113218	-0.684779
H71	H	-3.607738	0.061860	-0.746828
H72	H	-3.448384	-0.010315	-0.750606
H73	H	-3.617623	0.011593	-0.617894
H74	H	-3.458231	-0.060577	-0.621653
H75	H	-3.682981	-0.066643	-0.811671
C76	C	-4.469355	-0.305682	-0.945322
C77	C	-4.429425	-0.306173	-0.857156
H78	H	-4.615587	-0.314848	-0.968649
H79	H	-4.440245	-0.375091	-0.971070
H80	H	-4.379332	-0.226760	-0.956036
H81	H	-4.519438	-0.385099	-0.846442
H82	H	-4.458558	-0.236758	-0.831400
C83	C	-3.682092	-0.340682	-0.754499
C84	C	-3.686976	-0.272976	-0.679807
H85	H	-3.637268	-0.411331	-0.740914
H86	H	-3.584155	-0.285169	-0.780117
H87	H	-3.821559	-0.371483	-0.793117
H88	H	-3.547505	-0.242167	-0.641191
H89	H	-3.784917	-0.328499	-0.654176
H90	H	-3.769998	-0.241105	-0.830817
C91	C	-4.105503	-0.481867	-0.797023
C92	C	-4.161480	-0.410500	-0.860379
H93	H	-4.086303	-0.555437	-0.822344
H94	H	-4.216678	-0.508387	-0.769226
H95	H	-3.975538	-0.430180	-0.756539
H96	H	-4.291454	-0.462185	-0.900860
H97	H	-4.050296	-0.383982	-0.888190
H98	H	-4.305492	-0.302399	-0.702899
H99	H	-4.108505	-0.380345	-0.704998
C100	C	-4.174058	0.068308	-0.611469
C101	C	-4.227603	-0.045346	-0.667720
H102	H	-4.296563	0.069706	-0.593668
H103	H	-4.127310	0.140192	-0.639501
H104	H	-4.062008	0.072092	-0.563083
H105	H	-4.339644	-0.049125	-0.716109
H106	H	-4.274382	-0.117248	-0.639688
C107	C	-4.310763	0.056505	-0.866070
C108	C	-4.310439	-0.054849	-0.830596
H109	H	-4.454735	0.052624	-0.888418
H110	H	-4.241395	0.062621	-0.910625
H111	H	-4.236406	0.129788	-0.823217
H112	H	-4.384783	-0.128132	-0.873450
H113	H	-4.379838	-0.060978	-0.786035
H114	H	-3.971676	0.046528	-0.807762
H115	H	-3.809940	-0.388117	-0.102376
C116	C	-3.772990	0.151303	-0.710328
C117	C	-3.847106	0.077757	-0.650147
H118	H	-3.660592	0.228676	-0.681675
H119	H	-3.887630	0.171306	-0.745019
H120	H	-3.720451	0.103809	-0.745096
H121	H	-3.899661	0.125248	-0.615383
H122	H	-3.732444	0.057757	-0.615441
