data_functionalizedCrystal
_audit_creation_method	'MofGen! by Chris Wilmer'
_symmetry_space_group_name_H-M	'P1'
_symmetry_Int_Tables_number	1
_symmetry_cell_setting	triclinic
loop_
_symmetry_equiv_pos_as_xyz
  x,y,z
_cell_length_a	10.723023
_cell_length_b	9.198806
_cell_length_c	16.109304
_cell_angle_alpha	90.000373
_cell_angle_beta	96.034907
_cell_angle_gamma	89.995886
loop_
_atom_site_label
_atom_site_type_symbol
_atom_site_fract_x
_atom_site_fract_y
_atom_site_fract_z
O1	O	-1.655644	0.120889	0.116604
O2	O	-1.292344	0.120889	0.127766
O3	O	-1.483973	0.120890	0.001213
O4	O	-1.464016	0.120888	0.243157
O5	O	-1.483958	-0.120895	0.001213
O6	O	-1.292329	-0.120896	0.127766
O7	O	-1.655629	-0.120896	0.116604
Cu8	Cu	-1.473978	-0.142973	0.122185
Cu9	Cu	-1.473996	0.142966	0.122185
O10	O	-1.464001	-0.120897	0.243157
C11	C	-1.245848	-0.000003	0.126954
C12	C	-1.107326	-0.000002	0.124524
C13	C	-0.902413	0.125247	0.120930
C14	C	-1.045583	0.125249	0.123441
N15	N	-1.473974	-0.344087	0.122184
C16	C	-1.554437	-0.416284	0.068814
C17	C	-1.554456	-0.583696	0.068811
C18	C	-0.702126	-0.000004	0.117416
C19	C	-0.840648	-0.000005	0.119846
C20	C	-1.483156	0.000001	-0.029767
C21	C	-1.480731	0.000010	-0.122076
N22	N	-1.474009	0.344080	0.122179
C23	C	-1.475135	0.131802	-0.334446
C24	C	-1.472845	0.131801	-0.421180
C25	C	-1.472835	-0.131807	-0.421177
C26	C	-1.475116	-0.131804	-0.334445
C27	C	-1.476273	0.000005	-0.291082
C28	C	-1.471701	0.000001	-0.464548
C29	C	-1.469217	-0.000002	-0.558589
C30	C	-1.478754	0.000008	-0.197035
C31	C	-1.464817	-0.000004	0.274137
C32	C	-1.467243	-0.000005	0.366446
H33	H	-0.849302	0.232478	0.119993
H34	H	-1.471895	-0.239120	-0.456494
F35	F	-1.471632	0.272078	-0.467328
H36	H	-0.893762	-0.107235	0.120774
H37	H	-1.623306	-0.354157	0.023120
H38	H	-1.476035	-0.239135	-0.299136
H39	H	-1.405123	-0.593843	0.167878
H40	H	-1.054216	-0.107240	0.123597
F41	F	-1.383944	-0.425287	0.181903
F42	F	-1.476362	0.272084	-0.288299
F43	F	-1.115005	0.265415	0.124665
H44	H	-1.623348	-0.645782	0.023121
