data_functionalizedCrystal
_audit_creation_method	'MofGen! by Chris Wilmer'
_symmetry_space_group_name_H-M	'P1'
_symmetry_Int_Tables_number	1
_symmetry_cell_setting	triclinic
loop_
_symmetry_equiv_pos_as_xyz
  x,y,z
_cell_length_a	29.839131
_cell_length_b	13.897449
_cell_length_c	13.897441
_cell_angle_alpha	90.020722
_cell_angle_beta	89.965828
_cell_angle_gamma	89.958747
loop_
_atom_site_label
_atom_site_type_symbol
_atom_site_fract_x
_atom_site_fract_y
_atom_site_fract_z
Zn1	Zn	-0.178845	-1.474523	-0.545405
Zn2	Zn	0.154488	-1.141190	-0.212072
Zn3	Zn	0.487821	-0.807857	0.121261
Zn4	Zn	-0.253979	-1.474356	-0.384094
Zn5	Zn	0.079354	-1.141023	-0.050761
Zn6	Zn	0.412688	-0.807690	0.282573
Zn7	Zn	-0.178864	-1.313218	-0.384118
Zn8	Zn	0.154470	-0.979885	-0.050784
Zn9	Zn	0.487803	-0.646552	0.282549
Zn10	Zn	-0.253949	-1.313127	-0.545341
Zn11	Zn	0.079385	-0.979794	-0.212007
Zn12	Zn	0.412718	-0.646461	0.121326
O13	O	-0.216409	-1.393806	-0.464739
O14	O	0.116924	-1.060473	-0.131406
O15	O	0.450258	-0.727140	0.201927
O16	O	-0.188817	-1.609483	-0.524024
O17	O	0.144516	-1.276149	-0.190691
O18	O	0.477850	-0.942816	0.142642
O19	O	-0.244035	-1.452949	-0.249115
O20	O	0.089298	-1.119616	0.084218
O21	O	0.422632	-0.786283	0.417551
O22	O	-0.115994	-1.334724	-0.405550
O23	O	0.217339	-1.001390	-0.072217
O24	O	0.550673	-0.668057	0.261117
O25	O	-0.244017	-1.609360	-0.405509
O26	O	0.089316	-1.276027	-0.072176
O27	O	0.422649	-0.942693	0.261157
O28	O	-0.115981	-1.453234	-0.524047
O29	O	0.217353	-1.119900	-0.190714
O30	O	0.550686	-0.786567	0.142619
O31	O	-0.188848	-1.334562	-0.249133
O32	O	0.144485	-1.001229	0.084200
O33	O	0.477819	-0.667895	0.417534
O34	O	-0.188819	-1.178225	-0.405487
O35	O	0.144515	-0.844891	-0.072154
O36	O	0.477848	-0.511558	0.261180
O37	O	-0.243966	-1.334569	-0.680331
O38	O	0.089367	-1.001235	-0.346998
O39	O	0.422701	-0.667902	-0.013664
O40	O	-0.243984	-1.178158	-0.523937
O41	O	0.089350	-0.844824	-0.190604
O42	O	0.422683	-0.511491	0.142730
O43	O	-0.188788	-1.453145	-0.680378
O44	O	0.144546	-1.119812	-0.347045
O45	O	0.477879	-0.786479	-0.013712
O46	O	-0.316842	-1.452861	-0.405447
O47	O	0.016491	-1.119528	-0.072113
O48	O	0.349825	-0.786194	0.261220
O49	O	-0.316820	-1.334407	-0.523914
O50	O	0.016513	-1.001073	-0.190580
O51	O	0.349847	-0.667740	0.142753
C52	C	-0.216400	-1.143192	-0.464708
C53	C	0.116933	-0.809859	-0.131375
C54	C	0.450266	-0.476525	0.201959
C55	C	-0.216407	-1.035978	-0.464718
C56	C	0.116926	-0.702645	-0.131384
C57	C	0.450259	-0.369311	0.201949
C58	C	-0.216406	-0.839683	-0.464736
C59	C	0.116927	-0.506350	-0.131402
C60	C	0.450260	-0.173016	0.201931
C61	C	-0.216406	-0.948915	-0.464723
C62	C	0.116928	-0.615582	-0.131390
C63	C	0.450261	-0.282249	0.201944
C64	C	-0.333132	-1.393632	-0.464692
C65	C	0.000202	-1.060299	-0.131358
C66	C	0.333535	-0.726965	0.201975
C67	C	-0.383066	-1.393646	-0.464703
C68	C	-0.049733	-1.060313	-0.131370
C69	C	0.283600	-0.726979	0.201963
C70	C	-0.692708	-1.455598	-0.403144
C71	C	-0.359375	-1.122264	-0.069810
C72	C	-0.026042	-0.788931	0.263523
C73	C	-0.880381	-1.455717	-0.403181
C74	C	-0.547048	-1.122383	-0.069848
C75	C	-0.213715	-0.789050	0.263486
O76	O	-0.904645	-1.508252	-0.350804
O77	O	-0.571312	-1.174919	-0.017471
O78	O	-0.237979	-0.841586	0.315863
N79	N	-0.903851	-1.394006	-0.464812
N80	N	-0.570518	-1.060673	-0.131479
N81	N	-0.237185	-0.727340	0.201855
C82	C	-0.880400	-1.332266	-0.526443
C83	C	-0.547066	-0.998933	-0.193109
C84	C	-0.213733	-0.665600	0.140224
O85	O	-0.904669	-1.279788	-0.578872
O86	O	-0.571335	-0.946454	-0.245538
O87	O	-0.238002	-0.613121	0.087795
C88	C	-0.692728	-1.332153	-0.526409
C89	C	-0.359394	-0.998819	-0.193076
C90	C	-0.026061	-0.665486	0.140257
C91	C	-0.669260	-1.393860	-0.464767
C92	C	-0.335927	-1.060527	-0.131434
C93	C	-0.002594	-0.727194	0.201899
C94	C	-0.669241	-1.517301	-0.341507
C95	C	-0.335908	-1.183968	-0.008174
C96	C	-0.002574	-0.850634	0.325159
C97	C	-0.622326	-1.517267	-0.341495
C98	C	-0.288992	-1.183933	-0.008162
C99	C	0.044341	-0.850600	0.325172
C100	C	-0.598878	-1.455529	-0.403119
C101	C	-0.265544	-1.122196	-0.069785
C102	C	0.067789	-0.788863	0.263548
C103	C	-0.622345	-1.393826	-0.464755
C104	C	-0.289012	-1.060493	-0.131422
C105	C	0.044322	-0.727160	0.201912
C106	C	-0.669277	-1.270418	-0.588044
C107	C	-0.335944	-0.937085	-0.254711
C108	C	-0.002610	-0.603752	0.078623
C109	C	-0.622356	-1.270397	-0.588032
C110	C	-0.289023	-0.937064	-0.254699
C111	C	0.044311	-0.603730	0.078635
C112	C	-0.598889	-1.332105	-0.526390
C113	C	-0.265555	-0.998771	-0.193057
C114	C	0.067778	-0.665438	0.140277
C115	C	-0.551981	-1.332055	-0.526366
C116	C	-0.218648	-0.998721	-0.193033
C117	C	0.114685	-0.665388	0.140300
N118	N	-0.528512	-1.393765	-0.464735
N119	N	-0.195178	-1.060432	-0.131402
N120	N	0.138155	-0.727098	0.201931
C121	C	-0.551960	-1.455502	-0.403111
C122	C	-0.218626	-1.122169	-0.069778
C123	C	0.114707	-0.788836	0.263555
C124	C	-0.978930	-1.332329	-0.526454
C125	C	-0.645597	-0.998996	-0.193121
C126	C	-0.312264	-0.665662	0.140212
C127	C	-1.025848	-1.332356	-0.526462
C128	C	-0.692515	-0.999023	-0.193128
C129	C	-0.359182	-0.665689	0.140205
C130	C	-1.025827	-1.455808	-0.403201
C131	C	-0.692493	-1.122475	-0.069868
C132	C	-0.359160	-0.789141	0.263466
C133	C	-0.978908	-1.455775	-0.403190
C134	C	-0.645575	-1.122442	-0.069856
C135	C	-0.312241	-0.789109	0.263477
C136	C	-0.955461	-1.394039	-0.464823
C137	C	-0.622127	-1.060706	-0.131490
C138	C	-0.288794	-0.727373	0.201843
C139	C	-0.453434	-1.455426	-0.403089
C140	C	-0.120101	-1.122092	-0.069756
C141	C	0.213233	-0.788759	0.263577
C142	C	-0.406514	-1.455383	-0.403080
C143	C	-0.073181	-1.122050	-0.069746
C144	C	0.260152	-0.788717	0.263587
C145	C	-0.406540	-1.331935	-0.526343
C146	C	-0.073207	-0.998602	-0.193010
C147	C	0.260127	-0.665269	0.140323
C148	C	-0.453455	-1.331974	-0.526350
C149	C	-0.120122	-0.998640	-0.193017
C150	C	0.213211	-0.665307	0.140317
C151	C	-0.476901	-1.393727	-0.464720
C152	C	-0.143568	-1.060393	-0.131386
C153	C	0.189765	-0.727060	0.201947
O154	O	-0.527689	-1.279554	-0.578723
O155	O	-0.194355	-0.946221	-0.245390
O156	O	0.138978	-0.612888	0.087943
O157	O	-0.527683	-1.507988	-0.350706
O158	O	-0.194350	-1.174655	-0.017372
O159	O	0.138984	-0.841322	0.315961
C160	C	-0.739624	-1.455632	-0.403156
C161	C	-0.406291	-1.122298	-0.069823
C162	C	-0.072957	-0.788965	0.263511
C163	C	-0.763091	-1.393929	-0.464792
C164	C	-0.429758	-1.060595	-0.131459
C165	C	-0.096425	-0.727262	0.201874
C166	C	-0.739643	-1.332191	-0.526416
C167	C	-0.406310	-0.998858	-0.193083
C168	C	-0.072976	-0.665524	0.140251
C169	C	-0.810009	-1.393955	-0.464800
C170	C	-0.476676	-1.060622	-0.131466
C171	C	-0.143342	-0.727289	0.201867
C172	C	-0.833457	-1.455693	-0.403176
C173	C	-0.500124	-1.122359	-0.069843
C174	C	-0.166790	-0.789026	0.263491
C175	C	-0.809987	-1.517403	-0.341545
C176	C	-0.476654	-1.184070	-0.008211
C177	C	-0.143321	-0.850737	0.325122
C178	C	-0.763072	-1.517369	-0.341532
C179	C	-0.429739	-1.184036	-0.008199
C180	C	-0.096405	-0.850702	0.325134
C181	C	-0.763113	-1.270481	-0.588047
C182	C	-0.429780	-0.937147	-0.254714
C183	C	-0.096446	-0.603814	0.078620
C184	C	-0.810028	-1.270519	-0.588054
C185	C	-0.476695	-0.937186	-0.254720
C186	C	-0.143362	-0.603852	0.078613
C187	C	-0.833476	-1.332256	-0.526430
C188	C	-0.500143	-0.998923	-0.193097
C189	C	-0.166810	-0.665590	0.140237
C190	C	-0.099231	-1.394007	-0.464809
C191	C	0.234103	-1.060674	-0.131475
C192	C	0.567436	-0.727341	0.201858
C193	C	-0.049296	-1.394093	-0.464838
C194	C	0.284037	-1.060760	-0.131505
C195	C	0.617370	-0.727427	0.201829
C196	C	-0.216371	-1.393865	-0.716333
C197	C	0.116962	-1.060532	-0.382999
C198	C	0.450295	-0.727199	-0.049666
C199	C	-0.216355	-1.393891	-0.823547
C200	C	0.116978	-1.060557	-0.490213
C201	C	0.450311	-0.727224	-0.156880
C202	C	-0.216415	-0.645399	-0.464762
C203	C	0.116918	-0.312066	-0.131429
C204	C	0.450251	0.021267	0.201905
C205	C	-0.216411	-0.752613	-0.464748
C206	C	0.116923	-0.419280	-0.131415
C207	C	0.450256	-0.085947	0.201919
C208	C	-0.216343	-1.393910	-0.910616
C209	C	0.116991	-1.060577	-0.577283
C210	C	0.450324	-0.727244	-0.243950
C211	C	-0.216322	-1.393938	-1.019849
C212	C	0.117011	-1.060605	-0.686516
C213	C	0.450344	-0.727271	-0.353182
C214	C	-0.216414	-1.393803	-0.214125
C215	C	0.116919	-1.060470	0.119208
C216	C	0.450252	-0.727136	0.452542
C217	C	-0.216304	-1.393965	-0.106912
C218	C	0.117030	-1.060632	0.226422
C219	C	0.450363	-0.727298	0.559755
H220	H	-0.472518	-1.505713	-0.352906
H221	H	-0.139185	-1.172380	-0.019573
H222	H	0.194149	-0.839046	0.313760
Br223	Br	-0.374669	-1.539133	-0.319415
Br224	Br	-0.041335	-1.205800	0.013918
Br225	Br	0.291998	-0.872466	0.347252
Br226	Br	-0.590484	-1.601031	-0.257848
Br227	Br	-0.257151	-1.267698	0.075486
Br228	Br	0.076182	-0.934365	0.408819
H229	H	-0.829087	-1.567669	-0.291366
H230	H	-0.495754	-1.234336	0.041968
H231	H	-0.162420	-0.901003	0.375301
Br232	Br	-0.701114	-1.186677	-0.671717
Br233	Br	-0.367780	-0.853344	-0.338384
Br234	Br	-0.034447	-0.520010	-0.005050
H235	H	-0.603268	-1.220125	-0.638225
H236	H	-0.269934	-0.886792	-0.304891
H237	H	0.063399	-0.553459	0.028442
H238	H	-0.829131	-1.220261	-0.638249
H239	H	-0.495798	-0.886928	-0.304916
H240	H	-0.162465	-0.553594	0.028417
Br241	Br	-0.485305	-1.248204	-0.609984
Br242	Br	-0.151972	-0.914871	-0.276651
Br243	Br	0.181362	-0.581537	0.056683
Br244	Br	-0.731231	-1.601122	-0.257873
Br245	Br	-0.397897	-1.267789	0.075460
Br246	Br	-0.064564	-0.934455	0.408793
H247	H	-0.387441	-1.281666	-0.576514
H248	H	-0.054108	-0.948333	-0.243181
H249	H	0.279225	-0.615000	0.090153
Br250	Br	-0.947064	-1.539523	-0.319529
Br251	Br	-0.613731	-1.206190	0.013804
Br252	Br	-0.280398	-0.872856	0.347137
H253	H	-0.744025	-1.220208	-0.638230
H254	H	-0.410692	-0.886875	-0.304897
H255	H	-0.077358	-0.553541	0.028437
H256	H	-1.044926	-1.506077	-0.353025
H257	H	-0.711593	-1.172744	-0.019692
H258	H	-0.378259	-0.839410	0.313642
Br259	Br	-1.057691	-1.248592	-0.610108
Br260	Br	-0.724358	-0.915259	-0.276774
Br261	Br	-0.391024	-0.581926	0.056559
Br262	Br	-0.947116	-1.248535	-0.610108
Br263	Br	-0.613782	-0.915202	-0.276775
Br264	Br	-0.280449	-0.581869	0.056558
H265	H	-0.688328	-1.567580	-0.291326
H266	H	-0.354994	-1.234247	0.042008
H267	H	-0.021661	-0.900913	0.375341
