data_functionalizedCrystal
_audit_creation_method	'MofGen! by Chris Wilmer'
_symmetry_space_group_name_H-M	'P1'
_symmetry_Int_Tables_number	1
_symmetry_cell_setting	triclinic
loop_
_symmetry_equiv_pos_as_xyz
  x,y,z
_cell_length_a	10.654549
_cell_length_b	10.654545
_cell_length_c	15.455446
_cell_angle_alpha	87.311869
_cell_angle_beta	92.699801
_cell_angle_gamma	84.486172
loop_
_atom_site_label
_atom_site_type_symbol
_atom_site_fract_x
_atom_site_fract_y
_atom_site_fract_z
O1	O	1.673281	0.170993	0.072146
O2	O	1.307803	0.187793	0.072142
O3	O	1.498944	-0.003346	0.072144
O4	O	1.482140	0.362132	0.072145
O5	O	1.488046	0.007516	-0.072116
O6	O	1.296905	0.198655	-0.072117
O7	O	1.662383	0.181855	-0.072113
Cu8	Cu	1.478649	0.191247	-0.085287
Cu9	Cu	1.491537	0.178401	0.085316
O10	O	1.471242	0.372994	-0.072115
C11	C	1.255556	0.191989	0.000012
C12	C	1.116113	0.188295	0.000011
C13	C	0.826131	0.409916	0.000036
C14	C	0.877669	0.525935	0.000033
C15	C	1.008686	0.529411	0.000022
C16	C	1.088170	0.416856	0.000016
C17	C	1.036633	0.300837	0.000019
C18	C	0.905611	0.297373	0.000028
C19	C	1.064576	0.072276	0.000015
C20	C	0.933558	0.068797	0.000020
C21	C	1.144060	-0.040279	0.000009
C22	C	1.092523	-0.156300	0.000006
C23	C	0.961497	-0.159772	0.000016
C24	C	0.882021	-0.047221	0.000023
C25	C	1.492261	-0.044713	0.000016
C26	C	1.488569	-0.184157	0.000021
C27	C	1.500465	-0.196008	0.157296
C28	C	1.504683	-0.267444	0.235934
C29	C	1.501214	-0.398462	0.235935
C30	C	1.493523	-0.458048	0.157290
C31	C	1.489305	-0.386612	0.078652
C32	C	1.492778	-0.255592	0.078660
C33	C	1.477400	-0.374760	-0.078621
C34	C	1.480878	-0.243742	-0.078624
C35	C	1.469708	-0.434346	-0.157266
C36	C	1.465499	-0.362911	-0.235906
C37	C	1.468970	-0.231885	-0.235904
C38	C	1.476660	-0.172307	-0.157262
C39	C	1.714630	0.177658	0.000018
C40	C	1.854074	0.181352	0.000025
C41	C	1.477925	0.414361	0.000015
C42	C	1.481618	0.553804	0.000016
N43	N	1.469594	0.200281	-0.205280
N44	N	1.500602	0.169356	0.205309
C45	C	1.550947	0.119246	0.749304
C46	C	1.544056	0.126094	0.658498
C47	C	1.455818	0.213985	0.613110
C48	C	1.374456	0.295024	0.658532
C49	C	1.381341	0.288169	0.749336
C50	C	1.426126	0.243540	0.341536
C51	C	1.419249	0.250392	0.250725
C52	C	1.588849	0.081459	0.250697
C53	C	1.595732	0.074617	0.341503
C54	C	1.514366	0.155651	0.386918
N55	N	1.448775	0.220990	0.520291
N56	N	1.521403	0.148639	0.479735
H57	H	0.775338	-0.050037	0.000024
H58	H	1.194851	0.419696	0.000017
H59	H	1.667583	0.003049	0.378456
C60	C	1.311222	0.502701	0.777328
C61	C	1.291922	0.377250	0.799264
H62	H	1.256018	0.557692	0.808156
H63	H	1.294488	0.519355	0.716761
H64	H	1.396246	0.516137	0.792206
H65	H	1.206900	0.363810	0.784380
H66	H	1.308646	0.360589	0.859844
C67	C	1.257807	0.411219	0.332430
C68	C	1.336699	0.332623	0.391448
H69	H	1.202603	0.466222	0.363248
H70	H	1.209604	0.361099	0.297015
H71	H	1.307715	0.459654	0.297010
H72	H	1.286792	0.284180	0.426864
H73	H	1.384907	0.382748	0.426878
H74	H	1.504637	-0.456624	0.299968
C75	C	0.950604	-0.361249	0.074176
C76	C	0.904855	-0.287307	0.000021
H77	H	0.915644	-0.439987	0.074175
H78	H	0.927188	-0.318650	0.124474
H79	H	1.040010	-0.375272	0.074161
H80	H	0.815450	-0.273277	0.000039
H81	H	0.928263	-0.329916	-0.050290
H82	H	1.510944	-0.218914	0.299965
C83	C	1.454881	-0.558491	-0.305737
C84	C	1.457045	-0.428408	-0.322344
H85	H	1.449671	-0.598928	-0.359102
H86	H	1.383650	-0.573442	-0.273428
H87	H	1.529869	-0.591327	-0.273427
H88	H	1.382053	-0.395571	-0.354649
H89	H	1.528283	-0.413449	-0.354666
H90	H	1.610299	0.060108	0.621520
H91	H	1.655092	0.015483	0.213712
C92	C	1.288604	0.380553	0.519350
C93	C	1.277464	0.391640	0.608643
H94	H	1.228731	0.440210	0.488554
H95	H	1.273262	0.297700	0.504466
H96	H	1.371373	0.396254	0.504471
H97	H	1.194697	0.375930	0.623523
H98	H	1.292797	0.474513	0.623534
C99	C	1.593068	-0.655687	0.114464
C100	C	1.489697	-0.602064	0.157286
H101	H	1.590698	-0.744595	0.114456
H102	H	1.669146	-0.637184	0.143510
H103	H	1.589450	-0.621659	0.056378
H104	H	1.493320	-0.636085	0.215374
H105	H	1.413600	-0.620577	0.128241
C106	C	1.717885	-0.047056	0.740145
C107	C	1.647940	0.022629	0.799190
H108	H	1.777758	-0.106711	0.770943
H109	H	1.760721	0.008410	0.704731
H110	H	1.662608	-0.090143	0.704729
H111	H	1.703216	0.065725	0.834603
H112	H	1.605102	-0.032844	0.834620
H113	H	1.347391	0.321969	0.213775
H114	H	0.719448	0.407098	0.000031
C115	C	1.344965	-0.103102	0.074158
C116	C	1.288077	-0.036457	0.000002
H117	H	1.433874	-0.100736	0.074154
H118	H	1.325651	-0.188295	0.074153
H119	H	1.313962	-0.065455	0.124460
H120	H	1.319073	-0.074110	-0.050301
H121	H	1.307401	0.048752	-0.000001
C122	C	1.145437	0.660321	0.074174
C123	C	1.065342	0.656939	0.000021
H124	H	1.180406	0.739055	0.074175
H125	H	1.211513	0.593796	0.074159
H126	H	1.098702	0.650427	0.124478
H127	H	1.112079	0.666824	-0.050284
H128	H	0.999256	0.723484	0.000028
H129	H	0.812938	0.617574	0.000041
H130	H	1.503305	-0.089328	0.157304
C131	C	1.456832	-0.233339	-0.391367
C132	C	1.464321	-0.153366	-0.322346
H133	H	1.453965	-0.184866	-0.444733
H134	H	1.382625	-0.275750	-0.388083
H135	H	1.528842	-0.293627	-0.388100
H136	H	1.392306	-0.093083	-0.325609
H137	H	1.538535	-0.110934	-0.325632
H138	H	1.466877	-0.541028	-0.157260
H139	H	1.157249	-0.247933	0.000007
H140	H	1.479492	-0.065626	-0.157252
