data_functionalizedCrystal
_audit_creation_method	'MofGen! by Chris Wilmer'
_symmetry_space_group_name_H-M	'P1'
_symmetry_Int_Tables_number	1
_symmetry_cell_setting	triclinic
loop_
_symmetry_equiv_pos_as_xyz
  x,y,z
_cell_length_a	8.559649
_cell_length_b	7.540329
_cell_length_c	9.065218
_cell_angle_alpha	89.998243
_cell_angle_beta	102.602725
_cell_angle_gamma	90.003311
loop_
_atom_site_label
_atom_site_type_symbol
_atom_site_fract_x
_atom_site_fract_y
_atom_site_fract_z
O1	O	-2.119402	-0.147483	-0.049968
O2	O	-1.619402	0.352517	0.450032
O3	O	-1.655298	-0.147484	0.026097
O4	O	-1.155298	0.352516	0.526097
O5	O	-1.896943	-0.147480	-0.227784
O6	O	-1.396943	0.352520	0.272216
O7	O	-1.877757	-0.147487	0.203912
O8	O	-1.377757	0.352513	0.703912
O9	O	-1.896928	0.147485	-0.227785
O10	O	-1.396928	0.647485	0.272215
O11	O	-1.655284	0.147481	0.026096
O12	O	-1.155284	0.647481	0.526096
O13	O	-2.119387	0.147482	-0.049969
O14	O	-1.619387	0.647482	0.450031
Cu15	Cu	-1.887334	0.174414	-0.011937
Cu16	Cu	-1.387334	0.674414	0.488063
Cu17	Cu	-1.887351	-0.174416	-0.011936
Cu18	Cu	-1.387351	0.325584	0.488064
O19	O	-1.877743	0.147478	0.203911
O20	O	-1.377743	0.647478	0.703911
C21	C	-1.595845	-0.000002	0.031861
C22	C	-1.095845	0.499998	0.531861
C23	C	-1.418713	-0.000002	0.049020
C24	C	-0.918713	0.499998	0.549020
C25	C	-1.895092	-0.000000	-0.282539
C26	C	-1.395092	0.500000	0.217461
C27	C	-1.889578	-0.000009	-0.445689
C28	C	-1.389578	0.499991	0.054311
N29	N	-1.887334	0.419762	-0.011940
N30	N	-1.387334	0.919762	0.488060
C31	C	-1.178841	-0.000001	-0.055733
C32	C	-0.678841	0.499999	0.444267
C33	C	-1.355972	-0.000002	-0.072892
C34	C	-0.855972	0.499998	0.427108
N35	N	-1.887364	-0.419765	-0.011946
N36	N	-1.387364	0.080235	0.488054
C37	C	-1.879594	-0.000006	0.258667
C38	C	-1.379594	0.499994	0.758667
C39	C	-1.885107	-0.000009	0.421817
C40	C	-1.385107	0.499991	0.921817
H41	H	-1.437769	-0.000010	-0.190393
H42	H	-0.937769	0.499990	0.309607
F43	F	-1.311794	-0.000019	0.202614
F44	F	-0.811794	0.499981	0.702614
