data_functionalizedCrystal
_audit_creation_method	'MofGen! by Chris Wilmer'
_symmetry_space_group_name_H-M	'P1'
_symmetry_Int_Tables_number	1
_symmetry_cell_setting	triclinic
loop_
_symmetry_equiv_pos_as_xyz
  x,y,z
_cell_length_a	8.597340
_cell_length_b	8.559649
_cell_length_c	8.140239
_cell_angle_alpha	90.001146
_cell_angle_beta	82.299373
_cell_angle_gamma	77.625043
loop_
_atom_site_label
_atom_site_type_symbol
_atom_site_fract_x
_atom_site_fract_y
_atom_site_fract_z
O1	O	2.053717	0.238040	-0.154094
O2	O	2.553717	0.738040	0.345906
O3	O	1.594587	0.256301	-0.089103
O4	O	2.094587	0.756301	0.410897
O5	O	1.864602	0.015200	-0.127326
O6	O	2.364602	0.515200	0.372674
O7	O	1.783702	0.479140	-0.115871
O8	O	2.283702	0.979140	0.384129
O9	O	1.864594	0.015198	-0.400552
O10	O	2.364594	0.515198	0.099448
O11	O	1.594580	0.256299	-0.362329
O12	O	2.094580	0.756299	0.137671
O13	O	2.053709	0.238038	-0.427320
O14	O	2.553709	0.738038	0.072680
Zn15	Zn	1.824143	0.247168	-0.438205
Zn16	Zn	2.324143	0.747168	0.061795
Zn17	Zn	1.824153	0.247170	-0.078218
Zn18	Zn	2.324153	0.747170	0.421782
O19	O	1.783695	0.479138	-0.389097
O20	O	2.283695	0.979138	0.110903
C21	C	1.536349	0.254338	-0.217473
C22	C	2.036349	0.754338	0.282527
C23	C	1.362831	0.248476	-0.192910
C24	C	1.862831	0.748476	0.307090
C25	C	1.870729	-0.044235	-0.264804
C26	C	2.370729	0.455765	0.235196
C27	C	1.888978	-0.221330	-0.267378
C28	C	2.388978	0.278670	0.232622
C29	C	2.111948	0.240000	-0.298947
C30	C	2.611948	0.740000	0.201053
C31	C	2.285466	0.245863	-0.323499
C32	C	2.785466	0.745863	0.176501
C33	C	1.777568	0.538573	-0.251616
C34	C	2.277568	1.038573	0.248384
C35	C	1.759319	0.715668	-0.249031
C36	C	2.259319	1.215668	0.250969
N37	N	1.824148	0.247166	-0.683888
N38	N	2.324148	0.747166	-0.183888
N39	N	1.824162	0.247160	0.167463
N40	N	2.324162	0.747160	0.667463
H41	H	1.351980	0.248100	-0.454098
H42	H	1.851980	0.748100	0.045902
O43	O	1.274738	0.245509	-0.019896
O44	O	1.774738	0.745509	0.480104
H45	H	1.147697	0.241233	-0.027091
H46	H	1.647697	0.741233	0.472909
H47	H	1.634351	-0.202787	-0.231347
H48	H	2.134351	0.297213	0.268653
H49	H	2.013954	-0.302883	-0.285082
H50	H	2.513954	0.197117	0.214918
