data_functionalizedCrystal
_audit_creation_method	'MofGen! by Chris Wilmer'
_symmetry_space_group_name_H-M	'P1'
_symmetry_Int_Tables_number	1
_symmetry_cell_setting	triclinic
loop_
_symmetry_equiv_pos_as_xyz
  x,y,z
_cell_length_a	21.395362
_cell_length_b	12.645330
_cell_length_c	21.395356
_cell_angle_alpha	90.020601
_cell_angle_beta	90.042977
_cell_angle_gamma	90.042067
loop_
_atom_site_label
_atom_site_type_symbol
_atom_site_fract_x
_atom_site_fract_y
_atom_site_fract_z
Zn1	Zn	-0.957873	0.421617	-0.354616
Zn2	Zn	-0.457873	0.921617	0.145384
Zn3	Zn	-0.957786	0.598894	-0.249852
Zn4	Zn	-0.457786	1.098894	0.250148
Zn5	Zn	-0.853090	0.421695	-0.249818
Zn6	Zn	-0.353090	0.921695	0.250182
Zn7	Zn	-0.853066	0.598888	-0.354557
Zn8	Zn	-0.353066	1.098888	0.145443
O9	O	-0.905454	0.510273	-0.302211
O10	O	-0.405454	1.010273	0.197789
O11	O	-1.045540	0.445103	-0.340759
O12	O	-0.545540	0.945103	0.159241
O13	O	-0.943871	0.575424	-0.162169
O14	O	-0.443871	1.075424	0.337831
O15	O	-0.867036	0.273337	-0.263730
O16	O	-0.367036	0.773337	0.236270
O17	O	-1.045475	0.575348	-0.263788
O18	O	-0.545475	1.075348	0.236212
O19	O	-0.944020	0.273280	-0.340725
O20	O	-0.444020	0.773280	0.159275
O21	O	-0.866952	0.445236	-0.162144
O22	O	-0.366952	0.945236	0.337856
O23	O	-0.765409	0.445229	-0.263672
O24	O	-0.265409	0.945229	0.236328
O25	O	-0.866995	0.575337	-0.442242
O26	O	-0.366995	1.075337	0.057758
O27	O	-0.765391	0.575413	-0.340623
O28	O	-0.265391	1.075413	0.159377
O29	O	-0.943997	0.445097	-0.442286
O30	O	-0.443997	0.945097	0.057714
O31	O	-0.943848	0.747241	-0.263730
O32	O	-0.443848	1.247241	0.236270
O33	O	-0.866910	0.747236	-0.340657
O34	O	-0.366910	1.247236	0.159343
C35	C	-0.742666	0.510330	-0.302138
C36	C	-0.242666	1.010330	0.197862
C37	C	-0.673025	0.510379	-0.302122
C38	C	-0.173025	1.010379	0.197878
C39	C	-0.905384	0.785703	-0.302204
C40	C	-0.405384	1.285703	0.197796
C41	C	-0.905411	0.903533	-0.302223
C42	C	-0.405411	1.403533	0.197777
C43	C	-0.905503	0.510208	-0.465634
C44	C	-0.405503	1.010208	0.034366
C45	C	-0.905524	0.510180	-0.535275
C46	C	-0.405524	1.010180	-0.035275
C47	C	-1.068877	0.510218	-0.302284
C48	C	-0.568877	1.010218	0.197716
C49	C	-1.138518	0.510194	-0.302315
C50	C	-0.638518	1.010194	0.197685
C51	C	-0.640319	0.578255	-0.342130
C52	C	-0.140319	1.078255	0.157870
C53	C	-0.574883	0.578229	-0.342158
C54	C	-0.074883	1.078229	0.157842
C55	C	-0.542156	0.510338	-0.302166
C56	C	-0.042156	1.010338	0.197834
C57	C	-0.574870	0.442449	-0.262155
C58	C	-0.074870	0.942449	0.237845
C59	C	-0.640304	0.442469	-0.262133
C60	C	-0.140304	0.942469	0.237867
C61	C	-0.438432	0.501813	-0.245761
C62	C	0.061568	1.001813	0.254239
C63	C	-0.372999	0.501800	-0.245782
C64	C	0.127001	1.001800	0.254218
C65	C	-0.340336	0.510269	-0.302236
C66	C	0.159664	1.010269	0.197764
C67	C	-0.373113	0.518773	-0.358670
C68	C	0.126887	1.018773	0.141330
C69	C	-0.438547	0.518793	-0.358647
C70	C	0.061453	1.018793	0.141353
C71	C	-0.471204	0.510308	-0.302186
C72	C	0.028796	1.010308	0.197814
C73	C	-0.236677	0.578121	-0.342278
C74	C	0.263323	1.078121	0.157722
C75	C	-0.171241	0.578087	-0.342307
C76	C	0.328759	1.078087	0.157693
C77	C	-0.171229	0.442312	-0.262298
C78	C	0.328771	0.942312	0.237702
C79	C	-0.236664	0.442340	-0.262275
C80	C	0.263336	0.942340	0.237725
C81	C	-0.269384	0.510250	-0.302264
C82	C	0.230616	1.010250	0.197736
C83	C	-0.857195	1.071138	-0.350768
C84	C	-0.357195	1.571138	0.149232
C85	C	-0.856959	0.948579	-0.350611
C86	C	-0.356959	1.448579	0.149389
C87	C	-0.887530	0.948129	-0.236186
C88	C	-0.387530	1.448129	0.263814
C89	C	-0.887225	1.070728	-0.236482
C90	C	-0.387225	1.570728	0.263518
C91	C	-0.971770	1.070593	-0.319182
C92	C	-0.471770	1.570593	0.180818
C93	C	-0.971374	0.947987	-0.320625
C94	C	-0.471374	1.447987	0.179375
C95	C	-0.905519	1.233768	-0.302233
C96	C	-0.405519	1.733768	0.197767
C97	C	-0.905490	1.115938	-0.302248
C98	C	-0.405490	1.615938	0.197752
C99	C	-0.865483	0.442383	-0.567965
C100	C	-0.365483	0.942383	-0.067965
C101	C	-0.865481	0.442364	-0.633401
C102	C	-0.365481	0.942364	-0.133401
C103	C	-0.905531	0.510129	-0.666144
C104	C	-0.405531	1.010129	-0.166144
C105	C	-0.945575	0.577939	-0.633446
C106	C	-0.445575	1.077939	-0.133446
C107	C	-0.945572	0.577964	-0.568011
C108	C	-0.445572	1.077964	-0.068011
C109	C	-0.961983	0.518437	-0.769850
C110	C	-0.461983	1.018437	-0.269850
C111	C	-0.961988	0.518405	-0.835283
C112	C	-0.461988	1.018405	-0.335283
C113	C	-0.905541	0.510058	-0.867965
C114	C	-0.405541	1.010058	-0.367965
C115	C	-0.849088	0.501721	-0.835205
C116	C	-0.349088	1.001721	-0.335205
C117	C	-0.849085	0.501746	-0.769771
C118	C	-0.349085	1.001746	-0.269771
C119	C	-0.905539	0.510110	-0.737096
C120	C	-0.405539	1.010110	-0.237096
C121	C	-0.865494	0.442236	-0.971607
C122	C	-0.365494	0.942236	-0.471607
C123	C	-0.865491	0.442224	-1.037044
C124	C	-0.365491	0.942224	-0.537044
C125	C	-0.945591	0.577794	-1.037087
C126	C	-0.445591	1.077794	-0.537087
C127	C	-0.945589	0.577812	-0.971652
C128	C	-0.445589	1.077812	-0.471652
C129	C	-0.905541	0.510027	-0.938916
C130	C	-0.405541	1.010027	-0.438916
C131	C	-0.905441	0.510262	-0.139423
C132	C	-0.405441	1.010262	0.360577
C133	C	-0.905541	0.509992	-0.069782
C134	C	-0.405541	1.009992	0.430218
H135	H	-0.666955	0.633551	-0.374693
H136	H	-0.166955	1.133551	0.125307
H137	H	-0.263294	0.387073	-0.229692
H138	H	0.236706	0.887073	0.270308
H139	H	-0.346317	0.494883	-0.199830
H140	H	0.153683	0.994883	0.300170
O141	O	-0.822299	0.369132	-0.936297
O142	O	-0.322299	0.869132	-0.436297
H143	H	-0.829030	0.380526	-0.885303
H144	H	-0.329030	0.880526	-0.385303
O145	O	-0.822304	0.369093	-1.072308
O146	O	-0.322304	0.869093	-0.572308
H147	H	-0.794463	0.321958	-1.038549
H148	H	-0.294463	0.821958	-0.538549
H149	H	-0.465232	0.525714	-0.404598
H150	H	0.034768	1.025714	0.095402
H151	H	-0.548220	0.387169	-0.229595
H152	H	-0.048220	0.887169	0.270405
H153	H	-0.984859	0.918835	-0.369225
H154	H	-0.484859	1.418835	0.130775
O155	O	-0.337895	0.527899	-0.419567
O156	O	0.162105	1.027899	0.080433
H157	H	-0.286888	0.526441	-0.410106
H158	H	0.213112	1.026441	0.089894
H159	H	-0.978181	0.633171	-0.541395
H160	H	-0.478181	1.133171	-0.041395
H161	H	-0.144612	0.633358	-0.374890
H162	H	0.355388	1.133358	0.125110
H163	H	-0.263319	0.633411	-0.374842
H164	H	0.236681	1.133411	0.125158
O165	O	-0.932652	0.909489	-0.186985
O166	O	-0.432652	1.409489	0.313015
H167	H	-0.906760	0.863875	-0.151016
H168	H	-0.406760	1.363875	0.348984
O169	O	-0.988791	0.650886	-1.072392
O170	O	-0.488791	1.150886	-0.572392
H171	H	-0.982070	0.639476	-1.123385
H172	H	-0.482070	1.139476	-0.623385
O173	O	-1.019469	1.109199	-0.272479
O174	O	-0.519469	1.609199	0.227521
H175	H	-0.996120	1.160403	-0.237361
H176	H	-0.496120	1.660403	0.262639
O177	O	-0.675580	0.369272	-0.218965
O178	O	-0.175580	0.869272	0.281035
H179	H	-0.663079	0.286088	-0.229789
H180	H	-0.163079	0.786088	0.270211
O181	O	-0.788200	0.492762	-0.734440
O182	O	-0.288200	0.992762	-0.234440
H183	H	-0.797684	0.494175	-0.683451
H184	H	-0.297684	0.994175	-0.183451
O185	O	-0.871776	0.908632	-0.415470
O186	O	-0.371776	1.408632	0.084530
H187	H	-0.871624	0.820857	-0.415423
H188	H	-0.371624	1.320857	0.084577
O189	O	-0.988790	0.650912	-0.936386
O190	O	-0.488790	1.150912	-0.436386
H191	H	-1.016646	0.698021	-0.970146
H192	H	-0.516646	1.198021	-0.470146
O193	O	-0.135942	0.369092	-0.219156
O194	O	0.364058	0.869092	0.280844
H195	H	-0.084946	0.380487	-0.225888
H196	H	0.415054	0.880487	0.274112
H197	H	-0.978184	0.633115	-0.660109
H198	H	-0.478184	1.133115	-0.160109
H199	H	-0.808365	1.102061	-0.339690
H200	H	-0.308365	1.602061	0.160310
O201	O	-0.473661	0.492681	-0.184868
O202	O	0.026339	0.992681	0.315132
H203	H	-0.439878	0.486783	-0.145630
H204	H	0.060122	0.986783	0.354370
O205	O	-0.871639	1.110605	-0.415787
O206	O	-0.371639	1.610605	0.084213
H207	H	-0.913423	1.162508	-0.414226
H208	H	-0.413423	1.662508	0.085774
H209	H	-0.920875	1.100365	-0.199097
H210	H	-0.420875	1.600365	0.300903
H211	H	-0.988075	1.101434	-0.366520
H212	H	-0.488075	1.601434	0.133480
O213	O	-0.539595	0.651482	-0.385287
O214	O	-0.039595	1.151482	0.114713
H215	H	-0.573341	0.698723	-0.413079
H216	H	-0.073341	1.198723	0.086921
H217	H	-0.807828	0.919366	-0.339389
H218	H	-0.307828	1.419366	0.160611
H219	H	-1.009258	0.917315	-0.287861
H220	H	-0.509258	1.417315	0.212139
H221	H	-0.838774	1.099440	-0.222139
H222	H	-0.338774	1.599440	0.277861
O223	O	-0.822295	0.369269	-0.532656
O224	O	-0.322295	0.869269	-0.032656
H225	H	-0.794451	0.322123	-0.566385
H226	H	-0.294451	0.822123	-0.066385
O227	O	-0.824026	0.907624	-0.216838
O228	O	-0.324026	1.407624	0.283162
H229	H	-0.805097	0.855746	-0.254145
H230	H	-0.305097	1.355746	0.245855
H231	H	-0.832875	0.387150	-0.660022
H232	H	-0.332875	0.887150	-0.160022
O233	O	-0.788203	0.492721	-0.870450
O234	O	-0.288203	0.992721	-0.370450
H235	H	-0.764854	0.417304	-0.857888
H236	H	-0.264854	0.917304	-0.357888
H237	H	-1.007955	0.525188	-0.861950
H238	H	-0.507955	1.025188	-0.361950
O239	O	-1.022863	0.527473	-0.734594
O240	O	-0.522863	1.027473	-0.234594
H241	H	-1.029280	0.456483	-0.704780
H242	H	-0.529280	0.956483	-0.204780
