data_functionalizedCrystal
_audit_creation_method	'MofGen! by Chris Wilmer'
_symmetry_space_group_name_H-M	'P1'
_symmetry_Int_Tables_number	1
_symmetry_cell_setting	triclinic
loop_
_symmetry_equiv_pos_as_xyz
  x,y,z
_cell_length_a	16.109295
_cell_length_b	10.868271
_cell_length_c	16.109301
_cell_angle_alpha	89.993636
_cell_angle_beta	96.539666
_cell_angle_gamma	90.002028
loop_
_atom_site_label
_atom_site_type_symbol
_atom_site_fract_x
_atom_site_fract_y
_atom_site_fract_z
O1	O	-1.103135	-0.102242	0.106845
O2	O	-0.853135	0.147758	0.356845
O3	O	-0.603135	0.397758	0.606845
O4	O	-0.353135	0.647758	0.856845
O5	O	-0.861073	-0.102264	0.120149
O6	O	-0.611073	0.147736	0.370149
O7	O	-0.361073	0.397736	0.620149
O8	O	-0.111073	0.647736	0.870149
O9	O	-0.988754	-0.102240	-0.007534
O10	O	-0.738754	0.147760	0.242466
O11	O	-0.488754	0.397760	0.492466
O12	O	-0.238754	0.647760	0.742466
O13	O	-0.975454	-0.102266	0.234528
O14	O	-0.725454	0.147734	0.484528
O15	O	-0.475454	0.397734	0.734528
O16	O	-0.225454	0.647734	0.984528
O17	O	-0.988742	0.102405	-0.007538
O18	O	-0.738742	0.352405	0.242462
O19	O	-0.488742	0.602405	0.492462
O20	O	-0.238742	0.852405	0.742462
O21	O	-0.861061	0.102381	0.120145
O22	O	-0.611061	0.352381	0.370145
O23	O	-0.361061	0.602381	0.620145
O24	O	-0.111061	0.852381	0.870145
O25	O	-1.103123	0.102402	0.106841
O26	O	-0.853123	0.352402	0.356841
O27	O	-0.603123	0.602402	0.606841
O28	O	-0.353123	0.852402	0.856841
Zn29	Zn	-0.982090	0.134883	0.113492
Zn30	Zn	-0.732090	0.384883	0.363492
Zn31	Zn	-0.482090	0.634883	0.613492
Zn32	Zn	-0.232090	0.884883	0.863492
Zn33	Zn	-0.982106	-0.134745	0.113498
Zn34	Zn	-0.732106	0.115255	0.363498
Zn35	Zn	-0.482106	0.365255	0.613498
Zn36	Zn	-0.232106	0.615255	0.863498
O37	O	-0.975442	0.102378	0.234524
O38	O	-0.725442	0.352378	0.484524
O39	O	-0.475442	0.602378	0.734524
O40	O	-0.225442	0.852378	0.984524
C41	C	-0.830092	0.000056	0.119609
C42	C	-0.580092	0.250056	0.369609
C43	C	-0.330092	0.500056	0.619609
C44	C	-0.080092	0.750056	0.869609
C45	C	-0.737796	0.000048	0.117996
C46	C	-0.487796	0.250048	0.367996
C47	C	-0.237796	0.500048	0.617996
C48	C	0.012204	0.750048	0.867996
N49	N	-0.982085	0.318897	0.113488
N50	N	-0.732085	0.568897	0.363488
N51	N	-0.482085	0.818897	0.613488
N52	N	-0.232085	1.068897	0.863488
C53	C	-0.515523	0.000054	0.190008
C54	C	-0.265523	0.250054	0.440008
C55	C	-0.015523	0.500054	0.690008
C56	C	0.234477	0.750054	0.940008
C57	C	-0.428803	0.000061	0.188486
C58	C	-0.178803	0.250061	0.438486
C59	C	0.071197	0.500061	0.688486
C60	C	0.321197	0.750061	0.938486
C61	C	-0.448677	0.000072	0.036996
C62	C	-0.198677	0.250072	0.286996
C63	C	0.051323	0.500072	0.536996
C64	C	0.301323	0.750072	0.786996
C65	C	-0.535396	0.000074	0.038520
C66	C	-0.285396	0.250074	0.288520
C67	C	-0.035396	0.500074	0.538520
C68	C	0.214604	0.750074	0.788520
C69	C	-0.568816	0.000058	0.115028
C70	C	-0.318816	0.250058	0.365028
C71	C	-0.068816	0.500058	0.615028
C72	C	0.181184	0.750058	0.865028
C73	C	-0.395377	0.000064	0.111982
C74	C	-0.145377	0.250064	0.361982
C75	C	0.104623	0.500064	0.611982
C76	C	0.354623	0.750064	0.861982
C77	C	-0.301351	0.000073	0.110331
C78	C	-0.051351	0.250073	0.360331
C79	C	0.198649	0.500073	0.610331
C80	C	0.448649	0.750073	0.860331
C81	C	-0.662849	0.000052	0.116679
C82	C	-0.412849	0.250052	0.366679
C83	C	-0.162849	0.500052	0.616679
C84	C	0.087151	0.750052	0.866679
C85	C	-0.982096	0.569903	0.113498
C86	C	-0.732096	0.819903	0.363498
C87	C	-0.482096	1.069903	0.613498
C88	C	-0.232096	1.319903	0.863498
C89	C	-0.982087	0.430226	0.113495
C90	C	-0.732087	0.680226	0.363495
C91	C	-0.482087	0.930226	0.613495
C92	C	-0.232087	1.180226	0.863495
C93	C	-0.134104	0.000078	0.107386
C94	C	0.115896	0.250078	0.357386
C95	C	0.365896	0.500078	0.607386
C96	C	0.615896	0.750078	0.857386
C97	C	-0.226397	0.000074	0.109014
C98	C	0.023603	0.250074	0.359014
C99	C	0.273603	0.500074	0.609014
C100	C	0.523603	0.750074	0.859014
C101	C	-0.988209	0.000083	-0.038511
C102	C	-0.738209	0.250083	0.211489
C103	C	-0.488209	0.500083	0.461489
C104	C	-0.238209	0.750083	0.711489
C105	C	-0.986594	0.000085	-0.130806
C106	C	-0.736594	0.250085	0.119194
C107	C	-0.486594	0.500085	0.369194
C108	C	-0.236594	0.750085	0.619194
N109	N	-0.982109	0.681241	0.113499
N110	N	-0.732109	0.931241	0.363499
N111	N	-0.482109	1.181241	0.613499
N112	N	-0.232109	1.431241	0.863499
C113	C	-1.058602	0.000071	-0.353080
C114	C	-0.808602	0.250071	-0.103080
C115	C	-0.558602	0.500071	0.146920
C116	C	-0.308602	0.750071	0.396920
C117	C	-1.057078	0.000061	-0.439800
C118	C	-0.807078	0.250061	-0.189800
C119	C	-0.557078	0.500061	0.060200
C120	C	-0.307078	0.750061	0.310200
C121	C	-0.905588	0.000053	-0.419923
C122	C	-0.655588	0.250053	-0.169923
C123	C	-0.405588	0.500053	0.080077
C124	C	-0.155588	0.750053	0.330077
C125	C	-0.907113	0.000054	-0.333204
C126	C	-0.657113	0.250054	-0.083204
C127	C	-0.407113	0.500054	0.166796
C128	C	-0.157113	0.750054	0.416796
C129	C	-0.983622	0.000070	-0.299785
C130	C	-0.733622	0.250070	-0.049785
C131	C	-0.483622	0.500070	0.200215
C132	C	-0.233622	0.750070	0.450215
C133	C	-0.980573	0.000058	-0.473225
C134	C	-0.730573	0.250058	-0.223225
C135	C	-0.480573	0.500058	0.026775
C136	C	-0.230573	0.750058	0.276775
C137	C	-0.978920	0.000047	-0.567251
C138	C	-0.728920	0.250047	-0.317251
C139	C	-0.478920	0.500047	-0.067251
C140	C	-0.228920	0.750047	0.182749
C141	C	-0.985276	0.000079	-0.205754
C142	C	-0.735276	0.250079	0.044246
C143	C	-0.485276	0.500079	0.294246
C144	C	-0.235276	0.750079	0.544246
C145	C	-0.975987	0.000053	0.265501
C146	C	-0.725987	0.250053	0.515501
C147	C	-0.475987	0.500053	0.765501
C148	C	-0.225987	0.750053	1.015501
C149	C	-0.977602	0.000043	0.357796
C150	C	-0.727602	0.250043	0.607796
C151	C	-0.477602	0.500043	0.857796
C152	C	-0.227602	0.750043	1.107796
H153	H	-0.542731	0.000050	0.252306
H154	H	-0.292731	0.250050	0.502306
H155	H	-0.042731	0.500050	0.752306
H156	H	0.207269	0.750050	1.002306
H157	H	-1.118133	0.000060	-0.483190
H158	H	-0.868133	0.250060	-0.233190
H159	H	-0.618133	0.500060	0.016810
H160	H	-0.368133	0.750060	0.266810
Cl161	Cl	-0.361808	0.000057	0.282751
Cl162	Cl	-0.111808	0.250057	0.532751
Cl163	Cl	0.138192	0.500057	0.782751
Cl164	Cl	0.388192	0.750057	1.032751
H165	H	-0.846052	0.000049	-0.289809
H166	H	-0.596052	0.250049	-0.039809
H167	H	-0.346052	0.500049	0.210191
H168	H	-0.096052	0.750049	0.460191
H169	H	-0.421455	0.000093	-0.025294
H170	H	-0.171455	0.250093	0.224706
H171	H	0.078545	0.500093	0.474706
H172	H	0.328545	0.750093	0.724706
Cl173	Cl	-0.602398	0.000089	-0.055749
Cl174	Cl	-0.352398	0.250089	0.194251
Cl175	Cl	-0.102398	0.500089	0.444251
Cl176	Cl	0.147602	0.750089	0.694251
H177	H	-1.120900	0.000082	-0.325874
H178	H	-0.870900	0.250082	-0.075874
H179	H	-0.620900	0.500082	0.174126
H180	H	-0.370900	0.750082	0.424126
H181	H	-0.843297	0.000042	-0.447144
H182	H	-0.593297	0.250042	-0.197144
H183	H	-0.343297	0.500042	0.052856
H184	H	-0.093297	0.750042	0.302856
