data_functionalizedCrystal
_audit_creation_method	'MofGen! by Chris Wilmer'
_symmetry_space_group_name_H-M	'P1'
_symmetry_Int_Tables_number	1
_symmetry_cell_setting	triclinic
loop_
_symmetry_equiv_pos_as_xyz
  x,y,z
_cell_length_a	16.120531
_cell_length_b	18.215407
_cell_length_c	18.215399
_cell_angle_alpha	89.985401
_cell_angle_beta	87.133706
_cell_angle_gamma	87.061810
loop_
_atom_site_label
_atom_site_type_symbol
_atom_site_fract_x
_atom_site_fract_y
_atom_site_fract_z
Zn1	Zn	0.331782	1.110184	-0.430835
Zn2	Zn	0.471204	1.103836	-0.313997
Zn3	Zn	0.331823	0.987114	-0.307795
Zn4	Zn	0.471171	0.980827	-0.437032
O5	O	0.401495	1.045490	-0.372415
O6	O	0.350273	1.212326	-0.415338
O7	O	0.452745	1.088327	-0.210192
O8	O	0.215151	1.008728	-0.318928
O9	O	0.452706	1.207662	-0.329498
O10	O	0.215120	1.099146	-0.409325
O11	O	0.350343	1.002572	-0.205635
O12	O	0.350311	0.883296	-0.324937
O13	O	0.452650	0.998012	-0.539193
O14	O	0.452690	0.878677	-0.419886
O15	O	0.350241	1.093050	-0.534640
O16	O	0.587866	1.082230	-0.335507
O17	O	0.587842	0.991856	-0.425900
C18	C	0.618104	1.035692	-0.382065
C19	C	0.710771	1.031568	-0.386218
C20	C	0.401502	0.854283	-0.372412
C21	C	0.401525	0.772484	-0.372429
C22	C	0.401437	1.045538	-0.564365
C23	C	0.401413	1.045558	-0.646163
C24	C	0.880434	1.024042	-0.393815
C25	C	0.921715	1.066965	-0.350973
C26	C	1.016122	1.062778	-0.355200
C27	C	0.786019	1.028229	-0.389589
C28	C	1.184039	1.055320	-0.362730
C29	C	1.091373	1.059442	-0.358568
C30	C	0.401488	1.237443	-0.372419
C31	C	0.401485	1.319242	-0.372420
C32	C	0.348173	1.509865	-0.417117
C33	C	0.348181	1.586723	-0.417120
C34	C	0.454844	1.581855	-0.327730
C35	C	0.454839	1.504998	-0.327731
C36	C	0.401499	1.469005	-0.372423
C37	C	0.401511	1.622721	-0.372425
C38	C	0.401520	1.706054	-0.372429
C39	C	0.401491	1.385667	-0.372421
C40	C	0.348039	1.095063	-0.831986
C41	C	0.348014	1.095073	-0.908843
C42	C	0.454658	0.996110	-0.913573
C43	C	0.454678	0.996097	-0.836717
C44	C	0.401369	1.045578	-0.795925
C45	C	0.401325	1.045601	-0.949639
C46	C	0.401299	1.045611	-1.032972
C47	C	0.401394	1.045567	-0.712587
C48	C	0.401492	1.045488	-0.181209
C49	C	0.401281	1.045621	-0.099401
H50	H	0.886156	1.106857	-0.311120
H51	H	0.498062	0.955827	-0.946795
N52	N	0.927526	0.971200	-0.446601
H53	H	0.989268	0.975663	-0.442171
H54	H	0.912428	0.919305	-0.434433
H55	H	0.304740	1.480562	-0.453508
H56	H	0.304758	1.619988	-0.453515
H57	H	0.498105	0.955796	-0.807355
N58	N	0.512366	1.620674	-0.279520
H59	H	0.550995	1.650821	-0.311140
H60	H	0.478432	1.654048	-0.243917
N61	N	0.512361	1.460921	-0.279526
H62	H	0.546148	1.495384	-0.251210
H63	H	0.478431	1.430562	-0.243963
H64	H	0.304629	1.135351	-0.798775
H65	H	0.304586	1.135367	-0.938200
