data_functionalizedCrystal
_audit_creation_method	'MofGen! by Chris Wilmer'
_symmetry_space_group_name_H-M	'P1'
_symmetry_Int_Tables_number	1
_symmetry_cell_setting	triclinic
loop_
_symmetry_equiv_pos_as_xyz
  x,y,z
_cell_length_a	10.654550
_cell_length_b	12.503572
_cell_length_c	10.654550
_cell_angle_alpha	93.557511
_cell_angle_beta	95.515069
_cell_angle_gamma	93.549232
loop_
_atom_site_label
_atom_site_type_symbol
_atom_site_fract_x
_atom_site_fract_y
_atom_site_fract_z
O1	O	1.675014	0.089240	-0.169203
O2	O	2.175014	0.589240	0.330797
O3	O	1.309537	0.089259	-0.186007
O4	O	1.809537	0.589259	0.313993
O5	O	1.500678	0.089242	0.005133
O6	O	2.000678	0.589242	0.505133
O7	O	1.483873	0.089257	-0.360344
O8	O	1.983873	0.589257	0.139656
O9	O	1.486303	-0.089398	-0.009266
O10	O	1.986303	0.410602	0.490734
O11	O	1.295162	-0.089381	-0.200406
O12	O	1.795162	0.410619	0.299594
O13	O	1.660639	-0.089401	-0.183602
O14	O	2.160639	0.410599	0.316398
Cu15	Cu	1.476588	-0.105702	-0.193319
Cu16	Cu	1.976588	0.394298	0.306681
Cu17	Cu	1.493588	0.105561	-0.176291
Cu18	Cu	1.993588	0.605561	0.323709
O19	O	1.469498	-0.089384	-0.374743
O20	O	1.969498	0.410616	0.125257
C21	C	1.255552	-0.000058	-0.191973
C22	C	1.755552	0.499942	0.308027
C23	C	1.116109	-0.000051	-0.188280
C24	C	1.616109	0.499949	0.311720
N25	N	1.464640	-0.254294	-0.205295
N26	N	1.964640	0.245706	0.294705
C27	C	1.036624	-0.000050	-0.300822
C28	C	1.536624	0.499950	0.199178
C29	C	0.905601	-0.000068	-0.297347
C30	C	1.405601	0.499932	0.202653
C31	C	0.933563	-0.000086	-0.068779
C32	C	1.433563	0.499914	0.431221
C33	C	1.064582	-0.000074	-0.072256
C34	C	1.564582	0.499926	0.427744
C35	C	1.447065	-0.473407	-0.222923
C36	C	1.947065	0.026593	0.277077
C37	C	1.523117	-0.526741	-0.146681
C38	C	2.023117	-0.026741	0.353319
C39	C	1.513337	-0.648663	-0.156489
C40	C	2.013337	-0.148663	0.343511
C41	C	1.456843	-0.351474	-0.213116
C42	C	1.956843	0.148526	0.286884
C43	C	1.714624	-0.000081	-0.177636
C44	C	2.214624	0.499919	0.322364
C45	C	1.854068	-0.000081	-0.181328
C46	C	2.354068	0.499919	0.318672
C47	C	1.492256	-0.000077	0.044732
C48	C	1.992256	0.499923	0.544732
C49	C	1.488565	-0.000075	0.184175
C50	C	1.988565	0.499925	0.684175
N51	N	1.505545	0.254152	-0.164304
N52	N	2.005545	0.754152	0.335696
C53	C	1.477920	-0.000062	-0.414341
C54	C	1.977920	0.499938	0.085659
C55	C	1.481612	-0.000057	-0.553784
C56	C	1.981612	0.499943	-0.053784
C57	C	1.601106	-0.000081	0.263661
C58	C	2.101106	0.499919	0.763661
C59	C	1.597630	-0.000068	0.394682
C60	C	2.097630	0.499932	0.894682
C61	C	1.369063	-0.000048	0.366721
C62	C	1.869063	0.499952	0.866721
C63	C	1.372540	-0.000053	0.235702
C64	C	1.872540	0.499947	0.735702
H65	H	1.078571	-0.000039	-0.395297
H66	H	1.578571	0.499961	0.104703
F67	F	1.352370	-0.533404	-0.317866
F68	F	1.852370	-0.033404	0.182134
H69	H	1.595571	-0.480835	-0.074042
H70	H	2.095571	0.019165	0.425958
F71	F	1.724589	-0.000103	0.208826
F72	F	2.224589	0.499897	0.708826
H73	H	0.840888	-0.000070	-0.388990
H74	H	1.340888	0.499930	0.111010
H75	H	0.891593	-0.000111	0.025684
H76	H	1.391593	0.499889	0.525684
H77	H	1.689273	-0.000070	0.459395
H78	H	2.189273	0.499930	0.959395
H79	H	1.274599	-0.000032	0.408690
H80	H	1.774599	0.499968	0.908690
H81	H	1.280890	-0.000045	0.170982
H82	H	1.780890	0.499955	0.670982
H83	H	1.129303	-0.000079	0.019395
H84	H	1.629303	0.499921	0.519395
