data_functionalizedCrystal
_audit_creation_method	'MofGen! by Chris Wilmer'
_symmetry_space_group_name_H-M	'P1'
_symmetry_Int_Tables_number	1
_symmetry_cell_setting	triclinic
loop_
_symmetry_equiv_pos_as_xyz
  x,y,z
_cell_length_a	14.853558
_cell_length_b	14.853567
_cell_length_c	12.376457
_cell_angle_alpha	101.296114
_cell_angle_beta	78.691789
_cell_angle_gamma	83.633032
loop_
_atom_site_label
_atom_site_type_symbol
_atom_site_fract_x
_atom_site_fract_y
_atom_site_fract_z
O1	O	1.213634	0.100409	-0.093983
O2	O	0.951174	0.114439	-0.093987
O3	O	1.089415	-0.023807	-0.093988
O4	O	1.075392	0.238655	-0.093981
O5	O	1.054867	0.010708	0.094024
O6	O	0.916626	0.148953	0.094026
O7	O	1.179086	0.134924	0.094030
Zn8	Zn	1.042370	0.147418	0.123879
Zn9	Zn	1.087889	0.101944	-0.123836
O10	O	1.040844	0.273169	0.094031
C11	C	0.900311	0.131062	0.000019
C12	C	0.800227	0.129161	0.000017
C13	C	1.071506	-0.040139	0.000015
C14	C	1.069604	-0.140224	0.000005
C15	C	0.772040	0.109455	-0.102473
C16	C	0.734373	0.147073	0.102505
C17	C	0.640339	0.145283	0.102507
C18	C	0.612151	0.125577	0.000017
C19	C	0.677998	0.107661	-0.102474
C20	C	0.574486	0.163189	0.204997
C21	C	0.480446	0.161398	0.205003
C22	C	0.452257	0.141699	0.102512
C23	C	0.518110	0.123783	0.000016
C24	C	0.489922	0.104078	-0.102474
C25	C	0.555773	0.086169	-0.204971
C26	C	0.649809	0.087962	-0.204966
C27	C	0.358221	0.139906	0.102506
C28	C	0.395881	0.102284	-0.102475
C29	C	0.979434	-0.552751	0.000025
C30	C	1.143668	-0.574037	0.000028
C31	C	1.145459	-0.480005	0.000021
C32	C	1.064236	-0.422341	0.000018
C33	C	0.981223	-0.458709	0.000022
C34	C	1.228469	-0.443627	0.000029
C35	C	1.230263	-0.349589	0.000023
C36	C	1.149042	-0.291925	0.000013
C37	C	1.066025	-0.328299	0.000015
C38	C	0.984802	-0.270635	0.000012
C39	C	0.901786	-0.307008	0.000007
C40	C	0.900001	-0.401045	0.000011
C41	C	1.150827	-0.197888	0.000008
C42	C	0.986591	-0.176593	0.000009
C43	C	1.229949	0.118300	0.000022
C44	C	1.330034	0.120200	0.000016
C45	C	1.058753	0.289501	0.000026
C46	C	1.060657	0.389585	0.000028
N47	N	1.011312	0.178452	0.292937
N48	N	1.118955	0.070903	-0.292894
C49	C	1.191052	-0.001155	0.647921
C50	C	1.212785	-0.022876	0.529581
C51	C	1.162418	0.027454	0.470414
C52	C	1.090315	0.099509	0.529599
C53	C	1.068585	0.121237	0.647951
C54	C	1.039951	0.149846	0.470444
C55	C	0.967848	0.221901	0.529629
C56	C	0.946121	0.243625	0.647969
C57	C	0.996488	0.193295	0.707136
C58	C	1.061682	0.128118	0.352092
C59	C	0.939215	0.250510	0.352122
C60	C	0.917482	0.272231	0.470462
H61	H	0.372939	0.086243	-0.185936
H62	H	1.180116	0.009765	0.374056
Br63	Br	0.791557	-0.228737	0.000017
H64	H	0.978791	0.210977	0.803498
H65	H	0.532812	0.070119	-0.288418
H66	H	1.271491	-0.081542	0.481397
H67	H	0.304609	0.154495	0.185958
Br68	Br	0.787348	-0.450416	-0.000004
H69	H	0.887418	0.302304	0.696158
Br70	Br	0.612745	0.189932	0.344082
H71	H	0.858774	0.330901	0.518666
H72	H	0.898203	0.291496	0.303950
H73	H	1.232058	-0.042123	0.696102
Br74	Br	0.866778	-0.602114	0.000002
H75	H	0.426837	0.175980	0.288462
H76	H	1.294594	-0.490582	0.000042
H77	H	0.920449	-0.129649	0.000002
H78	H	0.703432	0.073380	-0.288413
H79	H	1.209793	-0.620991	0.000039
Br80	Br	1.342928	-0.300236	0.000014
H81	H	1.218416	-0.168275	0.000020
H82	H	1.120388	0.069451	0.303914
H83	H	0.825659	0.094877	-0.185924
H84	H	0.757330	0.163109	0.185948
