data_functionalizedCrystal
_audit_creation_method	'MofGen! by Chris Wilmer'
_symmetry_space_group_name_H-M	'P1'
_symmetry_Int_Tables_number	1
_symmetry_cell_setting	triclinic
loop_
_symmetry_equiv_pos_as_xyz
  x,y,z
_cell_length_a	13.635800
_cell_length_b	11.168121
_cell_length_c	11.168136
_cell_angle_alpha	87.979826
_cell_angle_beta	108.508683
_cell_angle_gamma	71.491504
loop_
_atom_site_label
_atom_site_type_symbol
_atom_site_fract_x
_atom_site_fract_y
_atom_site_fract_z
V1	V	2.054941	-0.174724	0.393710
O2	O	2.034733	0.008377	0.386204
O3	O	2.043085	-0.346429	0.391027
O4	O	2.043086	-0.172045	0.565415
O5	O	2.034732	-0.167215	0.210609
V6	V	2.293556	-0.152822	0.371808
O7	O	2.192473	-0.222767	0.441753
O8	O	2.381123	-0.104778	0.323765
O9	O	2.193809	0.018883	0.374490
O10	O	2.372462	-0.335922	0.379314
O11	O	2.372463	-0.160331	0.554909
O12	O	2.193807	-0.155501	0.200102
V13	V	2.554941	-0.174724	0.393710
O14	O	2.534733	0.008377	0.386204
O15	O	2.543085	-0.346429	0.391027
O16	O	2.543086	-0.172045	0.565415
O17	O	2.534732	-0.167215	0.210609
V18	V	2.793556	-0.152822	0.371808
O19	O	2.692473	-0.222767	0.441753
O20	O	2.881123	-0.104778	0.323765
O21	O	2.693809	0.018883	0.374490
O22	O	2.872462	-0.335922	0.379314
O23	O	2.872463	-0.160331	0.554909
O24	O	2.693807	-0.155501	0.200102
C25	C	1.968189	-0.388286	0.384819
C26	C	1.999220	-0.528658	0.383771
C27	C	2.100475	-0.597350	0.389292
C28	C	2.132550	-0.742432	0.388208
C29	C	1.968190	-0.165840	0.607267
C30	C	1.999221	-0.164786	0.747637
C31	C	2.100376	0.060735	0.380695
C32	C	2.058964	0.201105	0.381752
C33	C	2.100375	-0.161709	0.158244
C34	C	2.058962	-0.162757	0.017873
C35	C	2.468189	-0.388286	0.384819
C36	C	2.499220	-0.528658	0.383771
C37	C	2.468190	-0.165840	0.607267
C38	C	2.499221	-0.164786	0.747637
C39	C	2.100475	-0.170305	0.816329
C40	C	2.132549	-0.169216	0.961409
C41	C	2.600376	0.060735	0.380695
C42	C	2.558964	0.201105	0.381752
C43	C	2.600375	-0.161709	0.158244
C44	C	2.558962	-0.162757	0.017873
C45	C	2.600475	-0.597350	0.389292
C46	C	2.632550	-0.742432	0.388208
C47	C	2.600475	-0.170305	0.816329
C48	C	2.632549	-0.169216	0.961409
H49	H	2.163418	-0.548754	0.394828
O50	O	1.955404	-0.156956	0.947541
C51	C	1.878098	-0.042999	0.958578
H52	H	1.915847	-0.007423	1.050487
H53	H	1.854640	0.032494	0.873260
C54	C	1.727982	-0.112247	0.848846
C55	C	1.774344	-0.068558	0.961736
H56	H	1.663979	-0.128010	0.850789
H57	H	1.780064	-0.189020	0.841406
H58	H	1.708443	-0.049329	0.777760
H59	H	1.793894	-0.131482	1.032819
H60	H	1.722262	0.008204	0.969189
H61	H	1.936276	-0.159246	0.796233
H62	H	2.436276	-0.159246	0.796233
O63	O	2.455558	-0.157324	0.947355
C64	C	2.461684	-0.267424	0.887868
H65	H	2.546698	-0.309651	0.879518
H66	H	2.447376	-0.340871	0.947481
C67	C	2.268446	-0.179575	0.763896
C68	C	2.372859	-0.231432	0.753630
H69	H	2.213653	-0.157376	0.681094
H70	H	2.264318	-0.105399	0.803976
H71	H	2.256539	-0.240789	0.813578
H72	H	2.384771	-0.170213	0.703962
H73	H	2.376988	-0.305596	0.713538
H74	H	1.972220	-0.739852	0.377021
H75	H	1.936281	-0.577256	0.378248
O76	O	2.236105	-0.175085	1.031830
C77	C	2.313395	-0.289017	1.020717
H78	H	2.271419	-0.362391	0.992588
H79	H	2.347511	-0.268686	0.944394
C80	C	2.459994	-0.251699	1.184221
C81	C	2.408440	-0.341822	1.149684
H82	H	2.518626	-0.284270	1.263771
H83	H	2.407924	-0.174938	1.191705
H84	H	2.488415	-0.234765	1.120608
H85	H	2.380008	-0.358742	1.213287
H86	H	2.460508	-0.418587	1.142213
O87	O	2.675471	-0.539288	0.395659
C88	C	2.635609	-0.446207	0.286748
H89	H	2.572405	-0.470417	0.206088
H90	H	2.595119	-0.348430	0.310636
C91	C	2.809769	-0.414169	0.343540
C92	C	2.732148	-0.443911	0.244468
H93	H	2.869318	-0.412747	0.317462
H94	H	2.836624	-0.476876	0.416918
H95	H	2.776013	-0.332691	0.363437
H96	H	2.765900	-0.525393	0.224584
H97	H	2.705300	-0.381217	0.171085
H98	H	2.719291	-0.173947	1.020461
H99	H	2.219287	-0.801480	0.392921
O100	O	2.423984	-0.586451	0.376999
C101	C	2.332496	-0.533285	0.263518
H102	H	2.327906	-0.433589	0.229389
H103	H	2.341848	-0.596392	0.186910
C104	C	2.231768	-0.647080	0.331061
C105	C	2.226124	-0.524628	0.289150
H106	H	2.166152	-0.641745	0.346869
H107	H	2.293406	-0.682904	0.407514
H108	H	2.239564	-0.699657	0.267215
H109	H	2.218342	-0.472059	0.353002
H110	H	2.164482	-0.488795	0.212708
H111	H	2.719287	-0.801480	0.392921
H112	H	2.663414	-0.175828	0.767731
H113	H	2.472220	-0.739852	0.377021
H114	H	2.163414	-0.175828	0.767731
