data_functionalizedCrystal
_audit_creation_method	'MofGen! by Chris Wilmer'
_symmetry_space_group_name_H-M	'P1'
_symmetry_Int_Tables_number	1
_symmetry_cell_setting	triclinic
loop_
_symmetry_equiv_pos_as_xyz
  x,y,z
_cell_length_a	12.759395
_cell_length_b	18.215405
_cell_length_c	18.215399
_cell_angle_alpha	90.030551
_cell_angle_beta	89.982699
_cell_angle_gamma	89.973578
loop_
_atom_site_label
_atom_site_type_symbol
_atom_site_fract_x
_atom_site_fract_y
_atom_site_fract_z
Zn1	Zn	1.606161	0.292962	-0.416053
Zn2	Zn	1.606030	0.416033	-0.292981
Zn3	Zn	1.430469	0.292988	-0.293006
Zn4	Zn	1.430420	0.415994	-0.416011
O5	O	1.518270	0.354494	-0.354513
O6	O	1.753165	0.309292	-0.399734
O7	O	1.582707	0.399738	-0.190000
O8	O	1.453850	0.190000	-0.309356
O9	O	1.753069	0.399712	-0.309314
O10	O	1.582930	0.189981	-0.399758
O11	O	1.453723	0.309337	-0.190018
O12	O	1.283442	0.309300	-0.309316
O13	O	1.453767	0.399647	-0.519001
O14	O	1.283406	0.399672	-0.399687
O15	O	1.582883	0.309255	-0.519032
O16	O	1.582660	0.519012	-0.309274
O17	O	1.453640	0.518984	-0.399663
C18	C	1.518159	0.545701	-0.354477
C19	C	1.518208	0.627499	-0.354487
C20	C	1.245303	0.354485	-0.354500
C21	C	1.128526	0.354499	-0.354512
C22	C	1.518334	0.354444	-0.546466
C23	C	1.518361	0.354422	-0.628265
C24	C	1.128527	0.448756	-0.448464
C25	C	1.073667	0.495890	-0.495442
C26	C	0.963946	0.495899	-0.495451
C27	C	0.909082	0.448767	-0.448478
C28	C	0.963942	0.401633	-0.401500
C29	C	1.073666	0.401631	-0.401495
C30	C	0.963940	0.307374	-0.307553
C31	C	1.073662	0.307367	-0.307540
C32	C	0.909076	0.260242	-0.260581
C33	C	0.963937	0.213110	-0.213598
C34	C	1.073665	0.213104	-0.213590
C35	C	1.128522	0.260233	-0.260562
C36	C	1.792304	0.354504	-0.354526
C37	C	1.909080	0.354508	-0.354531
C38	C	1.518410	0.162541	-0.354564
C39	C	1.518470	0.080742	-0.354586
C40	C	1.585546	0.815684	-0.307507
C41	C	1.585593	0.892542	-0.307525
C42	C	1.451129	0.892553	-0.401571
C43	C	1.451088	0.815695	-0.401556
C44	C	1.518295	0.777263	-0.354520
C45	C	1.518383	0.930979	-0.354553
C46	C	1.518433	1.014313	-0.354572
C47	C	1.518246	0.693924	-0.354501
C48	C	1.585616	0.307311	-0.816476
C49	C	1.585629	0.307290	-0.893335
C50	C	1.451181	0.401419	-0.893291
C51	C	1.451164	0.401436	-0.816434
C52	C	1.518388	0.354383	-0.778028
C53	C	1.518417	0.354345	-0.931744
C54	C	1.518430	0.354322	-1.015078
C55	C	1.518373	0.354405	-0.694689
C56	C	1.518267	0.354492	-0.163306
C57	C	1.518443	0.354306	-0.081508
H58	H	1.217868	0.448759	-0.448456
C59	C	1.134002	0.161251	-0.161910
N60	N	1.179445	0.122196	-0.122982
C61	C	1.134025	0.547736	-0.547106
N62	N	1.179485	0.586786	-0.586019
H63	H	1.217863	0.260235	-0.260558
C64	C	1.377124	0.773430	-0.453292
N65	N	1.321425	0.741596	-0.492264
C66	C	1.659482	0.773411	-0.255771
N67	N	1.715175	0.741572	-0.216803
C68	C	1.659571	0.934802	-0.255804
N69	N	1.715293	0.966631	-0.216845
H70	H	1.640372	0.268957	-0.924635
C71	C	1.377193	0.934836	-0.453299
N72	N	1.321498	0.966683	-0.492259
C73	C	0.903598	0.547749	-0.547128
N74	N	0.858144	0.586804	-0.586050
C75	C	1.377237	0.453173	-0.935545
N76	N	1.321540	0.492155	-0.967370
H77	H	0.819740	0.448772	-0.448496
C78	C	0.788380	0.260246	-0.260599
N79	N	0.697469	0.260248	-0.260613
C80	C	1.377200	0.453220	-0.774139
N81	N	1.321490	0.492220	-0.742283
C82	C	0.903580	0.161269	-0.161936
N83	N	0.858115	0.122223	-0.123022
C84	C	1.659555	0.255545	-0.774232
N85	N	1.715244	0.216551	-0.742416
