data_functionalizedCrystal
_audit_creation_method	'MofGen! by Chris Wilmer'
_symmetry_space_group_name_H-M	'P1'
_symmetry_Int_Tables_number	1
_symmetry_cell_setting	triclinic
loop_
_symmetry_equiv_pos_as_xyz
  x,y,z
_cell_length_a	21.295417
_cell_length_b	18.215407
_cell_length_c	18.215399
_cell_angle_alpha	90.017777
_cell_angle_beta	89.967848
_cell_angle_gamma	89.973873
loop_
_atom_site_label
_atom_site_type_symbol
_atom_site_fract_x
_atom_site_fract_y
_atom_site_fract_z
Zn1	Zn	-0.250689	-1.125043	-0.416054
Zn2	Zn	0.249311	-0.625043	0.083946
Zn3	Zn	-0.355960	-1.124939	-0.292979
Zn4	Zn	0.144040	-0.624939	0.207021
Zn5	Zn	-0.250701	-1.001976	-0.293006
Zn6	Zn	0.249299	-0.501976	0.206994
Zn7	Zn	-0.355916	-1.001930	-0.416008
Zn8	Zn	0.144084	-0.501930	0.083992
O9	O	-0.303317	-1.063472	-0.354512
O10	O	0.196683	-0.563472	0.145488
O11	O	-0.264667	-1.228014	-0.399736
O12	O	0.235333	-0.728014	0.100264
O13	O	-0.342021	-1.108604	-0.189998
O14	O	0.157979	-0.608604	0.310002
O15	O	-0.162610	-1.018364	-0.309359
O16	O	0.337390	-0.518364	0.190641
O17	O	-0.342009	-1.227937	-0.309313
O18	O	0.157991	-0.727937	0.190687
O19	O	-0.162601	-1.108781	-0.399762
O20	O	0.337399	-0.608781	0.100238
O21	O	-0.264687	-1.018263	-0.190018
O22	O	0.235313	-0.518263	0.309982
O23	O	-0.264645	-0.898985	-0.309314
O24	O	0.235355	-0.398985	0.190686
O25	O	-0.341935	-1.018285	-0.518998
O26	O	0.158065	-0.518285	-0.018998
O27	O	-0.341946	-0.898951	-0.399684
O28	O	0.158054	-0.398951	0.100316
O29	O	-0.264625	-1.108736	-0.519032
O30	O	0.235375	-0.608736	-0.019032
O31	O	-0.444044	-1.108559	-0.309268
O32	O	0.055956	-0.608559	0.190732
O33	O	-0.444012	-1.018184	-0.399657
O34	O	0.055988	-0.518184	0.100343
C35	C	-0.303292	-0.872266	-0.354497
C36	C	0.196708	-0.372266	0.145503
C37	C	-0.303297	-0.790467	-0.354509
C38	C	0.196703	-0.290467	0.145491
C39	C	-0.263103	-0.602312	-0.401665
C40	C	0.236897	-0.102312	0.098335
C41	C	-0.263106	-0.525453	-0.401667
C42	C	0.236894	-0.025453	0.098333
C43	C	-0.343521	-0.525384	-0.307364
C44	C	0.156479	-0.025384	0.192636
C45	C	-0.343515	-0.602242	-0.307359
C46	C	0.156485	-0.102242	0.192641
C47	C	-0.303306	-0.640703	-0.354514
C48	C	0.196694	-0.140703	0.145486
C49	C	-0.303316	-0.486987	-0.354521
C50	C	0.196684	0.013013	0.145479
C51	C	-0.303320	-0.403654	-0.354522
C52	C	0.196680	0.096346	0.145478
C53	C	-0.303301	-0.724042	-0.354511
C54	C	0.196699	-0.224042	0.145489
C55	C	-0.466868	-1.063375	-0.354471
C56	C	0.033132	-0.563375	0.145529
C57	C	-0.536836	-1.063402	-0.354478
C58	C	-0.036836	-0.563402	0.145522
C59	C	-0.569699	-1.110502	-0.307461
C60	C	-0.069699	-0.610502	0.192539
C61	C	-0.635442	-1.110536	-0.307477
C62	C	-0.135442	-0.610536	0.192523
C63	C	-0.668319	-1.063457	-0.354503
C64	C	-0.168319	-0.563457	0.145497
C65	C	-0.635449	-1.016354	-0.401530
C66	C	-0.135449	-0.516354	0.098470
C67	C	-0.569707	-1.016326	-0.401517
C68	C	-0.069707	-0.516326	0.098483
N69	N	-0.771581	-0.999079	-0.360109
N70	N	-0.271581	-0.499079	0.139891
N71	N	-0.834032	-0.999107	-0.360117
N72	N	-0.334032	-0.499107	0.139883
C73	C	-0.866394	-1.063540	-0.354546
C74	C	-0.366394	-0.563540	0.145454
N75	N	-0.833945	-1.127944	-0.348952
N76	N	-0.333945	-0.627944	0.151048
N77	N	-0.771488	-1.127915	-0.348940
N78	N	-0.271488	-0.627915	0.151060
C79	C	-0.739604	-1.063483	-0.354523
C80	C	-0.239604	-0.563483	0.145477
C81	C	-0.970542	-1.110681	-0.307544
C82	C	-0.470542	-0.610681	0.192456
C83	C	-1.036285	-1.110717	-0.307565
C84	C	-0.536285	-0.610717	0.192435
C85	C	-1.036291	-1.016528	-0.401614
C86	C	-0.536291	-0.516528	0.098386
C87	C	-0.970549	-1.016499	-0.401596
C88	C	-0.470549	-0.516499	0.098404
C89	C	-0.937678	-1.063575	-0.354557
C90	C	-0.437678	-0.563575	0.145443
C91	C	-0.139126	-1.063589	-0.354569
C92	C	0.360874	-0.563589	0.145431
C93	C	-0.069158	-1.063639	-0.354593
C94	C	0.430842	-0.563639	0.145407
C95	C	-0.303273	-1.063517	-0.546465
C96	C	0.196727	-0.563517	-0.046465
C97	C	-0.303255	-1.063536	-0.628264
C98	C	0.196745	-0.563536	-0.128264
C99	C	-0.303335	-0.255425	-0.354525
C100	C	0.196665	0.244575	0.145475
C101	C	-0.303325	-0.337224	-0.354525
C102	C	0.196675	0.162776	0.145475
C103	C	-0.262962	-1.110651	-0.816476
C104	C	0.237038	-0.610651	-0.316476
C105	C	-0.262944	-1.110659	-0.893335
C106	C	0.237056	-0.610659	-0.393335
C107	C	-0.343450	-1.016473	-0.893289
C108	C	0.156550	-0.516473	-0.393289
C109	C	-0.343465	-1.016461	-0.816431
C110	C	0.156535	-0.516461	-0.316431
C111	C	-0.303222	-1.063554	-0.778027
C112	C	0.196778	-0.563554	-0.278027
C113	C	-0.303189	-1.063575	-0.931743
C114	C	0.196811	-0.563575	-0.431743
C115	C	-0.303169	-1.063584	-1.015077
C116	C	0.196831	-0.563584	-0.515077
C117	C	-0.303240	-1.063544	-0.694688
C118	C	0.196760	-0.563544	-0.194688
C119	C	-0.303315	-1.063470	-0.163305
C120	C	0.196685	-0.563470	0.336695
C121	C	-0.303156	-1.063593	-0.081507
C122	C	0.196844	-0.563593	0.418493
H123	H	-0.230367	-0.494198	-0.440061
H124	H	0.269633	0.005802	0.059939
O125	O	-0.224074	-0.639594	-0.447567
O126	O	0.275926	-0.139594	0.052433
C127	C	-0.193672	-0.663201	-0.572815
C128	C	0.306328	-0.163201	-0.072815
C129	C	-0.237904	-0.620924	-0.520914
C130	C	0.262096	-0.120924	-0.020914
H131	H	-0.204847	-0.648134	-0.632128
H132	H	0.295153	-0.148134	-0.132128
H133	H	-0.142891	-0.648092	-0.560059
H134	H	0.357109	-0.148092	-0.060059
H135	H	-0.200563	-0.724725	-0.564677
H136	H	0.299437	-0.224725	-0.064677
H137	H	-0.231069	-0.559390	-0.529024
H138	H	0.268931	-0.059390	-0.029024
H139	H	-0.288669	-0.636094	-0.533683
H140	H	0.211331	-0.136094	-0.033683
O141	O	-1.068288	-0.970899	-0.447335
O142	O	-0.568288	-0.470899	0.052665
C143	C	-1.142423	-0.960980	-0.546736
C144	C	-0.642423	-0.460980	-0.046736
C145	C	-1.106233	-1.012735	-0.494987
C146	C	-0.606233	-0.512735	0.005013
H147	H	-1.173100	-0.994785	-0.585286
H148	H	-0.673100	-0.494785	-0.085286
H149	H	-1.173294	-0.922543	-0.512965
H150	H	-0.673294	-0.422543	-0.012965
H151	H	-1.107625	-0.927293	-0.580303
H152	H	-0.607625	-0.427293	-0.080303
H153	H	-1.140985	-1.046471	-0.461409
H154	H	-0.640985	-0.546471	0.038591
H155	H	-1.075353	-1.051124	-0.528800
H156	H	-0.575353	-0.551124	-0.028800
O157	O	-0.382631	-0.639427	-0.261530
O158	O	0.117369	-0.139427	0.238470
C159	C	-0.462366	-0.631255	-0.167963
C160	C	0.037634	-0.131255	0.332037
C161	C	-0.418115	-0.589052	-0.219838
C162	C	0.081885	-0.089052	0.280162
H163	H	-0.491057	-0.590545	-0.134230
H164	H	0.008943	-0.090545	0.365770
H165	H	-0.495355	-0.667218	-0.201644
H166	H	0.004645	-0.167218	0.298356
H167	H	-0.433408	-0.667254	-0.129575
H168	H	0.066592	-0.167254	0.370425
H169	H	-0.447022	-0.553013	-0.258237
H170	H	0.052978	-0.053013	0.241763
H171	H	-0.385124	-0.553135	-0.186112
H172	H	0.114876	-0.053135	0.313888
H173	H	-0.376258	-0.494060	-0.268973
H174	H	0.123742	0.005940	0.231027
O175	O	-0.537867	-1.156306	-0.261752
O176	O	-0.037867	-0.656306	0.238248
C177	C	-0.544802	-1.249701	-0.168444
C178	C	-0.044802	-0.749701	0.331556
C179	C	-0.580932	-1.197875	-0.220180
C180	C	-0.080932	-0.697875	0.279820
H181	H	-0.579604	-1.283312	-0.134808
H182	H	-0.079604	-0.783312	0.365192
H183	H	-0.513996	-1.288199	-0.202227
H184	H	-0.013996	-0.788199	0.297773
H185	H	-0.514051	-1.215915	-0.129958
H186	H	-0.014051	-0.715915	0.370042
H187	H	-0.611717	-1.231602	-0.258676
H188	H	-0.111717	-0.731602	0.241324
H189	H	-0.611698	-1.159374	-0.186351
H190	H	-0.111698	-0.659374	0.313649
H191	H	-0.662203	-1.148893	-0.269190
H192	H	-0.162203	-0.648893	0.230810
O193	O	-0.382632	-0.970771	-0.930516
O194	O	0.117368	-0.470771	-0.430516
C195	C	-0.489704	-0.935013	-0.954018
C196	C	0.010296	-0.435013	-0.454018
C197	C	-0.445400	-0.986803	-0.911802
C198	C	0.054600	-0.486803	-0.411802
H199	H	-0.540462	-0.947966	-0.938915
H200	H	-0.040462	-0.447966	-0.438915
H201	H	-0.478700	-0.875663	-0.938890
H202	H	0.021300	-0.375663	-0.438890
H203	H	-0.482747	-0.943100	-1.015551
H204	H	0.017253	-0.443100	-0.515551
H205	H	-0.452332	-0.978781	-0.850259
H206	H	0.047668	-0.478781	-0.350259
H207	H	-0.456415	-1.046133	-0.926991
H208	H	0.043585	-0.546133	-0.426991
H209	H	-0.376249	-0.978104	-0.785125
H210	H	0.123751	-0.478104	-0.285125
H211	H	-0.662222	-0.978024	-0.439820
H212	H	-0.162222	-0.478024	0.060180
O213	O	-0.537879	-0.970499	-0.447213
O214	O	-0.037879	-0.470499	0.052787
C215	C	-0.544822	-0.877117	-0.540532
C216	C	-0.044822	-0.377117	-0.040532
C217	C	-0.580947	-0.928967	-0.488808
C218	C	-0.080947	-0.428967	0.011192
H219	H	-0.579627	-0.843536	-0.574185
H220	H	-0.079627	-0.343536	-0.074185
H221	H	-0.514111	-0.838592	-0.506739
H222	H	-0.014111	-0.338592	-0.006739
H223	H	-0.513976	-0.910882	-0.579002
H224	H	-0.013976	-0.410882	-0.079002
H225	H	-0.611827	-0.895261	-0.450327
H226	H	-0.111827	-0.395261	0.049673
H227	H	-0.611618	-0.967494	-0.522646
H228	H	-0.111618	-0.467494	-0.022646
H229	H	-0.943790	-0.978143	-0.439879
H230	H	-0.443790	-0.478143	0.060121
H231	H	-0.230159	-1.149009	-0.924637
H232	H	0.269841	-0.649009	-0.424637
H233	H	-0.943777	-1.149015	-0.269244
H234	H	-0.443777	-0.649015	0.230756
O235	O	-1.068113	-1.156604	-0.261929
O236	O	-0.568113	-0.656604	0.238071
C237	C	-1.088097	-1.281847	-0.226379
C238	C	-0.588097	-0.781847	0.273621
C239	C	-1.052020	-1.229944	-0.278096
C240	C	-0.552020	-0.729944	0.221904
H241	H	-1.075110	-1.341154	-0.239441
H242	H	-0.575110	-0.841154	0.260559
H243	H	-1.075195	-1.269019	-0.167013
H244	H	-0.575195	-0.769019	0.332987
H245	H	-1.140736	-1.273789	-0.234428
H246	H	-0.640736	-0.773789	0.265572
H247	H	-0.999374	-1.237973	-0.270111
H248	H	-0.499374	-0.737973	0.229889
H249	H	-1.064975	-1.242785	-0.337442
H250	H	-0.564975	-0.742785	0.162558
O251	O	-0.223808	-1.156413	-0.779284
O252	O	0.276192	-0.656413	-0.279284
C253	C	-0.143977	-1.249861	-0.787445
C254	C	0.356023	-0.749861	-0.287445
C255	C	-0.188279	-1.198061	-0.829654
C256	C	0.311721	-0.698061	-0.329654
H257	H	-0.115250	-1.283557	-0.828152
H258	H	0.384750	-0.783557	-0.328152
H259	H	-0.111024	-1.216124	-0.751491
H260	H	0.388976	-0.716124	-0.251491
H261	H	-0.172897	-1.288287	-0.751437
H262	H	0.327103	-0.788287	-0.251437
H263	H	-0.159410	-1.159624	-0.865702
H264	H	0.340590	-0.659624	-0.365702
H265	H	-0.221234	-1.231843	-0.865563
H266	H	0.278766	-0.731843	-0.365563
