data_functionalizedCrystal
_audit_creation_method	'MofGen! by Chris Wilmer'
_symmetry_space_group_name_H-M	'P1'
_symmetry_Int_Tables_number	1
_symmetry_cell_setting	triclinic
loop_
_symmetry_equiv_pos_as_xyz
  x,y,z
_cell_length_a	17.038272
_cell_length_b	23.532407
_cell_length_c	16.098538
_cell_angle_alpha	92.700973
_cell_angle_beta	87.069734
_cell_angle_gamma	86.980117
loop_
_atom_site_label
_atom_site_type_symbol
_atom_site_fract_x
_atom_site_fract_y
_atom_site_fract_z
O1	O	1.039966	0.121251	-0.069166
O2	O	1.539966	0.621251	0.430834
O3	O	0.812351	0.119288	-0.069191
O4	O	1.312351	0.619288	0.430809
O5	O	0.933021	0.037699	-0.069163
O6	O	1.433021	0.537699	0.430837
O7	O	0.919295	0.202840	-0.069195
O8	O	1.419295	0.702840	0.430805
O9	O	0.925973	0.042445	0.069349
O10	O	1.425973	0.542445	0.569349
O11	O	0.805302	0.124034	0.069321
O12	O	1.305302	0.624034	0.569321
O13	O	1.032917	0.125997	0.069345
O14	O	1.532917	0.625997	0.569345
Zn15	Zn	0.917990	0.125769	0.091324
Zn16	Zn	1.417990	0.625769	0.591324
Zn17	Zn	0.927278	0.119516	-0.091170
Zn18	Zn	1.427278	0.619516	0.408830
O19	O	0.912247	0.207586	0.069317
O20	O	1.412247	0.707586	0.569317
C21	C	0.779712	0.119875	0.000062
C22	C	1.279712	0.619875	0.500062
C23	C	0.692959	0.114548	0.000054
C24	C	1.192959	0.614548	0.500054
C25	C	0.642483	0.163453	0.000045
C26	C	1.142483	0.663453	0.500045
C27	C	0.560969	0.158445	0.000057
C28	C	1.060969	0.658445	0.500057
C29	C	0.529932	0.104532	0.000072
C30	C	1.029932	0.604532	0.500072
C31	C	0.580415	0.055624	0.000084
C32	C	1.080415	0.555624	0.500084
C33	C	0.661927	0.060632	0.000077
C34	C	1.161927	0.560632	0.500077
C35	C	0.284304	0.086837	0.000098
C36	C	0.784304	0.586837	0.500098
C37	C	0.202786	0.081832	0.000102
C38	C	0.702786	0.581832	0.500102
C39	C	0.183345	0.184654	0.000077
C40	C	0.683345	0.684654	0.500077
C41	C	0.264860	0.189657	0.000066
C42	C	0.764860	0.689657	0.500066
C43	C	0.315335	0.140750	0.000081
C44	C	0.815335	0.640750	0.500081
C45	C	0.446612	0.099411	0.000083
C46	C	0.946612	0.599411	0.500083
C47	C	0.398653	0.145871	0.000077
C48	C	0.898653	0.645871	0.500077
C49	C	0.929147	0.018838	0.000095
C50	C	1.429147	0.518838	0.500095
C51	C	0.928096	-0.044434	0.000101
C52	C	1.428096	0.455566	0.500101
C53	C	0.992917	-0.440131	0.000063
C54	C	1.492917	0.059869	0.500063
C55	C	0.991941	-0.499583	0.000056
C56	C	1.491941	0.000417	0.500056
O57	O	1.052030	-0.533169	0.000032
O58	O	1.552030	-0.033169	0.500032
N59	N	0.920202	-0.525981	0.000049
N60	N	1.420202	-0.025981	0.500049
C61	C	0.849435	-0.492924	0.000040
C62	C	1.349435	0.007076	0.500040
O63	O	0.788325	-0.520836	0.000033
O64	O	1.288325	-0.020836	0.500033
C65	C	0.850412	-0.433473	0.000041
C66	C	1.350412	0.066527	0.500041
C67	C	0.922155	-0.407078	0.000056
C68	C	1.422155	0.092922	0.500056
C69	C	1.064654	-0.413736	0.000077
C70	C	1.564654	0.086264	0.500077
C71	C	1.065630	-0.354288	0.000085
C72	C	1.565630	0.145712	0.500085
C73	C	0.994868	-0.321236	0.000079
C74	C	1.494868	0.178764	0.500079
C75	C	0.923131	-0.347631	0.000064
C76	C	1.423131	0.152369	0.500064
C77	C	0.779646	-0.400418	0.000026
C78	C	1.279646	0.099582	0.500026
C79	C	0.780629	-0.340963	0.000025
C80	C	1.280629	0.159037	0.500025
C81	C	0.852372	-0.314569	0.000041
C82	C	1.352372	0.185431	0.500041
C83	C	0.853344	-0.255130	0.000066
C84	C	1.353344	0.244870	0.500066
N85	N	0.925083	-0.228732	0.000073
N86	N	1.425083	0.271268	0.500073
C87	C	0.995845	-0.261785	0.000079
C88	C	1.495845	0.238215	0.500079
C89	C	0.847388	-0.617774	0.000038
C90	C	1.347388	-0.117774	0.500038
C91	C	0.846410	-0.677223	0.000043
C92	C	1.346410	-0.177223	0.500043
C93	C	0.988917	-0.683878	0.000058
C94	C	1.488917	-0.183878	0.500058
C95	C	0.989894	-0.624428	0.000058
C96	C	1.489894	-0.124428	0.500058
C97	C	0.919127	-0.591376	0.000045
C98	C	1.419127	-0.091376	0.500045
C99	C	0.997889	-0.136940	0.000097
C100	C	1.497889	0.363060	0.500097
C101	C	0.998858	-0.077487	0.000108
C102	C	1.498858	0.422513	0.500108
C103	C	0.856352	-0.070837	0.000089
C104	C	1.356352	0.429163	0.500089
C105	C	0.855382	-0.130285	0.000082
C106	C	1.355382	0.369715	0.500082
C107	C	0.926157	-0.163336	0.000083
C108	C	1.426157	0.336664	0.500083
O109	O	0.793287	-0.221508	0.000086
O110	O	1.293287	0.278492	0.500086
O111	O	1.056945	-0.233865	0.000076
O112	O	1.556945	0.266135	0.500076
C113	C	1.065556	0.125410	0.000090
C114	C	1.565556	0.625410	0.500090
C115	C	1.152310	0.130737	0.000093
C116	C	1.652310	0.630737	0.500093
C117	C	0.916121	0.226447	0.000057
C118	C	1.416121	0.726447	0.500057
C119	C	0.917172	0.289719	0.000045
C120	C	1.417172	0.789719	0.500045
N121	N	0.911658	0.130036	0.215872
N122	N	1.411658	0.630036	0.715872
N123	N	0.933616	0.115244	-0.215718
N124	N	1.433616	0.615244	0.284282
C125	C	0.962894	0.095421	0.259469
C126	C	1.462894	0.595421	0.759469
C127	C	0.958471	0.098412	0.346657
C128	C	1.458471	0.598412	0.846657
C129	C	0.902816	0.136022	0.390246
C130	C	1.402816	0.636022	0.890246
C131	C	0.851574	0.170639	0.346643
C132	C	1.351574	0.670639	0.846643
C133	C	0.855994	0.167644	0.259457
C134	C	1.355994	0.667644	0.759457
C135	C	0.886795	0.146867	0.653493
C136	C	1.386795	0.646867	1.153493
C137	C	0.882380	0.149860	0.740685
C138	C	1.382380	0.649860	1.240685
C139	C	0.989277	0.077632	0.740693
C140	C	1.489277	0.577632	1.240693
C141	C	0.993694	0.074644	0.653505
C142	C	1.493694	0.574644	1.153505
C143	C	0.942450	0.109258	0.609909
C144	C	1.442450	0.609258	1.109909
C145	C	0.898295	0.139081	0.479366
C146	C	1.398295	0.639081	0.979366
C147	C	0.946968	0.106195	0.520791
C148	C	1.446968	0.606195	1.020791
H149	H	0.325392	0.047013	0.000112
H150	H	0.825392	0.547013	0.500112
C151	C	1.008186	0.064826	0.472849
C152	C	1.508186	0.564826	0.972849
H153	H	1.038069	0.044635	0.511298
H154	H	1.538069	0.544635	1.011298
H155	H	1.042276	0.085730	0.438823
H156	H	1.542276	0.585730	0.938823
H157	H	0.981976	0.038584	0.438853
H158	H	1.481976	0.538584	0.938853
H159	H	0.519874	0.198268	0.000049
H160	H	1.019874	0.698268	0.500049
H161	H	0.789757	-0.590866	0.000034
H162	H	1.289757	-0.090866	0.500034
C163	C	0.412473	0.040109	0.000090
C164	C	0.912473	0.540109	0.500090
H165	H	0.454207	0.011697	0.000095
H166	H	0.954207	0.511697	0.500095
H167	H	0.383527	0.034367	-0.048209
H168	H	0.883527	0.534367	0.451791
H169	H	0.378630	0.037674	0.048401
H170	H	0.878630	0.537674	0.548401
C171	C	1.024120	0.054056	0.211524
C172	C	1.524120	0.554056	0.711524
H173	H	1.019422	0.057234	0.153355
H174	H	1.519422	0.557234	0.653355
H175	H	1.015212	0.016136	0.225825
H176	H	1.515212	0.516136	0.725825
H177	H	1.075505	0.063286	0.225808
H178	H	1.575505	0.563286	0.725808
H179	H	0.667745	0.207354	0.000032
H180	H	1.167745	0.707354	0.500032
H181	H	0.290124	0.233559	0.000043
H182	H	0.790124	0.733559	0.500043
C183	C	0.767492	-0.706251	0.000033
C184	C	1.267492	-0.206251	0.500033
H185	H	0.725493	-0.678046	0.000024
H186	H	1.225493	-0.178046	0.500024
H187	H	0.761685	-0.727657	0.048330
H188	H	1.261685	-0.227657	0.548330
H189	H	0.766607	-0.730950	-0.048280
H190	H	1.266607	-0.230950	0.451720
C191	C	0.127822	0.238447	0.000070
C192	C	0.627822	0.738447	0.500070
H193	H	0.074830	0.227746	0.000084
H194	H	0.574830	0.727746	0.500084
H195	H	0.139636	0.258739	-0.048235
H196	H	0.639636	0.758739	0.451765
H197	H	0.134738	0.262044	0.048375
H198	H	0.634738	0.762044	0.548375
H199	H	1.057282	-0.055999	0.000123
H200	H	1.557282	0.444001	0.500123
H201	H	1.122281	-0.440642	0.000080
H202	H	1.622281	0.059358	0.500080
H203	H	0.177520	0.037928	0.000114
H204	H	0.677520	0.537928	0.500114
H205	H	1.039013	0.044019	0.618016
H206	H	1.539013	0.544019	1.118016
H207	H	1.048313	-0.602941	0.000070
H208	H	1.548313	-0.102941	0.500070
H209	H	0.852981	0.169705	0.514864
H210	H	1.352981	0.669705	1.014864
C211	C	1.045634	0.039553	0.788645
C212	C	1.545634	0.539553	1.288645
H213	H	1.079415	0.016728	0.750198
H214	H	1.579415	0.516728	1.250198
H215	H	1.015981	0.015650	0.822669
H216	H	1.515981	0.515650	1.322669
H217	H	1.076288	0.062791	0.822644
H218	H	1.576288	0.562791	1.322644
H219	H	0.555138	0.011727	0.000108
H220	H	1.055138	0.511727	0.500108
C221	C	0.717451	0.006837	0.000079
C222	C	1.217451	0.506837	0.500079
H223	H	0.687294	-0.025989	0.000080
H224	H	1.187294	0.474011	0.500080
H225	H	0.747205	0.008307	0.048377
H226	H	1.247205	0.508307	0.548377
H227	H	0.752101	0.005000	-0.048233
H228	H	1.252101	0.505000	0.451767
H229	H	0.837057	0.180488	0.776172
H230	H	1.337057	0.680488	1.276172
C231	C	0.432787	0.205172	0.000058
C232	C	0.932787	0.705172	0.500058
H233	H	0.391053	0.233585	0.000056
H234	H	0.891053	0.733585	0.500056
H235	H	0.466634	0.207602	-0.048246
H236	H	0.966634	0.707602	0.451754
H237	H	0.461729	0.210919	0.048364
H238	H	0.961729	0.710919	0.548364
H239	H	1.055521	-0.163843	0.000094
H240	H	1.555521	0.336157	0.500094
H241	H	1.124051	-0.332803	0.000094
H242	H	1.624051	0.167197	0.500094
C243	C	1.066757	-0.720241	0.000059
C244	C	1.566757	-0.220241	0.500059
H245	H	1.109626	-0.696010	0.000071
H246	H	1.609626	-0.196010	0.500071
H247	H	1.071790	-0.745221	-0.048244
H248	H	1.571790	-0.245221	0.451756
H249	H	1.066876	-0.741921	0.048366
H250	H	1.566876	-0.241921	0.548366
C251	C	0.776467	-0.159321	0.000063
C252	C	1.276467	0.340679	0.500063
H253	H	0.734465	-0.131119	0.000055
H254	H	1.234465	0.368881	0.500055
H255	H	0.770658	-0.180732	0.048355
H256	H	1.270658	0.319268	0.548355
H257	H	0.775589	-0.184017	-0.048255
H258	H	1.275589	0.315983	0.451745
C259	C	0.700727	-0.429439	0.000001
C260	C	1.200727	0.070561	0.500001
H261	H	0.658732	-0.401233	-0.000013
H262	H	1.158732	0.098767	0.499987
H263	H	0.694912	-0.450845	0.048299
H264	H	1.194912	0.049155	0.548299
H265	H	0.699844	-0.454139	-0.048311
H266	H	1.199844	0.045861	0.451689
H267	H	0.723001	-0.314056	0.000013
H268	H	1.223001	0.185944	0.500013
C269	C	0.830435	0.184946	0.605548
C270	C	1.330435	0.684946	1.105548
H271	H	0.796664	0.207778	0.643998
H272	H	1.296664	0.707778	1.143998
H273	H	0.799783	0.161713	0.571549
H274	H	1.299783	0.661713	1.071549
H275	H	0.860091	0.208853	0.571526
H276	H	1.360091	0.708853	1.071526
H277	H	0.798739	-0.043915	0.000087
H278	H	1.298739	0.456085	0.500087
C279	C	0.790356	0.212009	0.394589
C280	C	1.290356	0.712009	0.894589
H281	H	0.795067	0.208840	0.452759
H282	H	1.295067	0.708840	0.952759
H283	H	0.738969	0.202789	0.380313
H284	H	1.238969	0.702789	0.880313
H285	H	0.799277	0.249929	0.380283
H286	H	1.299277	0.749929	0.880283
H287	H	1.000191	0.070225	0.382153
H288	H	1.500191	0.570225	0.882153
H289	H	0.814271	0.195831	0.223961
H290	H	1.314271	0.695831	0.723961
