data_functionalizedCrystal
_audit_creation_method	'MofGen! by Chris Wilmer'
_symmetry_space_group_name_H-M	'P1'
_symmetry_Int_Tables_number	1
_symmetry_cell_setting	triclinic
loop_
_symmetry_equiv_pos_as_xyz
  x,y,z
_cell_length_a	15.625691
_cell_length_b	15.712078
_cell_length_c	14.185569
_cell_angle_alpha	107.170411
_cell_angle_beta	85.701358
_cell_angle_gamma	78.967311
loop_
_atom_site_label
_atom_site_type_symbol
_atom_site_fract_x
_atom_site_fract_y
_atom_site_fract_z
O1	O	-0.479341	1.168794	0.090681
O2	O	0.020659	1.668794	0.590681
O3	O	-0.414625	0.911540	0.067195
O4	O	0.085375	1.411540	0.567195
O5	O	-0.325382	1.036505	0.034717
O6	O	0.174618	1.536505	0.534717
O7	O	-0.568583	1.043829	0.123158
O8	O	-0.068583	1.543829	0.623158
O9	O	-0.299023	1.073421	0.191959
O10	O	0.200977	1.573421	0.691959
O11	O	-0.388266	0.948456	0.224437
O12	O	0.111734	1.448456	0.724437
O13	O	-0.452982	1.205710	0.247923
O14	O	0.047018	1.705710	0.747923
Cu15	Cu	-0.418217	1.080454	0.250537
Cu16	Cu	0.081783	1.580454	0.750537
Cu17	Cu	-0.449389	1.036796	0.064580
Cu18	Cu	0.050611	1.536796	0.564580
O19	O	-0.542224	1.080745	0.280400
O20	O	-0.042224	1.580745	0.780400
C21	C	-0.390873	0.896880	0.141977
C22	C	0.109127	1.396880	0.641977
C23	C	-0.359362	0.798197	0.130536
C24	C	0.140638	1.298197	0.630536
C25	C	-0.626890	0.454276	0.227755
C26	C	-0.126890	0.954276	0.727755
C27	C	-0.597267	0.361540	0.216957
C28	C	-0.097267	0.861540	0.716957
C29	C	-0.448814	0.369287	0.162969
C30	C	0.051186	0.869287	0.662969
C31	C	-0.478426	0.462024	0.173758
C32	C	0.021574	0.962024	0.673758
C33	C	-0.567464	0.504511	0.206152
C34	C	-0.067464	1.004511	0.706152
C35	C	-0.419000	0.512259	0.152155
C36	C	0.081000	1.012259	0.652155
C37	C	-0.448609	0.604989	0.162947
C38	C	0.051391	1.104989	0.662947
C39	C	-0.537643	0.647484	0.195343
C40	C	-0.037643	1.147484	0.695343
C41	C	-0.597072	0.597241	0.216944
C42	C	-0.097072	1.097241	0.716944
C43	C	-0.329961	0.469772	0.119768
C44	C	0.170039	0.969772	0.619768
C45	C	-0.270535	0.520007	0.098165
C46	C	0.229465	1.020007	0.598165
C47	C	-0.300145	0.612737	0.108951
C48	C	0.199855	1.112737	0.608951
C49	C	-0.389179	0.655232	0.141346
C50	C	0.110821	1.155232	0.641346
C51	C	-0.240715	0.662980	0.087349
C52	C	0.259285	1.162980	0.587349
C53	C	-0.270323	0.755710	0.098142
C54	C	0.229677	1.255710	0.598142
C55	C	-0.418787	0.747962	0.152139
C56	C	0.081213	1.247962	0.652139
C57	C	-0.587249	1.065616	0.213360
C58	C	-0.087249	1.565616	0.713360
C59	C	-0.682142	1.075547	0.247866
C60	C	-0.182142	1.575547	0.747866
C61	C	-1.066114	1.007588	-0.067131
C62	C	-0.566114	1.507588	0.432869
C63	C	-1.155272	1.016918	-0.034671
C64	C	-0.655272	1.516918	0.465329
C65	C	-1.126504	1.057159	0.136736
C66	C	-0.626504	1.557159	0.636736
C67	C	-1.037340	1.047828	0.104290
C68	C	-0.537340	1.547828	0.604290
C69	C	-1.007153	1.023044	0.002355
C70	C	-0.507153	1.523044	0.502355
C71	C	-0.978380	1.063284	0.173776
C72	C	-0.478380	1.563284	0.673776
C73	C	-0.889225	1.053958	0.141333
C74	C	-0.389225	1.553958	0.641333
C75	C	-0.859031	1.029177	0.039403
C76	C	-0.359031	1.529177	0.539403
C77	C	-0.917998	1.013718	-0.030088
C78	C	-0.417998	1.513718	0.469912
C79	C	-1.008570	1.088075	0.275711
C80	C	-0.508570	1.588075	0.775711
C81	C	-0.949609	1.103530	0.345197
C82	C	-0.449609	1.603530	0.845197
C83	C	-0.860452	1.094198	0.312754
C84	C	-0.360452	1.594198	0.812754
C85	C	-0.830258	1.069417	0.210824
C86	C	-0.330258	1.569417	0.710824
C87	C	-0.801484	1.109657	0.382245
C88	C	-0.301484	1.609657	0.882245
C89	C	-0.712330	1.100332	0.349801
C90	C	-0.212330	1.600332	0.849801
C91	C	-0.741103	1.060092	0.178380
C92	C	-0.241103	1.560092	0.678380
C93	C	-0.280357	1.051633	0.101756
C94	C	0.219643	1.551633	0.601756
C95	C	-0.185465	1.041701	0.067243
C96	C	0.314535	1.541701	0.567243
C97	C	-0.476733	1.220370	0.173138
C98	C	0.023267	1.720370	0.673138
C99	C	-0.508246	1.319051	0.184573
C100	C	-0.008246	1.819051	0.684573
N101	N	-0.396293	1.111167	0.381330
N102	N	0.103707	1.611167	0.881330
N103	N	-0.471308	1.006090	-0.066214
N104	N	0.028692	1.506090	0.433786
C105	C	-0.535683	0.915852	0.799707
C106	C	-0.035683	1.415852	1.299707
C107	C	-0.519084	0.939123	0.898687
C108	C	-0.019084	1.439123	1.398687
C109	C	-0.440110	1.049808	0.869908
C110	C	0.059890	1.549808	1.369908
C111	C	-0.456699	1.026543	0.770921
C112	C	0.043301	1.526543	1.270921
C113	C	-0.504487	0.959565	0.735829
C114	C	-0.004487	1.459565	1.235829
C115	C	-0.425502	1.070256	0.707044
C116	C	0.074498	1.570256	1.207044
C117	C	-0.442094	1.046996	0.608068
C118	C	0.057906	1.546996	1.108068
C119	C	-0.489882	0.980023	0.572969
C120	C	0.010118	1.480023	1.072969
C121	C	-0.521078	0.936305	0.636853
C122	C	-0.021078	1.436305	1.136853
C123	C	-0.377720	1.137238	0.742140
C124	C	0.122280	1.637238	1.242140
C125	C	-0.346523	1.180951	0.678263
C126	C	0.153477	1.680951	1.178263
C127	C	-0.363110	1.157687	0.579282
C128	C	0.136890	1.657687	1.079282
C129	C	-0.410898	1.090714	0.544183
C130	C	0.089102	1.590714	1.044183
C131	C	-0.331913	1.201405	0.515398
C132	C	0.168087	1.701405	1.015398
C133	C	-0.348505	1.178144	0.416422
C134	C	0.151495	1.678144	0.916422
C135	C	-0.427490	1.067454	0.445207
C136	C	0.072510	1.567454	0.945207
H137	H	-0.168218	0.628375	0.060986
H138	H	0.331782	1.128375	0.560986
H139	H	-0.503394	0.961088	0.492376
H140	H	-0.003394	1.461088	0.992376
H141	H	-0.305855	0.394267	0.110993
H142	H	0.194145	0.894267	0.610993
H143	H	-0.221933	0.796612	0.080548
H144	H	0.278067	1.296612	0.580548
H145	H	-0.669576	0.631837	0.243324
H146	H	-0.169576	1.131837	0.743324
Cl147	Cl	-0.574860	0.764071	0.208954
Cl148	Cl	-0.074860	1.264071	0.708954
Cl149	Cl	-0.356869	1.166481	0.866572
Cl150	Cl	0.143131	1.666481	1.366572
H151	H	-0.699393	0.488872	0.254134
H152	H	-0.199393	0.988872	0.754134
Cl153	Cl	-0.671982	0.298392	0.244128
Cl154	Cl	-0.171982	0.798392	0.744128
Cl155	Cl	-0.380037	1.134009	0.914032
Cl156	Cl	0.119963	1.634009	1.414032
H157	H	-0.376317	0.334684	0.136605
H158	H	0.123683	0.834684	0.636605
H159	H	-1.081167	1.095670	0.302124
H160	H	-0.581167	1.595670	0.802124
Cl161	Cl	-0.309289	1.233103	0.336118
Cl162	Cl	0.190711	1.733103	0.836118
Cl163	Cl	-0.839448	1.140827	0.510387
Cl164	Cl	-0.339448	1.640827	1.010387
H165	H	-0.198038	0.485404	0.071800
H166	H	0.301962	0.985404	0.571800
Cl167	Cl	-0.703144	1.028918	0.050230
Cl168	Cl	-0.203144	1.528918	0.550230
Cl169	Cl	-0.558312	0.884162	0.978987
Cl170	Cl	-0.058312	1.384162	1.478987
Cl171	Cl	-0.271851	1.285612	0.559528
Cl172	Cl	0.228149	1.785612	1.059528
Cl173	Cl	-0.286451	1.265152	0.722387
Cl174	Cl	0.213549	1.765152	1.222387
H175	H	-0.491291	0.782558	0.178518
H176	H	0.008709	1.282558	0.678518
H177	H	-1.203277	1.004330	-0.091263
H178	H	-0.703277	1.504330	0.408737
H179	H	-0.786435	1.021588	0.012989
H180	H	-0.286435	1.521588	0.512989
H181	H	-0.893416	0.993521	-0.113094
H182	H	-0.393416	1.493521	0.386906
H183	H	-0.559984	0.881758	0.608278
H184	H	-0.059984	1.381758	1.108278
Cl185	Cl	-0.595750	0.831639	0.755584
Cl186	Cl	-0.095750	1.331639	1.255584
H187	H	-1.041531	0.987391	-0.150137
H188	H	-0.541531	1.487391	0.349863
H189	H	-1.151096	1.077342	0.219732
H190	H	-0.651096	1.577342	0.719732
H191	H	-0.974201	1.123713	0.428193
H192	H	-0.474201	1.623713	0.928193
H193	H	-0.664321	1.112915	0.406384
H194	H	-0.164321	1.612915	0.906384
H195	H	-0.466396	1.012907	0.416632
H196	H	0.033604	1.512907	0.916632
