data_functionalizedCrystal
_audit_creation_method	'MofGen! by Chris Wilmer'
_symmetry_space_group_name_H-M	'P1'
_symmetry_Int_Tables_number	1
_symmetry_cell_setting	triclinic
loop_
_symmetry_equiv_pos_as_xyz
  x,y,z
_cell_length_a	6.817900
_cell_length_b	14.858565
_cell_length_c	9.170709
_cell_angle_alpha	85.308529
_cell_angle_beta	67.539355
_cell_angle_gamma	75.476084
loop_
_atom_site_label
_atom_site_type_symbol
_atom_site_fract_x
_atom_site_fract_y
_atom_site_fract_z
V1	V	4.112885	-0.088737	-0.486658
O2	O	4.093325	0.045320	-0.476947
O3	O	4.069040	-0.215435	-0.483760
O4	O	4.099662	-0.069357	-0.698710
O5	O	4.062491	-0.101770	-0.260509
V6	V	4.591365	-0.074830	-0.459557
O7	O	4.385207	-0.119241	-0.546108
O8	O	4.769241	-0.044326	-0.400107
O9	O	4.412005	0.051868	-0.462455
O10	O	4.728322	-0.208887	-0.469268
O11	O	4.759157	-0.061797	-0.685706
O12	O	4.381382	-0.094210	-0.247504
C13	C	3.914010	-0.246885	-0.476194
C14	C	3.959682	-0.350347	-0.475238
C15	C	4.126851	-0.729203	-0.471759
C16	C	4.080330	-0.623793	-0.472726
C17	C	4.043267	-0.539778	-0.473497
C18	C	3.996746	-0.434362	-0.474467
C19	C	3.953071	-0.060546	-0.750382
C20	C	4.023573	-0.045540	-0.923739
C21	C	4.230376	0.083312	-0.470017
C22	C	4.163943	0.186774	-0.470983
C23	C	4.191314	-0.103024	-0.195824
C24	C	4.100050	-0.118026	-0.022466
H25	H	4.111602	-0.191568	-0.974370
H26	H	4.012042	0.028007	-0.971843
