data_functionalizedCrystal
_audit_creation_method	'MofGen! by Chris Wilmer'
_symmetry_space_group_name_H-M	'P1'
_symmetry_Int_Tables_number	1
_symmetry_cell_setting	triclinic
loop_
_symmetry_equiv_pos_as_xyz
  x,y,z
_cell_length_a	11.026607
_cell_length_b	12.837942
_cell_length_c	10.065875
_cell_angle_alpha	99.723749
_cell_angle_beta	79.302338
_cell_angle_gamma	101.707478
loop_
_atom_site_label
_atom_site_type_symbol
_atom_site_fract_x
_atom_site_fract_y
_atom_site_fract_z
O1	O	1.677813	0.431471	-0.113501
O2	O	1.318665	0.380952	-0.113502
O3	O	1.490274	0.253824	-0.113493
O4	O	1.506204	0.558600	-0.113509
O5	O	1.457565	0.278190	0.113494
O6	O	1.285956	0.405318	0.113485
O7	O	1.645104	0.455838	0.113486
Zn8	Zn	1.460337	0.434446	0.149525
Zn9	Zn	1.503433	0.402343	-0.149540
O10	O	1.473495	0.582966	0.113478
C11	C	1.256022	0.383815	-0.000008
C12	C	1.118096	0.356032	-0.000008
C13	C	1.053161	0.432745	-0.000013
C14	C	0.910607	0.404032	-0.000014
C15	C	1.468539	0.226382	0.000000
C16	C	1.452492	0.108310	-0.000002
C17	C	1.645414	-0.096651	-0.000030
C18	C	1.630342	-0.207590	-0.000032
C19	C	1.407280	-0.224509	-0.000019
C20	C	1.422351	-0.113570	-0.000017
C21	C	1.541422	-0.049645	-0.000020
C22	C	1.556491	0.061297	-0.000008
C23	C	1.333431	0.044375	-0.000004
C24	C	1.318359	-0.066563	-0.000007
C25	C	1.707748	0.452974	-0.000010
C26	C	1.845676	0.480756	-0.000019
C27	C	1.495231	0.610407	-0.000018
C28	C	1.511279	0.728478	-0.000025
N29	N	1.430934	0.456357	0.353629
N30	N	1.532844	0.380426	-0.353644
C31	C	1.493194	0.409958	0.421411
C32	C	1.470575	0.426831	0.578577
H33	H	0.860672	0.317088	-0.000044
O34	O	1.576621	0.347519	0.351876
C35	C	1.633801	0.172005	0.307849
C36	C	1.539202	0.242579	0.386672
H37	H	1.603596	0.087153	0.335975
H38	H	1.637123	0.169427	0.193482
H39	H	1.730779	0.207218	0.335810
H40	H	1.442176	0.207420	0.358827
H41	H	1.535989	0.245156	0.501021
H42	H	0.895613	0.567697	-0.000014
H43	H	1.068156	0.269094	-0.000039
H44	H	1.400518	0.479046	0.636895
O45	O	1.112640	0.536502	0.000223
C46	C	1.129346	0.717404	0.117767
C47	C	1.061911	0.599933	0.117684
H48	H	1.088340	0.768726	0.212709
H49	H	1.233702	0.722159	0.117857
H50	H	1.115861	0.748306	0.022726
H51	H	1.075296	0.568958	0.212709
H52	H	0.957579	0.595247	0.117523
O53	O	1.616236	0.317885	0.576998
C54	C	1.673140	0.142278	0.533525
C55	C	1.578612	0.213029	0.612041
H56	H	1.642770	0.057494	0.561850
H57	H	1.676594	0.139546	0.419110
H58	H	1.770100	0.177449	0.561562
H59	H	1.481604	0.177912	0.584118
H60	H	1.575268	0.215760	0.726437
H61	H	1.715025	-0.245858	-0.000045
O62	O	1.347449	0.518655	0.423407
C63	C	1.248690	0.592184	0.643672
C64	C	1.343296	0.521624	0.564824
H65	H	1.245283	0.594589	0.758021
H66	H	1.278934	0.677098	0.615755
H67	H	1.151739	0.557036	0.615596
H68	H	1.440278	0.556677	0.592858
H69	H	1.312946	0.436718	0.592748
O70	O	1.672248	0.123233	-0.000079
C71	C	1.891895	0.128306	-0.000034
C72	C	1.760873	0.058040	0.000023
H73	H	1.963580	0.075629	0.000078
H74	H	1.918290	0.170447	-0.095051
H75	H	1.890794	0.190884	0.094937
H76	H	1.761875	-0.004595	-0.094883
H77	H	1.734531	0.015977	0.095103
H78	H	1.310340	-0.276577	-0.000031
O79	O	1.761168	-0.034711	-0.000093
C80	C	1.980813	-0.029624	-0.000018
C81	C	1.849796	-0.099897	0.000024
H82	H	2.052500	-0.082295	0.000106
H83	H	2.007214	0.012516	-0.095035
H84	H	1.979698	0.032955	0.094952
H85	H	1.850812	-0.162533	-0.094881
H86	H	1.823447	-0.141960	0.095105
H87	H	1.221416	-0.118627	-0.000009
H88	H	1.248752	0.082660	0.000015
