data_functionalizedCrystal
_audit_creation_method	'MofGen! by Chris Wilmer'
_symmetry_space_group_name_H-M	'P1'
_symmetry_Int_Tables_number	1
_symmetry_cell_setting	triclinic
loop_
_symmetry_equiv_pos_as_xyz
  x,y,z
_cell_length_a	19.188930
_cell_length_b	19.188923
_cell_length_c	17.666332
_cell_angle_alpha	89.988569
_cell_angle_beta	90.011603
_cell_angle_gamma	96.856820
loop_
_atom_site_label
_atom_site_type_symbol
_atom_site_fract_x
_atom_site_fract_y
_atom_site_fract_z
O1	O	0.087143	-0.926153	0.062993
O2	O	0.587143	-0.426153	0.562993
O3	O	0.098883	-0.722841	0.062988
O4	O	0.598883	-0.222841	0.562988
O5	O	-0.008643	-0.830364	0.062976
O6	O	0.491357	-0.330364	0.562976
O7	O	0.194669	-0.818630	0.063005
O8	O	0.694669	-0.318630	0.563005
O9	O	-0.008649	-0.830345	-0.062921
O10	O	0.491351	-0.330345	0.437079
O11	O	0.098877	-0.722822	-0.062909
O12	O	0.598877	-0.222822	0.437091
O13	O	0.087137	-0.926134	-0.062904
O14	O	0.587137	-0.426134	0.437096
Cu15	Cu	0.093007	-0.824477	-0.074402
Cu16	Cu	0.593007	-0.324477	0.425598
Cu17	Cu	0.093013	-0.824499	0.074486
Cu18	Cu	0.593013	-0.324499	0.574486
O19	O	0.194663	-0.818611	-0.062892
O20	O	0.694663	-0.318611	0.437108
C21	C	0.098501	-0.696820	0.000038
C22	C	0.598501	-0.196820	0.500038
C23	C	0.097362	-0.619316	0.000036
C24	C	0.597362	-0.119316	0.500036
C25	C	0.152831	-0.057545	0.000034
C26	C	0.652831	0.442455	0.500034
C27	C	0.153907	-0.130368	0.000039
C28	C	0.653907	0.369632	0.500039
C29	C	0.090814	-0.175303	0.000030
C30	C	0.590814	0.324697	0.500030
C31	C	0.026641	-0.147409	0.000034
C32	C	0.526641	0.352591	0.500034
C33	C	0.025567	-0.074586	0.000036
C34	C	0.525567	0.425414	0.500036
N35	N	0.045135	-0.295973	-0.042830
N36	N	0.545135	0.204027	0.457170
N37	N	0.046160	-0.365151	-0.042834
N38	N	0.546160	0.134849	0.457166
C39	C	0.094046	-0.394712	0.000026
C40	C	0.594046	0.105288	0.500026
N41	N	0.140880	-0.352481	0.042880
N42	N	0.640880	0.147519	0.542880
N43	N	0.139858	-0.283297	0.042880
N44	N	0.639858	0.216703	0.542880
C45	C	0.091972	-0.254267	0.000028
C46	C	0.591972	0.245733	0.500028
C47	C	0.159382	-0.501561	0.000034
C48	C	0.659382	-0.001561	0.500034
C49	C	0.160455	-0.574386	0.000044
C50	C	0.660455	-0.074386	0.500044
C51	C	0.033188	-0.591425	0.000031
C52	C	0.533188	-0.091425	0.500031
C53	C	0.032116	-0.518602	0.000028
C54	C	0.532116	-0.018602	0.500028
C55	C	0.095216	-0.473674	0.000026
C56	C	0.595216	0.026326	0.500026
C57	C	-0.034657	-0.829975	0.000025
C58	C	0.465343	-0.329975	0.500025
C59	C	-0.112161	-0.828834	0.000018
C60	C	0.387839	-0.328834	0.500018
C61	C	-0.157087	-0.891925	0.000017
C62	C	0.342913	-0.391925	0.500017
C63	C	-0.229911	-0.890853	0.000029
C64	C	0.270089	-0.390853	0.500029
C65	C	-0.257806	-0.826687	0.000028
C66	C	0.242194	-0.326687	0.500028
C67	C	-0.212870	-0.763588	0.000034
C68	C	0.287130	-0.263588	0.500034
C69	C	-0.140048	-0.764661	0.000029
C70	C	0.359952	-0.264661	0.500029
N71	N	-0.365811	-0.777633	-0.042819
N72	N	0.134189	-0.277633	0.457181
N73	N	-0.434990	-0.776618	-0.042816
N74	N	0.065010	-0.276618	0.457184
C75	C	-0.477214	-0.823449	0.000043
C76	C	0.022786	-0.323449	0.500043
N77	N	-0.447648	-0.871345	0.042889
N78	N	0.052352	-0.371345	0.542889
N79	N	-0.378463	-0.872362	0.042883
N80	N	0.121537	-0.372362	0.542883
C81	C	-0.336768	-0.825516	0.000033
C82	C	0.163232	-0.325516	0.500033
C83	C	-0.601104	-0.885382	0.000055
C84	C	-0.101104	-0.385382	0.500055
C85	C	-0.673929	-0.884308	0.000072
C86	C	-0.173929	-0.384308	0.500072
C87	C	-0.656887	-0.757041	0.000069
C88	C	-0.156887	-0.257041	0.500069
C89	C	-0.584064	-0.758117	0.000060
C90	C	-0.084064	-0.258117	0.500060
C91	C	-0.556177	-0.822290	0.000049
C92	C	-0.056177	-0.322290	0.500049
C93	C	0.220677	-0.819000	0.000060
C94	C	0.720677	-0.319000	0.500060
C95	C	0.298181	-0.820141	0.000072
C96	C	0.798181	-0.320141	0.500072
C97	C	0.087521	0.047846	0.000042
C98	C	0.587521	0.547846	0.500042
C99	C	0.088666	-0.029658	0.000033
C100	C	0.588666	0.470342	0.500033
N101	N	0.093001	-0.824466	-0.179121
N102	N	0.593001	-0.324466	0.320879
C103	C	0.045412	-0.872093	-0.218736
C104	C	0.545412	-0.372093	0.281264
C105	C	0.045409	-0.872097	-0.297984
C106	C	0.545409	-0.372097	0.202016
C107	C	0.093007	-0.824481	-0.337613
C108	C	0.593007	-0.324481	0.162387
C109	C	0.140600	-0.776845	-0.297989
C110	C	0.640600	-0.276845	0.202011
C111	C	0.140597	-0.776838	-0.218743
C112	C	0.640597	-0.276838	0.281257
N113	N	0.154814	-0.815404	-0.462023
N114	N	0.654814	-0.315404	0.037977
N115	N	0.154814	-0.815416	-0.537304
N116	N	0.654814	-0.315416	-0.037304
C117	C	0.093016	-0.824499	-0.576377
C118	C	0.593016	-0.324499	-0.076377
N119	N	0.031216	-0.833585	-0.537327
N120	N	0.531216	-0.333585	-0.037327
N121	N	0.031216	-0.833577	-0.462039
N122	N	0.531216	-0.333577	0.037961
C123	C	0.093015	-0.824483	-0.423543
C124	C	0.593015	-0.324483	0.076457
C125	C	0.045420	-0.872133	-0.701922
C126	C	0.545420	-0.372133	-0.201922
C127	C	0.045415	-0.872132	-0.781171
C128	C	0.545415	-0.372132	-0.281171
C129	C	0.140612	-0.776884	-0.781174
C130	C	0.640612	-0.276884	-0.281174
C131	C	0.140610	-0.776881	-0.701927
C132	C	0.640610	-0.276881	-0.201927
C133	C	0.093015	-0.824509	-0.662305
C134	C	0.593015	-0.324509	-0.162305
N135	N	0.093013	-0.824515	0.179205
N136	N	0.593013	-0.324515	0.679205
H137	H	-0.024729	-0.183999	0.000028
H138	H	0.475271	0.316001	0.500028
H139	H	-0.020133	-0.495897	0.000023
H140	H	0.479867	0.004103	0.500023
Br141	Br	-0.563254	-0.972472	0.000033
Br142	Br	-0.063254	-0.472472	0.500033
Br143	Br	-0.019181	-0.936767	-0.834939
Br144	Br	0.480819	-0.436767	-0.334939
Br145	Br	0.247544	-0.612233	0.000056
Br146	Br	0.747544	-0.112233	0.500056
Br147	Br	-0.052440	-0.652400	0.000034
Br148	Br	0.447560	-0.152400	0.500034
H149	H	-0.134387	-0.944180	0.000010
H150	H	0.365613	-0.444180	0.500010
H151	H	-0.266496	-0.942231	0.000030
H152	H	0.233504	-0.442231	0.500030
H153	H	-0.026685	-0.051883	0.000036
H154	H	0.473315	0.448117	0.500036
H155	H	0.210761	-0.464979	0.000033
H156	H	0.710761	0.035021	0.500033
Br157	Br	-0.250725	-0.676504	0.000042
Br158	Br	0.249275	-0.176504	0.500042
Br159	Br	-0.019176	-0.936768	-0.648148
Br160	Br	0.480824	-0.436768	-0.148148
Br161	Br	0.240994	-0.168224	0.000040
Br162	Br	0.740994	0.331776	0.500040
Br163	Br	-0.734903	-0.969940	0.000077
Br164	Br	-0.234903	-0.469940	0.500077
Br165	Br	-0.523089	-0.672488	0.000062
Br166	Br	-0.023089	-0.172488	0.500062
H167	H	0.179364	-0.738111	-0.813440
H168	H	0.679364	-0.238111	-0.313440
H169	H	-0.103469	-0.713283	0.000031
H170	H	0.396531	-0.213283	0.500031
H171	H	-0.679598	-0.704795	0.000072
H172	H	-0.179598	-0.204795	0.500072
Br173	Br	-0.019182	-0.936726	-0.164964
Br174	Br	0.480818	-0.436726	0.335036
Br175	Br	-0.019183	-0.936737	-0.351757
Br176	Br	0.480817	-0.436737	0.148243
H177	H	0.179353	-0.738074	-0.330259
H178	H	0.679353	-0.238074	0.169741
H179	H	0.179350	-0.738054	-0.186487
H180	H	0.679350	-0.238054	0.313513
H181	H	0.179365	-0.738102	-0.669670
H182	H	0.679365	-0.238102	-0.169670
H183	H	0.204211	-0.020968	0.000035
H184	H	0.704211	0.479032	0.500035
