data_functionalizedCrystal
_audit_creation_method	'MofGen! by Chris Wilmer'
_symmetry_space_group_name_H-M	'P1'
_symmetry_Int_Tables_number	1
_symmetry_cell_setting	triclinic
loop_
_symmetry_equiv_pos_as_xyz
  x,y,z
_cell_length_a	18.215407
_cell_length_b	19.805399
_cell_length_c	18.215405
_cell_angle_alpha	90.030649
_cell_angle_beta	89.977671
_cell_angle_gamma	89.986379
loop_
_atom_site_label
_atom_site_type_symbol
_atom_site_fract_x
_atom_site_fract_y
_atom_site_fract_z
Zn1	Zn	1.125045	-0.382653	0.293041
Zn2	Zn	1.625045	0.117347	0.793041
Zn3	Zn	1.124961	-0.269461	0.416113
Zn4	Zn	1.624961	0.230539	0.916113
Zn5	Zn	1.001985	-0.269484	0.293059
Zn6	Zn	1.501985	0.230516	0.793059
Zn7	Zn	1.001943	-0.382615	0.416065
Zn8	Zn	1.501943	0.117385	0.916065
O9	O	1.063484	-0.326053	0.354570
O10	O	1.563484	0.173947	0.854570
O11	O	1.228018	-0.367644	0.309380
O12	O	1.728018	0.132356	0.809380
O13	O	1.108631	-0.174748	0.399817
O14	O	1.608631	0.325252	0.899817
O15	O	1.018362	-0.284521	0.190073
O16	O	1.518362	0.215479	0.690073
O17	O	1.227956	-0.284483	0.399800
O18	O	1.727956	0.215517	0.899800
O19	O	1.108773	-0.367666	0.190059
O20	O	1.608773	0.132334	0.690059
O21	O	1.018281	-0.174764	0.309410
O22	O	1.518281	0.325236	0.809410
O23	O	0.898995	-0.284484	0.309364
O24	O	1.398995	0.215516	0.809364
O25	O	1.018290	-0.477336	0.399718
O26	O	1.518290	0.022664	0.899718
O27	O	0.898964	-0.367601	0.399736
O28	O	1.398964	0.132399	0.899736
O29	O	1.108732	-0.477364	0.309333
O30	O	1.608732	0.022636	0.809333
O31	O	1.108590	-0.284446	0.519091
O32	O	1.608590	0.215554	1.019091
O33	O	1.018209	-0.367579	0.519056
O34	O	1.518209	0.132421	1.019056
C35	C	0.872277	-0.326041	0.354547
C36	C	1.372277	0.173959	0.854547
C37	C	0.790478	-0.326052	0.354555
C38	C	1.290478	0.173948	0.854555
C39	C	1.063516	-0.502596	0.354519
C40	C	1.563516	-0.002596	0.854519
C41	C	1.063530	-0.577828	0.354497
C42	C	1.563530	-0.077828	0.854497
C43	C	0.602315	-0.369423	0.307570
C44	C	1.102315	0.130577	0.807570
C45	C	0.525457	-0.369425	0.307577
C46	C	1.025457	0.130575	0.807577
C47	C	0.525404	-0.282695	0.401590
C48	C	1.025404	0.217305	0.901590
C49	C	0.602261	-0.282690	0.401579
C50	C	1.102261	0.217310	0.901579
C51	C	0.640715	-0.326058	0.354570
C52	C	1.140715	0.173942	0.854570
C53	C	0.486999	-0.326065	0.354587
C54	C	0.986999	0.173935	0.854587
C55	C	0.403665	-0.326067	0.354595
C56	C	0.903665	0.173933	0.854595
C57	C	0.724054	-0.326055	0.354562
C58	C	1.224054	0.173945	0.854562
C59	C	1.016498	-0.613180	0.307417
C60	C	1.516498	-0.113180	0.807417
C61	C	1.016508	-0.683869	0.307403
C62	C	1.516508	-0.183869	0.807403
C63	C	1.063554	-0.719204	0.354465
C64	C	1.563554	-0.219204	0.854465
C65	C	1.110588	-0.683846	0.401550
C66	C	1.610588	-0.183846	0.901550
C67	C	1.110574	-0.613159	0.401567
C68	C	1.610574	-0.113159	0.901567
C69	C	1.110646	-0.968920	0.401481
C70	C	1.610646	-0.468920	0.901481
C71	C	1.110659	-1.039612	0.401458
C72	C	1.610659	-0.539612	0.901458
C73	C	1.016581	-1.039629	0.307317
C74	C	1.516581	-0.539629	0.807317
C75	C	1.016566	-0.968942	0.307334
C76	C	1.516566	-0.468942	0.807334
C77	C	1.063597	-0.933591	0.354421
C78	C	1.563597	-0.433591	0.854421
C79	C	1.063585	-0.856943	0.354437
C80	C	1.563585	-0.356943	0.854437
C81	C	1.063571	-0.795851	0.354446
C82	C	1.563571	-0.295851	0.854446
C83	C	1.255436	-0.326065	0.354593
C84	C	1.755436	0.173935	0.854593
C85	C	1.337235	-0.326071	0.354603
C86	C	1.837235	0.173929	0.854603
C87	C	1.063406	-0.326021	0.545776
C88	C	1.563406	0.173979	1.045776
C89	C	1.063440	-0.326029	0.627575
C90	C	1.563440	0.173971	1.127575
C91	C	1.063494	-0.150197	0.354567
C92	C	1.563494	0.349803	0.854567
C93	C	1.063623	-0.074966	0.354382
C94	C	1.563623	0.425034	0.854382
C95	C	1.063582	-0.326101	0.162617
C96	C	1.563582	0.173899	0.662617
C97	C	1.063623	-0.326121	0.080818
C98	C	1.563623	0.173879	0.580818
C99	C	1.110612	-0.282822	0.815762
C100	C	1.610612	0.217178	1.315762
C101	C	1.110645	-0.282838	0.892621
C102	C	1.610645	0.217162	1.392621
C103	C	1.016450	-0.369333	0.892625
C104	C	1.516450	0.130667	1.392625
C105	C	1.016421	-0.369320	0.815767
C106	C	1.516421	0.130680	1.315767
C107	C	1.063501	-0.326060	0.777338
C108	C	1.563501	0.173940	1.277338
C109	C	1.063562	-0.326090	0.931054
C110	C	1.563562	0.173910	1.431054
C111	C	1.063598	-0.326108	1.014388
C112	C	1.563598	0.173892	1.514388
C113	C	1.063467	-0.326043	0.693999
C114	C	1.563467	0.173957	1.193999
H115	H	0.633622	-0.404733	0.269290
H116	H	1.133622	0.095267	0.769290
F117	F	0.966423	-0.721490	0.257322
F118	F	1.466423	-0.221490	0.757322
F119	F	0.484592	-0.415579	0.257551
F120	F	0.984592	0.084421	0.757551
H121	H	0.978259	-0.940176	0.269009
H122	H	1.478259	-0.440176	0.769009
F123	F	0.643131	-0.236527	0.451600
F124	F	1.143131	0.263473	0.951600
F125	F	0.966428	-0.575580	0.257323
F126	F	1.466428	-0.075580	0.757323
F127	F	1.160733	-1.077217	0.451551
F128	F	1.660733	-0.577217	0.951551
F129	F	1.160788	-0.236819	0.933512
F130	F	1.660788	0.263181	1.433512
F131	F	0.966280	-0.415346	0.774871
F132	F	1.466280	0.084654	1.274871
F133	F	1.160654	-0.721454	0.451641
F134	F	1.660654	-0.221454	0.951641
F135	F	1.160629	-0.575535	0.451678
F136	F	1.660629	-0.075535	0.951678
H137	H	0.494085	-0.247388	0.439863
H138	H	0.994085	0.252612	0.939863
H139	H	0.978284	-1.068421	0.268978
H140	H	1.478284	-0.568421	0.768978
H141	H	1.148934	-0.940146	0.439830
H142	H	1.648934	-0.440146	0.939830
F143	F	0.966345	-0.415370	0.933530
F144	F	1.466345	0.084630	1.433530
H145	H	1.148948	-0.247598	0.784475
H146	H	1.648948	0.252402	1.284475
