data_functionalizedCrystal
_audit_creation_method	'MofGen! by Chris Wilmer'
_symmetry_space_group_name_H-M	'P1'
_symmetry_Int_Tables_number	1
_symmetry_cell_setting	triclinic
loop_
_symmetry_equiv_pos_as_xyz
  x,y,z
_cell_length_a	16.625545
_cell_length_b	16.625548
_cell_length_c	13.897441
_cell_angle_alpha	89.976353
_cell_angle_beta	90.031157
_cell_angle_gamma	89.974583
loop_
_atom_site_label
_atom_site_type_symbol
_atom_site_fract_x
_atom_site_fract_y
_atom_site_fract_z
Zn1	Zn	-0.320979	-1.232674	0.545452
Zn2	Zn	0.179021	-0.732674	1.045452
Zn3	Zn	-0.455829	-1.232566	0.384152
Zn4	Zn	0.044171	-0.732566	0.884152
Zn5	Zn	-0.321014	-1.097832	0.384163
Zn6	Zn	0.178986	-0.597832	0.884163
Zn7	Zn	-0.455773	-1.097798	0.545397
Zn8	Zn	0.044227	-0.597798	1.045397
O9	O	-0.388399	-1.165218	0.464791
O10	O	0.111601	-0.665218	0.964791
O11	O	-0.338876	-1.345492	0.524075
O12	O	0.161124	-0.845492	1.024075
O13	O	-0.437984	-1.214663	0.249172
O14	O	0.062016	-0.714663	0.749172
O15	O	-0.208177	-1.115778	0.405586
O16	O	0.291823	-0.615778	0.905586
O17	O	-0.437950	-1.345413	0.405568
O18	O	0.062050	-0.845413	0.905568
O19	O	-0.208151	-1.214846	0.524085
O20	O	0.291849	-0.714846	1.024085
O21	O	-0.338936	-1.115674	0.249179
O22	O	0.161064	-0.615674	0.749179
O23	O	-0.338881	-0.984995	0.405532
O24	O	0.161119	-0.484995	0.905532
O25	O	-0.437854	-1.115721	0.680386
O26	O	0.062146	-0.615721	1.180386
O27	O	-0.437888	-0.984971	0.523990
O28	O	0.062112	-0.484971	1.023990
O29	O	-0.338821	-1.214813	0.680427
O30	O	0.161179	-0.714813	1.180427
O31	O	-0.568654	-1.214630	0.405514
O32	O	-0.068654	-0.714630	0.905514
O33	O	-0.568613	-1.115617	0.523980
O34	O	-0.068613	-0.615617	1.023980
C35	C	-0.388383	-0.955727	0.464756
C36	C	0.111617	-0.455727	0.964756
C37	C	-0.388395	-0.866106	0.464764
C38	C	0.111605	-0.366106	0.964764
C39	C	-0.388394	-0.537930	0.464793
C40	C	0.111606	-0.037930	0.964793
C41	C	-0.388392	-0.629239	0.464782
C42	C	0.111608	-0.129239	0.964782
C43	C	-0.388395	-0.702015	0.464778
C44	C	0.111605	-0.202015	0.964778
C45	C	-0.388392	-0.793329	0.464768
C46	C	0.111608	-0.293329	0.964768
C47	C	-0.597890	-1.165130	0.464761
C48	C	-0.097890	-0.665130	0.964761
C49	C	-0.687511	-1.165166	0.464780
C50	C	-0.187511	-0.665166	0.964780
C51	C	-0.760293	-1.165198	0.464799
C52	C	-0.260293	-0.665198	0.964799
C53	C	-0.851602	-1.165245	0.464820
C54	C	-0.351602	-0.665245	0.964820
C55	C	-0.924378	-1.165286	0.464833
C56	C	-0.424378	-0.665286	0.964833
C57	C	-1.015692	-1.165333	0.464852
C58	C	-0.515692	-0.665333	0.964852
C59	C	-0.178090	-1.165328	0.464843
C60	C	0.321910	-0.665328	0.964843
C61	C	-0.088469	-1.165374	0.464865
C62	C	0.411531	-0.665374	0.964865
C63	C	-0.388327	-1.165275	0.716384
C64	C	0.111673	-0.665275	1.216384
C65	C	-0.388297	-1.165299	0.823598
C66	C	0.111703	-0.665299	1.323598
C67	C	-0.388410	-0.375527	0.464817
C68	C	0.111590	0.124473	0.964817
C69	C	-0.388401	-0.465148	0.464804
C70	C	0.111599	0.034852	0.964804
C71	C	-0.388412	-1.165207	0.214177
C72	C	0.111588	-0.665207	0.714177
C73	C	-0.388215	-1.165339	0.106963
C74	C	0.111785	-0.665339	0.606963
C75	C	-0.388243	-1.165321	1.019893
C76	C	0.111757	-0.665321	1.519893
C77	C	-0.388275	-1.165307	0.910661
C78	C	0.111725	-0.665307	1.410661
