data_functionalizedCrystal
_audit_creation_method	'MofGen! by Chris Wilmer'
_symmetry_space_group_name_H-M	'P1'
_symmetry_Int_Tables_number	1
_symmetry_cell_setting	triclinic
loop_
_symmetry_equiv_pos_as_xyz
  x,y,z
_cell_length_a	10.654559
_cell_length_b	12.503572
_cell_length_c	10.654551
_cell_angle_alpha	93.559139
_cell_angle_beta	95.512957
_cell_angle_gamma	93.553067
loop_
_atom_site_label
_atom_site_type_symbol
_atom_site_fract_x
_atom_site_fract_y
_atom_site_fract_z
O1	O	1.675015	0.089329	-0.169250
O2	O	1.309538	0.089328	-0.186045
O3	O	1.500678	0.089326	0.005091
O4	O	1.483874	0.089331	-0.360386
O5	O	1.486304	-0.089316	-0.009307
O6	O	1.295163	-0.089314	-0.200443
O7	O	1.660640	-0.089313	-0.183649
Cu8	Cu	1.476589	-0.105625	-0.193361
Cu9	Cu	1.493589	0.105640	-0.176333
O10	O	1.469500	-0.089311	-0.374785
C11	C	1.255553	0.000007	-0.192008
C12	C	1.116110	0.000006	-0.188312
N13	N	1.464642	-0.254217	-0.205337
C14	C	1.064570	0.000004	-0.072300
C15	C	0.933548	0.000013	-0.068833
C16	C	0.905618	0.000023	-0.297402
C17	C	1.036637	0.000022	-0.300866
C18	C	0.776307	0.062599	0.078245
C19	C	0.724762	0.062578	0.194262
C20	C	0.774576	-0.000025	0.288990
C21	C	0.875932	-0.062633	0.267705
C22	C	0.927470	-0.062621	0.151686
C23	C	0.877660	0.000007	0.056964
C24	C	1.193881	-0.062573	-0.447938
C25	C	1.245420	-0.062570	-0.563959
C26	C	1.195607	0.000027	-0.658699
C27	C	1.094244	0.062619	-0.637427
C28	C	1.042704	0.062615	-0.521406
C29	C	1.092527	0.000021	-0.426665
C30	C	1.447066	-0.473332	-0.222964
C31	C	1.523118	-0.526660	-0.146724
C32	C	1.513338	-0.648583	-0.156532
C33	C	1.456844	-0.351398	-0.213158
C34	C	1.714626	0.000010	-0.177685
C35	C	1.854069	0.000018	-0.181381
C36	C	1.492257	0.000007	0.044690
C37	C	1.488565	0.000012	0.184134
N38	N	1.505546	0.254232	-0.164347
C39	C	1.477921	0.000010	-0.414383
C40	C	1.481614	0.000012	-0.553827
C41	C	1.494668	0.097390	0.257486
C42	C	1.491188	0.097391	0.388507
C43	C	1.475507	-0.097374	0.372811
C44	C	1.478978	-0.097374	0.241791
C45	C	1.422411	0.214385	0.568011
C46	C	1.428535	0.311768	0.641371
C47	C	1.510046	0.397745	0.614758
C48	C	1.585464	0.386342	0.514791
C49	C	1.579350	0.288956	0.441439
C50	C	1.497810	0.202984	0.468047
C51	C	1.547766	-0.214360	0.062286
C52	C	1.541661	-0.311747	-0.011067
C53	C	1.460157	-0.397732	0.015544
C54	C	1.384758	-0.386340	0.115516
C55	C	1.390863	-0.288953	0.188870
C56	C	1.472365	-0.202967	0.162250
H57	H	1.129274	-0.000004	0.019350
H58	H	0.960163	0.113581	-0.504093
H59	H	1.053677	0.113585	-0.714575
H60	H	1.595572	-0.480748	-0.074087
H61	H	1.651846	0.456352	0.493142
H62	H	0.840895	0.000034	-0.389039
H63	H	1.374618	-0.519239	-0.295598
H64	H	1.237573	0.000015	-0.753174
H65	H	1.502470	0.176688	0.210545
H66	H	1.640755	0.279672	0.360049
H67	H	1.515031	0.477037	0.674497
H68	H	1.327951	-0.113546	-0.581276
H69	H	1.329460	-0.279681	0.270270
H70	H	1.614127	-0.144342	0.040600
H71	H	1.367122	0.321046	0.722763
H72	H	1.356021	0.144386	0.589679
H73	H	1.467704	-0.176661	0.419772
H74	H	1.009990	-0.113598	0.134355
H75	H	1.318364	-0.456346	0.137160
H76	H	1.234458	-0.113541	-0.370793
H77	H	1.455203	-0.477033	-0.044185
H78	H	1.603065	-0.321019	-0.092466
H79	H	0.642236	0.113560	0.211584
H80	H	0.916475	-0.113617	0.344843
H81	H	0.732597	-0.000042	0.383453
H82	H	0.735749	0.113592	0.001123
