data_functionalizedCrystal
_audit_creation_method	'MofGen! by Chris Wilmer'
_symmetry_space_group_name_H-M	'P1'
_symmetry_Int_Tables_number	1
_symmetry_cell_setting	triclinic
loop_
_symmetry_equiv_pos_as_xyz
  x,y,z
_cell_length_a	10.654554
_cell_length_b	13.339070
_cell_length_c	12.376442
_cell_angle_alpha	99.042895
_cell_angle_beta	102.542482
_cell_angle_gamma	100.058069
loop_
_atom_site_label
_atom_site_type_symbol
_atom_site_fract_x
_atom_site_fract_y
_atom_site_fract_z
O1	O	1.743486	0.160009	0.094024
O2	O	1.382588	0.173574	0.094021
O3	O	1.521616	0.019236	0.094019
O4	O	1.604457	0.314347	0.094026
O5	O	1.466515	-0.015865	-0.093996
O6	O	1.327486	0.138473	-0.093993
O7	O	1.688384	0.124908	-0.093991
Zn8	Zn	1.499186	0.126117	-0.123844
Zn9	Zn	1.571785	0.172365	0.123874
O10	O	1.549355	0.279246	-0.093989
C11	C	1.307902	0.155026	0.000014
C12	C	1.167452	0.152043	0.000013
C13	C	0.952316	0.055565	0.000025
C14	C	1.084281	0.058365	0.000014
C15	C	1.118649	0.242925	0.000012
C16	C	0.986685	0.240123	0.000015
C17	C	0.932477	-0.050989	0.000031
C18	C	1.064441	-0.048189	0.000020
C19	C	1.480073	-0.036102	0.000013
C20	C	1.438364	-0.148696	0.000017
C21	C	1.762680	-0.511209	0.000019
C22	C	1.801869	-0.405422	0.000009
C23	C	1.710996	-0.341236	0.000011
C24	C	1.580927	-0.382845	0.000023
C25	C	1.541731	-0.488644	0.000025
C26	C	1.490048	-0.318671	0.000017
C27	C	1.359978	-0.360281	0.000029
C28	C	1.320789	-0.466069	0.000032
C29	C	1.411662	-0.530255	0.000029
C30	C	1.529244	-0.212872	0.000016
C31	C	1.308295	-0.190307	0.000021
C32	C	1.269105	-0.296094	0.000032
C33	C	1.763070	0.143456	0.000019
C34	C	1.903523	0.146441	0.000028
C35	C	1.590900	0.334584	0.000020
C36	C	1.632611	0.447180	0.000023
N37	N	1.449649	0.094553	-0.292904
N38	N	1.621330	0.203921	0.292935
C39	C	1.334629	0.021305	0.647906
C40	C	1.299951	-0.000766	0.529564
C41	C	1.380293	0.050403	0.470401
C42	C	1.495319	0.123648	0.529591
C43	C	1.529996	0.145727	0.647944
C44	C	1.575660	0.174826	0.470440
C45	C	1.690686	0.248071	0.529630
C46	C	1.725358	0.270146	0.647971
C47	C	1.645015	0.218976	0.707134
C48	C	1.540983	0.152747	0.352086
C49	C	1.736349	0.277169	0.352125
C50	C	1.771028	0.299240	0.470466
H51	H	0.865983	-0.107353	-0.078648
F52	F	1.130679	-0.340391	0.000047
H53	H	1.819013	0.329794	0.696160
H54	H	1.115704	-0.073642	0.078704
H55	H	1.635146	-0.179005	0.000005
F56	F	1.177534	-0.078712	0.466578
F57	F	1.752710	-0.228648	0.000004
H58	H	1.269223	-0.020344	0.696087
H59	H	1.907771	-0.371552	-0.000003
H60	H	1.352051	0.032428	0.374042
F61	F	1.859372	-0.579528	-0.000001
H62	H	1.447327	0.093111	0.303905
H63	H	1.673250	0.236938	0.803498
H64	H	1.379761	-0.616396	0.000042
F65	F	1.207166	0.342623	-0.000001
F66	F	1.211572	-0.122001	0.000018
H67	H	1.864685	0.358878	0.518676
F68	F	1.182353	-0.510353	0.000030
H69	H	0.909183	-0.069763	0.081212
H70	H	1.075415	-0.095545	-0.081165
H71	H	1.801767	0.318841	0.303955
H72	H	0.946960	0.314120	0.000004
