data_functionalizedCrystal
_audit_creation_method	'MofGen! by Chris Wilmer'
_symmetry_space_group_name_H-M	'P1'
_symmetry_Int_Tables_number	1
_symmetry_cell_setting	triclinic
loop_
_symmetry_equiv_pos_as_xyz
  x,y,z
_cell_length_a	17.699083
_cell_length_b	10.268362
_cell_length_c	17.699083
_cell_angle_alpha	89.997763
_cell_angle_beta	96.716985
_cell_angle_gamma	89.998576
loop_
_atom_site_label
_atom_site_type_symbol
_atom_site_fract_x
_atom_site_fract_y
_atom_site_fract_z
O1	O	1.004076	0.108120	-0.095707
O2	O	1.504076	0.608120	0.404293
O3	O	0.783698	0.108163	-0.108160
O4	O	1.283698	0.608163	0.391840
O5	O	0.900113	0.108129	0.008256
O6	O	1.400113	0.608129	0.508256
O7	O	0.887661	0.108154	-0.212123
O8	O	1.387661	0.608154	0.287877
O9	O	0.900102	-0.108472	0.008252
O10	O	1.400102	0.391528	0.508252
O11	O	0.783687	-0.108437	-0.108164
O12	O	1.283687	0.391563	0.391836
O13	O	1.004065	-0.108480	-0.095711
O14	O	1.504065	0.391520	0.404289
Cu15	Cu	0.893875	-0.128236	-0.101938
Cu16	Cu	1.393875	0.371764	0.398062
Cu17	Cu	0.893888	0.127919	-0.101933
Cu18	Cu	1.393888	0.627919	0.398067
O19	O	0.887650	-0.108446	-0.212127
O20	O	1.387650	0.391554	0.287873
C21	C	0.755495	-0.000132	-0.107716
C22	C	1.255495	0.499868	0.392284
C23	C	0.671477	-0.000116	-0.106377
C24	C	1.171477	0.499884	0.393623
C25	C	0.622856	-0.000108	-0.174710
C26	C	1.122856	0.499892	0.325290
C27	C	0.543913	-0.000125	-0.173448
C28	C	1.043913	0.499875	0.326552
C29	C	0.513592	-0.000140	-0.103852
C30	C	1.013592	0.499860	0.396148
C31	C	0.562219	-0.000152	-0.035513
C32	C	1.062219	0.499848	0.464487
C33	C	0.641161	-0.000144	-0.036776
C34	C	1.141161	0.499856	0.463224
C35	C	0.243856	-0.000184	-0.030418
C36	C	0.743856	0.499816	0.469582
C37	C	0.164908	-0.000188	-0.029160
C38	C	0.664908	0.499812	0.470840
C39	C	0.146608	-0.000166	-0.167090
C40	C	0.646608	0.499834	0.332910
C41	C	0.225550	-0.000158	-0.168353
C42	C	0.725550	0.499842	0.331647
C43	C	0.274170	-0.000176	-0.100015
C44	C	0.774170	0.499824	0.399985
C45	C	0.359769	-0.000160	-0.101384
C46	C	0.859769	0.499840	0.398616
C47	C	0.427995	-0.000147	-0.102481
C48	C	0.927995	0.499853	0.397519
N49	N	0.893871	-0.308402	-0.101941
N50	N	1.393871	0.191598	0.398059
C51	C	0.893877	-0.426244	-0.101941
C52	C	1.393877	0.073756	0.398059
C53	C	0.893886	-0.574082	-0.101934
C54	C	1.393886	-0.074082	0.398066
C55	C	1.032268	-0.000183	-0.096156
C56	C	1.532268	0.499817	0.403844
C57	C	1.116286	-0.000190	-0.097494
C58	C	1.616286	0.499810	0.402506
C59	C	0.899662	-0.000171	0.036451
C60	C	1.399662	0.499829	0.536451
C61	C	0.898323	-0.000172	0.120469
C62	C	1.398323	0.499828	0.620469
N63	N	0.893898	0.308085	-0.101924
N64	N	1.393898	0.808085	0.398076
C65	C	0.888102	-0.000143	-0.240322
C66	C	1.388102	0.499857	0.259678
C67	C	0.889440	-0.000134	-0.324340
C68	C	1.389440	0.499866	0.175660
C69	C	0.966656	-0.000187	0.169090
C70	C	1.466656	0.499813	0.669090
C71	C	0.965394	-0.000175	0.248033
C72	C	1.465394	0.499825	0.748033
C73	C	0.895798	-0.000157	0.278354
C74	C	1.395798	0.499843	0.778354
C75	C	0.827459	-0.000138	0.229727
C76	C	1.327459	0.499862	0.729727
C77	C	0.828722	-0.000141	0.150785
C78	C	1.328722	0.499859	0.650785
C79	C	0.822364	-0.000127	0.548090
C80	C	1.322364	0.499873	1.048090
C81	C	0.821106	-0.000128	0.627038
C82	C	1.321106	0.499872	1.127038
C83	C	0.959036	-0.000161	0.645338
C84	C	1.459036	0.499839	1.145338
C85	C	0.960299	-0.000163	0.566396
C86	C	1.460299	0.499837	1.066396
C87	C	0.891961	-0.000138	0.517776
C88	C	1.391961	0.499862	1.017776
C89	C	0.893330	-0.000148	0.432177
C90	C	1.393330	0.499852	0.932177
C91	C	0.894427	-0.000156	0.363951
C92	C	1.394427	0.499844	0.863951
H93	H	0.140225	-0.000202	0.027517
H94	H	0.640225	0.499798	0.527517
N95	N	0.693609	-0.000144	0.036924
N96	N	1.193609	0.499856	0.536924
H97	H	0.726770	-0.080438	0.039471
H98	H	1.226770	0.419562	0.539471
H99	H	0.662372	-0.000103	0.081164
H100	H	1.162372	0.499897	0.581164
N101	N	0.746036	-0.000087	0.659740
N102	N	1.246036	0.499913	1.159740
H103	H	0.755609	-0.000094	0.717127
H104	H	1.255609	0.499906	1.217127
H105	H	0.716129	-0.080371	0.641947
H106	H	1.216129	0.419629	1.141947
N107	N	1.041722	-0.000218	0.136389
N108	N	1.541722	0.499782	0.636389
H109	H	1.084819	-0.000224	0.179172
H110	H	1.584819	0.499776	0.679172
H111	H	1.045256	0.080075	0.104031
H112	H	1.545256	0.580075	0.604031
H113	H	0.537526	-0.000183	0.021154
H114	H	1.037526	0.499817	0.521154
H115	H	1.016971	-0.000184	0.541714
H116	H	1.516971	0.499816	1.041714
N117	N	0.748660	-0.000104	0.495655
N118	N	1.248660	0.499896	0.995655
H119	H	0.704382	-0.000099	0.526845
H120	H	1.204382	0.499901	1.026845
H121	H	0.746174	-0.080400	0.462504
H122	H	1.246174	0.419600	0.962504
H123	H	1.021038	-0.000190	0.287618
H124	H	1.521038	0.499810	0.787618
H125	H	0.250232	-0.000140	-0.225025
H126	H	0.750232	0.499860	0.274975
N127	N	0.755019	-0.000160	0.098342
N128	N	1.255019	0.499840	0.598342
H129	H	0.766378	-0.000168	0.043732
H130	H	1.266378	0.499832	0.543732
H131	H	0.724677	0.080136	0.108137
H132	H	1.224677	0.580136	0.608137
N133	N	0.296291	-0.000213	0.043286
N134	N	0.796291	0.499787	0.543286
H135	H	0.265101	-0.000221	0.087564
H136	H	0.765101	0.499779	0.587564
H137	H	0.329444	0.080081	0.045775
H138	H	0.829444	0.580081	0.545775
N139	N	1.032747	-0.000189	0.697778
N140	N	1.532747	0.499811	1.197778
H141	H	1.021391	-0.000181	0.752389
H142	H	1.521391	0.499819	1.252389
H143	H	1.063093	0.080095	0.687973
H144	H	1.563093	0.580095	1.187973
N145	N	0.491506	-0.000142	-0.247173
N146	N	0.991506	0.499858	0.252827
H147	H	0.458329	0.080136	-0.249754
H148	H	0.958329	0.580136	0.250246
H149	H	0.458409	-0.080505	-0.249695
H150	H	0.958409	0.419495	0.250305
N151	N	0.752393	-0.000111	0.262425
N152	N	1.252393	0.499889	0.762425
H153	H	0.761960	-0.000116	0.319812
H154	H	1.261960	0.499884	0.819812
H155	H	0.722493	-0.080400	0.244630
H156	H	1.222493	0.419600	0.744630
H157	H	0.647537	-0.000095	-0.231384
H158	H	1.147537	0.499905	0.268616
H159	H	0.107012	-0.000158	-0.222734
H160	H	0.607012	0.499842	0.277266
