data_functionalizedCrystal
_audit_creation_method	'MofGen! by Chris Wilmer'
_symmetry_space_group_name_H-M	'P1'
_symmetry_Int_Tables_number	1
_symmetry_cell_setting	triclinic
loop_
_symmetry_equiv_pos_as_xyz
  x,y,z
_cell_length_a	6.817900
_cell_length_b	17.982959
_cell_length_c	16.305550
_cell_angle_alpha	95.663793
_cell_angle_beta	103.455250
_cell_angle_gamma	102.451857
loop_
_atom_site_label
_atom_site_type_symbol
_atom_site_fract_x
_atom_site_fract_y
_atom_site_fract_z
V1	V	-4.021185	-0.106056	-0.263386
O2	O	-4.014053	0.004435	-0.258009
O3	O	-3.967692	-0.209656	-0.261933
O4	O	-3.972655	-0.104715	-0.378098
O5	O	-4.009056	-0.101232	-0.141040
V6	V	-4.505489	-0.092806	-0.248710
O7	O	-4.280728	-0.135122	-0.295579
O8	O	-4.696143	-0.063740	-0.216517
O9	O	-4.335776	0.010793	-0.250163
O10	O	-4.630018	-0.203297	-0.254086
O11	O	-4.635015	-0.097630	-0.371056
O12	O	-4.330813	-0.094147	-0.133997
C13	C	-3.811458	-0.234902	-0.257868
C14	C	-3.849007	-0.319597	-0.257445
C15	C	-3.817788	-0.101039	-0.406047
C16	C	-3.859359	-0.100628	-0.499828
C17	C	-4.048560	-0.363278	-0.261467
C18	C	-4.083832	-0.442859	-0.261074
C19	C	-3.919546	-0.478757	-0.256654
C20	C	-3.719978	-0.435071	-0.252634
C21	C	-3.684711	-0.355492	-0.253032
C22	C	-3.862200	-0.756002	-0.251027
C23	C	-3.897482	-0.835586	-0.250626
C24	C	-4.261321	-0.843370	-0.259069
C25	C	-4.226054	-0.763791	-0.259467
C26	C	-4.026493	-0.720112	-0.255452
C27	C	-3.988250	-0.633822	-0.255879
C28	C	-3.957783	-0.565045	-0.256220
C29	C	-4.010522	-0.099036	-0.840568
C30	C	-3.774699	-0.094308	-0.799624
C31	C	-3.731470	-0.095051	-0.702131
C32	C	-3.935526	-0.099825	-0.671523
C33	C	-4.098969	-0.175070	-0.722401
C34	C	-4.140853	-0.174645	-0.819949
C35	C	-4.068613	-0.029120	-0.794491
C36	C	-4.020712	-0.028524	-0.696646
C37	C	-3.893155	-0.100274	-0.575986
C38	C	-4.052902	-0.098592	-0.936105
C39	C	-4.155351	0.036035	-0.254225
C40	C	-4.097040	0.120730	-0.254654
C41	C	-4.149022	-0.097826	-0.106044
C42	C	-4.086689	-0.098233	-0.012263
H43	H	-4.182342	-0.334056	-0.265059
H44	H	-3.763691	-0.864812	-0.247031
H45	H	-4.251828	-0.181285	-0.703509
H46	H	-3.586218	-0.464305	-0.249039
H47	H	-4.168045	-0.027588	-0.675295
H48	H	-3.699708	-0.720448	-0.247752
H49	H	-3.671155	-0.039952	-0.811805
C50	C	-3.860782	0.046664	-0.649960
H51	H	-3.742588	0.034661	-0.615295
H52	H	-3.819341	0.076581	-0.690680
H53	H	-3.921747	0.075130	-0.615084
C54	C	-4.303342	-0.490911	-0.265512
H55	H	-4.300830	-0.543448	-0.264657
H56	H	-4.347016	-0.472396	-0.217869
H57	H	-4.397610	-0.486543	-0.316769
C58	C	-4.375252	-0.183553	-0.857801
H59	H	-4.402411	-0.183349	-0.917618
H60	H	-4.451264	-0.230862	-0.847236
H61	H	-4.416678	-0.141934	-0.831905
C62	C	-4.300867	-0.032887	-0.830731
H63	H	-4.362201	-0.076828	-0.873731
H64	H	-4.369160	-0.036561	-0.786184
H65	H	-4.314517	0.012398	-0.854655
H66	H	-4.359834	-0.734567	-0.263063
H67	H	-4.102182	-0.227573	-0.850507
H68	H	-3.979933	0.027893	-0.807668
C69	C	-4.020695	-0.246596	-0.699934
H70	H	-4.120686	-0.291845	-0.731042
H71	H	-3.892625	-0.244320	-0.714420
H72	H	-4.000513	-0.247754	-0.640473
C73	C	-4.480846	-0.891421	-0.263500
H74	H	-4.478337	-0.943958	-0.262641
H75	H	-4.524498	-0.872899	-0.215854
H76	H	-4.575131	-0.887057	-0.314754
H77	H	-3.522219	-0.319928	-0.249761
H78	H	-3.607555	-0.040950	-0.666927
C79	C	-3.710538	-0.162167	-0.842412
H80	H	-3.826844	-0.193369	-0.885118
H81	H	-3.601781	-0.142827	-0.867809
H82	H	-3.663441	-0.192181	-0.800703
H83	H	-3.662619	-0.145862	-0.686007
