data_functionalizedCrystal
_audit_creation_method	'MofGen! by Chris Wilmer'
_symmetry_space_group_name_H-M	'P1'
_symmetry_Int_Tables_number	1
_symmetry_cell_setting	triclinic
loop_
_symmetry_equiv_pos_as_xyz
  x,y,z
_cell_length_a	14.853567
_cell_length_b	13.930277
_cell_length_c	10.654551
_cell_angle_alpha	89.998847
_cell_angle_beta	84.060146
_cell_angle_gamma	90.001833
loop_
_atom_site_label
_atom_site_type_symbol
_atom_site_fract_x
_atom_site_fract_y
_atom_site_fract_z
O1	O	1.197244	0.079759	0.163955
O2	O	0.934889	0.079774	0.183487
O3	O	1.072098	0.079766	-0.009081
O4	O	1.060035	0.079766	0.356523
O5	O	1.072084	-0.079895	-0.009075
O6	O	0.934875	-0.079888	0.183492
O7	O	1.197230	-0.079903	0.163961
Zn8	Zn	1.066051	-0.105245	0.173727
Zn9	Zn	1.066069	0.105116	0.173720
O10	O	1.060021	-0.079896	0.356528
C11	C	0.901289	-0.000055	0.182605
C12	C	0.801191	-0.000048	0.179952
N13	N	1.066045	-0.248811	0.173731
C14	C	1.005280	-0.299071	0.258974
C15	C	1.126815	-0.299056	0.088484
C16	C	1.126825	-0.399552	0.088478
C17	C	1.066060	-0.449812	0.173721
C18	C	1.005286	-0.399576	0.258969
C19	C	1.187592	-0.449796	0.003223
C20	C	1.187603	-0.550297	0.003214
C21	C	1.126842	-0.600559	0.088464
C22	C	1.066066	-0.550317	0.173716
C23	C	1.005301	-0.600577	0.258959
C24	C	0.944529	-0.550337	0.344218
C25	C	0.944525	-0.449838	0.344219
C26	C	1.126846	-0.701058	0.088463
C27	C	1.005307	-0.701082	0.258954
C28	C	0.387984	-0.000070	0.054353
C29	C	0.367929	-0.000069	0.283127
C30	C	0.461976	-0.000066	0.285621
C31	C	0.519032	-0.000063	0.172479
C32	C	0.482040	-0.000064	0.056843
C33	C	0.498974	-0.000056	0.401255
C34	C	0.593027	-0.000052	0.403753
C35	C	0.650084	-0.000056	0.290609
C36	C	0.613088	-0.000057	0.174969
C37	C	0.670143	-0.000055	0.061826
C38	C	0.633149	-0.000063	-0.053815
C39	C	0.539098	-0.000068	-0.056301
C40	C	0.744135	-0.000051	0.293095
C41	C	0.764200	-0.000049	0.064317
C42	C	1.230830	-0.000072	0.164843
C43	C	1.330928	-0.000072	0.167495
C44	C	1.071205	-0.000062	-0.055867
C45	C	1.068555	-0.000056	-0.195283
N46	N	1.066081	0.248682	0.173706
C47	C	1.067319	0.086974	-0.260785
C48	C	1.064820	0.086970	-0.391779
C49	C	1.064798	-0.087102	-0.391758
C50	C	1.067290	-0.087097	-0.260765
C51	C	1.067335	0.187474	-0.260798
C52	C	1.064837	0.187470	-0.391793
C53	C	1.060914	-0.000065	0.403314
C54	C	1.063565	-0.000065	0.542730
H55	H	0.955828	-0.741998	0.328374
H56	H	1.176322	-0.741959	0.019041
H57	H	0.895046	-0.408926	0.413633
H58	H	0.999088	0.218666	-0.420678
F59	F	1.063449	-0.179732	-0.461460
F60	F	1.252282	-0.603760	-0.087522
H61	H	1.127142	0.226053	-0.438732
H62	H	0.955803	-0.258163	0.328395
F63	F	0.499719	-0.000073	-0.179364
F64	F	1.252253	-0.396306	-0.087502
F65	F	0.879856	-0.603838	0.434930
H66	H	1.176284	-0.258132	0.019075
F67	F	1.068580	-0.179726	-0.191053
F68	F	0.438248	-0.000045	0.521660
F69	F	0.307204	-0.000060	0.403534
H70	H	0.357859	-0.000080	-0.039800
F71	F	0.824916	-0.000053	-0.056108
F72	F	0.632391	-0.000044	0.526827
H73	H	0.679616	-0.000055	-0.145936
H74	H	0.774252	-0.000046	0.387249
H75	H	1.005038	0.226069	-0.213871
H76	H	1.133091	0.218652	-0.231916
