data_functionalizedCrystal
_audit_creation_method	'MofGen! by Chris Wilmer'
_symmetry_space_group_name_H-M	'P1'
_symmetry_Int_Tables_number	1
_symmetry_cell_setting	triclinic
loop_
_symmetry_equiv_pos_as_xyz
  x,y,z
_cell_length_a	17.038272
_cell_length_b	16.992695
_cell_length_c	16.053802
_cell_angle_alpha	87.258926
_cell_angle_beta	87.238566
_cell_angle_gamma	89.110110
loop_
_atom_site_label
_atom_site_type_symbol
_atom_site_fract_x
_atom_site_fract_y
_atom_site_fract_z
O1	O	1.051195	-0.167893	-0.069325
O2	O	1.551195	0.332107	0.430675
O3	O	0.823395	-0.165177	-0.069350
O4	O	1.323395	0.334823	0.430650
O5	O	0.936382	-0.052332	-0.069331
O6	O	1.436382	0.447668	0.430669
O7	O	0.938209	-0.280738	-0.069344
O8	O	1.438209	0.219262	0.430656
O9	O	0.930161	-0.058516	0.069527
O10	O	1.430161	0.441484	0.569527
O11	O	0.817174	-0.171361	0.069508
O12	O	1.317174	0.328639	0.569508
O13	O	1.044974	-0.174077	0.069533
O14	O	1.544974	0.325923	0.569533
Zn15	Zn	0.930087	-0.173701	0.091567
Zn16	Zn	1.430087	0.326299	0.591567
Zn17	Zn	0.938283	-0.165553	-0.091384
Zn18	Zn	1.438283	0.334447	0.408616
O19	O	0.931988	-0.286922	0.069514
O20	O	1.431988	0.213078	0.569514
C21	C	0.930922	-0.026054	0.000098
C22	C	1.430922	0.473946	0.500098
C23	C	0.923911	0.061457	0.000097
C24	C	1.423911	0.561457	0.500097
C25	C	0.791002	-0.165799	0.000076
C26	C	1.291002	0.334201	0.500076
C27	C	0.703747	-0.158432	0.000067
C28	C	1.203747	0.341568	0.500067
N29	N	0.924499	-0.179261	0.216426
N30	N	1.424499	0.320739	0.716426
C31	C	0.657877	-0.226072	0.000064
C32	C	1.157877	0.273928	0.500064
C33	C	0.575891	-0.219145	0.000076
C34	C	1.075891	0.280855	0.500076
C35	C	0.539777	-0.144578	0.000085
C36	C	1.039777	0.355422	0.500085
C37	C	0.585654	-0.076933	0.000090
C38	C	1.085654	0.423067	0.500090
C39	C	0.667637	-0.083861	0.000084
C40	C	1.167637	0.416139	0.500084
C41	C	0.292483	-0.120105	0.000108
C42	C	0.792483	0.379895	0.500108
C43	C	0.210493	-0.113182	0.000112
C44	C	0.710493	0.386818	0.500112
C45	C	0.200736	-0.255395	0.000099
C46	C	0.700736	0.244605	0.500099
C47	C	0.282722	-0.262316	0.000088
C48	C	0.782722	0.237684	0.500088
C49	C	0.328591	-0.194671	0.000098
C50	C	0.828591	0.305329	0.500098
C51	C	0.455975	-0.137496	0.000094
C52	C	0.955975	0.362504	0.500094
C53	C	0.412392	-0.201754	0.000094
C54	C	0.912392	0.298246	0.500094
C55	C	1.077368	-0.173454	0.000105
C56	C	1.577368	0.326546	0.500105
C57	C	1.164623	-0.180822	0.000109
C58	C	1.664623	0.319178	0.500109
C59	C	0.937448	-0.313199	0.000083
C60	C	1.437448	0.186801	0.500083
C61	C	0.944458	-0.400711	0.000079
C62	C	1.444458	0.099289	0.500079
C63	C	0.991551	0.107186	0.000105
C64	C	1.491551	0.607186	0.500105
C65	C	0.984960	0.189412	0.000096
C66	C	1.484960	0.689412	0.500096
C67	C	0.910728	0.225909	0.000085
C68	C	1.410728	0.725909	0.500085
C69	C	0.843083	0.180175	0.000075
C70	C	1.343083	0.680175	0.500075
C71	C	0.849676	0.097950	0.000077
C72	C	1.349676	0.597950	0.500077
C73	C	0.883406	0.471330	0.000071
C74	C	1.383406	0.971330	0.500071
C75	C	0.876819	0.553561	0.000071
C76	C	1.376819	1.053561	0.500071
C77	C	1.018696	0.562793	0.000091
C78	C	1.518696	1.062793	0.500091
C79	C	1.025282	0.480565	0.000098
C80	C	1.525282	0.980565	0.500098
C81	C	0.957637	0.434839	0.000083
C82	C	1.457637	0.934839	0.500083
N83	N	0.903989	0.309958	0.000079
N84	N	1.403989	0.809958	0.500079
N85	N	0.964377	0.350792	0.000083
N86	N	1.464377	0.850792	0.500083
N87	N	0.943877	-0.159987	-0.216244
N88	N	1.443877	0.340013	0.283756
C89	C	0.972594	-0.131265	0.260128
C90	C	1.472594	0.368735	0.760128
C91	C	0.968693	-0.135162	0.347534
C92	C	1.468693	0.364838	0.847534
C93	C	0.916700	-0.187061	0.391237
C94	C	1.416700	0.312939	0.891237
C95	C	0.868599	-0.235059	0.347529
C96	C	1.368599	0.264941	0.847529
C97	C	0.872497	-0.231157	0.260124
C98	C	1.372497	0.268843	0.760124
C99	C	0.899673	-0.204083	0.652644
C100	C	1.399673	0.295917	1.152644
C101	C	0.895781	-0.207983	0.740054
C102	C	1.395781	0.292017	1.240054
C103	C	0.995875	-0.108085	0.740054
C104	C	1.495875	0.391915	1.240054
C105	C	0.999771	-0.104191	0.652648
C106	C	1.499771	0.395809	1.152648
C107	C	0.951667	-0.152186	0.608947
C108	C	1.451667	0.347814	1.108947
N109	N	0.912713	-0.191048	0.480580
N110	N	1.412713	0.308952	0.980580
N111	N	0.955651	-0.148195	0.519606
N112	N	1.455651	0.351805	1.019606
H113	H	0.687274	-0.286792	0.000056
H114	H	1.187274	0.213208	0.500056
Br115	Br	0.757875	0.035889	0.000060
Br116	Br	1.257875	0.535889	0.500060
Br117	Br	1.126030	0.431041	0.000086
Br118	Br	1.626030	0.931041	0.500086
Br119	Br	1.092299	0.057662	0.000132
Br120	Br	1.592299	0.557662	0.500132
Br121	Br	0.798029	-0.305488	0.406836
Br122	Br	1.298029	0.194512	0.906836
Br123	Br	1.043167	-0.060834	0.200827
Br124	Br	1.543167	0.439166	0.700827
Br125	Br	1.061154	-0.042951	0.799364
Br126	Br	1.561154	0.457049	1.299364
Br127	Br	1.033964	-0.070021	0.406847
Br128	Br	1.533964	0.429979	0.906847
H129	H	0.782642	0.209897	0.000061
H130	H	1.282642	0.709897	0.500061
Br131	Br	1.070337	-0.033761	0.593336
Br132	Br	1.570337	0.466239	1.093336
Br133	Br	0.406957	-0.036300	0.000106
Br134	Br	0.906957	0.463700	0.500106
H135	H	0.828325	0.434109	0.000059
H136	H	1.328325	0.934109	0.500059
Br137	Br	0.138482	-0.347193	0.000086
Br138	Br	0.638482	0.152807	0.500086
H139	H	0.853439	-0.250248	0.775633
H140	H	1.353439	0.249752	1.275633
H141	H	0.860506	-0.243164	0.617070
H142	H	1.360506	0.256836	1.117070
H143	H	0.538547	-0.274225	0.000072
H144	H	1.038547	0.225775	0.500072
Br145	Br	0.331729	-0.363517	0.000066
Br146	Br	0.831729	0.136483	0.500066
H147	H	1.040040	0.226641	0.000105
H148	H	1.540040	0.726641	0.500105
H149	H	0.833331	-0.270239	0.224543
H150	H	1.333331	0.229761	0.724543
Br151	Br	0.161481	-0.011978	0.000142
Br152	Br	0.661481	0.488022	0.500142
H153	H	0.329820	-0.065023	0.000117
H154	H	0.829820	0.434977	0.500117
Br155	Br	0.776068	0.603091	0.000065
Br156	Br	1.276068	1.103091	0.500065
H157	H	0.556243	-0.016219	0.000110
H158	H	1.056243	0.483781	0.500110
H159	H	0.704984	-0.028781	0.000087
H160	H	1.204984	0.471219	0.500087
H161	H	1.073768	0.600032	0.000101
H162	H	1.573768	1.100032	0.500101
Br163	Br	0.461404	-0.302950	0.000087
Br164	Br	0.961404	0.197050	0.500087
