data_functionalizedCrystal
_audit_creation_method	'MofGen! by Chris Wilmer'
_symmetry_space_group_name_H-M	'P1'
_symmetry_Int_Tables_number	1
_symmetry_cell_setting	triclinic
loop_
_symmetry_equiv_pos_as_xyz
  x,y,z
_cell_length_a	6.394989
_cell_length_b	17.699083
_cell_length_c	16.176319
_cell_angle_alpha	90.001389
_cell_angle_beta	90.003737
_cell_angle_gamma	84.890363
loop_
_atom_site_label
_atom_site_type_symbol
_atom_site_fract_x
_atom_site_fract_y
_atom_site_fract_z
O1	O	-0.264132	-1.006774	-0.068625
O2	O	-0.298496	-0.786747	-0.068651
O3	O	0.022766	-0.899883	-0.068638
O4	O	-0.585394	-0.893637	-0.068638
O5	O	0.022787	-0.899867	0.068855
O6	O	-0.298475	-0.786730	0.068842
O7	O	-0.264111	-1.006758	0.068868
Cu8	Cu	-0.281291	-0.896743	0.081409
Cu9	Cu	-0.281315	-0.896762	-0.081193
O10	O	-0.585373	-0.893621	0.068855
C11	C	-0.297254	-0.758529	0.000092
C12	C	-0.293560	-0.674473	0.000081
C13	C	-0.265353	-1.034976	0.000123
C14	C	-0.269047	-1.119031	0.000128
N15	N	-0.281273	-0.896735	0.195774
C16	C	0.100592	-0.898640	0.000105
C17	C	0.336808	-0.894866	0.000104
N18	N	-0.281317	-0.896776	-0.195558
C19	C	-0.482134	-0.627777	0.000082
C20	C	-0.478651	-0.548798	0.000092
C21	C	-0.286591	-0.516517	0.000097
C22	C	-0.098003	-0.563220	0.000099
C23	C	-0.101488	-0.642197	0.000094
C24	C	-0.083942	-0.244713	0.000119
C25	C	-0.080470	-0.165730	0.000122
C26	C	-0.461104	-0.151314	0.000118
C27	C	-0.464590	-0.230291	0.000113
C28	C	-0.276002	-0.276987	0.000119
C29	C	-0.279782	-0.362625	0.000109
C30	C	-0.282810	-0.430881	0.000101
C31	C	-0.139076	-0.946848	0.239044
C32	C	-0.139074	-0.946852	0.325591
C33	C	-0.281280	-0.896746	0.368867
C34	C	-0.423484	-0.846627	0.325591
C35	C	-0.423474	-0.846620	0.239045
C36	C	-0.423523	-0.846653	0.674619
C37	C	-0.423526	-0.846666	0.761171
C38	C	-0.139123	-0.946885	0.761165
C39	C	-0.139113	-0.946878	0.674620
C40	C	-0.281308	-0.896757	0.631351
C41	C	-0.281306	-0.896753	0.537507
C42	C	-0.281294	-0.896753	0.462710
H43	H	-0.632207	-0.510780	0.000092
H44	H	0.075937	-0.139450	0.000126
H45	H	-0.539264	-0.805826	0.360831
O46	O	0.099305	-0.290032	-0.000027
C47	C	0.215946	-0.275100	-0.071224
H48	H	0.105529	-0.249176	-0.120996
H49	H	0.336623	-0.233746	-0.055124
C50	C	0.465111	-0.381512	-0.042383
C51	C	0.329493	-0.349678	-0.103516
H52	H	0.535162	-0.427513	-0.062301
H53	H	0.386534	-0.391570	0.005586
H54	H	0.565657	-0.347043	-0.028971
H55	H	0.228936	-0.384142	-0.116919
H56	H	0.408057	-0.339627	-0.151488
O57	O	0.081747	-0.687529	-0.000057
C58	C	0.198397	-0.672604	-0.071254
H59	H	0.087992	-0.646672	-0.121025
H60	H	0.319096	-0.631258	-0.055152
C61	C	0.447515	-0.779030	-0.042416
C62	C	0.311911	-0.747186	-0.103548
H63	H	0.517545	-0.825035	-0.062335
H64	H	0.368932	-0.789085	0.005553
H65	H	0.548079	-0.744568	-0.029003
H66	H	0.211335	-0.781643	-0.116952
H67	H	0.390481	-0.737139	-0.151520
O68	O	-0.000733	-0.995549	0.197138
C69	C	0.124739	-1.039792	0.253893
H70	H	0.126981	-1.008746	0.315589
H71	H	0.057114	-1.096658	0.263087
C72	C	0.347368	-1.091375	0.144350
C73	C	0.350136	-1.053240	0.220124
H74	H	0.486401	-1.099674	0.123519
H75	H	0.262831	-1.061570	0.106112
H76	H	0.291004	-1.138760	0.152023
H77	H	0.406475	-1.005853	0.212449
H78	H	0.434688	-1.083038	0.258360
O79	O	-0.000742	-0.995431	0.367656
C80	C	0.127964	-0.953688	0.417743
H81	H	0.131300	-0.893968	0.391673
H82	H	0.062591	-0.950352	0.483334
C83	C	0.348261	-1.066621	0.451084
C84	C	0.352372	-0.993273	0.419062
H85	H	0.486684	-1.091039	0.451902
H86	H	0.261545	-1.094744	0.417343
H87	H	0.293774	-1.063830	0.505741
H88	H	0.406833	-0.996065	0.364403
H89	H	0.439102	-0.965151	0.452794
H90	H	-0.023323	-0.987682	0.639387
O91	O	-0.000683	-0.995531	0.803108
C92	C	0.206037	-0.981246	0.781982
H93	H	0.205674	-0.952074	0.719146
H94	H	0.270497	-0.942962	0.830695
C95	C	0.345705	-1.092593	0.855156
C96	C	0.345262	-1.056770	0.777977
H97	H	0.431590	-1.139179	0.852689
H98	H	0.206435	-1.102216	0.869393
H99	H	0.399417	-1.060682	0.895742
H100	H	0.291526	-1.088677	0.737394
H101	H	0.484526	-1.047154	0.763733
H102	H	-0.539331	-0.805860	0.796404
H103	H	-0.539263	-0.805812	0.203816
O104	O	-0.644112	-0.105842	0.000156
C105	C	-0.599869	-0.029212	0.000144
H106	H	-0.435830	-0.024620	0.026180
H107	H	-0.607903	-0.006455	-0.065817
C108	C	-0.963751	0.011911	0.022084
C109	C	-0.762283	0.017552	0.054069
H110	H	-1.063940	0.040759	0.055344
H111	H	-0.993562	-0.039716	0.022090
H112	H	-0.970416	0.030875	-0.032882
H113	H	-0.755613	-0.001420	0.109030
H114	H	-0.732475	0.069177	0.054074
O115	O	-0.561858	-0.797945	0.632724
C116	C	-0.687339	-0.753714	0.689482
H117	H	-0.689592	-0.784774	0.751168
H118	H	-0.619713	-0.696850	0.698700
C119	C	-0.909948	-0.702106	0.579936
C120	C	-0.912730	-0.740258	0.655698
H121	H	-1.048978	-0.693802	0.559096
H122	H	-0.825405	-0.731903	0.541696
H123	H	-0.853583	-0.654724	0.587629
H124	H	-0.969069	-0.787643	0.648002
H125	H	-0.997288	-0.710468	0.693936
H126	H	0.058376	-0.536930	0.000114
H127	H	-0.620984	-0.256569	0.000106
H128	H	-0.638531	-0.654053	0.000078
