data_functionalizedCrystal
_audit_creation_method	'MofGen! by Chris Wilmer'
_symmetry_space_group_name_H-M	'P1'
_symmetry_Int_Tables_number	1
_symmetry_cell_setting	triclinic
loop_
_symmetry_equiv_pos_as_xyz
  x,y,z
_cell_length_a	6.817900
_cell_length_b	15.301126
_cell_length_c	11.102291
_cell_angle_alpha	93.598251
_cell_angle_beta	108.605752
_cell_angle_gamma	104.177575
loop_
_atom_site_label
_atom_site_type_symbol
_atom_site_fract_x
_atom_site_fract_y
_atom_site_fract_z
V1	V	-4.088958	-0.124770	-0.396645
O2	O	-4.071654	0.005984	-0.388697
O3	O	-4.043544	-0.247387	-0.394315
O4	O	-4.066089	-0.122856	-0.569462
O5	O	-4.048953	-0.119409	-0.212338
V6	V	-4.568891	-0.109130	-0.374554
O7	O	-4.358092	-0.159078	-0.445104
O8	O	-4.749954	-0.074821	-0.326096
O9	O	-4.391098	0.013487	-0.376885
O10	O	-4.703592	-0.239884	-0.382502
O11	O	-4.726293	-0.114491	-0.558861
O12	O	-4.368553	-0.111044	-0.201738
C13	C	-3.888445	-0.277278	-0.388156
C14	C	-3.932771	-0.377519	-0.387403
C15	C	-3.917203	-0.118425	-0.611572
C16	C	-3.979808	-0.117672	-0.752852
C17	C	-4.136772	-0.429205	-0.393402
C18	C	-4.178412	-0.523393	-0.392702
C19	C	-4.016045	-0.565891	-0.385992
C20	C	-3.812030	-0.514199	-0.379996
C21	C	-3.770397	-0.420014	-0.380706
C22	C	-3.898818	-0.710509	-0.378514
C23	C	-3.940452	-0.804700	-0.377802
C24	C	-4.306834	-0.813888	-0.390510
C25	C	-4.265200	-0.719704	-0.391220
C26	C	-4.061186	-0.668017	-0.385221
C27	C	-4.192413	-0.121815	-0.825713
C28	C	-4.251216	-0.121089	-0.958457
C29	C	-3.884789	-0.112080	-0.945468
C30	C	-3.825986	-0.112800	-0.812725
C31	C	-4.403969	-0.127020	-0.833214
C32	C	-4.462772	-0.126294	-0.965958
C33	C	-4.209539	0.043373	-0.383040
C34	C	-4.144452	0.143613	-0.383802
C35	C	-4.180781	-0.115477	-0.159621
C36	C	-4.097414	-0.116227	-0.018339
H37	H	-4.344527	-0.565472	-0.397589
H38	H	-4.510820	-0.062270	-0.994862
H39	H	-3.759561	-0.108112	-0.994232
C40	C	-4.638472	-0.213327	-1.036475
C41	C	-4.687171	-0.267286	-0.946902
C42	C	-4.848948	-0.347480	-1.011814
H43	H	-4.763983	-0.198380	-1.086608
H44	H	-4.589642	-0.246082	-1.091124
H45	H	-4.736009	-0.234537	-0.892274
H46	H	-4.561709	-0.282258	-0.896765
H47	H	-4.800118	-0.380234	-1.066464
H48	H	-4.974445	-0.332523	-1.061945
H49	H	-4.881997	-0.384104	-0.951049
H50	H	-4.268989	-0.394609	-0.398853
C51	C	-3.764470	-0.850982	-0.370736
C52	C	-3.832310	-0.916960	-0.479827
C53	C	-3.670261	-0.959620	-0.473355
H54	H	-3.636923	-0.806816	-0.367334
H55	H	-3.736100	-0.879347	-0.295748
H56	H	-3.860652	-0.888596	-0.554794
H57	H	-3.959834	-0.961144	-0.483250
H58	H	-3.641891	-0.987984	-0.398368
H59	H	-3.542724	-0.915448	-0.469951
H60	H	-3.716276	-1.004396	-0.547365
H61	H	-4.397413	-0.685103	-0.396675
H62	H	-4.434519	-0.065817	-0.785929
H63	H	-4.472942	-0.855974	-0.395375
H64	H	-3.732696	-0.668430	-0.373640
C65	C	-3.549075	-0.363877	-0.374454
C66	C	-3.569059	-0.321714	-0.484393
C67	C	-3.365220	-0.270005	-0.478693
H68	H	-3.488027	-0.318633	-0.300066
H69	H	-3.458298	-0.402653	-0.370422
H70	H	-3.659803	-0.282941	-0.488413
H71	H	-3.630072	-0.366936	-0.558798
H72	H	-3.274443	-0.308781	-0.474660
H73	H	-3.304188	-0.224767	-0.404301
H74	H	-3.378749	-0.241399	-0.553289
H75	H	-4.487195	-0.194266	-0.808959
C76	C	-3.635693	-0.560358	-0.372448
C77	C	-3.594260	-0.601981	-0.261763
C78	C	-3.431806	-0.644499	-0.254754
H79	H	-3.681116	-0.605210	-0.446293
H80	H	-3.508151	-0.516104	-0.368907
H81	H	-3.721775	-0.646230	-0.265315
H82	H	-3.548802	-0.557148	-0.187900
H83	H	-3.304264	-0.600245	-0.251213
H84	H	-3.477246	-0.689346	-0.328604
H85	H	-3.403659	-0.672737	-0.179649
H86	H	-3.652869	-0.109427	-0.753406
