data_functionalizedCrystal
_audit_creation_method	'MofGen! by Chris Wilmer'
_symmetry_space_group_name_H-M	'P1'
_symmetry_Int_Tables_number	1
_symmetry_cell_setting	triclinic
loop_
_symmetry_equiv_pos_as_xyz
  x,y,z
_cell_length_a	18.101398
_cell_length_b	18.101397
_cell_length_c	16.625539
_cell_angle_alpha	89.968146
_cell_angle_beta	89.973613
_cell_angle_gamma	90.018196
loop_
_atom_site_label
_atom_site_type_symbol
_atom_site_fract_x
_atom_site_fract_y
_atom_site_fract_z
Zn1	Zn	1.132187	-0.294873	-0.456015
Zn2	Zn	1.382187	-0.044873	-0.206015
Zn3	Zn	1.632187	0.205127	0.043985
Zn4	Zn	1.882187	0.455127	0.293985
Zn5	Zn	1.132103	-0.418722	-0.321173
Zn6	Zn	1.382103	-0.168722	-0.071173
Zn7	Zn	1.632103	0.081278	0.178827
Zn8	Zn	1.882103	0.331278	0.428827
Zn9	Zn	1.008343	-0.294894	-0.321181
Zn10	Zn	1.258343	-0.044894	-0.071181
Zn11	Zn	1.508343	0.205106	0.178819
Zn12	Zn	1.758343	0.455106	0.428819
Zn13	Zn	1.008320	-0.418672	-0.455950
Zn14	Zn	1.258320	-0.168672	-0.205950
Zn15	Zn	1.508320	0.081328	0.044050
Zn16	Zn	1.758320	0.331328	0.294050
O17	O	1.070238	-0.356790	-0.388580
O18	O	1.320238	-0.106790	-0.138580
O19	O	1.570238	0.143210	0.111420
O20	O	1.820238	0.393210	0.361420
O21	O	1.235809	-0.311314	-0.438151
O22	O	1.485809	-0.061314	-0.188151
O23	O	1.735809	0.188686	0.061849
O24	O	1.985809	0.438686	0.311849
O25	O	1.115660	-0.402326	-0.208342
O26	O	1.365660	-0.152326	0.041658
O27	O	1.615660	0.097674	0.291658
O28	O	1.865660	0.347674	0.541658
O29	O	1.024816	-0.191258	-0.339098
O30	O	1.274816	0.058742	-0.089098
O31	O	1.524816	0.308742	0.160902
O32	O	1.774816	0.558742	0.410902
O33	O	1.235747	-0.402305	-0.339084
O34	O	1.485747	-0.152305	-0.089084
O35	O	1.735747	0.097695	0.160916
O36	O	1.985747	0.347695	0.410916
O37	O	1.115804	-0.191243	-0.438159
O38	O	1.365804	0.058757	-0.188159
O39	O	1.615804	0.308757	0.061841
O40	O	1.865804	0.558757	0.311841
O41	O	1.024734	-0.311350	-0.208348
O42	O	1.274734	-0.061350	0.041652
O43	O	1.524734	0.188650	0.291652
O44	O	1.774734	0.438650	0.541652
O45	O	0.904707	-0.311301	-0.339035
O46	O	1.154707	-0.061301	-0.089035
O47	O	1.404707	0.188699	0.160965
O48	O	1.654707	0.438699	0.410965
O49	O	1.024777	-0.402221	-0.568791
O50	O	1.274777	-0.152221	-0.318791
O51	O	1.524777	0.097779	-0.068791
O52	O	1.774777	0.347779	0.181209
O53	O	0.904690	-0.402241	-0.438049
O54	O	1.154690	-0.152241	-0.188049
O55	O	1.404690	0.097759	0.061951
O56	O	1.654690	0.347759	0.311951
O57	O	1.115782	-0.311266	-0.568838
O58	O	1.365782	-0.061266	-0.318838
O59	O	1.615782	0.188734	-0.068838
O60	O	1.865782	0.438734	0.181162
O61	O	1.115638	-0.522348	-0.339021
O62	O	1.365638	-0.272348	-0.089021
O63	O	1.615638	-0.022348	0.160979
O64	O	1.865638	0.227652	0.410979
O65	O	1.024695	-0.522312	-0.438041
O66	O	1.274695	-0.272312	-0.188041
O67	O	1.524695	-0.022312	0.061959
O68	O	1.774695	0.227688	0.311959
C69	C	0.877828	-0.356769	-0.388536
C70	C	1.127828	-0.106769	-0.138536
C71	C	1.377828	0.143231	0.111464
C72	C	1.627828	0.393231	0.361464
C73	C	0.795514	-0.356777	-0.388536
C74	C	1.045514	-0.106777	-0.138536
C75	C	1.295514	0.143223	0.111464
C76	C	1.545514	0.393223	0.361464
C77	C	0.644805	-0.356792	-0.388573
C78	C	0.894805	-0.106792	-0.138573
C79	C	1.144805	0.143208	0.111427
C80	C	1.394805	0.393208	0.361427
C81	C	0.613437	-0.299494	-0.326380
C82	C	0.863437	-0.049494	-0.076380
C83	C	1.113437	0.200506	0.173620
C84	C	1.363437	0.450506	0.423620
C85	C	0.527819	-0.299278	-0.326584
C86	C	0.777819	-0.049278	-0.076584
C87	C	1.027819	0.200722	0.173416
C88	C	1.277819	0.450722	0.423416
C89	C	0.496423	-0.356807	-0.388607
C90	C	0.746423	-0.106807	-0.138607
C91	C	0.996423	0.143193	0.111393
C92	C	1.246423	0.393193	0.361393
C93	C	0.527561	-0.335973	-0.473679
C94	C	0.777561	-0.085973	-0.223679
C95	C	1.027561	0.164027	0.026321
C96	C	1.277561	0.414027	0.276321
C97	C	0.613206	-0.335549	-0.473300
C98	C	0.863206	-0.085549	-0.223300
C99	C	1.113206	0.164451	0.026700
C100	C	1.363206	0.414451	0.276700
C101	C	0.613215	-0.435073	-0.366443
C102	C	0.863215	-0.185073	-0.116443
C103	C	1.113215	0.064927	0.133557
C104	C	1.363215	0.314927	0.383557
C105	C	0.527564	-0.434661	-0.364590
C106	C	0.777564	-0.184661	-0.114590
C107	C	1.027564	0.065339	0.135410
C108	C	1.277564	0.315339	0.385410
C109	C	0.412563	-0.356817	-0.388632
C110	C	0.662563	-0.106817	-0.138632
C111	C	0.912563	0.143183	0.111368
C112	C	1.162563	0.393183	0.361368
C113	C	0.728665	-0.356781	-0.388554
C114	C	0.978665	-0.106781	-0.138554
C115	C	1.228665	0.143219	0.111446
C116	C	1.478665	0.393219	0.361446
C117	C	1.070175	-0.549201	-0.388541
C118	C	1.320175	-0.299201	-0.138541
C119	C	1.570175	-0.049201	0.111459
C120	C	1.820175	0.200799	0.361459
C121	C	1.070216	-0.631515	-0.388551
C122	C	1.320216	-0.381515	-0.138551
C123	C	1.570216	-0.131515	0.111449
C124	C	1.820216	0.118485	0.361449
C125	C	1.070310	-0.930606	-0.388625
C126	C	1.320310	-0.680606	-0.138625
C127	C	1.570310	-0.430606	0.111375
C128	C	1.820310	-0.180606	0.361375
C129	C	1.127369	-0.899273	-0.326157
C130	C	1.377369	-0.649273	-0.076157
C131	C	1.627369	-0.399273	0.173843
C132	C	1.877369	-0.149273	0.423843
C133	C	1.127567	-0.813654	-0.326319
C134	C	1.377567	-0.563654	-0.076319
C135	C	1.627567	-0.313654	0.173681
C136	C	1.877567	-0.063654	0.423681
C137	C	1.070263	-0.782223	-0.388587
C138	C	1.320263	-0.532223	-0.138587
C139	C	1.570263	-0.282223	0.111413
C140	C	1.820263	-0.032223	0.361413
C141	C	1.091421	-0.813230	-0.473580
C142	C	1.341421	-0.563230	-0.223580
C143	C	1.591421	-0.313230	0.026420
C144	C	1.841421	-0.063230	0.276420
C145	C	1.091863	-0.898875	-0.473240
C146	C	1.341863	-0.648875	-0.223240
C147	C	1.591863	-0.398875	0.026760
C148	C	1.841863	-0.148875	0.276760
C149	C	0.991941	-0.899112	-0.366835
C150	C	1.241941	-0.649112	-0.116835
C151	C	1.491941	-0.399112	0.133165
C152	C	1.741941	-0.149112	0.383165
C153	C	0.992328	-0.813463	-0.364938
C154	C	1.242328	-0.563463	-0.114938
C155	C	1.492328	-0.313463	0.135062
C156	C	1.742328	-0.063463	0.385062
C157	C	1.070235	-0.698364	-0.388572
C158	C	1.320235	-0.448364	-0.138572
C159	C	1.570235	-0.198364	0.111428
C160	C	1.820235	0.051636	0.361428
C161	C	1.070340	-1.014465	-0.388646
C162	C	1.320340	-0.764465	-0.138646
C163	C	1.570340	-0.514465	0.111354
C164	C	1.820340	-0.264465	0.361354
C165	C	1.263400	-0.356813	-0.388624
C166	C	1.513400	-0.106813	-0.138624
C167	C	1.763400	0.143187	0.111376
C168	C	2.013400	0.393187	0.361376
C169	C	1.345714	-0.356822	-0.388643
C170	C	1.595714	-0.106822	-0.138643
C171	C	1.845714	0.143178	0.111357
C172	C	2.095714	0.393178	0.361357
C173	C	1.070286	-0.356735	-0.598889
C174	C	1.320286	-0.106735	-0.348889
C175	C	1.570286	0.143265	-0.098889
C176	C	1.820286	0.393265	0.151111
C177	C	1.070307	-0.356712	-0.688510
C178	C	1.320307	-0.106712	-0.438510
C179	C	1.570307	0.143288	-0.188510
C180	C	1.820307	0.393288	0.061490
C181	C	1.070322	-0.163628	-0.388637
C182	C	1.320322	0.086372	-0.138637
C183	C	1.570322	0.336372	0.111363
C184	C	1.820322	0.586372	0.361363
C185	C	1.070358	-0.081314	-0.388661
C186	C	1.320358	0.168686	-0.138661
C187	C	1.570358	0.418686	0.111339
C188	C	1.820358	0.668686	0.361339
C189	C	1.070341	-0.356629	-1.016686
C190	C	1.320341	-0.106629	-0.766686
C191	C	1.570341	0.143371	-0.516686
C192	C	1.820341	0.393371	-0.266686
C193	C	1.070330	-0.356654	-0.925377
C194	C	1.320330	-0.106654	-0.675377
C195	C	1.570330	0.143346	-0.425377
C196	C	1.820330	0.393346	-0.175377
C197	C	1.070324	-0.356671	-0.852601
C198	C	1.320324	-0.106671	-0.602601
C199	C	1.570324	0.143329	-0.352601
C200	C	1.820324	0.393329	-0.102601
C201	C	1.070312	-0.356695	-0.761286
C202	C	1.320312	-0.106695	-0.511286
C203	C	1.570312	0.143305	-0.261286
C204	C	1.820312	0.393305	-0.011286
C205	C	1.070233	-0.356792	-0.179089
C206	C	1.320233	-0.106792	0.070911
C207	C	1.570233	0.143208	0.320911
C208	C	1.820233	0.393208	0.570911
C209	C	1.070356	-0.356607	-0.089468
C210	C	1.320356	-0.106607	0.160532
C211	C	1.570356	0.143393	0.410532
C212	C	1.820356	0.393393	0.660532
H213	H	0.507229	-0.376436	-0.521301
H214	H	0.757229	-0.126436	-0.271301
H215	H	1.007229	0.123564	-0.021301
H216	H	1.257229	0.373564	0.228699
F217	F	0.971470	-0.786981	-0.283186
F218	F	1.221470	-0.536981	-0.033186
F219	F	1.471470	-0.286981	0.216814
F220	F	1.721470	-0.036981	0.466814
H221	H	1.185104	-0.920743	-0.340409
H222	H	1.435104	-0.670743	-0.090409
H223	H	1.685104	-0.420743	0.159591
H224	H	1.935104	-0.170743	0.409591
F225	F	0.500294	-0.316261	-0.244146
F226	F	0.750294	-0.066261	0.005854
F227	F	1.000294	0.183739	0.255854
F228	F	1.250294	0.433739	0.505854
F229	F	1.039895	-0.925965	-0.536143
F230	F	1.289895	-0.675965	-0.286143
F231	F	1.539895	-0.425965	-0.036143
F232	F	1.789895	-0.175965	0.213857
F233	F	0.639342	-0.260770	-0.497748
F234	F	0.889342	-0.010770	-0.247748
F235	F	1.139342	0.239230	0.002252
F236	F	1.389342	0.489230	0.252252
H237	H	1.149147	-0.918796	-0.491696
H238	H	1.399147	-0.668796	-0.241696
H239	H	1.649147	-0.418796	0.008304
H240	H	1.899147	-0.168796	0.258304
F241	F	0.640310	-0.316270	-0.243672
F242	F	0.890310	-0.066270	0.006328
F243	F	1.140310	0.183730	0.256328
F244	F	1.390310	0.433730	0.506328
H245	H	0.633499	-0.477759	-0.411742
H246	H	0.883499	-0.227759	-0.161742
H247	H	1.133499	0.022241	0.088258
H248	H	1.383499	0.272241	0.338258
H249	H	0.949427	-0.919375	-0.412332
H250	H	1.199427	-0.669375	-0.162332
H251	H	1.449427	-0.419375	0.087668
H252	H	1.699427	-0.169375	0.337668
H253	H	1.114330	-0.792694	-0.263299
H254	H	1.364330	-0.542694	-0.013299
H255	H	1.614330	-0.292694	0.236701
H256	H	1.864330	-0.042694	0.486701
F257	F	0.501056	-0.223466	-0.345789
F258	F	0.751056	0.026534	-0.095789
F259	F	1.001056	0.276534	0.154211
F260	F	1.251056	0.526534	0.404211
H261	H	0.507209	-0.450376	-0.301980
H262	H	0.757209	-0.200376	-0.051980
H263	H	1.007209	0.049624	0.198020
H264	H	1.257209	0.299624	0.448020
H265	H	0.634778	-0.454098	-0.305444
H266	H	0.884778	-0.204098	-0.055444
H267	H	1.134778	0.045902	0.194556
H268	H	1.384778	0.295902	0.444556
H269	H	0.506185	-0.479615	-0.406555
H270	H	0.756185	-0.229615	-0.156555
H271	H	1.006185	0.020385	0.093445
H272	H	1.256185	0.270385	0.343445
H273	H	0.947527	-0.792075	-0.407103
H274	H	1.197527	-0.542075	-0.157103
H275	H	1.447527	-0.292075	0.092897
H276	H	1.697527	-0.042075	0.342897
H277	H	0.972693	-0.920773	-0.305933
H278	H	1.222693	-0.670773	-0.055933
H279	H	1.472693	-0.420773	0.194067
H280	H	1.722693	-0.170773	0.444067
F281	F	0.641586	-0.224105	-0.345335
F282	F	0.891586	0.025895	-0.095335
F283	F	1.141586	0.275895	0.154665
F284	F	1.391586	0.525895	0.404665
F285	F	1.203444	-0.786802	-0.345168
F286	F	1.453444	-0.536802	-0.095168
F287	F	1.703444	-0.286802	0.154832
F288	F	1.953444	-0.036802	0.404832
F289	F	0.640336	-0.387748	-0.535963
F290	F	0.890336	-0.137748	-0.285963
F291	F	1.140336	0.112252	-0.035963
F292	F	1.390336	0.362252	0.214037
F293	F	1.110281	-0.926259	-0.243537
F294	F	1.360281	-0.676259	0.006463
F295	F	1.610281	-0.426259	0.256463
F296	F	1.860281	-0.176259	0.506463
F297	F	1.038758	-0.786624	-0.536052
F298	F	1.288758	-0.536624	-0.286052
F299	F	1.538758	-0.286624	-0.036052
F300	F	1.788758	-0.036624	0.213948
H301	H	1.148064	-0.791724	-0.492348
H302	H	1.398064	-0.541724	-0.242348
H303	H	1.648064	-0.291724	0.007652
H304	H	1.898064	-0.041724	0.257652
H305	H	0.506131	-0.279395	-0.492713
H306	H	0.756131	-0.029395	-0.242713
H307	H	1.006131	0.220605	0.007287
H308	H	1.256131	0.470605	0.257287
