data_functionalizedCrystal
_audit_creation_method	'MofGen! by Chris Wilmer'
_symmetry_space_group_name_H-M	'P1'
_symmetry_Int_Tables_number	1
_symmetry_cell_setting	triclinic
loop_
_symmetry_equiv_pos_as_xyz
  x,y,z
_cell_length_a	23.532407
_cell_length_b	10.723024
_cell_length_c	9.798715
_cell_angle_alpha	89.998022
_cell_angle_beta	90.001663
_cell_angle_gamma	83.658273
loop_
_atom_site_label
_atom_site_type_symbol
_atom_site_fract_x
_atom_site_fract_y
_atom_site_fract_z
O1	O	0.756242	0.151465	-0.113317
O2	O	0.590521	0.173381	-0.113357
O3	O	0.677204	-0.019272	-0.113331
O4	O	0.669559	0.344118	-0.113343
O5	O	0.677197	-0.019273	0.113651
O6	O	0.590514	0.173381	0.113625
O7	O	0.756235	0.151465	0.113665
Zn8	Zn	0.673374	0.162423	0.149683
Zn9	Zn	0.673382	0.162423	-0.149376
O10	O	0.669552	0.344118	0.113639
C11	C	0.676644	-0.065755	0.000158
C12	C	0.674980	-0.204257	0.000153
C13	C	0.569298	0.172823	0.000129
C14	C	0.506070	0.171145	0.000114
C15	C	0.723483	-0.280751	0.000162
C16	C	0.721764	-0.423901	0.000157
C17	C	0.107638	0.274629	0.000172
C18	C	0.048228	0.273070	0.000181
O19	O	0.012106	0.369001	0.000227
N20	N	0.024859	0.158538	0.000182
C21	C	0.060903	0.045557	0.000189
O22	O	0.035570	-0.052005	0.000192
C23	C	0.120312	0.047117	0.000190
C24	C	0.143678	0.161656	0.000175
C25	C	0.131005	0.389159	0.000158
C26	C	0.190411	0.390717	0.000147
C27	C	0.226451	0.277745	0.000150
C28	C	0.203084	0.163215	0.000164
C29	C	0.156356	-0.065863	0.000207
C30	C	0.215768	-0.064293	0.000210
C31	C	0.239134	0.050247	0.000194
C32	C	0.298530	0.051801	0.000156
N33	N	0.321900	0.166333	0.000155
C34	C	0.285860	0.279305	0.000152
C35	C	-0.063861	0.042289	0.000189
C36	C	-0.123269	0.040728	0.000177
C37	C	-0.135940	0.268242	0.000172
C38	C	-0.076531	0.269802	0.000173
C39	C	-0.040491	0.156821	0.000187
C40	C	0.410618	0.282569	0.000128
C41	C	0.470030	0.284117	0.000111
C42	C	0.482696	0.056604	0.000124
C43	C	0.423289	0.055055	0.000133
C44	C	0.387251	0.168048	0.000140
O45	O	0.334687	-0.044080	0.000115
O46	O	0.311201	0.376851	0.000166
C47	C	0.777458	0.152023	0.000176
C48	C	0.840686	0.153701	0.000182
C49	C	0.670112	0.390600	0.000147
C50	C	0.671776	0.529103	0.000143
N51	N	0.673372	0.162421	0.353783
N52	N	0.673388	0.162414	-0.353475
C53	C	0.709768	0.081180	0.421571
C54	C	0.709777	0.081176	0.578733
H55	H	0.766281	-0.240262	0.000181
N56	N	0.399410	-0.061932	0.000121
N57	N	0.367666	-0.088184	-0.095545
H58	H	0.350804	-0.170808	-0.095545
N59	N	0.748861	-0.006107	0.651847
N60	N	0.747484	-0.121400	0.635992
H61	H	0.775088	-0.183050	0.687628
N62	N	0.519524	-0.058778	0.000115
N63	N	0.572566	-0.057355	0.000109
H64	H	0.598578	-0.138844	0.000109
H65	H	0.632181	-0.244746	0.000134
H66	H	0.763286	-0.489627	0.000171
H67	H	0.630251	-0.405179	0.000144
H68	H	-0.057511	0.363070	0.000168
N69	N	0.634303	0.249697	0.573416
N70	N	0.652805	0.326747	0.493656
H71	H	0.625201	0.388393	0.442014
N72	N	0.493887	0.401133	0.000086
N73	N	0.461698	0.501990	0.000085
H74	H	0.478544	0.584632	0.000068
N75	N	0.748843	-0.006076	0.348406
N76	N	0.748779	-0.005953	0.220841
H77	H	0.776376	-0.067581	0.169169
H78	H	0.381282	0.374578	0.000137
N79	N	0.214264	0.507729	0.000130
N80	N	0.182070	0.608579	0.000128
H81	H	0.198912	0.691226	0.000118
H82	H	0.642217	0.231968	0.412098
N83	N	-0.147122	-0.076284	0.000193
N84	N	-0.136232	-0.152273	0.095875
H85	H	-0.153076	-0.234919	0.095894
H86	H	0.101666	0.481160	0.000161
N87	N	-0.172758	0.383647	0.000214
N88	N	-0.170364	0.459975	0.095903
H89	H	-0.196367	0.541476	0.095937
N90	N	-0.027058	-0.073137	0.000198
N91	N	-0.047936	-0.175382	0.000201
H92	H	-0.021947	-0.256903	0.000210
H93	H	0.137342	-0.159133	0.000221
H94	H	0.245109	-0.156298	0.000222
