data_functionalizedCrystal
_audit_creation_method	'MofGen! by Chris Wilmer'
_symmetry_space_group_name_H-M	'P1'
_symmetry_Int_Tables_number	1
_symmetry_cell_setting	triclinic
loop_
_symmetry_equiv_pos_as_xyz
  x,y,z
_cell_length_a	20.875492
_cell_length_b	15.698487
_cell_length_c	15.698487
_cell_angle_alpha	89.998743
_cell_angle_beta	121.692572
_cell_angle_gamma	58.317647
loop_
_atom_site_label
_atom_site_type_symbol
_atom_site_fract_x
_atom_site_fract_y
_atom_site_fract_z
Zr1	Zr	0.740620	0.769565	0.162982
O2	O	0.881782	0.623816	0.308765
O3	O	0.599458	0.820995	0.111521
O4	O	0.740617	0.811264	0.298995
O5	O	0.740626	0.633544	-0.018889
O6	O	0.740614	0.951449	0.298990
O7	O	0.740624	0.633546	0.121292
O8	O	0.488107	0.968855	-0.036367
O9	O	0.993134	0.616138	0.316467
O10	O	0.657518	0.939392	0.097750
O11	O	0.657522	0.834772	-0.006862
O12	O	0.823718	0.823316	0.213865
O13	O	0.823722	0.718696	0.109253
Zr14	Zr	0.740620	0.993140	-0.060599
Zr15	Zr	0.740616	0.993144	0.162974
Zr16	Zr	0.740625	0.769562	-0.060590
Zr17	Zr	0.918213	0.757320	0.175266
Zr18	Zr	0.563028	1.005385	-0.072882
O19	O	0.881782	0.941711	-0.009138
O20	O	0.881776	0.941716	0.308753
O21	O	0.881788	0.623811	-0.009126
O22	O	0.599458	1.138889	-0.206382
O23	O	0.599452	1.138894	0.111509
O24	O	0.599464	0.820990	-0.206370
O25	O	0.740614	1.129161	0.121273
O26	O	0.740624	0.951441	-0.196612
O27	O	0.740626	0.811256	-0.196606
O28	O	0.740617	1.129159	-0.018908
O29	O	0.993130	0.793853	0.316460
O30	O	0.488110	0.968852	-0.214077
O31	O	0.488107	1.146567	-0.214084
O32	O	0.488104	1.146570	-0.036373
O33	O	0.993137	0.616135	0.138757
O34	O	0.993134	0.793850	0.138750
O35	O	0.657522	0.939389	-0.111481
O36	O	0.657518	1.044009	-0.006870
O37	O	0.823718	0.927933	0.109245
O38	O	0.823722	0.823313	0.004634
C39	C	0.518479	0.896669	0.035827
C40	C	0.443087	0.901868	0.030613
C41	C	0.469033	0.822848	0.109653
C42	C	0.398207	0.827735	0.104791
C43	C	0.301435	0.911638	0.020883
C44	C	0.275489	0.990665	-0.058162
C45	C	0.346315	0.985782	-0.053295
C46	C	0.083033	0.934982	-0.002407
C47	C	0.012207	0.939857	-0.007270
C48	C	0.134930	0.776927	0.155685
C49	C	0.205752	0.772048	0.160541
C50	C	0.179800	0.851078	0.081500
N51	N	0.229038	0.916633	0.015909
N52	N	0.252196	0.846086	0.086479
C53	C	0.740626	0.601690	0.051202
C54	C	0.740627	0.506775	0.051206
C55	C	0.740615	0.881357	0.330847
C56	C	0.740613	0.881359	0.425759
C57	C	0.962761	0.866036	0.066556
C58	C	1.038154	0.860837	0.071771
C59	C	0.740630	0.429693	0.051204
C60	C	0.740624	0.332996	0.051192
C61	C	0.740615	1.161015	0.051181
C62	C	0.740613	1.255930	0.051178
C63	C	0.740611	0.881359	0.502838
C64	C	0.740616	0.881359	0.599542
C65	C	0.740626	0.881350	0.771537
C66	C	0.740627	0.881353	0.676624
C67	C	0.518474	1.176332	0.035817
C68	C	0.443080	1.276445	0.030598
C69	C	0.518485	0.896665	-0.243828
C70	C	0.443094	0.901862	-0.343955
C71	C	0.518479	1.176327	-0.243838
C72	C	0.443087	1.276439	-0.343969
C73	C	0.962761	0.586378	0.346222
C74	C	1.038154	0.486266	0.446352
C75	C	0.962766	0.586373	0.066567
C76	C	1.038161	0.486260	0.071785
C77	C	0.962756	0.866040	0.346211
C78	C	1.038147	0.860843	0.446338
C79	C	0.407674	1.268851	0.082767
C80	C	0.336842	1.362908	0.077886
C81	C	0.301414	1.464560	0.020828
C82	C	0.336827	1.472152	-0.031342
C83	C	0.407661	1.378095	-0.026453
C84	C	0.407690	0.958911	-0.445595
C85	C	0.336862	0.963789	-0.539683
C86	C	0.301435	0.911624	-0.532128
C87	C	0.336846	0.854568	-0.430477
C88	C	0.407678	0.849684	-0.336391
C89	C	0.407680	1.378073	-0.336385
C90	C	0.336850	1.472146	-0.430459
C91	C	0.301424	1.464584	-0.532116
C92	C	0.336839	1.362940	-0.539698
C93	C	0.407672	1.268868	-0.445624
C94	C	1.073570	0.384632	0.438769
C95	C	1.144421	0.290557	0.532845
C96	C	1.179850	0.298119	0.634502
C97	C	1.144432	0.399763	0.642083
C98	C	1.073586	0.493836	0.548009
C99	C	1.073574	0.493854	0.019626
C100	C	1.144425	0.399795	0.024533
C101	C	1.179856	0.298143	0.081594
C102	C	1.144440	0.290551	0.133760
C103	C	1.073595	0.384609	0.128858
C104	C	1.073551	0.913021	0.438749
C105	C	1.144379	0.908159	0.532819
C106	C	1.179807	0.851112	0.634479
C107	C	1.144395	0.798934	0.642066
C108	C	1.073563	0.803803	0.547996
H109	H	0.547827	0.754514	0.177970
Cl110	Cl	0.430832	0.728387	0.204158
H111	H	0.436494	0.803232	-0.253635
Cl112	Cl	0.452206	1.387607	-0.208599
H113	H	1.173247	0.207803	0.526651
Cl114	Cl	0.292340	1.599914	-0.420904
Cl115	Cl	1.268913	0.179845	0.752758
H116	H	0.243735	1.541139	0.016855
H117	H	-0.066593	1.008183	-0.075603
Cl118	Cl	0.452209	1.024503	-0.455121
H119	H	1.237483	0.847156	0.711068
H120	H	0.308018	1.356706	0.120370
Cl121	Cl	0.313693	1.085130	-0.152661
Cl122	Cl	0.292356	1.035527	-0.667459
H123	H	1.173249	0.405998	-0.017951
Cl124	Cl	0.212374	1.582857	-0.650372
H125	H	1.237543	0.221564	0.085577
H126	H	1.173288	0.405907	0.724864
Cl127	Cl	0.212387	0.917777	-0.650420
Cl128	Cl	0.292292	1.353452	-0.667504
H129	H	1.044727	0.378455	0.356003
Cl130	Cl	0.292297	0.788997	-0.420998
H131	H	0.436519	1.186089	0.129243
Cl132	Cl	0.452157	1.387662	-0.092054
H133	H	0.307970	1.554929	-0.077797
H134	H	0.436491	1.186118	-0.451814
Cl135	Cl	1.029065	0.621601	0.557561
H136	H	1.044731	0.576616	-0.026846
H137	H	1.173299	0.207774	0.180218
H138	H	0.284545	0.703739	0.228883
Cl139	Cl	1.029078	0.375044	0.194430
H140	H	1.044717	0.959473	0.355981
H141	H	1.173204	0.950648	0.526621
Cl142	Cl	1.188951	0.727210	0.769876
H143	H	0.156050	0.712586	0.220038
Cl144	Cl	0.050398	1.034327	-0.101782
Cl145	Cl	0.153832	1.096147	-0.163645
H146	H	1.044745	0.761308	0.554191
