data_functionalizedCrystal
_audit_creation_method	'MofGen! by Chris Wilmer'
_symmetry_space_group_name_H-M	'P1'
_symmetry_Int_Tables_number	1
_symmetry_cell_setting	triclinic
loop_
_symmetry_equiv_pos_as_xyz
  x,y,z
_cell_length_a	19.077432
_cell_length_b	12.827893
_cell_length_c	12.827885
_cell_angle_alpha	90.019462
_cell_angle_beta	92.332375
_cell_angle_gamma	87.727222
loop_
_atom_site_label
_atom_site_type_symbol
_atom_site_fract_x
_atom_site_fract_y
_atom_site_fract_z
Zn1	Zn	-0.280160	1.614302	0.574116
Zn2	Zn	-0.397873	1.621183	0.392346
Zn3	Zn	-0.280195	1.439545	0.399387
Zn4	Zn	-0.397820	1.446513	0.567049
O5	O	-0.339012	1.530386	0.483224
O6	O	-0.295782	1.761451	0.550014
O7	O	-0.382299	1.597052	0.247041
O8	O	-0.181700	1.456931	0.428470
O9	O	-0.382265	1.766507	0.416468
O10	O	-0.181674	1.585324	0.556842
O11	O	-0.295842	1.463603	0.252215
O12	O	-0.295791	1.294233	0.421617
O13	O	-0.382176	1.468807	0.714224
O14	O	-0.382210	1.299352	0.544797
O15	O	-0.295731	1.592081	0.719417
O16	O	-0.496356	1.603808	0.409616
O17	O	-0.496317	1.475479	0.537969
C18	C	-0.338999	1.258875	0.483205
C19	C	-0.339010	1.142722	0.483221
C20	C	-0.296291	1.088440	0.549398
C21	C	-0.296302	0.968391	0.549416
C22	C	-0.521874	1.541175	0.472284
C23	C	-0.600103	1.545886	0.467639
C24	C	-0.636860	1.481240	0.532228
C25	C	-0.710365	1.485671	0.527859
C26	C	-0.747110	1.554755	0.458906
C27	C	-0.710347	1.619404	0.394309
C28	C	-0.636844	1.614967	0.398674
C29	C	-0.966941	1.575191	0.438688
C30	C	-1.040449	1.579626	0.434331
C31	C	-1.040461	1.445891	0.567880
C32	C	-0.966957	1.441464	0.572243
C33	C	-0.930200	1.506109	0.507643
N34	N	-0.822244	1.559288	0.454441
N35	N	-0.855068	1.501570	0.512103
C36	C	-0.155436	1.519583	0.494230
C37	C	-0.077207	1.514979	0.498920
C38	C	-0.338944	1.530454	0.755799
C39	C	-0.338915	1.530483	0.871954
C40	C	-0.339025	1.802956	0.483244
C41	C	-0.339031	1.919110	0.483253
C42	C	-0.339029	1.530375	0.211713
C43	C	-0.338860	1.530537	0.095571
C44	C	-0.381673	1.469502	0.921170
C45	C	-0.381644	1.469531	1.041222
H46	H	-0.606947	1.424989	0.588382
H47	H	-0.740271	1.675649	0.338161
H48	H	-0.302248	1.582742	1.053243
C49	C	-0.415890	1.294633	1.072967
C50	C	-0.431064	1.399049	1.098367
H51	H	-0.446399	1.251121	1.108254
H52	H	-0.422398	1.285373	0.999796
H53	H	-0.368583	1.276588	1.093642
H54	H	-0.478369	1.417096	1.077685
H55	H	-0.424562	1.408314	1.171554
H56	H	-0.259732	0.921719	0.606076
C57	C	-0.793105	1.350091	0.537355
C58	C	-0.750771	1.414617	0.598863
H59	H	-0.818047	1.306221	0.581194
H60	H	-0.825503	1.391866	0.495669
H61	H	-0.764471	1.308411	0.493499
H62	H	-0.779406	1.456303	0.642714
H63	H	-0.718370	1.372837	0.640567
C64	C	-0.427893	1.158637	0.345553
C65	C	-0.388396	1.085492	0.406747
H66	H	-0.458379	1.123305	0.298336
H67	H	-0.454872	1.202823	0.389359
H68	H	-0.397212	1.199378	0.307447
H69	H	-0.419078	1.044756	0.444859
H70	H	-0.361415	1.041288	0.362935
C71	C	-0.244285	1.539346	1.000498
C72	C	-0.289460	1.600991	0.935039
H73	H	-0.213750	1.582878	1.039436
H74	H	-0.271108	1.501106	1.046929
H75	H	-0.217350	1.492259	0.959517
H76	H	-0.316399	1.648073	0.976021
H77	H	-0.262634	1.639249	0.888603
H78	H	-0.418304	1.417277	0.874428
H79	H	-0.375610	0.965775	0.426599
C80	C	-0.974355	1.309689	0.703783
C81	C	-0.926569	1.365506	0.648021
H82	H	-0.949420	1.262789	0.750558
H83	H	-1.002968	1.356919	0.742110
H84	H	-1.003079	1.271489	0.656496
H85	H	-0.897848	1.403712	0.695307
H86	H	-0.897944	1.318269	0.609692
H87	H	-0.259708	1.130844	0.606038
H88	H	-1.070396	1.393259	0.620473
C89	C	-0.884362	1.584810	0.303018
C90	C	-0.926548	1.646256	0.367683
H91	H	-0.859429	1.628689	0.259177
H92	H	-0.851957	1.543045	0.344702
H93	H	-0.913095	1.541037	0.261308
H94	H	-0.897815	1.690025	0.409399
H95	H	-0.958957	1.688040	0.325995
C96	C	-0.644210	1.747607	0.266233
C97	C	-0.596437	1.686029	0.327676
H98	H	-0.619264	1.791479	0.222403
H99	H	-0.672929	1.703831	0.224520
H100	H	-0.672830	1.789284	0.310110
H101	H	-0.567821	1.644346	0.283799
H102	H	-0.567707	1.729810	0.369393
H103	H	-1.070365	1.635888	0.378181
