data_functionalizedCrystal
_audit_creation_method	'MofGen! by Chris Wilmer'
_symmetry_space_group_name_H-M	'P1'
_symmetry_Int_Tables_number	1
_symmetry_cell_setting	triclinic
loop_
_symmetry_equiv_pos_as_xyz
  x,y,z
_cell_length_a	15.995350
_cell_length_b	14.472310
_cell_length_c	15.995280
_cell_angle_alpha	90.001331
_cell_angle_beta	96.522015
_cell_angle_gamma	90.009379
loop_
_atom_site_label
_atom_site_type_symbol
_atom_site_fract_x
_atom_site_fract_y
_atom_site_fract_z
O1	O	1.110969	0.076758	-0.107924
O2	O	0.867191	0.076776	-0.121252
O3	O	0.995774	0.076766	0.007303
O4	O	0.982385	0.076768	-0.236480
O5	O	0.995741	-0.076916	0.007296
O6	O	0.867158	-0.076906	-0.121260
O7	O	1.110936	-0.076924	-0.107932
Cu8	Cu	0.989044	-0.090948	-0.114597
Cu9	Cu	0.989083	0.090799	-0.114588
O10	O	0.982352	-0.076914	-0.236488
C11	C	0.835979	-0.000062	-0.120705
C12	C	0.743029	-0.000055	-0.119053
N13	N	0.989022	-0.218778	-0.114602
C14	C	0.405283	-0.000075	-0.113121
C15	C	0.452741	-0.000418	-0.021566
C16	C	0.549430	-0.000065	-0.023218
C17	C	0.572843	-0.000066	-0.116063
C18	C	0.531764	0.087691	-0.161217
C19	C	0.435128	0.087758	-0.158917
C20	C	0.434751	-0.087007	-0.160817
C21	C	0.531697	-0.088160	-0.160796
C22	C	0.667540	-0.000057	-0.117731
C23	C	0.310586	-0.000077	-0.111456
C24	C	0.989082	-0.592870	-0.114584
C25	C	0.920049	-0.553698	-0.183141
C26	C	0.920208	-0.446610	-0.183391
C27	C	0.989052	-0.407279	-0.114593
C28	C	1.076411	-0.446122	-0.133676
C29	C	1.076023	-0.553244	-0.134163
C30	C	0.971535	-0.553398	-0.026742
C31	C	0.969531	-0.446270	-0.027328
C32	C	0.989040	-0.302390	-0.114597
C33	C	0.989099	-0.697758	-0.114583
C34	C	1.142147	-0.000084	-0.108479
C35	C	1.235097	-0.000085	-0.110131
C36	C	0.995215	-0.000073	0.038495
C37	C	0.993587	-0.000068	0.131449
N38	N	0.989111	0.218630	-0.114575
C39	C	0.987600	-0.000081	0.469189
C40	C	1.080403	-0.000431	0.445877
C41	C	1.082163	-0.000080	0.349201
C42	C	0.990571	-0.000075	0.301632
C43	C	0.944193	0.087685	0.330738
C44	C	0.943080	0.087754	0.427529
C45	C	0.941147	-0.087011	0.427377
C46	C	0.944582	-0.088166	0.330884
C47	C	0.992245	-0.000068	0.206936
C48	C	0.985924	-0.000081	0.563885
C49	C	0.982923	-0.000077	0.732322
C50	C	0.984584	-0.000088	0.639373
H51	H	0.577855	-0.062973	0.012275
H52	H	1.129008	-0.420643	-0.085071
H53	H	1.115991	0.062148	0.474898
H54	H	0.433170	0.062168	0.014865
H55	H	0.978352	-0.153090	0.312316
H56	H	0.414209	-0.153525	-0.130889
O57	O	0.850667	-0.087803	0.445921
H58	H	0.818683	-0.024167	0.420159
O59	O	0.935047	-0.412641	-0.269735
H60	H	0.996674	-0.438586	-0.285423
H61	H	1.092248	-0.419286	-0.197008
O62	O	1.130593	0.083390	0.324813
H63	H	1.088985	0.127264	0.280974
O64	O	0.888976	-0.589217	-0.002439
H65	H	0.846360	-0.530173	0.005680
O66	O	0.856033	-0.095209	0.287197
H67	H	0.843358	-0.035761	0.243767
O68	O	0.979637	-0.175126	0.464798
H69	H	1.003694	-0.216943	0.414500
H70	H	0.975229	0.153353	0.454348
O71	O	0.934680	-0.589340	-0.269004
H72	H	0.885609	-0.561279	-0.316925
O73	O	1.096509	-0.586332	-0.219021
H74	H	1.096440	-0.663015	-0.220209
O75	O	0.586369	0.083408	0.024119
H76	H	0.619139	0.127284	-0.018845
H77	H	0.875037	0.091733	0.442079
H78	H	0.876794	0.090952	0.298870
H79	H	0.905268	-0.420883	-0.012846
H80	H	0.434214	-0.063352	0.015028
H81	H	0.560160	0.153001	-0.129849
H82	H	0.416843	0.153359	-0.125983
O83	O	0.567859	-0.174160	-0.117126
H84	H	0.538456	-0.236112	-0.149110
O85	O	0.392380	0.093053	-0.247949
H86	H	0.440756	0.095561	-0.292454
O87	O	0.550453	0.092031	-0.251569
H88	H	0.589315	0.031543	-0.265281
O89	O	1.031823	-0.410827	0.043414
H90	H	1.028657	-0.334258	0.045452
O91	O	0.552029	-0.095191	-0.250479
H92	H	0.527687	-0.033165	-0.286113
O93	O	0.392647	-0.087805	-0.250228
H94	H	0.409939	-0.024170	-0.282982
O95	O	0.834190	-0.411812	-0.168349
H96	H	0.792102	-0.471497	-0.160833
H97	H	0.854901	-0.579481	-0.171959
O98	O	1.146113	-0.587577	-0.070547
H99	H	1.180138	-0.527667	-0.039575
O100	O	1.038208	-0.586956	0.040845
H101	H	1.083629	-0.631531	0.012068
O102	O	0.987044	0.174103	0.304192
H103	H	0.941682	0.215649	0.262021
O104	O	1.130293	-0.083394	0.323986
H105	H	1.152521	-0.124298	0.380894
O106	O	1.127773	-0.083812	0.482931
H107	H	1.085685	-0.125892	0.518369
