data_functionalizedCrystal
_audit_creation_method	'MofGen! by Chris Wilmer'
_symmetry_space_group_name_H-M	'P1'
_symmetry_Int_Tables_number	1
_symmetry_cell_setting	triclinic
loop_
_symmetry_equiv_pos_as_xyz
  x,y,z
_cell_length_a	6.817900
_cell_length_b	7.076028
_cell_length_c	19.453103
_cell_angle_alpha	92.018686
_cell_angle_beta	101.709178
_cell_angle_gamma	117.700652
loop_
_atom_site_label
_atom_site_type_symbol
_atom_site_fract_x
_atom_site_fract_y
_atom_site_fract_z
V1	V	-4.191226	-0.665982	-0.096061
O2	O	-4.184352	-0.652285	0.005767
O3	O	-4.133208	-0.662409	-0.191580
O4	O	-4.218390	-0.955993	-0.094078
O5	O	-4.098581	-0.356668	-0.092409
V6	V	-4.666308	-0.628867	-0.083941
O7	O	-4.470999	-0.747399	-0.122647
O8	O	-4.836733	-0.547451	-0.057354
O9	O	-4.501119	-0.632440	0.011578
O10	O	-4.790579	-0.642564	-0.185769
O11	O	-4.876350	-0.938181	-0.087592
O12	O	-4.415937	-0.338856	-0.085923
C13	C	-3.973424	-0.652156	-0.214881
C14	C	-4.007779	-0.651167	-0.292965
C15	C	-4.208471	-0.661367	-0.333204
C16	C	-4.240762	-0.660460	-0.406574
C17	C	-4.072327	-0.649308	-0.439700
C18	C	-3.871612	-0.639119	-0.399453
C19	C	-3.839338	-0.640048	-0.326086
N20	N	-3.929313	-0.517873	-0.546186
N21	N	-3.959983	-0.516986	-0.615882
C22	C	-4.169559	-0.646513	-0.660752
N23	N	-4.347325	-0.776934	-0.633293
N24	N	-4.316654	-0.777811	-0.563590
C25	C	-4.107303	-0.648301	-0.519254
C26	C	-4.405278	-0.655733	-0.780547
C27	C	-4.437567	-0.654839	-0.853919
C28	C	-4.068402	-0.633475	-0.846796
C29	C	-4.036129	-0.634392	-0.773426
C30	C	-4.204570	-0.645511	-0.740306
C31	C	-4.215571	-0.268189	-0.089495
C32	C	-4.089048	-0.026641	-0.090502
C33	C	-4.324243	-0.642688	0.034876
C34	C	-4.269131	-0.643690	0.112960
H35	H	-3.675908	-0.631743	-0.293324
H36	H	-4.542431	-0.664783	-0.753579
O37	O	-3.841116	-0.624167	-0.734246
C38	C	-3.725707	-0.438359	-0.682391
H39	H	-3.852572	-0.385881	-0.671418
H40	H	-3.587081	-0.302714	-0.702458
C41	C	-3.459710	-0.553970	-0.626940
C42	C	-3.615532	-0.489526	-0.613458
H43	H	-3.391739	-0.585526	-0.584420
H44	H	-3.537457	-0.679149	-0.661877
H45	H	-3.344209	-0.440921	-0.643665
H46	H	-3.731044	-0.602584	-0.596743
H47	H	-3.537802	-0.364367	-0.578517
O48	O	-4.372065	-0.672473	-0.300965
C49	C	-4.450156	-0.859354	-0.267975
H50	H	-4.313630	-0.912123	-0.256968
H51	H	-4.613671	-0.994277	-0.304463
C52	C	-4.666683	-0.745139	-0.211037
C53	C	-4.498991	-0.809940	-0.197512
H54	H	-4.696818	-0.714665	-0.167574
H55	H	-4.614080	-0.619237	-0.233265
H56	H	-4.802927	-0.857586	-0.241445
H57	H	-4.362744	-0.697484	-0.167112
H58	H	-4.551573	-0.935823	-0.175277
H59	H	-4.404194	-0.668766	-0.439342
H60	H	-4.601005	-0.663159	-0.886681
H61	H	-3.734476	-0.630044	-0.426430
H62	H	-3.931265	-0.624409	-0.873767
