data_functionalizedCrystal
_audit_creation_method	'MofGen! by Chris Wilmer'
_symmetry_space_group_name_H-M	'P1'
_symmetry_Int_Tables_number	1
_symmetry_cell_setting	triclinic
loop_
_symmetry_equiv_pos_as_xyz
  x,y,z
_cell_length_a	16.959454
_cell_length_b	13.033293
_cell_length_c	13.033109
_cell_angle_alpha	74.800007
_cell_angle_beta	97.156051
_cell_angle_gamma	97.190068
loop_
_atom_site_label
_atom_site_type_symbol
_atom_site_fract_x
_atom_site_fract_y
_atom_site_fract_z
Zn1	Zn	-0.229029	1.700273	-0.807189
Zn2	Zn	-0.346337	1.677596	-0.629567
Zn3	Zn	-0.229044	1.500077	-0.606991
Zn4	Zn	-0.376045	1.522594	-0.784542
O5	O	-0.295114	1.600135	-0.707072
O6	O	-0.232151	1.845916	-0.802553
O7	O	-0.318351	1.635134	-0.477931
O8	O	-0.118428	1.526699	-0.633578
O9	O	-0.318337	1.829256	-0.672054
O10	O	-0.118417	1.673782	-0.780663
O11	O	-0.232176	1.504711	-0.461345
O12	O	-0.260983	1.354412	-0.611618
O13	O	-0.368970	1.565078	-0.936187
O14	O	-0.368984	1.370956	-0.742063
O15	O	-0.260958	1.695617	-0.952826
O16	O	-0.460892	1.656969	-0.650094
O17	O	-0.482719	1.543089	-0.763953
C18	C	-0.318210	1.324140	-0.671934
C19	C	-0.328111	1.206072	-0.656927
C20	C	-0.289966	1.161689	-0.714904
C21	C	-0.300199	1.039659	-0.699395
C22	C	-0.500486	1.600044	-0.707043
C23	C	-0.588340	1.600106	-0.707078
C24	C	-0.971198	1.540936	-0.766364
C25	C	-0.948410	1.659644	-0.647926
C26	C	-0.865867	1.659606	-0.647912
C27	C	-0.835985	1.600230	-0.707123
C28	C	-0.888648	1.540893	-0.766349
C29	C	-0.813198	1.718933	-0.588678
C30	C	-0.730649	1.718896	-0.588660
C31	C	-0.700767	1.659526	-0.647879
C32	C	-0.753434	1.600187	-0.707108
C33	C	-0.723553	1.540812	-0.766319
C34	C	-0.776220	1.481479	-0.825555
C35	C	-0.858765	1.481523	-0.825567
C36	C	-0.618221	1.659482	-0.647867
C37	C	-0.641002	1.540769	-0.766304
C38	C	-0.088939	1.600259	-0.707129
C39	C	-0.001080	1.600311	-0.707153
C40	C	-0.318277	1.635388	-0.984125
C41	C	-0.328147	1.650411	-1.102188
C42	C	-0.271928	1.877208	-0.742348
C43	C	-0.262048	1.995279	-0.757381
C44	C	-0.289910	1.592578	-1.146618
C45	C	-0.300111	1.608104	-1.268642
C46	C	-0.271979	1.565080	-0.431105
C47	C	-0.261869	1.550263	-0.313069
H48	H	-0.751881	1.433129	-0.873760
H49	H	-0.368436	1.711417	-1.154488
H50	H	-0.340433	0.987318	-0.638270
C51	C	-0.207696	1.065977	-0.839958
H52	H	-0.207953	1.138721	-0.839558
H53	H	-0.154788	1.045900	-0.822256
H54	H	-0.226830	1.056937	-0.909015
H55	H	-0.368343	1.153727	-0.595806
C56	C	-0.916697	1.416251	-0.890705
H57	H	-0.970137	1.424770	-0.882221
H58	H	-0.907826	1.440807	-0.964058
H59	H	-0.907877	1.342895	-0.866001
H60	H	-0.616679	1.492423	-0.814526
H61	H	-1.014083	1.492631	-0.814596
C62	C	-0.354538	1.690527	-1.339282
H63	H	-0.354250	1.690156	-1.412030
H64	H	-0.407445	1.672664	-1.319163
H65	H	-0.335485	1.759621	-1.330246
H66	H	-0.972745	1.707978	-0.599712
C67	C	-0.235614	1.232391	-0.797473
H68	H	-0.235871	1.305135	-0.797070
H69	H	-0.182707	1.212313	-0.779767
H70	H	-0.254745	1.223355	-0.866532
H71	H	-0.837535	1.767265	-0.540463
H72	H	-0.687773	1.767209	-0.540429
H73	H	-0.575344	1.707785	-0.599632
H74	H	-0.249626	1.531567	-1.094317
H75	H	-0.221579	1.489249	-1.260773
