data_functionalizedCrystal
_audit_creation_method	'MofGen! by Chris Wilmer'
_symmetry_space_group_name_H-M	'P1'
_symmetry_Int_Tables_number	1
_symmetry_cell_setting	triclinic
loop_
_symmetry_equiv_pos_as_xyz
  x,y,z
_cell_length_a	29.839134
_cell_length_b	29.839131
_cell_length_c	29.839125
_cell_angle_alpha	89.982291
_cell_angle_beta	89.978020
_cell_angle_gamma	90.036281
loop_
_atom_site_label
_atom_site_type_symbol
_atom_site_fract_x
_atom_site_fract_y
_atom_site_fract_z
Zn1	Zn	0.686720	-0.178978	-0.254125
Zn2	Zn	0.686652	-0.254090	-0.178995
Zn3	Zn	0.611602	-0.178968	-0.178995
Zn4	Zn	0.611550	-0.254075	-0.254083
O5	O	0.649131	-0.216528	-0.216549
O6	O	0.749578	-0.188952	-0.244176
O7	O	0.676690	-0.244127	-0.116128
O8	O	0.621617	-0.116102	-0.188978
O9	O	0.749528	-0.244137	-0.188979
O10	O	0.676805	-0.116109	-0.244176
O11	O	0.621551	-0.188935	-0.116127
O12	O	0.548728	-0.188921	-0.188938
O13	O	0.621528	-0.244111	-0.316956
O14	O	0.548690	-0.244101	-0.244105
O15	O	0.676755	-0.188937	-0.316987
O16	O	0.676639	-0.316955	-0.188938
O17	O	0.621462	-0.316944	-0.244105
C18	C	0.532408	-0.216509	-0.216517
C19	C	0.482474	-0.216511	-0.216514
C20	C	0.172820	-0.245303	-0.245240
C21	C	-0.014853	-0.245315	-0.245260
O22	O	-0.039127	-0.269774	-0.269665
N23	N	-0.038311	-0.216544	-0.216583
C24	C	-0.014848	-0.187766	-0.187902
O25	O	-0.039107	-0.163291	-0.163514
C26	C	0.172824	-0.187751	-0.187884
C27	C	0.196280	-0.216527	-0.216560
C28	C	0.196276	-0.274076	-0.273913
C29	C	0.243191	-0.274075	-0.273906
C30	C	0.266651	-0.245299	-0.245226
C31	C	0.243195	-0.216526	-0.216553
C32	C	0.196286	-0.158971	-0.159205
C33	C	0.243207	-0.158969	-0.159204
C34	C	0.266663	-0.187745	-0.187880
C35	C	0.313570	-0.187749	-0.187865
N36	N	0.337029	-0.216520	-0.216542
C37	C	0.313569	-0.245295	-0.245222
C38	C	-0.113379	-0.187776	-0.187912
C39	C	-0.160297	-0.187780	-0.187916
C40	C	-0.160298	-0.245329	-0.245275
C41	C	-0.113380	-0.245327	-0.245269
C42	C	-0.089921	-0.216547	-0.216589
C43	C	0.412095	-0.245290	-0.245205
C44	C	0.459014	-0.245287	-0.245194
C45	C	0.459012	-0.187736	-0.187837
C46	C	0.412096	-0.187740	-0.187846
C47	C	0.388639	-0.216519	-0.216534
O48	O	0.337873	-0.163299	-0.163477
O49	O	0.337836	-0.269759	-0.269613
C50	C	0.125905	-0.245304	-0.245247
C51	C	0.102449	-0.216531	-0.216574
C52	C	0.125909	-0.187755	-0.187893
C53	C	0.055531	-0.216535	-0.216577
C54	C	0.032071	-0.245310	-0.245258
C55	C	0.055529	-0.274082	-0.273934
C56	C	0.102445	-0.274080	-0.273927
C57	C	0.102451	-0.158984	-0.159217
C58	C	0.055535	-0.158989	-0.159226
C59	C	0.032075	-0.187764	-0.187906
C60	C	0.649050	-0.333250	-0.216527
C61	C	0.649056	-0.383185	-0.216533
C62	C	0.677914	-0.692821	-0.187866
C63	C	0.677969	-0.880494	-0.187883
O64	O	0.702441	-0.904753	-0.163493
N65	N	0.649224	-0.903970	-0.216583
C66	C	0.620465	-0.880524	-0.245283
O67	O	0.596020	-0.904798	-0.269698
C68	C	0.620412	-0.692852	-0.245268
C69	C	0.649156	-0.669379	-0.216563
C70	C	0.706656	-0.669348	-0.159164
C71	C	0.706640	-0.622433	-0.159158
C72	C	0.677882	-0.598990	-0.187854
C73	C	0.649140	-0.622463	-0.216557
C74	C	0.591656	-0.669407	-0.273969
C75	C	0.591646	-0.622486	-0.273964
C76	C	0.620390	-0.599013	-0.245259
C77	C	0.620367	-0.552106	-0.245248
N78	N	0.649112	-0.528630	-0.216548
C79	C	0.677869	-0.552072	-0.187851
C80	C	0.620494	-0.979055	-0.245289
C81	C	0.620507	-1.025973	-0.245292
C82	C	0.678012	-1.025939	-0.187893
C83	C	0.677996	-0.979021	-0.187887
C84	C	0.649239	-0.955579	-0.216589
C85	C	0.677834	-0.453547	-0.187841
C86	C	0.677814	-0.406627	-0.187836
C87	C	0.620311	-0.406664	-0.245237
C88	C	0.620329	-0.453580	-0.245240
C89	C	0.649094	-0.477020	-0.216540
O90	O	0.595912	-0.527818	-0.269629
O91	O	0.702318	-0.527791	-0.163447
C92	C	0.677930	-0.739737	-0.187872
C93	C	0.649188	-0.763210	-0.216574
C94	C	0.620430	-0.739767	-0.245271
C95	C	0.649200	-0.810128	-0.216578
C96	C	0.677958	-0.833570	-0.187881
C97	C	0.706703	-0.810094	-0.159181
C98	C	0.706687	-0.763179	-0.159175
C99	C	0.591685	-0.763243	-0.273971
C100	C	0.591703	-0.810158	-0.273974
C101	C	0.620461	-0.833601	-0.245277
C102	C	0.766309	-0.216547	-0.216582
C103	C	0.816244	-0.216555	-0.216596
C104	C	0.649143	-0.216524	-0.333728
C105	C	0.649148	-0.216522	-0.383662
C106	C	0.649225	-0.099349	-0.216582
C107	C	0.649265	-0.049415	-0.216595
C108	C	0.677935	-0.187718	-0.693325
C109	C	0.677957	-0.187680	-0.880998
O110	O	0.702399	-0.163232	-0.905279
N111	N	0.649208	-0.216402	-0.904448
C112	C	0.620449	-0.245133	-0.880976
O113	O	0.595993	-0.269559	-0.905228
C114	C	0.620424	-0.245169	-0.693304
C115	C	0.649179	-0.216448	-0.669857
C116	C	0.706687	-0.158999	-0.669877
C117	C	0.706683	-0.159011	-0.622962
C118	C	0.677927	-0.187741	-0.599494
C119	C	0.649175	-0.216460	-0.622941
C120	C	0.591663	-0.273898	-0.669833
C121	C	0.591659	-0.273903	-0.622912
C122	C	0.620414	-0.245183	-0.599465
C123	C	0.620415	-0.245202	-0.552558
N124	N	0.649164	-0.216480	-0.529108
C125	C	0.677920	-0.187749	-0.552576
C126	C	0.620464	-0.245113	-0.979507
C127	C	0.620471	-0.245105	-1.026425
C128	C	0.677979	-0.187650	-1.026443
C129	C	0.677974	-0.187661	-0.979524
C130	C	0.649214	-0.216391	-0.956057
C131	C	0.677910	-0.187776	-0.454050
C132	C	0.677904	-0.187792	-0.407130
C133	C	0.620395	-0.245244	-0.407116
C134	C	0.620401	-0.245230	-0.454032
C135	C	0.649161	-0.216493	-0.477497
O136	O	0.595982	-0.269633	-0.528248
O137	O	0.702366	-0.163320	-0.528316
C138	C	0.677939	-0.187706	-0.740240
C139	C	0.649187	-0.216425	-0.763688
C140	C	0.620431	-0.245155	-0.740219
C141	C	0.649194	-0.216417	-0.810605
C142	C	0.677950	-0.187686	-0.834074
C143	C	0.706699	-0.158964	-0.810624
C144	C	0.706695	-0.158976	-0.763708
C145	C	0.591682	-0.273877	-0.763669
C146	C	0.591689	-0.273864	-0.810585
C147	C	0.620445	-0.245133	-0.834053
C148	C	0.649145	-0.216499	-0.099827
C149	C	0.649227	-0.216374	-0.049893
H150	H	0.262305	-0.135529	-0.135852
O151	O	0.389291	-0.273181	-0.273118
C152	C	0.336333	-0.279330	-0.333754
C153	C	0.362138	-0.247690	-0.302182
H154	H	0.314366	-0.258734	-0.357254
H155	H	0.361141	-0.299886	-0.354277
H156	H	0.314363	-0.302800	-0.313079
H157	H	0.384108	-0.224193	-0.322822
H158	H	0.337305	-0.227166	-0.281657
O159	O	0.481848	-0.273177	-0.273075
C160	C	0.534822	-0.279310	-0.333733
C161	C	0.509002	-0.247676	-0.302180
H162	H	0.556775	-0.258704	-0.357278
H163	H	0.556793	-0.302763	-0.313089
H164	H	0.509983	-0.299884	-0.354212
H165	H	0.533808	-0.227073	-0.281694
H166	H	0.487024	-0.224252	-0.322850
H167	H	0.036441	-0.135556	-0.135871
H168	H	0.730076	-0.688430	-0.135795
H169	H	0.568233	-0.297294	-0.603808
O170	O	0.592645	-1.048820	-0.273195
C171	C	0.586573	-1.101746	-0.333872
C172	C	0.618175	-1.075909	-0.302289
H173	H	0.607202	-1.123646	-0.357408
H174	H	0.563107	-1.123772	-0.313251
H175	H	0.566010	-1.076918	-0.354360
H176	H	0.638767	-1.100705	-0.281794
H177	H	0.641611	-1.053876	-0.322936
O178	O	0.032715	-0.301969	-0.301843
C179	C	-0.020258	-0.308094	-0.362469
C180	C	0.005562	-0.276466	-0.330898
H181	H	-0.042224	-0.287489	-0.385961
H182	H	0.004541	-0.328654	-0.383001
H183	H	-0.042229	-0.331562	-0.341793
H184	H	0.027535	-0.252972	-0.351539
H185	H	-0.019260	-0.255938	-0.310365
O186	O	0.592479	-0.272961	-0.956693
C187	C	0.531827	-0.279014	-0.903690
C188	C	0.563482	-0.247424	-0.929505
H189	H	0.508381	-0.258382	-0.881696
H190	H	0.511250	-0.299532	-0.928493
H191	H	0.552440	-0.302522	-0.881747
H192	H	0.542904	-0.223890	-0.951449
H193	H	0.584060	-0.226938	-0.904679
H194	H	0.730115	-0.135573	-0.829740
H195	H	0.568265	-0.297274	-0.744566
O196	O	0.125247	-0.302078	-0.301721
C197	C	0.178201	-0.362724	-0.307661
C198	C	0.152402	-0.331051	-0.276130
H199	H	0.200170	-0.386151	-0.286984
H200	H	0.153389	-0.383321	-0.328151
H201	H	0.200169	-0.342123	-0.331198
H202	H	0.130434	-0.351617	-0.252567
H203	H	0.177239	-0.310453	-0.255672
H204	H	-0.094285	-0.268759	-0.268619
H205	H	-0.179407	-0.268759	-0.268628
H206	H	0.262285	-0.297506	-0.297258
O207	O	0.173541	-0.302011	-0.301837
C208	C	0.159202	-0.323928	-0.378217
C209	C	0.184980	-0.292266	-0.346646
H210	H	0.168434	-0.316055	-0.414452
H211	H	0.168419	-0.360145	-0.370293
H212	H	0.121640	-0.319004	-0.373277
H213	H	0.222548	-0.297151	-0.351568
H214	H	0.175726	-0.256061	-0.354577
O215	O	0.592403	-0.383935	-0.273177
C216	C	0.570576	-0.369537	-0.349575
C217	C	0.602196	-0.395316	-0.317979
H218	H	0.578488	-0.378721	-0.385805
H219	H	0.534348	-0.378800	-0.341693
H220	H	0.575502	-0.331975	-0.344615
H221	H	0.597310	-0.432883	-0.322922
H222	H	0.638413	-0.386015	-0.325869
O223	O	0.592357	-0.476403	-0.273056
C224	C	0.531734	-0.529451	-0.279049
C225	C	0.563374	-0.503629	-0.247491
H226	H	0.508300	-0.551476	-0.258392
H227	H	0.511144	-0.504653	-0.299548
H228	H	0.552360	-0.551363	-0.302576
H229	H	0.542783	-0.481715	-0.223937
H230	H	0.583965	-0.528450	-0.227024
H231	H	0.701427	-1.045034	-0.164527
O232	O	-0.183009	-0.159788	-0.160043
C233	C	-0.178043	-0.102724	-0.103134
C234	C	-0.152267	-0.134398	-0.134683
H235	H	-0.153199	-0.082195	-0.082615
H236	H	-0.199973	-0.079235	-0.123781
H237	H	-0.200043	-0.123321	-0.079625
H238	H	-0.130242	-0.113838	-0.158198
H239	H	-0.130366	-0.157889	-0.114007
H240	H	0.568274	-0.297256	-0.829671
H241	H	0.701321	-0.164403	-0.388042
O242	O	0.705696	-0.383756	-0.159966
C243	C	0.731180	-0.311466	-0.134533
C244	C	0.699575	-0.337308	-0.166109
H245	H	0.726249	-0.273908	-0.139496
H246	H	0.723318	-0.320682	-0.098291
H247	H	0.767397	-0.320681	-0.142459
H248	H	0.663347	-0.328108	-0.158224
H249	H	0.707474	-0.328090	-0.202342
H250	H	0.701327	-0.164374	-0.473150
O251	O	0.734640	-0.131032	-0.741004
C252	C	0.791698	-0.074064	-0.745992
C253	C	0.760066	-0.105682	-0.771756
H254	H	0.812270	-0.053567	-0.770843
H255	H	0.771113	-0.050541	-0.724037
H256	H	0.815154	-0.094702	-0.724018
H257	H	0.736604	-0.085080	-0.793754
H258	H	0.780679	-0.129206	-0.793683
O259	O	0.563690	-0.692223	-0.301793
C260	C	0.503064	-0.745265	-0.307799
C261	C	0.534700	-0.719447	-0.276234
H262	H	0.479624	-0.767288	-0.287148
H263	H	0.482480	-0.720465	-0.328301
H264	H	0.523693	-0.767179	-0.331323
H265	H	0.514105	-0.697532	-0.252683
H266	H	0.555285	-0.744271	-0.255763
H267	H	0.177197	-0.135539	-0.135854
O268	O	0.734654	-0.740450	-0.131279
C269	C	0.791672	-0.745387	-0.074329
C270	C	0.760028	-0.771178	-0.105907
H271	H	0.812189	-0.770219	-0.053801
H272	H	0.815175	-0.723404	-0.094954
H273	H	0.771053	-0.723437	-0.050830
H274	H	0.780612	-0.793152	-0.129413
H275	H	0.736525	-0.793133	-0.085254
O276	O	0.592512	-0.956356	-0.273182
C277	C	0.535491	-0.961353	-0.330127
C278	C	0.567153	-0.987112	-0.298557
H279	H	0.514986	-0.986207	-0.350658
H280	H	0.511977	-0.939431	-0.309495
H281	H	0.556095	-0.939346	-0.353624
H282	H	0.546585	-1.009143	-0.275054
H283	H	0.590667	-1.009006	-0.319217
H284	H	0.597061	-0.268497	-1.045512
H285	H	0.730097	-0.135623	-0.603875
H286	H	0.730117	-0.829189	-0.135814
O287	O	0.563826	-0.832937	-0.301925
C288	C	0.541959	-0.847247	-0.378325
C289	C	0.573559	-0.821433	-0.346719
H290	H	0.549810	-0.837949	-0.414547
H291	H	0.546909	-0.884813	-0.373444
H292	H	0.505739	-0.838065	-0.370374
H293	H	0.609791	-0.830578	-0.354650
H294	H	0.568571	-0.783873	-0.351606
O295	O	-0.090545	-0.159882	-0.160026
C296	C	-0.037630	-0.153741	-0.099350
C297	C	-0.063450	-0.185379	-0.130913
H298	H	-0.015725	-0.174343	-0.075799
H299	H	-0.015612	-0.130282	-0.119987
H300	H	-0.062470	-0.133172	-0.078878
H301	H	-0.038643	-0.205976	-0.151392
H302	H	-0.085475	-0.208808	-0.110251
O303	O	0.705788	-0.476242	-0.159918
C304	C	0.762836	-0.471245	-0.103000
C305	C	0.731197	-0.445487	-0.134594
H306	H	0.783395	-0.446391	-0.082524
H307	H	0.742257	-0.493227	-0.079458
H308	H	0.786304	-0.493193	-0.123657
H309	H	0.707723	-0.423515	-0.113974
H310	H	0.751805	-0.423533	-0.158138
O311	O	0.563811	-0.740455	-0.301895
C312	C	0.557690	-0.687450	-0.362522
C313	C	0.589314	-0.713234	-0.330934
H314	H	0.578297	-0.665428	-0.386003
H315	H	0.537159	-0.712273	-0.383066
H316	H	0.534196	-0.665538	-0.341859
H317	H	0.612835	-0.735147	-0.351563
H318	H	0.609814	-0.688387	-0.310389
H319	H	0.568229	-0.603402	-0.297337
H320	H	0.392998	-0.164309	-0.164496
H321	H	0.730104	-0.135601	-0.688980
H322	H	0.701393	-0.164257	-1.045559
H323	H	0.121547	-0.135551	-0.135861
H324	H	0.478121	-0.164309	-0.164485
O325	O	0.734609	-0.599704	-0.131264
C326	C	0.791634	-0.604640	-0.074320
C327	C	0.759985	-0.630432	-0.105894
H328	H	0.812152	-0.629473	-0.053794
H329	H	0.815135	-0.582659	-0.094950
H330	H	0.771018	-0.582689	-0.050820
H331	H	0.780565	-0.652408	-0.129401
H332	H	0.736483	-0.652385	-0.085237
H333	H	0.568248	-0.297285	-0.688916
O334	O	0.705918	-0.159718	-0.956819
C335	C	0.762978	-0.102751	-0.961802
C336	C	0.731347	-0.134369	-0.987568
H337	H	0.783553	-0.082255	-0.986652
H338	H	0.742391	-0.079228	-0.939849
H339	H	0.786431	-0.123389	-0.939826
H340	H	0.707888	-0.113767	-1.009569
H341	H	0.751962	-0.157893	-1.009494
O342	O	0.592431	-0.273147	-0.476742
C343	C	0.535410	-0.330153	-0.471766
C344	C	0.567060	-0.298557	-0.445996
H345	H	0.514895	-0.350713	-0.446919
H346	H	0.511905	-0.309540	-0.493711
H347	H	0.556024	-0.353622	-0.493751
H348	H	0.546481	-0.275082	-0.423986
H349	H	0.590565	-0.319199	-0.424079
H350	H	0.701402	-0.959912	-0.164514
H351	H	0.596984	-0.268637	-0.388000
