data_functionalizedCrystal
_audit_creation_method	'MofGen! by Chris Wilmer'
_symmetry_space_group_name_H-M	'P1'
_symmetry_Int_Tables_number	1
_symmetry_cell_setting	triclinic
loop_
_symmetry_equiv_pos_as_xyz
  x,y,z
_cell_length_a	19.188930
_cell_length_b	10.654554
_cell_length_c	18.266242
_cell_angle_alpha	89.991002
_cell_angle_beta	90.006796
_cell_angle_gamma	96.183039
loop_
_atom_site_label
_atom_site_type_symbol
_atom_site_fract_x
_atom_site_fract_y
_atom_site_fract_z
O1	O	0.098093	-1.665763	0.060935
O2	O	0.107428	-1.300088	0.060927
O3	O	0.001174	-1.493478	0.060917
O4	O	0.204347	-1.472373	0.060945
O5	O	0.001177	-1.493453	-0.060845
O6	O	0.107431	-1.300064	-0.060834
O7	O	0.098096	-1.665738	-0.060827
Zn8	Zn	0.102764	-1.482897	-0.080163
Zn9	Zn	0.102760	-1.482930	0.080264
O10	O	0.204350	-1.472348	-0.060817
C11	C	0.106743	-1.253293	0.000045
C12	C	0.104688	-1.113894	0.000042
C13	C	0.104699	-1.113841	-0.132707
C14	C	0.103741	-1.048326	-0.199080
C15	C	0.101809	-0.917349	-0.199079
C16	C	0.100833	-0.851885	-0.132698
C17	C	0.101790	-0.917400	-0.066325
C18	C	0.103725	-1.048380	-0.066333
C19	C	0.101774	-0.917453	0.066422
C20	C	0.103711	-1.048429	0.066423
C21	C	0.100797	-0.851989	0.132804
C22	C	0.101760	-0.917503	0.199178
C23	C	0.103693	-1.048488	0.199175
C24	C	0.104669	-1.113944	0.132796
C25	C	-0.024840	-1.492782	0.000034
C26	C	-0.102358	-1.490731	0.000028
C27	C	-0.146537	-1.604206	0.000027
C28	C	-0.219374	-1.602278	0.000038
C29	C	-0.248027	-1.486869	0.000036
C30	C	-0.203838	-1.373380	0.000042
C31	C	-0.131003	-1.375310	0.000037
N32	N	-0.356610	-1.398645	-0.041403
N33	N	-0.425801	-1.396818	-0.041401
C34	C	-0.467474	-1.481045	0.000051
N35	N	-0.437345	-1.567187	0.041491
N36	N	-0.368148	-1.569017	0.041485
C37	C	-0.327004	-1.484763	0.000042
C38	C	-0.590632	-1.592438	0.000064
C39	C	-0.663469	-1.590506	0.000080
C40	C	-0.647932	-1.361604	0.000076
C41	C	-0.575096	-1.363539	0.000067
C42	C	-0.546451	-1.478960	0.000057
C43	C	0.230364	-1.473044	0.000068
C44	C	0.307882	-1.475096	0.000079
N45	N	0.102767	-1.482884	-0.189650
C46	C	0.098776	-0.712535	0.000053
C47	C	0.100816	-0.851938	0.000049
C48	C	0.145486	-1.558879	-0.771919
C49	C	0.145493	-1.558866	-0.695274
C50	C	0.102753	-1.482941	-0.656963
C51	C	0.060016	-1.407000	-0.695303
C52	C	0.060016	-1.407006	-0.771946
N53	N	0.041573	-1.479900	-0.536633
N54	N	0.041575	-1.479901	-0.463825
C55	C	0.102753	-1.482917	-0.426040
N56	N	0.163929	-1.485956	-0.463814
N57	N	0.163926	-1.485961	-0.536629
C58	C	0.102749	-1.482926	-0.573856
C59	C	0.145498	-1.558833	-0.304602
C60	C	0.145506	-1.558811	-0.227956
C61	C	0.060024	-1.406952	-0.227986
C62	C	0.060022	-1.406967	-0.304631
C63	C	0.102758	-1.482914	-0.342934
N64	N	0.102752	-1.482953	0.189751
H65	H	0.106282	-1.220488	-0.132714
H66	H	0.099219	-0.745342	0.132800
H67	H	0.100960	-0.864192	0.253220
H68	H	0.106247	-1.220592	0.132787
H69	H	0.104471	-1.101823	0.253224
F70	F	-0.116055	-1.727047	0.000032
F71	F	0.191005	-1.639603	-0.187162
F72	F	-0.234334	-1.250553	0.000044
F73	F	-0.266401	-1.723058	0.000038
H74	H	0.104535	-1.101642	-0.253126
F75	F	0.190974	-1.639701	-0.812680
H76	H	0.180295	-1.620692	-0.664059
F77	F	-0.083982	-1.254529	0.000039
H78	H	0.101035	-0.864006	-0.253126
H79	H	-0.539124	-1.271136	0.000064
H80	H	-0.699440	-1.682914	0.000083
F81	F	-0.560143	-1.715277	0.000050
F82	F	-0.678423	-1.238776	0.000078
H83	H	0.025219	-1.345179	-0.664105
H84	H	0.025216	-1.345175	-0.803155
H85	H	0.180299	-1.620668	-0.335790
F86	F	0.014541	-1.326138	-0.187218
F87	F	0.014535	-1.326160	-0.345427
H88	H	0.099250	-0.745238	-0.132703
