data_functionalizedCrystal
_audit_creation_method	'MofGen! by Chris Wilmer'
_symmetry_space_group_name_H-M	'P1'
_symmetry_Int_Tables_number	1
_symmetry_cell_setting	triclinic
loop_
_symmetry_equiv_pos_as_xyz
  x,y,z
_cell_length_a	10.540554
_cell_length_b	10.540558
_cell_length_c	9.616153
_cell_angle_alpha	90.000743
_cell_angle_beta	89.994981
_cell_angle_gamma	84.532202
loop_
_atom_site_label
_atom_site_type_symbol
_atom_site_fract_x
_atom_site_fract_y
_atom_site_fract_z
O1	O	-1.685875	-0.178991	-0.115554
O2	O	-1.316465	-0.195828	-0.115569
O3	O	-1.509585	-0.002705	-0.115576
O4	O	-1.492754	-0.372114	-0.115547
O5	O	-1.509597	-0.002686	0.115715
O6	O	-1.316476	-0.195809	0.115722
O7	O	-1.685886	-0.178972	0.115738
Zn8	Zn	-1.501183	-0.187387	0.152452
Zn9	Zn	-1.501168	-0.187413	-0.152284
O10	O	-1.492766	-0.372095	0.115744
C11	C	-1.269168	-0.194552	0.000074
C12	C	-1.128221	-0.190763	0.000067
C13	C	-1.091541	-0.049748	0.000062
C14	C	-0.944941	-0.045761	0.000601
C15	C	-0.918897	-0.255108	0.131911
C16	C	-1.065662	-0.258118	0.132008
C17	C	-1.065533	-0.260192	-0.131023
C18	C	-0.919187	-0.253661	-0.132742
C19	C	-1.508324	0.044607	0.000063
C20	C	-1.504533	0.185554	0.000043
C21	C	-0.733185	-0.180231	0.000092
C22	C	-0.874139	-0.183970	0.000094
N23	N	-1.501158	-0.187421	-0.360259
C24	C	-1.359604	0.368987	-0.000500
C25	C	-1.363448	0.222370	0.000034
C26	C	-1.572430	0.247219	0.132119
C27	C	-1.567605	0.393763	0.132217
C28	C	-1.570462	0.394259	-0.130804
C29	C	-1.571771	0.247278	-0.132538
C30	C	-1.494010	0.580591	0.000080
C31	C	-1.497752	0.439637	0.000024
C32	C	-1.397979	-0.290826	-0.580625
C33	C	-1.397581	-0.290584	-0.419457
C34	C	-1.471365	-0.054594	-0.418745
C35	C	-1.470648	-0.055170	-0.579963
C36	C	-1.634513	-0.215562	-0.580137
C37	C	-1.633628	-0.218594	-0.418910
N38	N	-1.501203	-0.187369	0.360427
H39	H	-0.916490	0.009617	0.095643
H40	H	-0.890577	-0.201892	-0.230262
C41	C	-1.150236	0.022188	0.127576
N42	N	-1.194442	0.076365	0.223626
H43	H	-1.304102	0.399205	0.093680
H44	H	-1.415455	-0.389269	-0.379916
H45	H	-1.373398	-0.030562	-0.617575
C46	C	-1.664154	-0.350602	-0.367260
N47	N	-1.687145	-0.450030	-0.328346
C48	C	-1.704672	0.458562	0.140334
N49	N	-1.807909	0.507363	0.146457
H50	H	-1.517431	0.421973	0.230944
C51	C	-1.421760	-0.424571	-0.633025
N52	N	-1.439674	-0.525311	-0.672502
C53	C	-1.265105	-0.266604	-0.635347
N54	N	-1.165024	-0.248351	-0.676558
H55	H	-0.870145	-0.354531	-0.141103
H56	H	-1.087724	-0.363944	-0.132290
H57	H	-1.310022	0.179762	-0.094644
C58	C	-1.712393	0.216989	0.138785
N59	N	-1.817811	0.194208	0.143810
C60	C	-1.284294	0.407630	-0.128454
N61	N	-1.227567	0.436749	-0.224830
C62	C	-1.508719	0.189695	0.264908
N63	N	-1.460722	0.146370	0.364921
C64	C	-1.508761	0.436870	-0.266053
N65	N	-1.462274	0.468963	-0.367915
C66	C	-0.905296	0.029419	-0.127016
N67	N	-0.875443	0.086059	-0.223134
H68	H	-1.522090	0.206414	-0.230244
H69	H	-1.309657	0.180625	0.094873
H70	H	-1.674632	0.223051	-0.140506
C71	C	-1.708121	0.458059	-0.132010
N72	N	-1.811800	0.506121	-0.132910
C73	C	-1.263944	-0.266052	-0.367364
N74	N	-1.163284	-0.247571	-0.328128
C75	C	-1.568281	0.052070	-0.632644
N76	N	-1.641811	0.132849	-0.672317
H77	H	-1.544502	0.024294	-0.380396
C78	C	-1.341458	-0.020611	-0.364223
N79	N	-1.243608	0.004977	-0.323162
C80	C	-1.672912	-0.343709	-0.635085
N81	N	-1.701819	-0.440235	-0.676472
H82	H	-1.714100	-0.148259	-0.378610
C83	C	-0.877163	-0.189148	0.264941
N84	N	-0.845732	-0.139459	0.365137
C85	C	-1.738303	-0.113671	-0.631645
N86	N	-1.816468	-0.036925	-0.670451
H87	H	-1.105834	-0.210065	0.230913
H88	H	-1.088699	-0.361493	0.137648
H89	H	-1.133501	0.004392	-0.094454
H90	H	-1.107983	-0.216201	-0.230970
H91	H	-0.871548	-0.356869	0.136449
