data_functionalizedCrystal
_audit_creation_method	'MofGen! by Chris Wilmer'
_symmetry_space_group_name_H-M	'P1'
_symmetry_Int_Tables_number	1
_symmetry_cell_setting	triclinic
loop_
_symmetry_equiv_pos_as_xyz
  x,y,z
_cell_length_a	10.654541
_cell_length_b	10.654551
_cell_length_c	9.130313
_cell_angle_alpha	89.998448
_cell_angle_beta	89.998910
_cell_angle_gamma	84.484645
loop_
_atom_site_label
_atom_site_type_symbol
_atom_site_fract_x
_atom_site_fract_y
_atom_site_fract_z
O1	O	-1.667837	-0.176379	-0.121744
O2	O	-1.302358	-0.193188	-0.121756
O3	O	-1.493500	-0.002044	-0.121751
O4	O	-1.476696	-0.367523	-0.121750
O5	O	-1.493498	-0.002049	0.121848
O6	O	-1.302356	-0.193193	0.121843
O7	O	-1.667835	-0.176384	0.121854
Cu8	Cu	-1.485095	-0.184789	0.144091
Cu9	Cu	-1.485098	-0.184783	-0.143993
O10	O	-1.476693	-0.367528	0.121849
C11	C	-1.255559	-0.191957	0.000042
C12	C	-1.116116	-0.188266	0.000037
C13	C	-1.492265	0.044751	0.000045
C14	C	-1.488572	0.184194	0.000035
C15	C	-1.714634	-0.177615	0.000053
C16	C	-1.854078	-0.181306	0.000049
C17	C	-1.088146	-0.416831	0.000019
C18	C	-1.008652	-0.529374	0.000004
C19	C	-0.877634	-0.525898	0.000003
C20	C	-0.826108	-0.409867	0.000020
C21	C	-0.905602	-0.297324	0.000035
C22	C	-1.036621	-0.300812	0.000032
C23	C	-0.933572	-0.068762	0.000063
C24	C	-1.064590	-0.072235	0.000054
C25	C	-0.882046	0.047269	0.000081
C26	C	-0.961540	0.159814	0.000086
C27	C	-1.092566	0.156334	0.000085
C28	C	-1.144084	0.040308	0.000069
C29	C	-1.477929	-0.414323	0.000050
C30	C	-1.481621	-0.553766	0.000050
N31	N	-1.485103	-0.184793	0.346714
C32	C	-1.486842	0.249709	-0.132748
C33	C	-1.483361	0.380730	-0.132741
C34	C	-1.483348	0.380709	0.132844
C35	C	-1.486820	0.249690	0.132835
C36	C	-1.488594	0.184213	-0.265548
C37	C	-1.486865	0.249728	-0.398342
C38	C	-1.483385	0.380749	-0.398335
C39	C	-1.481634	0.446254	-0.265535
N40	N	-1.485101	-0.184769	-0.346616
C41	C	-1.569762	-0.100183	0.423368
C42	C	-1.569759	-0.100168	0.576705
C43	C	-1.400432	-0.269383	0.576719
C44	C	-1.400431	-0.269391	0.423385
C45	C	-1.654434	-0.015585	0.346696
C46	C	-1.739101	0.069031	0.423351
C47	C	-1.739098	0.069046	0.576688
C48	C	-1.654427	-0.015554	0.653370
H49	H	-1.194826	-0.419672	-0.000012
H50	H	-1.654423	-0.015527	0.778227
C51	C	-1.488790	0.177670	-0.544414
N52	N	-1.490243	0.123398	-0.654439
H53	H	-1.481924	0.434054	0.240963
H54	H	-1.478782	0.552937	-0.265540
H55	H	-1.808029	0.137951	0.639098
C56	C	-0.790188	-0.649700	-0.000013
N57	N	-0.724324	-0.742948	-0.000028
H58	H	-1.050619	-0.623844	-0.000006
C59	C	-1.492303	0.040074	-0.265567
N60	N	-1.495054	-0.068497	-0.265580
C61	C	-1.307303	-0.362438	0.661076
N62	N	-1.237157	-0.432531	0.724613
C63	C	-1.288205	0.036469	0.000073
N64	N	-1.396759	0.033572	0.000084
C65	C	-1.654443	-0.015591	0.178023
N66	N	-1.654448	-0.015596	0.050978
H67	H	-1.331492	-0.338287	0.360973
C68	C	-0.681984	-0.406051	0.000035
N69	N	-0.573428	-0.403175	0.000045
C70	C	-1.180000	0.280143	0.000103
N71	N	-1.245851	0.373400	0.000113
H72	H	-1.481963	0.434086	-0.506462
H73	H	-0.775363	0.050090	0.000088
H74	H	-1.488202	0.196344	0.240959
H75	H	-1.808031	0.137917	0.360908
H76	H	-0.919576	0.254278	0.000099
