data_functionalizedCrystal
_audit_creation_method	'MofGen! by Chris Wilmer'
_symmetry_space_group_name_H-M	'P1'
_symmetry_Int_Tables_number	1
_symmetry_cell_setting	triclinic
loop_
_symmetry_equiv_pos_as_xyz
  x,y,z
_cell_length_a	14.519731
_cell_length_b	11.792241
_cell_length_c	10.868271
_cell_angle_alpha	90.003536
_cell_angle_beta	90.006559
_cell_angle_gamma	96.058865
loop_
_atom_site_label
_atom_site_type_symbol
_atom_site_fract_x
_atom_site_fract_y
_atom_site_fract_z
O1	O	0.126404	-1.506213	0.102206
O2	O	0.139431	-1.175801	0.102235
O3	O	-0.001287	-1.349755	0.102208
O4	O	0.267123	-1.332260	0.102232
O5	O	-0.001295	-1.349753	-0.102436
O6	O	0.139424	-1.175799	-0.102410
O7	O	0.126397	-1.506211	-0.102439
Zn8	Zn	0.132909	-1.341005	-0.134916
Zn9	Zn	0.132919	-1.341008	0.134712
O10	O	0.267115	-1.332258	-0.102412
C11	C	0.138609	-1.133514	-0.000084
C12	C	0.136160	-1.007513	-0.000073
N13	N	0.132919	-1.341010	0.318726
C14	C	-0.035654	-1.348934	-0.000114
C15	C	-0.138043	-1.346478	-0.000115
C16	C	-0.221194	-1.344482	-0.000112
C17	C	-0.325512	-1.341988	-0.000102
C18	C	-0.408658	-1.340008	-0.000094
C19	C	-0.512983	-1.337514	-0.000087
C20	C	0.301482	-1.333078	-0.000087
C21	C	0.403871	-1.335535	-0.000079
C22	C	0.127219	-1.548499	-0.000117
C23	C	0.129668	-1.674499	-0.000120
C24	C	0.131656	-0.776826	-0.000109
C25	C	0.134159	-0.905197	-0.000089
N26	N	0.132901	-1.341011	-0.318930
C27	C	0.132913	-1.341007	0.569732
C28	C	0.132920	-1.341005	0.430055
