data_functionalizedCrystal
_audit_creation_method	'MofGen! by Chris Wilmer'
_symmetry_space_group_name_H-M	'P1'
_symmetry_Int_Tables_number	1
_symmetry_cell_setting	triclinic
loop_
_symmetry_equiv_pos_as_xyz
  x,y,z
_cell_length_a	19.188879
_cell_length_b	14.853567
_cell_length_c	17.666332
_cell_angle_alpha	90.006378
_cell_angle_beta	89.983726
_cell_angle_gamma	96.620496
loop_
_atom_site_label
_atom_site_type_symbol
_atom_site_fract_x
_atom_site_fract_y
_atom_site_fract_z
O1	O	-0.091159	1.195843	0.062913
O2	O	0.408841	1.695843	0.562913
O3	O	-0.102018	0.933320	0.062928
O4	O	0.397982	1.433320	0.562928
O5	O	0.005044	1.072181	0.062896
O6	O	0.505044	1.572181	0.562896
O7	O	-0.198221	1.056982	0.062945
O8	O	0.301779	1.556982	0.562945
O9	O	0.005050	1.072157	-0.063000
O10	O	0.505050	1.572157	0.437000
O11	O	-0.102012	0.933296	-0.062969
O12	O	0.397988	1.433296	0.437031
O13	O	-0.091153	1.195818	-0.062984
O14	O	0.408847	1.695818	0.437016
Cu15	Cu	-0.096582	1.064555	-0.074472
Cu16	Cu	0.403418	1.564555	0.425528
Cu17	Cu	-0.096589	1.064584	0.074416
Cu18	Cu	0.403411	1.564584	0.574416
O19	O	-0.198215	1.056958	-0.062952
O20	O	0.301785	1.556958	0.437048
C21	C	-0.101523	0.899722	-0.000019
C22	C	0.398477	1.399722	0.499981
C23	C	-0.100049	0.799647	-0.000014
C24	C	0.399951	1.299647	0.499986
C25	C	-0.030219	0.387518	-0.000048
C26	C	0.469781	0.887518	0.499952
C27	C	-0.157411	0.365500	-0.000017
C28	C	0.342589	0.865500	0.499983
C29	C	-0.158797	0.459526	-0.000014
C30	C	0.341203	0.959526	0.499986
C31	C	-0.095893	0.517552	-0.000027
C32	C	0.404107	1.017552	0.499973
C33	C	-0.031603	0.481553	-0.000043
C34	C	0.468397	0.981553	0.499957
C35	C	-0.223087	0.495532	0.000009
C36	C	0.276913	0.995532	0.500009
C37	C	-0.224476	0.589563	0.000013
C38	C	0.275524	1.089563	0.500013
C39	C	-0.161571	0.647591	-0.000005
C40	C	0.338429	1.147591	0.499995
C41	C	-0.097278	0.611587	-0.000022
C42	C	0.402722	1.111587	0.499978
C43	C	-0.034374	0.669613	-0.000035
C44	C	0.465626	1.169613	0.499965
C45	C	0.029920	0.633610	-0.000057
C46	C	0.529920	1.133610	0.499943
C47	C	0.031302	0.539581	-0.000061
C48	C	0.531302	1.039581	0.499939
C49	C	-0.162953	0.741621	-0.000001
C50	C	0.337047	1.241621	0.499999
C51	C	-0.035758	0.763648	-0.000030
C52	C	0.464242	1.263648	0.499970
C53	C	-0.224232	1.057454	0.000002
C54	C	0.275768	1.557454	0.500002
C55	C	-0.301743	1.058909	0.000021
C56	C	0.198257	1.558909	0.500021
C57	C	-0.338125	1.059602	-0.068609
C58	C	0.161875	1.559602	0.431391
C59	C	-0.410952	1.060993	-0.068623
C60	C	0.089048	1.560993	0.431377
C61	C	-0.447394	1.061710	-0.000002
C62	C	0.052606	1.561710	0.499998
C63	C	-0.411004	1.061012	0.068637
C64	C	0.088996	1.561012	0.568637
C65	C	-0.338178	1.059611	0.068649
C66	C	0.161822	1.559611	0.568649
N67	N	-0.556594	1.115224	0.051058
N68	N	-0.056594	1.615224	0.551058
N69	N	-0.625775	1.116556	0.051043
N70	N	-0.125775	1.616556	0.551043
C71	C	-0.666812	1.065928	-0.000032
C72	C	-0.166812	1.565928	0.499968
N73	N	-0.636054	1.013929	-0.051102
N74	N	-0.136054	1.513929	0.448898
N75	N	-0.566867	1.012600	-0.051089
N76	N	-0.066867	1.512600	0.448911
C77	C	-0.526360	1.063228	-0.000006
C78	C	-0.026360	1.563228	0.499994
C79	C	-0.782162	1.068128	-0.068681
C80	C	-0.282162	1.568128	0.431319
C81	C	-0.854992	1.069514	-0.068691
C82	C	-0.354992	1.569514	0.431309
C83	C	-0.855041	1.069542	0.068571
C84	C	-0.355041	1.569542	0.568571
C85	C	-0.782214	1.068147	0.068579
C86	C	-0.282214	1.568147	0.568579
C87	C	-0.745778	1.067445	-0.000049
C88	C	-0.245778	1.567445	0.499951
C89	C	0.031060	1.071684	-0.000056
C90	C	0.531060	1.571684	0.499944
C91	C	0.108572	1.070230	-0.000070
C92	C	0.608572	1.570230	0.499930
C93	C	-0.091648	1.229416	-0.000035
C94	C	0.408352	1.729416	0.499965
C95	C	-0.093123	1.329492	-0.000035
C96	C	0.406877	1.829492	0.499965
N97	N	-0.096577	1.064541	-0.179191
N98	N	0.403423	1.564541	0.320809
C99	C	-0.049193	1.126049	-0.218815
C100	C	0.450807	1.626049	0.281185
C101	C	-0.049190	1.126054	-0.298062
C102	C	0.450810	1.626054	0.201938
C103	C	-0.096582	1.064560	-0.337683
C104	C	0.403418	1.564560	0.162317
C105	C	-0.143970	1.003042	-0.298050
C106	C	0.356030	1.503042	0.201950
C107	C	-0.143967	1.003032	-0.218804
C108	C	0.356033	1.503032	0.281196
N109	N	-0.158352	1.052826	-0.462087
N110	N	0.341648	1.552826	0.037913
N111	N	-0.158352	1.052841	-0.537367
N112	N	0.341648	1.552841	-0.037367
C113	C	-0.096592	1.064584	-0.576447
C114	C	0.403408	1.564584	-0.076447
N115	N	-0.034830	1.076330	-0.537403
N116	N	0.465170	1.576330	-0.037403
N117	N	-0.034830	1.076320	-0.462115
N118	N	0.465170	1.576320	0.037885
C119	C	-0.096590	1.064564	-0.423612
C120	C	0.403410	1.564564	0.076388
C121	C	-0.049201	1.126101	-0.702000
C122	C	0.450799	1.626101	-0.202000
C123	C	-0.049196	1.126100	-0.781249
C124	C	0.450804	1.626100	-0.281249
C125	C	-0.143983	1.003091	-0.781235
C126	C	0.356017	1.503091	-0.281235
C127	C	-0.143981	1.003088	-0.701988
C128	C	0.356019	1.503088	-0.201988
C129	C	-0.096591	1.064598	-0.662375
C130	C	0.403409	1.564598	-0.162375
N131	N	-0.096589	1.064604	0.179135
N132	N	0.403411	1.564604	0.679135
H133	H	-0.215300	0.770930	0.000015
H134	H	0.284700	1.270930	0.500015
H135	H	-0.308463	1.059028	-0.124492
H136	H	0.191537	1.559028	0.375508
H137	H	-0.182568	0.953019	-0.813494
H138	H	0.317432	1.453019	-0.313494
Br139	Br	-0.460338	1.061941	-0.161770
Br140	Br	0.039662	1.561941	0.338230
Br141	Br	-0.208284	0.919578	-0.351818
Br142	Br	0.291716	1.419578	0.148182
Br143	Br	-0.460457	1.061986	0.161767
Br144	Br	0.039543	1.561986	0.661767
H145	H	-0.010610	1.176183	-0.669746
H146	H	0.489390	1.676183	-0.169746
Br147	Br	0.015124	1.209534	-0.351847
Br148	Br	0.515124	1.709534	0.148153
H149	H	-0.276827	0.618868	0.000031
H150	H	0.223173	1.118868	0.500031
H151	H	-0.308557	1.059046	0.124538
H152	H	0.191443	1.559046	0.624538
H153	H	-0.182568	0.953007	-0.669724
H154	H	0.317432	1.453007	-0.169724
Br155	Br	0.049616	0.842392	-0.000057
Br156	Br	0.549616	1.342392	0.499943
H157	H	-0.010607	1.176184	-0.813512
H158	H	0.489393	1.676184	-0.313512
Br159	Br	-0.732834	1.067213	0.161726
Br160	Br	-0.232834	1.567213	0.661726
H161	H	0.081136	0.680868	-0.000062
H162	H	0.581136	1.180868	0.499938
H163	H	-0.752496	1.067549	-0.124562
H164	H	-0.252496	1.567549	0.375438
Br165	Br	-0.208278	0.919551	-0.165024
Br166	Br	0.291722	1.419551	0.334976
H167	H	0.083646	0.510258	-0.000097
H168	H	0.583646	1.010258	0.499903
Br169	Br	-0.242777	0.286751	0.000015
Br170	Br	0.257223	0.786751	0.500015
Br171	Br	0.057033	0.338661	-0.000084
Br172	Br	0.557033	0.838661	0.499916
Br173	Br	-0.904493	1.070472	0.161701
Br174	Br	-0.404493	1.570472	0.661701
Br175	Br	-0.308451	0.416780	0.000043
Br176	Br	0.191549	0.916780	0.500043
H177	H	-0.884613	1.070076	-0.124581
H178	H	-0.384613	1.570076	0.375419
Br179	Br	0.015122	1.209520	-0.165054
Br180	Br	0.515122	1.709520	0.334946
