data_functionalizedCrystal
_audit_creation_method	'MofGen! by Chris Wilmer'
_symmetry_space_group_name_H-M	'P1'
_symmetry_Int_Tables_number	1
_symmetry_cell_setting	triclinic
loop_
_symmetry_equiv_pos_as_xyz
  x,y,z
_cell_length_a	12.759401
_cell_length_b	29.839131
_cell_length_c	12.759393
_cell_angle_alpha	90.037890
_cell_angle_beta	90.018567
_cell_angle_gamma	90.040464
loop_
_atom_site_label
_atom_site_type_symbol
_atom_site_fract_x
_atom_site_fract_y
_atom_site_fract_z
Zn1	Zn	1.606060	-0.178838	0.593937
Zn2	Zn	1.605873	-0.253977	0.418238
Zn3	Zn	1.430362	-0.178860	0.418276
Zn4	Zn	1.430269	-0.253941	0.593879
O5	O	1.518141	-0.216404	0.506083
O6	O	1.753056	-0.188811	0.570638
O7	O	1.582551	-0.244037	0.271222
O8	O	1.453787	-0.115990	0.441618
O9	O	1.752919	-0.244015	0.441553
O10	O	1.582871	-0.115974	0.570676
O11	O	1.453605	-0.188849	0.271250
O12	O	1.283329	-0.188814	0.441562
O13	O	1.453628	-0.243954	0.740908
O14	O	1.283260	-0.243975	0.570577
O15	O	1.582781	-0.188776	0.740951
O16	O	1.582461	-0.316839	0.441497
O17	O	1.453446	-0.316813	0.570539
C18	C	1.245174	-0.216394	0.506068
C19	C	1.128397	-0.216400	0.506087
C20	C	1.073600	-0.187709	0.573406
C21	C	0.963876	-0.187718	0.573412
C22	C	0.963756	-0.245111	0.438778
C23	C	1.073478	-0.245100	0.438767
C24	C	1.128519	-0.159009	0.640725
C25	C	1.073722	-0.130317	0.708051
C26	C	0.963998	-0.130325	0.708057
C27	C	0.909071	-0.159026	0.640739
C28	C	1.517951	-0.333127	0.506030
C29	C	1.517966	-0.383061	0.506043
C30	C	1.585441	-0.692706	0.438988
C31	C	1.585571	-0.880379	0.439029
O32	O	1.642790	-0.904644	0.381976
N33	N	1.518359	-0.903846	0.506162
C34	C	1.451114	-0.880392	0.573294
O35	O	1.393957	-0.904659	0.630403
C36	C	1.450991	-0.692720	0.573258
C37	C	1.518200	-0.669255	0.506113
C38	C	1.652646	-0.669240	0.371850
C39	C	1.652609	-0.622325	0.371836
C40	C	1.585367	-0.598875	0.438961
C41	C	1.518163	-0.622340	0.506099
C42	C	1.383752	-0.669267	0.640395
C43	C	1.383729	-0.622346	0.640382
C44	C	1.450938	-0.598881	0.573237
C45	C	1.450884	-0.551974	0.573211
N46	N	1.518096	-0.528506	0.506078
C47	C	1.585338	-0.551957	0.438953
C48	C	1.451183	-0.978923	0.573307
C49	C	1.451212	-1.025841	0.573315
C50	C	1.585670	-1.025824	0.439051
C51	C	1.585635	-0.978905	0.439038
C52	C	1.518395	-0.955456	0.506174
C53	C	1.585254	-0.453431	0.438929
C54	C	1.585208	-0.406511	0.438918
C55	C	1.450754	-0.406533	0.573186
C56	C	1.450796	-0.453448	0.573193
C57	C	1.518054	-0.476896	0.506061
O58	O	1.393703	-0.527679	0.630242
O59	O	1.642503	-0.527682	0.381869
C60	C	1.585479	-0.739621	0.439002
C61	C	1.518274	-0.763086	0.506140
C62	C	1.451033	-0.739636	0.573265
C63	C	1.518304	-0.810004	0.506148
C64	C	1.585545	-0.833454	0.439023
C65	C	1.652757	-0.809987	0.371890
C66	C	1.652720	-0.763071	0.371877
C67	C	1.383820	-0.763103	0.640398
C68	C	1.383862	-0.810019	0.640405
C69	C	1.451104	-0.833469	0.573280
C70	C	1.792174	-0.216415	0.506098
C71	C	1.908951	-0.216420	0.506104
C72	C	1.518215	-0.216359	0.780116
C73	C	1.518246	-0.216339	0.896893
C74	C	1.518360	-0.099226	0.506158
C75	C	1.518454	-0.049291	0.506190
C76	C	1.518128	-0.216417	0.233115
C77	C	1.518301	-0.216310	0.116339
C78	C	1.585505	-0.187606	0.951779
C79	C	1.585530	-0.187590	1.061503
C80	C	1.451034	-0.245044	1.061445
C81	C	1.451004	-0.245058	0.951723
C82	C	1.652747	-0.158887	0.896948
C83	C	1.720013	-0.130151	0.951834
C84	C	1.720038	-0.130135	1.061558
C85	C	1.652797	-0.158855	1.116396
H86	H	1.639937	-0.387408	0.384237
Cl87	Cl	1.366513	-0.281148	1.130386
H88	H	0.819726	-0.159021	0.640727
Cl89	Cl	1.669807	-0.482901	0.354531
H90	H	1.118450	-0.106947	0.762852
H91	H	1.396220	-0.268449	0.907034
Cl92	Cl	1.142371	-0.281173	0.354146
H93	H	0.919026	-0.268479	0.383972
H94	H	1.707339	-0.603223	0.317164
H95	H	1.217862	-0.158999	0.640727
Cl96	Cl	1.737287	-0.839476	0.287503
Cl97	Cl	1.652724	-0.158907	0.759010
H98	H	1.707408	-0.688329	0.317188
Cl99	Cl	1.670131	-0.949411	0.354626
H100	H	1.640421	-1.044925	0.384395
Cl101	Cl	1.366704	-1.055334	0.657717
Cl102	Cl	1.652817	-0.158827	1.254337
H103	H	1.396425	-0.959834	0.627978
H104	H	1.774751	-0.106766	0.907178
Cl105	Cl	1.299267	-0.698755	0.724824
Cl106	Cl	1.804601	-0.094013	1.130555
H107	H	1.396003	-0.387432	0.627835
H108	H	0.919384	-0.106959	0.762869
H109	H	1.328975	-0.603256	0.695055
H110	H	1.396072	-0.472554	0.627871
H111	H	1.707448	-0.743969	0.317201
Cl112	Cl	1.299360	-0.839512	0.724824
Cl113	Cl	1.299279	-0.733630	0.724792
