data_functionalizedCrystal
_audit_creation_method	'MofGen! by Chris Wilmer'
_symmetry_space_group_name_H-M	'P1'
_symmetry_Int_Tables_number	1
_symmetry_cell_setting	triclinic
loop_
_symmetry_equiv_pos_as_xyz
  x,y,z
_cell_length_a	10.654562
_cell_length_b	13.262508
_cell_length_c	9.730223
_cell_angle_alpha	105.916979
_cell_angle_beta	89.996961
_cell_angle_gamma	84.462496
loop_
_atom_site_label
_atom_site_type_symbol
_atom_site_fract_x
_atom_site_fract_y
_atom_site_fract_z
O1	O	1.667059	0.147483	-0.059247
O2	O	1.301510	0.161515	-0.053984
O3	O	1.493480	0.001776	-0.113699
O4	O	1.475088	0.307222	0.000469
O5	O	1.493478	0.001780	0.114882
O6	O	1.301507	0.161519	0.174597
O7	O	1.667057	0.147487	0.169335
Zn8	Zn	1.484282	0.154504	0.208258
Zn9	Zn	1.484285	0.154498	-0.092908
O10	O	1.475086	0.307226	0.229050
C11	C	1.254716	0.160484	0.059923
C12	C	1.115290	0.157393	0.058774
C13	C	1.049765	0.155953	0.182824
C14	C	0.918758	0.153058	0.181719
C15	C	0.918811	0.153045	-0.067496
C16	C	1.049817	0.155934	-0.066392
C17	C	1.049733	0.155965	0.326708
C18	C	0.918726	0.153069	0.325603
C19	C	1.492448	-0.037333	-0.014030
C20	C	1.489361	-0.153872	-0.057598
C21	C	1.480649	-0.482380	0.318007
C22	C	1.483539	-0.372885	0.358943
C23	C	1.484996	-0.318126	0.254811
C24	C	1.483560	-0.372874	0.109737
C25	C	1.480660	-0.482378	0.068798
C26	C	1.485006	-0.318125	0.005602
C27	C	1.483571	-0.372872	-0.139473
C28	C	1.480671	-0.482366	-0.180405
C29	C	1.479215	-0.537125	-0.076273
C30	C	1.487907	-0.208620	0.046541
C31	C	1.487917	-0.208618	-0.202669
C32	C	1.485027	-0.318113	-0.243604
C33	C	1.713850	0.148518	0.055425
C34	C	1.853277	0.151609	0.056565
C35	C	1.476118	0.346335	0.129378
C36	C	1.479205	0.462874	0.172936
N37	N	1.484289	0.154507	0.413796
N38	N	1.484287	0.154487	-0.298448
C39	C	1.569315	0.083798	0.459289
C40	C	1.569312	0.083786	0.603167
C41	C	1.399252	0.225198	0.656050
C42	C	1.399250	0.225205	0.512172
C43	C	1.667502	0.002158	0.428760
C44	C	1.667499	0.002145	0.572638
H45	H	0.865486	0.151857	-0.169402
N46	N	0.856908	0.249156	0.434674
H47	H	0.878550	0.314842	0.410337
H48	H	0.762410	0.247007	0.433876
H49	H	1.484721	-0.328319	0.477062
N50	N	1.088394	0.257353	0.423763
H51	H	1.183339	0.255775	0.421033
H52	H	1.049756	0.318822	0.390385
H53	H	1.487347	-0.228970	0.288150
H54	H	1.103164	0.157089	-0.167412
N55	N	1.489439	-0.149567	-0.314994
H56	H	1.491485	-0.071892	-0.267047
H57	H	1.566679	-0.176628	-0.379559
H58	H	1.637382	-0.074095	0.588759
N59	N	1.111522	0.059892	0.363990
H60	H	1.044603	0.014930	0.379821
H61	H	1.170625	0.017785	0.283008
H62	H	1.479454	-0.526974	0.402776
N63	N	1.788110	0.036010	0.382283
H64	H	1.783706	0.034779	0.278155
H65	H	1.799406	0.109774	0.441986
H66	H	0.889535	0.076521	0.341637
H67	H	1.476868	-0.626285	-0.109596
H68	H	1.479491	-0.526937	-0.298533
N69	N	1.483481	-0.377166	-0.400073
H70	H	1.481424	-0.454840	-0.410198
H71	H	1.406230	-0.350091	-0.444367
H72	H	1.489064	-0.164054	0.164662
H73	H	1.763916	0.020133	0.618407
N74	N	1.639651	-0.104702	0.337077
H75	H	1.639647	-0.104740	0.233263
H76	H	1.706433	-0.160202	0.350994
N77	N	1.307522	0.301449	0.463094
H78	H	1.253652	0.346232	0.547249
H79	H	1.355819	0.348240	0.420881
N80	N	1.307532	0.301446	0.762153
H81	H	1.320430	0.290711	0.860203
H82	H	1.322417	0.376025	0.764892
