data_functionalizedCrystal
_audit_creation_method	'MofGen! by Chris Wilmer'
_symmetry_space_group_name_H-M	'P1'
_symmetry_Int_Tables_number	1
_symmetry_cell_setting	triclinic
loop_
_symmetry_equiv_pos_as_xyz
  x,y,z
_cell_length_a	10.654559
_cell_length_b	23.532357
_cell_length_c	9.130313
_cell_angle_alpha	89.993247
_cell_angle_beta	89.999532
_cell_angle_gamma	83.658488
loop_
_atom_site_label
_atom_site_type_symbol
_atom_site_fract_x
_atom_site_fract_y
_atom_site_fract_z
O1	O	1.665261	0.080009	-0.121827
O2	O	1.299540	0.087624	-0.121830
O3	O	1.493461	0.000955	-0.121799
O4	O	1.471339	0.166678	-0.121859
O5	O	1.493459	0.000957	0.121800
O6	O	1.299537	0.087626	0.121769
O7	O	1.665258	0.080011	0.121772
Cu8	Cu	1.482398	0.083819	0.144013
Cu9	Cu	1.482400	0.083816	-0.144071
O10	O	1.471337	0.166680	0.121740
C11	C	1.252758	0.087065	-0.000031
C12	C	1.113370	0.085389	-0.000031
C13	C	1.063517	0.032784	-0.000008
C14	C	0.932545	0.031213	-0.000018
C15	C	0.901289	0.134856	-0.000068
C16	C	1.032258	0.136426	-0.000068
C17	C	1.144629	-0.018253	0.000030
C18	C	1.094777	-0.070862	0.000055
C19	C	0.963806	-0.072434	0.000044
C20	C	0.882685	-0.021396	0.000009
C21	C	1.492907	-0.020264	0.000005
C22	C	1.491243	-0.083493	0.000019
C23	C	1.480800	-0.475574	-0.132846
C24	C	1.479219	-0.534984	-0.132854
O25	O	1.478359	-0.565707	-0.245783
N26	N	1.478433	-0.564699	-0.000070
C27	C	1.479216	-0.535000	0.132731
O28	O	1.478402	-0.565731	0.245673
C29	C	1.480789	-0.475591	0.132738
C30	C	1.481587	-0.445880	-0.000055
C31	C	1.481597	-0.445863	-0.265627
C32	C	1.483181	-0.386457	-0.265619
C33	C	1.483968	-0.356763	-0.132828
C34	C	1.483171	-0.386474	-0.000046
C35	C	1.481563	-0.445893	0.265537
C36	C	1.483134	-0.386480	0.265532
C37	C	1.483933	-0.356769	0.132740
C38	C	1.485541	-0.297375	0.132754
N39	N	1.486327	-0.267660	-0.000030
C40	C	1.485540	-0.297354	-0.132821
C41	C	1.475912	-0.659764	0.132706
C42	C	1.474349	-0.719172	0.132701
C43	C	1.474349	-0.719151	-0.132884
C44	C	1.475921	-0.659742	-0.132878
C45	C	1.476697	-0.630049	-0.000078
C46	C	1.488867	-0.172598	-0.132792
C47	C	1.490456	-0.113187	-0.132772
C48	C	1.490449	-0.113213	0.132813
C49	C	1.488867	-0.172619	0.132793
C50	C	1.488072	-0.202310	-0.000021
O51	O	1.486396	-0.266614	0.245625
O52	O	1.486338	-0.266616	-0.245744
C53	C	1.712039	0.080570	-0.000031
C54	C	1.851428	0.082247	-0.000041
C55	C	1.471891	0.187899	-0.000067
C56	C	1.473555	0.251129	-0.000091
N57	N	1.482405	0.083821	0.346635
N58	N	1.482403	0.083810	-0.346694
C59	C	1.568295	0.045457	0.423301
C60	C	1.568291	0.045450	0.576638
C61	C	1.396504	0.122176	0.576629
C62	C	1.396502	0.122180	0.423295
C63	C	1.654197	0.007098	0.346641
C64	C	1.740095	-0.031269	0.423307
C65	C	1.740092	-0.031275	0.576644
C66	C	1.654191	0.007084	0.653315
H67	H	0.835231	0.176408	-0.000094
H68	H	1.476548	-0.635591	0.240855
Cl69	Cl	1.288526	0.170398	0.673015
Cl70	Cl	1.288519	0.170409	0.326913
H71	H	1.654187	0.007072	0.778172
Cl72	Cl	1.196754	-0.135020	0.000082
H73	H	1.251274	-0.016980	0.000043
Cl74	Cl	0.718034	-0.023374	-0.000016
H75	H	1.491109	-0.088999	-0.240912
H76	H	1.488213	-0.196765	-0.240942
Cl77	Cl	1.654210	0.007107	0.153875
H78	H	1.810026	-0.062503	0.360874
H79	H	0.923221	-0.115270	0.000050
H80	H	1.483748	-0.362305	0.373677
H81	H	1.072848	0.179262	-0.000074
Cl82	Cl	1.484172	-0.349114	-0.432567
H83	H	1.480952	-0.470033	-0.373768
Cl84	Cl	1.476920	-0.622397	-0.299823
H85	H	1.473704	-0.743339	-0.241010
Cl86	Cl	1.473369	-0.756517	0.299648
Cl87	Cl	1.480551	-0.483230	0.432488
H88	H	1.488229	-0.196812	0.240924
Cl89	Cl	1.491438	-0.075872	0.299741
H90	H	1.810025	-0.062519	0.639064
