data_functionalizedCrystal
_audit_creation_method	'MofGen! by Chris Wilmer'
_symmetry_space_group_name_H-M	'P1'
_symmetry_Int_Tables_number	1
_symmetry_cell_setting	triclinic
loop_
_symmetry_equiv_pos_as_xyz
  x,y,z
_cell_length_a	16.109302
_cell_length_b	10.723023
_cell_length_c	14.586319
_cell_angle_alpha	89.997215
_cell_angle_beta	89.994552
_cell_angle_gamma	83.964664
loop_
_atom_site_label
_atom_site_type_symbol
_atom_site_fract_x
_atom_site_fract_y
_atom_site_fract_z
O1	O	1.104074	0.160395	-0.076280
O2	O	1.604074	0.660395	0.423720
O3	O	0.862129	0.180355	-0.076272
O4	O	1.362129	0.680355	0.423728
O5	O	0.988683	-0.011275	-0.076272
O6	O	1.488683	0.488725	0.423728
O7	O	0.977521	0.352025	-0.076279
O8	O	1.477521	0.852025	0.423721
O9	O	0.988674	-0.011278	0.076209
O10	O	1.488674	0.488722	0.576209
O11	O	0.862121	0.180352	0.076209
O12	O	1.362121	0.680352	0.576209
O13	O	1.104065	0.160392	0.076201
O14	O	1.604065	0.660392	0.576201
Cu15	Cu	0.983092	0.170372	0.090128
Cu16	Cu	1.483092	0.670372	0.590128
Cu17	Cu	0.983102	0.170375	-0.090199
Cu18	Cu	1.483102	0.670375	0.409801
O19	O	0.977512	0.352022	0.076201
O20	O	1.477512	0.852022	0.576201
C21	C	0.831145	0.179545	-0.000031
C22	C	1.331145	0.679545	0.499969
C23	C	0.738836	0.177120	-0.000028
C24	C	1.238836	0.677120	0.499972
C25	C	0.526457	0.171513	0.083080
C26	C	1.026457	0.671513	0.583080
C27	C	0.439724	0.169221	0.083077
C28	C	0.939724	0.669221	0.583077
C29	C	0.439744	0.169231	-0.083166
C30	C	0.939744	0.669231	0.416834
C31	C	0.526476	0.171513	-0.083162
C32	C	1.026476	0.671513	0.416838
C33	C	0.569830	0.172660	-0.000036
C34	C	1.069830	0.672660	0.499964
C35	C	0.396364	0.168087	-0.000043
C36	C	0.896364	0.668087	0.499957
C37	C	0.302324	0.165602	-0.000047
C38	C	0.802324	0.665602	0.499953
C39	C	0.663877	0.175143	-0.000031
C40	C	1.163877	0.675143	0.499969
C41	C	0.987866	-0.057766	-0.000033
C42	C	1.487866	0.442234	0.499967
C43	C	0.985436	-0.196288	-0.000036
C44	C	1.485436	0.303712	0.499964
C45	C	0.984358	-0.258038	-0.079026
C46	C	1.484358	0.241962	0.420974
C47	C	0.981846	-0.401208	-0.079031
C48	C	1.481846	0.098792	0.420969
C49	C	1.135049	0.161202	-0.000042
C50	C	1.635049	0.661202	0.499958
C51	C	1.227359	0.163627	-0.000051
C52	C	1.727359	0.663627	0.499949
C53	C	0.978328	0.398512	-0.000040
C54	C	1.478328	0.898512	0.499960
C55	C	0.980758	0.537035	-0.000043
C56	C	1.480758	1.037035	0.499957
N57	N	0.983091	0.170369	0.216959
N58	N	1.483091	0.670369	0.716959
N59	N	0.983110	0.170368	-0.217030
N60	N	1.483110	0.670368	0.282970
C61	C	1.039147	0.085543	0.451966
C62	C	1.539147	0.585543	0.951966
C63	C	1.039150	0.085540	0.547947
C64	C	1.539150	0.585540	1.047947
C65	C	0.927048	0.255198	0.547957
C66	C	1.427048	0.755198	1.047957
C67	C	0.927042	0.255194	0.451977
C68	C	1.427042	0.755194	0.951977
C69	C	0.983096	0.170368	0.403984
C70	C	1.483096	0.670368	0.903984
C71	C	0.983105	0.170369	0.595945
C72	C	1.483105	0.670369	1.095945
C73	C	0.983107	0.170366	0.700012
C74	C	1.483107	0.670366	1.200012
C75	C	0.983093	0.170369	0.299910
C76	C	1.483093	0.670369	0.799910
H77	H	0.561792	0.172444	-0.150849
H78	H	1.061792	0.672444	0.349151
H79	H	1.084789	0.016471	0.412892
H80	H	1.584789	0.516471	0.912892
H81	H	0.404434	0.168298	-0.150844
H82	H	0.904434	0.668298	0.349156
H83	H	0.985290	-0.204911	-0.146650
H84	H	1.485290	0.295089	0.353350
H85	H	0.984495	-0.249413	0.067588
H86	H	1.484495	0.250587	0.567588
H87	H	0.980923	-0.454312	-0.146658
H88	H	1.480923	0.045688	0.353342
H89	H	0.981690	-0.409871	0.067587
H90	H	1.481690	0.090129	0.567587
C91	C	1.149963	-0.082144	0.538290
C92	C	1.649963	0.417856	1.038290
C93	C	1.100766	-0.007697	0.600688
C94	C	1.600766	0.492303	1.100688
H95	H	1.188007	-0.139702	0.570853
H96	H	1.688007	0.360298	1.070853
H97	H	1.115102	-0.127045	0.500865
H98	H	1.615102	0.372955	1.000865
H99	H	1.180157	-0.030172	0.500846
H100	H	1.680157	0.469828	1.000846
H101	H	1.070568	-0.059669	0.638128
H102	H	1.570568	0.440331	1.138128
H103	H	1.135632	0.037207	0.638130
H104	H	1.635632	0.537207	1.138130
C105	C	0.333429	0.273837	0.179512
C106	C	0.833429	0.773837	0.679512
C107	C	0.392043	0.167956	0.174438
C108	C	0.892043	0.667956	0.674438
H109	H	0.303990	0.273045	0.235915
H110	H	0.803990	0.773045	0.735915
H111	H	0.361335	0.347441	0.176067
H112	H	0.861335	0.847441	0.676067
H113	H	0.295200	0.272817	0.130002
H114	H	0.795200	0.772817	0.630002
H115	H	0.430275	0.168980	0.223945
H116	H	0.930275	0.668980	0.723945
H117	H	0.364135	0.094333	0.177893
H118	H	0.864135	0.594333	0.677893
C119	C	0.877287	0.330546	0.695092
C120	C	1.377287	0.830546	1.195092
C121	C	0.865443	0.348447	0.600714
C122	C	1.365443	0.848447	1.100714
H123	H	0.839258	0.388125	0.727658
H124	H	1.339258	0.888125	1.227658
H125	H	0.867781	0.247275	0.710825
H126	H	1.367781	0.747275	1.210825
H127	H	0.932854	0.344121	0.710798
H128	H	1.432854	0.844121	1.210798
H129	H	0.809877	0.334863	0.585006
H130	H	1.309877	0.834863	1.085006
H131	H	0.874943	0.431738	0.584974
H132	H	1.374943	0.931738	1.084974
H133	H	0.881394	0.324269	0.412908
H134	H	1.381394	0.824269	0.912908
H135	H	0.561753	0.172447	0.150767
H136	H	1.061753	0.672447	0.650767
