data_functionalizedCrystal
_audit_creation_method	'MofGen! by Chris Wilmer'
_symmetry_space_group_name_H-M	'P1'
_symmetry_Int_Tables_number	1
_symmetry_cell_setting	triclinic
loop_
_symmetry_equiv_pos_as_xyz
  x,y,z
_cell_length_a	16.120490
_cell_length_b	21.295417
_cell_length_c	16.120256
_cell_angle_alpha	92.869836
_cell_angle_beta	90.129807
_cell_angle_gamma	87.121864
loop_
_atom_site_label
_atom_site_type_symbol
_atom_site_fract_x
_atom_site_fract_y
_atom_site_fract_z
Zn1	Zn	1.247403	-0.318979	-0.534503
Zn2	Zn	1.580736	0.014354	-0.201170
Zn3	Zn	1.914069	0.347687	0.132163
Zn4	Zn	1.254340	-0.419186	-0.395435
Zn5	Zn	1.587673	-0.085853	-0.062101
Zn6	Zn	1.921006	0.247481	0.271232
Zn7	Zn	1.115394	-0.308333	-0.388425
Zn8	Zn	1.448727	0.025000	-0.055092
Zn9	Zn	1.782060	0.358333	0.278242
Zn10	Zn	1.108295	-0.418603	-0.527408
Zn11	Zn	1.441629	-0.085270	-0.194075
Zn12	Zn	1.774962	0.248063	0.139259
O13	O	1.181358	-0.366276	-0.461443
O14	O	1.514691	-0.032942	-0.128109
O15	O	1.848024	0.300391	0.205224
O16	O	1.364689	-0.336971	-0.521959
O17	O	1.698022	-0.003638	-0.188625
O18	O	2.031356	0.329696	0.144708
O19	O	1.241782	-0.400270	-0.278139
O20	O	1.575115	-0.066936	0.055194
O21	O	1.908449	0.266397	0.388528
O22	O	1.132973	-0.221660	-0.407839
O23	O	1.466306	0.111673	-0.074505
O24	O	1.799639	0.445007	0.258828
O25	O	1.369786	-0.410593	-0.419785
O26	O	1.703119	-0.077259	-0.086452
O27	O	2.036452	0.256074	0.246881
O28	O	1.229959	-0.229482	-0.515162
O29	O	1.563292	0.103852	-0.181828
O30	O	1.896626	0.437185	0.151505
O31	O	1.139699	-0.318827	-0.272989
O32	O	1.473032	0.014507	0.060344
O33	O	1.806366	0.347840	0.393677
O34	O	0.998086	-0.318262	-0.400959
O35	O	1.331419	0.015072	-0.067625
O36	O	1.664753	0.348405	0.265708
O37	O	1.120874	-0.409600	-0.644715
O38	O	1.454207	-0.076266	-0.311382
O39	O	1.787541	0.257067	0.021952
O40	O	0.992871	-0.399277	-0.503069
O41	O	1.326204	-0.065943	-0.169735
O42	O	1.659537	0.267390	0.163598
O43	O	1.223076	-0.336406	-0.649928
O44	O	1.556409	-0.003073	-0.316594
O45	O	1.889742	0.330261	0.016739
O46	O	1.234899	-0.507194	-0.412905
O47	O	1.568232	-0.173861	-0.079572
O48	O	1.901566	0.159472	0.253761
O49	O	1.127601	-0.506766	-0.509866
O50	O	1.460934	-0.173433	-0.176532
O51	O	1.794267	0.159900	0.156801
C52	C	0.965306	-0.357551	-0.450484
C53	C	1.298639	-0.024218	-0.117150
C54	C	1.631972	0.309115	0.216183
C55	C	0.872877	-0.353835	-0.445815
C56	C	1.206210	-0.020501	-0.112482
C57	C	1.539543	0.312832	0.220852
C58	C	0.659910	-0.385548	-0.485661
C59	C	0.993244	-0.052215	-0.152328
C60	C	1.326577	0.281118	0.181005
C61	C	0.703653	-0.347055	-0.437290
C62	C	1.036986	-0.013722	-0.103957
C63	C	1.370320	0.319611	0.229377
C64	C	0.797818	-0.350828	-0.442035
C65	C	1.131151	-0.017495	-0.108701
C66	C	1.464484	0.315838	0.224632
C67	C	0.565737	-0.381776	-0.480918
C68	C	0.899070	-0.048443	-0.147584
C69	C	1.232404	0.284891	0.185749
C70	C	1.181254	-0.529821	-0.461395
C71	C	1.514587	-0.196488	-0.128062
C72	C	1.847921	0.136845	0.205271
C73	C	1.181284	-0.599791	-0.461407
C74	C	1.514617	-0.266458	-0.128073
C75	C	1.847951	0.066876	0.205260
C76	C	1.231753	-0.636673	-0.517326
C77	C	1.565086	-0.303340	-0.183993
C78	C	1.898419	0.029993	0.149340
C79	C	1.231781	-0.702418	-0.517348
C80	C	1.565114	-0.369084	-0.184015
C81	C	1.898448	-0.035751	0.149318
C82	C	1.181350	-0.731277	-0.461436
C83	C	1.514684	-0.397944	-0.128103
C84	C	1.848017	-0.064611	0.205230
C85	C	1.130872	-0.694386	-0.405512
C86	C	1.464205	-0.361053	-0.072179
C87	C	1.797538	-0.027720	0.261154
C88	C	1.130839	-0.628643	-0.405498
C89	C	1.464172	-0.295310	-0.072164
C90	C	1.797505	0.038023	0.261169
N91	N	1.178760	-0.831639	-0.388344
N92	N	1.512093	-0.498305	-0.055011
N93	N	1.845426	-0.164972	0.278322
N94	N	1.178796	-0.894092	-0.388361
N95	N	1.512129	-0.560759	-0.055028
N96	N	1.845462	-0.227425	0.278306
C97	C	1.181445	-0.929357	-0.461479
C98	C	1.514779	-0.596024	-0.128145
C99	C	1.848112	-0.262690	0.205188
N100	N	1.184074	-0.899810	-0.534582
N101	N	1.517407	-0.566477	-0.201248
N102	N	1.850740	-0.233144	0.132085
N103	N	1.184042	-0.837351	-0.534564
N104	N	1.517375	-0.504018	-0.201231
N105	N	1.850709	-0.170684	0.132102
C106	C	1.181380	-0.802564	-0.461446
C107	C	1.514713	-0.469231	-0.128113
C108	C	1.848047	-0.135897	0.205220
C109	C	1.231947	-1.037527	-0.517427
C110	C	1.565280	-0.704194	-0.184093
C111	C	1.898614	-0.370861	0.149240
C112	C	1.231970	-1.103273	-0.517450
C113	C	1.565303	-0.769939	-0.184117
C114	C	1.898636	-0.436606	0.149217
C115	C	1.131065	-1.095240	-0.405607
C116	C	1.464399	-0.761907	-0.072274
C117	C	1.797732	-0.428573	0.261060
C118	C	1.131038	-1.029496	-0.405591
C119	C	1.464371	-0.696163	-0.072258
C120	C	1.797705	-0.362829	0.261076
C121	C	1.181484	-1.000644	-0.461500
C122	C	1.514817	-0.667310	-0.128167
C123	C	1.848150	-0.333977	0.205167
C124	C	1.398253	-0.375034	-0.472445
C125	C	1.731587	-0.041701	-0.139112
C126	C	2.064920	0.291632	0.194221
C127	C	1.490681	-0.378767	-0.477134
C128	C	1.824015	-0.045434	-0.143801
C129	C	2.157348	0.287900	0.189533
C130	C	1.170409	-0.374125	-0.678337
C131	C	1.503743	-0.040792	-0.345004
C132	C	1.837076	0.292541	-0.011671
C133	C	1.165744	-0.377471	-0.770765
C134	C	1.499077	-0.044137	-0.437431
C135	C	1.832410	0.289196	-0.104098
C136	C	1.181484	-0.202093	-0.461510
C137	C	1.514817	0.131241	-0.128176
C138	C	1.848150	0.464574	0.205157
C139	C	1.181537	-0.132128	-0.461538
C140	C	1.514871	0.201206	-0.128205
C141	C	1.848204	0.534539	0.205128
C142	C	1.205687	-0.348815	-0.983751
C143	C	1.539020	-0.015481	-0.650417
C144	C	1.872353	0.317852	-0.317084
C145	C	1.157198	-0.383551	-0.939984
C146	C	1.490531	-0.050217	-0.606651
C147	C	1.823864	0.283116	-0.273318
C148	C	1.161954	-0.380167	-0.845822
C149	C	1.495288	-0.046833	-0.512489
C150	C	1.828621	0.286500	-0.179155
C151	C	1.200931	-0.352198	-1.077922
C152	C	1.534265	-0.018865	-0.744589
C153	C	1.867598	0.314469	-0.411255
C154	C	1.192311	-0.358413	-0.245394
C155	C	1.525645	-0.025079	0.087939
C156	C	1.858978	0.308254	0.421272
C157	C	1.197138	-0.354897	-0.152976
C158	C	1.530472	-0.021563	0.180358
C159	C	1.863805	0.311770	0.513691
H160	H	0.670382	-0.311266	-0.392314
H161	H	1.003715	0.022067	-0.058981
H162	H	1.337049	0.355400	0.274352
H163	H	1.112108	-0.415827	-0.973233
H164	H	1.445442	-0.082494	-0.639900
H165	H	1.778775	0.250840	-0.306566
Cl166	Cl	0.711276	-0.440807	-0.555087
Cl167	Cl	1.044609	-0.107474	-0.221753
Cl168	Cl	1.377943	0.225859	0.111580
Cl169	Cl	1.295411	-1.149640	-0.587765
Cl170	Cl	1.628744	-0.816307	-0.254432
Cl171	Cl	1.962078	-0.482974	0.078901
Cl172	Cl	1.295164	-0.600405	-0.587617
Cl173	Cl	1.628497	-0.267072	-0.254284
Cl174	Cl	1.961830	0.066261	0.079049
Cl175	Cl	1.275280	-0.298972	-0.932419
Cl176	Cl	1.608614	0.034362	-0.599086
Cl177	Cl	1.941947	0.367695	-0.265753
Cl178	Cl	1.295238	-0.748793	-0.587647
Cl179	Cl	1.628571	-0.415460	-0.254314
Cl180	Cl	1.961904	-0.082127	0.079019
H181	H	1.089809	-0.717888	-0.359990
H182	H	1.423142	-0.384555	-0.026657
H183	H	1.756476	-0.051221	0.306676
Cl184	Cl	1.067387	-0.582274	-0.335193
Cl185	Cl	1.400720	-0.248941	-0.001860
Cl186	Cl	1.734053	0.084392	0.331473
H187	H	1.273020	-1.014035	-0.562954
H188	H	1.606354	-0.680702	-0.229621
H189	H	1.939687	-0.347368	0.103713
Cl190	Cl	1.067663	-1.131514	-0.335319
Cl191	Cl	1.400997	-0.798181	-0.001985
Cl192	Cl	1.734330	-0.464848	0.331348
H193	H	1.089946	-0.999464	-0.360053
H194	H	1.423279	-0.666131	-0.026719
H195	H	1.756612	-0.332798	0.306614
