data_functionalizedCrystal
_audit_creation_method	'MofGen! by Chris Wilmer'
_symmetry_space_group_name_H-M	'P1'
_symmetry_Int_Tables_number	1
_symmetry_cell_setting	triclinic
loop_
_symmetry_equiv_pos_as_xyz
  x,y,z
_cell_length_a	12.759401
_cell_length_b	12.759400
_cell_length_c	17.077396
_cell_angle_alpha	89.974414
_cell_angle_beta	89.980900
_cell_angle_gamma	90.014632
loop_
_atom_site_label
_atom_site_type_symbol
_atom_site_fract_x
_atom_site_fract_y
_atom_site_fract_z
Zn1	Zn	1.606234	-0.418268	-0.443850
Zn2	Zn	1.939567	-0.084934	-0.110517
Zn3	Zn	2.272901	0.248399	0.222817
Zn4	Zn	1.606135	-0.593968	-0.312591
Zn5	Zn	1.939468	-0.260635	0.020743
Zn6	Zn	2.272801	0.072698	0.354076
Zn7	Zn	1.430542	-0.418304	-0.312599
Zn8	Zn	1.763876	-0.084970	0.020734
Zn9	Zn	2.097209	0.248363	0.354068
Zn10	Zn	1.430525	-0.593905	-0.443815
Zn11	Zn	1.763858	-0.260572	-0.110482
Zn12	Zn	2.097191	0.072762	0.222851
O13	O	1.518359	-0.506111	-0.378214
O14	O	1.851692	-0.172778	-0.044880
O15	O	2.185025	0.160555	0.288453
O16	O	1.753242	-0.441586	-0.426449
O17	O	2.086575	-0.108253	-0.093116
O18	O	2.419908	0.225080	0.240217
O19	O	1.582808	-0.570708	-0.202745
O20	O	1.916141	-0.237374	0.130588
O21	O	2.249475	0.095959	0.463922
O22	O	1.453897	-0.271278	-0.330028
O23	O	1.787230	0.062055	0.003306
O24	O	2.120564	0.395389	0.336639
O25	O	1.753169	-0.570673	-0.330014
O26	O	2.086502	-0.237339	0.003320
O27	O	2.419835	0.095994	0.336653
O28	O	1.582977	-0.271252	-0.426457
O29	O	1.916310	0.062082	-0.093124
O30	O	2.249644	0.395415	0.240209
O31	O	1.453801	-0.441648	-0.202751
O32	O	1.787134	-0.108314	0.130582
O33	O	2.120468	0.225019	0.463916
O34	O	1.283519	-0.441586	-0.329994
O35	O	1.616852	-0.108253	0.003339
O36	O	1.950186	0.225080	0.336673
O37	O	1.453867	-0.570565	-0.553667
O38	O	1.787200	-0.237232	-0.220334
O39	O	2.120533	0.096102	0.113000
O40	O	1.283506	-0.570600	-0.426398
O41	O	1.616839	-0.237266	-0.093065
O42	O	1.950173	0.096067	0.240269
O43	O	1.582960	-0.441525	-0.553692
O44	O	1.916293	-0.108192	-0.220359
O45	O	2.249626	0.225142	0.112974
O46	O	1.582791	-0.740981	-0.329980
O47	O	1.916124	-0.407648	0.003353
O48	O	2.249457	-0.074314	0.336687
O49	O	1.453771	-0.740935	-0.426390
O50	O	1.787104	-0.407601	-0.093057
O51	O	2.120437	-0.074268	0.240277
C52	C	1.245391	-0.506091	-0.378194
C53	C	1.578725	-0.172758	-0.044860
C54	C	1.912058	0.160576	0.288473
C55	C	1.128615	-0.506107	-0.378203
C56	C	1.461948	-0.172774	-0.044870
C57	C	1.795281	0.160559	0.288463
C58	C	0.963981	-0.573239	-0.327949
C59	C	1.297314	-0.239905	0.005384
C60	C	1.630648	0.093428	0.338718
C61	C	1.073705	-0.573219	-0.327927
C62	C	1.407038	-0.239886	0.005407
C63	C	1.740372	0.093447	0.338740
C64	C	1.073795	-0.439003	-0.428500
C65	C	1.407128	-0.105670	-0.095167
C66	C	1.740462	0.227664	0.238167
C67	C	0.964073	-0.439018	-0.428518
C68	C	1.297406	-0.105684	-0.095184
C69	C	1.630740	0.227649	0.238149
C70	C	0.963930	-0.650731	-0.269886
C71	C	1.297263	-0.317397	0.063447
C72	C	1.630596	0.015936	0.396781
C73	C	1.073654	-0.650711	-0.269864
C74	C	1.406987	-0.317378	0.063469
C75	C	1.740321	0.015955	0.396803
C76	C	1.518296	-0.779079	-0.378197
C77	C	1.851630	-0.445745	-0.044864
C78	C	2.184963	-0.112412	0.288469
C79	C	1.518366	-0.895855	-0.378217
C80	C	1.851699	-0.562522	-0.044883
C81	C	2.185033	-0.229189	0.288450
C82	C	1.585621	-0.950707	-0.328071
C83	C	1.918954	-0.617373	0.005262
C84	C	2.252288	-0.284040	0.338595
C85	C	1.585686	-1.060431	-0.328096
C86	C	1.919019	-0.727097	0.005238
C87	C	2.252352	-0.393764	0.338571
C88	C	1.451231	-1.060442	-0.428412
C89	C	1.784564	-0.727109	-0.095079
C90	C	2.117897	-0.393776	0.238254
C91	C	1.451172	-0.950720	-0.428392
C92	C	1.784506	-0.617387	-0.095058
C93	C	2.117839	-0.284054	0.238275
C94	C	1.663245	-0.950701	-0.270152
C95	C	1.996578	-0.617367	0.063182
C96	C	2.329911	-0.284034	0.396515
C97	C	1.663309	-1.060425	-0.270176
C98	C	1.996642	-0.727091	0.063157
C99	C	2.329976	-0.393758	0.396491
C100	C	1.792392	-0.506132	-0.378235
C101	C	2.125725	-0.172799	-0.044901
C102	C	2.459059	0.160534	0.288432
C103	C	1.909169	-0.506141	-0.378243
C104	C	2.242502	-0.172808	-0.044910
C105	C	2.575835	0.160525	0.288423
C106	C	1.518422	-0.506034	-0.582958
C107	C	1.851756	-0.172700	-0.249625
C108	C	2.185089	0.160633	0.083709
C109	C	1.518449	-0.506001	-0.670208
C110	C	1.851783	-0.172668	-0.336875
C111	C	2.185116	0.160666	-0.003541
C112	C	1.518450	-0.232078	-0.378247
C113	C	1.851783	0.101255	-0.044914
C114	C	2.185117	0.434589	0.288419
C115	C	1.518489	-0.115301	-0.378262
C116	C	1.851822	0.218032	-0.044928
C117	C	2.185156	0.551365	0.288405
C118	C	1.585671	-0.438804	-0.711213
C119	C	1.919004	-0.105471	-0.377879
C120	C	2.252337	0.227863	-0.044546
C121	C	1.585683	-0.438769	-0.793193
C122	C	1.919017	-0.105436	-0.459860
C123	C	2.252350	0.227898	-0.126527
C124	C	1.518479	-0.505937	-0.834167
C125	C	1.851813	-0.172604	-0.500834
C126	C	2.185146	0.160730	-0.167501
C127	C	1.451251	-0.573137	-0.793157
C128	C	1.784584	-0.239803	-0.459824
C129	C	2.117917	0.093530	-0.126490
C130	C	1.451234	-0.573166	-0.711178
C131	C	1.784567	-0.239832	-0.377845
C132	C	2.117900	0.093501	-0.044511
C133	C	1.451293	-0.573073	-0.964027
C134	C	1.784626	-0.239740	-0.630694
C135	C	2.117960	0.093593	-0.297360
C136	C	1.451311	-0.573046	-1.046012
C137	C	1.784645	-0.239713	-0.712678
C138	C	2.117978	0.093620	-0.379345
C139	C	1.585743	-0.438677	-1.046042
C140	C	1.919076	-0.105344	-0.712709
C141	C	2.252409	0.227990	-0.379376
C142	C	1.585725	-0.438706	-0.964063
C143	C	1.919059	-0.105373	-0.630730
C144	C	2.252392	0.227961	-0.297397
C145	C	1.518498	-0.505907	-0.923059
C146	C	1.851831	-0.172574	-0.589725
C147	C	2.185165	0.160759	-0.256392
C148	C	1.518356	-0.506113	-0.174266
C149	C	1.851689	-0.172779	0.159067
C150	C	2.185023	0.160554	0.492401
C151	C	1.518532	-0.505850	-0.087017
C152	C	1.851866	-0.172516	0.246317
C153	C	2.185199	0.160817	0.579650
H154	H	0.919449	-0.384373	-0.469466
H155	H	1.252782	-0.051039	-0.136133
H156	H	1.586116	0.282294	0.197200
H157	H	1.107644	-0.621467	-0.212142
H158	H	1.440978	-0.288133	0.121192
H159	H	1.774311	0.045200	0.454525
H160	H	1.396533	-0.627780	-0.930644
H161	H	1.729866	-0.294446	-0.597310
H162	H	2.063200	0.038887	-0.263977
H163	H	1.118511	-0.384352	-0.469431
H164	H	1.451845	-0.051019	-0.136098
H165	H	1.785178	0.282315	0.197236
H166	H	1.396528	-0.627822	-0.826525
H167	H	1.729862	-0.294489	-0.493191
H168	H	2.063195	0.038845	-0.159858
H169	H	1.103435	-0.732104	-0.286041
H170	H	1.436769	-0.398771	0.047292
H171	H	1.770102	-0.065437	0.380625
H172	H	1.396417	-0.906061	-0.469231
H173	H	1.729751	-0.572728	-0.135898
H174	H	2.063084	-0.239395	0.197436
H175	H	0.934112	-0.628842	-0.209123
H176	H	1.267445	-0.295509	0.124211
H177	H	1.600779	0.037825	0.457544
H178	H	0.929904	-0.728065	-0.291570
H179	H	1.263237	-0.394731	0.041763
H180	H	1.596571	-0.061398	0.375096
H181	H	1.396525	-1.105127	-0.469264
H182	H	1.729858	-0.771793	-0.135930
H183	H	2.063192	-0.438460	0.197403
H184	H	1.740612	-1.094373	-0.292004
H185	H	2.073945	-0.761039	0.041329
H186	H	2.407279	-0.427706	0.374662
H187	H	1.396586	-0.627738	-1.079371
H188	H	1.729919	-0.294405	-0.746038
H189	H	2.063252	0.038929	-0.412704
H190	H	1.641575	-1.090278	-0.209372
H191	H	1.974908	-0.756945	0.123962
H192	H	2.308241	-0.423612	0.457295
H193	H	1.640399	-0.384111	-0.677857
H194	H	1.973733	-0.050778	-0.344524
H195	H	2.307066	0.282555	-0.011191
H196	H	1.640455	-0.384018	-0.930704
H197	H	1.973788	-0.050685	-0.597371
H198	H	2.307121	0.282649	-0.264038
H199	H	1.744587	-0.920845	-0.286481
H200	H	2.077920	-0.587512	0.046852
H201	H	2.411254	-0.254179	0.380186
H202	H	1.634122	-0.916745	-0.212377
H203	H	1.967456	-0.583412	0.120957
H204	H	2.300789	-0.250079	0.454290
H205	H	1.396485	-0.627873	-0.677793
H206	H	1.729818	-0.294540	-0.344460
H207	H	2.063151	0.038793	-0.011126
H208	H	1.640424	-0.384053	-0.826576
H209	H	1.973757	-0.050720	-0.493242
H210	H	2.307091	0.282613	-0.159909
H211	H	1.640480	-0.383958	-1.079432
H212	H	1.973813	-0.050624	-0.746099
H213	H	2.307147	0.282709	-0.412766
