data_functionalizedCrystal
_audit_creation_method	'MofGen! by Chris Wilmer'
_symmetry_space_group_name_H-M	'P1'
_symmetry_Int_Tables_number	1
_symmetry_cell_setting	triclinic
loop_
_symmetry_equiv_pos_as_xyz
  x,y,z
_cell_length_a	12.837943
_cell_length_b	9.730217
_cell_length_c	12.811415
_cell_angle_alpha	95.434118
_cell_angle_beta	89.411917
_cell_angle_gamma	90.000344
loop_
_atom_site_label
_atom_site_type_symbol
_atom_site_fract_x
_atom_site_fract_y
_atom_site_fract_z
O1	O	1.376626	0.148283	0.272975
O2	O	1.074763	0.146610	0.259490
O3	O	1.233289	0.128492	0.114200
O4	O	1.218100	0.166401	0.418265
O5	O	1.233284	-0.100089	0.114198
O6	O	1.074758	-0.081970	0.259488
O7	O	1.376622	-0.080298	0.272973
Zn8	Zn	1.225689	-0.117426	0.266230
Zn9	Zn	1.225695	0.183739	0.266233
O10	O	1.218095	-0.062179	0.418264
C11	C	1.036120	0.031754	0.254934
C12	C	0.920984	0.030063	0.241348
C13	C	0.680730	0.050407	0.404678
C14	C	0.572549	0.048819	0.391917
C15	C	0.596440	0.025288	0.203067
C16	C	0.704621	0.026877	0.215828
C17	C	0.746762	0.039439	0.316636
C18	C	0.854945	0.041037	0.329396
C19	C	0.878833	0.017497	0.140547
C20	C	0.770652	0.015908	0.127786
N21	N	1.225692	-0.322962	0.266229
C22	C	1.366125	-0.338991	0.137621
C23	C	1.436348	-0.418945	0.073321
C24	C	1.436358	-0.562825	0.073321
C25	C	1.366136	-0.626754	0.137626
C26	C	1.295913	-0.546800	0.201926
C27	C	1.295912	-0.402917	0.201921
C28	C	1.155477	-0.530772	0.330527
C29	C	1.155470	-0.386891	0.330534
C30	C	1.085255	-0.594700	0.394833
C31	C	1.015035	-0.514745	0.459140
C32	C	1.015028	-0.370857	0.459138
C33	C	1.085247	-0.306937	0.394834
C34	C	1.415264	0.034562	0.277529
C35	C	1.530400	0.036262	0.291115
C36	C	1.232436	0.009319	0.075010
C37	C	1.229887	-0.005231	-0.041763
N38	N	1.225700	0.389274	0.266227
C39	C	1.225085	0.216655	-0.261180
C40	C	1.222690	0.202991	-0.370899
C41	C	1.222696	-0.046223	-0.370921
C42	C	1.225090	-0.032558	-0.261202
C43	C	1.226286	0.098885	-0.206336
C44	C	1.228688	0.112548	-0.096616
C45	C	1.228687	-0.136664	-0.096639
C46	C	1.226292	-0.150329	-0.206358
C47	C	1.218949	0.056997	0.457454
C48	C	1.221497	0.071556	0.574227
H49	H	0.889253	0.051263	0.411479
F50	F	0.725790	0.002535	0.020504
H51	H	0.957840	-0.305766	0.511494
H52	H	0.932608	0.008575	0.068857
H53	H	1.225314	-0.257346	-0.251045
F54	F	1.085250	-0.153808	0.394831
F55	F	0.940302	-0.582790	0.527564
F56	F	0.502277	0.060489	0.485624
F57	F	1.366132	-0.185861	0.137627
H58	H	1.229669	-0.232562	-0.051973
H59	H	1.366141	-0.743910	0.137613
H60	H	1.226068	0.323681	-0.216508
F61	F	0.725582	0.063793	0.511964
F62	F	1.511093	-0.647919	0.004880
H63	H	1.221714	-0.153237	-0.415612
F64	F	1.511078	-0.350902	0.004881
H65	H	1.085262	-0.711856	0.394825
F66	F	0.551572	0.011904	0.095788
H67	H	1.229665	0.219575	-0.051945
H68	H	1.221708	0.298892	-0.415549
