data_functionalizedCrystal
_audit_creation_method	'MofGen! by Chris Wilmer'
_symmetry_space_group_name_H-M	'P1'
_symmetry_Int_Tables_number	1
_symmetry_cell_setting	triclinic
loop_
_symmetry_equiv_pos_as_xyz
  x,y,z
_cell_length_a	14.519709
_cell_length_b	12.996460
_cell_length_c	14.519731
_cell_angle_alpha	90.007128
_cell_angle_beta	83.684499
_cell_angle_gamma	89.999966
loop_
_atom_site_label
_atom_site_type_symbol
_atom_site_fract_x
_atom_site_fract_y
_atom_site_fract_z
O1	O	1.223878	0.085435	0.120892
O2	O	1.723878	0.585435	0.620892
O3	O	0.955402	0.085467	0.135128
O4	O	1.455402	0.585467	0.635128
O5	O	1.096748	0.085441	-0.006227
O6	O	1.596748	0.585441	0.493773
O7	O	1.082532	0.085461	0.262247
O8	O	1.582532	0.585461	0.762247
O9	O	1.096733	-0.085693	-0.006235
O10	O	1.596733	0.414307	0.493765
O11	O	0.955387	-0.085667	0.135120
O12	O	1.455387	0.414333	0.635120
O13	O	1.223863	-0.085699	0.120884
O14	O	1.723863	0.414301	0.620884
Cu15	Cu	1.089624	-0.101309	0.128001
Cu16	Cu	1.589624	0.398691	0.628001
Cu17	Cu	1.089641	0.101077	0.128011
Cu18	Cu	1.589641	0.601077	0.628011
O19	O	1.082517	-0.085673	0.262239
O20	O	1.582517	0.414327	0.762239
C21	C	0.921035	-0.000096	0.134461
C22	C	1.421035	0.499904	0.634461
C23	C	0.818654	-0.000084	0.132473
C24	C	1.318654	0.499916	0.632473
N25	N	1.089618	-0.243656	0.127994
N26	N	1.589618	0.256344	0.627994
C27	C	0.443757	-0.000132	0.125153
C28	C	0.943757	0.499868	0.625153
C29	C	0.548065	-0.000118	0.127186
C30	C	1.048065	0.499882	0.627186
C31	C	0.631202	-0.000107	0.128813
C32	C	1.131202	0.499893	0.628813
C33	C	0.735517	-0.000095	0.130846
C34	C	1.235517	0.499905	0.630846
C35	C	1.089640	-0.663470	0.128012
C36	C	1.589640	-0.163470	0.628012
C37	C	1.089631	-0.546665	0.128010
C38	C	1.589631	-0.046665	0.628010
C39	C	1.089630	-0.453567	0.128004
C40	C	1.589630	0.046433	0.628004
C41	C	1.089620	-0.336754	0.128001
C42	C	1.589620	0.163246	0.628001
C43	C	1.258230	-0.000133	0.121551
C44	C	1.758230	0.499867	0.621551
C45	C	1.360612	-0.000138	0.123539
C46	C	1.860612	0.499862	0.623539
C47	C	1.096075	-0.000126	-0.040591
C48	C	1.596075	0.499874	0.459409
C49	C	1.094079	-0.000127	-0.142971
C50	C	1.594079	0.499873	0.357029
N51	N	1.089654	0.243424	0.128010
N52	N	1.589654	0.743424	0.628010
C53	C	1.092457	-0.000124	-0.226115
C54	C	1.592457	0.499876	0.273885
C55	C	1.090430	-0.000116	-0.330424
C56	C	1.590430	0.499884	0.169576
C57	C	1.088822	-0.000109	-0.413563
C58	C	1.588822	0.499891	0.086437
C59	C	1.086795	-0.000103	-0.517878
C60	C	1.586795	0.499897	-0.017878
C61	C	1.083191	-0.000103	0.296603
C62	C	1.583191	0.499897	0.796603
C63	C	1.085187	-0.000096	0.398983
C64	C	1.585187	0.499904	0.898983
