data_functionalizedCrystal
_audit_creation_method	'MofGen! by Chris Wilmer'
_symmetry_space_group_name_H-M	'P1'
_symmetry_Int_Tables_number	1
_symmetry_cell_setting	triclinic
loop_
_symmetry_equiv_pos_as_xyz
  x,y,z
_cell_length_a	16.625548
_cell_length_b	19.121063
_cell_length_c	16.625525
_cell_angle_alpha	92.346297
_cell_angle_beta	89.938871
_cell_angle_gamma	92.470058
loop_
_atom_site_label
_atom_site_type_symbol
_atom_site_fract_x
_atom_site_fract_y
_atom_site_fract_z
Zn1	Zn	1.219314	-0.279135	-0.469556
Zn2	Zn	1.552647	0.054199	-0.136223
Zn3	Zn	1.885981	0.387532	0.197111
Zn4	Zn	1.213355	-0.396718	-0.340471
Zn5	Zn	1.546688	-0.063385	-0.007137
Zn6	Zn	1.880022	0.269949	0.326196
Zn7	Zn	1.084373	-0.279293	-0.334744
Zn8	Zn	1.417706	0.054040	-0.001411
Zn9	Zn	1.751039	0.387374	0.331923
Zn10	Zn	1.078688	-0.396546	-0.475253
Zn11	Zn	1.412021	-0.063213	-0.141919
Zn12	Zn	1.745355	0.270120	0.191414
O13	O	1.148932	-0.337923	-0.405006
O14	O	1.482266	-0.004590	-0.071672
O15	O	1.815599	0.328744	0.261661
O16	O	1.331356	-0.294738	-0.452445
O17	O	1.664689	0.038595	-0.119112
O18	O	1.998022	0.371929	0.214221
O19	O	1.196130	-0.381280	-0.226885
O20	O	1.529464	-0.047946	0.106448
O21	O	1.862797	0.285387	0.439782
O22	O	1.107146	-0.180992	-0.347846
O23	O	1.440479	0.152341	-0.014513
O24	O	1.773812	0.485675	0.318821
O25	O	1.326978	-0.381126	-0.357607
O26	O	1.660311	-0.047793	-0.024274
O27	O	1.993644	0.285541	0.309060
O28	O	1.206286	-0.180876	-0.446892
O29	O	1.539620	0.152458	-0.113559
O30	O	1.872953	0.485791	0.219775
O31	O	1.101367	-0.295008	-0.222678
O32	O	1.434701	0.038326	0.110656
O33	O	1.768034	0.371659	0.443989
O34	O	0.970786	-0.294841	-0.353370
O35	O	1.304120	0.038492	-0.020037
O36	O	1.637453	0.371825	0.313297
O37	O	1.097457	-0.380833	-0.587323
O38	O	1.430790	-0.047500	-0.253990
O39	O	1.764124	0.285833	0.079344
O40	O	0.966610	-0.380987	-0.456601
O41	O	1.299943	-0.047653	-0.123268
O42	O	1.633277	0.285680	0.210066
O43	O	1.200774	-0.294571	-0.583138
O44	O	1.534108	0.038762	-0.249804
O45	O	1.867441	0.372095	0.083529
O46	O	1.190618	-0.494975	-0.363131
O47	O	1.523952	-0.161642	-0.029797
O48	O	1.857285	0.171691	0.303536
O49	O	1.091679	-0.494849	-0.462154
O50	O	1.425012	-0.161516	-0.128821
O51	O	1.758346	0.171818	0.204512
C52	C	0.939442	-0.337913	-0.404983
C53	C	1.272775	-0.004580	-0.071649
C54	C	1.606109	0.328754	0.261684
C55	C	0.849820	-0.337926	-0.404993
C56	C	1.183154	-0.004592	-0.071660
C57	C	1.516487	0.328741	0.261674
C58	C	1.139907	-0.520395	-0.413900
C59	C	1.473241	-0.187062	-0.080566
C60	C	1.806574	0.146272	0.252767
C61	C	1.136120	-0.598457	-0.417732
C62	C	1.469453	-0.265124	-0.084398
C63	C	1.802787	0.068209	0.248935
C64	C	0.521644	-0.337930	-0.405028
C65	C	0.854978	-0.004597	-0.071694
C66	C	1.188311	0.328736	0.261639
C67	C	0.612953	-0.337927	-0.405015
C68	C	0.946286	-0.004594	-0.071682
C69	C	1.279620	0.328740	0.261651
C70	C	0.685729	-0.337928	-0.405010
C71	C	1.019063	-0.004595	-0.071676
C72	C	1.352396	0.328738	0.261657
C73	C	0.777044	-0.337924	-0.404999
C74	C	1.110377	-0.004591	-0.071665
C75	C	1.443711	0.328742	0.261668
C76	C	1.185893	-0.635173	-0.368018
C77	C	1.519227	-0.301840	-0.034685
C78	C	1.852560	0.031493	0.298648
C79	C	1.182336	-0.708521	-0.371627
C80	C	1.515669	-0.375188	-0.038293
C81	C	1.849003	-0.041855	0.295040
C82	C	1.129001	-0.745152	-0.424945
C83	C	1.462334	-0.411818	-0.091612
C84	C	1.795668	-0.078485	0.241721
C85	C	1.079226	-0.708430	-0.474664
C86	C	1.412559	-0.375097	-0.141331
C87	C	1.745892	-0.041764	0.192003
C88	C	1.082788	-0.635084	-0.471059
C89	C	1.416121	-0.301750	-0.137726
C90	C	1.749454	0.031583	0.195608
C91	C	1.115672	-0.966608	-0.438411
C92	C	1.449005	-0.633275	-0.105078
C93	C	1.782338	-0.299942	0.228256
C94	C	1.112112	-1.039960	-0.442011
C95	C	1.445445	-0.706627	-0.108677
C96	C	1.778779	-0.373293	0.224656
C97	C	1.215224	-1.040046	-0.338974
C98	C	1.548557	-0.706713	-0.005641
C99	C	1.881890	-0.373379	0.327693
C100	C	1.218777	-0.966698	-0.335370
C101	C	1.552111	-0.633365	-0.002037
C102	C	1.885444	-0.300031	0.331296
C103	C	1.169005	-0.929983	-0.385092
C104	C	1.502338	-0.596650	-0.051759
C105	C	1.835672	-0.263316	0.281575
C106	C	1.125362	-0.820125	-0.428633
C107	C	1.458695	-0.486791	-0.095300
C108	C	1.792029	-0.153458	0.238033
C109	C	1.172649	-0.855011	-0.381408
C110	C	1.505982	-0.521678	-0.048074
C111	C	1.839315	-0.188345	0.285259
C112	C	1.359241	-0.337934	-0.405029
C113	C	1.692574	-0.004600	-0.071696
C114	C	2.025907	0.328733	0.261637
C115	C	1.448862	-0.337938	-0.405039
C116	C	1.782195	-0.004605	-0.071706
C117	C	2.115528	0.328729	0.261627
C118	C	1.149146	-0.337666	-0.615303
C119	C	1.482480	-0.004332	-0.281969
C120	C	1.815813	0.329001	0.051364
C121	C	1.149238	-0.337556	-0.704919
C122	C	1.482571	-0.004222	-0.371585
C123	C	1.815904	0.329111	-0.038252
C124	C	1.158015	-0.154738	-0.396095
C125	C	1.491348	0.178595	-0.062761
C126	C	1.824681	0.511928	0.270572
C127	C	1.161885	-0.076676	-0.392297
C128	C	1.495219	0.256657	-0.058964
C129	C	1.828552	0.589991	0.274369
C130	C	1.148768	-0.338129	-0.195524
C131	C	1.482101	-0.004795	0.137809
C132	C	1.815435	0.328538	0.471142
C133	C	1.148843	-0.338041	-0.105899
C134	C	1.482176	-0.004707	0.227434
C135	C	1.815509	0.328626	0.560767
C136	C	1.148917	-0.337958	-0.033113
C137	C	1.482251	-0.004625	0.300220
C138	C	1.815584	0.328708	0.633554
C139	C	1.149009	-0.337848	0.058201
C140	C	1.482342	-0.004515	0.391534
C141	C	1.815676	0.328818	0.724867
C142	C	1.149078	-0.337757	0.130981
C143	C	1.482412	-0.004423	0.464315
C144	C	1.815745	0.328910	0.797648
C145	C	1.149168	-0.337647	0.222301
C146	C	1.482502	-0.004314	0.555634
C147	C	1.815835	0.329019	0.888967
H148	H	1.222866	-0.738412	-0.331144
H149	H	1.556200	-0.405079	0.002189
H150	H	1.889533	-0.071746	0.335522
H151	H	1.216077	-0.825185	-0.337999
H152	H	1.549411	-0.491851	-0.004665
H153	H	1.882744	-0.158518	0.328668
H154	H	1.262207	-0.936875	-0.291954
H155	H	1.595540	-0.603542	0.041379
H156	H	1.928874	-0.270208	0.374712
C157	C	1.269974	-1.080430	-0.284288
C158	C	1.603307	-0.747097	0.049045
C159	C	1.936641	-0.413764	0.382378
H160	H	1.302244	-1.048109	-0.252015
H161	H	1.635578	-0.714776	0.081319
H162	H	1.968911	-0.381443	0.414652
H163	H	1.303725	-1.108969	-0.316565
H164	H	1.637058	-0.775635	0.016768
H165	H	1.970391	-0.442302	0.350101
H166	H	1.237728	-1.109120	-0.250533
H167	H	1.571061	-0.775786	0.082800
H168	H	1.904394	-0.442453	0.416133
H169	H	1.068690	-1.069782	-0.485443
H170	H	1.402023	-0.736449	-0.152110
H171	H	1.735356	-0.403116	0.181224
C172	C	1.060910	-0.926231	-0.493089
C173	C	1.394244	-0.592898	-0.159755
C174	C	1.727577	-0.259564	0.173578
H175	H	1.028628	-0.958553	-0.525349
H176	H	1.361962	-0.625220	-0.192015
H177	H	1.695295	-0.291887	0.141318
H178	H	1.093141	-0.897536	-0.526844
H179	H	1.426475	-0.564203	-0.193511
H180	H	1.759808	-0.230870	0.139822
H181	H	1.027158	-0.897698	-0.460798
H182	H	1.360492	-0.564365	-0.127465
H183	H	1.693825	-0.231031	0.205868
H184	H	1.042258	-0.605190	-0.511542
H185	H	1.375591	-0.271857	-0.178209
H186	H	1.708925	0.061477	0.155125
C187	C	1.020560	-0.748718	-0.533317
C188	C	1.353893	-0.415385	-0.199984
C189	C	1.687227	-0.082052	0.133349
H190	H	0.991433	-0.716344	-0.562414
H191	H	1.324766	-0.383011	-0.229081
H192	H	1.658099	-0.049678	0.104252
H193	H	0.984029	-0.777406	-0.503854
H194	H	1.317363	-0.444073	-0.170521
H195	H	1.650696	-0.110740	0.162813
H196	H	1.050030	-0.777250	-0.569882
H197	H	1.383364	-0.443917	-0.236548
H198	H	1.716697	-0.110584	0.096785
C199	C	1.244563	-0.594887	-0.309369
C200	C	1.577897	-0.261553	0.023965
C201	C	1.911230	0.071780	0.357298
H202	H	1.273702	-0.627261	-0.280284
H203	H	1.607035	-0.293928	0.053049
H204	H	1.940369	0.039406	0.386382
H205	H	1.215104	-0.566352	-0.272804
H206	H	1.548437	-0.233018	0.060529
H207	H	1.881770	0.100315	0.393862
H208	H	1.281096	-0.566201	-0.338842
H209	H	1.614429	-0.232868	-0.005508
H210	H	1.947762	0.100466	0.327825
H211	H	1.081935	-0.849957	-0.472044
H212	H	1.415268	-0.516624	-0.138710
H213	H	1.748602	-0.183291	0.194623
