data_functionalizedCrystal
_audit_creation_method	'MofGen! by Chris Wilmer'
_symmetry_space_group_name_H-M	'P1'
_symmetry_Int_Tables_number	1
_symmetry_cell_setting	triclinic
loop_
_symmetry_equiv_pos_as_xyz
  x,y,z
_cell_length_a	19.077105
_cell_length_b	10.686285
_cell_length_c	10.685884
_cell_angle_alpha	98.384800
_cell_angle_beta	88.102386
_cell_angle_gamma	83.162422
loop_
_atom_site_label
_atom_site_type_symbol
_atom_site_fract_x
_atom_site_fract_y
_atom_site_fract_z
Zn1	Zn	1.066230	-0.521947	0.750259
Zn2	Zn	1.085759	-0.751733	0.523073
Zn3	Zn	0.958331	-0.530972	0.530817
Zn4	Zn	0.958313	-0.726902	0.726747
O5	O	1.017158	-0.632888	0.632724
O6	O	1.167312	-0.559043	0.726722
O7	O	1.077036	-0.736617	0.347024
O8	O	0.964479	-0.351611	0.573008
O9	O	1.181660	-0.727866	0.559808
O10	O	1.043751	-0.344980	0.734231
O11	O	0.983415	-0.574425	0.352714
O12	O	0.859837	-0.550347	0.550208
O13	O	0.964448	-0.685546	0.906941
O14	O	0.859824	-0.694297	0.694157
O15	O	1.043734	-0.534966	0.924216
O16	O	1.077018	-0.926603	0.537009
O17	O	0.983384	-0.908360	0.686648
C18	C	0.834292	-0.620608	0.620472
C19	C	0.756062	-0.615382	0.615259
C20	C	0.719332	-0.688007	0.687620
C21	C	0.645825	-0.683080	0.682728
C22	C	0.609049	-0.605534	0.605469
C23	C	0.645784	-0.532901	0.533105
C24	C	0.719289	-0.537822	0.538004
C25	C	0.389209	-0.582759	0.582801
C26	C	0.315699	-0.577847	0.577905
C27	C	0.315744	-0.728024	0.727530
C28	C	0.389251	-0.732944	0.732417
C29	C	0.425979	-0.660306	0.660058
N30	N	0.533913	-0.600499	0.600464
N31	N	0.501113	-0.665335	0.665071
C32	C	1.032336	-0.963676	0.608465
C33	C	1.038892	-1.105190	0.598134
C34	C	1.200738	-0.645218	0.645024
C35	C	1.278969	-0.650472	0.650266
C36	C	1.001911	-0.606479	0.962776
C37	C	0.995413	-0.595225	1.103425
C38	C	1.001939	-0.300808	0.657106
C39	C	0.995453	-0.159295	0.667496
C40	C	1.032342	-0.659220	1.303953
C41	C	1.038840	-0.670464	1.163305
H42	H	0.615922	-0.742220	0.741651
H43	H	0.953249	-1.097356	0.734786
H44	H	1.081095	-1.167137	0.530832
H45	H	1.080994	-0.743482	1.106965
H46	H	0.749193	-0.478676	0.479087
H47	H	0.419105	-0.523623	0.523872
C48	C	0.893132	-0.559428	1.247140
C49	C	0.938506	-0.496652	1.179459
H50	H	0.857996	-0.498571	1.294077
H51	H	0.919505	-0.605105	1.303548
H52	H	0.871112	-0.617167	1.189688
H53	H	0.960530	-0.438920	1.236912
H54	H	0.912128	-0.450954	1.123045
H55	H	0.749269	-0.751158	0.750529
H56	H	0.285832	-0.787160	0.786442
C57	C	0.381909	-0.880886	0.879832
C58	C	0.429672	-0.818181	0.817347
H59	H	0.406865	-0.933505	0.932267
H60	H	0.358016	-0.931994	0.819145
H61	H	0.348461	-0.819679	0.930479
H62	H	0.463118	-0.879388	0.766693
H63	H	0.453577	-0.767070	0.878042
H64	H	0.285757	-0.514685	0.514999
H65	H	0.615835	-0.469756	0.470204
