data_functionalizedCrystal
_audit_creation_method	'MofGen! by Chris Wilmer'
_symmetry_space_group_name_H-M	'P1'
_symmetry_Int_Tables_number	1
_symmetry_cell_setting	triclinic
loop_
_symmetry_equiv_pos_as_xyz
  x,y,z
_cell_length_a	12.759395
_cell_length_b	16.120444
_cell_length_c	12.759387
_cell_angle_alpha	87.135681
_cell_angle_beta	90.020509
_cell_angle_gamma	92.928010
loop_
_atom_site_label
_atom_site_type_symbol
_atom_site_fract_x
_atom_site_fract_y
_atom_site_fract_z
Zn1	Zn	1.584980	-0.331830	0.615172
Zn2	Zn	1.575924	-0.471267	0.448387
Zn3	Zn	1.409275	-0.331875	0.439512
Zn4	Zn	1.400328	-0.471207	0.624022
O5	O	1.492627	-0.401545	0.531773
O6	O	1.730799	-0.350332	0.593058
O7	O	1.553773	-0.452820	0.300191
O8	O	1.440116	-0.215203	0.455395
O9	O	1.724146	-0.452776	0.470522
O10	O	1.569206	-0.215170	0.584452
O11	O	1.431336	-0.350409	0.293671
O12	O	1.261067	-0.350352	0.463977
O13	O	1.424868	-0.452675	0.769867
O14	O	1.254494	-0.452719	0.599536
O15	O	1.560530	-0.350274	0.763364
O16	O	1.545097	-0.587925	0.479104
O17	O	1.416087	-0.587881	0.608142
C18	C	1.219660	-0.401534	0.531755
C19	C	1.102882	-0.401550	0.531773
C20	C	1.096065	-0.508317	0.672724
C21	C	1.037795	-0.561707	0.743203
C22	C	0.928073	-0.561717	0.743217
C23	C	0.876618	-0.508330	0.672746
C24	C	0.934888	-0.454940	0.602267
C25	C	1.044613	-0.454937	0.602259
C26	C	0.941706	-0.348170	0.461322
C27	C	1.051428	-0.348163	0.461302
C28	C	0.890251	-0.294782	0.390851
C29	C	0.948521	-0.241395	0.320365
C30	C	1.058249	-0.241388	0.320354
C31	C	1.109697	-0.294773	0.390823
C32	C	1.478667	-0.618153	0.545569
C33	C	1.472792	-0.710819	0.551506
C34	C	1.523365	-0.921763	0.501201
C35	C	1.462083	-0.880475	0.562357
C36	C	1.468043	-0.786070	0.556318
C37	C	1.517406	-1.016177	0.507238
C38	C	1.766659	-0.401555	0.531793
C39	C	1.883436	-0.401560	0.531801
C40	C	1.492711	-0.401463	0.805802
C41	C	1.492747	-0.401428	0.922576
C42	C	1.506669	-0.184090	0.517947
C43	C	1.512653	-0.091424	0.512054
C44	C	1.492607	-0.401566	0.258807
C45	C	1.492789	-0.401366	0.142018
C46	C	1.634022	-0.294806	0.915826
C47	C	1.704674	-0.241482	0.967310
C48	C	1.704702	-0.241452	1.077030
C49	C	1.634067	-0.294749	1.135268
C50	C	1.563414	-0.348073	1.083783
C51	C	1.563397	-0.348099	0.974061
C52	C	1.422137	-0.454689	1.090533
C53	C	1.422113	-0.454725	0.980814
C54	C	1.351502	-0.507987	1.148771
C55	C	1.280853	-0.561316	1.097287
C56	C	1.280829	-0.561345	0.987560
C57	C	1.351460	-0.508049	0.929329
H58	H	1.105687	-0.197905	0.262968
H59	H	1.634087	-0.294712	1.224607
H60	H	0.787277	-0.508336	0.672772
N61	N	1.776871	-0.186996	1.129643
N62	N	1.776881	-0.186985	1.227608
H63	H	1.827851	-0.148527	1.264768
N64	N	1.390639	-0.925082	0.633709
N65	N	1.320702	-0.973765	0.599723
H66	H	1.270242	-1.005273	0.650109
N67	N	1.208641	-0.615801	0.934972
N68	N	1.112059	-0.610249	0.946860
H69	H	1.061072	-0.648709	0.909723
H70	H	1.079702	-0.605173	0.800581
H71	H	1.580301	-0.886213	0.444310
H72	H	1.634016	-0.294833	0.826486
N73	N	1.776810	-0.187043	0.907806
N74	N	1.776780	-0.187074	0.809843
H75	H	1.827724	-0.148625	0.767819
H76	H	1.351526	-0.507955	1.238110
N77	N	1.208707	-0.615739	1.156788
N78	N	1.208733	-0.615696	1.254751
H79	H	1.157779	-0.654133	1.296779
H80	H	1.199038	-0.294774	0.390817
N81	N	1.351420	-0.508064	0.817253
N82	N	1.270583	-0.490633	0.767165
H83	H	1.270553	-0.490639	0.688009
N84	N	0.868563	-0.616252	0.815221
N85	N	0.914509	-0.663910	0.878139
H86	H	0.872481	-0.702425	0.928994
H87	H	1.185406	-0.508320	0.672713
H88	H	0.800909	-0.294791	0.390871
H89	H	0.906618	-0.197928	0.262998
