data_functionalizedCrystal
_audit_creation_method	'MofGen! by Chris Wilmer'
_symmetry_space_group_name_H-M	'P1'
_symmetry_Int_Tables_number	1
_symmetry_cell_setting	triclinic
loop_
_symmetry_equiv_pos_as_xyz
  x,y,z
_cell_length_a	15.944499
_cell_length_b	15.944493
_cell_length_c	11.295483
_cell_angle_alpha	94.100278
_cell_angle_beta	85.892628
_cell_angle_gamma	83.476327
loop_
_atom_site_label
_atom_site_type_symbol
_atom_site_fract_x
_atom_site_fract_y
_atom_site_fract_z
O1	O	1.120191	0.102467	-0.099082
O2	O	0.875632	0.115870	-0.099067
O3	O	1.004615	-0.013111	-0.099084
O4	O	0.991207	0.231449	-0.099064
O5	O	0.993287	-0.001800	0.098968
O6	O	0.864303	0.127181	0.098986
O7	O	1.108862	0.113779	0.098971
Cu8	Cu	0.985548	0.121513	0.117062
Cu9	Cu	0.998946	0.108136	-0.117158
O10	O	0.979878	0.242760	0.098989
C11	C	0.838672	0.120977	-0.000039
C12	C	0.745424	0.119333	-0.000034
C13	C	0.453873	0.194266	-0.000045
C14	C	0.520497	0.149736	-0.097701
C15	C	0.409790	0.113355	-0.000062
C16	C	0.509313	0.160866	0.097563
C17	C	0.574698	0.116296	-0.000046
C18	C	0.475190	0.068797	-0.097798
C19	C	0.463995	0.079944	0.097554
C20	C	0.530603	0.035354	-0.000126
C21	C	0.314791	0.111662	-0.000072
C22	C	0.669696	0.117982	-0.000044
C23	C	0.998403	-0.038751	-0.000063
C24	C	0.996761	-0.132000	-0.000078
C25	C	1.072683	-0.367773	-0.000061
C26	C	1.037326	-0.423910	-0.097707
C27	C	0.993716	-0.302719	-0.000064
C28	C	1.026138	-0.412734	0.097557
C29	C	0.990781	-0.467627	-0.000044
C30	C	0.958386	-0.357633	-0.097791
C31	C	0.947204	-0.346449	0.097561
C32	C	0.911791	-0.402554	-0.000110
C33	C	0.995410	-0.207720	-0.000076
C34	C	0.989081	-0.562624	-0.000040
C35	C	1.145821	0.108671	-0.000060
C36	C	1.239070	0.110316	-0.000073
C37	C	0.986090	0.268399	-0.000035
C38	C	0.987733	0.361648	-0.000028
N39	N	0.976131	0.130921	0.281800
N40	N	1.008369	0.098721	-0.281895
C41	C	1.076159	0.030950	0.531075
C42	C	1.069049	0.038066	0.655740
C43	C	0.954795	0.152263	0.655796
C44	C	0.961906	0.145148	0.531131
C45	C	1.022591	0.084490	0.468775
C46	C	1.029705	0.077379	0.344108
C47	C	0.915448	0.191572	0.344167
C48	C	0.908337	0.198688	0.468831
H49	H	0.545309	0.179246	-0.180250
O50	O	0.849319	0.257627	0.529224
C51	C	0.803578	0.303372	0.447499
H52	H	0.807707	0.263862	0.358627
H53	H	0.831598	0.365028	0.434243
C54	C	0.705114	0.371952	0.605337
C55	C	0.710180	0.323423	0.496186
H56	H	0.647503	0.384324	0.635370
H57	H	0.735932	0.341135	0.660398
H58	H	0.728469	0.423326	0.594275
H59	H	0.686835	0.272046	0.507251
H60	H	0.679355	0.354231	0.441128
O61	O	0.830634	-0.421146	-0.000111
C62	C	0.829891	-0.509436	0.000836
H63	H	0.889862	-0.538429	0.038883
H64	H	0.827158	-0.538210	-0.093951
C65	C	0.678100	-0.492237	0.031789
C66	C	0.751755	-0.527845	0.078528
H67	H	0.629901	-0.503593	0.079709
H68	H	0.678600	-0.432754	0.031147
H69	H	0.675835	-0.516219	-0.047199
H70	H	0.754025	-0.503855	0.157509
H71	H	0.751254	-0.587324	0.079186
O72	O	0.901935	-0.306307	0.196175
C73	C	0.937912	-0.334380	0.298931
H74	H	1.007179	-0.360334	0.275531
H75	H	0.902034	-0.386398	0.334563
C76	C	0.847034	-0.227839	0.423395
C77	C	0.932111	-0.259710	0.394656
H78	H	0.843452	-0.181781	0.482446
H79	H	0.822792	-0.208928	0.354167
H80	H	0.817145	-0.271195	0.453081
H81	H	0.961995	-0.216358	0.364957
H82	H	0.956357	-0.278613	0.463882
H83	H	0.420534	0.261409	-0.000134
H84	H	1.140708	-0.352163	-0.000163
O85	O	1.135023	-0.028071	0.470535
C86	C	1.119677	-0.109500	0.500994
H87	H	1.050477	-0.107998	0.535300
H88	H	1.162123	-0.130027	0.573321
C89	C	1.224050	-0.174591	0.348085
C90	C	1.139055	-0.172749	0.390211
H91	H	1.236006	-0.213608	0.279751
H92	H	1.234391	-0.119732	0.327567
H93	H	1.259410	-0.191695	0.408368
H94	H	1.103696	-0.155635	0.329934
H95	H	1.128708	-0.227607	0.410717
H96	H	0.871831	0.235170	0.293428
H97	H	0.459946	0.029887	-0.180451
H98	H	1.112668	-0.005533	0.706461
H99	H	1.075397	-0.457577	-0.180266
H100	H	0.929783	-0.333527	-0.180432
O101	O	0.570190	-0.044850	-0.000403
C102	C	0.552977	-0.093074	-0.103483
H103	H	0.535144	-0.048943	-0.175115
H104	H	0.498232	-0.130917	-0.081121
C105	C	0.654120	-0.208450	-0.061546
C106	C	0.632224	-0.154247	-0.149529
H107	H	0.703001	-0.246187	-0.089948
H108	H	0.665714	-0.175962	0.007904
H109	H	0.608492	-0.239977	-0.042919
H110	H	0.677847	-0.122714	-0.168144
H111	H	0.620639	-0.186731	-0.218983
H112	H	1.079119	0.027990	0.293339
H113	H	0.905381	0.201644	0.706582
H114	H	0.524659	0.199817	0.180121
O115	O	0.434380	0.044904	0.196161
C116	C	0.451333	0.093638	0.298925
H117	H	0.459396	0.160790	0.275537
H118	H	0.511953	0.063912	0.334549
C119	C	0.367169	0.013842	0.423375
C120	C	0.377065	0.096320	0.394651
H121	H	0.321359	0.015494	0.482426
H122	H	0.355749	-0.018994	0.354142
H123	H	0.417691	-0.010921	0.453055
H124	H	0.326548	0.121078	0.364958
H125	H	0.388474	0.129160	0.463881
H126	H	1.054782	-0.436957	0.180104
