data_functionalizedCrystal
_audit_creation_method	'MofGen! by Chris Wilmer'
_symmetry_space_group_name_H-M	'P1'
_symmetry_Int_Tables_number	1
_symmetry_cell_setting	triclinic
loop_
_symmetry_equiv_pos_as_xyz
  x,y,z
_cell_length_a	13.635800
_cell_length_b	18.024673
_cell_length_c	17.982783
_cell_angle_alpha	84.218772
_cell_angle_beta	77.551428
_cell_angle_gamma	103.038760
loop_
_atom_site_label
_atom_site_type_symbol
_atom_site_fract_x
_atom_site_fract_y
_atom_site_fract_z
V1	V	2.008256	0.237866	-0.106123
O2	O	2.004746	0.233013	0.004369
O3	O	1.981513	0.236552	-0.209721
O4	O	1.982977	0.341465	-0.104811
O5	O	2.003273	0.127374	-0.101267
V6	V	2.250539	0.224612	-0.092869
O7	O	2.137740	0.266940	-0.135196
O8	O	2.346152	0.195539	-0.063795
O9	O	2.165678	0.225926	0.010730
O10	O	2.312746	0.229466	-0.203361
O11	O	2.314220	0.335105	-0.097724
O12	O	2.164214	0.121014	-0.094181
V13	V	2.508256	0.237866	-0.106123
O14	O	2.504746	0.233013	0.004369
O15	O	2.481513	0.236552	-0.209721
O16	O	2.482977	0.341465	-0.104811
O17	O	2.503273	0.127374	-0.101267
V18	V	2.750539	0.224612	-0.092869
O19	O	2.637740	0.266940	-0.135196
O20	O	2.846152	0.195539	-0.063795
O21	O	2.665678	0.225926	0.010730
O22	O	2.812746	0.229466	-0.203361
O23	O	2.814220	0.335105	-0.097724
O24	O	2.664214	0.121014	-0.094181
C25	C	1.903430	0.232881	-0.234966
C26	C	1.922202	0.232497	-0.319661
C27	C	1.911914	0.162513	-0.348362
C28	C	1.929561	0.162155	-0.427943
C29	C	1.957489	0.231782	-0.478821
C30	C	1.967780	0.301771	-0.450115
C31	C	1.950140	0.302129	-0.370536
C32	C	2.038923	0.300332	-0.771049
C33	C	2.056560	0.299969	-0.850633
C34	C	2.018344	0.160359	-0.828455
C35	C	2.000704	0.160716	-0.748876
C36	C	2.011002	0.230705	-0.720178
C37	C	1.991868	0.231092	-0.633887
C38	C	1.976616	0.231395	-0.565110
C39	C	1.905297	0.366706	-0.101142
C40	C	1.925253	0.451401	-0.100754
C41	C	2.075432	0.229596	0.035971
C42	C	2.046279	0.229985	0.120665
C43	C	2.025550	0.495084	-0.104390
C44	C	2.044296	0.574663	-0.104026
C45	C	1.962744	0.610559	-0.100031
C46	C	1.862439	0.566871	-0.096393
C47	C	1.843693	0.487292	-0.096752
C48	C	1.938035	0.887802	-0.094945
C49	C	1.956790	0.967387	-0.094589
C50	C	2.138638	0.975174	-0.102219
C51	C	2.119892	0.895595	-0.102578
C52	C	2.019588	0.851912	-0.098935
C53	C	1.999262	0.765623	-0.099329
C54	C	1.983070	0.696848	-0.099643
C55	C	2.077047	1.095768	-0.097848
C56	C	2.057086	1.011070	-0.098219
C57	C	2.403430	0.232881	-0.234966
C58	C	2.422202	0.232497	-0.319661
C59	C	2.405297	0.366706	-0.101142
C60	C	2.425253	0.451401	-0.100754
C61	C	2.575432	0.229596	0.035971
C62	C	2.546279	0.229985	0.120665
C63	C	2.573565	0.095768	-0.097852
C64	C	2.543228	0.011073	-0.098235
C65	C	2.521947	0.236135	-0.363331
C66	C	2.539602	0.235787	-0.442913
C67	C	2.457508	0.231794	-0.478823
C68	C	2.357755	0.228158	-0.435148
C69	C	2.340103	0.228512	-0.355568
C70	C	2.525555	0.495070	-0.104383
C71	C	2.544318	0.574648	-0.104009
C72	C	2.462779	0.610558	-0.100012
C73	C	2.362469	0.566883	-0.096381
C74	C	2.343706	0.487305	-0.096750
C75	C	2.619027	0.226348	0.164334
C76	C	2.591644	0.226701	0.243916
C77	C	2.491515	0.230695	0.279826
C78	C	2.418762	0.234329	0.236151
C79	C	2.446143	0.233971	0.156572
C80	C	2.442536	-0.024817	-0.102224
C81	C	2.414014	-0.104398	-0.102575
C82	C	2.486186	-0.148087	-0.098943
C83	C	2.586886	-0.112193	-0.094952
C84	C	2.615405	-0.032614	-0.094596
H85	H	1.889165	0.105815	-0.306941
H86	H	2.091963	0.465864	-0.107648
H87	H	2.079303	0.356671	-0.892057
Cl88	Cl	2.170390	0.629577	-0.108608
H89	H	2.620832	0.238745	-0.478463
Cl90	Cl	2.292887	0.239346	0.281308
H91	H	2.471896	0.231506	-0.543623
Cl92	Cl	2.354674	0.238546	0.101682
Cl93	Cl	2.457109	0.231145	0.379871
H94	H	2.383756	0.010745	-0.105180
H95	H	2.332015	-0.133612	-0.105824
Cl96	Cl	2.450318	-0.248130	-0.099396
H97	H	1.958529	0.359117	-0.347171
Cl98	Cl	2.259977	0.612040	-0.091368
H99	H	2.262029	0.451756	-0.093796
H100	H	1.977959	0.104018	-0.707454
Cl101	Cl	2.677610	-0.167126	-0.090397
H102	H	2.478072	0.675356	-0.099713
Cl103	Cl	2.254560	0.223134	-0.480303
H104	H	2.258877	0.225546	-0.320017
Cl105	Cl	2.222420	0.850473	-0.107604
H106	H	1.921185	0.105168	-0.451306
H107	H	2.697400	-0.003398	-0.091353
H108	H	2.700563	0.223097	0.135107
Cl109	Cl	2.628078	0.449943	-0.109406
H110	H	2.626002	0.610198	-0.106969
H111	H	2.009965	0.103370	-0.851831
Cl112	Cl	2.051860	0.388318	-0.734981
H113	H	1.990528	0.358463	-0.491547
Cl114	Cl	1.717599	0.432375	-0.092173
H115	H	1.796038	0.596103	-0.093136
Cl116	Cl	2.264737	1.030093	-0.106795
Cl117	Cl	1.854258	1.012513	-0.089565
H118	H	1.856371	0.852250	-0.092006
Cl119	Cl	2.625171	0.241162	-0.318206
H120	H	2.650897	0.223743	0.279465
