data_functionalizedCrystal
_audit_creation_method	'MofGen! by Chris Wilmer'
_symmetry_space_group_name_H-M	'P1'
_symmetry_Int_Tables_number	1
_symmetry_cell_setting	triclinic
loop_
_symmetry_equiv_pos_as_xyz
  x,y,z
_cell_length_a	11.792241
_cell_length_b	15.538191
_cell_length_c	14.750779
_cell_angle_alpha	82.430615
_cell_angle_beta	102.734008
_cell_angle_gamma	65.732755
loop_
_atom_site_label
_atom_site_type_symbol
_atom_site_fract_x
_atom_site_fract_y
_atom_site_fract_z
O1	O	1.419926	0.149087	-0.079727
O2	O	1.084007	0.162371	-0.079748
O3	O	1.317355	0.018933	-0.079738
O4	O	1.186579	0.292524	-0.079737
O5	O	1.383317	-0.021610	0.079916
O6	O	1.149970	0.121827	0.079905
O7	O	1.485889	0.108543	0.079927
Zn8	Zn	1.328402	0.108748	0.105264
Zn9	Zn	1.241494	0.162166	-0.105086
O10	O	1.252542	0.251980	0.079916
C11	C	1.075046	0.141266	0.000075
C12	C	0.950076	0.138771	0.000067
C13	C	1.364017	-0.036364	0.000087
C14	C	1.404770	-0.140727	0.000080
C15	C	0.999870	-0.430584	0.000074
C16	C	1.038197	-0.528656	0.000079
C17	C	1.253770	-0.550001	0.000092
C18	C	1.215460	-0.451929	0.000083
C19	C	1.088508	-0.392228	0.000075
C20	C	1.304098	-0.413572	0.000084
C21	C	1.265792	-0.315509	0.000079
C22	C	1.138848	-0.255803	0.000074
C23	C	1.050202	-0.294165	0.000071
C24	C	1.431052	-0.473276	0.000099
C25	C	1.519690	-0.434919	0.000099
C26	C	1.481382	-0.336853	0.000088
C27	C	1.354438	-0.277147	0.000083
C28	C	1.570028	-0.298491	0.000092
C29	C	1.531722	-0.200428	0.000088
C30	C	1.316132	-0.179084	0.000079
C31	C	0.721301	0.134173	0.000095
C32	C	0.848610	0.136728	0.000079
C33	C	1.494849	0.129649	0.000101
C34	C	1.619817	0.132145	0.000103
C35	C	1.205878	0.307278	0.000090
C36	C	1.165123	0.411643	0.000090
N37	N	1.387724	0.072291	0.248823
N38	N	1.182185	0.198615	-0.248644
C39	C	1.016526	0.300392	0.600624
C40	C	1.058100	0.274852	0.701125
C41	C	1.264741	0.147885	0.701097
C42	C	1.223182	0.173412	0.600594
C43	C	1.099074	0.249667	0.550365
C44	C	1.305730	0.122687	0.550335
C45	C	1.264176	0.148215	0.449841
C46	C	1.140074	0.224468	0.399606
C47	C	1.057520	0.275195	0.449871
C48	C	1.429841	0.046437	0.600566
C49	C	1.512389	-0.004289	0.550307
C50	C	1.470832	0.021235	0.449811
C51	C	1.346730	0.097488	0.399575
C52	C	1.553386	-0.029492	0.399545
C53	C	1.511832	-0.003964	0.299051
C54	C	1.305176	0.123016	0.299081
H55	H	1.107664	-0.175956	0.000076
O56	O	1.470065	0.021557	0.698186
C57	C	1.430031	-0.034753	0.842415
C58	C	1.384351	-0.006627	0.731863
H59	H	1.360739	-0.057527	0.869676
H60	H	1.532884	-0.098003	0.869734
H61	H	1.430245	0.030523	0.869681
H62	H	1.384056	-0.071842	0.704515
H63	H	1.281526	0.056656	0.704609
O64	O	1.673999	-0.103563	0.448194
C65	C	1.874549	-0.226869	0.437563
C66	C	1.738003	-0.142985	0.382351
H67	H	1.926325	-0.258779	0.384352
H68	H	1.933941	-0.197964	0.484579
H69	H	1.864427	-0.286013	0.484643
H70	H	1.748003	-0.083810	0.335218
H71	H	1.678660	-0.171964	0.335395
H72	H	1.623056	-0.483542	0.000110
O73	O	0.895979	0.374409	0.551675
C74	C	0.740412	0.470036	0.396865
C75	C	0.876942	0.386184	0.452180
H76	H	0.724988	0.479596	0.316413
H77	H	0.662891	0.452268	0.416561
H78	H	0.732316	0.540371	0.416679
H79	H	0.885166	0.315815	0.432395
H80	H	0.954398	0.404035	0.432479
H81	H	1.204109	0.185104	0.258183
H82	H	1.365794	0.085800	0.742005
O83	O	0.977714	0.324196	0.749798
C84	C	0.768373	0.452864	0.739219
C85	C	0.859264	0.397053	0.683978
H86	H	0.672598	0.511794	0.686027
H87	H	0.747880	0.400059	0.786242
H88	H	0.817406	0.488100	0.786295
H89	H	0.810309	0.361813	0.636850
H90	H	0.879757	0.449901	0.637015
O91	O	1.192895	-0.121020	0.000193
C92	C	1.058691	-0.018960	0.082917
C93	C	1.198317	-0.084673	0.082895
H94	H	1.063028	0.010429	0.149784
H95	H	1.007747	0.044502	0.016146
H96	H	1.001920	-0.063226	0.082864
H97	H	1.255196	-0.040490	0.082981
H98	H	1.249161	-0.148137	0.149660
O99	O	1.099913	0.249266	0.301985
C100	C	1.139856	0.305681	0.157753
C101	C	1.185500	0.277605	0.268305
H102	H	1.209015	0.328619	0.130489
H103	H	1.139737	0.240417	0.130412
H104	H	1.036952	0.368863	0.130512
H105	H	1.288417	0.214448	0.295627
H106	H	1.185525	0.342921	0.295581
H107	H	1.579052	-0.045269	0.258130
H108	H	0.946823	-0.245551	0.000057
O109	O	1.693278	-0.356614	0.000064
C110	C	1.847865	-0.517166	0.000152
C111	C	1.708235	-0.451446	0.000160
H112	H	1.860012	-0.593856	0.000250
H113	H	1.865929	-0.486260	-0.066677
H114	H	1.921061	-0.520046	0.066952
H115	H	1.634950	-0.448539	-0.066595
H116	H	1.690281	-0.482377	0.067033
H117	H	1.613441	-0.066374	0.591215
O118	O	1.617674	-0.163016	0.000127
C119	C	1.654172	-0.021385	0.000069
C120	C	1.556706	-0.063633	0.000040
H121	H	1.604909	0.058977	-0.000022
H122	H	1.742463	-0.062827	0.066901
H123	H	1.687281	-0.029021	-0.066728
H124	H	1.523494	-0.056005	0.066792
H125	H	1.468486	-0.022184	-0.066837
H126	H	0.956453	0.337283	0.408973
H127	H	0.896491	-0.381970	0.000060
H128	H	0.966012	-0.559884	0.000092
H129	H	1.357136	-0.598623	0.000103
H130	H	1.462233	-0.553122	0.000093
