data_functionalizedCrystal
_audit_creation_method	'MofGen! by Chris Wilmer'
_symmetry_space_group_name_H-M	'P1'
_symmetry_Int_Tables_number	1
_symmetry_cell_setting	triclinic
loop_
_symmetry_equiv_pos_as_xyz
  x,y,z
_cell_length_a	15.944545
_cell_length_b	10.654550
_cell_length_c	9.130313
_cell_angle_alpha	89.998291
_cell_angle_beta	90.003274
_cell_angle_gamma	96.009462
loop_
_atom_site_label
_atom_site_type_symbol
_atom_site_fract_x
_atom_site_fract_y
_atom_site_fract_z
O1	O	1.115467	-0.161925	0.121701
O2	O	0.871032	-0.181902	0.121724
O3	O	0.998869	0.010899	0.121706
O4	O	0.987629	-0.354726	0.121718
O5	O	0.998854	0.010897	-0.121892
O6	O	0.871017	-0.181903	-0.121875
O7	O	1.115451	-0.161926	-0.121898
Cu8	Cu	0.993233	-0.171915	-0.144129
Cu9	Cu	0.993251	-0.171913	0.143955
O10	O	0.987614	-0.354727	-0.121881
C11	C	0.839725	-0.181075	-0.000072
C12	C	0.746465	-0.178593	-0.000064
C13	C	0.475097	-0.051669	-0.000083
C14	C	0.526026	-0.112862	-0.120192
C15	C	0.410770	-0.169741	-0.000089
C16	C	0.526022	-0.112892	0.119978
C17	C	0.575708	-0.174083	-0.000074
C18	C	0.460469	-0.230902	-0.120297
C19	C	0.460462	-0.230915	0.119981
C20	C	0.511358	-0.292195	-0.000157
C21	C	0.315753	-0.167236	-0.000099
C22	C	0.670722	-0.176598	-0.000075
C23	C	0.998036	0.057685	-0.000091
C24	C	0.995567	0.197096	-0.000086
C25	C	1.146758	-0.162754	-0.000098
C26	C	1.240019	-0.165236	-0.000098
C27	C	0.988447	-0.401514	-0.000080
C28	C	0.990916	-0.540925	-0.000075
N29	N	0.993226	-0.171916	-0.346752
C30	C	1.070836	0.277559	-0.000097
C31	C	1.068511	0.408549	-0.000087
C32	C	0.915642	0.378603	-0.000059
C33	C	0.917968	0.247615	-0.000059
C34	C	1.148435	0.227040	-0.000124
C35	C	1.223710	0.307504	-0.000137
C36	C	1.221385	0.438495	-0.000127
C37	C	1.143785	0.489022	-0.000103
C38	C	1.044639	-0.248117	-0.576735
C39	C	1.044617	-0.248128	-0.423399
C40	C	0.941846	-0.095698	-0.423449
C41	C	0.941863	-0.095695	-0.576783
C42	C	1.096040	-0.324325	-0.653374
C43	C	1.147419	-0.400545	-0.576687
C44	C	1.147398	-0.400555	-0.423350
C45	C	1.095998	-0.324345	-0.346701
N46	N	0.993264	-0.171903	0.346578
H47	H	0.431811	-0.280736	0.221530
H48	H	1.150337	0.120383	-0.000137
H49	H	0.856677	0.182100	-0.000052
C50	C	0.546752	0.080318	-0.257063
C51	C	0.564688	-0.045554	-0.257274
H52	H	0.570622	0.121874	-0.341686
H53	H	0.487400	0.083036	-0.257595
H54	H	0.570084	0.121412	-0.171773
H55	H	0.541350	-0.086651	-0.342559
H56	H	0.624052	-0.048280	-0.256756
H57	H	0.431942	-0.280730	-0.221948
C58	C	1.288416	-0.449986	-0.623818
C59	C	1.203915	-0.484316	-0.660930
H60	H	1.323293	-0.501712	-0.675818
H61	H	1.303521	-0.364084	-0.648946
H62	H	1.295743	-0.460903	-0.521519
H63	H	1.196586	-0.473390	-0.763228
H64	H	1.188805	-0.570239	-0.635812
C65	C	1.153599	-0.569493	-0.250928
C66	C	1.203866	-0.484345	-0.339058
H67	H	1.188464	-0.621226	-0.198902
H68	H	1.122999	-0.524109	-0.183339
H69	H	1.115253	-0.620907	-0.310783
H70	H	1.242208	-0.432925	-0.279202
H71	H	1.234481	-0.529733	-0.406655
C72	C	0.499673	-0.491084	-0.126101
C73	C	0.533077	-0.429566	-0.000242
H74	H	0.513089	-0.575886	-0.126159
H75	H	0.440165	-0.490251	-0.126896
H76	H	0.523123	-0.448844	-0.210604
H77	H	0.509622	-0.471800	0.084261
H78	H	0.592597	-0.430406	0.000566
H79	H	0.554657	-0.063007	0.221514
H80	H	0.899998	-0.033651	-0.361029
C81	C	1.295154	0.120004	-0.000173
C82	C	1.309005	0.251969	-0.000160
H83	H	1.347813	0.085725	-0.000195
H84	H	1.264143	0.092388	0.084773
H85	H	1.264121	0.092404	-0.085124
H86	H	1.340032	0.279569	0.084797
H87	H	1.340028	0.279597	-0.085115
C88	C	1.372721	0.454931	-0.000165
C89	C	1.304124	0.526941	-0.000139
H90	H	1.423802	0.509536	-0.000187
H91	H	1.370459	0.403219	0.084777
H92	H	1.370432	0.403217	-0.085121
H93	H	1.306410	0.578649	0.084822
H94	H	1.306388	0.578675	-0.085090
C95	C	1.177447	-0.285328	-0.872974
C96	C	1.096069	-0.324322	-0.821923
H97	H	1.177466	-0.285332	-0.977028
H98	H	1.194670	-0.202590	-0.838281
H99	H	1.215393	-0.341632	-0.838251
H100	H	1.058124	-0.268012	-0.856637
H101	H	1.078835	-0.407072	-0.856631
H102	H	1.095977	-0.324372	-0.221843
H103	H	0.900027	-0.033638	-0.639224
H104	H	0.458856	0.050016	-0.000203
C105	C	0.844203	0.566105	-0.000064
C106	C	0.830348	0.434141	-0.000052
H107	H	0.791544	0.600388	-0.000072
H108	H	0.875225	0.593716	0.084877
H109	H	0.875224	0.593709	-0.085021
H110	H	0.799332	0.406537	0.084911
H111	H	0.799313	0.406520	-0.085001
H112	H	1.141898	0.595684	-0.000079
