data_functionalizedCrystal
_audit_creation_method	'MofGen! by Chris Wilmer'
_symmetry_space_group_name_H-M	'P1'
_symmetry_Int_Tables_number	1
_symmetry_cell_setting	triclinic
loop_
_symmetry_equiv_pos_as_xyz
  x,y,z
_cell_length_a	19.805407
_cell_length_b	16.120444
_cell_length_c	19.805399
_cell_angle_alpha	87.128215
_cell_angle_beta	90.017803
_cell_angle_gamma	92.923874
loop_
_atom_site_label
_atom_site_type_symbol
_atom_site_fract_x
_atom_site_fract_y
_atom_site_fract_z
Zn1	Zn	1.021068	-0.331988	0.396351
Zn2	Zn	1.354401	0.001346	0.729685
Zn3	Zn	1.687735	0.334679	1.063018
Zn4	Zn	1.015243	-0.471406	0.288901
Zn5	Zn	1.348576	-0.138073	0.622235
Zn6	Zn	1.681910	0.195260	0.955568
Zn7	Zn	0.907882	-0.332004	0.283180
Zn8	Zn	1.241215	0.001329	0.616514
Zn9	Zn	1.574549	0.334662	0.949847
Zn10	Zn	0.902108	-0.471356	0.402049
Zn11	Zn	1.235442	-0.138022	0.735383
Zn12	Zn	1.568775	0.195311	1.068716
O13	O	0.961575	-0.401688	0.342621
O14	O	1.294909	-0.068355	0.675954
O15	O	1.628242	0.264978	1.009287
O16	O	1.115011	-0.350496	0.382108
O17	O	1.448345	-0.017163	0.715441
O18	O	1.781678	0.316170	1.048774
O19	O	1.000980	-0.452943	0.193427
O20	O	1.334313	-0.119609	0.526760
O21	O	1.667646	0.213724	0.860094
O22	O	0.927750	-0.215336	0.293414
O23	O	1.261084	0.117998	0.626747
O24	O	1.594417	0.451331	0.960080
O25	O	1.110732	-0.452927	0.303164
O26	O	1.444065	-0.119593	0.636498
O27	O	1.777398	0.213740	0.969831
O28	O	1.010908	-0.215324	0.376560
O29	O	1.344241	0.118010	0.709893
O30	O	1.677574	0.451343	1.043227
O31	O	0.922102	-0.350524	0.189224
O32	O	1.255435	-0.017191	0.522557
O33	O	1.588769	0.316142	0.855890
O34	O	0.812400	-0.350475	0.298939
O35	O	1.145733	-0.017142	0.632272
O36	O	1.479067	0.316192	0.965605
O37	O	0.917910	-0.452840	0.496009
O38	O	1.251243	-0.119507	0.829342
O39	O	1.584577	0.213827	1.162676
O40	O	0.808158	-0.452856	0.386272
O41	O	1.141492	-0.119523	0.719605
O42	O	1.474825	0.213811	1.052938
O43	O	1.005309	-0.350447	0.491823
O44	O	1.338643	-0.017114	0.825156
O45	O	1.671976	0.316220	1.158489
O46	O	0.995381	-0.588066	0.308690
O47	O	1.328715	-0.254733	0.642023
O48	O	1.662048	0.078601	0.975356
O49	O	0.912262	-0.588029	0.391819
O50	O	1.245595	-0.254695	0.725152
O51	O	1.578929	0.078638	1.058486
C52	C	0.785720	-0.401662	0.342603
C53	C	1.119054	-0.068329	0.675936
C54	C	1.452387	0.265004	1.009270
C55	C	0.710488	-0.401671	0.342612
C56	C	1.043821	-0.068338	0.675946
C57	C	1.377155	0.264995	1.009279
C58	C	0.677369	-0.348430	0.383788
C59	C	1.010702	-0.015097	0.717121
C60	C	1.344036	0.318237	1.050455
C61	C	0.606680	-0.348435	0.383791
C62	C	0.940014	-0.015101	0.717124
C63	C	1.273347	0.318232	1.050457
C64	C	0.569112	-0.401685	0.342621
C65	C	0.902445	-0.068352	0.675954
C66	C	1.235779	0.264982	1.009288
C67	C	0.602236	-0.454928	0.301441
C68	C	0.935569	-0.121595	0.634774
C69	C	1.268902	0.211738	0.968108
C70	C	0.672923	-0.454919	0.301435
C71	C	1.006257	-0.121586	0.634768
C72	C	1.339590	0.211748	0.968102
C73	C	0.317161	-0.454966	0.301463
C74	C	0.650494	-0.121632	0.634797
C75	C	0.983828	0.211701	0.968130
C76	C	0.246468	-0.454973	0.301474
C77	C	0.579802	-0.121639	0.634807
C78	C	0.913135	0.211694	0.968141
C79	C	0.250918	-0.348481	0.383819
C80	C	0.584251	-0.015148	0.717152
C81	C	0.917585	0.318185	1.050486
C82	C	0.321605	-0.348472	0.383813
C83	C	0.654939	-0.015139	0.717146
C84	C	0.988272	0.318195	1.050480
C85	C	0.354723	-0.401712	0.342631
C86	C	0.688057	-0.068379	0.675964
C87	C	1.021390	0.264955	1.009297
C88	C	0.431372	-0.401706	0.342627
C89	C	0.764705	-0.068372	0.675960
C90	C	1.098039	0.264961	1.009294
C91	C	0.492464	-0.401696	0.342628
C92	C	0.825798	-0.068363	0.675961
C93	C	1.159131	0.264970	1.009294
C94	C	0.952581	-0.618298	0.351508
C95	C	1.285915	-0.284964	0.684842
C96	C	1.619248	0.048369	1.018175
C97	C	0.948796	-0.710964	0.355333
C98	C	1.282129	-0.377630	0.688666
C99	C	1.615462	-0.044297	1.022000
C100	C	0.981379	-0.921905	0.322925
C101	C	1.314713	-0.588572	0.656258
C102	C	1.648046	-0.255238	0.989592
C103	C	0.941897	-0.880621	0.362323
C104	C	1.275230	-0.547287	0.695657
C105	C	1.608563	-0.213954	1.028990
C106	C	0.945736	-0.786215	0.358433
C107	C	1.279070	-0.452881	0.691766
C108	C	1.612403	-0.119548	1.025099
C109	C	0.977540	-1.016319	0.326815
C110	C	1.310874	-0.682986	0.660148
C111	C	1.644207	-0.349653	0.993481
C112	C	1.138117	-0.401715	0.342639
C113	C	1.471450	-0.068382	0.675972
C114	C	1.804784	0.264951	1.009305
C115	C	1.213348	-0.401727	0.342646
C116	C	1.546682	-0.068393	0.675980
C117	C	1.880015	0.264940	1.009313
C118	C	0.961615	-0.401636	0.519161
C119	C	1.294949	-0.068303	0.852495
C120	C	1.628282	0.265031	1.185828
C121	C	0.961632	-0.401614	0.594392
C122	C	1.294966	-0.068280	0.927726
C123	C	1.628299	0.265053	1.261059
C124	C	0.970623	-0.184234	0.333713
C125	C	1.303956	0.149100	0.667046
C126	C	1.637289	0.482433	1.000380
C127	C	0.974478	-0.091567	0.329917
C128	C	1.307811	0.241766	0.663251
C129	C	1.641145	0.575099	0.996584
C130	C	0.961577	-0.401681	0.166764
C131	C	1.294910	-0.068347	0.500098
C132	C	1.628243	0.264986	0.833431
C133	C	0.961700	-0.401468	0.091524
C134	C	1.295034	-0.068135	0.424857
C135	C	1.628367	0.265199	0.758191
C136	C	1.007142	-0.348295	0.627558
C137	C	1.340476	-0.014962	0.960891
C138	C	1.673809	0.318372	1.294224
C139	C	1.007150	-0.348271	0.698245
C140	C	1.340484	-0.014937	1.031578
C141	C	1.673817	0.318396	1.364912
C142	C	0.961651	-0.401570	0.735766
C143	C	1.294984	-0.068237	1.069100
C144	C	1.628318	0.265097	1.402433
C145	C	0.916136	-0.454891	0.702596
C146	C	1.249470	-0.121558	1.035929
C147	C	1.582803	0.211776	1.369263
C148	C	0.916126	-0.454910	0.631910
C149	C	1.249459	-0.121577	0.965243
C150	C	1.582792	0.211756	1.298576
C151	C	0.916178	-0.454813	0.987666
C152	C	1.249511	-0.121480	1.321000
C153	C	1.582845	0.211853	1.654333
C154	C	0.916193	-0.454792	1.058357
C155	C	1.249527	-0.121458	1.391691
C156	C	1.582860	0.211875	1.725024
C157	C	1.007202	-0.348174	1.054002
C158	C	1.340536	-0.014840	1.387335
C159	C	1.673869	0.318493	1.720668
C160	C	1.007192	-0.348193	0.983315
C161	C	1.340525	-0.014860	1.316649
C162	C	1.673858	0.318474	1.649982
C163	C	0.961675	-0.401511	0.950151
C164	C	1.295008	-0.068177	1.283485
C165	C	1.628342	0.265156	1.616818
C166	C	0.961666	-0.401535	0.873504
C167	C	1.294999	-0.068202	1.206837
C168	C	1.628333	0.265132	1.540170
C169	C	0.961663	-0.401550	0.812413
C170	C	1.294996	-0.068217	1.145746
C171	C	1.628329	0.265116	1.479079
H172	H	0.579718	-0.305082	0.417321
H173	H	0.913051	0.028251	0.750655
H174	H	1.246385	0.361585	1.083988
H175	H	0.879061	-0.498320	0.604907
H176	H	1.212394	-0.164986	0.938241
H177	H	1.545727	0.168347	1.271574
N178	N	0.895860	-0.925206	0.408298
N179	N	1.229193	-0.591873	0.741632
N180	N	1.562526	-0.258539	1.074965
N181	N	0.858731	-0.886444	0.445337
N182	N	1.192065	-0.553111	0.778670
N183	N	1.525398	-0.219777	1.112004
H184	H	0.826216	-0.917934	0.477804
H185	H	1.159549	-0.584601	0.811137
H186	H	1.492883	-0.251268	1.144471
H187	H	1.018062	-0.886352	0.286275
H188	H	1.351396	-0.553019	0.619608
H189	H	1.684729	-0.219686	0.952942
H190	H	1.044195	-0.304895	0.597013
H191	H	1.377528	0.028438	0.930346
H192	H	1.710862	0.361772	1.263680
H193	H	1.044210	-0.304855	0.725245
H194	H	1.377544	0.028478	1.058578
H195	H	1.710877	0.361811	1.391912
H196	H	1.044244	-0.304794	0.952769
H197	H	1.377577	0.028539	1.286102
H198	H	1.710911	0.361873	1.619436
H199	H	1.044262	-0.304757	1.081012
H200	H	1.377595	0.028576	1.414346
H201	H	1.710929	0.361910	1.747679
N202	N	0.869707	-0.509241	1.096675
N203	N	1.203041	-0.175907	1.430009
N204	N	1.536374	0.157426	1.763342
N205	N	0.829069	-0.556838	1.067057
N206	N	1.162402	-0.223505	1.400391
N207	N	1.495736	0.109828	1.733724
H208	H	0.796239	-0.595291	1.094119
H209	H	1.129572	-0.261957	1.427452
H210	H	1.462906	0.071376	1.760786
N211	N	0.869681	-0.509279	0.953807
N212	N	1.203015	-0.175946	1.287140
N213	N	1.536348	0.157387	1.620473
N214	N	0.829064	-0.556864	0.987318
N215	N	1.162397	-0.223531	1.320651
N216	N	1.495730	0.109802	1.653985
H217	H	0.796223	-0.595335	0.963403
H218	H	1.129557	-0.262001	1.296736
H219	H	1.462890	0.071332	1.630070
H220	H	0.707952	-0.305070	0.417315
H221	H	1.041286	0.028264	0.750648
H222	H	1.374619	0.361597	1.083981
N223	N	0.869659	-0.509324	0.740930
N224	N	1.202992	-0.175990	1.074264
N225	N	1.536326	0.157343	1.407597
N226	N	0.869674	-0.509300	0.804042
N227	N	1.203007	-0.175967	1.137376
N228	N	1.536341	0.157366	1.470709
H229	H	0.836849	-0.547745	0.831116
H230	H	1.170182	-0.214412	1.164450
H231	H	1.503515	0.118921	1.497783
H232	H	0.352190	-0.305113	0.417340
H233	H	0.685524	0.028220	0.750673
H234	H	1.018857	0.361554	1.084006
H235	H	0.223945	-0.305128	0.417349
H236	H	0.557278	0.028206	0.750682
H237	H	0.890612	0.361539	1.084016
N238	N	0.208103	-0.509364	0.259404
N239	N	0.541437	-0.176031	0.592737
N240	N	0.874770	0.157302	0.926071
N241	N	0.216205	-0.503723	0.196724
N242	N	0.549539	-0.170390	0.530057
N243	N	0.882872	0.162944	0.863390
H244	H	0.189111	-0.542135	0.167012
H245	H	0.522444	-0.208802	0.500346
H246	H	0.855777	0.124531	0.833679
H247	H	0.571642	-0.498282	0.267917
H248	H	0.904975	-0.164948	0.601250
H249	H	1.238309	0.168385	0.934583
N250	N	0.350982	-0.509343	0.259393
N251	N	0.684315	-0.176009	0.592726
N252	N	1.017649	0.157324	0.926060
N253	N	0.343290	-0.503713	0.196715
N254	N	0.676624	-0.170380	0.530048
N255	N	1.009957	0.162953	0.863381
H256	H	0.367178	-0.542120	0.167000
H257	H	0.700511	-0.208787	0.500333
H258	H	1.033845	0.124546	0.833667
N259	N	0.706745	-0.509303	0.259366
N260	N	1.040079	-0.175969	0.592699
N261	N	1.373412	0.157364	0.926032
N262	N	0.673197	-0.556842	0.222608
N263	N	1.006530	-0.223508	0.555941
N264	N	1.339863	0.109825	0.889274
H265	H	0.697082	-0.595249	0.192891
H266	H	1.030416	-0.261915	0.526225
H267	H	1.363749	0.071418	0.859558
