data_functionalizedCrystal
_audit_creation_method	'MofGen! by Chris Wilmer'
_symmetry_space_group_name_H-M	'P1'
_symmetry_Int_Tables_number	1
_symmetry_cell_setting	triclinic
loop_
_symmetry_equiv_pos_as_xyz
  x,y,z
_cell_length_a	14.908783
_cell_length_b	21.295417
_cell_length_c	14.908308
_cell_angle_alpha	93.260635
_cell_angle_beta	89.788727
_cell_angle_gamma	93.321081
loop_
_atom_site_label
_atom_site_type_symbol
_atom_site_fract_x
_atom_site_fract_y
_atom_site_fract_z
Zn1	Zn	1.345261	-0.220173	-0.587798
Zn2	Zn	1.353817	-0.319050	-0.437424
Zn3	Zn	1.203574	-0.219492	-0.428769
Zn4	Zn	1.194840	-0.331104	-0.579044
O5	O	1.274373	-0.272455	-0.508259
O6	O	1.472225	-0.228530	-0.575136
O7	O	1.341124	-0.300514	-0.310453
O8	O	1.222444	-0.131491	-0.449907
O9	O	1.478511	-0.301174	-0.464657
O10	O	1.326540	-0.131992	-0.566744
O11	O	1.230741	-0.227369	-0.304095
O12	O	1.076587	-0.239057	-0.441418
O13	O	1.207557	-0.321719	-0.706027
O14	O	1.070170	-0.321058	-0.551824
O15	O	1.318071	-0.240218	-0.712459
O16	O	1.332654	-0.408740	-0.456168
O17	O	1.215854	-0.417596	-0.560216
C18	C	1.040752	-0.281292	-0.494732
C19	C	0.940807	-0.285089	-0.488967
C20	C	0.746441	-0.216696	-0.593351
C21	C	0.652533	-0.220261	-0.587937
C22	C	0.659082	-0.295781	-0.472721
C23	C	0.752990	-0.292216	-0.478135
C24	C	0.796666	-0.252672	-0.538453
C25	C	0.890575	-0.249111	-0.543871
C26	C	0.897123	-0.324627	-0.428651
C27	C	0.803215	-0.328192	-0.423237
C28	C	1.274258	-0.436009	-0.508202
C29	C	1.274289	-0.505976	-0.508213
C30	C	1.335155	-0.534211	-0.454097
C31	C	1.335196	-0.599953	-0.454120
C32	C	1.274356	-0.637457	-0.508248
C33	C	1.213486	-0.609215	-0.562374
C34	C	1.213453	-0.543474	-0.562357
N35	N	1.195300	-0.743994	-0.510548
N36	N	1.195335	-0.806445	-0.510559
C37	C	1.274454	-0.835530	-0.508305
N38	N	1.353539	-0.799805	-0.506021
N39	N	1.353504	-0.737349	-0.506005
C40	C	1.274386	-0.708742	-0.508273
C41	C	1.335369	-0.935050	-0.454211
C42	C	1.335411	-1.000793	-0.454240
C43	C	1.213693	-1.010054	-0.562489
C44	C	1.213658	-0.944312	-0.562466
C45	C	1.274495	-0.906814	-0.508322
C46	C	1.508906	-0.263583	-0.521838
C47	C	1.608850	-0.259803	-0.527625
C48	C	1.260885	-0.282389	-0.742780
C49	C	1.255138	-0.286622	-0.842719
C50	C	1.274512	-0.108262	-0.508337
C51	C	1.274571	-0.038293	-0.508370
C52	C	1.359412	-0.209696	-1.037213
C53	C	1.354015	-0.213671	-1.131115
C54	C	1.238941	-0.298545	-1.124425
C55	C	1.244339	-0.294569	-1.030524
C56	C	1.304577	-0.250144	-0.986921
C57	C	1.309979	-0.246172	-0.893018
C58	C	1.194901	-0.331042	-0.886330
C59	C	1.189503	-0.335018	-0.980231
C60	C	1.287860	-0.262512	-0.274653
C61	C	1.293782	-0.258095	-0.174725
H62	H	0.782002	-0.184501	-0.642469
H63	H	1.189897	-0.334713	-1.159943
N64	N	1.135744	-0.374655	-0.832066
H65	H	1.070568	-0.367994	-0.844694
H66	H	1.148795	-0.419781	-0.849206
N67	N	1.400983	-0.894599	-0.395819
H68	H	1.439553	-0.922465	-0.361544
H69	H	1.440442	-0.867259	-0.434851
N70	N	1.147867	-0.649662	-0.620759
H71	H	1.157121	-0.695593	-0.612556
H72	H	1.084462	-0.640051	-0.602993
N73	N	0.937686	-0.206466	-0.608928
H74	H	0.891616	-0.184215	-0.642882
H75	H	0.978760	-0.174271	-0.574650
N76	N	0.598363	-0.181463	-0.647158
H77	H	0.532244	-0.189721	-0.634578
H78	H	0.615599	-0.135279	-0.634227
H79	H	1.384694	-0.503682	-0.410012
N80	N	0.611968	-0.338415	-0.407652
H81	H	0.544858	-0.335209	-0.412550
H82	H	0.627549	-0.383357	-0.422466
N83	N	1.124516	-0.382919	-1.027261
H84	H	1.129411	-0.379297	-1.094378
H85	H	1.139408	-0.426657	-1.011647
H86	H	0.767641	-0.360385	-0.374125
H87	H	0.938026	-0.353927	-0.383956
H88	H	1.384763	-0.622946	-0.410053
H89	H	1.359030	-0.210000	-0.857518
H90	H	1.163888	-0.520485	-0.606425
N91	N	1.401066	-1.031250	-0.395875
H92	H	1.439597	-0.997517	-0.361573
H93	H	1.366904	-1.058186	-0.352130
N94	N	1.148077	-1.050495	-0.620880
H95	H	1.157335	-1.096427	-0.612682
H96	H	1.084671	-1.040888	-0.603114
H97	H	1.164092	-0.921322	-0.606528
H98	H	1.408466	-0.173526	-1.001712
H99	H	1.398665	-0.180732	-1.172060
