data_functionalizedCrystal
_audit_creation_method	'MofGen! by Chris Wilmer'
_symmetry_space_group_name_H-M	'P1'
_symmetry_Int_Tables_number	1
_symmetry_cell_setting	triclinic
loop_
_symmetry_equiv_pos_as_xyz
  x,y,z
_cell_length_a	29.839131
_cell_length_b	10.685980
_cell_length_c	10.686551
_cell_angle_alpha	81.591741
_cell_angle_beta	85.589901
_cell_angle_gamma	94.407617
loop_
_atom_site_label
_atom_site_type_symbol
_atom_site_fract_x
_atom_site_fract_y
_atom_site_fract_z
Zn1	Zn	-0.100700	1.995654	-0.866663
Zn2	Zn	0.399300	2.495654	-0.366663
Zn3	Zn	-0.182090	1.979123	-0.654366
Zn4	Zn	0.317910	2.479123	-0.154366
Zn5	Zn	-0.113204	1.767065	-0.638122
Zn6	Zn	0.386796	2.267065	-0.138122
Zn7	Zn	-0.182046	1.783247	-0.850276
Zn8	Zn	0.317954	2.283247	-0.350276
O9	O	-0.144510	1.881272	-0.752357
O10	O	0.355490	2.381272	-0.252357
O11	O	-0.106281	2.171102	-0.852157
O12	O	0.393719	2.671102	-0.352157
O13	O	-0.178203	1.937303	-0.474577
O14	O	0.321797	2.437303	0.025423
O15	O	-0.048673	1.797533	-0.668498
O16	O	0.451327	2.297533	-0.168498
O17	O	-0.166078	2.158957	-0.696183
O18	O	0.333922	2.658957	-0.196183
O19	O	-0.039486	1.965477	-0.836406
O20	O	0.460514	2.465477	-0.336406
O21	O	-0.127593	1.781504	-0.462642
O22	O	0.372407	2.281504	0.037358
O23	O	-0.127551	1.591571	-0.652609
O24	O	0.372449	2.091571	-0.152609
O25	O	-0.166004	1.825114	-1.030084
O26	O	0.333996	2.325114	-0.530084
O27	O	-0.178129	1.603460	-0.808477
O28	O	0.321871	2.103460	-0.308477
O29	O	-0.106239	1.981169	-1.042123
O30	O	0.393761	2.481169	-0.542123
O31	O	-0.244957	1.952994	-0.680294
O32	O	0.255043	2.452994	-0.180294
O33	O	-0.244925	1.809085	-0.824228
O34	O	0.255075	2.309085	-0.324228
C35	C	-0.154192	1.551455	-0.727003
C36	C	0.345808	2.051455	-0.227003
C37	C	-0.158345	1.410360	-0.716187
C38	C	0.341655	1.910360	-0.216187
C39	C	-0.261241	1.881038	-0.752276
C40	C	0.238759	2.381038	-0.252276
C41	C	-0.311175	1.881057	-0.752293
C42	C	0.188825	2.381057	-0.252293
C43	C	-0.620807	1.956363	-0.677540
C44	C	-0.120807	2.456363	-0.177540
C45	C	-0.808474	1.956523	-0.677601
C46	C	-0.308474	2.456523	-0.177601
O47	O	-0.832735	2.020365	-0.613981
O48	O	-0.332735	2.520365	-0.113981
N49	N	-0.831941	1.881543	-0.752472
N50	N	-0.331941	2.381543	-0.252472
C51	C	-0.808489	1.806524	-0.827340
C52	C	-0.308489	2.306524	-0.327340
O53	O	-0.832756	1.742762	-0.891034
O54	O	-0.332756	2.242762	-0.391034
C55	C	-0.620823	1.806371	-0.827285
C56	C	-0.120823	2.306371	-0.327285
C57	C	-0.597358	1.881346	-0.752399
C58	C	-0.097358	2.381346	-0.252399
C59	C	-0.597342	2.031333	-0.602661
C60	C	-0.097342	2.531333	-0.102661
C61	C	-0.550428	2.031287	-0.602641
C62	C	-0.050428	2.531287	-0.102641
C63	C	-0.526979	1.956270	-0.677500
C64	C	-0.026979	2.456270	-0.177500
C65	C	-0.550444	1.881300	-0.752379
C66	C	-0.050444	2.381300	-0.252379
C67	C	-0.597371	1.731359	-0.902159
C68	C	-0.097371	2.231359	-0.402159
C69	C	-0.550452	1.731330	-0.902141
C70	C	-0.050452	2.231330	-0.402141
C71	C	-0.526987	1.806305	-0.827255
C72	C	-0.026987	2.306305	-0.327255
C73	C	-0.480082	1.806237	-0.827218
C74	C	0.019918	2.306237	-0.327218
N75	N	-0.456614	1.881218	-0.752347
N76	N	0.043386	2.381218	-0.252347
C77	C	-0.480063	1.956234	-0.677488
C78	C	0.019937	2.456234	-0.177488
C79	C	-0.907017	1.806607	-0.827362
C80	C	-0.407017	2.306607	-0.327362
C81	C	-0.953934	1.806643	-0.827374
C82	C	-0.453934	2.306643	-0.327374
C83	C	-0.953914	1.956645	-0.677637
C84	C	-0.453914	2.456645	-0.177637
C85	C	-0.906997	1.956601	-0.677618
C86	C	-0.406997	2.456601	-0.177618
C87	C	-0.883549	1.881587	-0.752491
C88	C	-0.383549	2.381587	-0.252491
C89	C	-0.381541	1.956131	-0.677451
C90	C	0.118459	2.456131	-0.177451
C91	C	-0.334623	1.956074	-0.677434
C92	C	0.165377	2.456074	-0.177434
C93	C	-0.334646	1.806078	-0.827176
C94	C	0.165354	2.306078	-0.327176
C95	C	-0.381560	1.806129	-0.827189
C96	C	0.118440	2.306129	-0.327189
C97	C	-0.405006	1.881165	-0.752323
C98	C	0.094994	2.381165	-0.252323
O99	O	-0.455791	1.742440	-0.890816
O100	O	0.044209	2.242440	-0.390816
O101	O	-0.455787	2.020008	-0.613825
O102	O	0.044213	2.520008	-0.113825
C103	C	-0.667720	1.956409	-0.677560
C104	C	-0.167720	2.456409	-0.177560
C105	C	-0.691185	1.881438	-0.752439
C106	C	-0.191185	2.381438	-0.252439
C107	C	-0.667737	1.806422	-0.827298
C108	C	-0.167737	2.306422	-0.327298
C109	C	-0.738102	1.881475	-0.752451
C110	C	-0.238102	2.381475	-0.252451
C111	C	-0.761550	1.956491	-0.677592
C112	C	-0.261550	2.456491	-0.177592
C113	C	-0.738082	2.031471	-0.602720
C114	C	-0.238082	2.531471	-0.102720
C115	C	-0.691169	2.031425	-0.602701
C116	C	-0.191169	2.531425	-0.102701
C117	C	-0.691205	1.731442	-0.902169
C118	C	-0.191205	2.231442	-0.402169
C119	C	-0.738118	1.731493	-0.902182
C120	C	-0.238118	2.231493	-0.402182
C121	C	-0.761567	1.806509	-0.827323
C122	C	-0.261567	2.306509	-0.327323
C123	C	-0.027321	1.881544	-0.752468
C124	C	0.472679	2.381544	-0.252468
C125	C	0.022618	1.881660	-0.752515
C126	C	0.522618	2.381660	-0.252515
C127	C	-0.134722	1.906790	-1.083450
C128	C	0.365278	2.406790	-0.583450
C129	C	-0.130551	1.917665	-1.224542
C130	C	0.369449	2.417665	-0.724542
C131	C	-0.134790	2.212377	-0.777810
C132	C	0.365210	2.712377	-0.277810
C133	C	-0.130648	2.353474	-0.788657
C134	C	0.369352	2.853474	-0.288657
C135	C	-0.154225	1.855927	-0.422557
C136	C	0.345775	2.355927	0.077443
C137	C	-0.158263	1.845298	-0.281484
C138	C	0.341737	2.345298	0.218516
H139	H	-0.185235	1.351114	-0.645857
H140	H	0.314765	1.851114	-0.145857
F141	F	-0.309653	2.035876	-0.597726
F142	F	0.190347	2.535876	-0.097726
H143	H	-0.103756	1.412714	-0.858974
H144	H	0.396244	1.912714	-0.358974
F145	F	-0.978878	2.036480	-0.597963
F146	F	-0.478878	2.536480	-0.097963
F147	F	-0.095369	2.009535	-1.301911
F148	F	0.404631	2.509535	-0.801911
F149	F	-0.406487	2.035993	-0.597770
F150	F	0.093513	2.535993	-0.097770
H151	H	-0.531325	2.092342	-0.541667
H152	H	-0.031325	2.592342	-0.041667
H153	H	-0.616428	2.092427	-0.541702
H154	H	-0.116428	2.592427	-0.041702
H155	H	-0.887895	2.017653	-0.616641
H156	H	-0.387895	2.517653	-0.116641
F157	F	-0.978903	1.726829	-0.907063
F158	F	-0.478903	2.226829	-0.407063
F159	F	-0.193447	1.753446	-1.204123
F160	F	0.306553	2.253446	-0.704123
H161	H	-0.531362	1.670247	-0.963115
H162	H	-0.031362	2.170247	-0.463115
F163	F	-0.882067	1.726760	-0.907055
F164	F	-0.382067	2.226760	-0.407055
H165	H	-0.616469	1.670300	-0.963133
H166	H	-0.116469	2.170300	-0.463133
H167	H	-0.672067	2.092477	-0.541722
H168	H	-0.172067	2.592477	-0.041722
F169	F	-0.406535	1.726307	-0.906865
F170	F	0.093465	2.226307	-0.406865
F171	F	-0.763047	2.111306	-0.523046
F172	F	-0.263047	2.611306	-0.023046
F173	F	-0.309682	1.726248	-0.906846
F174	F	0.190318	2.226248	-0.406846
H175	H	-0.672116	1.670356	-0.963130
H176	H	-0.172116	2.170356	-0.463130
F177	F	-0.763087	1.651684	-0.981888
F178	F	-0.263087	2.151684	-0.481888
