data_functionalizedCrystal
_audit_creation_method	'MofGen! by Chris Wilmer'
_symmetry_space_group_name_H-M	'P1'
_symmetry_Int_Tables_number	1
_symmetry_cell_setting	triclinic
loop_
_symmetry_equiv_pos_as_xyz
  x,y,z
_cell_length_a	18.426585
_cell_length_b	12.477989
_cell_length_c	18.426585
_cell_angle_alpha	64.370790
_cell_angle_beta	90.000127
_cell_angle_gamma	55.726983
loop_
_atom_site_label
_atom_site_type_symbol
_atom_site_fract_x
_atom_site_fract_y
_atom_site_fract_z
Zr1	Zr	0.647023	1.178127	-0.043161
O2	O	0.521221	1.402650	-0.149107
O3	O	0.692472	0.953593	-0.017568
O4	O	0.682547	1.178122	-0.159039
O5	O	0.531144	1.178129	0.111790
O6	O	0.801973	1.178129	-0.159041
O7	O	0.531146	1.178122	-0.007636
O8	O	0.819727	0.776488	0.094024
O9	O	0.513390	1.579770	-0.141276
O10	O	0.792664	1.045956	0.001663
O11	O	0.703537	1.045956	0.090792
O12	O	0.691851	1.310310	-0.075772
O13	O	0.602724	1.310310	0.013356
Zr14	Zr	0.837490	1.178150	0.147305
Zr15	Zr	0.837493	1.178139	-0.043166
Zr16	Zr	0.647020	1.178139	0.147310
Zr17	Zr	0.634533	1.460612	-0.030671
Zr18	Zr	0.849979	0.895665	0.134815
O19	O	0.792040	1.402684	0.121712
O20	O	0.792045	1.402667	-0.149113
O21	O	0.521217	1.402667	0.121718
O22	O	0.963291	0.953627	0.253251
O23	O	0.963296	0.953610	-0.017574
O24	O	0.692468	0.953610	0.253257
O25	O	0.953368	1.178148	-0.007646
O26	O	0.801965	1.178156	0.263183
O27	O	0.682540	1.178148	0.263186
O28	O	0.953366	1.178156	0.111780
O29	O	0.664789	1.579779	-0.141279
O30	O	0.819724	0.776498	0.245423
O31	O	0.971122	0.776507	0.245420
O32	O	0.971125	0.776498	0.094021
O33	O	0.513388	1.579779	0.010123
O34	O	0.664786	1.579789	0.010120
O35	O	0.792661	1.045967	0.179916
O36	O	0.881789	1.045967	0.090788
O37	O	0.780976	1.310321	0.013352
O38	O	0.691848	1.310321	0.102481
C39	C	0.757879	0.824792	0.036449
C40	C	0.763181	0.704870	0.031146
C41	C	0.504007	1.178124	0.052077
C42	C	0.423148	1.178118	0.052079
C43	C	0.127031	1.178164	0.052066
C44	C	0.209417	1.178158	0.052067
C45	C	0.275087	1.178142	0.052072
C46	C	0.357479	1.178135	0.052075
C47	C	0.980505	1.178154	0.052067
C48	C	1.061365	1.178159	0.052065
C49	C	0.742261	1.178124	-0.186178
C50	C	0.742262	1.178118	-0.267038
C51	C	0.726634	1.531485	0.067696
C52	C	0.721331	1.651407	0.072998
C53	C	0.742263	1.178113	-0.332705
C54	C	0.742262	1.178119	-0.415091
C55	C	0.742258	1.178135	-0.480759
C56	C	0.742255	1.178142	-0.563150
C57	C	0.742252	1.178154	0.290322
C58	C	0.742251	1.178159	0.371182
C59	C	0.996128	0.824807	0.036443
C60	C	1.082290	0.704890	0.031139
C61	C	0.757875	0.824807	0.274699
C62	C	0.763176	0.704890	0.350256
C63	C	0.996124	0.824822	0.274693
C64	C	1.082284	0.704910	0.350249
C65	C	0.488389	1.531455	-0.170549
C66	C	0.402229	1.651367	-0.246105
C67	C	0.488385	1.531470	0.067701
C68	C	0.402223	1.651387	0.073005
C69	C	0.726638	1.531470	-0.170555
C70	C	0.721337	1.651387	-0.246112
C71	C	1.076230	0.648570	-0.017882
C72	C	1.157180	0.535910	-0.022883
C73	C	1.244189	0.479565	0.021142
C74	C	1.250247	0.535897	0.070165
C75	C	1.169297	0.648562	0.075161
C76	C	0.812187	0.648581	0.432269
C77	C	0.817163	0.535922	0.503271
C78	C	0.773134	0.479566	0.492259
C79	C	0.724116	0.535885	0.410238
C80	C	0.719135	0.648550	0.339238
C81	C	1.169277	0.648598	0.339207
C82	C	1.250241	0.535943	0.410193
C83	C	1.244209	0.479595	0.492220
C84	C	1.157206	0.535918	0.503261
C85	C	1.076245	0.648579	0.432276
C86	C	0.315235	1.707693	-0.235062
C87	C	0.234270	1.820382	-0.306046
C88	C	0.240301	1.876737	-0.388073
C89	C	0.327304	1.820406	-0.399115
C90	C	0.408267	1.707726	-0.328131
C91	C	0.408282	1.707719	0.122019
C92	C	0.327331	1.820410	0.127000
C93	C	0.240321	1.876759	0.082972
C94	C	0.234264	1.820422	0.033953
C95	C	0.315215	1.707741	0.028967
C96	C	0.765378	1.707708	-0.235073
C97	C	0.760415	1.820368	-0.306060
C98	C	0.711406	1.876713	-0.388086
C99	C	0.667364	1.820381	-0.399125
C100	C	0.672333	1.707715	-0.328138
H101	H	0.681440	0.697388	0.112880
H102	H	0.688269	0.489983	0.401283
Cl103	Cl	0.824764	0.633896	-0.030446
Cl104	Cl	1.359604	0.465154	0.396293
Cl105	Cl	0.517628	1.636920	-0.342029
H106	H	0.848042	0.694454	0.441252
Cl107	Cl	0.517655	1.636912	0.177372
Cl108	Cl	0.124874	1.891270	-0.021388
Cl109	Cl	0.966857	0.719386	-0.073241
Cl110	Cl	1.176884	0.719422	0.236095
Cl111	Cl	0.878793	0.465138	0.606373
H112	H	1.310096	0.387825	0.017068
Cl113	Cl	0.138563	2.018413	0.089251
H114	H	0.332204	1.866304	-0.465910
H115	H	1.152230	0.490059	-0.062802
Cl116	Cl	0.307582	1.636927	-0.032649
Cl117	Cl	1.359637	0.465040	0.125511
H118	H	1.310140	0.387860	0.550013
Cl119	Cl	0.966885	0.719348	0.446173
Cl120	Cl	0.334967	1.891203	0.188632
H121	H	1.152309	0.490023	0.570057
H122	H	1.174244	0.694403	0.115084
Cl123	Cl	0.826997	1.636895	-0.131962
Cl124	Cl	0.815780	1.891171	-0.292164
Cl125	Cl	0.779407	0.337925	0.581526
H126	H	0.310306	1.661815	-0.168278
H127	H	0.679228	0.694382	0.272461
H128	H	0.163437	1.866228	-0.297040
Cl129	Cl	0.138510	2.018391	-0.477303
Cl130	Cl	0.705165	2.018357	-0.477319
H131	H	0.627462	1.866275	-0.465920
Cl132	Cl	0.616951	1.636940	-0.342031
