data_functionalizedCrystal
_audit_creation_method	'MofGen! by Chris Wilmer'
_symmetry_space_group_name_H-M	'P1'
_symmetry_Int_Tables_number	1
_symmetry_cell_setting	triclinic
loop_
_symmetry_equiv_pos_as_xyz
  x,y,z
_cell_length_a	10.540510
_cell_length_b	14.853567
_cell_length_c	13.330367
_cell_angle_alpha	89.999156
_cell_angle_beta	89.992203
_cell_angle_gamma	84.074121
loop_
_atom_site_label
_atom_site_type_symbol
_atom_site_fract_x
_atom_site_fract_y
_atom_site_fract_z
O1	O	1.684519	0.126923	-0.083420
O2	O	1.314969	0.138922	-0.083420
O3	O	1.509615	0.001747	-0.083423
O4	O	1.489872	0.264098	-0.083417
O5	O	1.509587	0.001744	0.083424
O6	O	1.314940	0.138919	0.083427
O7	O	1.684490	0.126920	0.083427
Cu8	Cu	1.499713	0.132919	0.098661
Cu9	Cu	1.499746	0.132923	-0.098655
O10	O	1.489844	0.264095	0.083430
C11	C	1.267661	0.138026	0.000003
C12	C	1.126740	0.135351	0.000003
C13	C	1.508706	-0.031848	-0.000003
C14	C	1.506026	-0.131947	-0.000011
C15	C	1.379070	-0.545175	0.000008
C16	C	1.610314	-0.565191	0.000008
C17	C	1.612834	-0.471143	0.000002
C18	C	1.498471	-0.414107	0.000000
C19	C	1.381587	-0.451119	0.000005
C20	C	1.729716	-0.434124	0.000007
C21	C	1.732242	-0.340071	0.000002
C22	C	1.617877	-0.283034	-0.000006
C23	C	1.500988	-0.320051	-0.000003
C24	C	1.386624	-0.263015	-0.000004
C25	C	1.269734	-0.300030	-0.000008
C26	C	1.267222	-0.394081	-0.000004
C27	C	1.620389	-0.188983	-0.000010
C28	C	1.389142	-0.168958	-0.000007
C29	C	0.908236	0.230646	-0.000378
C30	C	1.054801	0.233500	0.000004
C31	C	1.082517	0.085107	0.095277
C32	C	0.935780	0.082948	0.095351
C33	C	0.936028	0.080908	-0.094385
C34	C	1.082319	0.085563	-0.095639
C35	C	1.731798	0.127816	0.000001
C36	C	1.872719	0.130491	-0.000005
C37	C	1.490753	0.297690	0.000007
C38	C	1.493433	0.397789	0.000009
N39	N	1.499699	0.132916	0.237443
N40	N	1.499770	0.132919	-0.237436
C41	C	1.413553	0.193640	0.710067
C42	C	1.585973	0.072199	0.710032
C43	C	1.585959	0.072196	0.605014
C44	C	1.499742	0.132917	0.552517
C45	C	1.413539	0.193641	0.605039
C46	C	1.672169	0.011480	0.552484
C47	C	1.672159	0.011475	0.447460
C48	C	1.585935	0.072192	0.394961
C49	C	1.499727	0.132918	0.447489
C50	C	1.413510	0.193639	0.394993
C51	C	1.327295	0.254361	0.447519
C52	C	1.327314	0.254358	0.552540
C53	C	1.585916	0.072195	0.289939
C54	C	1.413495	0.193640	0.289964
H55	H	1.296011	-0.122525	-0.000012
H56	H	1.742358	-0.037968	0.404699
Br57	Br	1.162806	-0.035330	0.101179
Br58	Br	1.702991	-0.010197	0.781273
H59	H	1.283901	-0.575317	0.000001
H60	H	1.132176	0.013908	-0.101394
H61	H	1.715559	-0.158849	-0.000001
H62	H	0.895174	0.117283	0.166572
H63	H	1.343282	0.243083	0.247228
Br64	Br	1.129428	0.146462	-0.213122
Br65	Br	1.114533	-0.222613	0.000003
Br66	Br	1.108600	-0.444322	-0.000015
Br67	Br	1.133279	0.143257	0.213462
Br68	Br	0.837632	0.294387	-0.114263
H69	H	1.822825	-0.480569	0.000018
Br70	Br	1.765514	-0.642596	0.000031
Br71	Br	0.898788	-0.039398	0.102625
Br72	Br	1.210302	0.336774	0.376262
Br73	Br	0.864579	0.132506	-0.214748
H74	H	1.656116	0.022760	0.247177
Br75	Br	1.890874	-0.289844	-0.000008
H76	H	0.864300	0.268662	0.067563
Br77	Br	1.103018	0.299019	-0.113829
H78	H	0.914685	0.007218	-0.095031
H79	H	1.257122	0.303796	0.595314
H80	H	1.343355	0.243077	0.752837
Br81	Br	1.789187	-0.070916	0.623726
H82	H	1.082758	0.273043	0.068417
