data_functionalizedCrystal
_audit_creation_method	'MofGen! by Chris Wilmer'
_symmetry_space_group_name_H-M	'P1'
_symmetry_Int_Tables_number	1
_symmetry_cell_setting	triclinic
loop_
_symmetry_equiv_pos_as_xyz
  x,y,z
_cell_length_a	19.288864
_cell_length_b	13.101039
_cell_length_c	19.288865
_cell_angle_alpha	86.654591
_cell_angle_beta	83.136245
_cell_angle_gamma	93.359745
loop_
_atom_site_label
_atom_site_type_symbol
_atom_site_fract_x
_atom_site_fract_y
_atom_site_fract_z
O1	O	0.925197	0.085556	0.082787
O2	O	1.258530	0.418889	0.416120
O3	O	1.591863	0.752222	0.749453
O4	O	0.722933	0.085487	0.094479
O5	O	1.056266	0.418821	0.427812
O6	O	1.389600	0.752154	0.761145
O7	O	0.829908	0.085503	-0.012497
O8	O	1.163242	0.418836	0.320836
O9	O	1.496575	0.752170	0.654170
O10	O	0.818221	0.085540	0.189762
O11	O	1.151555	0.418873	0.523095
O12	O	1.484888	0.752206	0.856429
O13	O	0.822233	-0.084928	-0.004809
O14	O	1.155566	0.248405	0.328524
O15	O	1.488900	0.581739	0.661858
O16	O	0.715258	-0.084944	0.102167
O17	O	1.048591	0.248390	0.435500
O18	O	1.381924	0.581723	0.768833
O19	O	0.917521	-0.084875	0.090475
O20	O	1.250855	0.248458	0.423808
O21	O	1.584188	0.581791	0.757141
Zn22	Zn	0.815171	-0.111969	0.097541
Zn23	Zn	1.148504	0.221364	0.430875
Zn24	Zn	1.481837	0.554698	0.764208
Zn25	Zn	0.825283	0.112581	0.087412
Zn26	Zn	1.158617	0.445914	0.420745
Zn27	Zn	1.491950	0.779248	0.754079
O28	O	0.810546	-0.084891	0.197450
O29	O	1.143879	0.248442	0.530783
O30	O	1.477213	0.581775	0.864117
C31	C	0.693218	0.000263	0.097947
C32	C	1.026552	0.333596	0.431280
C33	C	1.359885	0.666929	0.764613
C34	C	0.616114	0.000236	0.096819
C35	C	0.949447	0.333569	0.430152
C36	C	1.282780	0.666902	0.763486
N37	N	0.808274	-0.265219	0.104454
N38	N	1.141608	0.068115	0.437787
N39	N	1.474941	0.401448	0.771120
C40	C	0.571419	0.000263	0.159586
C41	C	0.904752	0.333596	0.492919
C42	C	1.238085	0.666930	0.826252
C43	C	0.498972	0.000274	0.158524
C44	C	0.832305	0.333608	0.491858
C45	C	1.165639	0.666941	0.825191
C46	C	0.471225	0.000278	0.094692
C47	C	0.804558	0.333612	0.428025
C48	C	1.137891	0.666945	0.761359
C49	C	0.515929	0.000245	0.031918
C50	C	0.849263	0.333579	0.365251
C51	C	1.182596	0.666912	0.698584
C52	C	0.588374	0.000224	0.032981
C53	C	0.921707	0.333557	0.366314
C54	C	1.255040	0.666890	0.699648
C55	C	0.365653	0.060013	0.041818
C56	C	0.698986	0.393347	0.375152
C57	C	1.032319	0.726680	0.708485
C58	C	0.293210	0.060041	0.040757
C59	C	0.626543	0.393374	0.374091
C60	C	0.959876	0.726708	0.707424
C61	C	0.247782	0.000340	0.091410
C62	C	0.581115	0.333673	0.424743
C63	C	0.914448	0.667007	0.758076
C64	C	0.274805	-0.059376	0.143135
C65	C	0.608139	0.273958	0.476468
C66	C	0.941472	0.607291	0.809801
C67	C	0.347250	-0.059397	0.144198
C68	C	0.680583	0.273936	0.477531
C69	C	1.013916	0.607269	0.810865
C70	C	0.392672	0.000301	0.093532
C71	C	0.726005	0.333634	0.426865
C72	C	1.059338	0.666968	0.760199
C73	C	0.124531	0.000378	0.153030
C74	C	0.457865	0.333711	0.486363
C75	C	0.791198	0.667045	0.819697
C76	C	0.052083	0.000383	0.151967
C77	C	0.385417	0.333716	0.485300
C78	C	0.718750	0.667049	0.818633
C79	C	0.069043	0.000364	0.025357
C80	C	0.402376	0.333697	0.358691
C81	C	0.735709	0.667031	0.692024
C82	C	0.141489	0.000349	0.026423
C83	C	0.474822	0.333682	0.359757
C84	C	0.808155	0.667016	0.693090
C85	C	0.169228	0.000361	0.090261
C86	C	0.502562	0.333694	0.423595
C87	C	0.835895	0.667027	0.756928
C88	C	0.798891	-0.474263	0.113865
C89	C	1.132224	-0.140929	0.447198
C90	C	1.465558	0.192404	0.780532
C91	C	0.841566	-0.525132	0.071085
C92	C	1.174900	-0.191799	0.404418
C93	C	1.508233	0.141535	0.737752
C94	C	0.836345	-0.641451	0.076322
C95	C	1.169679	-0.308118	0.409655
C96	C	1.503012	0.025215	0.742988
C97	C	0.804111	-0.357933	0.108629
C98	C	1.137444	-0.024600	0.441963
C99	C	1.470778	0.308734	0.775296
C100	C	0.947236	0.000352	0.087006
C101	C	1.280569	0.333685	0.420340
C102	C	1.613903	0.667018	0.753673
C103	C	1.024341	0.000385	0.088134
C104	C	1.357674	0.333719	0.421467
C105	C	1.691008	0.667052	0.754800
C106	C	0.825694	0.000284	-0.034529
C107	C	1.159028	0.333618	0.298804
C108	C	1.492361	0.666951	0.632137
C109	C	0.824565	0.000275	-0.111632
C110	C	1.157898	0.333608	0.221701
C111	C	1.491232	0.666942	0.555034
N112	N	0.832186	0.265831	0.080494
N113	N	1.165519	0.599164	0.413827
N114	N	1.498852	0.932497	0.747161
C115	C	0.887334	0.000291	-0.156329
C116	C	1.220667	0.333625	0.177004
C117	C	1.554000	0.666958	0.510337
C118	C	0.886274	0.000307	-0.228777
C119	C	1.219607	0.333641	0.104556
C120	C	1.552940	0.666974	0.437889
C121	C	0.822441	0.000286	-0.256524
C122	C	1.155774	0.333620	0.076810
C123	C	1.489107	0.666953	0.410143
C124	C	0.759664	0.000276	-0.211817
C125	C	1.092997	0.333609	0.121516
C126	C	1.426331	0.666942	0.454850
C127	C	0.760726	0.000270	-0.139371
C128	C	1.094060	0.333603	0.193962
C129	C	1.427393	0.666937	0.527295
C130	C	0.769572	-0.059429	-0.362117
C131	C	1.102905	0.273904	-0.028784
C132	C	1.436238	0.607238	0.304549
C133	C	0.768512	-0.059430	-0.434562
C134	C	1.101845	0.273903	-0.101229
C135	C	1.435179	0.607237	0.232105
C136	C	0.819162	0.000308	-0.479970
C137	C	1.152495	0.333641	-0.146637
C138	C	1.485829	0.666975	0.186696
C139	C	0.870883	0.060033	-0.452926
C140	C	1.204216	0.393367	-0.119593
C141	C	1.537550	0.726700	0.213740
C142	C	0.871945	0.060028	-0.380481
C143	C	1.205279	0.393361	-0.047147
C144	C	1.538612	0.726694	0.286186
C145	C	0.821282	0.000293	-0.335078
C146	C	1.154615	0.333626	-0.001745
C147	C	1.487948	0.666960	0.331589
C148	C	0.880786	0.000343	-0.603224
C149	C	1.214119	0.333676	-0.269891
C150	C	1.547452	0.667010	0.063442
C151	C	0.879723	0.000365	-0.675673
C152	C	1.213057	0.333698	-0.342340
C153	C	1.546390	0.667032	-0.009007
C154	C	0.753111	0.000323	-0.658711
C155	C	1.086445	0.333657	-0.325378
C156	C	1.419778	0.666990	0.007956
C157	C	0.754176	0.000311	-0.586264
C158	C	1.087509	0.333645	-0.252931
C159	C	1.420843	0.666978	0.080402
C160	C	0.818015	0.000316	-0.558525
C161	C	1.151348	0.333650	-0.225192
C162	C	1.484681	0.666983	0.108142
C163	C	0.814760	0.000330	0.219482
C164	C	1.148093	0.333663	0.552816
C165	C	1.481427	0.666996	0.886149
C166	C	0.815890	0.000346	0.296585
C167	C	1.149223	0.333679	0.629918
C168	C	1.482556	0.667013	0.963252
H169	H	0.593999	0.000275	0.211567
H170	H	0.927333	0.333608	0.544901
H171	H	1.260666	0.666941	0.878234
Cl172	Cl	0.904293	-0.457501	0.008731
Cl173	Cl	1.237626	-0.124168	0.342065
Cl174	Cl	1.570959	0.209166	0.675398
H175	H	0.701137	0.000311	-0.681302
H176	H	1.034471	0.333645	-0.347968
H177	H	1.367804	0.666978	-0.014635
H178	H	0.493333	0.000263	-0.020056
H179	H	0.826667	0.333596	0.313277
H180	H	1.160000	0.666929	0.646611
H181	H	0.758438	-0.518066	0.154420
H182	H	1.091771	-0.184732	0.487754
H183	H	1.425105	0.148601	0.821087
Cl184	Cl	0.967589	0.000326	-0.121462
Cl185	Cl	1.300923	0.333660	0.211871
Cl186	Cl	1.634256	0.666993	0.545204
H187	H	0.462574	0.000294	0.209638
H188	H	0.795908	0.333627	0.542972
H189	H	1.129241	0.666960	0.876305
H190	H	0.937389	0.000324	-0.265177
H191	H	1.270723	0.333658	0.068157
H192	H	1.604056	0.666991	0.401490
Cl193	Cl	0.197680	0.000321	-0.052489
Cl194	Cl	0.531013	0.333654	0.280845
Cl195	Cl	0.864347	0.666987	0.614178
H196	H	0.914057	0.108660	-0.358465
H197	H	1.247390	0.441994	-0.025131
H198	H	1.580724	0.775327	0.308202
H199	H	0.369249	-0.108023	0.186312
H200	H	0.702582	0.225310	0.519645
H201	H	1.035916	0.558644	0.852979
Cl202	Cl	0.934561	0.135140	-0.510004
Cl203	Cl	1.267895	0.468473	-0.176670
Cl204	Cl	1.601228	0.801806	0.156663
Cl205	Cl	0.961038	0.000343	-0.568348
Cl206	Cl	1.294371	0.333677	-0.235015
Cl207	Cl	1.627705	0.667010	0.098318
H208	H	0.930839	0.000384	-0.712066
H209	H	1.264173	0.333717	-0.378733
H210	H	1.597506	0.667051	-0.045399
Cl211	Cl	0.675262	0.000286	-0.530070
Cl212	Cl	1.008595	0.333620	-0.196737
Cl213	Cl	1.341928	0.666953	0.136596
Cl214	Cl	0.159407	0.000383	0.233282
Cl215	Cl	0.492741	0.333716	0.566616
Cl216	Cl	0.826074	0.667049	0.899949
Cl217	Cl	0.644565	0.000190	-0.045933
Cl218	Cl	0.977899	0.333524	0.287401
Cl219	Cl	1.311232	0.666857	0.620734
Cl220	Cl	0.703494	-0.134516	-0.468553
Cl221	Cl	1.036828	0.198817	-0.135220
Cl222	Cl	1.370161	0.532151	0.198114
Cl223	Cl	-0.004107	0.000412	0.230881
Cl224	Cl	0.329227	0.333745	0.564215
Cl225	Cl	0.662560	0.667079	0.897548
H226	H	0.271213	0.108669	-0.001357
H227	H	0.604546	0.442003	0.331976
H228	H	0.937880	0.775336	0.665309
Cl229	Cl	0.705892	-0.134539	-0.305039
Cl230	Cl	1.039226	0.198795	0.028294
Cl231	Cl	1.372559	0.532128	0.361628
H232	H	0.046455	0.000431	-0.026619
H233	H	0.379788	0.333764	0.306714
H234	H	0.713121	0.667098	0.640048
H235	H	0.237819	-0.107991	0.184380
H236	H	0.571152	0.225342	0.517714
H237	H	0.904485	0.558676	0.851047
Cl238	Cl	0.422756	0.135074	-0.021866
Cl239	Cl	0.756089	0.468407	0.311468
Cl240	Cl	1.089422	0.801740	0.644801
Cl241	Cl	0.679417	0.000258	-0.246698
Cl242	Cl	1.012750	0.333591	0.086635
Cl243	Cl	1.346084	0.666924	0.419969
H244	H	0.709611	0.000257	-0.102978
H245	H	1.042944	0.333590	0.230355
H246	H	1.376277	0.666923	0.563688
