data_functionalizedCrystal
_audit_creation_method	'MofGen! by Chris Wilmer'
_symmetry_space_group_name_H-M	'P1'
_symmetry_Int_Tables_number	1
_symmetry_cell_setting	triclinic
loop_
_symmetry_equiv_pos_as_xyz
  x,y,z
_cell_length_a	8.140239
_cell_length_b	14.971486
_cell_length_c	14.971486
_cell_angle_alpha	83.614129
_cell_angle_beta	89.996272
_cell_angle_gamma	90.002234
loop_
_atom_site_label
_atom_site_type_symbol
_atom_site_fract_x
_atom_site_fract_y
_atom_site_fract_z
O1	O	0.136425	-1.186943	-0.116561
O2	O	0.636425	-0.686943	0.383439
O3	O	0.136470	-0.926542	-0.130520
O4	O	0.636470	-0.426542	0.369480
O5	O	0.136435	-1.063722	0.006659
O6	O	0.636435	-0.563722	0.506659
O7	O	0.136461	-1.049763	-0.253741
O8	O	0.636461	-0.549763	0.246259
O9	O	-0.136792	-1.063714	0.006661
O10	O	0.363208	-0.563714	0.506661
O11	O	-0.136757	-0.926535	-0.130519
O12	O	0.363243	-0.426535	0.369481
O13	O	-0.136802	-1.186935	-0.116560
O14	O	0.363198	-0.686935	0.383440
Zn15	Zn	-0.180160	-1.056734	-0.123539
Zn16	Zn	0.319840	-0.556734	0.376461
Zn17	Zn	0.179828	-1.056744	-0.123541
Zn18	Zn	0.679828	-0.556744	0.376459
O19	O	-0.136766	-1.049756	-0.253739
O20	O	0.363234	-0.549756	0.246261
C21	C	-0.000138	-0.893214	-0.129895
C22	C	0.499862	-0.393214	0.370105
C23	C	-0.000121	-0.793917	-0.128024
C24	C	0.499879	-0.293917	0.371976
C25	C	-0.000178	-1.063094	0.039985
C26	C	0.499822	-0.563094	0.539985
C27	C	-0.000176	-1.061223	0.139282
C28	C	0.499824	-0.561223	0.639282
N29	N	-0.425843	-1.056733	-0.123537
N30	N	0.074157	-0.556733	0.376463
N31	N	0.425511	-1.056751	-0.123536
N32	N	0.925511	-0.556751	0.376464
C33	C	-0.000190	-1.220263	-0.117185
C34	C	0.499810	-0.720263	0.382815
C35	C	-0.000196	-1.319561	-0.119056
C36	C	0.499804	-0.819561	0.380944
C37	C	-0.000115	-0.736692	-0.208614
C38	C	0.499885	-0.236692	0.291386
C39	C	-0.000140	-0.643392	-0.206850
C40	C	0.499860	-0.143392	0.293150
C41	C	-0.000159	-0.607320	-0.124497
C42	C	0.499841	-0.107320	0.375503
C43	C	-0.000169	-0.664552	-0.043902
C44	C	0.499831	-0.164552	0.456098
C45	C	-0.000156	-0.757850	-0.045666
C46	C	0.499844	-0.257850	0.454334
C47	C	-0.000192	-0.470090	-0.040231
C48	C	0.499808	0.029910	0.459769
C49	C	-0.000202	-0.376786	-0.038466
C50	C	0.499798	0.123214	0.461534
C51	C	-0.000176	-0.355632	-0.201415
C52	C	0.499824	0.144368	0.298585
C53	C	-0.000163	-0.448930	-0.203179
C54	C	0.499837	0.051070	0.296821
C55	C	-0.000170	-0.506156	-0.122584
C56	C	0.499830	-0.006156	0.377416
C57	C	-0.000150	-1.050384	-0.287065
C58	C	0.499850	-0.550384	0.212935
C59	C	-0.000141	-1.052254	-0.386362
C60	C	0.499859	-0.552254	0.113638
C61	C	-0.000191	-1.141812	0.196507
C62	C	0.499809	-0.641812	0.696507
C63	C	-0.000175	-1.140049	0.289807
C64	C	0.499825	-0.640049	0.789807
C65	C	-0.000154	-1.057696	0.325879
C66	C	0.499846	-0.557696	0.825879
C67	C	-0.000134	-0.977101	0.268646
C68	C	0.499866	-0.477101	0.768646
C69	C	-0.000139	-0.978865	0.175349
C70	C	0.499861	-0.478865	0.675349
C71	C	-0.000128	-0.973430	0.463109
C72	C	0.499872	-0.473430	0.963109
C73	C	-0.000126	-0.971665	0.556413
C74	C	0.499874	-0.471665	1.056413
C75	C	-0.000163	-1.134614	0.577567
C76	C	0.499837	-0.634614	1.077567
C77	C	-0.000168	-1.136378	0.484269
C78	C	0.499832	-0.636378	0.984269
C79	C	-0.000151	-1.055782	0.427043
C80	C	0.499849	-0.555782	0.927043
H81	H	-0.000099	-0.766054	-0.275675
H82	H	0.499901	-0.266054	0.224325
H83	H	-0.000133	-0.596802	-0.272474
H84	H	0.499867	-0.096802	0.227526
Cl85	Cl	-0.000234	-1.245348	0.151169
Cl86	Cl	0.499766	-0.745348	0.651169
Cl87	Cl	-0.000106	-0.872107	0.391168
Cl88	Cl	0.499894	-0.372107	0.891168
H89	H	-0.000177	-0.309033	-0.267039
H90	H	0.499823	0.190967	0.232961
Cl91	Cl	-0.000198	-1.241366	0.361744
Cl92	Cl	0.499802	-0.741366	0.861744
Cl93	Cl	-0.000185	-1.239909	0.438922
Cl94	Cl	0.499815	-0.739909	0.938922
Cl95	Cl	-0.000203	-0.619204	0.059629
Cl96	Cl	0.499797	-0.119204	0.559629
Cl97	Cl	-0.000089	-0.873570	0.313995
Cl98	Cl	0.499911	-0.373570	0.813995
Cl99	Cl	-0.000122	-0.494276	-0.306711
Cl100	Cl	0.499878	0.005724	0.193289
Cl101	Cl	-0.000114	-0.877548	0.103407
Cl102	Cl	0.499886	-0.377548	0.603407
H103	H	-0.000219	-0.347419	0.028593
H104	H	0.499781	0.152581	0.528593
Cl105	Cl	-0.000175	-1.235935	0.649508
Cl106	Cl	0.499825	-0.735935	1.149508
Cl107	Cl	-0.000102	-0.868134	0.601760
Cl108	Cl	0.499898	-0.368134	1.101760
H109	H	-0.000201	-0.516682	0.025399
H110	H	0.499799	-0.016682	0.525399
H111	H	-0.000160	-0.804443	0.019958
H112	H	0.499840	-0.304443	0.519958
