data_functionalizedCrystal
_audit_creation_method	'MofGen! by Chris Wilmer'
_symmetry_space_group_name_H-M	'P1'
_symmetry_Int_Tables_number	1
_symmetry_cell_setting	triclinic
loop_
_symmetry_equiv_pos_as_xyz
  x,y,z
_cell_length_a	11.792254
_cell_length_b	10.268362
_cell_length_c	14.971486
_cell_angle_alpha	90.005493
_cell_angle_beta	96.093637
_cell_angle_gamma	89.994222
loop_
_atom_site_label
_atom_site_type_symbol
_atom_site_fract_x
_atom_site_fract_y
_atom_site_fract_z
O1	O	-1.506109	0.108338	0.122652
O2	O	-1.175688	0.108332	0.135275
O3	O	-1.349755	0.108326	-0.001201
O4	O	-1.332043	0.108344	0.259128
O5	O	-1.349740	-0.108275	-0.001207
O6	O	-1.175673	-0.108268	0.135269
O7	O	-1.506094	-0.108263	0.122646
Cu8	Cu	-1.340882	-0.128043	0.128957
Cu9	Cu	-1.340900	0.128112	0.128964
O10	O	-1.332027	-0.108257	0.259122
C11	C	-1.133395	0.000031	0.134477
C12	C	-1.007398	0.000029	0.132097
N13	N	-1.340878	-0.308209	0.128952
C14	C	-0.905073	0.000032	0.130163
C15	C	-0.776702	0.000029	0.127745
C16	C	-1.340894	-0.573879	0.128962
C17	C	-1.340881	-0.426042	0.128959
C18	C	-0.548387	0.000035	0.123444
C19	C	-0.674385	0.000027	0.125824
C20	C	-1.348955	0.000026	-0.034532
C21	C	-1.346581	0.000027	-0.133838
N22	N	-1.340913	0.308278	0.128962
C23	C	-1.448841	0.000028	-0.190650
C24	C	-1.446603	0.000041	-0.283959
C25	C	-1.342106	0.000044	-0.320454
C26	C	-1.239839	0.000047	-0.263634
C27	C	-1.242077	0.000043	-0.170328
C28	C	-1.235180	0.000052	-0.458116
C29	C	-1.232942	0.000053	-0.551429
C30	C	-1.439707	0.000049	-0.571747
C31	C	-1.441945	0.000045	-0.478440
C32	C	-1.339678	0.000046	-0.421627
C33	C	-1.332827	0.000046	0.292453
C34	C	-1.335201	0.000054	0.391759
H35	H	-1.529874	0.000039	-0.330212
C36	C	-1.556889	0.000045	-0.438297
H37	H	-1.617476	0.000058	-0.485494
H38	H	-1.562054	-0.075487	-0.402324
H39	H	-1.562058	0.075589	-0.402317
C40	C	-1.124891	0.000060	-0.303772
H41	H	-1.064309	0.000074	-0.256570
H42	H	-1.119707	-0.075469	-0.339755
H43	H	-1.119732	0.075607	-0.339740
H44	H	-1.522977	0.000053	-0.618009
C45	C	-1.117997	0.000086	-0.591572
H46	H	-1.057411	0.000111	-0.544375
H47	H	-1.112805	-0.075440	-0.627558
H48	H	-1.112857	0.075637	-0.627540
H49	H	-1.151903	0.000056	-0.411860
H50	H	-1.158807	0.000043	-0.124072
C51	C	-1.563790	0.000025	-0.150514
H52	H	-1.624370	0.000039	-0.197717
H53	H	-1.568959	-0.075509	-0.114543
H54	H	-1.568965	0.075567	-0.114534
