data_functionalizedCrystal
_audit_creation_method	'MofGen! by Chris Wilmer'
_symmetry_space_group_name_H-M	'P1'
_symmetry_Int_Tables_number	1
_symmetry_cell_setting	triclinic
loop_
_symmetry_equiv_pos_as_xyz
  x,y,z
_cell_length_a	16.120530
_cell_length_b	12.594516
_cell_length_c	16.120297
_cell_angle_alpha	92.877768
_cell_angle_beta	90.128140
_cell_angle_gamma	87.111852
loop_
_atom_site_label
_atom_site_type_symbol
_atom_site_fract_x
_atom_site_fract_y
_atom_site_fract_z
Zn1	Zn	1.247493	-0.539249	-0.534603
Zn2	Zn	1.747493	-0.039249	-0.034603
Zn3	Zn	1.254461	-0.708692	-0.395557
Zn4	Zn	1.754461	-0.208692	0.104443
Zn5	Zn	1.115482	-0.521263	-0.388519
Zn6	Zn	1.615482	-0.021263	0.111481
Zn7	Zn	1.108417	-0.707712	-0.527526
Zn8	Zn	1.608417	-0.207712	-0.027526
O9	O	1.181463	-0.619229	-0.461551
O10	O	1.681463	-0.119229	0.038449
O11	O	1.364785	-0.569664	-0.522065
O12	O	1.864785	-0.069664	-0.022065
O13	O	1.241897	-0.676712	-0.278258
O14	O	1.741897	-0.176712	0.221742
O15	O	1.133034	-0.374707	-0.407914
O16	O	1.633034	0.125293	0.092086
O17	O	1.369904	-0.694153	-0.419909
O18	O	1.869904	-0.194153	0.080091
O19	O	1.230022	-0.387921	-0.515241
O20	O	1.730022	0.112079	-0.015241
O21	O	1.139790	-0.539009	-0.273087
O22	O	1.639790	-0.039009	0.226913
O23	O	0.998178	-0.538058	-0.401052
O24	O	1.498178	-0.038058	0.098948
O25	O	1.120993	-0.692482	-0.644831
O26	O	1.620993	-0.192482	-0.144831
O27	O	0.992987	-0.675042	-0.503180
O28	O	1.492987	-0.175042	-0.003180
O29	O	1.223172	-0.568713	-0.650030
O30	O	1.723172	-0.068713	-0.150030
O31	O	1.235047	-0.857504	-0.413047
O32	O	1.735047	-0.357504	0.086953
O33	O	1.127749	-0.856784	-0.510004
O34	O	1.627749	-0.356784	-0.010004
C35	C	0.965410	-0.604493	-0.450585
C36	C	1.465410	-0.104493	0.049415
C37	C	0.872980	-0.598215	-0.445913
C38	C	1.372980	-0.098215	0.054087
C39	C	0.703749	-0.586730	-0.437391
C40	C	1.203749	-0.086730	0.062609
C41	C	0.660015	-0.651810	-0.485772
C42	C	1.160015	-0.151810	0.014228
C43	C	0.565849	-0.645420	-0.481031
C44	C	1.065849	-0.145420	0.018969
C45	C	0.797924	-0.593119	-0.442132
C46	C	1.297924	-0.093119	0.057868
C47	C	1.181409	-0.895766	-0.461540
C48	C	1.681409	-0.395766	0.038460
C49	C	1.181461	-1.014076	-0.461567
C50	C	1.681461	-0.514076	0.038433
C51	C	1.123098	-1.082974	-0.514263
C52	C	1.623098	-0.582974	-0.014263
C53	C	1.106686	-1.147787	-0.437359
C54	C	1.606686	-0.647787	0.062641
C55	C	1.197948	-1.160068	-0.538488
C56	C	1.697948	-0.660068	-0.038488
C57	C	1.165010	-1.077326	-0.384621
C58	C	1.665010	-0.577326	0.115379
C59	C	1.256305	-1.089606	-0.485803
C60	C	1.756305	-0.589606	0.014197
C61	C	1.239924	-1.154387	-0.408848
C62	C	1.739924	-0.654387	0.091152
C63	C	1.398360	-0.634024	-0.472561
C64	C	1.898360	-0.134024	0.027439
C65	C	1.490789	-0.640328	-0.477253
C66	C	1.990789	-0.140328	0.022747
C67	C	1.170517	-0.632495	-0.678446
C68	C	1.670517	-0.132495	-0.178446
C69	C	1.165853	-0.638148	-0.770874
C70	C	1.665853	-0.138148	-0.270874
C71	C	1.181539	-0.341615	-0.461582
C72	C	1.681539	0.158385	0.038418
C73	C	1.181572	-0.223313	-0.461595
C74	C	1.681572	0.276687	0.038405
C75	C	1.157306	-0.648443	-0.940100
C76	C	1.657306	-0.148443	-0.440100
C77	C	1.205784	-0.589708	-0.983863
C78	C	1.705784	-0.089708	-0.483863
C79	C	1.201029	-0.595436	-1.078026
C80	C	1.701029	-0.095436	-0.578026
C81	C	1.162061	-0.642716	-0.845928
C82	C	1.662061	-0.142716	-0.345928
C83	C	1.192414	-0.605942	-0.245502
C84	C	1.692414	-0.105942	0.254498
C85	C	1.197240	-0.600000	-0.153083
C86	C	1.697240	-0.100000	0.346917
H87	H	0.693293	-0.712326	-0.530755
H88	H	1.193293	-0.212326	-0.030755
H89	H	0.670473	-0.526218	-0.392412
H90	H	1.170473	-0.026218	0.107588
Br91	Br	1.280932	-0.498750	-0.928448
Br92	Br	1.780932	0.001250	-0.428448
H93	H	1.319532	-1.063819	-0.506317
H94	H	1.819532	-0.563819	-0.006317
Br95	Br	1.221115	-1.220318	-0.646890
Br96	Br	1.721115	-0.720318	-0.146890
H97	H	1.073662	-1.051620	-0.558754
H98	H	1.573662	-0.551620	-0.058754
H99	H	1.043442	-1.173578	-0.416881
H100	H	1.543442	-0.673578	0.083119
Br101	Br	1.141723	-1.017297	-0.276179
Br102	Br	1.641723	-0.517297	0.223821
H103	H	1.289330	-1.185534	-0.364243
H104	H	1.789330	-0.685534	0.135757
Br105	Br	1.082185	-0.739423	-0.995518
Br106	Br	1.582185	-0.239423	-0.495518
