data_functionalizedCrystal
_audit_creation_method	'MofGen! by Chris Wilmer'
_symmetry_space_group_name_H-M	'P1'
_symmetry_Int_Tables_number	1
_symmetry_cell_setting	triclinic
loop_
_symmetry_equiv_pos_as_xyz
  x,y,z
_cell_length_a	16.974885
_cell_length_b	13.596369
_cell_length_c	14.519731
_cell_angle_alpha	90.000990
_cell_angle_beta	96.459364
_cell_angle_gamma	93.645761
loop_
_atom_site_label
_atom_site_type_symbol
_atom_site_fract_x
_atom_site_fract_y
_atom_site_fract_z
O1	O	1.049308	0.001652	-0.117506
O2	O	1.549308	0.501652	0.382494
O3	O	0.819127	-0.016655	-0.132484
O4	O	1.319127	0.483345	0.367516
O5	O	0.940312	-0.007008	0.009262
O6	O	1.440312	0.492992	0.509262
O7	O	0.928124	-0.007995	-0.259252
O8	O	1.428124	0.492005	0.240748
O9	O	0.940296	0.156574	0.009253
O10	O	1.440296	0.656574	0.509253
O11	O	0.819111	0.146927	-0.132493
O12	O	1.319111	0.646927	0.367507
O13	O	1.049292	0.165234	-0.117515
O14	O	1.549292	0.665234	0.382485
Zn15	Zn	0.934199	0.182052	-0.125005
Zn16	Zn	1.434199	0.682052	0.374995
Zn17	Zn	0.934220	-0.033473	-0.124994
Zn18	Zn	1.434220	0.466527	0.375006
O19	O	0.928108	0.155587	-0.259261
O20	O	1.428108	0.655587	0.240739
C21	C	0.789661	0.062793	-0.131919
C22	C	1.289661	0.562793	0.368081
C23	C	0.701883	0.055812	-0.130214
C24	C	1.201883	0.555812	0.369786
C25	C	0.207791	0.006877	-0.120582
C26	C	0.707791	0.506877	0.379418
C27	C	0.290267	0.013449	-0.122184
C28	C	0.790267	0.513449	0.377816
C29	C	0.331488	0.105905	-0.122997
C30	C	0.831488	0.605905	0.377003
C31	C	0.290229	0.191793	-0.122198
C32	C	0.790229	0.691793	0.377802
C33	C	0.207755	0.185220	-0.120589
C34	C	0.707755	0.685220	0.379411
C35	C	0.578149	0.135127	-0.127805
C36	C	1.078149	0.635127	0.372195
C37	C	0.660629	0.141694	-0.129418
C38	C	1.160629	0.641694	0.370582
C39	C	0.660662	-0.036651	-0.129402
C40	C	1.160662	0.463349	0.370598
C41	C	0.578185	-0.043217	-0.127798
C42	C	1.078185	0.456783	0.372202
C43	C	0.536934	0.042672	-0.126994
C44	C	1.036934	0.542672	0.373006
N45	N	0.415792	0.112625	-0.124639
N46	N	0.915792	0.612625	0.375361
N47	N	0.452632	0.035950	-0.125346
N48	N	0.952632	0.535950	0.374654
N49	N	0.934191	0.329144	-0.125013
N50	N	1.434191	0.829144	0.374987
C51	C	0.934194	0.418142	-0.125016
C52	C	1.434194	0.918142	0.374984
C53	C	0.934202	0.529794	-0.125010
C54	C	1.434202	1.029794	0.374990
C55	C	0.934211	0.618785	-0.125000
C56	C	1.434211	1.118785	0.375000
C57	C	0.934220	0.730444	-0.124996
C58	C	1.434220	1.230444	0.375004
C59	C	1.078759	0.085784	-0.118080
C60	C	1.578759	0.585784	0.381920
C61	C	1.166537	0.092759	-0.119785
C62	C	1.666537	0.592759	0.380215
C63	C	0.939733	0.074738	0.043615
C64	C	1.439733	0.574738	0.543615
C65	C	0.938022	0.074602	0.145990
C66	C	1.438022	0.574602	0.645990
N67	N	0.934229	0.819435	-0.124986
N68	N	1.434229	1.319435	0.375014
C69	C	0.928687	0.073839	-0.293614
C70	C	1.428687	0.573839	0.206386
C71	C	0.930398	0.073968	-0.395989
C72	C	1.430398	0.573968	0.104011
C73	C	0.936631	0.074490	0.229129
C74	C	1.436631	0.574490	0.729129
C75	C	0.934893	0.074344	0.333432
C76	C	1.434893	0.574344	0.833432
C77	C	0.933514	0.074228	0.416567
C78	C	1.433514	0.574228	0.916567
C79	C	0.931777	0.074084	0.520877
C80	C	1.431777	0.574084	1.020877
H81	H	0.323799	0.267073	-0.122854
H82	H	0.823799	0.767073	0.377146
H83	H	0.694188	0.216986	-0.130086
H84	H	1.194188	0.716986	0.369914
H85	H	0.694257	-0.106576	-0.130055
H86	H	1.194257	0.393424	0.369945
H87	H	0.174234	-0.068411	-0.119926
H88	H	0.674234	0.431589	0.380074
N89	N	0.536032	0.222866	-0.126982
N90	N	1.036032	0.722866	0.373018
N91	N	0.572848	0.305407	-0.127709
N92	N	1.072848	0.805407	0.372291
H93	H	0.543101	0.367379	-0.127128
H94	H	1.043101	0.867379	0.372872
N95	N	0.165626	0.272956	-0.119769
N96	N	0.665626	0.772956	0.380231
N97	N	0.202437	0.355501	-0.120493
N98	N	0.702437	0.855501	0.379507
H99	H	0.172685	0.417468	-0.119909
H100	H	0.672685	0.917468	0.380091
H101	H	0.323853	-0.056485	-0.122827
H102	H	0.823853	0.443515	0.377173
H103	H	0.544629	-0.118504	-0.127135
H104	H	1.044629	0.381496	0.372865
