data_functionalizedCrystal
_audit_creation_method	'MofGen! by Chris Wilmer'
_symmetry_space_group_name_H-M	'P1'
_symmetry_Int_Tables_number	1
_symmetry_cell_setting	triclinic
loop_
_symmetry_equiv_pos_as_xyz
  x,y,z
_cell_length_a	17.699083
_cell_length_b	12.503572
_cell_length_c	17.699083
_cell_angle_alpha	93.515225
_cell_angle_beta	96.716985
_cell_angle_gamma	93.505083
loop_
_atom_site_label
_atom_site_type_symbol
_atom_site_fract_x
_atom_site_fract_y
_atom_site_fract_z
O1	O	1.008441	0.089171	-0.091332
O2	O	1.258441	0.339171	0.158668
O3	O	1.508441	0.589171	0.408668
O4	O	1.758441	0.839171	0.658668
O5	O	0.788064	0.089207	-0.103783
O6	O	1.038064	0.339207	0.146217
O7	O	1.288064	0.589207	0.396217
O8	O	1.538064	0.839207	0.646217
O9	O	0.904478	0.089179	0.012631
O10	O	1.154478	0.339179	0.262631
O11	O	1.404478	0.589179	0.512631
O12	O	1.654478	0.839179	0.762631
O13	O	0.892027	0.089200	-0.207746
O14	O	1.142027	0.339200	0.042254
O15	O	1.392027	0.589200	0.292254
O16	O	1.642027	0.839200	0.542254
O17	O	0.895723	-0.089461	0.003862
O18	O	1.145723	0.160539	0.253862
O19	O	1.395723	0.410539	0.503862
O20	O	1.645723	0.660539	0.753862
O21	O	0.779309	-0.089433	-0.112552
O22	O	1.029309	0.160567	0.137448
O23	O	1.279309	0.410567	0.387448
O24	O	1.529309	0.660567	0.637448
O25	O	0.999686	-0.089468	-0.100101
O26	O	1.249686	0.160532	0.149899
O27	O	1.499686	0.410532	0.399899
O28	O	1.749686	0.660532	0.649899
Cu29	Cu	0.888698	-0.105762	-0.107128
Cu30	Cu	1.138698	0.144238	0.142872
Cu31	Cu	1.388698	0.394238	0.392872
Cu32	Cu	1.638698	0.644238	0.642872
Cu33	Cu	0.899052	0.105500	-0.096757
Cu34	Cu	1.149052	0.355500	0.153243
Cu35	Cu	1.399052	0.605500	0.403243
Cu36	Cu	1.649052	0.855500	0.653243
O37	O	0.883272	-0.089440	-0.216516
O38	O	1.133272	0.160560	0.033484
O39	O	1.383272	0.410560	0.283484
O40	O	1.633272	0.660560	0.533484
C41	C	0.755490	-0.000109	-0.107721
C42	C	1.005490	0.249891	0.142279
C43	C	1.255490	0.499891	0.392279
C44	C	1.505490	0.749891	0.642279
C45	C	0.671473	-0.000095	-0.106382
C46	C	0.921473	0.249905	0.143618
C47	C	1.171473	0.499905	0.393618
C48	C	1.421473	0.749905	0.643618
N49	N	0.881421	-0.254352	-0.114421
N50	N	1.131421	-0.004352	0.135579
N51	N	1.381421	0.245648	0.385579
N52	N	1.631421	0.495648	0.635579
C53	C	0.622852	-0.000089	-0.174715
C54	C	0.872852	0.249911	0.075285
C55	C	1.122852	0.499911	0.325285
C56	C	1.372852	0.749911	0.575285
C57	C	0.543908	-0.000103	-0.173453
C58	C	0.793908	0.249897	0.076547
C59	C	1.043908	0.499897	0.326547
C60	C	1.293908	0.749897	0.576547
C61	C	0.513587	-0.000116	-0.103857
C62	C	0.763587	0.249884	0.146143
C63	C	1.013587	0.499884	0.396143
C64	C	1.263587	0.749884	0.646143
C65	C	0.562213	-0.000125	-0.035519
C66	C	0.812213	0.249875	0.214481
C67	C	1.062213	0.499875	0.464481
C68	C	1.312213	0.749875	0.714481
C69	C	0.641155	-0.000119	-0.036782
C70	C	0.891155	0.249881	0.213218
C71	C	1.141155	0.499881	0.463218
C72	C	1.391155	0.749881	0.713218
C73	C	0.243849	-0.000152	-0.030425
C74	C	0.493849	0.249848	0.219575
C75	C	0.743849	0.499848	0.469575
C76	C	0.993849	0.749848	0.719575
C77	C	0.164901	-0.000155	-0.029168
C78	C	0.414901	0.249845	0.220832
C79	C	0.664901	0.499845	0.470832
C80	C	0.914901	0.749845	0.720832
C81	C	0.146602	-0.000137	-0.167097
C82	C	0.396602	0.249863	0.082903
C83	C	0.646602	0.499863	0.332903
C84	C	0.896602	0.749863	0.582903
C85	C	0.225544	-0.000130	-0.168359
C86	C	0.475544	0.249870	0.081641
C87	C	0.725544	0.499870	0.331641
C88	C	0.975544	0.749870	0.581641
C89	C	0.274163	-0.000145	-0.100022
C90	C	0.524163	0.249855	0.149978
C91	C	0.774163	0.499855	0.399978
C92	C	1.024163	0.749855	0.649978
C93	C	0.359763	-0.000132	-0.101391
C94	C	0.609763	0.249868	0.148609
C95	C	0.859763	0.499868	0.398609
C96	C	1.109763	0.749868	0.648609
C97	C	0.427989	-0.000121	-0.102487
C98	C	0.677989	0.249879	0.147513
C99	C	0.927989	0.499879	0.397513
C100	C	1.177989	0.749879	0.647513
C101	C	0.870717	-0.473465	-0.125157
C102	C	1.120717	-0.223465	0.124843
C103	C	1.370717	0.026535	0.374843
C104	C	1.620717	0.276535	0.624843
C105	C	0.917037	-0.526803	-0.078723
C106	C	1.167037	-0.276803	0.171277
C107	C	1.417037	-0.026803	0.421277
C108	C	1.667037	0.223197	0.671277
C109	C	0.911081	-0.648725	-0.084697
C110	C	1.161081	-0.398725	0.165303
C111	C	1.411081	-0.148725	0.415303
C112	C	1.661081	0.101275	0.665303
C113	C	0.876672	-0.351532	-0.119185
C114	C	1.126672	-0.101532	0.130815
C115	C	1.376672	0.148468	0.380815
C116	C	1.626672	0.398468	0.630815
C117	C	1.032260	-0.000151	-0.096163
C118	C	1.282260	0.249849	0.153837
C119	C	1.532260	0.499849	0.403837
C120	C	1.782260	0.749849	0.653837
C121	C	1.116278	-0.000157	-0.097502
C122	C	1.366278	0.249843	0.152498
C123	C	1.616278	0.499843	0.402498
C124	C	1.866278	0.749843	0.652498
C125	C	0.899655	-0.000141	0.036444
C126	C	1.149655	0.249859	0.286444
C127	C	1.399655	0.499859	0.536444
C128	C	1.649655	0.749859	0.786444
C129	C	0.898316	-0.000142	0.120462
C130	C	1.148316	0.249858	0.370462
C131	C	1.398316	0.499858	0.620462
C132	C	1.648316	0.749858	0.870462
N133	N	0.906335	0.254091	-0.089457
N134	N	1.156335	0.504091	0.160543
N135	N	1.406335	0.754091	0.410543
N136	N	1.656335	1.004091	0.660543
C137	C	0.888096	-0.000118	-0.240328
C138	C	1.138096	0.249882	0.009672
C139	C	1.388096	0.499882	0.259672
C140	C	1.638096	0.749882	0.509672
C141	C	0.889435	-0.000111	-0.324345
C142	C	1.139435	0.249889	-0.074345
C143	C	1.389435	0.499889	0.175655
C144	C	1.639435	0.749889	0.425655
C145	C	0.966649	-0.000154	0.169082
C146	C	1.216649	0.249846	0.419082
C147	C	1.466649	0.499846	0.669082
C148	C	1.716649	0.749846	0.919082
C149	C	0.965387	-0.000144	0.248026
C150	C	1.215387	0.249856	0.498026
C151	C	1.465387	0.499856	0.748026
C152	C	1.715387	0.749856	0.998026
C153	C	0.895791	-0.000130	0.278347
C154	C	1.145791	0.249870	0.528347
C155	C	1.395791	0.499870	0.778347
C156	C	1.645791	0.749870	1.028347
C157	C	0.827453	-0.000114	0.229721
C158	C	1.077453	0.249886	0.479721
C159	C	1.327453	0.499886	0.729721
C160	C	1.577453	0.749886	0.979721
C161	C	0.828716	-0.000116	0.150779
C162	C	1.078716	0.249884	0.400779
C163	C	1.328716	0.499884	0.650779
C164	C	1.578716	0.749884	0.900779
C165	C	0.822359	-0.000105	0.548084
C166	C	1.072359	0.249895	0.798084
C167	C	1.322359	0.499895	1.048084
C168	C	1.572359	0.749895	1.298084
C169	C	0.821101	-0.000106	0.627032
C170	C	1.071101	0.249894	0.877032
C171	C	1.321101	0.499894	1.127032
C172	C	1.571101	0.749894	1.377032
C173	C	0.959029	-0.000133	0.645331
C174	C	1.209029	0.249867	0.895331
C175	C	1.459029	0.499867	1.145331
C176	C	1.709029	0.749867	1.395331
C177	C	0.960292	-0.000135	0.566389
C178	C	1.210292	0.249865	0.816389
C179	C	1.460292	0.499865	1.066389
C180	C	1.710292	0.749865	1.316389
C181	C	0.891955	-0.000113	0.517770
C182	C	1.141955	0.249887	0.767770
C183	C	1.391955	0.499887	1.017770
C184	C	1.641955	0.749887	1.267770
C185	C	0.893324	-0.000122	0.432171
C186	C	1.143324	0.249878	0.682171
C187	C	1.393324	0.499878	0.932171
C188	C	1.643324	0.749878	1.182171
C189	C	0.894421	-0.000129	0.363945
C190	C	1.144421	0.249871	0.613945
C191	C	1.394421	0.499871	0.863945
C192	C	1.644421	0.749871	1.113945
H193	H	0.647533	-0.000078	-0.231388
H194	H	0.897533	0.249922	0.018612
H195	H	1.147533	0.499922	0.268612
H196	H	1.397533	0.749922	0.518612
H197	H	0.283426	-0.000165	0.025219
H198	H	0.533426	0.249835	0.275219
H199	H	0.783426	0.499835	0.525219
H200	H	1.033426	0.749835	0.775219
H201	H	0.250227	-0.000115	-0.225031
H202	H	0.500227	0.249885	0.024969
H203	H	0.750227	0.499885	0.274969
H204	H	1.000227	0.749885	0.524969
H205	H	0.537519	-0.000151	0.021146
H206	H	0.787519	0.249849	0.271146
H207	H	1.037519	0.499849	0.521146
H208	H	1.287519	0.749849	0.771146
H209	H	0.504324	-0.000097	-0.229097
H210	H	0.754324	0.249903	0.020903
H211	H	1.004324	0.499903	0.270903
H212	H	1.254324	0.749903	0.520903
H213	H	0.961167	-0.480901	-0.034484
H214	H	1.211167	-0.230901	0.215516
H215	H	1.461167	0.019099	0.465516
H216	H	1.711167	0.269099	0.715516
H217	H	0.773073	-0.000106	0.111192
H218	H	1.023073	0.249894	0.361192
H219	H	1.273073	0.499894	0.611192
H220	H	1.523073	0.749894	0.861192
H221	H	0.107005	-0.000130	-0.222741
H222	H	0.357005	0.249870	0.027259
H223	H	0.607005	0.499870	0.277259
H224	H	0.857005	0.749870	0.527259
H225	H	1.023322	-0.000172	0.144401
H226	H	1.273322	0.249828	0.394401
H227	H	1.523322	0.499828	0.644401
H228	H	1.773322	0.749828	0.894401
H229	H	0.680742	-0.000123	0.018862
H230	H	0.930742	0.249877	0.268862
H231	H	1.180742	0.499877	0.518862
H232	H	1.430742	0.749877	0.768862
H233	H	0.140217	-0.000167	0.027509
H234	H	0.390217	0.249833	0.277509
H235	H	0.640217	0.499833	0.527509
H236	H	0.890217	0.749833	0.777509
H237	H	0.826591	-0.519362	-0.169395
H238	H	1.076591	-0.269362	0.080605
H239	H	1.326591	-0.019362	0.330605
H240	H	1.576591	0.230638	0.580605
H241	H	1.021031	-0.000157	0.287610
H242	H	1.271031	0.249843	0.537610
H243	H	1.521031	0.499843	0.787610
H244	H	1.771031	0.749843	1.037610
H245	H	1.016964	-0.000152	0.541706
H246	H	1.266964	0.249848	0.791706
H247	H	1.516964	0.499848	1.041706
H248	H	1.766964	0.749848	1.291706
H249	H	1.014673	-0.000145	0.684927
H250	H	1.264673	0.249855	0.934927
H251	H	1.514673	0.499855	1.184927
H252	H	1.764673	0.749855	1.434927
H253	H	0.764424	-0.000096	0.651716
H254	H	1.014424	0.249904	0.901716
H255	H	1.264424	0.499904	1.151716
H256	H	1.514424	0.749904	1.401716
H257	H	0.766714	-0.000087	0.508508
H258	H	1.016714	0.249913	0.758508
H259	H	1.266714	0.499913	1.008508
H260	H	1.516714	0.749913	1.258508
H261	H	0.770788	-0.000095	0.254415
H262	H	1.020788	0.249905	0.504415
H263	H	1.270788	0.499905	0.754415
H264	H	1.520788	0.749905	1.004415
