data_functionalizedCrystal
_audit_creation_method	'MofGen! by Chris Wilmer'
_symmetry_space_group_name_H-M	'P1'
_symmetry_Int_Tables_number	1
_symmetry_cell_setting	triclinic
loop_
_symmetry_equiv_pos_as_xyz
  x,y,z
_cell_length_a	12.759401
_cell_length_b	19.805405
_cell_length_c	12.759393
_cell_angle_alpha	90.037109
_cell_angle_beta	90.019337
_cell_angle_gamma	90.025496
loop_
_atom_site_label
_atom_site_type_symbol
_atom_site_fract_x
_atom_site_fract_y
_atom_site_fract_z
Zn1	Zn	1.606176	-0.269443	0.593944
Zn2	Zn	1.606033	-0.382647	0.418246
Zn3	Zn	1.430476	-0.269476	0.418283
Zn4	Zn	1.430431	-0.382594	0.593886
O5	O	1.518279	-0.326040	0.506090
O6	O	1.753178	-0.284469	0.570646
O7	O	1.582704	-0.367670	0.271229
O8	O	1.453862	-0.174755	0.441624
O9	O	1.753073	-0.367639	0.441561
O10	O	1.582948	-0.174731	0.570682
O11	O	1.453723	-0.284524	0.271257
O12	O	1.283449	-0.284472	0.441568
O13	O	1.453785	-0.367548	0.740915
O14	O	1.283416	-0.367580	0.570583
O15	O	1.582904	-0.284417	0.740957
O16	O	1.582660	-0.477357	0.441505
O17	O	1.453646	-0.477318	0.570547
C18	C	1.245312	-0.326024	0.506074
C19	C	1.128535	-0.326034	0.506092
C20	C	1.518161	-0.501896	0.506039
C21	C	1.518206	-0.577128	0.506052
C22	C	0.963991	-0.282821	0.573418
C23	C	1.073715	-0.282808	0.573411
C24	C	1.073625	-0.369281	0.438784
C25	C	0.963903	-0.369297	0.438797
C26	C	1.585449	-0.612470	0.438930
C27	C	1.585494	-0.683158	0.438953
C28	C	1.518289	-0.718504	0.506094
C29	C	1.451044	-0.683157	0.573224
C30	C	1.451005	-0.612469	0.573205
C31	C	1.451199	-0.968230	0.573301
C32	C	1.451240	-1.038922	0.573313
C33	C	1.585687	-1.038919	0.439050
C34	C	1.585649	-0.968232	0.439031
C35	C	1.518407	-0.932891	0.506164
C36	C	1.518361	-0.856242	0.506139
C37	C	1.518329	-0.795151	0.506114
C38	C	1.792312	-0.326056	0.506106
C39	C	1.909089	-0.326063	0.506113
C40	C	1.518355	-0.325973	0.780123
C41	C	1.518388	-0.325945	0.896900
C42	C	1.518426	-0.149497	0.506164
C43	C	1.518489	-0.074265	0.506195
C44	C	1.518263	-0.326058	0.233122
C45	C	1.518434	-0.325895	0.116346
C46	C	1.585647	-0.282626	1.061517
C47	C	1.585627	-0.282652	0.951793
C48	C	1.451172	-0.369219	0.951737
C49	C	1.451198	-0.369196	1.061459
H50	H	1.118412	-0.247596	0.628219
O51	O	1.385919	-0.933983	0.638646
C52	C	1.408839	-0.951180	0.743385
H53	H	1.449266	-1.002478	0.745611
H54	H	1.332985	-0.953623	0.790418
H55	H	1.462799	-0.911347	0.778822
H56	H	1.396251	-0.583695	0.627864
O57	O	1.126755	-0.411240	0.373246
C58	C	1.099918	-0.396363	0.268579
H59	H	1.020261	-0.370352	0.266486
H60	H	1.096123	-0.445177	0.221333
H61	H	1.161667	-0.361530	0.233280
O62	O	1.385858	-0.411138	1.114846
C63	C	1.318033	-0.372588	1.178315
H64	H	1.355128	-0.321290	1.194773
H65	H	1.303965	-0.400140	1.255460
H66	H	1.240164	-0.365162	1.136035
H67	H	0.919365	-0.247617	0.628230
H68	H	1.640359	-0.247419	0.907155
O69	O	1.650912	-0.240476	1.114719
C70	C	1.627988	-0.173020	1.087956
H71	H	1.587581	-0.171632	1.008288
H72	H	1.703839	-0.142677	1.084221
H73	H	1.574009	-0.150203	1.149715
O74	O	0.910680	-0.411399	0.373463
C75	C	0.937459	-0.478873	0.396248
H76	H	1.017145	-0.480295	0.436618
H77	H	0.941164	-0.509166	0.320338
H78	H	0.875726	-0.501719	0.450209
O79	O	1.650829	-0.578243	0.373672
C80	C	1.710169	-0.624599	0.314416
H81	H	1.713813	-0.674962	0.357468
H82	H	1.792941	-0.604139	0.303272
H83	H	1.671740	-0.632180	0.234593
O84	O	1.385984	-0.411377	0.898455
C85	C	1.408893	-0.478829	0.925255
H86	H	1.492825	-0.482235	0.955439
H87	H	1.399819	-0.512282	0.853077
H88	H	1.352560	-0.496513	0.988919
O89	O	1.651064	-0.717468	0.373977
C90	C	1.718894	-0.758228	0.433984
H91	H	1.725108	-0.736879	0.516747
H92	H	1.799844	-0.758911	0.396212
H93	H	1.686582	-0.811854	0.437516
H94	H	1.640369	-0.939456	0.384355
O95	O	1.650999	-1.073355	0.373959
C96	C	1.636622	-1.143324	0.388360
H97	H	1.602157	-1.152952	0.469405
H98	H	1.715347	-1.170143	0.381335
H99	H	1.580740	-1.163457	0.325987
H100	H	1.396516	-1.067698	0.627995
O101	O	1.385794	-0.717593	0.638346
C102	C	1.400261	-0.787563	0.623987
H103	H	1.434719	-0.797242	0.542940
H104	H	1.321575	-0.814463	0.631050
H105	H	1.456186	-0.807563	0.686359
