data_functionalizedCrystal
_audit_creation_method	'MofGen! by Chris Wilmer'
_symmetry_space_group_name_H-M	'P1'
_symmetry_Int_Tables_number	1
_symmetry_cell_setting	triclinic
loop_
_symmetry_equiv_pos_as_xyz
  x,y,z
_cell_length_a	10.654550
_cell_length_b	14.044220
_cell_length_c	9.730223
_cell_angle_alpha	89.997406
_cell_angle_beta	89.996251
_cell_angle_gamma	88.836890
loop_
_atom_site_label
_atom_site_type_symbol
_atom_site_fract_x
_atom_site_fract_y
_atom_site_fract_z
O1	O	1.681222	0.133227	-0.114408
O2	O	1.317019	0.145921	-0.114387
O3	O	1.493654	0.001554	-0.114384
O4	O	1.504587	0.277595	-0.114411
O5	O	1.493652	0.001557	0.114196
O6	O	1.317017	0.145925	0.114193
O7	O	1.681220	0.133231	0.114172
Zn8	Zn	1.499118	0.139578	0.150474
Zn9	Zn	1.499121	0.139574	-0.150689
O10	O	1.504585	0.277598	0.114169
C11	C	1.270127	0.144991	-0.000094
C12	C	1.130403	0.142202	-0.000085
C13	C	1.059459	0.227203	-0.000114
C14	C	0.928175	0.224578	-0.000137
C15	C	0.938790	0.051942	-0.000109
C16	C	1.070072	0.054569	-0.000076
C17	C	1.119790	0.314837	-0.000123
C18	C	1.048846	0.399845	-0.000153
C19	C	0.917561	0.397219	-0.000177
C20	C	0.857221	0.309585	-0.000170
C21	C	1.488867	-0.033790	-0.000093
C22	C	1.474592	-0.139110	-0.000090
C23	C	1.448493	-0.331943	-0.000108
C24	C	1.549741	-0.388911	-0.000119
C25	C	1.535219	-0.496210	-0.000129
C26	C	1.463013	-0.224634	-0.000098
C27	C	1.728113	0.134161	-0.000124
C28	C	1.867836	0.136950	-0.000142
C29	C	1.509372	0.312942	-0.000125
C30	C	1.523648	0.418262	-0.000137
N31	N	1.499126	0.139581	0.356011
N32	N	1.499123	0.139563	-0.356226
C33	C	1.577364	0.075677	0.427938
C34	C	1.577359	0.075666	0.571821
C35	C	1.420876	0.203470	0.571837
C36	C	1.420875	0.203477	0.427956
C37	C	1.655615	0.011782	0.355993
C38	C	1.733861	-0.052127	0.427920
C39	C	1.733856	-0.052138	0.571803
C40	C	1.655606	0.011759	0.643759
H41	H	1.647328	-0.357098	-0.000217
O42	O	1.810020	-0.114155	0.358155
C43	C	1.936167	-0.097867	0.393247
H44	H	1.940139	-0.061325	0.497725
H45	H	1.990064	-0.168743	0.398126
H46	H	1.980306	-0.050365	0.312270
O47	O	1.247326	0.317266	0.000083
C48	C	1.294074	0.270827	0.118501
H49	H	1.221509	0.218918	0.157973
H50	H	1.384515	0.230145	0.091898
H51	H	1.314001	0.325864	0.201386
O52	O	1.332143	-0.369999	-0.000279
C53	C	1.317712	-0.426603	-0.118680
H54	H	1.414053	-0.450467	-0.158168
H55	H	1.260510	-0.491800	-0.092048
H56	H	1.266906	-0.383315	-0.201565
O57	O	1.107311	0.485026	-0.000339
C58	C	1.072050	0.536880	-0.118753
H59	H	0.978248	0.510426	-0.158234
H60	H	1.062695	0.615755	-0.092140
H61	H	1.146691	0.526391	-0.201635
H62	H	1.797557	-0.104181	0.630365
O63	O	1.655786	0.011644	0.783527
C64	C	1.741588	-0.058485	0.831589
H65	H	1.814609	-0.074495	0.748674
H66	H	1.790358	-0.031452	0.927853
H67	H	1.689182	-0.126213	0.857103
H68	H	1.127836	-0.014647	-0.000056
O69	O	0.880378	-0.033261	-0.000057
C70	C	0.971149	-0.107724	-0.000063
H71	H	1.063163	-0.080551	0.043240
H72	H	0.936906	-0.168853	0.066290
H73	H	0.986776	-0.133984	-0.109719
H74	H	0.859801	0.466437	-0.000187
O75	O	0.729688	0.307081	-0.000433
C76	C	0.682941	0.353569	-0.118812
H77	H	0.758710	0.353561	-0.201540
H78	H	0.597410	0.314620	-0.158565
H79	H	0.654904	0.430116	-0.092059
H80	H	1.655629	0.011787	0.238836
O81	O	1.344994	0.265506	0.641943
C82	C	1.361752	0.251782	0.784359
H83	H	1.457699	0.217028	0.803998
H84	H	1.355814	0.323518	0.839045
H85	H	1.285294	0.203704	0.825197
H86	H	1.357165	0.255512	0.369392
