data_functionalizedCrystal
_audit_creation_method	'MofGen! by Chris Wilmer'
_symmetry_space_group_name_H-M	'P1'
_symmetry_Int_Tables_number	1
_symmetry_cell_setting	triclinic
loop_
_symmetry_equiv_pos_as_xyz
  x,y,z
_cell_length_a	10.654550
_cell_length_b	15.944493
_cell_length_c	9.130313
_cell_angle_alpha	90.001356
_cell_angle_beta	89.999724
_cell_angle_gamma	83.979987
loop_
_atom_site_label
_atom_site_type_symbol
_atom_site_fract_x
_atom_site_fract_y
_atom_site_fract_z
O1	O	1.666276	0.117980	-0.121669
O2	O	2.166276	0.617980	0.378331
O3	O	1.300649	0.129220	-0.121694
O4	O	1.800649	0.629220	0.378306
O5	O	1.493485	0.001380	-0.121693
O6	O	1.993485	0.501380	0.378307
O7	O	1.473440	0.245820	-0.121670
O8	O	1.973440	0.745820	0.378330
O9	O	1.493472	0.001376	0.121906
O10	O	1.993472	0.501376	0.621906
O11	O	1.300636	0.129216	0.121905
O12	O	1.800636	0.629216	0.621905
O13	O	1.666263	0.117976	0.121930
O14	O	2.166263	0.617976	0.621930
Cu15	Cu	1.483448	0.123596	0.144160
Cu16	Cu	1.983448	0.623596	0.644160
Cu17	Cu	1.483464	0.123600	-0.143924
Cu18	Cu	1.983464	0.623600	0.356076
O19	O	1.473427	0.245816	0.121929
O20	O	1.973427	0.745816	0.621929
C21	C	1.253855	0.128393	0.000102
C22	C	1.753855	0.628393	0.500102
C23	C	1.114445	0.125923	0.000091
C24	C	1.614445	0.625923	0.500091
C25	C	1.033962	0.201194	0.000103
C26	C	1.533962	0.701194	0.500103
C27	C	0.902972	0.198869	0.000128
C28	C	1.402972	0.698869	0.500128
C29	C	0.932960	0.045996	0.000125
C30	C	1.432960	0.545996	0.500125
C31	C	1.063948	0.048322	0.000110
C32	C	1.563948	0.548322	0.500110
C33	C	1.492659	-0.029922	0.000100
C34	C	1.992659	0.470078	0.500100
C35	C	1.490203	-0.123185	0.000081
C36	C	1.990203	0.376815	0.500081
C37	C	1.603711	-0.358288	0.000117
C38	C	2.103711	0.141712	0.500117
C39	C	1.542507	-0.409208	-0.119993
C40	C	2.042507	0.090792	0.380007
C41	C	1.485652	-0.293932	0.000099
C42	C	1.985652	0.206068	0.500099
C43	C	1.542466	-0.409188	0.120176
C44	C	2.042466	0.090812	0.620176
C45	C	1.481264	-0.458867	0.000122
C46	C	1.981264	0.041133	0.500122
C47	C	1.424480	-0.343624	-0.120111
C48	C	1.924480	0.156376	0.379889
C49	C	1.424456	-0.343601	0.120167
C50	C	1.924456	0.156399	0.620167
C51	C	1.363166	-0.394489	0.000027
C52	C	1.863166	0.105511	0.500027
C53	C	1.488183	-0.198918	0.000084
C54	C	1.988183	0.301082	0.500084
C55	C	1.478724	-0.553879	0.000127
C56	C	1.978724	-0.053879	0.500127
C57	C	1.713057	0.118803	0.000131
C58	C	2.213057	0.618803	0.500131
C59	C	1.852467	0.121272	0.000132
C60	C	2.352467	0.621272	0.500132
C61	C	1.474253	0.277117	0.000133
C62	C	1.974253	0.777117	0.500133
C63	C	1.476709	0.370380	0.000142
C64	C	1.976709	0.870380	0.500142
N65	N	1.483446	0.123592	0.346783
N66	N	1.983446	0.623592	0.846783
N67	N	1.483475	0.123597	-0.346547
N68	N	1.983475	0.623597	0.153453
C69	C	1.568863	0.067008	0.423435
C70	C	2.068863	0.567008	0.923435
C71	C	1.568875	0.067008	0.576772
C72	C	2.068875	0.567008	1.076772
C73	C	1.398050	0.180183	0.576790
C74	C	1.898050	0.680183	1.076790
C75	C	1.398033	0.180178	0.423456
C76	C	1.898033	0.680178	0.923456
H77	H	1.129481	-0.012976	0.000105
H78	H	1.629481	0.487024	0.500105
H79	H	1.328510	0.226256	0.639234
H80	H	1.828510	0.726256	1.139234
H81	H	1.705403	-0.342071	0.000003
H82	H	2.205403	0.157929	0.500003
N83	N	1.088417	0.284892	0.000100
N84	N	1.588417	0.784892	0.500100
H85	H	1.142103	0.289265	0.090395
H86	H	1.642103	0.789265	0.590395
H87	H	1.142022	0.289219	-0.090269
H88	H	1.642022	0.789219	0.409731
N89	N	0.816164	0.280052	0.000222
N90	N	1.316164	0.780052	0.500222
H91	H	0.868034	0.329562	0.000234
H92	H	1.368034	0.829562	0.500234
H93	H	0.761119	0.282447	-0.090048
H94	H	1.261119	0.782447	0.409952
N95	N	1.608545	-0.447171	-0.254493
N96	N	2.108545	0.052829	0.245507
H97	H	1.699355	-0.434280	-0.254402
H98	H	2.199355	0.065720	0.245598
H99	H	1.605554	-0.510271	-0.253893
H100	H	2.105554	-0.010271	0.246107
H101	H	1.638427	0.020932	0.639178
H102	H	2.138427	0.520932	1.139178
N103	N	0.878495	-0.037699	0.000152
N104	N	1.378495	0.462301	0.500152
H105	H	0.783302	-0.027753	0.000163
H106	H	1.283302	0.472247	0.500163
H107	H	0.907931	-0.070675	-0.090153
H108	H	1.407931	0.429325	0.409847
N109	N	1.358476	-0.305839	-0.254762
N110	N	1.858476	0.194161	0.245238
H111	H	1.360600	-0.242661	-0.253961
H112	H	1.860600	0.257339	0.246039
H113	H	1.402747	-0.330366	-0.345297
H114	H	1.902747	0.169634	0.154703
N115	N	1.228382	-0.415800	-0.000093
N116	N	1.728382	0.084200	0.499907
H117	H	1.183966	-0.391729	-0.090869
H118	H	1.683966	0.108271	0.409131
H119	H	1.227591	-0.479082	0.000813
H120	H	1.727591	0.020918	0.500813
H121	H	1.638410	0.020931	0.361011
H122	H	2.138410	0.520931	0.861011
H123	H	1.374636	-0.314930	0.221709
H124	H	1.874636	0.185070	0.721709
N125	N	1.305891	0.241204	0.340768
N126	N	1.805891	0.741204	0.840768
H127	H	1.251789	0.277055	0.412605
H128	H	1.751789	0.777055	0.912605
H129	H	1.353940	0.278637	0.277131
H130	H	1.853940	0.778637	0.777131
H131	H	1.592343	-0.437832	0.221713
H132	H	2.092343	0.062168	0.721713
