data_functionalizedCrystal
_audit_creation_method	'MofGen! by Chris Wilmer'
_symmetry_space_group_name_H-M	'P1'
_symmetry_Int_Tables_number	1
_symmetry_cell_setting	triclinic
loop_
_symmetry_equiv_pos_as_xyz
  x,y,z
_cell_length_a	19.077105
_cell_length_b	21.295417
_cell_length_c	21.295412
_cell_angle_alpha	90.030668
_cell_angle_beta	92.320544
_cell_angle_gamma	87.726672
loop_
_atom_site_label
_atom_site_type_symbol
_atom_site_fract_x
_atom_site_fract_y
_atom_site_fract_z
Zn1	Zn	1.075981	-0.289351	0.394524
Zn2	Zn	1.409314	0.043982	0.727857
Zn3	Zn	1.742648	0.377315	1.061191
Zn4	Zn	1.075874	-0.394616	0.289246
Zn5	Zn	1.409207	-0.061282	0.622579
Zn6	Zn	1.742541	0.272051	0.955912
Zn7	Zn	0.958275	-0.285132	0.285045
Zn8	Zn	1.291609	0.048202	0.618378
Zn9	Zn	1.624942	0.381535	0.951712
Zn10	Zn	0.958239	-0.390349	0.390256
Zn11	Zn	1.291572	-0.057015	0.723589
Zn12	Zn	1.624906	0.276318	1.056923
O13	O	1.017092	-0.339862	0.339768
O14	O	1.350426	-0.006529	0.673101
O15	O	1.683759	0.326805	1.006434
O16	O	1.174458	-0.306866	0.384103
O17	O	1.507791	0.026467	0.717436
O18	O	1.841124	0.359800	1.050769
O19	O	1.060245	-0.380112	0.200598
O20	O	1.393578	-0.046779	0.533931
O21	O	1.726911	0.286554	0.867265
O22	O	0.973949	-0.197604	0.299596
O23	O	1.307283	0.135729	0.632929
O24	O	1.640616	0.469062	0.966263
O25	O	1.174379	-0.384204	0.306755
O26	O	1.507712	-0.050870	0.640088
O27	O	1.841046	0.282463	0.973422
O28	O	1.060427	-0.200704	0.380030
O29	O	1.393760	0.132629	0.713363
O30	O	1.727094	0.465962	1.046696
O31	O	0.973846	-0.299675	0.197512
O32	O	1.307179	0.033658	0.530845
O33	O	1.640512	0.366992	0.864178
O34	O	0.859780	-0.295537	0.295457
O35	O	1.193113	0.037796	0.628791
O36	O	1.526447	0.371129	0.962124
O37	O	0.973887	-0.376931	0.478913
O38	O	1.307221	-0.043598	0.812246
O39	O	1.640554	0.289735	1.145579
O40	O	0.859753	-0.372840	0.372755
O41	O	1.193086	-0.039507	0.706089
O42	O	1.526420	0.293827	1.039422
O43	O	1.060392	-0.302729	0.482048
O44	O	1.393725	0.030605	0.815382
O45	O	1.727058	0.363938	1.148715
O46	O	1.060209	-0.482137	0.302616
O47	O	1.393543	-0.148804	0.635950
O48	O	1.726876	0.184530	0.969283
O49	O	0.973784	-0.479002	0.376828
O50	O	1.307117	-0.145669	0.710162
O51	O	1.640450	0.187665	1.043495
C52	C	0.834229	-0.333268	0.333188
C53	C	1.167562	0.000065	0.666521
C54	C	1.500896	0.333398	0.999854
C55	C	0.755999	-0.330463	0.330388
C56	C	1.089333	0.002871	0.663721
C57	C	1.422666	0.336204	0.997054
C58	C	1.017000	-0.503410	0.339729
C59	C	1.350333	-0.170077	0.673063
C60	C	1.683667	0.163256	1.006396
C61	C	1.017025	-0.573379	0.339736
C62	C	1.350358	-0.240046	0.673070
C63	C	1.683692	0.093287	1.006403
C64	C	0.719251	-0.369453	0.369254
C65	C	1.052584	-0.036119	0.702587
C66	C	1.385918	0.297214	1.035921
C67	C	0.645746	-0.366808	0.366626
C68	C	0.979079	-0.033475	0.699959
C69	C	1.312413	0.299859	1.033293
C70	C	0.608990	-0.325176	0.325128
C71	C	0.942323	0.008157	0.658462
C72	C	1.275657	0.341490	0.991795
C73	C	0.645743	-0.286182	0.286261
C74	C	0.979077	0.047151	0.619594
C75	C	1.312410	0.380484	0.952927
C76	C	0.719247	-0.288824	0.288892
C77	C	1.052581	0.044509	0.622225
C78	C	1.385914	0.377843	0.955559
C79	C	0.389157	-0.312950	0.312952
C80	C	0.722490	0.020383	0.646286
C81	C	1.055823	0.353716	0.979619
C82	C	0.315648	-0.310313	0.310323
C83	C	0.648981	0.023021	0.643656
C84	C	0.982314	0.356354	0.976989
C85	C	0.315655	-0.390938	0.390689
C86	C	0.648989	-0.057605	0.724022
C87	C	0.982322	0.275729	1.057356
C88	C	0.389161	-0.393579	0.393314
C89	C	0.722494	-0.060245	0.726648
C90	C	1.055827	0.273088	1.059981
C91	C	0.425907	-0.354582	0.354449
C92	C	0.759241	-0.021249	0.687782
C93	C	1.092574	0.312084	1.021116
N94	N	0.533856	-0.322474	0.322440
N95	N	0.867189	0.010860	0.655773
N96	N	1.200523	0.344193	0.989107
N97	N	0.501040	-0.357282	0.357141
N98	N	0.834374	-0.023949	0.690474
N99	N	1.167707	0.309384	1.023808
C100	C	1.062067	-0.607859	0.301137
C101	C	1.395400	-0.274525	0.634470
C102	C	1.728734	0.058808	0.967804
C103	C	1.062100	-0.673602	0.301152
C104	C	1.395433	-0.340269	0.634486
C105	C	1.728767	-0.006936	0.967819
C106	C	1.017078	-0.704864	0.339760
C107	C	1.350412	-0.371530	0.673093
C108	C	1.683745	-0.038197	1.006427
C109	C	0.972033	-0.670376	0.378367
C110	C	1.305367	-0.337043	0.711701
C111	C	1.638700	-0.003709	1.045034
C112	C	0.972007	-0.604634	0.378355
C113	C	1.305340	-0.271300	0.711689
C114	C	1.638673	0.062033	1.045022
N115	N	0.955509	-0.805913	0.342344
N116	N	1.288842	-0.472580	0.675677
N117	N	1.622176	-0.139247	1.009010
N118	N	0.955537	-0.868366	0.342351
N119	N	1.288870	-0.535033	0.675685
N120	N	1.622203	-0.201699	1.009018
C121	C	1.017157	-0.902941	0.339799
C122	C	1.350491	-0.569608	0.673132
C123	C	1.683824	-0.236274	1.006466
N124	N	1.078751	-0.872705	0.337227
N125	N	1.412084	-0.539371	0.670560
N126	N	1.745418	-0.206038	1.003893
N127	N	1.078723	-0.810246	0.337216
N128	N	1.412056	-0.476913	0.670549
N129	N	1.745390	-0.143580	1.003882
C130	C	1.017103	-0.776150	0.339778
C131	C	1.350436	-0.442816	0.673111
C132	C	1.683769	-0.109483	1.006444
C133	C	1.062239	-1.008708	0.301214
C134	C	1.395572	-0.675374	0.634548
C135	C	1.728905	-0.342041	0.967881
C136	C	1.062273	-1.074453	0.301234
C137	C	1.395606	-0.741119	0.634567
C138	C	1.728940	-0.407786	0.967901
C139	C	0.972200	-1.071225	0.378445
C140	C	1.305533	-0.737891	0.711779
C141	C	1.638867	-0.404558	1.045112
C142	C	0.972172	-1.005481	0.378429
C143	C	1.305506	-0.672148	0.711762
C144	C	1.638839	-0.338815	1.045096
C145	C	1.017191	-0.974227	0.339810
C146	C	1.350524	-0.640893	0.673143
C147	C	1.683857	-0.307560	1.006477
C148	C	1.200670	-0.346482	0.346374
C149	C	1.534003	-0.013148	0.679707
C150	C	1.867337	0.320185	1.013040
C151	C	1.278900	-0.349303	0.349189
C152	C	1.612233	-0.015969	0.682522
C153	C	1.945566	0.317364	1.015855
C154	C	1.017147	-0.339825	0.503960
C155	C	1.350481	-0.006491	0.837293
C156	C	1.683814	0.326842	1.170627
C157	C	1.017171	-0.339809	0.573929
C158	C	1.350504	-0.006476	0.907262
C159	C	1.683838	0.326858	1.240596
C160	C	1.017204	-0.175676	0.339820
C161	C	1.350538	0.157658	0.673154
C162	C	1.683871	0.490991	1.006487
C163	C	1.017252	-0.105709	0.339843
C164	C	1.350585	0.227624	0.673176
C165	C	1.683919	0.560957	1.006510
C166	C	1.017078	-0.339855	0.176216
C167	C	1.350411	-0.006522	0.509549
C168	C	1.683745	0.326812	0.842882
C169	C	1.017191	-0.339698	0.106252
C170	C	1.350524	-0.006365	0.439585
C171	C	1.683858	0.326968	0.772919
C172	C	0.972195	-0.297921	0.605179
C173	C	1.305528	0.035412	0.938512
C174	C	1.638862	0.368746	1.271846
C175	C	0.972192	-0.297909	0.670922
C176	C	1.305526	0.035424	1.004255
C177	C	1.638859	0.368757	1.337588
C178	C	1.017178	-0.339779	0.705412
C179	C	1.350512	-0.006446	1.038745
C180	C	1.683845	0.326888	1.372078
C181	C	1.062158	-0.381675	0.674154
C182	C	1.395491	-0.048342	1.007487
C183	C	1.728824	0.284992	1.340820
C184	C	1.062154	-0.381690	0.608412
C185	C	1.395487	-0.048356	0.941746
C186	C	1.728821	0.284977	1.275079
N187	N	1.078790	-0.346804	0.810861
N188	N	1.412123	-0.013471	1.144194
N189	N	1.745456	0.319862	1.477528
N190	N	1.078791	-0.346786	0.873313
N191	N	1.412125	-0.013453	1.206646
N192	N	1.745458	0.319880	1.539979
C193	C	1.017191	-0.339738	0.903487
C194	C	1.350525	-0.006404	1.236820
C195	C	1.683858	0.326929	1.570154
N196	N	0.955589	-0.332695	0.868851
N197	N	1.288922	0.000638	1.202184
N198	N	1.622255	0.333971	1.535517
N199	N	0.955588	-0.332710	0.806394
N200	N	1.288921	0.000623	1.139727
N201	N	1.622255	0.333957	1.473060
C202	C	1.017187	-0.339768	0.776697
C203	C	1.350521	-0.006435	1.110031
C204	C	1.683854	0.326899	1.443364
C205	C	0.972209	-0.297835	1.006023
C206	C	1.305542	0.035499	1.339356
C207	C	1.638876	0.368832	1.672689
C208	C	0.972205	-0.297827	1.071766
C209	C	1.305539	0.035506	1.405100
C210	C	1.638872	0.368839	1.738433
C211	C	1.062177	-0.381590	1.074997
C212	C	1.395510	-0.048257	1.408331
C213	C	1.728843	0.285077	1.741664
C214	C	1.062174	-0.381600	1.009255
C215	C	1.395508	-0.048267	1.342588
C216	C	1.728841	0.285066	1.675921
C217	C	1.017191	-0.339720	0.974771
C218	C	1.350525	-0.006386	1.308105
C219	C	1.683858	0.326947	1.641438
H220	H	0.749172	-0.403356	0.403044
H221	H	1.082506	-0.070022	0.736377
H222	H	1.415839	0.263311	1.069710
Cl223	Cl	1.118908	-1.117799	0.252709
Cl224	Cl	1.452241	-0.784466	0.586042
Cl225	Cl	1.785574	-0.451133	0.919376
Cl226	Cl	0.435343	-0.263924	0.264094
Cl227	Cl	0.768676	0.069409	0.597428
Cl228	Cl	1.102010	0.402743	0.930761
Cl229	Cl	0.599551	-0.415826	0.415489
Cl230	Cl	0.932885	-0.082493	0.748822
Cl231	Cl	1.266218	0.250840	1.082155
H232	H	1.098786	-0.415766	0.702240
H233	H	1.432119	-0.082432	1.035573
H234	H	1.765452	0.250901	1.368906
Cl235	Cl	0.765445	-0.239805	0.240031
Cl236	Cl	1.098778	0.093529	0.573365
Cl237	Cl	1.432112	0.426862	0.906698
Cl238	Cl	1.118701	-0.434352	0.569124
Cl239	Cl	1.452035	-0.101019	0.902458
Cl240	Cl	1.785368	0.232314	1.235791
H241	H	0.419082	-0.427481	0.427105
H242	H	0.752416	-0.094148	0.760438
H243	H	1.085749	0.239186	1.093771
Cl244	Cl	0.599536	-0.233841	0.234096
Cl245	Cl	0.932869	0.099492	0.567429
Cl246	Cl	1.266203	0.432826	0.900763
H247	H	0.935546	-1.096677	0.409883
H248	H	1.268879	-0.763344	0.743217
H249	H	1.602212	-0.430010	1.076550
H250	H	0.935581	-0.263733	0.977945
H251	H	1.268914	0.069600	1.311278
H252	H	1.602247	0.402933	1.644611
Cl253	Cl	1.118672	-0.568571	0.252597
Cl254	Cl	1.452005	-0.235238	0.585931
Cl255	Cl	1.785338	0.098096	0.919264
Cl256	Cl	0.915638	-0.245180	1.111052
Cl257	Cl	1.248972	0.088153	1.444385
Cl258	Cl	1.582305	0.421486	1.777719
H259	H	0.285728	-0.422686	0.422332
H260	H	0.619062	-0.089352	0.755665
H261	H	0.952395	0.243981	1.088999
H262	H	0.935492	-0.977406	0.409858
H263	H	1.268825	-0.644073	0.743191
H264	H	1.602158	-0.310739	1.076524
H265	H	1.098800	-0.415709	0.983811
H266	H	1.432134	-0.082375	1.317144
H267	H	1.765467	0.250958	1.650477
H268	H	1.098807	-0.415680	1.103079
H269	H	1.432140	-0.082347	1.436412
H270	H	1.765474	0.250987	1.769745
H271	H	0.285723	-0.276404	0.276534
H272	H	0.619056	0.056929	0.609867
H273	H	0.952390	0.390263	0.943201
H274	H	1.098781	-0.701681	0.269720
H275	H	1.432114	-0.368348	0.603054
H276	H	1.765448	-0.035015	0.936387
H277	H	0.935378	-0.695833	0.409803
H278	H	1.268711	-0.362500	0.743136
H279	H	1.602044	-0.029166	1.076470
H280	H	0.935327	-0.576560	0.409788
H281	H	1.268661	-0.243226	0.743122
H282	H	1.601994	0.090107	1.076455
Cl283	Cl	0.915641	-0.245274	0.561832
Cl284	Cl	1.248975	0.088060	0.895165
Cl285	Cl	1.582308	0.421393	1.228499
Cl286	Cl	1.118832	-0.969413	0.252666
Cl287	Cl	1.452165	-0.636080	0.585999
Cl288	Cl	1.785498	-0.302746	0.919332
H289	H	0.935569	-0.263796	0.696371
H290	H	1.268902	0.069537	1.029704
H291	H	1.602235	0.402871	1.363037
