data_functionalizedCrystal
_audit_creation_method	'MofGen! by Chris Wilmer'
_symmetry_space_group_name_H-M	'P1'
_symmetry_Int_Tables_number	1
_symmetry_cell_setting	triclinic
loop_
_symmetry_equiv_pos_as_xyz
  x,y,z
_cell_length_a	18.101398
_cell_length_b	18.101396
_cell_length_c	12.759393
_cell_angle_alpha	89.968304
_cell_angle_beta	90.012226
_cell_angle_gamma	89.967420
loop_
_atom_site_label
_atom_site_type_symbol
_atom_site_fract_x
_atom_site_fract_y
_atom_site_fract_z
Zn1	Zn	1.132109	0.294882	0.593802
Zn2	Zn	1.131986	0.418741	0.418118
Zn3	Zn	1.008262	0.294908	0.418160
Zn4	Zn	1.008206	0.418677	0.593778
O5	O	1.070141	0.356802	0.505965
O6	O	1.235725	0.311328	0.570490
O7	O	1.115547	0.402353	0.271103
O8	O	1.024766	0.191272	0.441487
O9	O	1.235635	0.402327	0.441416
O10	O	1.115755	0.191253	0.570530
O11	O	1.024647	0.311373	0.271133
O12	O	0.904622	0.311311	0.441464
O13	O	1.024669	0.402217	0.740803
O14	O	0.904580	0.402243	0.570490
O15	O	1.115700	0.311266	0.740820
O16	O	1.115492	0.522366	0.441393
O17	O	1.024550	0.522318	0.570449
C18	C	0.877730	0.356773	0.505979
C19	C	0.795416	0.356778	0.506011
C20	C	0.496325	0.356822	0.505967
C21	C	0.527649	0.414310	0.586746
C22	C	0.613267	0.414130	0.587078
C23	C	0.644708	0.356801	0.505989
C24	C	0.613662	0.278797	0.536241
C25	C	0.528017	0.279142	0.536816
C26	C	0.527867	0.376650	0.394740
C27	C	0.613517	0.378361	0.395334
C28	C	0.728567	0.356784	0.505999
C29	C	0.412466	0.356833	0.505959
C30	C	1.070022	0.549213	0.505937
C31	C	1.070039	0.631527	0.505960
C32	C	1.070170	0.930618	0.506021
C33	C	1.013088	0.899293	0.587421
C34	C	1.012826	0.813675	0.587165
C35	C	1.070105	0.782235	0.505992
C36	C	1.048969	0.813392	0.395271
C37	C	1.048592	0.899037	0.395759
C38	C	1.148516	0.898966	0.534367
C39	C	1.148064	0.813314	0.536794
C40	C	1.070069	0.698376	0.505968
C41	C	1.070204	1.014477	0.506037
C42	C	1.263303	0.356832	0.505951
C43	C	1.345617	0.356844	0.505945
C44	C	1.070192	0.356731	0.779998
C45	C	1.070214	0.356701	0.896775
C46	C	1.070254	1.163640	0.506020
C47	C	1.070236	1.081326	0.506053
C48	C	1.070132	0.356819	0.232997
C49	C	1.070254	0.356641	0.116221
C50	C	1.117547	0.404056	0.951618
C51	C	1.117570	0.404024	1.061343
C52	C	1.022918	0.309281	1.061370
C53	C	1.022900	0.309309	0.951648
C54	C	1.164861	0.451447	0.896745
C55	C	1.212198	0.498807	0.951589
C56	C	1.212220	0.498775	1.061313
C57	C	1.164906	0.451384	1.116194
H58	H	0.506142	0.401357	0.668681
Br59	Br	0.916041	0.779623	0.555880
H60	H	1.167780	0.920510	0.613729
H61	H	1.089241	0.793028	0.332968
Br62	Br	0.649442	0.250257	0.670293
H63	H	1.250724	0.537386	0.906898
H64	H	0.634919	0.339530	0.331916
Br65	Br	0.958665	0.245036	0.877210
Br66	Br	0.493479	0.205332	0.443032
H67	H	1.164933	0.451357	1.205539
Br68	Br	0.954532	0.777750	0.354522
Br69	Br	0.494750	0.251114	0.672339
H70	H	1.164846	0.451481	0.807402
Br71	Br	1.034898	0.933535	0.724709
Br72	Br	0.647608	0.205464	0.441243
H73	H	1.164002	0.792948	0.618279
H74	H	1.192848	0.791909	0.481826
Br75	Br	1.114873	0.933583	0.291222
Br76	Br	0.491819	0.469826	0.348902
H77	H	0.507611	0.334776	0.334552
H78	H	1.191044	0.919222	0.475080
H79	H	1.026050	0.792607	0.669265
H80	H	0.955370	0.920877	0.568883
Br81	Br	1.276468	0.563040	1.135742
H82	H	0.634256	0.471975	0.568117
Br83	Br	0.493274	0.511040	0.555508
H84	H	0.633773	0.401010	0.669489
Br85	Br	0.647331	0.474039	0.357310
Br86	Br	0.958709	0.244970	1.135850
H87	H	0.991322	0.919077	0.371745
