data_functionalizedCrystal
_audit_creation_method	'MofGen! by Chris Wilmer'
_symmetry_space_group_name_H-M	'P1'
_symmetry_Int_Tables_number	1
_symmetry_cell_setting	triclinic
loop_
_symmetry_equiv_pos_as_xyz
  x,y,z
_cell_length_a	13.339070
_cell_length_b	15.625429
_cell_length_c	11.804365
_cell_angle_alpha	84.259068
_cell_angle_beta	74.875130
_cell_angle_gamma	99.150231
loop_
_atom_site_label
_atom_site_type_symbol
_atom_site_fract_x
_atom_site_fract_y
_atom_site_fract_z
O1	O	1.400314	0.415306	-0.278380
O2	O	1.100705	0.359169	-0.254135
O3	O	1.247492	0.264952	-0.213453
O4	O	1.253527	0.509523	-0.319062
O5	O	1.208846	0.289721	-0.026092
O6	O	1.062059	0.383937	-0.066775
O7	O	1.361668	0.440075	-0.091019
Cu8	Cu	1.208334	0.414268	-0.061789
Cu9	Cu	1.254038	0.384976	-0.283365
O10	O	1.214880	0.534291	-0.131702
C11	C	1.042834	0.362070	-0.156360
C12	C	0.927974	0.333805	-0.144153
C13	C	1.224613	0.245394	-0.105982
C14	C	1.214004	0.150214	-0.064889
C15	C	0.583078	0.553582	-0.239075
C16	C	0.690995	0.580141	-0.250549
C17	C	0.750245	0.518560	-0.223950
C18	C	0.701567	0.430414	-0.185878
C19	C	0.593640	0.403851	-0.174412
C20	C	0.760808	0.368828	-0.159287
C21	C	0.712130	0.280682	-0.121214
C22	C	0.604214	0.254124	-0.109749
C23	C	0.544964	0.315706	-0.136348
C24	C	0.868734	0.395391	-0.170753
C25	C	0.879297	0.245660	-0.106089
C26	C	0.771380	0.219100	-0.094616
C27	C	1.284405	-0.230333	-0.440348
C28	C	1.274424	-0.319765	-0.401699
C29	C	1.232294	-0.292750	-0.197452
C30	C	1.242277	-0.203313	-0.236083
C31	C	1.268331	-0.172112	-0.357532
C32	C	1.226203	-0.145092	-0.153268
C33	C	1.236179	-0.055663	-0.191896
C34	C	1.262229	-0.024456	-0.313340
C35	C	1.278307	-0.082683	-0.396161
C36	C	1.200142	-0.176296	-0.031819
C37	C	1.184068	-0.118075	0.050996
C38	C	1.194051	-0.028643	0.012368
C39	C	1.220101	0.002564	-0.109076
C40	C	1.177973	0.029584	0.095189
C41	C	1.187949	0.119013	0.056560
C42	C	1.230077	0.091993	-0.147704
C43	C	1.419539	0.437173	-0.188797
C44	C	1.534401	0.465437	-0.201011
C45	C	1.237760	0.553849	-0.239175
C46	C	1.248371	0.649028	-0.280275
N47	N	1.176196	0.434871	0.094055
N48	N	1.286184	0.364367	-0.439207
C49	C	1.363359	0.314873	0.519818
C50	C	1.387670	0.299283	0.401888
C51	C	1.334803	0.333178	0.324924
C52	C	1.257622	0.382668	0.365901
C53	C	1.233314	0.398266	0.483840
C54	C	1.204759	0.416571	0.288946
C55	C	1.127577	0.466060	0.329923
C56	C	1.103273	0.481655	0.447851
C57	C	1.156140	0.447759	0.524815
C58	C	1.229066	0.400973	0.171008
C59	C	1.099022	0.484365	0.135030
C60	C	1.074711	0.499956	0.252959
H61	H	0.908356	0.467160	-0.201747
H62	H	1.174839	0.166416	0.123998
H63	H	1.156750	0.004165	0.194073
H64	H	1.192009	-0.249116	-0.000371
H65	H	1.055975	0.511968	0.072364
H66	H	0.838117	0.540189	-0.233297
H67	H	0.457088	0.294086	-0.127007
H68	H	1.040436	0.521960	0.481210
H69	H	0.730623	0.651908	-0.281556
H70	H	0.927539	0.195514	-0.084435
H71	H	1.162850	-0.143492	0.149881
H72	H	1.251302	0.117399	-0.246601
H73	H	1.287506	-0.367169	-0.469146
H74	H	1.354601	0.320482	0.228901
H75	H	1.450511	0.258990	0.368529
H76	H	0.564586	0.182348	-0.078761
H77	H	1.406401	0.287286	0.582486
H78	H	1.136343	0.460450	0.620845
H79	H	1.011868	0.540251	0.286337
H80	H	0.731732	0.147329	-0.063625
H81	H	0.534829	0.603711	-0.260737
H82	H	1.270340	0.048362	-0.344789
H83	H	1.299532	-0.057277	-0.495057
H84	H	1.305630	-0.204927	-0.539244
H85	H	1.211077	-0.318167	-0.098567
H86	H	1.291907	0.360679	0.137655
