data_functionalizedCrystal
_audit_creation_method	'MofGen! by Chris Wilmer'
_symmetry_space_group_name_H-M	'P1'
_symmetry_Int_Tables_number	1
_symmetry_cell_setting	triclinic
loop_
_symmetry_equiv_pos_as_xyz
  x,y,z
_cell_length_a	14.519709
_cell_length_b	9.016244
_cell_length_c	14.519709
_cell_angle_alpha	90.003180
_cell_angle_beta	83.680145
_cell_angle_gamma	90.001728
loop_
_atom_site_label
_atom_site_type_symbol
_atom_site_fract_x
_atom_site_fract_y
_atom_site_fract_z
O1	O	1.223872	0.123150	0.120887
O2	O	0.955395	0.123196	0.135124
O3	O	1.096752	0.123159	-0.006233
O4	O	1.082515	0.123188	0.262244
O5	O	1.096731	-0.123522	-0.006230
O6	O	0.955374	-0.123485	0.135127
O7	O	1.223851	-0.123530	0.120891
Cu8	Cu	1.089611	-0.146031	0.128009
Cu9	Cu	1.089635	0.145697	0.128005
O10	O	1.082494	-0.123493	0.262247
C11	C	0.921025	-0.000139	0.134462
C12	C	0.818643	-0.000122	0.132474
N13	N	1.089600	-0.351218	0.128011
C14	C	0.443748	-0.000190	0.125154
C15	C	0.548056	-0.000170	0.127187
C16	C	0.631192	-0.000154	0.128814
C17	C	0.735507	-0.000138	0.130847
C18	C	1.013755	-0.586230	0.203378
C19	C	1.013920	-0.414339	0.203657
C20	C	1.185864	-0.413570	0.149189
C21	C	1.185449	-0.585515	0.149722
C22	C	1.070141	-0.585768	0.031215
C23	C	1.067924	-0.413813	0.031860
C24	C	1.258221	-0.000192	0.121553
C25	C	1.360602	-0.000200	0.123541
C26	C	1.096078	-0.000182	-0.040591
C27	C	1.094090	-0.000182	-0.142972
N28	N	1.089653	0.350883	0.127996
C29	C	1.086770	-0.000143	-0.517868
C30	C	1.088803	-0.000154	-0.413560
C31	C	1.090430	-0.000164	-0.330423
C32	C	1.092463	-0.000173	-0.226109
C33	C	1.083168	-0.000149	0.296606
C34	C	1.085156	-0.000139	0.398987
H35	H	0.942371	-0.372184	0.191015
Cl36	Cl	1.211955	-0.647409	0.258702
Cl37	Cl	0.902932	-0.650086	0.184164
Cl38	Cl	1.032763	-0.652874	0.313637
Cl39	Cl	1.155589	-0.648554	-0.055397
Cl40	Cl	1.033137	-0.350793	0.314548
H41	H	1.243698	-0.627112	0.096991
H42	H	0.997111	-0.373061	0.015792
Cl43	Cl	1.275150	-0.350449	0.066689
H44	H	1.203434	-0.370488	0.218973
Cl45	Cl	0.964094	-0.652780	-0.000149
Cl46	Cl	1.147711	-0.347507	-0.058824
