data_functionalizedCrystal
_audit_creation_method	'MofGen! by Chris Wilmer'
_symmetry_space_group_name_H-M	'P1'
_symmetry_Int_Tables_number	1
_symmetry_cell_setting	triclinic
loop_
_symmetry_equiv_pos_as_xyz
  x,y,z
_cell_length_a	21.395362
_cell_length_b	16.959454
_cell_length_c	21.395355
_cell_angle_alpha	89.987004
_cell_angle_beta	89.956060
_cell_angle_gamma	90.035955
loop_
_atom_site_label
_atom_site_type_symbol
_atom_site_fract_x
_atom_site_fract_y
_atom_site_fract_z
Zn1	Zn	0.957906	-0.314438	-0.354610
Zn2	Zn	1.457906	0.185562	0.145390
Zn3	Zn	0.957828	-0.446599	-0.249842
Zn4	Zn	1.457828	0.053401	0.250158
Zn5	Zn	0.853121	-0.314475	-0.249811
Zn6	Zn	1.353121	0.185525	0.250189
Zn7	Zn	0.853109	-0.446615	-0.354547
Zn8	Zn	1.353109	0.053385	0.145453
O9	O	0.905491	-0.380532	-0.302202
O10	O	1.405491	0.119468	0.197798
O11	O	1.045573	-0.331947	-0.340751
O12	O	1.545573	0.168053	0.159249
O13	O	0.943910	-0.429081	-0.162160
O14	O	1.443910	0.070919	0.337840
O15	O	0.867058	-0.203859	-0.263726
O16	O	1.367058	0.296141	0.236274
O17	O	1.045516	-0.429045	-0.263779
O18	O	1.545516	0.070955	0.236221
O19	O	0.944043	-0.203832	-0.340721
O20	O	1.444043	0.296168	0.159279
O21	O	0.866982	-0.332010	-0.162137
O22	O	1.366982	0.167990	0.337863
O23	O	0.765441	-0.332026	-0.263665
O24	O	1.265441	0.167974	0.236335
O25	O	0.867039	-0.429073	-0.442233
O26	O	1.367039	0.070927	0.057767
O27	O	0.765433	-0.429109	-0.340614
O28	O	1.265433	0.070891	0.159386
O29	O	0.944032	-0.331963	-0.442279
O30	O	1.444032	0.168037	0.057721
O31	O	0.943899	-0.557212	-0.263718
O32	O	1.443899	-0.057212	0.236282
O33	O	0.866963	-0.557224	-0.340645
O34	O	1.366963	-0.057224	0.159355
C35	C	0.742703	-0.380574	-0.302130
C36	C	1.242703	0.119426	0.197870
C37	C	0.673062	-0.380610	-0.302114
C38	C	1.173062	0.119390	0.197886
C39	C	0.905438	-0.585898	-0.302192
C40	C	1.405438	-0.085898	0.197808
C41	C	0.905473	-0.673755	-0.302208
C42	C	1.405473	-0.173755	0.197792
C43	C	0.640361	-0.431228	-0.342121
C44	C	1.140361	0.068772	0.157879
C45	C	0.574925	-0.431209	-0.342149
C46	C	1.074925	0.068791	0.157851
C47	C	0.542194	-0.380580	-0.302158
C48	C	1.042194	0.119420	0.197842
C49	C	0.574903	-0.329952	-0.262148
C50	C	1.074903	0.170048	0.237852
C51	C	0.640337	-0.329967	-0.262126
C52	C	1.140337	0.170033	0.237874
C53	C	0.438468	-0.374212	-0.245752
C54	C	0.938468	0.125788	0.254248
C55	C	0.373035	-0.374203	-0.245774
C56	C	0.873035	0.125797	0.254226
C57	C	0.340373	-0.380528	-0.302227
C58	C	0.840373	0.119472	0.197773
C59	C	0.373152	-0.386881	-0.358661
C60	C	0.873152	0.113119	0.141339
C61	C	0.438586	-0.386896	-0.358639
C62	C	0.938586	0.113104	0.141361
C63	C	0.471241	-0.380557	-0.302178
C64	C	0.971241	0.119443	0.197822
C65	C	0.236719	-0.431128	-0.342268
C66	C	0.736719	0.068872	0.157732
C67	C	0.171283	-0.431103	-0.342297
C68	C	0.671283	0.068897	0.157703
C69	C	0.171261	-0.329850	-0.262291
C70	C	0.671261	0.170150	0.237709
C71	C	0.236697	-0.329871	-0.262267
C72	C	0.736697	0.170129	0.237733
C73	C	0.269422	-0.380514	-0.302255
C74	C	0.769422	0.119486	0.197745
C75	C	0.865488	-1.045266	-0.342254
C76	C	1.365488	-0.545266	0.157746
C77	C	0.945668	-1.045194	-0.262215
C78	C	1.445668	-0.545194	0.237785
C79	C	0.945646	-0.962648	-0.262209
C80	C	1.445646	-0.462648	0.237791
C81	C	0.905544	-0.921407	-0.302226
C82	C	1.405544	-0.421407	0.197774
C83	C	0.865464	-0.962713	-0.342248
C84	C	1.365464	-0.462713	0.157752
C85	C	0.985721	-0.921337	-0.222184
C86	C	1.485721	-0.421337	0.277816
C87	C	0.985700	-0.838786	-0.222176
C88	C	1.485700	-0.338786	0.277824
C89	C	0.945601	-0.797544	-0.262196
C90	C	1.445601	-0.297544	0.237804
C91	C	0.905520	-0.838854	-0.302220
C92	C	1.405520	-0.338854	0.197780
C93	C	0.865418	-0.797613	-0.342236
C94	C	1.365418	-0.297613	0.157764
C95	C	0.825339	-0.838922	-0.382264
C96	C	1.325339	-0.338922	0.117736
C97	C	0.825365	-0.921471	-0.382268
C98	C	1.325365	-0.421471	0.117732
C99	C	0.945575	-0.714995	-0.262192
C100	C	1.445575	-0.214995	0.237808
C101	C	0.865393	-0.715060	-0.342230
C102	C	1.365393	-0.215060	0.157770
C103	C	1.068914	-0.380490	-0.302276
C104	C	1.568914	0.119510	0.197724
C105	C	1.138555	-0.380473	-0.302307
C106	C	1.638555	0.119527	0.197693
C107	C	0.905543	-0.380516	-0.465626
C108	C	1.405543	0.119484	0.034374
C109	C	0.905565	-0.380509	-0.535267
C110	C	1.405565	0.119491	-0.035267
C111	C	0.905561	-0.174363	-0.302227
C112	C	1.405561	0.325637	0.197773
C113	C	0.905590	-0.086507	-0.302237
C114	C	1.405590	0.413493	0.197763
C115	C	0.945654	-0.329942	-0.568005
C116	C	1.445654	0.170058	-0.068005
C117	C	0.945653	-0.329908	-0.633441
C118	C	1.445653	0.170092	-0.133441
C119	C	0.905570	-0.380455	-0.666135
C120	C	1.405570	0.119545	-0.166135
C121	C	0.865473	-0.431026	-0.633389
C122	C	1.365473	0.068974	-0.133389
C123	C	0.865471	-0.431053	-0.567955
C124	C	1.365471	0.068947	-0.067955
C125	C	0.900604	-0.451628	-0.769805
C126	C	1.400604	0.048372	-0.269805
C127	C	0.900611	-0.451602	-0.835238
C128	C	1.400611	0.048398	-0.335238
C129	C	0.905574	-0.380371	-0.867956
C130	C	1.405574	0.119629	-0.367956
C131	C	0.910543	-0.309164	-0.835234
C132	C	1.410543	0.190836	-0.335234
C133	C	0.910540	-0.309191	-0.769800
C134	C	1.410540	0.190809	-0.269800
C135	C	0.905568	-0.380431	-0.737088
C136	C	1.405568	0.119569	-0.237088
C137	C	0.945664	-0.329763	-0.971647
C138	C	1.445664	0.170237	-0.471647
C139	C	0.945659	-0.329728	-1.037084
C140	C	1.445659	0.170272	-0.537084
C141	C	0.865482	-0.430853	-1.037031
C142	C	1.365482	0.069147	-0.537031
C143	C	0.865484	-0.430881	-0.971596
C144	C	1.365484	0.069119	-0.471596
C145	C	0.905578	-0.380337	-0.938908
C146	C	1.405578	0.119663	-0.438908
C147	C	0.905475	-0.380491	-0.139415
C148	C	1.405475	0.119509	0.360585
C149	C	0.905574	-0.380275	-0.069774
C150	C	1.405574	0.119725	0.430226
H151	H	0.667002	-0.472465	-0.374683
H152	H	1.167002	0.027535	0.125317
Cl153	Cl	0.916782	-0.219677	-0.728665
Cl154	Cl	1.416782	0.280323	-0.228665
Cl155	Cl	0.814979	-0.663221	-0.392543
Cl156	Cl	1.314979	-0.163221	0.107457
H157	H	0.792734	-0.955112	-0.414855
H158	H	1.292734	-0.455112	0.085145
Cl159	Cl	0.995949	-0.663068	-0.211869
Cl160	Cl	1.495949	-0.163068	0.288131
H161	H	0.832823	-0.472230	-0.541300
H162	H	1.332823	0.027770	-0.041300
Cl163	Cl	1.036135	-0.973185	-0.171885
Cl164	Cl	1.536135	-0.473185	0.328115
H165	H	0.346560	-0.392030	-0.404632
H166	H	0.846560	0.107970	0.095368
Cl167	Cl	0.815081	-0.494568	-0.674491
Cl168	Cl	1.315081	0.005432	-0.174491
Cl169	Cl	0.894371	-0.541120	-0.876368
Cl170	Cl	1.394371	-0.041120	-0.376368
H171	H	0.978301	-0.288784	-0.541395
H172	H	1.478301	0.211216	-0.041395
Cl173	Cl	0.533807	-0.494848	-0.392448
Cl174	Cl	1.033807	0.005152	0.107552
H175	H	0.666962	-0.288746	-0.229547
H176	H	1.166962	0.211254	0.270453
Cl177	Cl	1.036089	-0.786862	-0.171862
Cl178	Cl	1.536089	-0.286862	0.328138
Cl179	Cl	0.996079	-1.097040	-0.211912
Cl180	Cl	1.496079	-0.597040	0.288088
Cl181	Cl	0.331834	-0.366216	-0.174829
Cl182	Cl	0.831834	0.133784	0.325171
H183	H	0.978297	-0.288725	-0.660101
H184	H	1.478297	0.211275	-0.160101
Cl185	Cl	0.815086	-0.494392	-1.078127
Cl186	Cl	1.315086	0.005608	-0.578127
H187	H	0.832859	-1.078904	-0.374845
H188	H	1.332859	-0.578904	0.125155
H189	H	0.263366	-0.472361	-0.374832
H190	H	0.763366	0.027639	0.125168
Cl191	Cl	0.916784	-0.219610	-0.876358
Cl192	Cl	1.416784	0.280390	-0.376358
H193	H	0.978307	-0.288603	-0.945031
H194	H	1.478307	0.211397	-0.445031
H195	H	0.978303	-0.288545	-1.063738
H196	H	1.478303	0.211455	-0.563738
H197	H	0.144659	-0.472321	-0.374880
H198	H	0.644659	0.027679	0.125120
H199	H	0.832843	-0.472063	-0.944940
H200	H	1.332843	0.027937	-0.444940
Cl201	Cl	0.130119	-0.266197	-0.212020
Cl202	Cl	0.630119	0.233803	0.287980
H203	H	0.896396	-0.509618	-0.743171
H204	H	1.396396	-0.009618	-0.243171
H205	H	0.465272	-0.392066	-0.404590
H206	H	0.965272	0.107934	0.095410
H207	H	0.465056	-0.369058	-0.199778
H208	H	0.965056	0.130942	0.300222
Cl209	Cl	0.277809	-0.266236	-0.211968
Cl210	Cl	0.777809	0.233764	0.288032
H211	H	0.548248	-0.288728	-0.229588
H212	H	1.048248	0.211272	0.270412
H213	H	0.792685	-0.805335	-0.414843
H214	H	1.292685	-0.305335	0.085157
