data_functionalizedCrystal
_audit_creation_method	'MofGen! by Chris Wilmer'
_symmetry_space_group_name_H-M	'P1'
_symmetry_Int_Tables_number	1
_symmetry_cell_setting	triclinic
loop_
_symmetry_equiv_pos_as_xyz
  x,y,z
_cell_length_a	27.780882
_cell_length_b	27.780884
_cell_length_c	27.780936
_cell_angle_alpha	90.002261
_cell_angle_beta	59.997799
_cell_angle_gamma	119.999789
loop_
_atom_site_label
_atom_site_type_symbol
_atom_site_fract_x
_atom_site_fract_y
_atom_site_fract_z
O1	O	0.424592	-0.330213	-0.014321
O2	O	0.326022	-0.260214	0.014251
O3	O	0.424588	-0.260214	-0.084318
O4	O	0.326026	-0.330213	0.084247
O5	O	0.344528	-0.340274	-0.084318
O6	O	0.245962	-0.340274	0.014251
O7	O	0.344532	-0.410273	-0.014321
Cu8	Cu	0.287937	-0.382584	-0.000035
Cu9	Cu	0.382617	-0.287904	-0.000035
O10	O	0.245966	-0.410273	0.084248
C11	C	0.177734	-0.120430	0.029862
C12	C	0.211527	-0.056934	0.025772
C13	C	0.119397	-0.149664	0.030267
C14	C	0.177730	-0.207598	0.029867
C15	C	0.211519	-0.237303	0.025783
C16	C	0.119393	-0.236700	0.030273
C17	C	0.090568	-0.207596	0.029862
C18	C	0.031162	-0.237298	0.025772
C19	C	0.206427	-0.149666	0.030273
C20	C	-0.016831	-0.261295	0.022466
C21	C	0.238829	-0.005636	0.022467
C22	C	0.238818	-0.261301	0.022482
C23	C	-0.077040	-0.291400	0.018321
C24	C	0.273079	0.058719	0.018322
C25	C	0.273065	-0.291409	0.018343
O26	O	-0.234707	-0.410266	-0.014339
O27	O	-0.094711	-0.340265	0.014229
O28	O	-0.094704	-0.340270	-0.084338
O29	O	-0.234714	-0.410261	0.084228
O30	O	-0.094701	-0.260209	-0.084343
O31	O	-0.094708	-0.260204	0.014225
O32	O	-0.234704	-0.330205	-0.014344
Cu33	Cu	-0.164706	-0.287894	-0.000060
Cu34	Cu	-0.164709	-0.382576	-0.000055
O35	O	-0.234711	-0.330200	0.084223
C36	C	0.492828	-0.207603	-0.372394
C37	C	0.459037	-0.237307	-0.402098
C38	C	0.551166	-0.149673	-0.401496
C39	C	0.492828	-0.207604	-0.285228
C40	C	0.459036	-0.237307	-0.221733
C41	C	0.551166	-0.149673	-0.314463
C42	C	0.579994	-0.120438	-0.372393
C43	C	0.639400	-0.056943	-0.402096
C44	C	0.464132	-0.236706	-0.314464
C45	C	0.687394	-0.005646	-0.426092
C46	C	0.431736	-0.261304	-0.426095
C47	C	0.431736	-0.261304	-0.170435
C48	C	0.747605	0.058709	-0.456197
C49	C	0.397486	-0.291409	-0.456201
C50	C	0.397486	-0.291410	-0.106080
C51	C	0.580008	-0.462879	-0.029964
C52	C	0.639417	-0.433174	-0.025878
C53	C	0.551182	-0.520809	-0.030373
C54	C	0.492839	-0.462880	-0.029960
C55	C	0.459045	-0.433178	-0.025869
C56	C	0.464144	-0.520811	-0.030368
C57	C	0.492842	-0.550045	-0.029964
C58	C	0.459052	-0.613540	-0.025878
C59	C	0.551178	-0.433777	-0.030369
C60	C	0.431752	-0.664837	-0.022575
C61	C	0.687412	-0.409177	-0.022576
C62	C	0.431742	-0.409182	-0.022562
C63	C	0.397504	-0.729192	-0.018433
C64	C	0.747625	-0.379070	-0.018434
C65	C	0.397490	-0.379077	-0.018415
O66	O	0.344549	0.249047	-0.014343
O67	O	0.245980	0.080483	0.014226
O68	O	0.344550	0.179042	-0.084342
O69	O	0.245978	0.150488	0.084224
O70	O	0.424607	0.179040	-0.084336
O71	O	0.326036	0.080480	0.014231
O72	O	0.424605	0.249045	-0.014338
Cu73	Cu	0.382630	0.164762	-0.000053
Cu74	Cu	0.287954	0.164765	-0.000059
O75	O	0.326034	0.150486	0.084230
O76	O	0.905273	0.249033	-0.494995
O77	O	0.765273	0.080470	-0.425001
O78	O	0.765270	0.179032	-0.424994
O79	O	0.905276	0.150471	-0.495003
O80	O	0.765272	0.179034	-0.505055
O81	O	0.765275	0.080472	-0.505062
O82	O	0.905275	0.249035	-0.575056
Cu83	Cu	0.835275	0.164754	-0.547369
Cu84	Cu	0.835273	0.164751	-0.452688
O85	O	0.905278	0.150473	-0.575063
O86	O	0.326020	-0.330218	-0.575063
O87	O	0.424588	-0.260215	-0.505065
O88	O	0.326020	-0.260217	-0.505059
O89	O	0.424589	-0.330216	-0.575069
O90	O	0.245961	-0.340275	-0.425000
O91	O	0.344530	-0.340273	-0.425006
O92	O	0.245962	-0.410276	-0.495003
Cu93	Cu	0.287936	-0.382585	-0.452694
Cu94	Cu	0.382614	-0.287906	-0.547374
O95	O	0.344531	-0.410274	-0.495009
C96	C	0.090559	-0.550051	0.372323
C97	C	0.031152	-0.613546	0.402025
C98	C	0.119386	-0.520817	0.401426
C99	C	0.177725	-0.462885	0.285158
C100	C	0.211517	-0.433181	0.221663
C101	C	0.206420	-0.433783	0.314394
C102	C	0.177724	-0.462886	0.372324
C103	C	0.211515	-0.433183	0.402029
C104	C	0.119387	-0.520816	0.314392
C105	C	0.238815	-0.409187	0.426026
C106	C	-0.016842	-0.664843	0.426021
C107	C	0.238818	-0.409184	0.170365
C108	C	0.273064	-0.379082	0.456133
C109	C	-0.077053	-0.729198	0.456125
C110	C	0.273068	-0.379078	0.106010
C111	C	0.177761	-0.120445	-0.372420
C112	C	0.211554	-0.056951	-0.402125
C113	C	0.206457	-0.149682	-0.401521
C114	C	0.090590	-0.207608	-0.285252
C115	C	0.031179	-0.237308	-0.221756
C116	C	0.119418	-0.236712	-0.314485
C117	C	0.177759	-0.207612	-0.372416
C118	C	0.211551	-0.237318	-0.402117
C119	C	0.119420	-0.149677	-0.314489
C120	C	0.238852	-0.261316	-0.426113
C121	C	0.238857	-0.005654	-0.426124
C122	C	-0.016817	-0.261303	-0.170458
C123	C	0.273102	-0.291424	-0.456216
C124	C	0.273109	0.058701	-0.456232
C125	C	-0.077032	-0.291406	-0.106103
C126	C	-0.507174	-0.462860	0.372301
C127	C	-0.540966	-0.433155	0.402003
C128	C	-0.535872	-0.520790	0.401406
C129	C	-0.420004	-0.462864	0.285137
C130	C	-0.360594	-0.433163	0.221642
C131	C	-0.448834	-0.520794	0.314373
C132	C	-0.507175	-0.550027	0.372304
C133	C	-0.540968	-0.613521	0.402010
C134	C	-0.448833	-0.433760	0.314371
C135	C	-0.568270	-0.664818	0.426008
C136	C	-0.568268	-0.409157	0.425999
C137	C	-0.312597	-0.409168	0.170343
C138	C	-0.602522	-0.729173	0.456115
C139	C	-0.602518	-0.379050	0.456103
C140	C	-0.252383	-0.379064	0.105988
C141	C	0.580005	0.194619	-0.372405
C142	C	0.639409	0.190525	-0.402104
C143	C	0.551178	0.195023	-0.401510
C144	C	0.492843	0.194635	-0.285245
C145	C	0.459054	0.190558	-0.221751
C146	C	0.464149	0.195039	-0.314482
C147	C	0.492843	0.194621	-0.372410
C148	C	0.459052	0.190530	-0.402115
C149	C	0.551179	0.195036	-0.314476
C150	C	0.431752	0.187222	-0.426113
C151	C	0.687401	0.187216	-0.426097
C152	C	0.431754	0.187263	-0.170455
C153	C	0.397503	0.183075	-0.456220
C154	C	0.747609	0.183066	-0.456199
C155	C	0.397506	0.183130	-0.106101
O156	O	0.424649	0.249027	-0.575092
O157	O	0.326070	0.080461	-0.505095
O158	O	0.424629	0.179018	-0.505082
O159	O	0.326090	0.150471	-0.575105
O160	O	0.344563	0.179021	-0.425026
O161	O	0.246004	0.080464	-0.425039
O162	O	0.344583	0.249030	-0.495036
Cu163	Cu	0.287983	0.164747	-0.452728
Cu164	Cu	0.382670	0.164744	-0.547403
O165	O	0.246024	0.150474	-0.495049
C166	C	0.177742	0.134906	0.372298
C167	C	0.211532	0.138997	0.402003
C168	C	0.119406	0.134505	0.401398
C169	C	0.177741	0.134893	0.285133
C170	C	0.211531	0.138970	0.221639
C171	C	0.119406	0.134492	0.314364
C172	C	0.090580	0.134909	0.372293
C173	C	0.031176	0.139004	0.401992
C174	C	0.206435	0.134489	0.314370
C175	C	-0.016815	0.142313	0.425985
C176	C	0.238832	0.142304	0.426002
C177	C	0.238831	0.142265	0.170343
C178	C	-0.077023	0.146464	0.456086
C179	C	0.273081	0.146451	0.456109
C180	C	0.273079	0.146398	0.105989
H181	H	0.095271	-0.126191	0.030925
O182	O	0.580048	0.195925	-0.286527
C183	C	0.680069	0.247849	-0.286361
C184	C	0.647460	0.246924	-0.318067
H185	H	0.734582	0.289071	-0.311854
H186	H	0.649473	0.248119	-0.239859
H187	H	0.680305	0.207011	-0.283916
H188	H	0.647219	0.287754	-0.320557
H189	H	0.678067	0.246624	-0.364551
O190	O	0.090523	-0.121763	-0.286455
C191	C	-0.009477	-0.121563	-0.238431
C192	C	0.023159	-0.153241	-0.270156
H193	H	-0.063941	-0.146993	-0.225255
H194	H	-0.009829	-0.119172	-0.197299
H195	H	0.021203	-0.075041	-0.269295
H196	H	-0.007495	-0.199777	-0.239339
H197	H	0.023521	-0.155584	-0.311295
H198	H	0.575310	0.195676	-0.449109
O199	O	0.090519	0.133707	0.458188
C200	C	0.000128	0.132597	0.542052
C201	C	0.032764	0.133488	0.477745
H202	H	-0.046565	0.132432	0.557879
H203	H	-0.015729	0.091341	0.571135
H204	H	0.038552	0.173404	0.544735
H205	H	-0.005624	0.092709	0.475005
H206	H	0.048635	0.174770	0.448691
H207	H	0.575312	-0.544278	-0.031030
H208	H	0.095257	-0.544288	0.290923
O209	O	0.090674	-0.548721	0.458218
C210	C	0.096075	-0.542196	0.542088
C211	C	0.128647	-0.510524	0.477780
H212	H	0.126770	-0.511332	0.557919
H213	H	0.041591	-0.555421	0.571167
H214	H	0.095774	-0.583303	0.544772
H215	H	0.128997	-0.469396	0.475039
H216	H	0.183114	-0.497343	0.448730
H217	H	0.095281	-0.284313	-0.291012
H218	H	0.417204	0.195694	-0.291009
O219	O	-0.419938	-0.548698	0.286305
C220	C	-0.329529	-0.542183	0.197052
C221	C	-0.362179	-0.510512	0.228767
H222	H	-0.282833	-0.511327	0.150523
H223	H	-0.313676	-0.555387	0.222469
H224	H	-0.367944	-0.583304	0.194674
H225	H	-0.323800	-0.469370	0.231152
H226	H	-0.378047	-0.497352	0.203338
O227	O	0.579834	-0.121688	-0.286379
C228	C	0.564863	-0.086951	-0.203866
C229	C	0.532310	-0.118677	-0.235598
H230	H	0.526459	-0.084496	-0.162810
H231	H	0.580649	-0.112377	-0.190563
H232	H	0.611605	-0.040453	-0.234762
H233	H	0.485546	-0.165175	-0.204735
H234	H	0.516572	-0.093207	-0.248910
H235	H	0.253386	0.133843	0.290899
H236	H	0.095283	0.133836	0.290888
H237	H	0.575304	-0.386180	-0.031019
O238	O	0.579848	-0.121747	-0.458272
C239	C	0.574503	-0.128278	-0.542170
C240	C	0.541942	-0.159968	-0.477871
H241	H	0.543879	-0.159170	-0.558039
H242	H	0.574771	-0.087189	-0.544891
H243	H	0.629001	-0.115022	-0.571195
H244	H	0.487432	-0.173263	-0.448807
H245	H	0.541728	-0.201031	-0.475196
O246	O	0.408118	-0.293484	-0.286541
C247	C	0.325287	-0.377324	-0.293012
C248	C	0.388748	-0.313041	-0.324718
H249	H	0.309598	-0.393151	-0.323861
H250	H	0.337418	-0.406437	-0.279770
H251	H	0.281831	-0.379958	-0.251911
H252	H	0.432231	-0.310350	-0.365840
H253	H	0.376560	-0.283956	-0.337917
O254	O	0.262485	-0.121588	-0.458294
C255	C	0.345214	-0.032343	-0.542188
C256	C	0.281773	-0.064083	-0.477893
H257	H	0.360820	0.014152	-0.558057
H258	H	0.388751	-0.029892	-0.544900
H259	H	0.333009	-0.057812	-0.571219
H260	H	0.293913	-0.038640	-0.448823
H261	H	0.238255	-0.066540	-0.475228
O262	O	0.408167	-0.548716	-0.031186
C263	C	0.325420	-0.542203	-0.032320
C264	C	0.388814	-0.510529	-0.031400
H265	H	0.309745	-0.511347	-0.032481
H266	H	0.337623	-0.555411	-0.073590
H267	H	0.281926	-0.583321	0.008475
H268	H	0.432336	-0.469390	-0.072166
H269	H	0.376554	-0.497365	0.009896
H270	H	0.095268	-0.284299	0.030928
H271	H	0.253364	-0.386185	0.290920
H272	H	-0.582816	-0.544257	0.449005
O273	O	0.262406	-0.121594	0.031089
C274	C	0.345157	-0.032331	0.032216
C275	C	0.281759	-0.064054	0.031301
H276	H	0.360833	0.014200	0.032375
H277	H	0.332957	-0.057737	0.073485
H278	H	0.388649	-0.029961	-0.008580
H279	H	0.238240	-0.066431	0.072068
H280	H	0.294015	-0.038635	-0.009994
H281	H	-0.424738	-0.386177	0.290884
