data_functionalizedCrystal
_audit_creation_method	'MofGen! by Chris Wilmer'
_symmetry_space_group_name_H-M	'P1'
_symmetry_Int_Tables_number	1
_symmetry_cell_setting	triclinic
loop_
_symmetry_equiv_pos_as_xyz
  x,y,z
_cell_length_a	25.639242
_cell_length_b	12.594516
_cell_length_c	12.594510
_cell_angle_alpha	89.967679
_cell_angle_beta	89.971007
_cell_angle_gamma	90.010955
loop_
_atom_site_label
_atom_site_type_symbol
_atom_site_fract_x
_atom_site_fract_y
_atom_site_fract_z
Zn1	Zn	0.799346	-0.423790	-0.602099
Zn2	Zn	0.799292	-0.601820	-0.424126
Zn3	Zn	0.711911	-0.423840	-0.424103
Zn4	Zn	0.711902	-0.601711	-0.602032
O5	O	0.755613	-0.512790	-0.513090
O6	O	0.872504	-0.447431	-0.578528
O7	O	0.787682	-0.578276	-0.275177
O8	O	0.723535	-0.274887	-0.447733
O9	O	0.872465	-0.578228	-0.447772
O10	O	0.787773	-0.274851	-0.578505
O11	O	0.723483	-0.447515	-0.275160
O12	O	0.638744	-0.447410	-0.447668
O13	O	0.723520	-0.578044	-0.750987
O14	O	0.638738	-0.578092	-0.578392
O15	O	0.787764	-0.447326	-0.751036
O16	O	0.787674	-0.750751	-0.447708
O17	O	0.723468	-0.750672	-0.578414
C18	C	0.755578	-0.789331	-0.513080
C19	C	0.755611	-0.907637	-0.513111
C20	C	0.619770	-0.512745	-0.513021
C21	C	0.561656	-0.512752	-0.513016
C22	C	0.720687	-0.976885	-0.584152
C23	C	0.707948	-1.047759	-0.487025
C24	C	0.768398	-1.047562	-0.610254
C25	C	0.742847	-0.976952	-0.415933
C26	C	0.803320	-0.976749	-0.539227
C27	C	0.790599	-1.047591	-0.442033
C28	C	0.310457	-0.444631	-0.445140
C29	C	0.365061	-0.444621	-0.445126
O30	O	0.393294	-0.386639	-0.387356
N31	N	0.392382	-0.512765	-0.513070
C32	C	0.365095	-0.580916	-0.581039
O33	O	0.393348	-0.638876	-0.638830
C34	C	0.310492	-0.580919	-0.581057
C35	C	0.283174	-0.512778	-0.513101
C36	C	0.283139	-0.376495	-0.377191
C37	C	0.228539	-0.376506	-0.377203
C38	C	0.201256	-0.444654	-0.445165
C39	C	0.228574	-0.512790	-0.513114
C40	C	0.283207	-0.649064	-0.649031
C41	C	0.228600	-0.649061	-0.649044
C42	C	0.201282	-0.580920	-0.581088
C43	C	0.146691	-0.580949	-0.581088
N44	N	0.119370	-0.512805	-0.513144
C45	C	0.146653	-0.444657	-0.445183
C46	C	0.479766	-0.580901	-0.580997
C47	C	0.534368	-0.580904	-0.580974
C48	C	0.534331	-0.444607	-0.445063
C49	C	0.479727	-0.444611	-0.445081
C50	C	0.452446	-0.512757	-0.513054
C51	C	0.031988	-0.444687	-0.445213
C52	C	-0.022618	-0.444708	-0.445229
C53	C	-0.022575	-0.581000	-0.581143
C54	C	0.032025	-0.580984	-0.581125
C55	C	0.059306	-0.512819	-0.513156
O56	O	0.118424	-0.638898	-0.638832
O57	O	0.118394	-0.386697	-0.387412
C58	C	0.891985	-0.512836	-0.513160
C59	C	0.950100	-0.512856	-0.513190
C60	C	0.755647	-0.512667	-0.790711
C61	C	0.755662	-0.512615	-0.909017
C62	C	0.755661	-0.235169	-0.513124
C63	C	0.755682	-0.116864	-0.513138
C64	C	0.790615	-0.441512	-0.978296
C65	C	0.742929	-0.415451	-1.049073
C66	C	0.803375	-0.538602	-1.049039
C67	C	0.707951	-0.486504	-0.978235
C68	C	0.768429	-0.609700	-0.978195
C69	C	0.720710	-0.583675	-1.048939
C70	C	0.755608	-0.512836	-0.236549
C71	C	0.755695	-0.512588	-0.118244
H72	H	0.691099	-0.945839	-0.644142
H73	H	0.667635	-1.078973	-0.464958
C74	C	0.198790	-0.302674	-0.303427
C75	C	0.145129	-0.317288	-0.317933
C76	C	0.117712	-0.249315	-0.249958
H77	H	0.207678	-0.231120	-0.319018
H78	H	0.207699	-0.318221	-0.231876
H79	H	0.136224	-0.301733	-0.389467
H80	H	0.136225	-0.388827	-0.302334
H81	H	0.126621	-0.264863	-0.178407
H82	H	0.126604	-0.177766	-0.265555
H83	H	0.081300	-0.259228	-0.259784
C84	C	0.312921	-0.722866	-0.722888
C85	C	0.344300	-0.662667	-0.791186
C86	C	0.371684	-0.730618	-0.859237
H87	H	0.288904	-0.763463	-0.763465
H88	H	0.334239	-0.769192	-0.682138
H89	H	0.322984	-0.616360	-0.831932
H90	H	0.368327	-0.622072	-0.750638
H91	H	0.393001	-0.776944	-0.818487
H92	H	0.347662	-0.771212	-0.899806
H93	H	0.392981	-0.689784	-0.905578
C94	C	0.782794	-0.719097	-0.936433
C95	C	0.782103	-0.717874	-0.825279
C96	C	0.795332	-0.818636	-0.786770
H97	H	0.816711	-0.737579	-0.960518
H98	H	0.758312	-0.769798	-0.961614
H99	H	0.806584	-0.667190	-0.800109
H100	H	0.748191	-0.699412	-0.801166
H101	H	0.770850	-0.869336	-0.811951
H102	H	0.829249	-0.837109	-0.810863
H103	H	0.794860	-0.817822	-0.711349
H104	H	0.691132	-0.643793	-1.079762
C105	C	0.450165	-0.370507	-0.371267
C106	C	0.485752	-0.310814	-0.311767
C107	C	0.458541	-0.242523	-0.243767
H108	H	0.428842	-0.411048	-0.324733
H109	H	0.428894	-0.324115	-0.412042
H110	H	0.507014	-0.357200	-0.270994
H111	H	0.507075	-0.270251	-0.358272
H112	H	0.437271	-0.196132	-0.284543
H113	H	0.437220	-0.283073	-0.197240
H114	H	0.482683	-0.202007	-0.203395
C115	C	0.857089	-0.935330	-0.568784
C116	C	0.890487	-1.021110	-0.588150
C117	C	0.940021	-0.982994	-0.615408
H118	H	0.870540	-0.893873	-0.512074
H119	H	0.854584	-0.892754	-0.630866
H120	H	0.892993	-1.063668	-0.526075
H121	H	0.877053	-1.062575	-0.644865
H122	H	0.937516	-0.940419	-0.677490
H123	H	0.953467	-0.941537	-0.558694
H124	H	0.962686	-1.041189	-0.628561
C125	C	0.728416	-0.935984	-0.306287
C126	C	0.719512	-1.022049	-0.238233
C127	C	0.706222	-0.984349	-0.137219
H128	H	0.697705	-0.894072	-0.310976
H129	H	0.756159	-0.893953	-0.279230
H130	H	0.691772	-1.064063	-0.265283
H131	H	0.750216	-1.063970	-0.233512
H132	H	0.733965	-0.942318	-0.110163
H133	H	0.675512	-0.942437	-0.141920
H134	H	0.700184	-1.042738	-0.091030
C135	C	0.857176	-0.567718	-1.090572
C136	C	0.876387	-0.484609	-1.153274
C137	C	0.925950	-0.511376	-1.191537
H138	H	0.854875	-0.630473	-1.132106
H139	H	0.880068	-0.579477	-1.032452
H140	H	0.853500	-0.472862	-1.211386
H141	H	0.878700	-0.421845	-1.111764
H142	H	0.948842	-0.523136	-1.133417
H143	H	0.923645	-0.574134	-1.233067
H144	H	0.938993	-0.454988	-1.234077
C145	C	0.830012	-1.088948	-0.361947
C146	C	0.829934	-1.200107	-0.363442
C147	C	0.866236	-1.238245	-0.289688
H148	H	0.820914	-1.064755	-0.292959
H149	H	0.863791	-1.063621	-0.379904
H150	H	0.796162	-1.225423	-0.345478
H151	H	0.839037	-1.224328	-0.432412
H152	H	0.900015	-1.212918	-0.307646
H153	H	0.857135	-1.214045	-0.220706
H154	H	0.866191	-1.313669	-0.290700
C155	C	0.564025	-0.370781	-0.371218
C156	C	0.595359	-0.430965	-0.302908
C157	C	0.622727	-0.362998	-0.234881
H158	H	0.539998	-0.330169	-0.330648
H159	H	0.585371	-0.324470	-0.411985
H160	H	0.574015	-0.477258	-0.262145
H161	H	0.619396	-0.471575	-0.343448
H162	H	0.644073	-0.316687	-0.275648
H163	H	0.598696	-0.322389	-0.194319
H164	H	0.643994	-0.403822	-0.188532
H165	H	0.667602	-0.464417	-0.947264
H166	H	0.779184	-1.078579	-0.692396
H167	H	0.820122	-0.381348	-0.947274
H168	H	0.206390	-0.704552	-0.704400
C169	C	0.312660	-0.302462	-0.303276
C170	C	0.277039	-0.242820	-0.243764
C171	C	0.304210	-0.174622	-0.175641
H172	H	0.333981	-0.256025	-0.343930
H173	H	0.333929	-0.343101	-0.256762
H174	H	0.255779	-0.202184	-0.290272
H175	H	0.255717	-0.289228	-0.203088
H176	H	0.325479	-0.215261	-0.129128
H177	H	0.325530	-0.128193	-0.216304
H178	H	0.280045	-0.134155	-0.135248
C179	C	0.563930	-0.654935	-0.654863
C180	C	0.528343	-0.714595	-0.714397
C181	C	0.555553	-0.782791	-0.782491
H182	H	0.585218	-0.701360	-0.614188
H183	H	0.585235	-0.614294	-0.701365
H184	H	0.507047	-0.755233	-0.667901
H185	H	0.507053	-0.668199	-0.755094
H186	H	0.576858	-0.742150	-0.828992
H187	H	0.576841	-0.829208	-0.741807
H188	H	0.531412	-0.823271	-0.822899
H189	H	-0.044857	-0.389218	-0.389888
C190	C	0.450082	-0.654968	-0.654618
C191	C	0.418700	-0.723112	-0.594251
C192	C	0.391346	-0.791345	-0.662035
H193	H	0.474117	-0.695649	-0.695098
H194	H	0.428769	-0.614343	-0.701059
H195	H	0.440012	-0.763733	-0.547829
H196	H	0.394655	-0.682460	-0.553773
H197	H	0.370033	-0.750719	-0.708476
H198	H	0.415385	-0.832018	-0.702512
H199	H	0.370047	-0.837581	-0.621087
H200	H	0.732142	-0.333337	-1.080207
C201	C	0.061594	-0.655007	-0.655017
C202	C	0.026011	-0.714674	-0.714553
C203	C	0.053225	-0.782857	-0.782653
H204	H	0.082886	-0.701428	-0.614345
H205	H	0.082895	-0.614356	-0.701516
H206	H	0.004718	-0.755322	-0.668059
H207	H	0.004717	-0.668281	-0.755246
H208	H	0.074527	-0.742206	-0.829152
H209	H	0.074517	-0.829271	-0.741973
H210	H	0.029087	-0.823341	-0.823063
C211	C	-0.052297	-0.654867	-0.654891
C212	C	-0.105962	-0.640260	-0.640372
C213	C	-0.133360	-0.708271	-0.708306
H214	H	-0.043425	-0.726411	-0.639269
H215	H	-0.043357	-0.639351	-0.726452
H216	H	-0.114899	-0.655784	-0.568827
H217	H	-0.114850	-0.568730	-0.656002
H218	H	-0.124419	-0.692755	-0.779867
H219	H	-0.124483	-0.779811	-0.692678
H220	H	-0.169774	-0.698363	-0.698471
H221	H	0.054193	-0.389176	-0.389872
