data_functionalizedCrystal
_audit_creation_method	'MofGen! by Chris Wilmer'
_symmetry_space_group_name_H-M	'P1'
_symmetry_Int_Tables_number	1
_symmetry_cell_setting	triclinic
loop_
_symmetry_equiv_pos_as_xyz
  x,y,z
_cell_length_a	18.215407
_cell_length_b	12.759394
_cell_length_c	18.215399
_cell_angle_alpha	90.023313
_cell_angle_beta	90.019833
_cell_angle_gamma	90.015089
loop_
_atom_site_label
_atom_site_type_symbol
_atom_site_fract_x
_atom_site_fract_y
_atom_site_fract_z
Zn1	Zn	1.125124	-0.418265	0.416140
Zn2	Zn	1.625124	0.081735	0.916140
Zn3	Zn	1.125055	-0.593962	0.293083
Zn4	Zn	1.625055	-0.093962	0.793083
Zn5	Zn	1.002057	-0.418299	0.293087
Zn6	Zn	1.502057	0.081701	0.793087
Zn7	Zn	1.002045	-0.593904	0.416108
Zn8	Zn	1.502045	-0.093904	0.916108
O9	O	1.063570	-0.506107	0.354604
O10	O	1.563570	-0.006107	0.854604
O11	O	1.228099	-0.441581	0.399828
O12	O	1.728099	0.058419	0.899828
O13	O	1.108715	-0.570699	0.190099
O14	O	1.608715	-0.070699	0.690099
O15	O	1.018416	-0.271273	0.309425
O16	O	1.518416	0.228727	0.809425
O17	O	1.228048	-0.570666	0.309419
O18	O	1.728048	-0.070666	0.809419
O19	O	1.108833	-0.271248	0.399831
O20	O	1.608833	0.228752	0.899831
O21	O	1.018349	-0.441640	0.190102
O22	O	1.518349	0.058360	0.690102
O23	O	0.899071	-0.441583	0.309394
O24	O	1.399071	0.058417	0.809394
O25	O	1.018396	-0.570566	0.519097
O26	O	1.518396	-0.070566	1.019097
O27	O	0.899062	-0.570599	0.399778
O28	O	1.399062	-0.070599	0.899778
O29	O	1.108822	-0.441525	0.519120
O30	O	1.608822	0.058475	1.019120
O31	O	1.108703	-0.740975	0.309388
O32	O	1.608703	-0.240975	0.809388
O33	O	1.018328	-0.740932	0.399774
O34	O	1.518328	-0.240932	0.899774
C35	C	0.872364	-0.506089	0.354583
C36	C	1.372364	-0.006089	0.854583
C37	C	0.790565	-0.506107	0.354592
C38	C	1.290565	-0.006107	0.854592
C39	C	0.602386	-0.573391	0.401595
C40	C	1.102386	-0.073391	0.901595
C41	C	0.525527	-0.573395	0.401604
C42	C	1.025527	-0.073395	0.901604
C43	C	0.525507	-0.438843	0.307630
C44	C	1.025507	0.061157	0.807630
C45	C	0.602364	-0.438835	0.307625
C46	C	1.102364	0.061165	0.807625
C47	C	0.640802	-0.506115	0.354607
C48	C	1.140802	-0.006115	0.854607
C49	C	0.487085	-0.506126	0.354621
C50	C	0.987085	-0.006126	0.854621
C51	C	0.403752	-0.506129	0.354630
C52	C	0.903752	-0.006129	0.854630
C53	C	0.724141	-0.506111	0.354598
C54	C	1.224141	-0.006111	0.854598
C55	C	1.063527	-0.779075	0.354593
C56	C	1.563527	-0.279075	0.854593
C57	C	1.063575	-0.895852	0.354613
C58	C	1.563575	-0.395852	0.854613
C59	C	1.157839	-1.115266	0.260595
C60	C	1.657839	-0.615266	0.760595
C61	C	1.204910	-1.060390	0.213566
C62	C	1.704910	-0.560390	0.713566
C63	C	1.204872	-0.950669	0.213551
C64	C	1.704872	-0.450669	0.713551
C65	C	1.157756	-0.895821	0.260570
C66	C	1.657756	-0.395821	0.760570
C67	C	1.110685	-0.950697	0.307599
C68	C	1.610685	-0.450697	0.807599
C69	C	1.110730	-1.060421	0.307610
C70	C	1.610730	-0.560421	0.807610
C71	C	1.016504	-0.950728	0.401642
C72	C	1.516504	-0.450728	0.901642
C73	C	1.016545	-1.060449	0.401662
C74	C	1.516545	-0.560449	0.901662
C75	C	0.969388	-0.895880	0.448660
C76	C	1.469388	-0.395880	0.948660
C77	C	0.922320	-0.950756	0.495694
C78	C	1.422320	-0.450756	0.995694
C79	C	0.922360	-1.060484	0.495707
C80	C	1.422360	-0.560484	0.995707
C81	C	0.969474	-1.115325	0.448691
C82	C	1.469474	-0.615325	0.948691
C83	C	1.255523	-0.506126	0.354626
C84	C	1.755523	-0.006126	0.854626
C85	C	1.337322	-0.506134	0.354635
C86	C	1.837322	-0.006134	0.854635
C87	C	1.063615	-0.506035	0.546558
C88	C	1.563615	-0.006035	1.046558
C89	C	1.063634	-0.506004	0.628356
C90	C	1.563634	-0.006004	1.128356
C91	C	1.063634	-0.232074	0.354632
C92	C	1.563634	0.267926	0.854632
C93	C	1.063661	-0.115297	0.354644
C94	C	1.563661	0.384703	0.854644
C95	C	1.063568	-0.506104	0.163398
C96	C	1.563568	-0.006104	0.663398
C97	C	1.063691	-0.505839	0.081600
C98	C	1.563691	-0.005839	0.581600
C99	C	1.110736	-0.438749	0.816564
C100	C	1.610736	0.061251	1.316564
C101	C	1.110745	-0.438719	0.893422
C102	C	1.610745	0.061281	1.393422
C103	C	1.016584	-0.573096	0.893387
C104	C	1.516584	-0.073096	1.393387
C105	C	1.016572	-0.573121	0.816530
C106	C	1.516572	-0.073121	1.316530
C107	C	1.063652	-0.505949	0.778120
C108	C	1.563652	-0.005949	1.278120
C109	C	1.063673	-0.505894	0.931836
C110	C	1.563673	-0.005894	1.431836
C111	C	1.063682	-0.505861	1.015170
C112	C	1.563682	-0.005861	1.515170
C113	C	1.063642	-0.505980	0.694781
C114	C	1.563642	-0.005980	1.194781
H115	H	0.494201	-0.384067	0.269378
H116	H	0.994201	0.115933	0.769378
F117	F	0.643251	-0.367221	0.257614
F118	F	1.143251	0.132779	0.757614
F119	F	1.160862	-0.367203	0.934334
F120	F	1.660862	0.132797	1.434334
F121	F	0.484645	-0.644997	0.451618
F122	F	0.984645	-0.144997	0.951618
F123	F	0.872255	-1.118879	0.545759
F124	F	1.372255	-0.618879	1.045759
F125	F	0.966484	-0.644585	0.934272
F126	F	1.466484	-0.144585	1.434272
H127	H	0.978226	-0.627842	0.785228
H128	H	1.478226	-0.127842	1.285228
F129	F	0.969307	-1.232100	0.448486
F130	F	1.469307	-0.732100	0.948486
F131	F	1.157660	-1.232041	0.260383
F132	F	1.657660	-0.732041	0.760383
F133	F	1.255053	-1.118770	0.163529
F134	F	1.755053	-0.618770	0.663529
H135	H	1.243198	-0.905988	0.175254
H136	H	1.743198	-0.405988	0.675254
F137	F	0.643291	-0.644994	0.451599
F138	F	1.143291	-0.144994	0.951599
H139	H	1.157723	-0.806480	0.260547
H140	H	1.657723	-0.306480	0.760547
F141	F	0.969494	-0.779104	0.448789
F142	F	1.469494	-0.279104	0.948789
F143	F	0.872179	-0.892378	0.545726
F144	F	1.372179	-0.392378	1.045726
F145	F	1.160841	-0.367257	0.775688
F146	F	1.660841	0.132743	1.275688
