data_functionalizedCrystal
_audit_creation_method	'MofGen! by Chris Wilmer'
_symmetry_space_group_name_H-M	'P1'
_symmetry_Int_Tables_number	1
_symmetry_cell_setting	triclinic
loop_
_symmetry_equiv_pos_as_xyz
  x,y,z
_cell_length_a	21.395362
_cell_length_b	18.215405
_cell_length_c	21.395355
_cell_angle_alpha	90.019851
_cell_angle_beta	90.043940
_cell_angle_gamma	90.040762
loop_
_atom_site_label
_atom_site_type_symbol
_atom_site_fract_x
_atom_site_fract_y
_atom_site_fract_z
Zn1	Zn	0.957885	-0.292758	0.354580
Zn2	Zn	0.957798	-0.415806	0.249800
Zn3	Zn	0.853100	-0.292792	0.249781
Zn4	Zn	0.853080	-0.415821	0.354505
O5	O	0.905466	-0.354294	0.302166
O6	O	1.045551	-0.309060	0.340720
O7	O	0.943882	-0.399496	0.162119
O8	O	0.867045	-0.189803	0.263706
O9	O	1.045487	-0.399463	0.263739
O10	O	0.944030	-0.189778	0.340702
O11	O	0.866960	-0.309118	0.162106
O12	O	0.765419	-0.309133	0.263634
O13	O	0.867010	-0.399488	0.442193
O14	O	0.765404	-0.399522	0.340573
O15	O	0.944010	-0.309074	0.442248
O16	O	0.943862	-0.518792	0.263666
O17	O	0.866926	-0.518803	0.340592
C18	C	0.742678	-0.354333	0.302094
C19	C	0.673037	-0.354367	0.302077
C20	C	0.640332	-0.401495	0.342080
C21	C	0.574897	-0.401477	0.342108
C22	C	0.542168	-0.354339	0.302122
C23	C	0.574881	-0.307202	0.262117
C24	C	0.640315	-0.307216	0.262094
C25	C	0.438443	-0.348410	0.245717
C26	C	0.373010	-0.348401	0.245738
C27	C	0.340348	-0.354291	0.302191
C28	C	0.373126	-0.360205	0.358625
C29	C	0.438560	-0.360219	0.358602
C30	C	0.471216	-0.354318	0.302142
C31	C	0.236691	-0.401402	0.342228
C32	C	0.171254	-0.401379	0.342256
C33	C	0.171239	-0.307107	0.262260
C34	C	0.236675	-0.307127	0.262236
C35	C	0.269396	-0.354278	0.302219
C36	C	0.905399	-0.545500	0.302136
C37	C	0.905428	-0.627299	0.302144
C38	C	0.945583	-0.815463	0.262163
C39	C	0.945611	-0.892322	0.262178
C40	C	0.865428	-0.892373	0.342215
C41	C	0.865404	-0.815516	0.342203
C42	C	0.905480	-0.777063	0.302173
C43	C	0.905533	-0.930779	0.302200
C44	C	0.905563	-1.014112	0.302217
C45	C	0.905451	-0.693724	0.302157
C46	C	1.068889	-0.354256	0.302240
C47	C	1.138530	-0.354239	0.302271
C48	C	0.905518	-0.354279	0.465590
C49	C	0.905540	-0.354273	0.535231
C50	C	0.905549	-0.162341	0.302210
C51	C	0.905585	-0.080542	0.302229
C52	C	0.905450	-0.354256	0.139379
C53	C	0.905549	-0.354055	0.069738
C54	C	0.945632	-0.307192	0.567974
C55	C	0.945631	-0.307161	0.633409
C56	C	0.905545	-0.354223	0.666099
C57	C	0.865445	-0.401307	0.633349
C58	C	0.865442	-0.401332	0.567914
C59	C	0.900574	-0.420488	0.769762
C60	C	0.900581	-0.420465	0.835195
C61	C	0.905548	-0.354145	0.867920
C62	C	0.910522	-0.287847	0.835205
C63	C	0.910520	-0.287872	0.769770
C64	C	0.905542	-0.354200	0.737052
C65	C	0.945642	-0.307026	0.971616
C66	C	0.945637	-0.306993	1.037052
C67	C	0.865454	-0.401146	1.036990
C68	C	0.865455	-0.401172	0.971555
C69	C	0.905553	-0.354113	0.938872
H70	H	0.465246	-0.365033	0.404553
H71	H	0.346534	-0.365000	0.404594
H72	H	0.978268	-0.923584	0.229598
Br73	Br	0.810980	-0.763396	0.396512
Br74	Br	0.281062	-0.243164	0.207944
H75	H	0.832791	-0.439669	0.541255
Br76	Br	0.482764	-0.340417	0.169095
Br77	Br	1.000047	-0.243324	0.523621
H78	H	0.666970	-0.439889	0.374638
H79	H	0.832798	-0.923691	0.374805
Br80	Br	0.917266	-0.197902	0.725372
Br81	Br	0.999973	-0.763279	0.207837
H82	H	0.346327	-0.343590	0.199787
Br83	Br	1.000030	-0.243243	0.677856
H84	H	0.914568	-0.233843	0.861848
H85	H	0.978288	-0.268704	0.945003
H86	H	0.832804	-0.439623	0.659969
Br87	Br	0.893840	-0.510439	0.879588
H88	H	0.548264	-0.439854	0.374685
Br89	Br	0.530465	-0.243222	0.207855
Br90	Br	1.000062	-0.243103	1.081491
Br91	Br	0.811041	-0.465008	1.081348
H92	H	0.263334	-0.439792	0.374787
Br93	Br	0.126868	-0.465338	0.396556
Br94	Br	0.126829	-0.243126	0.207998
Br95	Br	0.811043	-0.465072	0.927115
Br96	Br	0.684703	-0.243250	0.207802
H97	H	0.896362	-0.474480	0.743122
