data_functionalizedCrystal
_audit_creation_method	'MofGen! by Chris Wilmer'
_symmetry_space_group_name_H-M	'P1'
_symmetry_Int_Tables_number	1
_symmetry_cell_setting	triclinic
loop_
_symmetry_equiv_pos_as_xyz
  x,y,z
_cell_length_a	18.101398
_cell_length_b	13.897448
_cell_length_c	13.897441
_cell_angle_alpha	89.969401
_cell_angle_beta	90.027215
_cell_angle_gamma	89.987041
loop_
_atom_site_label
_atom_site_type_symbol
_atom_site_fract_x
_atom_site_fract_y
_atom_site_fract_z
Zn1	Zn	1.132211	0.384106	0.545548
Zn2	Zn	1.632211	0.884106	1.045548
Zn3	Zn	1.132130	0.545428	0.384249
Zn4	Zn	1.632130	1.045428	0.884249
Zn5	Zn	1.008364	0.384135	0.384248
Zn6	Zn	1.508364	0.884135	0.884248
Zn7	Zn	1.008350	0.545347	0.545484
Zn8	Zn	1.508350	1.045347	1.045484
O9	O	1.070264	0.464754	0.464882
O10	O	1.570264	0.964754	0.964882
O11	O	1.235833	0.405527	0.524179
O12	O	1.735833	0.905527	1.024179
O13	O	1.115684	0.524077	0.249267
O14	O	1.615684	1.024077	0.749267
O15	O	1.024832	0.249149	0.405671
O16	O	1.524832	0.749149	0.905671
O17	O	1.235773	0.524049	0.405673
O18	O	1.735773	1.024049	0.905673
O19	O	1.115823	0.249128	0.524178
O20	O	1.615823	0.749128	1.024178
O21	O	1.024753	0.405576	0.249267
O22	O	1.524753	0.905576	0.749267
O23	O	0.904729	0.405499	0.405609
O24	O	1.404729	0.905499	0.905609
O25	O	1.024808	0.523913	0.680474
O26	O	1.524808	1.023913	1.180474
O27	O	0.904719	0.523941	0.524068
O28	O	1.404719	1.023941	1.024068
O29	O	1.115809	0.405449	0.680521
O30	O	1.615809	0.905449	1.180521
O31	O	1.115670	0.680399	0.405611
O32	O	1.615670	1.180399	0.905611
O33	O	1.024730	0.680340	0.524069
O34	O	1.524730	1.180340	1.024069
C35	C	1.070210	0.715368	0.464854
C36	C	1.570210	1.215368	0.964854
C37	C	1.070254	0.822582	0.464875
C38	C	1.570254	1.322582	0.964875
C39	C	0.877853	0.464715	0.464832
C40	C	1.377853	0.964715	0.964832
C41	C	0.795539	0.464721	0.464833
C42	C	1.295539	0.964721	0.964833
C43	C	1.070316	0.464669	0.716475
C44	C	1.570316	0.964669	1.216475
C45	C	1.070339	0.464632	0.823689
C46	C	1.570339	0.964632	1.323689
C47	C	0.496448	0.464781	0.464914
C48	C	0.996448	0.964781	0.964914
C49	C	0.527755	0.389888	0.390747
C50	C	1.027755	0.889888	0.890747
C51	C	0.613373	0.390089	0.390430
C52	C	1.113373	0.890089	0.890430
C53	C	0.644831	0.464751	0.464874
C54	C	1.144831	0.964751	0.964874
C55	C	0.613730	0.566363	0.437102
C56	C	1.113730	1.066363	0.937102
C57	C	0.528084	0.565946	0.436586
C58	C	1.028084	1.065946	0.936586
C59	C	0.528062	0.438946	0.567029
C60	C	1.028062	0.938946	1.067029
C61	C	0.613712	0.436683	0.566471
C62	C	1.113712	0.936683	1.066471
C63	C	0.728690	0.464740	0.464853
C64	C	1.228690	0.964740	0.964853
C65	C	0.412589	0.464799	0.464933
C66	C	0.912589	0.964799	0.964933
C67	C	1.263426	0.464794	0.464933
C68	C	1.763426	0.964794	0.964933
C69	C	1.345740	0.464811	0.464955
C70	C	1.845740	0.964811	0.964955
C71	C	1.070338	0.213161	0.464931
C72	C	1.570338	0.713161	0.964931
C73	C	1.070370	0.105947	0.464952
C74	C	1.570370	0.605947	0.964952
C75	C	1.070332	1.018877	0.464935
C76	C	1.570332	1.518877	0.964935
C77	C	1.070287	0.909645	0.464904
C78	C	1.570287	1.409645	0.964904
C79	C	1.070254	0.464769	0.214268
C80	C	1.570254	0.964769	0.714268
C81	C	1.070375	0.464534	0.107055
C82	C	1.570375	0.964534	0.607055
C83	C	1.070359	0.464567	1.019985
C84	C	1.570359	0.964567	1.519985
C85	C	1.070345	0.464606	0.910752
C86	C	1.570345	0.964606	1.410752
H87	H	0.634401	0.314740	0.407838
H88	H	1.134401	0.814740	0.907838
H89	H	0.507817	0.493495	0.622290
H90	H	1.007817	0.993495	1.122290
H91	H	0.507172	0.314309	0.407963
H92	H	1.007172	0.814309	0.907963
F93	F	0.640111	0.412410	0.291528
F94	F	1.140111	0.912410	0.791528
H95	H	0.634106	0.623659	0.489432
H96	H	1.134106	1.123659	0.989432
F97	F	0.641719	0.595498	0.340581
F98	F	1.141719	1.095498	0.840581
F99	F	0.501013	0.641355	0.504110
F100	F	1.001013	1.141355	1.004110
F101	F	0.499577	0.411945	0.292424
F102	F	0.999577	0.911945	0.792424
H103	H	0.634044	0.361908	0.587413
H104	H	1.134044	0.861908	1.087413
H105	H	0.635129	0.487256	0.624693
H106	H	1.135129	0.987256	1.124693
H107	H	0.506478	0.366140	0.592280
H108	H	1.006478	0.866140	1.092280
H109	H	0.508074	0.587856	0.361936
H110	H	1.008074	1.087856	0.861936
