data_functionalizedCrystal
_audit_creation_method	'MofGen! by Chris Wilmer'
_symmetry_space_group_name_H-M	'P1'
_symmetry_Int_Tables_number	1
_symmetry_cell_setting	triclinic
loop_
_symmetry_equiv_pos_as_xyz
  x,y,z
_cell_length_a	16.109317
_cell_length_b	16.176319
_cell_length_c	17.699105
_cell_angle_alpha	90.000428
_cell_angle_beta	83.380042
_cell_angle_gamma	90.000852
loop_
_atom_site_label
_atom_site_type_symbol
_atom_site_fract_x
_atom_site_fract_y
_atom_site_fract_z
O1	O	-1.102965	0.068670	-0.097332
O2	O	-0.860885	0.068692	-0.109425
O3	O	-0.988755	0.068662	0.006799
O4	O	-0.975095	0.068699	-0.213556
O5	O	-0.988742	-0.068831	0.006778
O6	O	-0.860872	-0.068801	-0.109446
O7	O	-1.102952	-0.068824	-0.097353
Cu8	Cu	-0.981911	-0.081367	-0.103401
Cu9	Cu	-0.981926	0.081235	-0.103377
O10	O	-0.975082	-0.068794	-0.213577
C11	C	-0.829905	-0.000052	-0.108944
C12	C	-0.737613	-0.000044	-0.107469
N13	N	-0.981907	-0.195732	-0.103418
C14	C	-0.438553	0.074893	-0.102692
C15	C	-0.525272	0.074897	-0.104073
C16	C	-0.525278	-0.075006	-0.104086
C17	C	-0.438561	-0.075009	-0.102700
C18	C	-0.395200	-0.000057	-0.102007
C19	C	-0.568636	-0.000050	-0.104774
C20	C	-0.662661	-0.000047	-0.106272
C21	C	-0.301170	-0.000060	-0.100508
C22	C	-0.931603	-0.761125	-0.057438
C23	C	-0.931601	-0.674578	-0.057444
C24	C	-0.981929	-0.631307	-0.103370
C25	C	-1.032269	-0.674588	-0.149287
C26	C	-1.032274	-0.761134	-0.149276
C27	C	-1.032248	-0.325560	-0.149329
C28	C	-1.032237	-0.239008	-0.149338
C29	C	-0.931575	-0.239004	-0.057497
C30	C	-0.931581	-0.325550	-0.057487
C31	C	-0.981923	-0.368823	-0.103401
C32	C	-0.981925	-0.462667	-0.103393
C33	C	-0.981923	-0.537465	-0.103383
C34	C	-0.133932	-0.000073	-0.097835
C35	C	-0.226224	-0.000063	-0.099312
C36	C	-0.988256	-0.000087	0.034986
C37	C	-0.986778	-0.000096	0.119006
N38	N	-0.981937	0.195600	-0.103354
C39	C	-0.977747	0.074897	0.634742
C40	C	-0.979134	0.074891	0.555796
C41	C	-0.979819	-0.000061	0.516325
C42	C	-0.979126	-0.075012	0.555805
C43	C	-0.977745	-0.075005	0.634750
C44	C	-0.984697	-0.075041	0.237431
C45	C	-0.986076	-0.075042	0.158480
C46	C	-0.986087	0.074855	0.158477
C47	C	-0.984706	0.074862	0.237422
C48	C	-0.984017	-0.000088	0.276895
C49	C	-0.982514	-0.000081	0.362497
C50	C	-0.981316	-0.000069	0.430725
C51	C	-0.975579	-0.000048	0.758235
C52	C	-0.977051	-0.000049	0.674215
H53	H	-0.560566	0.135929	-0.104631
H54	H	-0.403252	0.135924	-0.102127
H55	H	-0.403262	-0.136046	-0.102140
O56	O	-0.976918	-0.147829	0.673044
C57	C	-0.905287	-0.193430	0.645164
H58	H	-0.855361	-0.149573	0.617465
H59	H	-0.880217	-0.227422	0.694204
H60	H	-0.922357	-0.240168	0.601282
O61	O	-1.081179	-0.196881	-0.193842
C62	C	-1.138000	-0.146822	-0.147711
H63	H	-1.112233	-0.133855	-0.091547
H64	H	-1.147192	-0.085965	-0.178145
H65	H	-1.200521	-0.180166	-0.136139
O66	O	-0.882691	-0.803027	-0.012756
C67	C	-0.838250	-0.746269	0.027755
H68	H	-0.872671	-0.684575	0.032152
H69	H	-0.833214	-0.771266	0.087277
H70	H	-0.772931	-0.737071	-0.003403
H71	H	-0.986630	-0.136080	0.126345
H72	H	-0.890617	-0.639348	-0.020053
H73	H	-0.979703	0.135918	0.523661
H74	H	-1.073239	-0.360782	-0.186716
H75	H	-0.560592	-0.136029	-0.104652
O76	O	-0.976958	0.147755	0.672988
C77	C	-0.905307	0.193337	0.645124
H78	H	-0.882323	0.172026	0.584943
H79	H	-0.921535	0.261904	0.644357
H80	H	-0.854124	0.182940	0.683541
H81	H	-0.890595	-0.360777	-0.020092
H82	H	-0.984137	-0.136070	0.269560
H83	H	-0.986651	0.135883	0.126329
O84	O	-0.882627	-0.196877	-0.012998
C85	C	-0.825792	-0.146839	-0.059138
H86	H	-0.851557	-0.133876	-0.115303
H87	H	-0.816583	-0.085979	-0.028713
H88	H	-0.763281	-0.180200	-0.070705
O89	O	-1.081082	-0.632429	-0.193878
C90	C	-1.070300	-0.546762	-0.184030
H91	H	-1.007374	-0.534941	-0.162435
H92	H	-1.072280	-0.513879	-0.240763
H93	H	-1.122525	-0.522193	-0.140931
O94	O	-1.081190	-0.803045	-0.193949
C95	C	-1.125626	-0.746297	-0.234473
H96	H	-1.091196	-0.684607	-0.238889
H97	H	-1.130671	-0.771314	-0.293986
H98	H	-1.190942	-0.737084	-0.203313
H99	H	-0.984144	0.135895	0.269555
O100	O	-0.979757	-0.147747	0.517344
C101	C	-0.981144	-0.131684	0.439203
H102	H	-0.955027	-0.067270	0.425281
H103	H	-0.941316	-0.179550	0.404394
H104	H	-1.048208	-0.135245	0.424746
