data_functionalizedCrystal
_audit_creation_method	'MofGen! by Chris Wilmer'
_symmetry_space_group_name_H-M	'P1'
_symmetry_Int_Tables_number	1
_symmetry_cell_setting	triclinic
loop_
_symmetry_equiv_pos_as_xyz
  x,y,z
_cell_length_a	12.827893
_cell_length_b	12.827892
_cell_length_c	21.395356
_cell_angle_alpha	90.022309
_cell_angle_beta	90.021602
_cell_angle_gamma	90.015553
loop_
_atom_site_label
_atom_site_type_symbol
_atom_site_fract_x
_atom_site_fract_y
_atom_site_fract_z
Zn1	Zn	1.597694	-0.416055	0.354252
Zn2	Zn	1.597581	-0.590810	0.249484
Zn3	Zn	1.422928	-0.416084	0.249492
Zn4	Zn	1.422920	-0.590755	0.354228
O5	O	1.510281	-0.503426	0.301864
O6	O	1.743915	-0.439247	0.340361
O7	O	1.574368	-0.567667	0.161807
O8	O	1.446161	-0.269844	0.263402
O9	O	1.743832	-0.567639	0.263388
O10	O	1.574561	-0.269823	0.340368
O11	O	1.446052	-0.439296	0.161813
O12	O	1.276691	-0.439243	0.263379
O13	O	1.446148	-0.567546	0.441909
O14	O	1.276685	-0.567574	0.340328
O15	O	1.574554	-0.439195	0.441926
O16	O	1.574361	-0.737038	0.263365
O17	O	1.446039	-0.736998	0.340320
C18	C	1.238771	-0.503407	0.301852
C19	C	1.122618	-0.503424	0.301862
C20	C	1.070874	-0.440004	0.340009
C21	C	0.950823	-0.440020	0.340020
C22	C	1.510215	-0.774936	0.301853
C23	C	1.510283	-0.891089	0.301869
C24	C	1.573856	-0.942859	0.263832
C25	C	1.573928	-1.062909	0.263847
C26	C	1.782851	-0.503446	0.301876
C27	C	1.899004	-0.503455	0.301881
C28	C	1.510363	-0.503361	0.465287
C29	C	1.510398	-0.503334	0.534928
C30	C	1.510375	-0.230856	0.301889
C31	C	1.510415	-0.114703	0.301899
C32	C	1.510259	-0.503415	0.139076
C33	C	1.510426	-0.503148	0.069435
C34	C	1.443601	-0.436484	0.567635
C35	C	1.443598	-0.436464	0.633070
C36	C	1.510409	-0.503284	0.665797
C37	C	1.577211	-0.570147	0.633083
C38	C	1.577205	-0.570172	0.567648
C39	C	1.604567	-0.511499	0.769482
C40	C	1.604574	-0.511467	0.834915
C41	C	1.510427	-0.503213	0.867618
C42	C	1.416269	-0.494970	0.834880
C43	C	1.416263	-0.494994	0.769445
C44	C	1.510423	-0.503265	0.736749
C45	C	1.443620	-0.436339	0.971277
C46	C	1.443615	-0.436327	1.036713
C47	C	1.577237	-0.570004	1.036724
C48	C	1.577233	-0.570021	0.971289
C49	C	1.510426	-0.503183	0.938569
H50	H	0.943496	-0.557759	0.269224
F51	F	1.645066	-1.121097	0.221278
H52	H	1.339605	-0.488241	0.861505
H53	H	1.389221	-0.381916	0.944635
H54	H	1.078041	-0.557729	0.269209
H55	H	1.389214	-0.381893	1.063342
H56	H	1.631639	-0.624408	1.063370
F57	F	1.648312	-0.641265	0.667913
F58	F	0.892664	-0.369054	0.382714
F59	F	1.644936	-0.884628	0.221253
H60	H	1.455980	-1.070189	0.334464
H61	H	1.631629	-0.624455	0.944659
H62	H	1.455913	-0.935643	0.334448
H63	H	1.631603	-0.624608	0.541019
F64	F	1.372495	-0.365352	0.532815
F65	F	1.372518	-0.365293	0.667886
F66	F	1.316056	-0.486226	0.734606
H67	H	1.681243	-0.518175	0.861565
F68	F	1.704778	-0.520292	0.734683
H69	H	1.115451	-0.385693	0.372659
