data_functionalizedCrystal
_audit_creation_method	'MofGen! by Chris Wilmer'
_symmetry_space_group_name_H-M	'P1'
_symmetry_Int_Tables_number	1
_symmetry_cell_setting	triclinic
loop_
_symmetry_equiv_pos_as_xyz
  x,y,z
_cell_length_a	13.897448
_cell_length_b	13.033748
_cell_length_c	13.032268
_cell_angle_alpha	103.297929
_cell_angle_beta	97.148041
_cell_angle_gamma	97.212326
loop_
_atom_site_label
_atom_site_type_symbol
_atom_site_fract_x
_atom_site_fract_y
_atom_site_fract_z
Zn1	Zn	-0.248571	1.547444	-0.394585
Zn2	Zn	0.084762	1.880778	-0.061251
Zn3	Zn	0.418096	2.214111	0.272082
Zn4	Zn	-0.386441	1.569898	-0.216997
Zn5	Zn	-0.053107	1.903231	0.116337
Zn6	Zn	0.280226	2.236564	0.449670
Zn7	Zn	-0.248640	1.392397	-0.239526
Zn8	Zn	0.084693	1.725730	0.093808
Zn9	Zn	0.418027	2.059063	0.427141
Zn10	Zn	-0.433314	1.369815	-0.417062
Zn11	Zn	-0.099980	1.703148	-0.083728
Zn12	Zn	0.233353	2.036482	0.249605
O13	O	-0.329241	1.469888	-0.317042
O14	O	0.004092	1.803222	0.016291
O15	O	0.337425	2.136555	0.349624
O16	O	-0.247214	1.699046	-0.352192
O17	O	0.086119	2.032379	-0.018859
O18	O	0.419452	2.365713	0.314474
O19	O	-0.348574	1.565199	-0.071365
O20	O	-0.015240	1.898532	0.261969
O21	O	0.318093	2.231866	0.595302
O22	O	-0.113646	1.413018	-0.260116
O23	O	0.219688	1.746351	0.073217
O24	O	0.553021	2.079684	0.406550
O25	O	-0.348507	1.715542	-0.221719
O26	O	-0.015173	2.048876	0.111614
O27	O	0.318160	2.382209	0.444948
O28	O	-0.113595	1.526930	-0.374038
O29	O	0.219738	1.860264	-0.040704
O30	O	0.553072	2.193597	0.292629
O31	O	-0.247332	1.434790	-0.087917
O32	O	0.086001	1.768123	0.245417
O33	O	0.419335	2.101457	0.578750
O34	O	-0.292783	1.240778	-0.281911
O35	O	0.040551	1.574111	0.051422
O36	O	0.373884	1.907445	0.384755
O37	O	-0.428395	1.374531	-0.562701
O38	O	-0.095061	1.707864	-0.229367
O39	O	0.238272	2.041197	0.103966
O40	O	-0.428462	1.224187	-0.412346
O41	O	-0.095128	1.557521	-0.079013
O42	O	0.238205	1.890854	0.254320
O43	O	-0.292665	1.505034	-0.546187
O44	O	0.040668	1.838367	-0.212854
O45	O	0.374001	2.171701	0.120480
O46	O	-0.527644	1.543303	-0.243514
O47	O	-0.194310	1.876636	0.089819
O48	O	0.139023	2.209969	0.423153
O49	O	-0.562081	1.396303	-0.390501
O50	O	-0.228748	1.729636	-0.057168
O51	O	0.104586	2.062970	0.276166
C52	C	-0.365717	1.193946	-0.352013
C53	C	-0.032383	1.527280	-0.018680
C54	C	0.300950	1.860613	0.314653
C55	C	-0.381348	1.075894	-0.366999
C56	C	-0.048014	1.409227	-0.033666
C57	C	0.285319	1.742560	0.299668
C58	C	-0.579862	1.469815	-0.317021
C59	C	-0.246529	1.803148	0.016312
C60	C	0.086805	2.136481	0.349645
C61	C	-0.687070	1.469876	-0.317036
C62	C	-0.353737	1.803209	0.016298
C63	C	-0.020404	2.136543	0.349631
C64	C	-0.321111	1.031430	-0.309247
C65	C	0.012222	1.364764	0.024086
C66	C	0.345555	1.698097	0.357419
C67	C	-0.337265	0.909417	-0.324735
C68	C	-0.003932	1.242750	0.008599
C69	C	0.329402	1.576084	0.341932
C70	C	-0.883359	1.469979	-0.317088
C71	C	-0.550026	1.803312	0.016245
C72	C	-0.216693	2.136646	0.349579
C73	C	-0.774131	1.469918	-0.317062
C74	C	-0.440798	1.803252	0.016271
C75	C	-0.107464	2.136585	0.349604
C76	C	-0.077641	1.469988	-0.317083
C77	C	0.255692	1.803322	0.016251
C78	C	0.589025	2.136655	0.349584
C79	C	0.029576	1.470031	-0.317100
C80	C	0.362909	1.803364	0.016233
C81	C	0.696242	2.136698	0.349567
C82	C	-0.365751	1.434759	-0.594057
C83	C	-0.032417	1.768092	-0.260724
C84	C	0.300916	2.101425	0.072610
C85	C	-0.381309	1.419789	-0.712104
C86	C	-0.047976	1.753122	-0.378771
C87	C	0.285358	2.086455	-0.045437
C88	C	-0.292624	1.746908	-0.281935
C89	C	0.040709	2.080241	0.051398
C90	C	0.374042	2.413575	0.384731
C91	C	-0.277020	1.864957	-0.266975
C92	C	0.056313	2.198291	0.066358
C93	C	0.389646	2.531624	0.399692
C94	C	-0.321089	1.477685	-0.756562
C95	C	0.012244	1.811018	-0.423229
C96	C	0.345578	2.144352	-0.089896
C97	C	-0.337168	1.462214	-0.878570
C98	C	-0.003834	1.795547	-0.545237
C99	C	0.329499	2.128881	-0.211904
C100	C	-0.292796	1.504943	-0.041098
C101	C	0.040537	1.838276	0.292236
C102	C	0.373870	2.171609	0.625569
C103	C	-0.276939	1.520118	0.076975
C104	C	0.056394	1.853452	0.410308
C105	C	0.389727	2.186785	0.743642
H106	H	-0.257585	1.083694	-0.248334
H107	H	0.075748	1.417027	0.084999
H108	H	0.409082	1.750360	0.418332
H109	H	-0.213488	0.917216	-0.206058
H110	H	0.119845	1.250549	0.127275
H111	H	0.453178	1.583883	0.460609
H112	H	-0.444763	1.358761	-0.764368
H113	H	-0.111430	1.692094	-0.431035
H114	H	0.221903	2.025428	-0.097702
H115	H	-0.400627	1.401182	-0.930831
H116	H	-0.067293	1.734515	-0.597498
H117	H	0.266040	2.067849	-0.264164
H118	H	-0.444880	1.023631	-0.427905
H119	H	-0.111546	1.356965	-0.094572
H120	H	0.221787	1.690298	0.238762
H121	H	-0.400801	0.857158	-0.385645
H122	H	-0.067468	1.190491	-0.052311
H123	H	0.265865	1.523825	0.281022
H124	H	-0.257626	1.538702	-0.704300
H125	H	0.075707	1.872035	-0.370966
H126	H	0.409041	2.205368	-0.037633
H127	H	-0.213470	1.581138	-0.870767
H128	H	0.119863	1.914471	-0.537434
H129	H	0.453197	2.247805	-0.204101
