data_functionalizedCrystal
_audit_creation_method	'MofGen! by Chris Wilmer'
_symmetry_space_group_name_H-M	'P1'
_symmetry_Int_Tables_number	1
_symmetry_cell_setting	triclinic
loop_
_symmetry_equiv_pos_as_xyz
  x,y,z
_cell_length_a	9.065218
_cell_length_b	17.699083
_cell_length_c	7.540329
_cell_angle_alpha	89.995522
_cell_angle_beta	89.996962
_cell_angle_gamma	84.149450
loop_
_atom_site_label
_atom_site_type_symbol
_atom_site_fract_x
_atom_site_fract_y
_atom_site_fract_z
O1	O	1.957110	0.110973	-0.147491
O2	O	2.457110	0.610973	0.352509
O3	O	1.527555	0.120075	-0.147494
O4	O	2.027555	0.620075	0.352506
O5	O	1.754468	0.005430	-0.147477
O6	O	2.254468	0.505430	0.352523
O7	O	1.730196	0.225619	-0.147508
O8	O	2.230196	0.725619	0.352492
O9	O	1.754455	0.005428	0.147488
O10	O	2.254455	0.505428	0.647488
O11	O	1.527542	0.120074	0.147471
O12	O	2.027542	0.620074	0.647471
O13	O	1.957096	0.110971	0.147474
O14	O	2.457096	0.610971	0.647474
Cu15	Cu	1.742318	0.115522	0.174405
Cu16	Cu	2.242318	0.615522	0.674405
Cu17	Cu	1.742334	0.115524	-0.174425
Cu18	Cu	2.242334	0.615524	0.325575
O19	O	1.730183	0.225617	0.147457
O20	O	2.230183	0.725617	0.647457
C21	C	1.472588	0.119200	-0.000012
C22	C	1.972588	0.619200	0.499988
C23	C	1.308822	0.116584	-0.000012
C24	C	1.808822	0.616584	0.499988
C25	C	1.753592	-0.022775	0.000006
C26	C	2.253592	0.477225	0.500006
C27	C	1.750983	-0.106813	0.000007
C28	C	2.250983	0.393187	0.500007
C29	C	1.884176	-0.154396	0.000010
C30	C	2.384176	0.345604	0.500010
C31	C	1.881716	-0.233358	-0.000006
C32	C	2.381716	0.266642	0.499994
C33	C	1.746060	-0.264737	-0.000012
C34	C	2.246060	0.235263	0.499988
C35	C	1.612857	-0.217149	-0.000021
C36	C	2.112857	0.282851	0.499979
C37	C	1.615319	-0.138188	-0.000018
C38	C	2.115319	0.361812	0.499982
C39	C	1.602925	-0.535589	-0.000035
C40	C	2.102925	-0.035589	0.499965
C41	C	1.600474	-0.614556	-0.000033
C42	C	2.100474	-0.114556	0.499967
C43	C	1.869322	-0.630760	-0.000023
C44	C	2.369322	-0.130760	0.499977
C45	C	1.871784	-0.551799	-0.000020
C46	C	2.371784	-0.051799	0.499980
C47	C	1.738581	-0.504217	-0.000038
C48	C	2.238581	-0.004217	0.499962
C49	C	1.741251	-0.418597	-0.000025
C50	C	2.241251	0.081403	0.499975
C51	C	1.743390	-0.350355	-0.000013
C52	C	2.243390	0.149645	0.499987
C53	C	2.012064	0.111847	-0.000012
C54	C	2.512064	0.611847	0.499988
C55	C	2.175829	0.114463	-0.000023
C56	C	2.675829	0.614463	0.499977
C57	C	1.731059	0.253822	-0.000030
C58	C	2.231059	0.753822	0.499970
C59	C	1.733669	0.337860	-0.000042
C60	C	2.233669	0.837860	0.499958
N61	N	1.742317	0.115521	0.419754
N62	N	2.242317	0.615521	0.919754
N63	N	1.742346	0.115520	-0.419774
N64	N	2.242346	0.615520	0.080226
H65	H	1.994642	-0.128854	0.000026
H66	H	2.494642	0.371146	0.500026
H67	H	1.982248	-0.526255	-0.000006
H68	H	2.482248	-0.026255	0.499994
H69	H	1.977782	-0.669510	-0.000018
H70	H	2.477782	-0.169510	0.499982
H71	H	1.494463	-0.496857	-0.000050
H72	H	1.994463	0.003143	0.499950
C73	C	1.441762	-0.693957	-0.151684
C74	C	1.941762	-0.193957	0.348316
C75	C	1.451353	-0.649051	-0.000057
C76	C	1.951353	-0.149051	0.499943
H77	H	1.349710	-0.715257	-0.151689
H78	H	1.849710	-0.215257	0.348311
H79	H	1.448313	-0.663487	-0.254525
H80	H	1.948313	-0.163487	0.245475
H81	H	1.520750	-0.733592	-0.151650
H82	H	2.020750	-0.233592	0.348350
H83	H	1.372371	-0.609413	-0.000098
H84	H	1.872371	-0.109413	0.499902
H85	H	1.444787	-0.679523	0.102811
H86	H	1.944787	-0.179523	0.602811
C87	C	2.110140	-0.271464	-0.151606
C88	C	2.610140	0.228536	0.348394
C89	C	2.028132	-0.285656	0.000008
C90	C	2.528132	0.214344	0.500008
H91	H	2.200541	-0.303747	-0.151589
H92	H	2.700541	0.196253	0.348411
H93	H	2.054520	-0.281077	-0.254455
H94	H	2.554520	0.218923	0.245545
H95	H	2.130998	-0.219943	-0.151578
H96	H	2.630998	0.280057	0.348422
H97	H	2.007266	-0.337175	-0.000026
H98	H	2.507266	0.162825	0.499974
H99	H	2.083765	-0.276048	0.102884
H100	H	2.583765	0.223952	0.602884
C101	C	1.489703	-0.330993	-0.000010
C102	C	1.989703	0.169007	0.499990
C103	C	1.463740	-0.251638	-0.000022
C104	C	1.963740	0.248362	0.499978
H105	H	1.397640	-0.352283	0.000006
H106	H	1.897640	0.147717	0.500006
H107	H	1.544525	-0.347257	-0.102864
H108	H	2.044525	0.152743	0.397136
H109	H	1.544532	-0.347258	0.102858
H110	H	2.044532	0.152742	0.602858
H111	H	1.408920	-0.235373	-0.102897
H112	H	1.908920	0.264627	0.397103
H113	H	1.408895	-0.235368	0.102844
H114	H	1.908895	0.264632	0.602844
C115	C	1.349318	-0.130097	-0.000016
C116	C	1.849318	0.369903	0.499984
C117	C	1.468908	-0.085882	-0.000017
C118	C	1.968908	0.414118	0.499983
H119	H	1.258930	-0.097804	-0.000012
H120	H	1.758930	0.402196	0.499988
H121	H	1.353957	-0.161227	-0.102869
H122	H	1.853957	0.338773	0.397131
H123	H	1.353952	-0.161236	0.102854
H124	H	1.853952	0.338764	0.602854
H125	H	1.464281	-0.054747	-0.102894
H126	H	1.964281	0.445253	0.397106
H127	H	1.464267	-0.054738	0.102847
H128	H	1.964267	0.445262	0.602847
