data_functionalizedCrystal
_audit_creation_method	'MofGen! by Chris Wilmer'
_symmetry_space_group_name_H-M	'P1'
_symmetry_Int_Tables_number	1
_symmetry_cell_setting	triclinic
loop_
_symmetry_equiv_pos_as_xyz
  x,y,z
_cell_length_a	13.635800
_cell_length_b	10.992421
_cell_length_c	19.361597
_cell_angle_alpha	95.561537
_cell_angle_beta	98.514812
_cell_angle_gamma	108.764763
loop_
_atom_site_label
_atom_site_type_symbol
_atom_site_fract_x
_atom_site_fract_y
_atom_site_fract_z
V1	V	-1.999397	-0.179113	-0.217848
O2	O	-1.979557	0.007215	-0.213711
O3	O	-1.988584	-0.353813	-0.216348
O4	O	-1.963015	-0.176969	-0.312863
O5	O	-2.005303	-0.170853	-0.116528
V6	V	-2.241055	-0.156754	-0.205730
O7	O	-2.130254	-0.228160	-0.244429
O8	O	-2.335297	-0.107707	-0.179150
O9	O	-2.140265	0.017946	-0.207230
O10	O	-2.319593	-0.343083	-0.209867
O11	O	-2.293848	-0.165014	-0.307050
O12	O	-2.165834	-0.158898	-0.110715
V13	V	-1.499397	-0.179113	-0.217848
O14	O	-1.479557	0.007215	-0.213711
O15	O	-1.488584	-0.353813	-0.216348
O16	O	-1.463015	-0.176969	-0.312863
O17	O	-1.505303	-0.170853	-0.116528
V18	V	-1.741055	-0.156754	-0.205730
O19	O	-1.630254	-0.228160	-0.244429
O20	O	-1.835297	-0.107707	-0.179150
O21	O	-1.640265	0.017946	-0.207230
O22	O	-1.819593	-0.343083	-0.209867
O23	O	-1.793848	-0.165014	-0.307050
O24	O	-1.665834	-0.158898	-0.110715
C25	C	-1.914735	-0.396382	-0.212909
C26	C	-1.946456	-0.539205	-0.212317
C27	C	-1.881554	-0.734462	-0.207538
C28	C	-1.848423	-0.585820	-0.207878
C29	C	-1.999027	-0.577436	-0.147156
C30	C	-2.031328	-0.725975	-0.146466
C31	C	-2.061685	-0.765386	-0.280041
C32	C	-2.026784	-0.616881	-0.281455
C33	C	-1.882119	-0.170798	-0.336023
C34	C	-1.893104	-0.170201	-0.413698
C35	C	-2.045786	0.060508	-0.210667
C36	C	-2.003683	0.203329	-0.211264
C37	C	-2.078401	-0.165073	-0.087552
C38	C	-2.057036	-0.165664	-0.009876
C39	C	-1.414735	-0.396382	-0.212909
C40	C	-1.446456	-0.539205	-0.212317
C41	C	-1.816870	-0.176337	0.546264
C42	C	-1.836939	-0.175791	0.473278
C43	C	-1.933238	-0.169082	0.440335
C44	C	-2.009484	-0.162952	0.480381
C45	C	-1.989416	-0.163512	0.553364
C46	C	-2.007032	-0.087615	0.333837
C47	C	-2.027093	-0.087048	0.260855
C48	C	-1.995138	-0.167363	0.215229
C49	C	-1.943099	-0.248229	0.242593
C50	C	-1.923032	-0.248789	0.315577
C51	C	-1.955008	-0.168476	0.361197
C52	C	-1.940661	-0.172909	0.096051
C53	C	-1.960737	-0.172371	0.023063
C54	C	-2.133279	-0.159519	0.030168
C55	C	-2.113205	-0.160071	0.103153
C56	C	-2.016892	-0.166760	0.136091
C57	C	-1.382119	-0.170798	-0.336023
C58	C	-1.393104	-0.170201	-0.413698
C59	C	-1.545786	0.060508	-0.210667
C60	C	-1.503683	0.203329	-0.211264
C61	C	-1.578401	-0.165073	-0.087552
C62	C	-1.557036	-0.165664	-0.009876
C63	C	-1.489362	-0.176348	-0.453737
C64	C	-1.499693	-0.175770	-0.526720
C65	C	-1.413766	-0.169054	-0.559665
C66	C	-1.317499	-0.162902	-0.519620
C67	C	-1.307167	-0.163471	-0.446638
C68	C	-1.460729	-0.172366	0.023051
C69	C	-1.440636	-0.172906	0.096037
C70	C	-1.516853	-0.166753	0.136094
C71	C	-1.613166	-0.160047	0.103163
C72	C	-1.633256	-0.159498	0.030179
C73	C	-1.381554	-0.734462	-0.207538
C74	C	-1.348423	-0.585820	-0.207878
C75	C	-1.499027	-0.577436	-0.147156
C76	C	-1.531328	-0.725975	-0.146466
C77	C	-1.561685	-0.765386	-0.280041
C78	C	-1.526784	-0.616881	-0.281455
H79	H	-1.856382	-0.781170	-0.253809
C80	C	-1.476519	-0.584789	-0.346592
H81	H	-1.406863	-0.524324	-0.331721
H82	H	-1.474288	-0.662107	-0.371815
H83	H	-1.517413	-0.548038	-0.376422
H84	H	-1.807524	-0.560345	-0.254437
C85	C	-2.125364	-0.576164	-0.291286
H86	H	-2.172473	-0.624612	-0.333431
H87	H	-2.159397	-0.592736	-0.252053
H88	H	-2.105038	-0.486021	-0.294446
C89	C	-2.239205	-0.152142	-0.006061
H90	H	-2.240238	-0.152681	-0.055262
H91	H	-2.295341	-0.224902	0.000980
H92	H	-2.247378	-0.074272	0.013738
C93	C	-1.201282	-0.156730	-0.402604
H94	H	-1.151598	-0.152664	-0.432684
H95	H	-1.175690	-0.081380	-0.367599
H96	H	-1.211233	-0.232011	-0.380376
C97	C	-1.765770	-0.514543	-0.140818
H98	H	-1.745209	-0.423350	-0.140800
H99	H	-1.795291	-0.535394	-0.100200
H100	H	-1.705805	-0.540900	-0.140090
C101	C	-2.181941	-0.820943	-0.284658
H102	H	-2.216557	-0.801721	-0.326320
H103	H	-2.203393	-0.912506	-0.286041
H104	H	-2.200060	-0.782854	-0.244457
H105	H	-2.045451	-0.815208	-0.329346
C106	C	-1.922392	-0.503750	-0.078008
H107	H	-1.858340	-0.449662	-0.088704
H108	H	-1.953259	-0.451727	-0.052884
H109	H	-1.908279	-0.564416	-0.049780
H110	H	-1.362207	-0.178366	0.122838
C111	C	-1.475015	-0.749216	-0.076578
H112	H	-1.494225	-0.840020	-0.075539
H113	H	-1.400830	-0.712644	-0.073097
H114	H	-1.495267	-0.709333	-0.037978
H115	H	-2.071644	-0.547205	-0.147908
C116	C	-1.739201	-0.152144	-0.006037
H117	H	-1.740259	-0.152691	-0.055240
H118	H	-1.795324	-0.224905	0.001017
H119	H	-1.747372	-0.074275	0.013767
H120	H	-1.307524	-0.560345	-0.254437
H121	H	-1.898656	-0.177377	-0.009535
C122	C	-1.650379	-0.781212	-0.146311
H123	H	-1.670908	-0.872282	-0.145889
H124	H	-1.665106	-0.740447	-0.105479
H125	H	-1.688569	-0.764996	-0.187474
H126	H	-1.500486	-0.167217	0.195520
C127	C	-1.976519	-0.584789	-0.346592
H128	H	-1.906863	-0.524324	-0.331721
H129	H	-1.974288	-0.662107	-0.371815
H130	H	-2.017413	-0.548038	-0.376422
H131	H	-1.578087	-0.180785	-0.559315
C132	C	-1.347539	-0.797563	-0.270041
H133	H	-1.407511	-0.862420	-0.298968
H134	H	-1.316458	-0.733030	-0.297127
H135	H	-1.297675	-0.836201	-0.252585
C136	C	-1.425147	-0.168442	-0.639946
H137	H	-1.494790	-0.173079	-0.659069
H138	H	-1.376085	-0.090633	-0.648773
H139	H	-1.411610	-0.241263	-0.661526
C140	C	-1.710937	-0.183713	0.582491
H141	H	-1.668414	-0.187302	0.548187
H142	H	-1.675541	-0.108893	0.617196
H143	H	-1.723507	-0.259522	0.604429
H144	H	-1.675215	-0.155034	0.135789
H145	H	-1.989637	-0.743168	-0.094730
H146	H	-1.650705	-0.806524	-0.283457
C147	C	-1.222993	-0.155530	-0.555868
H148	H	-1.242947	-0.156090	-0.605068
H149	H	-1.166098	-0.077676	-0.536074
H150	H	-1.201643	-0.228308	-0.548833
H151	H	-1.398657	-0.177376	-0.009555
H152	H	-1.545451	-0.815208	-0.329346
H153	H	-2.175281	-0.155066	0.135753
H154	H	-1.287237	-0.533070	-0.158237
C155	C	-1.753076	-0.182528	0.429230
H156	H	-1.692841	-0.186583	0.459301
H157	H	-1.781288	-0.257882	0.394228
H158	H	-1.733347	-0.107251	0.406998
C159	C	-1.321091	-0.761778	-0.140523
H160	H	-1.369952	-0.810928	-0.114805
H161	H	-1.277905	-0.809480	-0.153550
H162	H	-1.278127	-0.681758	-0.111859
H163	H	-1.571644	-0.547205	-0.147908
H164	H	-1.442296	-0.522880	-0.095971
H165	H	-1.880663	-0.314635	0.337854
C166	C	-2.150382	-0.781209	-0.146321
H167	H	-2.178809	-0.712849	-0.146678
H168	H	-2.184615	-0.844686	-0.187087
H169	H	-2.161165	-0.820143	-0.105092
C170	C	-1.625358	-0.576152	-0.291285
H171	H	-1.618788	-0.510958	-0.253180
H172	H	-1.631871	-0.542832	-0.334558
H173	H	-1.686234	-0.649545	-0.292165
H174	H	-1.917073	-0.313625	0.205445
C175	C	-1.821091	-0.761778	-0.140523
H176	H	-1.869952	-0.810928	-0.114805
H177	H	-1.777905	-0.809480	-0.153550
H178	H	-1.778127	-0.681758	-0.111859
H179	H	-2.069454	-0.021192	0.238582
H180	H	-2.033061	-0.022211	0.370982
C181	C	-1.834730	-0.180289	0.132284
H182	H	-1.792207	-0.183887	0.097981
H183	H	-1.799331	-0.105464	0.166986
H184	H	-1.847302	-0.256094	0.154226
C185	C	-1.583887	-0.183730	-0.417508
H186	H	-1.563963	-0.183199	-0.368307
H187	H	-1.605242	-0.110966	-0.424549
H188	H	-1.640772	-0.261596	-0.437314
H189	H	-2.087893	-0.157494	0.453553
H190	H	-2.051499	-0.158515	0.585963
