data_functionalizedCrystal
_audit_creation_method	'MofGen! by Chris Wilmer'
_symmetry_space_group_name_H-M	'P1'
_symmetry_Int_Tables_number	1
_symmetry_cell_setting	triclinic
loop_
_symmetry_equiv_pos_as_xyz
  x,y,z
_cell_length_a	6.817900
_cell_length_b	17.982959
_cell_length_c	10.992410
_cell_angle_alpha	94.193478
_cell_angle_beta	108.764651
_cell_angle_gamma	102.451857
loop_
_atom_site_label
_atom_site_type_symbol
_atom_site_fract_x
_atom_site_fract_y
_atom_site_fract_z
V1	V	-4.082291	-0.105413	-0.401130
O2	O	-4.073912	0.005065	-0.392942
O3	O	-4.028461	-0.209015	-0.398917
O4	O	-4.060375	-0.103791	-0.575834
O5	O	-4.041777	-0.100887	-0.214800
V6	V	-4.563191	-0.092198	-0.378779
O7	O	-4.349303	-0.134400	-0.450158
O8	O	-4.746375	-0.063211	-0.329750
O9	O	-4.393814	0.011405	-0.380991
O10	O	-4.688967	-0.202676	-0.386967
O11	O	-4.721101	-0.096723	-0.565108
O12	O	-4.361900	-0.093820	-0.204074
C13	C	-3.871284	-0.234271	-0.392726
C14	C	-3.908735	-0.318968	-0.392082
C15	C	-4.109221	-0.362639	-0.398207
C16	C	-4.144402	-0.442221	-0.397609
C17	C	-3.979090	-0.478130	-0.390877
C18	C	-3.778590	-0.434453	-0.384754
C19	C	-3.743416	-0.354873	-0.385362
C20	C	-3.920439	-0.755389	-0.382307
C21	C	-3.955627	-0.834974	-0.381696
C22	C	-4.321425	-0.842736	-0.394555
C23	C	-4.286251	-0.763157	-0.395162
C24	C	-4.085759	-0.719488	-0.389047
C25	C	-4.047615	-0.633196	-0.389698
C26	C	-4.017227	-0.564419	-0.390216
C27	C	-3.911992	-0.100046	-0.618399
C28	C	-3.975320	-0.099406	-0.761224
C29	C	-3.844212	-0.093573	-0.956318
C30	C	-3.778364	-0.094555	-0.807840
C31	C	-4.150562	-0.174528	-0.838711
C32	C	-4.215077	-0.173864	-0.987274
C33	C	-4.136942	-0.028401	-0.948502
C34	C	-4.066341	-0.028045	-0.799487
C35	C	-4.214332	0.036657	-0.387179
C36	C	-4.156121	0.121353	-0.387831
C37	C	-4.173624	-0.097567	-0.161502
C38	C	-4.089534	-0.098203	-0.018676
H39	H	-3.643996	-0.463697	-0.379280
H40	H	-4.307656	-0.477775	-0.402600
C41	C	-4.458267	-0.182698	-1.044920
H42	H	-4.517234	-0.186682	-0.977525
H43	H	-4.484775	-0.138999	-1.084729
H44	H	-4.522829	-0.227886	-1.108059
C45	C	-4.541979	-0.890776	-0.401304
H46	H	-4.539270	-0.943316	-0.399995
H47	H	-4.574577	-0.872372	-0.328739
H48	H	-4.648154	-0.886287	-0.479363
H49	H	-4.420866	-0.733924	-0.400638
H50	H	-3.705768	-0.145404	-0.783284
C51	C	-3.522885	-0.306832	-0.378622
H52	H	-3.525618	-0.254296	-0.379961
H53	H	-3.416695	-0.311315	-0.300576
H54	H	-3.490307	-0.325241	-0.451200
C55	C	-3.699905	-0.707362	-0.375569
H56	H	-3.606489	-0.740146	-0.371458
H57	H	-3.715364	-0.683118	-0.450846
H58	H	-3.641779	-0.669195	-0.300223
H59	H	-4.243836	-0.333408	-0.403678
H60	H	-4.299039	-0.180791	-0.809939
C61	C	-4.172399	-0.245258	-1.050150
H62	H	-4.115864	-0.274391	-0.984836
H63	H	-4.302607	-0.276138	-1.111972
H64	H	-4.072349	-0.229286	-1.092411
H65	H	-3.743496	-0.039186	-0.974870
H66	H	-3.821003	-0.864208	-0.376222
H67	H	-3.939934	0.027527	-0.746846
H68	H	-3.646284	-0.040539	-0.754224
H69	H	-3.804069	-0.143726	-1.004566
C70	C	-4.067052	-0.246105	-0.804499
H71	H	-3.925503	-0.230365	-0.743052
H72	H	-4.157403	-0.277865	-0.768361
H73	H	-4.066685	-0.274235	-0.880986
C74	C	-4.021267	0.048664	-0.975599
H75	H	-3.942967	0.038987	-1.029968
H76	H	-4.123717	0.075381	-1.017729
H77	H	-3.925698	0.079160	-0.895806
H78	H	-4.208721	-0.027163	-0.766971
C79	C	-4.377605	-0.032082	-1.003695
H80	H	-4.448912	-0.075918	-1.069183
H81	H	-4.435564	-0.035866	-0.935851
H82	H	-4.396809	0.013261	-1.040131
