data_functionalizedCrystal
_audit_creation_method	'MofGen! by Chris Wilmer'
_symmetry_space_group_name_H-M	'P1'
_symmetry_Int_Tables_number	1
_symmetry_cell_setting	triclinic
loop_
_symmetry_equiv_pos_as_xyz
  x,y,z
_cell_length_a	19.188930
_cell_length_b	10.868271
_cell_length_c	11.792254
_cell_angle_alpha	90.005308
_cell_angle_beta	83.671689
_cell_angle_gamma	90.018197
loop_
_atom_site_label
_atom_site_type_symbol
_atom_site_fract_x
_atom_site_fract_y
_atom_site_fract_z
O1	O	0.926951	0.102719	0.141693
O2	O	0.723748	0.102634	0.160768
O3	O	0.830276	0.102670	-0.014013
O4	O	0.820423	0.102683	0.316474
O5	O	0.830267	-0.101975	-0.014019
O6	O	0.723740	-0.102010	0.160761
O7	O	0.926942	-0.101926	0.141687
Zn8	Zn	0.825340	-0.134460	0.151223
Zn9	Zn	0.825351	0.135168	0.151232
O10	O	0.820414	-0.101961	0.316467
C11	C	0.697729	0.000301	0.160147
C12	C	0.620214	0.000269	0.158292
N13	N	0.825337	-0.318474	0.151216
C14	C	0.825348	-0.569480	0.151229
C15	C	0.825339	-0.429802	0.151225
C16	C	0.575874	0.000292	0.260848
C17	C	0.503040	0.000306	0.259106
C18	C	0.474550	0.000321	0.154803
C19	C	0.518900	0.000290	0.052234
C20	C	0.591732	0.000264	0.053979
N21	N	0.366119	0.070016	0.075078
N22	N	0.296931	0.070043	0.073427
C23	C	0.255112	0.000396	0.149539
N24	N	0.285092	-0.069265	0.227381
N25	N	0.354287	-0.069287	0.229035
C26	C	0.395577	0.000348	0.152899
C27	C	0.131796	0.000432	0.250213
C28	C	0.058962	0.000438	0.248466
C29	C	0.074823	0.000434	0.041591
C30	C	0.147656	0.000416	0.043340
C31	C	0.176138	0.000421	0.147654
C32	C	0.952961	0.000410	0.142308
C33	C	1.030476	0.000450	0.144162
N34	N	0.825359	0.319182	0.151229
C35	C	0.829651	0.000348	-0.056298
C36	C	0.827793	0.000348	-0.182283
C37	C	0.826284	0.000352	-0.284597
C38	C	0.824396	0.000362	-0.412955
C39	C	0.821039	0.000364	0.358752
C40	C	0.822897	0.000371	0.484737
H41	H	0.466932	0.000321	0.342621
C42	C	0.023049	0.105672	0.424246
C43	C	0.010219	0.000466	0.361205
H44	H	-0.007046	0.105691	0.493844
H45	H	0.070497	0.105652	0.440209
H46	H	0.014387	0.177024	0.381444
H47	H	0.018886	-0.070887	0.404004
H48	H	-0.037239	0.000474	0.345245
C49	C	0.680474	0.000315	0.355387
C50	C	0.607182	0.000324	0.375507
H51	H	0.699801	0.000352	0.426175
H52	H	0.695648	-0.071063	0.313205
H53	H	0.695677	0.071666	0.313152
H54	H	0.591978	-0.071032	0.417736
H55	H	0.592001	0.071709	0.417708
H56	H	0.051627	0.000523	-0.043335
H57	H	0.495699	0.000319	-0.032691
C58	C	0.183628	0.105618	-0.132436
C59	C	0.196400	0.000410	-0.069393
H60	H	0.213725	0.105613	-0.202033
H61	H	0.136181	0.105624	-0.148400
H62	H	0.192329	0.176969	-0.089634
H63	H	0.187694	-0.070941	-0.112192
H64	H	0.243859	0.000393	-0.053432
C65	C	0.600093	0.000267	-0.150682
C66	C	0.640476	0.000253	-0.058759
H67	H	0.630188	0.000271	-0.220280
H68	H	0.571341	-0.071087	-0.147066
H69	H	0.571371	0.071642	-0.147048
H70	H	0.669194	-0.071127	-0.062388
H71	H	0.669241	0.071614	-0.062376
C72	C	0.204530	0.105605	0.372202
C73	C	0.163111	0.000416	0.364869
H74	H	0.223858	0.105594	0.442989
H75	H	0.241360	0.105590	0.311377
H76	H	0.176459	0.176969	0.367230
H77	H	0.191184	-0.070948	0.369832
H78	H	0.126277	0.000420	0.425711
