data_functionalizedCrystal
_audit_creation_method	'MofGen! by Chris Wilmer'
_symmetry_space_group_name_H-M	'P1'
_symmetry_Int_Tables_number	1
_symmetry_cell_setting	triclinic
loop_
_symmetry_equiv_pos_as_xyz
  x,y,z
_cell_length_a	27.780882
_cell_length_b	27.780884
_cell_length_c	27.780936
_cell_angle_alpha	90.002146
_cell_angle_beta	120.002121
_cell_angle_gamma	60.000211
loop_
_atom_site_label
_atom_site_type_symbol
_atom_site_fract_x
_atom_site_fract_y
_atom_site_fract_z
O1	O	-0.424594	-0.330211	-0.014321
O2	O	-0.326024	-0.260213	0.014251
O3	O	-0.424590	-0.260212	-0.084318
O4	O	-0.326028	-0.330211	0.084247
O5	O	-0.344531	-0.340272	-0.084318
O6	O	-0.245964	-0.340272	0.014251
O7	O	-0.344534	-0.410270	-0.014321
Zn8	Zn	-0.282538	-0.387983	-0.000035
Zn9	Zn	-0.388020	-0.282500	-0.000035
O10	O	-0.245968	-0.410271	0.084248
C11	C	-0.177735	-0.120429	0.029862
C12	C	-0.211527	-0.056933	0.025772
C13	C	-0.119398	-0.149663	0.030267
C14	C	-0.177732	-0.207597	0.029867
C15	C	-0.211521	-0.237302	0.025783
C16	C	-0.119395	-0.236699	0.030273
C17	C	-0.090569	-0.207595	0.029862
C18	C	-0.031163	-0.237298	0.025772
C19	C	-0.206428	-0.149665	0.030273
C20	C	0.016829	-0.261294	0.022466
C21	C	-0.238829	-0.005635	0.022467
C22	C	-0.238820	-0.261300	0.022482
C23	C	0.077039	-0.291400	0.018320
C24	C	-0.273080	0.058720	0.018322
C25	C	-0.273067	-0.291407	0.018343
C26	C	-0.492843	-0.550044	-0.029964
C27	C	-0.459053	-0.613538	-0.025878
C28	C	-0.464145	-0.520810	-0.030368
C29	C	-0.580009	-0.462878	-0.029964
C30	C	-0.639418	-0.433174	-0.025878
C31	C	-0.551179	-0.433776	-0.030369
C32	C	-0.492840	-0.462879	-0.029960
C33	C	-0.459047	-0.433176	-0.025869
C34	C	-0.551182	-0.520808	-0.030373
C35	C	-0.431744	-0.409180	-0.022562
C36	C	-0.431752	-0.664836	-0.022575
C37	C	-0.687413	-0.409177	-0.022576
C38	C	-0.397493	-0.379075	-0.018415
C39	C	-0.397504	-0.729191	-0.018432
C40	C	-0.747626	-0.379070	-0.018434
C41	C	-0.492830	-0.207601	-0.372394
C42	C	-0.459039	-0.237304	-0.402098
C43	C	-0.551168	-0.149670	-0.401496
C44	C	-0.492830	-0.207601	-0.285228
C45	C	-0.459038	-0.237305	-0.221733
C46	C	-0.551167	-0.149670	-0.314462
C47	C	-0.579995	-0.120435	-0.372393
C48	C	-0.639402	-0.056941	-0.402096
C49	C	-0.464134	-0.236704	-0.314463
C50	C	-0.687395	-0.005643	-0.426092
C51	C	-0.431738	-0.261301	-0.426095
C52	C	-0.431738	-0.261302	-0.170435
C53	C	-0.747606	0.058712	-0.456197
C54	C	-0.397489	-0.291407	-0.456201
C55	C	-0.397488	-0.291407	-0.106080
O56	O	0.234706	-0.410266	-0.014340
O57	O	0.094709	-0.340265	0.014229
O58	O	0.094703	-0.340270	-0.084338
O59	O	0.234712	-0.410261	0.084228
O60	O	0.094700	-0.260209	-0.084343
O61	O	0.094707	-0.260204	0.014225
O62	O	0.234703	-0.330205	-0.014344
Zn63	Zn	0.164705	-0.282493	-0.000061
Zn64	Zn	0.164708	-0.387977	-0.000054
O65	O	0.234710	-0.330200	0.084223
O66	O	-0.344548	0.249048	-0.014342
O67	O	-0.245980	0.080484	0.014226
O68	O	-0.344550	0.179043	-0.084341
O69	O	-0.245978	0.150489	0.084225
O70	O	-0.424607	0.179041	-0.084336
O71	O	-0.326036	0.080482	0.014231
O72	O	-0.424605	0.249046	-0.014337
Zn73	Zn	-0.388031	0.164764	-0.000053
Zn74	Zn	-0.282553	0.164766	-0.000059
O75	O	-0.326034	0.150487	0.084230
O76	O	-0.905274	0.249036	-0.494995
O77	O	-0.765274	0.080473	-0.425001
O78	O	-0.765270	0.179035	-0.424994
O79	O	-0.905278	0.150474	-0.495002
O80	O	-0.765273	0.179037	-0.505054
O81	O	-0.765276	0.080475	-0.505062
O82	O	-0.905276	0.249039	-0.575056
Zn83	Zn	-0.835276	0.164757	-0.552770
Zn84	Zn	-0.835274	0.164754	-0.447287
O85	O	-0.905280	0.150476	-0.575063
O86	O	-0.326023	-0.330216	-0.575063
O87	O	-0.424590	-0.260212	-0.505065
O88	O	-0.326021	-0.260215	-0.505059
O89	O	-0.424591	-0.330213	-0.575069
O90	O	-0.245963	-0.340273	-0.425000
O91	O	-0.344532	-0.340271	-0.425006
O92	O	-0.245965	-0.410274	-0.495003
Zn93	Zn	-0.282537	-0.387984	-0.447293
Zn94	Zn	-0.388017	-0.282503	-0.552775
O95	O	-0.344533	-0.410272	-0.495009
C96	C	-0.090561	-0.550050	0.372322
C97	C	-0.031155	-0.613544	0.402025
C98	C	-0.119389	-0.520815	0.401426
C99	C	-0.177727	-0.462883	0.285158
C100	C	-0.211519	-0.433179	0.221663
C101	C	-0.206422	-0.433781	0.314394
C102	C	-0.177726	-0.462884	0.372324
C103	C	-0.211517	-0.433181	0.402029
C104	C	-0.119390	-0.520814	0.314392
C105	C	-0.238817	-0.409185	0.426026
C106	C	0.016839	-0.664842	0.426021
C107	C	-0.238820	-0.409182	0.170365
C108	C	-0.273066	-0.379080	0.456133
C109	C	0.077050	-0.729197	0.456125
C110	C	-0.273070	-0.379076	0.106010
C111	C	-0.177762	-0.120444	-0.372420
C112	C	-0.211555	-0.056950	-0.402125
C113	C	-0.206458	-0.149681	-0.401521
C114	C	-0.090591	-0.207607	-0.285252
C115	C	-0.031180	-0.237308	-0.221756
C116	C	-0.119419	-0.236711	-0.314485
C117	C	-0.177760	-0.207611	-0.372416
C118	C	-0.211552	-0.237316	-0.402117
C119	C	-0.119421	-0.149677	-0.314489
C120	C	-0.238853	-0.261315	-0.426113
C121	C	-0.238857	-0.005653	-0.426124
C122	C	0.016816	-0.261302	-0.170458
C123	C	-0.273103	-0.291422	-0.456216
C124	C	-0.273109	0.058702	-0.456232
C125	C	0.077031	-0.291405	-0.106103
C126	C	0.507173	-0.462861	0.372301
C127	C	0.540965	-0.433156	0.402003
C128	C	0.535870	-0.520791	0.401406
C129	C	0.420003	-0.462865	0.285136
C130	C	0.360593	-0.433163	0.221641
C131	C	0.448833	-0.520795	0.314373
C132	C	0.507174	-0.550028	0.372304
C133	C	0.540966	-0.613522	0.402009
C134	C	0.448832	-0.433760	0.314370
C135	C	0.568269	-0.664819	0.426008
C136	C	0.568267	-0.409158	0.425999
C137	C	0.312596	-0.409168	0.170343
C138	C	0.602520	-0.729174	0.456115
C139	C	0.602517	-0.379051	0.456103
C140	C	0.252382	-0.379065	0.105988
C141	C	-0.580006	0.194621	-0.372405
C142	C	-0.639410	0.190527	-0.402104
C143	C	-0.551179	0.195025	-0.401509
C144	C	-0.492844	0.194637	-0.285244
C145	C	-0.459054	0.190560	-0.221751
C146	C	-0.464149	0.195040	-0.314481
C147	C	-0.492843	0.194623	-0.372410
C148	C	-0.459052	0.190531	-0.402115
C149	C	-0.551179	0.195038	-0.314476
C150	C	-0.431752	0.187224	-0.426113
C151	C	-0.687401	0.187219	-0.426097
C152	C	-0.431754	0.187264	-0.170455
C153	C	-0.397503	0.183076	-0.456220
C154	C	-0.747610	0.183069	-0.456198
C155	C	-0.397506	0.183131	-0.106101
O156	O	-0.424649	0.249028	-0.575092
O157	O	-0.326070	0.080463	-0.505095
O158	O	-0.424629	0.179019	-0.505082
O159	O	-0.326090	0.150472	-0.575105
O160	O	-0.344563	0.179022	-0.425026
O161	O	-0.246004	0.080465	-0.425039
O162	O	-0.344583	0.249031	-0.495036
Zn163	Zn	-0.282581	0.164748	-0.447327
Zn164	Zn	-0.388072	0.164745	-0.552804
O165	O	-0.246024	0.150474	-0.495049
C166	C	-0.177741	0.134906	0.372299
C167	C	-0.211532	0.138998	0.402004
C168	C	-0.119406	0.134505	0.401398
C169	C	-0.177741	0.134893	0.285133
C170	C	-0.211531	0.138970	0.221639
C171	C	-0.119406	0.134492	0.314364
C172	C	-0.090579	0.134909	0.372293
C173	C	-0.031175	0.139004	0.401992
C174	C	-0.206435	0.134489	0.314370
C175	C	0.016816	0.142313	0.425985
C176	C	-0.238832	0.142305	0.426002
C177	C	-0.238830	0.142265	0.170343
C178	C	0.077024	0.146463	0.456086
C179	C	-0.273080	0.146452	0.456109
C180	C	-0.273079	0.146399	0.105989
H181	H	-0.575305	-0.386179	-0.031019
C182	C	-0.650664	-0.101760	-0.501411
C183	C	-0.583744	-0.117998	-0.465758
H184	H	-0.670773	-0.082215	-0.541083
H185	H	-0.676197	-0.076039	-0.488193
H186	H	-0.650404	-0.136017	-0.499142
H187	H	-0.584004	-0.083741	-0.468024
H188	H	-0.558205	-0.143721	-0.478980
H189	H	-0.095297	-0.126201	-0.291020
H190	H	-0.417179	-0.284296	-0.290989
C191	C	-0.546063	-0.155877	-0.225633
C192	C	-0.583720	-0.117972	-0.282769
H193	H	-0.566157	-0.136305	-0.206068
H194	H	-0.500661	-0.166914	-0.204447
H195	H	-0.545842	-0.190116	-0.227637
H196	H	-0.583936	-0.083735	-0.280765
H197	H	-0.629133	-0.106927	-0.303960
C198	C	-0.347346	0.145800	-0.279843
C199	C	-0.400780	0.195930	-0.282799
H200	H	-0.308226	0.146349	-0.260281
H201	H	-0.360391	0.145621	-0.318599
H202	H	-0.337175	0.111431	-0.258635
H203	H	-0.410955	0.230300	-0.304011
H204	H	-0.387733	0.196114	-0.244037
H205	H	-0.253366	-0.386183	0.290920
C206	C	0.584270	-0.568719	0.501345
C207	C	0.599251	-0.552463	0.465658
H208	H	0.623399	-0.588264	0.541009
H209	H	0.571243	-0.594444	0.488140
H210	H	0.548014	-0.534470	0.499094
H211	H	0.635504	-0.586713	0.467905
H212	H	0.612287	-0.526736	0.478867
H213	H	-0.095252	-0.544286	0.449028
C214	C	-0.029427	-0.609627	0.320613
C215	C	-0.086821	-0.552495	0.282704
H216	H	-0.009321	-0.629181	0.301051
H217	H	-0.042602	-0.630826	0.331633
H218	H	0.002571	-0.607617	0.354862
H219	H	-0.118822	-0.554505	0.248457
H220	H	-0.073648	-0.531291	0.271676
H221	H	0.424703	-0.544265	0.290900
H222	H	-0.095272	-0.126190	0.030925
H223	H	-0.417193	-0.544288	-0.031010
C224	C	-0.029450	-0.320448	-0.225670
C225	C	-0.086848	-0.300967	-0.282801
H226	H	-0.009342	-0.360117	-0.206114
H227	H	-0.042623	-0.296252	-0.204470
H228	H	0.002545	-0.318197	-0.227683
H229	H	-0.118845	-0.303214	-0.280789
H230	H	-0.073677	-0.325170	-0.304006
H231	H	-0.253409	-0.126206	-0.449117
H232	H	-0.575305	-0.544283	-0.031026
C233	C	0.453899	-0.350016	0.320594
C234	C	0.416252	-0.369503	0.282684
H235	H	0.433780	-0.310346	0.301033
H236	H	0.499293	-0.374208	0.331612
H237	H	0.454145	-0.352271	0.354844
H238	H	0.416010	-0.367252	0.248435
H239	H	0.370846	-0.345305	0.271658
C240	C	-0.546099	0.196171	-0.485244
C241	C	-0.583744	0.195898	-0.465763
H242	H	-0.566204	0.196714	-0.524911
H243	H	-0.500698	0.161806	-0.461043
H244	H	-0.545873	0.230186	-0.483000
H245	H	-0.583964	0.161881	-0.468003
H246	H	-0.629156	0.230267	-0.489971
C247	C	-0.641140	0.196187	-0.320694
C248	C	-0.583748	0.195931	-0.282787
H249	H	-0.661246	0.196742	-0.301131
H250	H	-0.627963	0.161810	-0.331710
H251	H	-0.673139	0.230190	-0.354946
H252	H	-0.551747	0.161925	-0.248538
H253	H	-0.596924	0.230311	-0.271763
H254	H	-0.095283	0.133836	0.290888
H255	H	-0.253386	0.133844	0.290899
C256	C	-0.134023	0.183804	0.468921
C257	C	-0.086838	0.133655	0.465644
H258	H	-0.113915	0.183286	0.508580
H259	H	-0.172949	0.183974	0.455719
H260	H	-0.147196	0.218161	0.444694
H261	H	-0.073669	0.099297	0.489868
H262	H	-0.047900	0.133479	0.478853
C263	C	-0.133994	-0.304259	-0.018977
C264	C	-0.086820	-0.300954	0.031158
H265	H	-0.113883	-0.343927	-0.018428
H266	H	-0.147155	-0.280062	-0.053342
H267	H	-0.172932	-0.291038	-0.019156
H268	H	-0.047884	-0.314171	0.031334
H269	H	-0.073650	-0.325160	0.065531
C270	C	-0.289010	-0.060855	0.031434
C271	C	-0.269791	-0.117986	0.031170
H272	H	-0.328122	-0.041304	0.031994
H273	H	-0.299198	-0.039654	-0.002943
H274	H	-0.252748	-0.062865	0.065438
H275	H	-0.306051	-0.115976	-0.002836
H276	H	-0.259606	-0.139193	0.065551
