data_functionalizedCrystal
_audit_creation_method	'MofGen! by Chris Wilmer'
_symmetry_space_group_name_H-M	'P1'
_symmetry_Int_Tables_number	1
_symmetry_cell_setting	triclinic
loop_
_symmetry_equiv_pos_as_xyz
  x,y,z
_cell_length_a	17.699097
_cell_length_b	15.944493
_cell_length_c	16.776229
_cell_angle_alpha	89.999222
_cell_angle_beta	89.989262
_cell_angle_gamma	83.381738
loop_
_atom_site_label
_atom_site_type_symbol
_atom_site_fract_x
_atom_site_fract_y
_atom_site_fract_z
O1	O	1.004234	0.106278	-0.066344
O2	O	1.337567	0.439611	0.266989
O3	O	1.670900	0.772944	0.600323
O4	O	0.783878	0.120086	-0.066330
O5	O	1.117211	0.453420	0.267004
O6	O	1.450544	0.786753	0.600337
O7	O	0.900096	-0.009109	-0.066344
O8	O	1.233429	0.324225	0.266989
O9	O	1.566763	0.657558	0.600323
O10	O	0.888015	0.235473	-0.066330
O11	O	1.221349	0.568806	0.267003
O12	O	1.554682	0.902139	0.600337
O13	O	0.900081	-0.009116	0.066233
O14	O	1.233414	0.324217	0.399566
O15	O	1.566747	0.657550	0.732899
O16	O	0.783862	0.120078	0.066247
O17	O	1.117196	0.453412	0.399580
O18	O	1.450529	0.786745	0.732913
O19	O	1.004218	0.106270	0.066232
O20	O	1.337552	0.439603	0.399566
O21	O	1.670885	0.772937	0.732899
Zn22	Zn	0.894038	0.113173	0.087289
Zn23	Zn	1.227371	0.446506	0.420622
Zn24	Zn	1.560705	0.779840	0.753956
Zn25	Zn	0.894058	0.113183	-0.087386
Zn26	Zn	1.227391	0.446517	0.245947
Zn27	Zn	1.560725	0.779850	0.579280
O28	O	0.888000	0.235465	0.066247
O29	O	1.221333	0.568798	0.399580
O30	O	1.554667	0.902131	0.732913
C31	C	0.755672	0.119586	-0.000040
C32	C	1.089006	0.452919	0.333293
C33	C	1.422339	0.786252	0.666627
C34	C	0.671653	0.118096	-0.000035
C35	C	1.004986	0.451429	0.333298
C36	C	1.338319	0.784762	0.666632
C37	C	0.155929	0.108967	-0.072335
C38	C	0.489262	0.442300	0.260998
C39	C	0.822596	0.775633	0.594331
C40	C	0.234875	0.110361	-0.072331
C41	C	0.568208	0.443694	0.261002
C42	C	0.901542	0.777028	0.594336
C43	C	0.274334	0.111055	-0.000060
C44	C	0.607667	0.444389	0.333273
C45	C	0.941000	0.777722	0.666606
C46	C	0.234843	0.110346	0.072211
C47	C	0.568176	0.443680	0.405544
C48	C	0.901510	0.777013	0.738878
C49	C	0.155899	0.108946	0.072206
C50	C	0.489232	0.442279	0.405539
C51	C	0.822566	0.775613	0.738873
C52	C	0.553216	0.115993	0.072232
C53	C	0.886549	0.449326	0.405566
C54	C	1.219882	0.782659	0.738899
C55	C	0.632165	0.117395	0.072232
C56	C	0.965498	0.450729	0.405565
C57	C	1.298832	0.784062	0.738898
C58	C	0.632192	0.117407	-0.072305
C59	C	0.965525	0.450741	0.261028
C60	C	1.298859	0.784074	0.594362
C61	C	0.553248	0.116007	-0.072310
C62	C	0.886581	0.449340	0.261024
C63	C	1.219914	0.782674	0.594357
C64	C	0.513764	0.115294	-0.000039
C65	C	0.847098	0.448627	0.333294
C66	C	1.180431	0.781961	0.666628
C67	C	0.428162	0.113781	-0.000044
C68	C	0.761496	0.447114	0.333289
C69	C	1.094829	0.780447	0.666622
C70	C	0.359934	0.112575	-0.000054
C71	C	0.693267	0.445908	0.333279
C72	C	1.026600	0.779241	0.666612
C73	C	0.899595	-0.040406	-0.000059
C74	C	1.232928	0.292927	0.333274
C75	C	1.566261	0.626260	0.666608
C76	C	0.898114	-0.133652	-0.000069
C77	C	1.231448	0.199682	0.333264
C78	C	1.564781	0.533015	0.666598
C79	C	0.966523	-0.369552	-0.000058
C80	C	1.299856	-0.036219	0.333275
C81	C	1.633190	0.297115	0.666608
C82	C	0.929640	-0.420040	-0.065423
C83	C	1.262974	-0.086707	0.267911
C84	C	1.596307	0.246626	0.601244
C85	C	0.895371	-0.304367	-0.000059
C86	C	1.228705	0.028966	0.333274
C87	C	1.562038	0.362299	0.666607
C88	C	0.929609	-0.420024	0.065287
C89	C	1.262942	-0.086691	0.398621
C90	C	1.596275	0.246642	0.731954
C91	C	0.892727	-0.469271	-0.000046
C92	C	1.226061	-0.135938	0.333287
C93	C	1.559394	0.197395	0.666621
C94	C	0.858508	-0.353628	-0.065477
C95	C	1.191841	-0.020294	0.267856
C96	C	1.525175	0.313039	0.601189
C97	C	0.858486	-0.353608	0.065291
C98	C	1.191820	-0.020275	0.398625
C99	C	1.525153	0.313059	0.731958
C100	C	0.821552	-0.404064	-0.000089
C101	C	1.154885	-0.070730	0.333244
C102	C	1.488218	0.262603	0.666578
C103	C	0.896897	-0.209370	-0.000067
C104	C	1.230230	0.123963	0.333266
C105	C	1.563563	0.457296	0.666599
C106	C	0.891196	-0.564265	-0.000044
C107	C	1.224530	-0.230932	0.333290
C108	C	1.557863	0.102401	0.666623
C109	C	1.032424	0.106771	-0.000059
C110	C	1.365757	0.440104	0.333274
C111	C	1.699090	0.773437	0.666607
C112	C	1.116443	0.108261	-0.000069
C113	C	1.449777	0.441594	0.333264
C114	C	1.783110	0.774927	0.666597
C115	C	0.888501	0.266762	-0.000040
C116	C	1.221835	0.600096	0.333293
C117	C	1.555168	0.933429	0.666627
C118	C	0.889982	0.360008	-0.000035
C119	C	1.223315	0.693341	0.333298
C120	C	1.556648	1.026675	0.666631
N121	N	0.894029	0.113165	0.206500
N122	N	1.227363	0.446499	0.539834
N123	N	1.560696	0.779832	0.873167
N124	N	0.894073	0.113184	-0.206598
N125	N	1.227406	0.446518	0.126736
N126	N	1.560739	0.779851	0.460069
C127	C	0.945507	0.055981	0.248211
C128	C	1.278840	0.389315	0.581544
C129	C	1.612173	0.722648	0.914878
C130	C	0.945511	0.055981	0.331663
C131	C	1.278844	0.389314	0.664997
C132	C	1.612178	0.722647	0.998330
C133	C	0.894041	0.113168	0.373403
C134	C	1.227374	0.446502	0.706736
C135	C	1.560708	0.779835	1.040070
C136	C	0.842558	0.170355	0.331686
C137	C	1.175892	0.503689	0.665020
C138	C	1.509225	0.837022	0.998353
C139	C	0.842551	0.170351	0.248236
C140	C	1.175884	0.503685	0.581569
C141	C	1.509218	0.837018	0.914902
C142	C	0.842586	0.170372	0.668234
C143	C	1.175919	0.503705	1.001567
C144	C	1.509252	0.837038	1.334900
C145	C	0.842598	0.170373	0.751690
C146	C	1.175932	0.503706	1.085023
C147	C	1.509265	0.837040	1.418357
C148	C	0.945545	0.056001	0.751661
C149	C	1.278879	0.389334	1.084994
C150	C	1.612212	0.722668	1.418328
C151	C	0.945538	0.055997	0.668210
C152	C	1.278872	0.389330	1.001544
C153	C	1.612205	0.722664	1.334877
C154	C	0.894053	0.113180	0.626501
C155	C	1.227387	0.446514	0.959834
C156	C	1.560720	0.779847	1.293168
C157	C	0.894048	0.113179	0.536013
C158	C	1.227382	0.446513	0.869346
C159	C	1.560715	0.779846	1.202679
C160	C	0.894049	0.113174	0.463890
C161	C	1.227382	0.446507	0.797223
C162	C	1.560716	0.779841	1.130557
H163	H	0.123750	0.108380	0.131052
H164	H	0.457083	0.441713	0.464386
H165	H	0.790417	0.775047	0.797719
Cl166	Cl	0.284448	0.111218	0.163066
Cl167	Cl	0.617782	0.444551	0.496400
Cl168	Cl	0.951115	0.777884	0.829733
Cl169	Cl	1.061145	-0.345613	-0.000163
Cl170	Cl	1.394478	-0.012279	0.333171
Cl171	Cl	1.727811	0.321054	0.666504
Cl172	Cl	0.503647	0.115138	-0.163168
Cl173	Cl	0.836980	0.448471	0.170165
Cl174	Cl	1.170313	0.781805	0.503499
Cl175	Cl	0.106331	0.108100	-0.163195
Cl176	Cl	0.439664	0.441433	0.170138
Cl177	Cl	0.772997	0.774767	0.503471
Cl178	Cl	1.010247	-0.015896	0.615741
Cl179	Cl	1.343581	0.317437	0.949074
Cl180	Cl	1.676914	0.650771	1.282407
Cl181	Cl	0.777887	0.242271	0.804162
Cl182	Cl	1.111221	0.575604	1.137496
Cl183	Cl	1.444554	0.908938	1.470829
Cl184	Cl	0.726856	-0.427753	-0.000135
Cl185	Cl	1.060189	-0.094419	0.333198
Cl186	Cl	1.393522	0.238914	0.666532
Cl187	Cl	1.010268	-0.015892	0.804100
Cl188	Cl	1.343601	0.317442	1.137433
Cl189	Cl	1.676935	0.650775	1.470767
Cl190	Cl	0.681834	0.118298	-0.163162
Cl191	Cl	1.015167	0.451631	0.170172
Cl192	Cl	1.348500	0.784964	0.503505
H193	H	0.987427	0.009416	0.365624
H194	H	1.320760	0.342750	0.698957
H195	H	1.654094	0.676083	1.032290
H196	H	0.267021	0.110931	-0.131177
H197	H	0.600355	0.444264	0.202156
H198	H	0.933688	0.777597	0.535489
H199	H	0.800647	0.216916	0.365676
H200	H	1.133980	0.550249	0.699009
H201	H	1.467313	0.883583	1.032342
Cl202	Cl	0.777867	0.242260	0.615805
Cl203	Cl	1.111200	0.575594	0.949138
Cl204	Cl	1.444533	0.908927	1.282471
H205	H	0.800632	0.216915	0.214276
H206	H	1.133966	0.550249	0.547609
H207	H	1.467299	0.883582	0.880942
Cl208	Cl	0.681769	0.118267	0.163094
Cl209	Cl	1.015103	0.451600	0.496427
Cl210	Cl	1.348436	0.784933	0.829760
Cl211	Cl	0.812140	-0.308782	0.150621
Cl212	Cl	1.145473	0.024552	0.483955
Cl213	Cl	1.478807	0.357885	0.817288
Cl214	Cl	0.976041	-0.464824	-0.150747
Cl215	Cl	1.309374	-0.131491	0.182586
Cl216	Cl	1.642708	0.201842	0.515920
Cl217	Cl	0.503587	0.115119	0.163088
Cl218	Cl	0.836920	0.448452	0.496421
Cl219	Cl	1.170254	0.781786	0.829754
H220	H	0.828483	-0.324743	-0.120797
H221	H	1.161816	0.008590	0.212536
H222	H	1.495150	0.341924	0.545870
Cl223	Cl	1.010219	-0.015913	0.195747
Cl224	Cl	1.343553	0.317420	0.529080
Cl225	Cl	1.676886	0.650754	0.862414
Cl226	Cl	0.976011	-0.464790	0.150601
Cl227	Cl	1.309344	-0.131456	0.483935
Cl228	Cl	1.642678	0.201877	0.817268
