data_functionalizedCrystal
_audit_creation_method	'MofGen! by Chris Wilmer'
_symmetry_space_group_name_H-M	'P1'
_symmetry_Int_Tables_number	1
_symmetry_cell_setting	triclinic
loop_
_symmetry_equiv_pos_as_xyz
  x,y,z
_cell_length_a	8.597187
_cell_length_b	10.723024
_cell_length_c	7.088929
_cell_angle_alpha	83.718137
_cell_angle_beta	88.663715
_cell_angle_gamma	84.901628
loop_
_atom_site_label
_atom_site_type_symbol
_atom_site_fract_x
_atom_site_fract_y
_atom_site_fract_z
O1	O	2.034828	0.225548	-0.494165
O2	O	1.585477	0.233954	-0.420150
O3	O	1.820518	0.048367	-0.458858
O4	O	1.799787	0.411135	-0.455457
O5	O	1.851928	0.023507	-0.146055
O6	O	1.616887	0.209094	-0.107347
O7	O	2.066239	0.200689	-0.181362
Cu8	Cu	1.844431	0.202622	-0.115794
Cu9	Cu	1.807284	0.232021	-0.485719
O10	O	1.831197	0.386276	-0.142655
C11	C	1.543645	0.219236	-0.254271
C12	C	1.372203	0.212403	-0.226032
C13	C	1.834715	-0.010590	-0.302210
C14	C	1.830200	-0.149228	-0.301473
C15	C	1.961717	-0.221767	-0.323139
C16	C	1.957054	-0.365057	-0.322378
C17	C	2.108070	0.215407	-0.347245
C18	C	2.279511	0.222241	-0.375496
C19	C	1.817000	0.445233	-0.299306
C20	C	1.821513	0.583872	-0.300055
N21	N	1.870569	0.181943	0.144390
N22	N	1.781159	0.252690	-0.745904
H23	H	1.331319	0.235891	-0.525061
O24	O	1.310378	0.195905	-0.047649
C25	C	1.234499	0.083828	-0.024954
H26	H	1.284856	0.018255	-0.131533
H27	H	1.253135	0.035647	0.125277
H28	H	1.104151	0.106952	-0.050251
H29	H	2.077765	-0.177790	-0.342242
O30	O	1.687190	-0.341695	-0.278268
C31	C	1.665109	-0.252769	-0.439285
H32	H	1.732135	-0.289504	-0.565429
H33	H	1.535430	-0.236854	-0.473206
H34	H	1.709905	-0.160043	-0.409422
H35	H	2.069643	-0.427398	-0.340917
H36	H	1.963250	0.108633	0.210783
O37	O	1.691679	-0.201555	-0.278408
C38	C	1.623465	-0.175852	-0.102464
H39	H	1.671769	-0.088725	-0.055506
H40	H	1.491397	-0.158301	-0.117751
H41	H	1.652065	-0.259742	0.008135
O42	O	1.670795	0.340226	0.174671
C43	C	1.743080	0.428278	0.046994
H44	H	1.860385	0.383885	-0.002144
H45	H	1.665043	0.457348	-0.080980
H46	H	1.762263	0.514801	0.120858
