data_functionalizedCrystal
_audit_creation_method	'MofGen! by Chris Wilmer'
_symmetry_space_group_name_H-M	'P1'
_symmetry_Int_Tables_number	1
_symmetry_cell_setting	triclinic
loop_
_symmetry_equiv_pos_as_xyz
  x,y,z
_cell_length_a	16.625548
_cell_length_b	16.625545
_cell_length_c	16.959447
_cell_angle_alpha	90.028780
_cell_angle_beta	89.980925
_cell_angle_gamma	89.974895
loop_
_atom_site_label
_atom_site_type_symbol
_atom_site_fract_x
_atom_site_fract_y
_atom_site_fract_z
Zn1	Zn	1.232660	0.320973	-0.446934
Zn2	Zn	1.732660	0.820973	0.053066
Zn3	Zn	1.232563	0.455817	-0.314756
Zn4	Zn	1.732563	0.955817	0.185244
Zn5	Zn	1.097825	0.321005	-0.314768
Zn6	Zn	1.597825	0.821005	0.185232
Zn7	Zn	1.097788	0.455770	-0.446892
Zn8	Zn	1.597788	0.955770	0.053108
O9	O	1.165209	0.388391	-0.380837
O10	O	1.665209	0.888391	0.119163
O11	O	1.345479	0.338867	-0.429412
O12	O	1.845479	0.838867	0.070588
O13	O	1.214664	0.437967	-0.204146
O14	O	1.714664	0.937967	0.295854
O15	O	1.115767	0.208168	-0.332323
O16	O	1.615767	0.708168	0.167677
O17	O	1.345408	0.437936	-0.332301
O18	O	1.845408	0.937936	0.167699
O19	O	1.214830	0.208145	-0.429424
O20	O	1.714830	0.708145	0.070576
O21	O	1.115673	0.338921	-0.204156
O22	O	1.615673	0.838921	0.295844
O23	O	0.984988	0.338875	-0.332283
O24	O	1.484988	0.838875	0.167717
O25	O	1.115705	0.437855	-0.557508
O26	O	1.615705	0.937855	-0.057508
O27	O	0.984961	0.437886	-0.429353
O28	O	1.484961	0.937886	0.070647
O29	O	1.214794	0.338821	-0.557539
O30	O	1.714794	0.838821	-0.057539
O31	O	1.214629	0.568643	-0.332261
O32	O	1.714629	1.068643	0.167739
O33	O	1.115610	0.568608	-0.429341
O34	O	1.615610	1.068608	0.070659
C35	C	0.955718	0.388380	-0.380815
C36	C	1.455718	0.888380	0.119185
C37	C	0.866097	0.388394	-0.380824
C38	C	1.366097	0.888394	0.119176
C39	C	0.537921	0.388399	-0.380858
C40	C	1.037921	0.888399	0.119142
C41	C	0.629230	0.388396	-0.380846
C42	C	1.129230	0.888396	0.119154
C43	C	0.702006	0.388397	-0.380841
C44	C	1.202006	0.888397	0.119159
C45	C	0.793321	0.388393	-0.380830
C46	C	1.293321	0.888393	0.119170
C47	C	1.165127	0.597882	-0.380812
C48	C	1.665127	1.097882	0.119188
C49	C	1.165166	0.687503	-0.380828
C50	C	1.665166	1.187503	0.119172
C51	C	1.165297	1.015679	-0.380922
C52	C	1.665297	1.515679	0.119078
C53	C	1.165258	0.924370	-0.380898
C54	C	1.665258	1.424370	0.119102
C55	C	1.165231	0.851594	-0.380874
C56	C	1.665231	1.351594	0.119126
C57	C	1.165193	0.760280	-0.380851
C58	C	1.665193	1.260280	0.119149
C59	C	1.375518	0.388403	-0.380860
C60	C	1.875518	0.888403	0.119140
C61	C	1.465139	0.388409	-0.380870
C62	C	1.965139	0.888409	0.119130
C63	C	1.165256	0.388329	-0.587006
C64	C	1.665256	0.888329	-0.087006
C65	C	1.165276	0.388303	-0.674862
C66	C	1.665276	0.888303	-0.174862
C67	C	1.165306	1.178082	-0.380889
C68	C	1.665306	1.678082	0.119111
C69	C	1.165330	1.088461	-0.380935
C70	C	1.665330	1.588461	0.119065
C71	C	1.216826	0.439858	-0.716133
C72	C	1.716826	0.939858	-0.216133
C73	C	1.113739	0.336727	-0.716145
C74	C	1.613739	0.836727	-0.216145
C75	C	1.113753	0.336703	-0.798691
C76	C	1.613753	0.836703	-0.298691
C77	C	1.165304	0.388259	-0.839962
C78	C	1.665304	0.888259	-0.339962
C79	C	1.216840	0.439837	-0.798687
C80	C	1.716840	0.939837	-0.298687
C81	C	1.062212	0.285131	-0.839972
C82	C	1.562212	0.785131	-0.339972
C83	C	1.062223	0.285106	-0.922523
C84	C	1.562223	0.785106	-0.422523
C85	C	1.113778	0.336658	-0.963796
C86	C	1.613778	0.836658	-0.463796
C87	C	1.165317	0.388238	-0.922515
C88	C	1.665317	0.888238	-0.422515
C89	C	1.216868	0.439793	-0.963786
C90	C	1.716868	0.939793	-0.463786
C91	C	1.268412	0.491370	-0.922507
C92	C	1.768412	0.991370	-0.422507
C93	C	1.268395	0.491389	-0.839959
C94	C	1.768395	0.991389	-0.339959
C95	C	1.113794	0.336639	-1.046344
C96	C	1.613794	0.836639	-0.546344
C97	C	1.216881	0.439773	-1.046340
C98	C	1.716881	0.939773	-0.546340
C99	C	1.165209	0.388395	-0.175471
C100	C	1.665209	0.888395	0.324529
C101	C	1.165345	0.388194	-0.087615
C102	C	1.665345	0.888194	0.412385
H103	H	1.310381	0.533349	-0.956121
H104	H	1.810381	1.033349	-0.456121
H105	H	1.071827	0.294647	-1.079950
H106	H	1.571827	0.794647	-0.579950
H107	H	1.071765	0.294758	-0.682538
H108	H	1.571765	0.794758	-0.182538
H109	H	1.310359	0.533381	-0.806342
H110	H	1.810359	1.033381	-0.306342
O111	O	1.266985	0.489931	-1.086305
O112	O	1.766985	0.989931	-0.586305
C113	C	1.369272	0.592187	-1.077581
C114	C	1.869272	1.092187	-0.577581
C115	C	1.312559	0.535439	-1.032223
C116	C	1.812559	1.035439	-0.532223
H117	H	1.406146	0.628983	-1.033875
H118	H	1.906146	1.128983	-0.533875
H119	H	1.332282	0.634396	-1.116187
H120	H	1.832282	1.134396	-0.616187
H121	H	1.411418	0.555145	-1.116269
H122	H	1.911418	1.055145	-0.616269
H123	H	1.270402	0.572416	-0.993492
H124	H	1.770402	1.072416	-0.493492
H125	H	1.349600	0.493228	-0.993667
H126	H	1.849600	0.993228	-0.493667
O127	O	1.267006	0.489876	-0.676078
O128	O	1.767006	0.989876	-0.176078
C129	C	1.404136	0.529065	-0.650882
C130	C	1.904136	1.029065	-0.150882
C131	C	1.347402	0.472354	-0.696279
C132	C	1.847402	0.972354	-0.196279
H133	H	1.469147	0.514930	-0.667211
H134	H	1.969147	1.014930	-0.167211
H135	H	1.395348	0.520226	-0.584783
H136	H	1.895348	1.020226	-0.084783
H137	H	1.389904	0.594070	-0.667088
H138	H	1.889904	1.094070	-0.167088
H139	H	1.361599	0.407327	-0.680139
H140	H	1.861599	0.907327	-0.180139
H141	H	1.356200	0.481263	-0.762367
H142	H	1.856200	0.981263	-0.262367
H143	H	1.020237	0.243163	-0.806364
H144	H	1.520237	0.743163	-0.306364
H145	H	1.020253	0.243109	-0.956126
H146	H	1.520253	0.743109	-0.456126
