data_functionalizedCrystal
_audit_creation_method	'MofGen! by Chris Wilmer'
_symmetry_space_group_name_H-M	'P1'
_symmetry_Int_Tables_number	1
_symmetry_cell_setting	triclinic
loop_
_symmetry_equiv_pos_as_xyz
  x,y,z
_cell_length_a	14.519709
_cell_length_b	13.596369
_cell_length_c	14.853567
_cell_angle_alpha	90.002388
_cell_angle_beta	83.657538
_cell_angle_gamma	90.000316
loop_
_atom_site_label
_atom_site_type_symbol
_atom_site_fract_x
_atom_site_fract_y
_atom_site_fract_z
O1	O	1.223822	0.081668	0.118173
O2	O	0.955340	0.081698	0.132090
O3	O	1.096752	0.081671	-0.006095
O4	O	1.082409	0.081695	0.256359
O5	O	1.096735	-0.081912	-0.006088
O6	O	0.955322	-0.081884	0.132098
O7	O	1.223805	-0.081915	0.118181
Zn8	Zn	1.089561	-0.107872	0.125141
Zn9	Zn	1.089584	0.107655	0.125131
O10	O	1.082392	-0.081887	0.256366
C11	C	0.920971	-0.000089	0.131446
C12	C	0.818591	-0.000078	0.129502
C13	C	0.443698	-0.000123	0.122347
C14	C	0.548005	-0.000110	0.124334
C15	C	0.631141	-0.000100	0.125924
C16	C	0.735455	-0.000089	0.127912
N17	N	1.089552	-0.254964	0.125147
C18	C	1.089556	-0.343962	0.125149
C19	C	1.089565	-0.455613	0.125143
C20	C	1.089577	-0.544604	0.125133
C21	C	1.089588	-0.656262	0.125127
C22	C	1.258173	-0.000125	0.118826
C23	C	1.360553	-0.000130	0.120769
C24	C	1.096094	-0.000121	-0.039680
C25	C	1.094146	-0.000124	-0.139765
N26	N	1.089600	0.254747	0.125117
C27	C	1.083050	-0.000093	0.289952
C28	C	1.084998	-0.000084	0.390036
C29	C	1.177233	-0.000130	0.802606
C30	C	1.009231	-0.000110	0.823821
C31	C	1.007400	-0.000101	0.729787
C32	C	1.090486	-0.000107	0.672157
C33	C	1.175404	-0.000124	0.708562
C34	C	0.922484	-0.000094	0.693375
C35	C	0.920649	-0.000086	0.599335
C36	C	1.003737	-0.000085	0.541704
C37	C	1.088658	-0.000101	0.578114
C38	C	1.171744	-0.000107	0.520484
C39	C	1.256666	-0.000116	0.556893
C40	C	1.258492	-0.000123	0.650931
C41	C	1.001911	-0.000078	0.447666
C42	C	1.169916	-0.000101	0.426441
H43	H	1.237576	-0.000099	0.379524
Cl44	Cl	0.813892	-0.000069	0.553573
H45	H	1.246374	-0.000133	0.832254
Cl46	Cl	0.818040	-0.000088	0.765826
Cl47	Cl	0.895162	-0.000077	0.401898
H48	H	0.941586	-0.000111	0.870749
H49	H	1.327631	-0.000156	0.680583
Cl50	Cl	1.361113	-0.000136	0.484433
