data_functionalizedCrystal
_audit_creation_method	'MofGen! by Chris Wilmer'
_symmetry_space_group_name_H-M	'P1'
_symmetry_Int_Tables_number	1
_symmetry_cell_setting	triclinic
loop_
_symmetry_equiv_pos_as_xyz
  x,y,z
_cell_length_a	16.120490
_cell_length_b	16.625546
_cell_length_c	16.625539
_cell_angle_alpha	89.969603
_cell_angle_beta	87.083784
_cell_angle_gamma	87.114737
loop_
_atom_site_label
_atom_site_type_symbol
_atom_site_fract_x
_atom_site_fract_y
_atom_site_fract_z
Zn1	Zn	1.274567	-0.383658	-0.518296
Zn2	Zn	1.524567	-0.133658	-0.268296
Zn3	Zn	1.774567	0.116342	-0.018296
Zn4	Zn	2.024567	0.366342	0.231704
Zn5	Zn	1.274467	-0.518496	-0.383454
Zn6	Zn	1.524467	-0.268496	-0.133454
Zn7	Zn	1.774467	-0.018496	0.116546
Zn8	Zn	2.024467	0.231504	0.366546
Zn9	Zn	1.135147	-0.376832	-0.376651
Zn10	Zn	1.385147	-0.126832	-0.126651
Zn11	Zn	1.635147	0.123168	0.123349
Zn12	Zn	1.885147	0.373168	0.373349
Zn13	Zn	1.135116	-0.511597	-0.511421
Zn14	Zn	1.385116	-0.261597	-0.261421
Zn15	Zn	1.635116	-0.011597	-0.011421
Zn16	Zn	1.885116	0.238403	0.238579
O17	O	1.204824	-0.447646	-0.447456
O18	O	1.454824	-0.197646	-0.197456
O19	O	1.704824	0.052354	0.052544
O20	O	1.954824	0.302354	0.302544
O21	O	1.391220	-0.407289	-0.506133
O22	O	1.641220	-0.157289	-0.256133
O23	O	1.891220	0.092711	-0.006133
O24	O	2.141220	0.342711	0.243867
O25	O	1.255957	-0.499735	-0.269718
O26	O	1.505957	-0.249735	-0.019718
O27	O	1.755957	0.000265	0.230282
O28	O	2.005957	0.250265	0.480282
O29	O	1.153696	-0.264908	-0.395471
O30	O	1.403696	-0.014908	-0.145471
O31	O	1.653696	0.235092	0.104529
O32	O	1.903696	0.485092	0.354529
O33	O	1.391147	-0.506354	-0.407065
O34	O	1.641147	-0.256354	-0.157065
O35	O	1.891147	-0.006354	0.092935
O36	O	2.141147	0.243646	0.342935
O37	O	1.256127	-0.269923	-0.499537
O38	O	1.506127	-0.019923	-0.249537
O39	O	1.756127	0.230077	0.000463
O40	O	2.006127	0.480077	0.250463
O41	O	1.153599	-0.395655	-0.264720
O42	O	1.403599	-0.145655	-0.014720
O43	O	1.653599	0.104345	0.235280
O44	O	1.903599	0.354345	0.485280
O45	O	1.018477	-0.388965	-0.388805
O46	O	1.268477	-0.138965	-0.138805
O47	O	1.518477	0.111035	0.111195
O48	O	1.768477	0.361035	0.361195
O49	O	1.153644	-0.494595	-0.625167
O50	O	1.403644	-0.244595	-0.375167
O51	O	1.653644	0.005405	-0.125167
O52	O	1.903644	0.255405	0.124833
O53	O	1.018454	-0.487976	-0.487820
O54	O	1.268454	-0.237976	-0.237820
O55	O	1.518454	0.012024	0.012180
O56	O	1.768454	0.262024	0.262180
O57	O	1.256098	-0.400599	-0.630218
O58	O	1.506098	-0.150599	-0.380218
O59	O	1.756098	0.099401	-0.130218
O60	O	2.006098	0.349401	0.119782
O61	O	1.255927	-0.630411	-0.400399
O62	O	1.505927	-0.380411	-0.150399
O63	O	1.755927	-0.130411	0.099601
O64	O	2.005927	0.119589	0.349601
O65	O	1.153547	-0.625342	-0.494416
O66	O	1.403547	-0.375342	-0.244416
O67	O	1.653547	-0.125342	0.005584
O68	O	1.903547	0.124658	0.255584
C69	C	1.204745	-0.657133	-0.447418
C70	C	1.454745	-0.407133	-0.197418
C71	C	1.704745	-0.157133	0.052582
C72	C	1.954745	0.092867	0.302582
C73	C	1.204788	-0.746756	-0.447433
C74	C	1.454788	-0.496756	-0.197433
C75	C	1.704788	-0.246756	0.052567
C76	C	1.954788	0.003244	0.302567
C77	C	0.988215	-0.436982	-0.436829
C78	C	1.238215	-0.186982	-0.186829
C79	C	1.488215	0.063018	0.063171
C80	C	1.738215	0.313018	0.313171
C81	C	0.895549	-0.432439	-0.432302
C82	C	1.145549	-0.182439	-0.182302
C83	C	1.395549	0.067561	0.067698
C84	C	1.645549	0.317561	0.317698
C85	C	1.204933	-1.074939	-0.447524
C86	C	1.454933	-0.824939	-0.197524
C87	C	1.704933	-0.574939	0.052476
C88	C	1.954933	-0.324939	0.302476
C89	C	1.204890	-0.983628	-0.447501
C90	C	1.454890	-0.733628	-0.197501
C91	C	1.704890	-0.483628	0.052499
C92	C	1.954890	-0.233628	0.302499
C93	C	1.204860	-0.910850	-0.447478
C94	C	1.454860	-0.660850	-0.197478
C95	C	1.704860	-0.410850	0.052522
C96	C	1.954860	-0.160850	0.302522
C97	C	1.204818	-0.819534	-0.447455
C98	C	1.454818	-0.569534	-0.197455
C99	C	1.704818	-0.319534	0.052545
C100	C	1.954818	-0.069534	0.302545
C101	C	0.684609	-0.471203	-0.470940
C102	C	0.934609	-0.221203	-0.220940
C103	C	1.184609	0.028797	0.029060
C104	C	1.434609	0.278797	0.279060
C105	C	0.725891	-0.424153	-0.424035
C106	C	0.975891	-0.174153	-0.174035
C107	C	1.225891	0.075847	0.075965
C108	C	1.475891	0.325847	0.325965
C109	C	0.820297	-0.428765	-0.428636
C110	C	1.070297	-0.178765	-0.178636
C111	C	1.320297	0.071235	0.071364
C112	C	1.570297	0.321235	0.321364
C113	C	0.590194	-0.466593	-0.466340
C114	C	0.840194	-0.216593	-0.216340
C115	C	1.090194	0.033407	0.033660
C116	C	1.340194	0.283407	0.283660
C117	C	1.422280	-0.458352	-0.458125
C118	C	1.672280	-0.208352	-0.208125
C119	C	1.922280	0.041648	0.041875
C120	C	2.172280	0.291648	0.291875
C121	C	1.514946	-0.462915	-0.462671
C122	C	1.764946	-0.212915	-0.212671
C123	C	2.014946	0.037085	0.037329
C124	C	2.264946	0.287085	0.287329
C125	C	1.204879	-0.447589	-0.657767
C126	C	1.454879	-0.197589	-0.407767
C127	C	1.704879	0.052411	-0.157767
C128	C	1.954879	0.302411	0.092233
C129	C	1.204902	-0.447564	-0.747390
C130	C	1.454902	-0.197564	-0.497390
C131	C	1.704902	0.052436	-0.247390
C132	C	1.954902	0.302436	0.002610
C133	C	1.204926	-0.237342	-0.447512
C134	C	1.454926	0.012658	-0.197512
C135	C	1.704926	0.262658	0.052488
C136	C	1.954926	0.512658	0.302488
C137	C	1.204970	-0.147723	-0.447536
C138	C	1.454970	0.102277	-0.197536
C139	C	1.704970	0.352277	0.052464
C140	C	1.954970	0.602277	0.302464
C141	C	1.204940	-0.447476	-1.075567
C142	C	1.454940	-0.197476	-0.825567
C143	C	1.704940	0.052524	-0.575567
C144	C	1.954940	0.302524	-0.325567
C145	C	1.204927	-0.447503	-0.984258
C146	C	1.454927	-0.197503	-0.734258
C147	C	1.704927	0.052497	-0.484258
C148	C	1.954927	0.302497	-0.234258
C149	C	1.204921	-0.447521	-0.911481
C150	C	1.454921	-0.197521	-0.661481
C151	C	1.704921	0.052479	-0.411481
C152	C	1.954921	0.302479	-0.161481
C153	C	1.204907	-0.447546	-0.820166
C154	C	1.454907	-0.197546	-0.570166
C155	C	1.704907	0.052454	-0.320166
C156	C	1.954907	0.302454	-0.070166
C157	C	1.204818	-0.447647	-0.237965
C158	C	1.454818	-0.197647	0.012035
C159	C	1.704818	0.052353	0.262035
C160	C	1.954818	0.302353	0.512035
C161	C	1.204957	-0.447453	-0.148351
C162	C	1.454957	-0.197453	0.101649
C163	C	1.704957	0.052547	0.351649
C164	C	1.954957	0.302547	0.601649
H165	H	0.720165	-0.514945	-0.514548
H166	H	0.970165	-0.264945	-0.264548
H167	H	1.220165	-0.014945	-0.014548
H168	H	1.470165	0.235055	0.235452
H169	H	0.690333	-0.380408	-0.380423
H170	H	0.940333	-0.130408	-0.130423
H171	H	1.190333	0.119592	0.119577
H172	H	1.440333	0.369592	0.369577
