data_functionalizedCrystal
_audit_creation_method	'MofGen! by Chris Wilmer'
_symmetry_space_group_name_H-M	'P1'
_symmetry_Int_Tables_number	1
_symmetry_cell_setting	triclinic
loop_
_symmetry_equiv_pos_as_xyz
  x,y,z
_cell_length_a	17.699097
_cell_length_b	8.965430
_cell_length_c	17.699092
_cell_angle_alpha	89.997894
_cell_angle_beta	83.287399
_cell_angle_gamma	90.007394
loop_
_atom_site_label
_atom_site_type_symbol
_atom_site_fract_x
_atom_site_fract_y
_atom_site_fract_z
O1	O	1.004072	0.124158	0.095753
O2	O	0.783696	0.124133	0.108195
O3	O	0.900107	0.124142	-0.008215
O4	O	0.887661	0.124148	0.212162
O5	O	0.900097	-0.123936	-0.008207
O6	O	0.783686	-0.123946	0.108203
O7	O	1.004062	-0.123921	0.095761
Cu8	Cu	0.893873	-0.146585	0.101982
Cu9	Cu	0.893885	0.146797	0.101973
O10	O	0.887651	-0.123931	0.212170
C11	C	0.755494	0.000090	0.107751
C12	C	0.671476	0.000081	0.106409
C13	C	0.155763	0.135369	0.098175
C14	C	0.234707	0.135361	0.099431
C15	C	0.274168	0.000127	0.100065
C16	C	0.234681	-0.135108	0.099434
C17	C	0.155739	-0.135099	0.098173
C18	C	0.553045	-0.135147	0.104522
C19	C	0.631993	-0.135146	0.105786
C20	C	0.632013	0.135313	0.105780
C21	C	0.553071	0.135322	0.104519
C22	C	0.513592	0.000088	0.103884
C23	C	0.427992	0.000097	0.102521
C24	C	0.359766	0.000116	0.101434
N25	N	0.893871	-0.352934	0.101988
C26	C	0.840018	-0.450245	0.155806
C27	C	0.908385	-0.549650	0.170370
C28	C	0.825532	-0.549656	0.087431
C29	C	0.962272	-0.450151	0.116586
C30	C	0.879375	-0.450148	0.033617
C31	C	0.947791	-0.549509	0.048152
C32	C	1.032264	0.000125	0.096204
C33	C	1.116282	0.000144	0.097547
C34	C	0.899655	0.000105	-0.036408
C35	C	0.898314	0.000112	-0.120425
N36	N	0.893893	0.353146	0.101961
C37	C	0.897691	0.135341	-0.159897
C38	C	0.896426	0.135343	-0.238840
C39	C	0.895789	0.000114	-0.278311
C40	C	0.896410	-0.135126	-0.238833
C41	C	0.897670	-0.135126	-0.159891
C42	C	0.891330	-0.135129	-0.557198
C43	C	0.890073	-0.135118	-0.636147
C44	C	0.890086	0.135340	-0.636148
C45	C	0.891346	0.135340	-0.557205
C46	C	0.891962	0.000101	-0.517734
C47	C	0.893332	0.000101	-0.432135
C48	C	0.894425	0.000112	-0.363909
C49	C	0.888103	0.000109	0.240363
C50	C	0.889444	0.000113	0.324381
H51	H	0.664119	-0.245276	0.106302
H52	H	0.920661	-0.593356	0.228178
H53	H	0.891868	0.245458	-0.525073
O54	O	0.898274	0.266839	-0.121671
C55	C	0.898196	0.535107	-0.130019
C56	C	0.897519	0.386290	-0.173398
H57	H	0.897602	0.631722	-0.171824
H58	H	0.845827	0.541966	-0.086059
H59	H	0.951720	0.541796	-0.100059
H60	H	0.844030	0.379502	-0.203404
H61	H	0.949924	0.379494	-0.217316
O62	O	0.514813	-0.266641	0.103949
C63	C	0.523136	-0.534909	0.104052
C64	C	0.566529	-0.386093	0.104717
H65	H	0.564931	-0.631524	0.104656
H66	H	0.479173	-0.541769	0.156420
H67	H	0.493177	-0.541596	0.050527
H68	H	0.596533	-0.379306	0.158207
H69	H	0.610448	-0.379295	0.052313
H70	H	0.867077	-0.406408	-0.024172
H71	H	0.664167	0.245428	0.106294
H72	H	0.895922	0.245460	-0.270975
H73	H	0.889580	0.245459	-0.668294
O74	O	0.889417	-0.266622	-0.674368
C75	C	0.889569	-0.534891	-0.666045
C76	C	0.890294	-0.386085	-0.622664
H77	H	0.890295	-0.631516	-0.624263
H78	H	0.836022	-0.541744	-0.695963
H79	H	0.941914	-0.541570	-0.710042
H80	H	0.837986	-0.379306	-0.578631
H81	H	0.943876	-0.379295	-0.592798
H82	H	0.767731	-0.593368	0.075130
O83	O	0.891806	-0.266463	-0.518819
C84	C	0.827712	-0.423456	-0.420985
C85	C	0.827065	-0.274670	-0.464400
H86	H	0.775383	-0.430125	-0.376966
H87	H	0.826998	-0.520148	-0.462726
H88	H	0.881272	-0.430197	-0.391085
H89	H	0.773514	-0.267782	-0.494302
H90	H	0.827819	-0.178048	-0.422623
O91	O	0.895895	-0.266586	-0.277101
C92	C	0.961069	-0.497708	-0.309972
C93	C	0.961735	-0.348896	-0.266588
H94	H	1.014303	-0.564284	-0.301500
H95	H	0.908403	-0.564505	-0.287420
H96	H	0.960028	-0.474450	-0.373167
H97	H	0.962804	-0.372019	-0.203387
H98	H	1.014395	-0.282145	-0.289203
O99	O	0.117555	0.266871	0.097531
C100	C	0.125911	0.535138	0.097707
C101	C	0.169274	0.386316	0.098421
H102	H	0.167704	0.631748	0.098442
H103	H	0.095995	0.542011	0.044158
H104	H	0.081913	0.541821	0.150051
H105	H	0.213307	0.379533	0.046113
H106	H	0.199137	0.379506	0.152003
O107	O	0.273125	0.266627	0.100148
C108	C	0.353531	0.423632	0.167139
C109	C	0.310075	0.274897	0.166414
H110	H	0.383403	0.430381	0.220717
H111	H	0.397557	0.430428	0.114819
H112	H	0.311754	0.520257	0.166438
H113	H	0.351794	0.178187	0.167142
H114	H	0.266038	0.268232	0.218730
H115	H	0.266817	-0.245218	0.099946
O116	O	0.785830	-0.398049	0.210188
C117	C	0.758868	-0.250492	0.323933
C118	C	0.820303	-0.309476	0.262385
H119	H	0.786718	-0.178895	0.366160
H120	H	0.716019	-0.180432	0.296105
H121	H	0.728384	-0.348588	0.355131
H122	H	0.850844	-0.211472	0.231166
H123	H	0.863101	-0.379581	0.290258
O124	O	1.031185	-0.398209	0.131515
C125	C	1.100025	-0.251926	0.214966
C126	C	1.021944	-0.310654	0.198130
H127	H	1.092578	-0.181099	0.268815
H128	H	1.139151	-0.350042	0.223368
H129	H	1.126148	-0.181072	0.165137
H130	H	0.995754	-0.381484	0.247935
H131	H	0.982870	-0.212470	0.189697
O132	O	1.002246	-0.600942	-0.006172
C133	C	1.102286	-0.537780	-0.105285
C134	C	1.040655	-0.479328	-0.043784
H135	H	1.133346	-0.439486	-0.135722
H136	H	1.144619	-0.609309	-0.077549
H137	H	1.074477	-0.607838	-0.148152
H138	H	1.068397	-0.409208	-0.000898
H139	H	0.998329	-0.407881	-0.071573
H140	H	0.520946	0.245443	0.104007
H141	H	0.123594	-0.245213	0.097669
H142	H	0.898166	-0.245244	-0.127753
