data_functionalizedCrystal
_audit_creation_method	'MofGen! by Chris Wilmer'
_symmetry_space_group_name_H-M	'P1'
_symmetry_Int_Tables_number	1
_symmetry_cell_setting	triclinic
loop_
_symmetry_equiv_pos_as_xyz
  x,y,z
_cell_length_a	10.723023
_cell_length_b	10.723024
_cell_length_c	9.198806
_cell_angle_alpha	90.002012
_cell_angle_beta	90.003487
_cell_angle_gamma	84.467709
loop_
_atom_site_label
_atom_site_type_symbol
_atom_site_fract_x
_atom_site_fract_y
_atom_site_fract_z
O1	O	1.657188	0.175020	0.120874
O2	O	2.157188	0.675020	0.620874
O3	O	1.294036	0.191774	0.120879
O4	O	1.794036	0.691774	0.620879
O5	O	1.483989	0.001821	0.120871
O6	O	1.983989	0.501821	0.620871
O7	O	1.467235	0.364973	0.120882
O8	O	1.967235	0.864973	0.620882
O9	O	1.483974	0.001820	-0.120914
O10	O	1.983974	0.501820	0.379086
O11	O	1.294021	0.191774	-0.120906
O12	O	1.794021	0.691774	0.379094
O13	O	1.657173	0.175019	-0.120911
O14	O	2.157173	0.675019	0.379089
Cu15	Cu	1.475596	0.183396	-0.142985
Cu16	Cu	1.975596	0.683396	0.357015
Cu17	Cu	1.475613	0.183397	0.142953
Cu18	Cu	1.975613	0.683397	0.642953
O19	O	1.467220	0.364973	-0.120903
O20	O	1.967220	0.864973	0.379097
C21	C	1.247529	0.190555	-0.000012
C22	C	1.747529	0.690555	0.499988
C23	C	1.108974	0.186908	-0.000010
C24	C	1.608974	0.686908	0.499990
C25	C	1.047194	0.185281	-0.125261
C26	C	1.547194	0.685281	0.374739
C27	C	0.903991	0.181511	-0.125262
C28	C	1.403991	0.681511	0.374738
C29	C	1.482762	-0.044679	-0.000020
C30	C	1.982762	0.455321	0.499980
C31	C	1.479114	-0.183233	-0.000015
C32	C	1.979114	0.316767	0.499985
C33	C	1.585402	-0.258216	-0.000014
C34	C	2.085402	0.241784	0.499986
C35	C	1.581634	-0.401420	-0.000009
C36	C	2.081634	0.098580	0.499991
C37	C	1.703680	0.176239	-0.000016
C38	C	2.203680	0.676239	0.499984
C39	C	1.842235	0.179886	-0.000009
C40	C	2.342235	0.679886	0.499991
C41	C	1.468447	0.411473	-0.000009
C42	C	1.968447	0.911473	0.499991
C43	C	1.472095	0.550027	-0.000005
C44	C	1.972095	1.050027	0.499995
N45	N	1.475592	0.183395	-0.344099
N46	N	1.975592	0.683395	0.155901
C47	C	1.555348	0.103288	-0.416300
C48	C	2.055348	0.603288	0.083700
C49	C	1.555367	0.103283	-0.583712
C50	C	2.055367	0.603283	-0.083712
N51	N	1.475627	0.183388	0.344067
N52	N	1.975627	0.683388	0.844067
H53	H	1.100321	0.186672	-0.232492
H54	H	1.600321	0.686672	0.267508
F55	F	1.386352	0.273031	-0.425296
F56	F	1.886352	0.773031	0.074704
H57	H	1.055849	0.185506	0.107221
H58	H	1.555849	0.685506	0.607221
H59	H	1.407346	0.251980	-0.593853
H60	H	1.907346	0.751980	-0.093853
F61	F	1.356525	-0.237890	0.000001
F62	F	1.856525	0.262110	0.500001
H63	H	1.381099	-0.385548	-0.000015
H64	H	1.881099	0.114452	0.499985
F65	F	1.707992	-0.203559	-0.000008
F66	F	2.207992	0.296441	0.499992
F67	F	1.644358	0.013423	-0.335104
F68	F	2.144358	0.513423	0.164896
H69	H	1.623654	0.034704	-0.645802
H70	H	2.123654	0.534704	-0.145802
H71	H	0.850861	0.180120	-0.232493
H72	H	1.350861	0.680120	0.267507
H73	H	1.672625	-0.465852	-0.000015
H74	H	2.172625	0.034148	0.499985
F75	F	0.911665	0.181723	0.140162
F76	F	1.411665	0.681723	0.640162
