data_functionalizedCrystal
_audit_creation_method	'MofGen! by Chris Wilmer'
_symmetry_space_group_name_H-M	'P1'
_symmetry_Int_Tables_number	1
_symmetry_cell_setting	triclinic
loop_
_symmetry_equiv_pos_as_xyz
  x,y,z
_cell_length_a	35.288113
_cell_length_b	35.277611
_cell_length_c	35.277682
_cell_angle_alpha	89.997327
_cell_angle_beta	59.999432
_cell_angle_gamma	60.000166
loop_
_atom_site_label
_atom_site_type_symbol
_atom_site_fract_x
_atom_site_fract_y
_atom_site_fract_z
O1	O	-0.271232	-0.323090	0.011273
O2	O	-0.193633	-0.267966	-0.011225
O3	O	-0.271230	-0.267965	0.066395
O4	O	-0.193635	-0.323091	-0.066346
O5	O	-0.334254	-0.204920	0.066390
O6	O	-0.256658	-0.204921	-0.011230
O7	O	-0.334256	-0.260045	0.011268
Zn8	Zn	-0.305463	-0.222473	0.000019
Zn9	Zn	-0.222426	-0.305537	0.000025
O10	O	-0.256659	-0.260046	-0.066351
C11	C	-0.139921	-0.094839	-0.023515
C12	C	-0.166526	-0.044836	-0.020291
C13	C	-0.162510	-0.117863	-0.023839
C14	C	-0.071295	-0.163484	-0.023521
C15	C	-0.024525	-0.186877	-0.020303
C16	C	-0.093988	-0.186403	-0.023845
C17	C	-0.139916	-0.163485	-0.023523
C18	C	-0.166517	-0.186877	-0.020308
C19	C	-0.093993	-0.117863	-0.023837
C20	C	-0.188008	-0.205776	-0.017709
C21	C	-0.188021	-0.004439	-0.017686
C22	C	0.013260	-0.205775	-0.017702
C23	C	-0.214969	-0.229485	-0.014449
C24	C	-0.214987	0.046242	-0.014418
C25	C	0.060663	-0.229485	-0.014440
C26	C	-0.466057	-0.500369	0.034182
C27	C	-0.511983	-0.477348	0.034501
C28	C	-0.466054	-0.431728	0.034177
C29	C	-0.511980	-0.408811	0.034496
C30	C	-0.534676	-0.431729	0.034177
C31	C	-0.443465	-0.477347	0.034501
C32	C	-0.342486	-0.665896	0.021768
C33	C	-0.317224	-0.712772	0.018258
C34	C	-0.338910	-0.736288	0.016496
C35	C	-0.311516	-0.787116	0.012682
C36	C	-0.385862	-0.712923	0.018248
C37	C	-0.411124	-0.666049	0.021764
C38	C	-0.389434	-0.642536	0.023524
C39	C	-0.687733	-0.389815	0.021747
C40	C	-0.731082	-0.368211	0.018231
C41	C	-0.752825	-0.323007	0.016462
C42	C	-0.799821	-0.299581	0.012644
C43	C	-0.731219	-0.299405	0.018214
C44	C	-0.687878	-0.321006	0.021737
C45	C	-0.666135	-0.366216	0.023501
C46	C	-0.342474	-0.389811	0.021746
C47	C	-0.317205	-0.368208	0.018224
C48	C	-0.338888	-0.323002	0.016457
C49	C	-0.311491	-0.299577	0.012637
C50	C	-0.385836	-0.299403	0.018207
C51	C	-0.411101	-0.321009	0.021727
C52	C	-0.389418	-0.366213	0.023500
C53	C	-0.416828	-0.591710	0.027333
C54	C	-0.438663	-0.551196	0.030370
C55	C	-0.438657	-0.408305	0.030359
C56	C	-0.416819	-0.389634	0.027316
C57	C	-0.581672	-0.408306	0.030359
C58	C	-0.619135	-0.389636	0.027317
C59	C	-0.061850	-0.432022	-0.438498
C60	C	-0.015925	-0.477641	-0.461414
C61	C	-0.061850	-0.432022	-0.369855
C62	C	-0.015924	-0.477642	-0.392875
C63	C	0.006770	-0.500664	-0.438494
C64	C	-0.084440	-0.409104	-0.392879
C65	C	-0.185425	-0.320835	-0.480419
C66	C	-0.210689	-0.299078	-0.502026
C67	C	-0.189005	-0.322533	-0.547232
C68	C	-0.216400	-0.298947	-0.570658
C69	C	-0.142053	-0.367745	-0.570831
C70	C	-0.116790	-0.389496	-0.549227
C71	C	-0.138478	-0.366040	-0.504019
C72	C	0.159822	-0.666191	-0.549673
C73	C	0.203170	-0.713067	-0.571429
C74	C	0.224915	-0.736585	-0.547974
C75	C	0.271910	-0.787411	-0.571555
C76	C	0.203311	-0.713220	-0.502762
C77	C	0.159971	-0.666344	-0.481011
C78	C	0.138226	-0.642833	-0.504471
C79	C	-0.185423	-0.320837	-0.204330
C80	C	-0.210690	-0.299082	-0.157452
C81	C	-0.189006	-0.322537	-0.133935
C82	C	-0.216401	-0.298952	-0.083107
C83	C	-0.142058	-0.367748	-0.157296
C84	C	-0.116795	-0.389501	-0.204172
C85	C	-0.138480	-0.366040	-0.227687
C86	C	-0.111082	-0.389631	-0.480594
C87	C	-0.089245	-0.408434	-0.461922
C88	C	-0.089244	-0.408435	-0.319029
C89	C	-0.111081	-0.389633	-0.278515
C90	C	0.053765	-0.551490	-0.462079
C91	C	0.091227	-0.592004	-0.480880
O92	O	0.184792	-0.260049	0.011276
O93	O	0.074572	-0.204918	-0.011214
O94	O	0.074577	-0.204931	0.066402
O95	O	0.184787	-0.260036	-0.066340
O96	O	0.074580	-0.267979	0.066395
O97	O	0.074575	-0.267967	-0.011221
O98	O	0.184796	-0.323098	0.011268
Zn99	Zn	0.129686	-0.305543	0.000022
Zn100	Zn	0.129681	-0.222473	0.000032
O101	O	0.184791	-0.323085	-0.066347
O102	O	-0.334280	0.196123	0.011311
O103	O	-0.256678	0.063379	-0.011194
O104	O	-0.334272	0.140988	0.066428
O105	O	-0.256685	0.118515	-0.066311
O106	O	-0.271246	0.140988	0.066430
O107	O	-0.193651	0.063380	-0.011192
O108	O	-0.271253	0.196124	0.011313
Zn109	Zn	-0.222445	0.129752	0.000061
Zn110	Zn	-0.305486	0.129751	0.000058
O111	O	-0.193659	0.118515	-0.066309
O112	O	0.397507	-0.936914	-0.602533
O113	O	0.287295	-0.804173	-0.547413
O114	O	0.287292	-0.881789	-0.547409
O115	O	0.397511	-0.859297	-0.602537
O116	O	0.287290	-0.881788	-0.610455
O117	O	0.287294	-0.804171	-0.610459
O118	O	0.397506	-0.936912	-0.665578
Zn119	Zn	0.342400	-0.870541	-0.648029
Zn120	Zn	0.342402	-0.870543	-0.564963
O121	O	0.397510	-0.859295	-0.665583
O122	O	-0.271230	-0.267964	-0.665316
O123	O	-0.193638	-0.323088	-0.610187
O124	O	-0.271233	-0.323088	-0.610187
O125	O	-0.193635	-0.267964	-0.665317
O126	O	-0.334259	-0.260042	-0.547144
O127	O	-0.256663	-0.260042	-0.547145
O128	O	-0.334256	-0.204919	-0.602274
Zn129	Zn	-0.305466	-0.222471	-0.564700
Zn130	Zn	-0.222427	-0.305536	-0.647761
O131	O	-0.256660	-0.204919	-0.602274
C132	C	-0.456595	-0.094848	0.293242
C133	C	-0.503362	-0.044847	0.316630
C134	C	-0.433901	-0.117870	0.316162
C135	C	-0.387976	-0.163489	0.224603
C136	C	-0.361374	-0.186880	0.174603
C137	C	-0.365386	-0.186407	0.247627
C138	C	-0.387976	-0.163489	0.293246
C139	C	-0.361374	-0.186880	0.316639
C140	C	-0.433901	-0.117870	0.247623
C141	C	-0.339882	-0.205777	0.335538
C142	C	-0.541144	-0.004451	0.335525
C143	C	-0.339882	-0.205778	0.134207
C144	C	-0.312920	-0.229485	0.359247
C145	C	-0.588544	0.046227	0.359230
C146	C	-0.312919	-0.229485	0.083529
C147	C	-0.139914	-0.163526	0.293243
C148	C	-0.166515	-0.186921	0.316629
C149	C	-0.162508	-0.117907	0.316165
C150	C	-0.071292	-0.163518	0.224608
C151	C	-0.024521	-0.186904	0.174608
C152	C	-0.093990	-0.117899	0.247633
C153	C	-0.139918	-0.094881	0.293251
C154	C	-0.166524	-0.044881	0.316645
C155	C	-0.093985	-0.186440	0.247625
C156	C	-0.188019	-0.004485	0.335545
C157	C	-0.188006	-0.205822	0.335522
C158	C	0.013264	-0.205797	0.134213
C159	C	-0.214985	0.046193	0.359256
C160	C	-0.214967	-0.229534	0.359225
C161	C	0.060667	-0.229500	0.083535
C162	C	-0.387977	0.153259	0.293278
C163	C	-0.361372	0.150036	0.316669
C164	C	-0.433902	0.153576	0.316195
C165	C	-0.387982	0.153270	0.224638
C166	C	-0.361384	0.150059	0.174638
C167	C	-0.433907	0.153586	0.247659
C168	C	-0.456599	0.153258	0.293277
C169	C	-0.503365	0.150035	0.316666
C170	C	-0.365390	0.153587	0.247660
C171	C	-0.541147	0.147430	0.335562
C172	C	-0.339878	0.147432	0.335565
C173	C	-0.339894	0.147463	0.134243
C174	C	-0.588546	0.144163	0.359268
C175	C	-0.312913	0.144165	0.359273
C176	C	-0.312935	0.144208	0.083566
C177	C	0.533962	-0.500327	-0.438490
C178	C	0.556552	-0.477301	-0.461404
C179	C	0.465336	-0.431691	-0.369847
C180	C	0.488030	-0.408769	-0.392865
C181	C	0.533958	-0.431682	-0.438483
C182	C	0.488034	-0.477309	-0.392872
C183	C	0.588298	-0.665858	-0.480419
C184	C	0.613412	-0.712734	-0.502027
C185	C	0.660370	-0.736245	-0.547233
C186	C	0.687609	-0.787073	-0.570661
C187	C	0.682211	-0.712876	-0.570830
C188	C	0.657092	-0.666002	-0.549224
C189	C	0.610134	-0.642493	-0.504016
C190	C	0.657534	-0.389751	-0.549653
C191	C	0.682796	-0.368142	-0.571405
C192	C	0.661112	-0.322938	-0.547949
C193	C	0.688502	-0.299507	-0.571527
C194	C	0.614158	-0.299341	-0.502738
C195	C	0.588891	-0.320946	-0.480989
C196	C	0.610587	-0.366156	-0.504452
C197	C	0.312274	-0.389793	-0.204326
C198	C	0.268926	-0.368195	-0.157448
C199	C	0.247178	-0.322989	-0.133930
C200	C	0.200179	-0.299569	-0.083102
C201	C	0.268782	-0.299385	-0.157288
C202	C	0.312130	-0.320986	-0.204163
C203	C	0.333870	-0.366190	-0.227680
C204	C	0.582904	-0.591667	-0.480590
C205	C	0.561197	-0.551153	-0.461917
C206	C	0.418337	-0.408273	-0.319021
C207	C	0.380873	-0.389606	-0.278508
C208	C	0.561353	-0.408255	-0.462065
C209	C	0.583189	-0.389581	-0.480864
O210	O	-0.271267	0.196079	0.389818
O211	O	-0.193655	0.063337	0.334690
O212	O	-0.271264	0.140949	0.334697
O213	O	-0.193658	0.118467	0.389810
O214	O	-0.334279	0.140936	0.397745
O215	O	-0.256670	0.063324	0.397738
O216	O	-0.334282	0.196067	0.452865
Zn217	Zn	-0.305481	0.129693	0.435312
Zn218	Zn	-0.222456	0.129710	0.352244
O219	O	-0.256673	0.118454	0.452858
C220	C	0.006425	0.095680	-0.438452
C221	C	-0.016272	0.095363	-0.461370
C222	C	-0.062191	0.095669	-0.369813
C223	C	-0.084784	0.095352	-0.392834
C224	C	-0.062197	0.095680	-0.438452
C225	C	-0.016266	0.095352	-0.392834
C226	C	0.159478	0.108116	-0.480364
C227	C	0.202826	0.111633	-0.501968
C228	C	0.224567	0.113404	-0.547173
C229	C	0.271562	0.117227	-0.570597
C230	C	0.202961	0.111654	-0.570774
C231	C	0.159621	0.108130	-0.549172
C232	C	0.137880	0.106361	-0.503965
C233	C	-0.116535	0.108125	-0.549635
C234	C	-0.141649	0.111642	-0.571391
C235	C	-0.188604	0.113404	-0.547939
C236	C	-0.215842	0.117224	-0.571521
C237	C	-0.210441	0.111643	-0.502728
C238	C	-0.185323	0.108118	-0.480975
C239	C	-0.138368	0.106362	-0.504434
C240	C	-0.116504	0.108070	-0.204288
C241	C	-0.141615	0.111582	-0.157411
C242	C	-0.188570	0.113342	-0.133896
C243	C	-0.215802	0.117153	-0.083069
C244	C	-0.210414	0.111594	-0.157259
C245	C	-0.185302	0.108084	-0.204134
C246	C	-0.138343	0.106318	-0.227646
C247	C	0.090881	0.102545	-0.480543
C248	C	0.053420	0.099501	-0.461874
C249	C	-0.089418	0.099477	-0.318987
C250	C	-0.111120	0.102512	-0.278474
C251	C	-0.089431	0.099500	-0.462039
C252	C	-0.111138	0.102544	-0.480841
H253	H	-0.530969	-0.371329	0.035006
H254	H	-0.074992	-0.223921	0.229140
Br255	Br	0.524560	-0.633953	-0.419075
Br256	Br	0.583773	-0.744445	-0.470002
Br257	Br	-0.224104	-0.087058	-0.024701
H258	H	-0.324812	-0.426621	0.023185
H259	H	-0.748926	-0.262597	0.016776
H260	H	-0.452887	-0.099380	0.229135
Br261	Br	-0.274406	-0.237729	-0.125750
Br262	Br	-0.465559	0.154430	0.378667
H263	H	-0.199462	-0.099431	0.353648
Br264	Br	-0.062331	-0.248878	-0.024708
H265	H	0.721026	-0.387358	-0.608215
Br266	Br	-0.062351	-0.087048	-0.024669
H267	H	-0.248916	-0.262267	-0.482808
H268	H	-0.449327	-0.301790	0.023152
Br269	Br	-0.658231	-0.451165	0.024147
Br270	Br	-0.465563	-0.087069	0.378638
Br271	Br	0.745933	-0.744782	-0.632178
H272	H	-0.203088	-0.301731	-0.443610
H273	H	0.251073	-0.262575	-0.138136
Br274	Br	-0.543650	-0.508150	0.035373
Br275	Br	-0.381868	-0.508153	0.035358
H276	H	-0.124400	-0.386837	-0.607639
H277	H	-0.403490	-0.262593	0.016766
H278	H	0.142032	0.106705	-0.568391
H279	H	-0.278976	-0.387428	0.016796
H280	H	-0.074998	-0.099413	0.229150
H281	H	-0.078569	-0.426312	-0.223190
Br282	Br	-0.303796	0.154450	0.216853
H283	H	0.329974	-0.426601	-0.223470
H284	H	0.674876	-0.646978	-0.568440
Br285	Br	-0.465566	0.154447	0.216853
Br286	Br	0.456361	-0.346292	-0.362060
H287	H	-0.324821	-0.646755	0.023202
H288	H	0.593507	-0.495781	-0.498887
Br289	Br	0.239613	-0.400231	-0.125749
H290	H	-0.278995	-0.731792	0.016829
H291	H	-0.403516	-0.732073	0.016816
Br292	Br	-0.474842	-0.634344	0.024145
Br293	Br	0.456381	-0.508122	-0.362068
H294	H	-0.748668	-0.387431	0.016803
Br295	Br	0.686975	-0.451103	-0.581494
Br296	Br	0.584719	-0.237989	-0.470904
H297	H	0.550661	-0.301730	-0.444180
H298	H	0.329715	-0.301763	-0.223180
Br299	Br	-0.146354	0.094453	-0.362042
H300	H	-0.248648	0.113027	-0.138110
H301	H	0.002721	0.094852	-0.498852
Br302	Br	-0.214857	-0.289000	-0.236241
Br303	Br	-0.052810	0.105736	-0.581471
H304	H	-0.123834	0.113018	-0.138389
Br305	Br	-0.658561	-0.288975	0.024118
H306	H	0.002707	0.094870	-0.374340
H307	H	-0.078269	0.106635	-0.223429
H308	H	0.003067	-0.496124	-0.374389
Br309	Br	0.129976	0.105715	-0.419014
H310	H	0.220414	0.113060	-0.482749
Br311	Br	0.015725	-0.508453	-0.523882
Br312	Br	0.232470	0.114052	-0.632123
H313	H	-0.123867	0.113078	-0.608200
Br314	Br	-0.274159	0.114024	-0.470900
Br315	Br	-0.146038	-0.346634	-0.362071
Br316	Br	-0.214956	0.105724	-0.419624
Br317	Br	-0.053074	-0.450850	-0.581254
Br318	Br	-0.214949	0.105713	-0.235837
H319	H	0.142122	-0.647051	-0.568779
H320	H	0.220756	-0.732087	-0.608239
H321	H	0.221021	-0.732367	-0.483667
Br322	Br	0.130658	-0.634638	-0.419658
H323	H	-0.124402	-0.386846	-0.138146
H324	H	-0.328426	-0.223888	0.229142
