data_functionalizedCrystal
_audit_creation_method	'MofGen! by Chris Wilmer'
_symmetry_space_group_name_H-M	'P1'
_symmetry_Int_Tables_number	1
_symmetry_cell_setting	triclinic
loop_
_symmetry_equiv_pos_as_xyz
  x,y,z
_cell_length_a	13.635800
_cell_length_b	17.339016
_cell_length_c	17.110458
_cell_angle_alpha	75.677392
_cell_angle_beta	99.059888
_cell_angle_gamma	103.228929
loop_
_atom_site_label
_atom_site_type_symbol
_atom_site_fract_x
_atom_site_fract_y
_atom_site_fract_z
V1	V	1.954795	0.250236	-0.127383
O2	O	2.005528	0.245581	-0.012307
O3	O	1.877229	0.248420	-0.234856
O4	O	1.929555	0.359420	-0.133510
O5	O	1.952841	0.133812	-0.114355
V6	V	2.203659	0.236323	-0.112664
O7	O	2.069845	0.280754	-0.159673
O8	O	2.313708	0.205805	-0.080374
O9	O	2.169622	0.238140	-0.005191
O10	O	2.211625	0.240978	-0.227740
O11	O	2.264312	0.352747	-0.125692
O12	O	2.117296	0.127139	-0.106537
C13	C	1.786781	0.244445	-0.260803
C14	C	1.763998	0.243688	-0.348715
C15	C	1.853527	0.386036	-0.131525
C16	C	1.873179	0.475294	-0.137245
C17	C	1.842296	0.247340	-0.394322
C18	C	1.820905	0.246641	-0.476928
C19	C	1.721215	0.242283	-0.513925
C20	C	1.642912	0.238634	-0.468314
C21	C	1.664305	0.239339	-0.385710
C22	C	1.983553	0.980708	-0.173371
C23	C	1.965078	0.896837	-0.167978
C24	C	1.971878	0.843518	-0.092001
C25	C	1.997146	0.874073	-0.021412
C26	C	2.015613	0.957942	-0.026805
C27	C	1.916914	0.589718	-0.072050
C28	C	1.898447	0.505844	-0.066662
C29	C	1.866379	0.528614	-0.213228
C30	C	1.884854	0.612484	-0.218615
C31	C	1.910114	0.643031	-0.148026
C32	C	1.952997	0.757788	-0.086487
C33	C	1.928988	0.728759	-0.153541
V34	V	2.454795	0.250236	-0.127383
O35	O	2.505528	0.245581	-0.012307
O36	O	2.377229	0.248420	-0.234856
O37	O	2.429555	0.359420	-0.133510
O38	O	2.452841	0.133812	-0.114355
V39	V	2.703659	0.236323	-0.112664
O40	O	2.569845	0.280754	-0.159673
O41	O	2.813708	0.205805	-0.080374
O42	O	2.669622	0.238140	-0.005191
O43	O	2.711625	0.240978	-0.227740
O44	O	2.764312	0.352747	-0.125692
O45	O	2.617296	0.127139	-0.106537
C46	C	2.028476	1.100518	-0.108521
C47	C	2.008821	1.011258	-0.102787
C48	C	2.091739	0.242112	0.020752
C49	C	2.104141	0.242875	0.108663
C50	C	2.286781	0.244445	-0.260803
C51	C	2.263998	0.243688	-0.348715
C52	C	2.198329	0.239228	0.154281
C53	C	2.209972	0.239931	0.236886
C54	C	2.127426	0.244287	0.273870
C55	C	2.033229	0.247932	0.228246
C56	C	2.021586	0.247222	0.145644
C57	C	2.158158	0.246623	0.523059
C58	C	2.169809	0.247334	0.605666
C59	C	2.346551	0.239332	0.614301
C60	C	2.334901	0.238628	0.531696
C61	C	2.240705	0.242269	0.486081
C62	C	2.139325	0.245009	0.358304
C63	C	2.228805	0.241541	0.401649
C64	C	2.353527	0.386036	-0.131525
C65	C	2.373179	0.475294	-0.137245
C66	C	2.591739	0.242112	0.020752
C67	C	2.604141	0.242875	0.108663
C68	C	2.524994	0.100519	-0.108524
C69	C	2.494963	0.011260	-0.102800
C70	C	2.471445	0.521300	-0.144169
C71	C	2.489926	0.605166	-0.149534
C72	C	2.410139	0.643026	-0.147980
C73	C	2.311865	0.597014	-0.141053
C74	C	2.293387	0.513149	-0.135683
C75	C	2.698336	0.239225	0.154269
C76	C	2.709999	0.239928	0.236874
C77	C	2.627466	0.244287	0.273871
C78	C	2.533262	0.247934	0.228260
C79	C	2.521599	0.247225	0.145658
C80	C	2.392525	-0.026580	-0.104346
C81	C	2.364295	-0.110449	-0.098958
C82	C	2.438505	-0.156476	-0.092029
C83	C	2.540952	-0.118631	-0.090480
C84	C	2.569181	-0.034764	-0.095863
H85	H	1.923474	0.250883	-0.364209
Br86	Br	2.225256	-0.161790	-0.101067
Br87	Br	2.435235	0.756847	-0.155270
Br88	Br	2.837853	0.234977	0.298757
H89	H	2.652597	-0.003962	-0.094607
Br90	Br	2.446934	0.232719	0.481509
Br91	Br	1.558027	0.234376	-0.323825
Br92	Br	2.400176	-0.270295	-0.084727
H93	H	2.072118	0.248556	0.388425
Br94	Br	2.641654	-0.181107	-0.081085
H95	H	2.636976	0.244863	0.341132
Br96	Br	1.951190	0.631164	0.023751
Br97	Br	1.832095	0.487153	-0.309022
H98	H	2.536424	0.490486	-0.145438
Br99	Br	2.203590	0.648411	-0.138955
H100	H	2.332085	0.010885	-0.109987
H101	H	1.884675	0.249611	-0.514053
H102	H	1.903986	0.462432	-0.004789
H103	H	1.703810	0.241710	-0.581187
H104	H	2.423243	0.236367	0.651450
H105	H	2.213366	0.475697	-0.130047
H106	H	2.081451	0.249563	0.485934
Br107	Br	1.974332	1.053063	-0.276488
Br108	Br	2.337799	0.234964	0.298798
H109	H	1.944506	0.871969	-0.225454
Br110	Br	1.875629	0.684842	-0.321731
Br111	Br	2.810363	0.233310	0.104077
H112	H	2.466068	0.251483	0.258396
H113	H	1.561744	0.235086	-0.498450
H114	H	2.002676	0.830653	0.040451
H115	H	2.036195	0.982813	0.030671
Br116	Br	2.393750	0.252180	0.083774
Br117	Br	2.623302	0.667593	-0.158939
H118	H	1.944894	0.250209	0.108499
H119	H	1.923446	0.772175	-0.215400
H120	H	2.265551	0.235685	0.124175
Br121	Br	2.057777	0.253254	0.655857
H122	H	1.958537	0.714367	-0.024626
H123	H	1.966018	0.251473	0.258366
H124	H	2.296011	0.237989	0.371535
