data_functionalizedCrystal
_audit_creation_method	'MofGen! by Chris Wilmer'
_symmetry_space_group_name_H-M	'P1'
_symmetry_Int_Tables_number	1
_symmetry_cell_setting	triclinic
loop_
_symmetry_equiv_pos_as_xyz
  x,y,z
_cell_length_a	19.188930
_cell_length_b	11.792241
_cell_length_c	10.268362
_cell_angle_alpha	89.994572
_cell_angle_beta	89.981535
_cell_angle_gamma	83.669098
loop_
_atom_site_label
_atom_site_type_symbol
_atom_site_fract_x
_atom_site_fract_y
_atom_site_fract_z
O1	O	0.926947	0.141694	-0.108720
O2	O	1.260281	0.475028	0.224614
O3	O	1.593614	0.808361	0.557947
O4	O	0.723744	0.160769	-0.108631
O5	O	1.057077	0.494102	0.224703
O6	O	1.390411	0.827436	0.558036
O7	O	0.830277	-0.014013	-0.108668
O8	O	1.163610	0.319321	0.224665
O9	O	1.496944	0.652654	0.557998
O10	O	0.820415	0.316476	-0.108682
O11	O	1.153748	0.649809	0.224651
O12	O	1.487081	0.983143	0.557985
O13	O	0.830268	-0.014020	0.107932
O14	O	1.163601	0.319314	0.441266
O15	O	1.496934	0.652647	0.774599
O16	O	0.723735	0.160762	0.107970
O17	O	1.057068	0.494095	0.441303
O18	O	1.390401	0.827428	0.774637
O19	O	0.926938	0.141687	0.107881
O20	O	1.260271	0.475021	0.441214
O21	O	1.593605	0.808354	0.774548
Cu22	Cu	0.825336	0.151224	0.127703
Cu23	Cu	1.158669	0.484557	0.461036
Cu24	Cu	1.492002	0.817891	0.794369
Cu25	Cu	0.825347	0.151232	-0.128453
Cu26	Cu	1.158680	0.484566	0.204881
Cu27	Cu	1.492013	0.817899	0.538214
O28	O	0.820405	0.316469	0.107919
O29	O	1.153739	0.649802	0.441252
O30	O	1.487072	0.983136	0.774585
C31	C	0.697725	0.160148	-0.000319
C32	C	1.031058	0.493481	0.333015
C33	C	1.364392	0.826814	0.666348
C34	C	0.620210	0.158293	-0.000285
C35	C	0.953543	0.491627	0.333049
C36	C	1.286877	0.824960	0.666382
C37	C	0.829653	-0.056298	-0.000368
C38	C	1.162986	0.277035	0.332965
C39	C	1.496319	0.610369	0.666299
C40	C	0.827799	-0.182284	-0.000368
C41	C	1.161132	0.151049	0.332965
C42	C	1.494465	0.484383	0.666298
C43	C	0.824389	-0.412945	-0.000389
C44	C	1.157722	-0.079612	0.332945
C45	C	1.491056	0.253722	0.666278
C46	C	0.826283	-0.284588	-0.000378
C47	C	1.159617	0.048745	0.332956
C48	C	1.492950	0.382079	0.666289
C49	C	0.575867	0.260849	-0.000309
C50	C	0.909200	0.594183	0.333024
C51	C	1.242534	0.927516	0.666357
C52	C	0.503033	0.259107	-0.000324
C53	C	0.836367	0.592441	0.333010
C54	C	1.169700	0.925774	0.666343
C55	C	0.474546	0.154803	-0.000339
C56	C	0.807879	0.488137	0.332994
C57	C	1.141213	0.821470	0.666328
C58	C	0.518899	0.052234	-0.000307
C59	C	0.852232	0.385567	0.333026
C60	C	1.185565	0.718901	0.666360
C61	C	0.591731	0.053979	-0.000280
C62	C	0.925064	0.387312	0.333054
C63	C	1.258397	0.720646	0.666387
N64	N	0.366117	0.075079	-0.074107
N65	N	0.699451	0.408412	0.259226
N66	N	1.032784	0.741745	0.592560
N67	N	0.296929	0.073428	-0.074136
N68	N	0.630263	0.406761	0.259198
N69	N	0.963596	0.740095	0.592531
C70	C	0.255107	0.149540	-0.000419
C71	C	0.588441	0.482873	0.332915
C72	C	0.921774	0.816206	0.666248
N73	N	0.285086	0.227382	0.073312
N74	N	0.618419	0.560715	0.406645
N75	N	0.951753	0.894049	0.739979
N76	N	0.354280	0.229036	0.073335
N77	N	0.687613	0.562369	0.406668
N78	N	1.020947	0.895703	0.740001
C79	C	0.395573	0.152900	-0.000368
C80	C	0.728906	0.486233	0.332965
C81	C	1.062239	0.819567	0.666299
C82	C	0.131789	0.250214	-0.000457
C83	C	0.465123	0.583547	0.332876
C84	C	0.798456	0.916881	0.666210
C85	C	0.058955	0.248468	-0.000463
C86	C	0.392288	0.581801	0.332870
C87	C	0.725621	0.915134	0.666204
C88	C	0.074822	0.041591	-0.000460
C89	C	0.408155	0.374925	0.332874
C90	C	0.741488	0.708258	0.666207
C91	C	0.147655	0.043341	-0.000440
C92	C	0.480988	0.376674	0.332893
C93	C	0.814321	0.710007	0.666226
C94	C	0.176134	0.147655	-0.000445
C95	C	0.509467	0.480988	0.332888
C96	C	0.842801	0.814322	0.666221
C97	C	0.952957	0.142309	-0.000434
C98	C	1.286291	0.475642	0.332900
C99	C	1.619624	0.808975	0.666233
C100	C	1.030472	0.144163	-0.000477
C101	C	1.363806	0.477496	0.332857
C102	C	1.697139	0.810830	0.666190
C103	C	0.821029	0.358754	-0.000385
C104	C	1.154363	0.692087	0.332949
C105	C	1.487696	1.025421	0.666282
C106	C	0.822884	0.484740	-0.000393
C107	C	1.156217	0.818073	0.332941
C108	C	1.489550	1.151407	0.666274
N109	N	0.825333	0.151217	0.307869
N110	N	1.158666	0.484551	0.641202
N111	N	1.492000	0.817884	0.974535
N112	N	0.825355	0.151230	-0.308618
N113	N	1.158688	0.484563	0.024715
N114	N	1.492021	0.817897	0.358048
C115	C	0.825343	0.151230	0.573539
C116	C	1.158676	0.484563	0.906873
C117	C	1.492010	0.817897	1.240206
C118	C	0.825335	0.151226	0.425701
C119	C	1.158669	0.484560	0.759035
C120	C	1.492002	0.817893	1.092368
H121	H	0.599050	0.345790	-0.000316
H122	H	0.932383	0.679124	0.333018
H123	H	1.265716	1.012457	0.666351
H124	H	0.051628	-0.043335	-0.000553
H125	H	0.384961	0.289998	0.332780
H126	H	0.718295	0.623332	0.666113
N127	N	0.457737	0.363881	-0.000342
N128	N	0.791070	0.697214	0.332992
N129	N	1.124404	1.030548	0.666325
N130	N	0.483174	0.457007	-0.000339
N131	N	0.816508	0.790340	0.332995
N132	N	1.149841	1.123674	0.666328
H133	H	0.451186	0.531005	-0.000352
H134	H	0.784520	0.864338	0.332982
H135	H	1.117853	1.197672	0.666315
H136	H	0.627836	-0.029537	-0.000260
H137	H	0.961169	0.303796	0.333073
H138	H	1.294502	0.637129	0.666406
N139	N	0.013646	0.353222	-0.000481
N140	N	0.346980	0.686556	0.332852
N141	N	0.680313	1.019889	0.666185
N142	N	-0.051381	0.351651	-0.000488
N143	N	0.281953	0.684985	0.332845
N144	N	0.615286	1.018318	0.666178
H145	H	-0.083382	0.425635	-0.000495
H146	H	0.249951	0.758969	0.332838
H147	H	0.583285	1.092302	0.666171
N148	N	0.192954	-0.061420	-0.000405
N149	N	0.526287	0.271913	0.332928
N150	N	0.859621	0.605247	0.666262
N151	N	0.190106	-0.130873	0.090899
N152	N	0.523440	0.202460	0.424233
N153	N	0.856773	0.535794	0.757566
H154	H	0.222099	-0.204865	0.090930
H155	H	0.555433	0.128468	0.424264
H156	H	0.888766	0.461801	0.757597
H157	H	0.154978	0.335153	-0.000442
H158	H	0.488311	0.668486	0.332892
H159	H	0.821645	1.001820	0.666225
H160	H	0.495700	-0.032691	-0.000338
H161	H	0.829033	0.300642	0.332996
H162	H	1.162366	0.633976	0.666329
