data_functionalizedCrystal
_audit_creation_method	'MofGen! by Chris Wilmer'
_symmetry_space_group_name_H-M	'P1'
_symmetry_Int_Tables_number	1
_symmetry_cell_setting	triclinic
loop_
_symmetry_equiv_pos_as_xyz
  x,y,z
_cell_length_a	16.109302
_cell_length_b	14.586319
_cell_length_c	16.109301
_cell_angle_alpha	89.994230
_cell_angle_beta	96.538369
_cell_angle_gamma	90.006080
loop_
_atom_site_label
_atom_site_type_symbol
_atom_site_fract_x
_atom_site_fract_y
_atom_site_fract_z
O1	O	1.103131	0.076284	-0.106870
O2	O	1.603131	0.576284	0.393130
O3	O	0.861069	0.076278	-0.120168
O4	O	1.361069	0.576278	0.379832
O5	O	0.988750	0.076272	0.007512
O6	O	1.488750	0.576272	0.507512
O7	O	0.975451	0.076290	-0.234550
O8	O	1.475451	0.576290	0.265450
O9	O	0.988740	-0.076209	0.007515
O10	O	1.488740	0.423791	0.507515
O11	O	0.861059	-0.076203	-0.120165
O12	O	1.361059	0.423797	0.379835
O13	O	1.103121	-0.076196	-0.106867
O14	O	1.603121	0.423804	0.393133
Cu15	Cu	0.982089	-0.090122	-0.113516
Cu16	Cu	1.482089	0.409878	0.386484
Cu17	Cu	0.982101	0.090204	-0.113519
Cu18	Cu	1.482101	0.590204	0.386481
O19	O	0.975440	-0.076191	-0.234547
O20	O	1.475440	0.423809	0.265453
C21	C	0.830089	0.000036	-0.119628
C22	C	1.330089	0.500036	0.380372
C23	C	0.737794	0.000033	-0.118013
C24	C	1.237794	0.500033	0.381987
N25	N	0.982087	-0.216954	-0.113513
N26	N	1.482087	0.283046	0.386487
C27	C	1.038646	-0.547951	-0.056994
C28	C	1.538646	-0.047951	0.443006
C29	C	1.038643	-0.451969	-0.056995
C30	C	1.538643	0.048031	0.443005
C31	C	0.925548	-0.451975	-0.170040
C32	C	1.425548	0.048025	0.329960
C33	C	0.925555	-0.547954	-0.170043
C34	C	1.425555	-0.047954	0.329957
C35	C	0.982103	-0.595940	-0.113515
C36	C	1.482103	-0.095940	0.386485
C37	C	0.982094	-0.403979	-0.113513
C38	C	1.482094	0.096021	0.386487
C39	C	0.982091	-0.299912	-0.113514
C40	C	1.482091	0.200088	0.386486
C41	C	0.982107	-0.700014	-0.113515
C42	C	1.482107	-0.200014	0.386485
C43	C	0.525447	-0.083075	-0.114276
C44	C	1.025447	0.416925	0.385724
C45	C	0.438727	-0.083072	-0.112749
C46	C	0.938727	0.416928	0.387251
C47	C	0.438749	0.083171	-0.112757
C48	C	0.938749	0.583171	0.387243
C49	C	0.525468	0.083167	-0.114277
C50	C	1.025468	0.583167	0.385723
C51	C	0.568815	0.000041	-0.115041
C52	C	1.068815	0.500041	0.384959
C53	C	0.395375	0.000048	-0.111994
C54	C	0.895375	0.500048	0.388006
C55	C	0.301350	0.000052	-0.110338
C56	C	0.801350	0.500052	0.389662
C57	C	0.662847	0.000037	-0.116695
C58	C	1.162847	0.500037	0.383305
C59	C	1.134101	0.000047	-0.107407
C60	C	1.634101	0.500047	0.392593
C61	C	1.226396	0.000056	-0.109022
C62	C	1.726396	0.500056	0.390978
C63	C	0.988206	0.000031	0.038488
C64	C	1.488206	0.500031	0.538488
C65	C	0.986591	0.000030	0.130784
C66	C	1.486591	0.500030	0.630784
N67	N	0.982110	0.217035	-0.113516
N68	N	1.482110	0.717035	0.386484
C69	C	0.975984	0.000052	-0.265523
C70	C	1.475984	0.500052	0.234477
C71	C	0.977599	0.000060	-0.357819
C72	C	1.477599	0.500060	0.142181
C73	C	1.058599	0.000046	0.353056
C74	C	1.558599	0.500046	0.853056
C75	C	1.057074	0.000054	0.439776
C76	C	1.557074	0.500054	0.939776
C77	C	0.905586	0.000046	0.419902
C78	C	1.405586	0.500046	0.919902
C79	C	0.907111	0.000045	0.333184
C80	C	1.407111	0.500045	0.833184
C81	C	0.983620	0.000040	0.299763
C82	C	1.483620	0.500040	0.799763
C83	C	0.980571	0.000049	0.473202
C84	C	1.480571	0.500049	0.973202
C85	C	0.978918	0.000057	0.567228
C86	C	1.478918	0.500057	1.067228
C87	C	0.985273	0.000034	0.205731
C88	C	1.485273	0.500034	0.705731
H89	H	1.084691	-0.587018	-0.010967
H90	H	1.584691	-0.087018	0.489033
O91	O	0.391987	0.172819	-0.111938
O92	O	0.891987	0.672819	0.388062
H93	H	0.416057	0.212668	-0.055593
H94	H	0.916057	0.712668	0.444407
H95	H	1.118130	0.000060	0.483165
H96	H	1.618130	0.500060	0.983165
H97	H	0.843295	0.000048	0.447124
H98	H	1.343295	0.500048	0.947124
O99	O	0.826237	0.000028	0.275693
O100	O	1.326237	0.500028	0.775693
H101	H	0.772780	0.000015	0.313500
H102	H	1.272780	0.500015	0.813500
H103	H	0.560738	-0.150762	-0.114898
H104	H	1.060738	0.349238	0.385102
O105	O	0.572253	0.172817	-0.115106
O106	O	1.072253	0.672817	0.384894
H107	H	0.527542	0.230621	-0.114332
H108	H	1.027542	0.730621	0.385668
H109	H	1.084687	-0.412899	-0.010971
H110	H	1.584687	0.087101	0.489029
H111	H	0.879511	-0.587030	-0.216073
H112	H	1.379511	-0.087030	0.283927
O113	O	0.864536	-0.400221	-0.230985
O114	O	1.364536	0.099779	0.269015
H115	H	0.874017	-0.325417	-0.221476
H116	H	1.374017	0.174583	0.278524
H117	H	0.403422	-0.150754	-0.112126
H118	H	0.903422	0.349246	0.387874
O119	O	1.141114	0.000060	0.317004
O120	O	1.641114	0.500060	0.817004
H121	H	1.192995	0.000077	0.368635
H122	H	1.692995	0.500077	0.868635
