data_functionalizedCrystal
_audit_creation_method	'MofGen! by Chris Wilmer'
_symmetry_space_group_name_H-M	'P1'
_symmetry_Int_Tables_number	1
_symmetry_cell_setting	triclinic
loop_
_symmetry_equiv_pos_as_xyz
  x,y,z
_cell_length_a	12.759399
_cell_length_b	12.759401
_cell_length_c	12.759393
_cell_angle_alpha	89.980441
_cell_angle_beta	90.031980
_cell_angle_gamma	89.986735
loop_
_atom_site_label
_atom_site_type_symbol
_atom_site_fract_x
_atom_site_fract_y
_atom_site_fract_z
Zn1	Zn	-0.418256	-1.606252	0.594008
Zn2	Zn	-0.593975	-1.606145	0.418327
Zn3	Zn	-0.418305	-1.430554	0.418344
Zn4	Zn	-0.593888	-1.430542	0.593965
O5	O	-0.506106	-1.518373	0.506161
O6	O	-0.441582	-1.753259	0.570714
O7	O	-0.570729	-1.582813	0.271308
O8	O	-0.271278	-1.453911	0.441672
O9	O	-0.570682	-1.753181	0.441642
O10	O	-0.271242	-1.582996	0.570731
O11	O	-0.441665	-1.453807	0.271321
O12	O	-0.441581	-1.283532	0.441630
O13	O	-0.570533	-1.453890	0.740992
O14	O	-0.570581	-1.283522	0.570658
O15	O	-0.441497	-1.582983	0.741023
O16	O	-0.740985	-1.582801	0.441600
O17	O	-0.740921	-1.453786	0.570641
C18	C	-0.506077	-1.245406	0.506142
C19	C	-0.506090	-1.128629	0.506158
C20	C	-0.779073	-1.518309	0.506137
C21	C	-0.895850	-1.518378	0.506162
C22	C	-0.573366	-1.073790	0.573231
C23	C	-0.573375	-0.964066	0.573240
C24	C	-0.438830	-0.964030	0.439095
C25	C	-0.438816	-1.073752	0.439092
C26	C	-0.651048	-1.073810	0.650676
C27	C	-0.651058	-0.964086	0.650685
C28	C	-0.950710	-1.585633	0.439047
C29	C	-1.060434	-1.585700	0.439082
C30	C	-1.060428	-1.451249	0.573351
C31	C	-0.950706	-1.451187	0.573320
C32	C	-1.210318	-1.709709	0.401694
C33	C	-1.265182	-1.776955	0.334563
C34	C	-1.229644	-1.793120	0.232052
C35	C	-1.139244	-1.742023	0.196653
C36	C	-1.084386	-1.674770	0.263778
C37	C	-1.119922	-1.658625	0.366303
C38	C	-0.800821	-1.327177	0.610697
C39	C	-0.745960	-1.259917	0.677819
C40	C	-0.781496	-1.243742	0.780331
C41	C	-0.871899	-1.294820	0.815727
C42	C	-0.926760	-1.362079	0.748605
C43	C	-0.891217	-1.378256	0.646094
C44	C	-0.232073	-1.518467	0.506208
C45	C	-0.115296	-1.518506	0.506228
C46	C	-0.506000	-1.518447	0.780195
C47	C	-0.505955	-1.518478	0.896971
C48	C	-0.506127	-0.792407	0.506176
C49	C	-0.506113	-0.909183	0.506171
C50	C	-0.506136	-1.518361	0.233194
C51	C	-0.505885	-1.518533	0.116418
C52	C	-0.438760	-1.585707	0.951851
C53	C	-0.438722	-1.585732	1.061576
C54	C	-0.573083	-1.451297	1.061530
C55	C	-0.573115	-1.451267	0.951808
C56	C	-0.361190	-1.663325	0.951879
C57	C	-0.361152	-1.663350	1.061603
H58	H	-0.384027	-1.118398	0.384482
H59	H	-1.000368	-1.403674	0.777435
O60	O	-0.390021	-1.771128	1.101063
H61	H	-0.462142	-1.765863	1.149376
H62	H	-0.900833	-1.281650	0.899201
O63	O	-0.366290	-0.904824	0.366758
H64	H	-0.283849	-0.925885	0.384920
H65	H	-0.627829	-1.396520	0.907128
H66	H	-0.736819	-1.188970	0.834979
H67	H	-0.627761	-1.396574	1.106191
O68	O	-1.248678	-1.692268	0.512253
H69	H	-1.249817	-1.768144	0.554808
O70	O	-0.622291	-1.113305	0.758500
H71	H	-0.680384	-1.084285	0.816345
H72	H	-1.010783	-1.633170	0.234957
H73	H	-0.728301	-1.107823	0.621391
H74	H	-0.672344	-1.218333	0.648993
O75	O	-0.612579	-0.919036	0.753136
H76	H	-0.592178	-0.983885	0.807449
H77	H	-0.732406	-0.934290	0.628752
O78	O	-0.891539	-1.658110	0.366629
H79	H	-0.948125	-1.704896	0.319975
H80	H	-1.110323	-1.755182	0.113174
O81	O	-0.762497	-1.344623	0.500122
H82	H	-0.690430	-1.297790	0.486780
O83	O	-1.288803	-1.865662	0.159647
H84	H	-1.357625	-1.898482	0.201485
H85	H	-1.338786	-1.818558	0.363395
H86	H	-0.279825	-1.641557	0.922123
O87	O	-1.119602	-1.378765	0.645760
H88	H	-1.169524	-1.425779	0.699262
H89	H	-0.390361	-1.740597	0.917844
O90	O	-0.258745	-1.624810	1.106720
H91	H	-0.204479	-1.604362	1.041906
