data_functionalizedCrystal
_audit_creation_method	'MofGen! by Chris Wilmer'
_symmetry_space_group_name_H-M	'P1'
_symmetry_Int_Tables_number	1
_symmetry_cell_setting	triclinic
loop_
_symmetry_equiv_pos_as_xyz
  x,y,z
_cell_length_a	6.817900
_cell_length_b	13.923258
_cell_length_c	14.125469
_cell_angle_alpha	82.793864
_cell_angle_beta	100.398878
_cell_angle_gamma	81.871755
loop_
_atom_site_label
_atom_site_type_symbol
_atom_site_fract_x
_atom_site_fract_y
_atom_site_fract_z
V1	V	-3.952160	0.302432	-0.135142
O2	O	-3.957122	0.297061	0.004405
O3	O	-3.888771	0.299992	-0.265954
O4	O	-3.878256	0.434503	-0.133980
O5	O	-3.967710	0.161620	-0.128483
V6	V	-4.441035	0.285635	-0.118342
O7	O	-4.201679	0.339278	-0.171993
O8	O	-4.641713	0.248789	-0.081491
O9	O	-4.281217	0.288075	0.012470
O10	O	-4.553469	0.291006	-0.257889
O11	O	-4.542881	0.426447	-0.125001
O12	O	-4.291732	0.153564	-0.119504
C13	C	-3.730951	0.295126	-0.297815
C14	C	-3.760240	0.294011	-0.404761
C15	C	-3.813929	0.291985	-0.600573
C16	C	-3.998632	0.296085	-0.652923
C17	C	-4.028507	0.294958	-0.761879
C18	C	-3.784046	0.293113	-0.491607
C19	C	-4.115794	0.121356	-0.124020
C20	C	-4.074273	0.013390	-0.124100
C21	C	-3.998279	-0.184260	-0.124408
C22	C	-3.814296	-0.227686	-0.129074
C23	C	-3.772009	-0.337665	-0.129246
C24	C	-4.040574	-0.074271	-0.124236
C25	C	-3.717537	0.466705	-0.129467
C26	C	-3.738297	0.574671	-0.129383
C27	C	-4.102379	0.292939	0.044326
C28	C	-4.052327	0.294059	0.151271
H29	H	-4.134322	0.300440	-0.615911
Br30	Br	-3.587779	0.284721	-0.662257
Br31	Br	-4.207873	-0.259955	-0.117971
H32	H	-3.688540	-0.182267	-0.132939
