data_functionalizedCrystal
_audit_creation_method	'MofGen! by Chris Wilmer'
_symmetry_space_group_name_H-M	'P1'
_symmetry_Int_Tables_number	1
_symmetry_cell_setting	triclinic
loop_
_symmetry_equiv_pos_as_xyz
  x,y,z
_cell_length_a	10.723024
_cell_length_b	15.944551
_cell_length_c	9.798715
_cell_angle_alpha	89.995900
_cell_angle_beta	89.996609
_cell_angle_gamma	83.983304
loop_
_atom_site_label
_atom_site_type_symbol
_atom_site_fract_x
_atom_site_fract_y
_atom_site_fract_z
O1	O	1.655699	0.117808	-0.113485
O2	O	1.292404	0.129085	-0.113490
O3	O	1.483972	0.001228	-0.113475
O4	O	1.464131	0.245664	-0.113500
O5	O	1.483958	0.001228	0.113507
O6	O	1.292390	0.129084	0.113492
O7	O	1.655685	0.117808	0.113497
Zn8	Zn	1.474035	0.123446	0.149533
Zn9	Zn	1.474054	0.123446	-0.149526
O10	O	1.464116	0.245664	0.113482
C11	C	1.245908	0.128264	0.000000
C12	C	1.107384	0.125809	-0.000001
C13	C	1.031498	0.197350	-0.000009
C14	C	0.888327	0.194814	-0.000011
C15	C	1.483141	-0.030070	0.000016
C16	C	1.480672	-0.123331	0.000017
C17	C	1.356026	-0.338901	-0.000004
C18	C	1.413901	-0.399587	0.111913
C19	C	1.476205	-0.294082	0.000006
C20	C	1.413943	-0.399570	-0.111874
C21	C	1.471880	-0.459020	-0.000010
C22	C	1.534112	-0.353540	0.112015
C23	C	1.534137	-0.353517	-0.111872
C24	C	1.592099	-0.414184	0.000072
C25	C	1.478692	-0.199066	0.000016
C26	C	1.469402	-0.554035	-0.000011
C27	C	1.702181	0.118629	0.000003
C28	C	1.840704	0.121084	-0.000004
C29	C	1.464947	0.276963	-0.000012
C30	C	1.467417	0.370223	-0.000022
N31	N	1.474031	0.123445	0.353632
N32	N	1.474067	0.123441	-0.353626
C33	C	1.554469	0.069525	0.421415
C34	C	1.554489	0.069522	0.578578
H35	H	1.072523	0.260477	-0.000008
H36	H	1.363103	-0.419938	-0.206497
H37	H	1.623316	0.023361	0.363098
H38	H	1.623359	0.023362	0.636869
O39	O	0.918604	0.048067	-0.000179
C40	C	0.994760	0.044882	-0.117753
H41	H	1.001224	0.111606	-0.156953
H42	H	1.092621	0.014235	-0.091313
H43	H	0.952018	0.006232	-0.200066
H44	H	1.066360	0.062682	-0.000030
O45	O	1.391857	0.178599	0.577064
C46	C	1.317063	0.228716	0.670627
H47	H	1.368163	0.229940	0.772509
H48	H	1.298332	0.295673	0.629234
H49	H	1.224218	0.201061	0.685793
O50	O	0.810368	0.267805	0.000038
C51	C	0.684775	0.249024	-0.000001
H52	H	0.679897	0.183007	0.042980
H53	H	0.625725	0.296919	0.065889
H54	H	0.647145	0.251960	-0.108898
O55	O	1.237004	-0.299878	0.000361
C56	C	1.174088	-0.323237	0.118565
H57	H	1.245715	-0.344817	0.200630
H58	H	1.109900	-0.266819	0.157620
H59	H	1.115774	-0.376960	0.093029
H60	H	1.584893	-0.333259	0.206736
O61	O	1.391836	0.178402	0.423346
C62	C	1.314708	0.133050	0.505992
H63	H	1.364166	0.067539	0.527251
H64	H	1.295209	0.167953	0.606531
H65	H	1.222382	0.126986	0.451026
H66	H	1.363064	-0.419986	0.206528
O67	O	1.711224	-0.453031	0.000384
C68	C	1.774102	-0.429540	0.118518
H69	H	1.702459	-0.408045	0.200616
H70	H	1.838487	-0.485862	0.157579
H71	H	1.832205	-0.375720	0.092886
H72	H	1.584930	-0.333095	-0.206492
