data_functionalizedCrystal
_audit_creation_method	'MofGen! by Chris Wilmer'
_symmetry_space_group_name_H-M	'P1'
_symmetry_Int_Tables_number	1
_symmetry_cell_setting	triclinic
loop_
_symmetry_equiv_pos_as_xyz
  x,y,z
_cell_length_a	21.395364
_cell_length_b	18.101397
_cell_length_c	21.395356
_cell_angle_alpha	90.027036
_cell_angle_beta	90.016383
_cell_angle_gamma	90.035417
loop_
_atom_site_label
_atom_site_type_symbol
_atom_site_fract_x
_atom_site_fract_y
_atom_site_fract_z
Zn1	Zn	0.957853	-0.294568	0.354255
Zn2	Zn	0.957789	-0.418407	0.249475
Zn3	Zn	0.853083	-0.294616	0.249492
Zn4	Zn	0.853056	-0.418405	0.354215
O5	O	0.905446	-0.356499	0.301860
O6	O	1.045523	-0.310976	0.340366
O7	O	0.943885	-0.402006	0.161800
O8	O	0.867019	-0.190977	0.263413
O9	O	1.045476	-0.401960	0.263384
O10	O	0.943993	-0.190941	0.340382
O11	O	0.866957	-0.311058	0.161812
O12	O	0.765402	-0.311056	0.263374
O13	O	0.866973	-0.401957	0.441899
O14	O	0.765382	-0.402003	0.340314
O15	O	0.943967	-0.310974	0.441928
O16	O	0.943858	-0.522039	0.263346
O17	O	0.866911	-0.522038	0.340298
C18	C	0.742658	-0.356535	0.301842
C19	C	0.673017	-0.356568	0.301849
C20	C	0.640350	-0.309270	0.341995
C21	C	0.574915	-0.309251	0.341998
C22	C	0.542148	-0.356542	0.301861
C23	C	0.574823	-0.403843	0.261707
C24	C	0.640257	-0.403856	0.261701
C25	C	0.438435	-0.423235	0.296822
C26	C	0.373002	-0.423223	0.296832
C27	C	0.340328	-0.356501	0.301875
C28	C	0.373094	-0.289789	0.306920
C29	C	0.438529	-0.289802	0.306915
C30	C	0.471196	-0.356533	0.301862
C31	C	0.236709	-0.309178	0.342026
C32	C	0.171272	-0.309157	0.342024
C33	C	0.171181	-0.403756	0.261736
C34	C	0.236616	-0.403770	0.261734
C35	C	0.269376	-0.356482	0.301883
C36	C	0.905392	-0.548909	0.301829
C37	C	0.905426	-0.631223	0.301837
C38	C	0.905506	-0.930314	0.301894
C39	C	0.953784	-0.898959	0.253348
C40	C	0.953952	-0.813341	0.253474
C41	C	0.905467	-0.781932	0.301865
C42	C	0.923362	-0.812938	0.367908
C43	C	0.923736	-0.898583	0.367644
C44	C	0.839204	-0.898843	0.284969
C45	C	0.839531	-0.813193	0.283495
C46	C	0.905443	-0.698072	0.301853
C47	C	0.905531	-1.014174	0.301911
C48	C	1.068869	-0.356463	0.301878
C49	C	1.138510	-0.356448	0.301885
C50	C	0.905474	-0.356460	0.465283
C51	C	0.905486	-0.356443	0.534924
C52	C	0.905516	-0.163337	0.301904
C53	C	0.905547	-0.081023	0.301923
C54	C	0.905453	-0.356484	0.139072
C55	C	0.905562	-0.356292	0.069431
C56	C	0.945613	-0.403645	1.036715
C57	C	0.945602	-0.403668	0.971279
C58	C	0.905546	-0.356326	0.938563
C59	C	0.865488	-0.308970	0.971287
C60	C	0.865496	-0.308953	1.036721
C61	C	0.900611	-0.289632	0.834909
C62	C	0.900607	-0.289648	0.769476
C63	C	0.905518	-0.356378	0.736742
C64	C	0.910446	-0.423095	0.769449
C65	C	0.910454	-0.423078	0.834883
C66	C	0.905533	-0.356339	0.867610
C67	C	0.945559	-0.403761	0.633073
C68	C	0.945543	-0.403785	0.567636
C69	C	0.865432	-0.309080	0.567645
C70	C	0.865445	-0.309062	0.633081
C71	C	0.905511	-0.356401	0.665790
H72	H	0.465205	-0.235482	0.311021
H73	H	0.666853	-0.442373	0.229008
H74	H	0.942756	-0.792379	0.204504
H75	H	0.346493	-0.235457	0.311027
Br76	Br	0.894292	-0.199026	0.879327
H77	H	0.826037	-0.792935	0.234893
H78	H	0.144503	-0.442261	0.229055
Br79	Br	0.811126	-0.244718	0.926888
H80	H	0.801626	-0.791822	0.316264
H81	H	0.822923	-0.920505	0.237646
Br82	Br	0.280953	-0.467958	0.207242
Br83	Br	0.328539	-0.513761	0.289998
Br84	Br	1.004512	-0.931764	0.391539
Br85	Br	0.867666	-0.933156	0.429978
H86	H	0.832881	-0.270391	1.063359
H87	H	0.667019	-0.270764	0.374687
H88	H	0.548313	-0.270732	0.374689
H89	H	0.914446	-0.477434	0.742798
Br90	Br	0.999933	-0.468004	0.677469
Br91	Br	0.281172	-0.244999	0.396507
Br92	Br	0.126938	-0.244956	0.396508
H93	H	0.465033	-0.477572	0.292715
H94	H	0.548140	-0.442347	0.229026
Br95	Br	0.779249	-0.932642	0.343900
H96	H	0.942724	-0.919602	0.204232
Br97	Br	0.999982	-0.467898	1.081104
H98	H	1.002629	-0.920413	0.264418
Br99	Br	0.999958	-0.467940	0.926868
Br100	Br	1.035810	-0.779069	0.272142
Br101	Br	1.003235	-0.777071	0.392212
Br102	Br	0.999898	-0.468062	0.523234
Br103	Br	0.866542	-0.779042	0.429818
H104	H	0.914464	-0.477402	0.861510
Br105	Br	0.811051	-0.244851	0.523251
Br106	Br	0.893928	-0.199104	0.725094
Br107	Br	0.811076	-0.244807	0.677485
