data_functionalizedCrystal
_audit_creation_method	'MofGen! by Chris Wilmer'
_symmetry_space_group_name_H-M	'P1'
_symmetry_Int_Tables_number	1
_symmetry_cell_setting	triclinic
loop_
_symmetry_equiv_pos_as_xyz
  x,y,z
_cell_length_a	8.597187
_cell_length_b	8.597304
_cell_length_c	7.088638
_cell_angle_alpha	88.673255
_cell_angle_beta	76.036612
_cell_angle_gamma	84.294415
loop_
_atom_site_label
_atom_site_type_symbol
_atom_site_fract_x
_atom_site_fract_y
_atom_site_fract_z
O1	O	2.140085	0.180255	-0.541214
O2	O	1.676207	0.205445	-0.468952
O3	O	1.913526	-0.031869	-0.468947
O4	O	1.902766	0.417570	-0.541218
O5	O	1.881771	-0.000109	-0.150959
O6	O	1.644452	0.237205	-0.150964
O7	O	2.108330	0.212015	-0.223225
Cu8	Cu	1.873492	0.227510	-0.158060
Cu9	Cu	1.911046	0.189950	-0.534118
O10	O	1.871011	0.449329	-0.223230
C11	C	1.600834	0.220389	-0.300003
C12	C	1.423555	0.217580	-0.270339
C13	C	1.894725	-0.073496	-0.300001
C14	C	1.885993	-0.244849	-0.270346
C15	C	2.183704	0.197071	-0.392178
C16	C	2.360984	0.199879	-0.421855
C17	C	1.889813	0.490956	-0.392180
C18	C	1.898546	0.662308	-0.421849
N19	N	1.847090	0.253927	0.106438
N20	N	1.937460	0.163521	-0.798615
H21	H	1.341500	0.230601	-0.117939
H22	H	1.915969	-0.286089	-0.574256
H23	H	1.443046	0.186875	-0.574268
H24	H	1.868546	-0.296456	-0.117925
Cl25	Cl	1.702543	0.398546	0.232543
H26	H	2.031075	0.069837	0.119699
