data_functionalizedCrystal
_audit_creation_method	'MofGen! by Chris Wilmer'
_symmetry_space_group_name_H-M	'P1'
_symmetry_Int_Tables_number	1
_symmetry_cell_setting	triclinic
loop_
_symmetry_equiv_pos_as_xyz
  x,y,z
_cell_length_a	15.995350
_cell_length_b	15.995350
_cell_length_c	14.472310
_cell_angle_alpha	89.998838
_cell_angle_beta	89.990621
_cell_angle_gamma	96.507625
loop_
_atom_site_label
_atom_site_type_symbol
_atom_site_fract_x
_atom_site_fract_y
_atom_site_fract_z
O1	O	1.110997	-0.107921	-0.076758
O2	O	0.867221	-0.121248	-0.076776
O3	O	0.995773	0.007303	-0.076766
O4	O	0.982445	-0.236472	-0.076769
O5	O	0.995740	0.007296	0.076916
O6	O	0.867188	-0.121256	0.076906
O7	O	1.110963	-0.107928	0.076924
Cu8	Cu	0.989073	-0.114593	0.090947
Cu9	Cu	0.989112	-0.114584	-0.090800
O10	O	0.982412	-0.236480	0.076913
C11	C	0.836010	-0.120701	0.000062
C12	C	0.743060	-0.119049	0.000055
C13	C	0.405312	-0.113117	0.000074
C14	C	0.452746	-0.021565	0.000418
C15	C	0.549436	-0.023217	0.000065
C16	C	0.572873	-0.116060	0.000065
C17	C	0.531804	-0.161212	-0.087692
C18	C	0.435169	-0.158912	-0.087759
C19	C	0.434792	-0.160812	0.087007
C20	C	0.531737	-0.160790	0.088160
C21	C	0.667570	-0.117727	0.000057
C22	C	0.310614	-0.111452	0.000076
C23	C	0.995205	0.038494	0.000073
C24	C	0.993553	0.131444	0.000068
C25	C	1.142175	-0.108476	0.000083
C26	C	1.235125	-0.110127	0.000084
C27	C	0.982980	-0.267671	0.000072
C28	C	0.984631	-0.360621	0.000071
N29	N	0.989051	-0.114598	0.218778
C30	C	0.987621	0.469192	0.000071
C31	C	0.896069	0.421758	-0.000281
C32	C	0.897721	0.325068	0.000066
C33	C	0.990564	0.301631	0.000069
C34	C	1.035701	0.342705	0.087831
C35	C	1.033401	0.439340	0.087904
C36	C	1.035330	0.439707	-0.086861
C37	C	1.035309	0.342762	-0.088021
C38	C	0.992231	0.206934	0.000071
C39	C	0.985956	0.563890	0.000075
N40	N	0.989140	-0.114572	-0.218631
C41	C	0.989111	-0.114581	0.592869
C42	C	0.920095	-0.183135	0.553698
C43	C	0.920254	-0.183385	0.446610
C44	C	0.989081	-0.114590	0.407278
C45	C	1.076445	-0.133671	0.446122
C46	C	1.076057	-0.134159	0.553243
C47	C	0.971542	-0.026741	0.553398
C48	C	0.969538	-0.027327	0.446270
C49	C	0.989069	-0.114593	0.302390
C50	C	0.989128	-0.114579	0.697757
H51	H	0.559040	-0.127830	0.153082
H52	H	0.905272	-0.012845	0.420883
H53	H	1.129029	-0.085068	0.420643
Cl54	Cl	0.403071	-0.114603	0.189706
Cl55	Cl	0.937186	-0.283213	0.595223
Cl56	Cl	0.592442	0.031718	-0.097395
H57	H	0.560193	-0.129845	-0.153002
Cl58	Cl	0.555450	-0.265325	0.096343
Cl59	Cl	0.385756	-0.265027	0.087924
H60	H	1.103909	0.328579	0.091097
Cl61	Cl	0.987258	0.298886	0.188662
Cl62	Cl	0.842938	0.281187	-0.097064
Cl63	Cl	0.819977	-0.165888	0.406061
H64	H	0.402921	-0.226128	-0.091741
Cl65	Cl	0.819501	-0.165861	0.593482
H66	H	1.005412	0.460250	-0.153379
Cl67	Cl	0.406920	-0.108064	-0.189039
Cl68	Cl	0.984776	0.300207	-0.188275
H69	H	0.859490	0.440293	-0.063217
Cl70	Cl	0.875302	0.001572	0.595148
H71	H	1.103014	0.327400	-0.093317
H72	H	1.102831	0.471468	-0.087449
H73	H	0.859626	0.441349	0.062299
H74	H	0.545930	-0.229421	-0.090955
Cl75	Cl	0.842526	0.282035	0.097352
Cl76	Cl	0.937543	-0.284034	0.407026
H77	H	1.016541	0.026079	0.419500
H78	H	1.021872	0.024275	0.578728
H79	H	1.091540	-0.198219	0.578220
H80	H	1.092297	-0.197002	0.419285
Cl81	Cl	0.424123	0.034933	0.097584
Cl82	Cl	0.593312	0.031583	0.097188
Cl83	Cl	0.982536	0.467595	0.189183
H84	H	1.129018	-0.086196	0.579154
H85	H	1.100617	0.471588	0.091888
H86	H	0.433166	0.014865	-0.062168
