data_functionalizedCrystal
_audit_creation_method	'MofGen! by Chris Wilmer'
_symmetry_space_group_name_H-M	'P1'
_symmetry_Int_Tables_number	1
_symmetry_cell_setting	triclinic
loop_
_symmetry_equiv_pos_as_xyz
  x,y,z
_cell_length_a	8.597340
_cell_length_b	8.597249
_cell_length_c	16.098713
_cell_angle_alpha	79.291967
_cell_angle_beta	79.301784
_cell_angle_gamma	84.294846
loop_
_atom_site_label
_atom_site_type_symbol
_atom_site_fract_x
_atom_site_fract_y
_atom_site_fract_z
O1	O	2.095019	0.243354	-0.098541
O2	O	1.635448	0.258398	-0.066642
O3	O	1.872761	0.021083	-0.066645
O4	O	1.857705	0.480670	-0.098538
O5	O	1.885596	0.033972	-0.207000
O6	O	1.648282	0.271288	-0.206997
O7	O	2.107853	0.256243	-0.238896
Zn8	Zn	1.880105	0.265812	-0.245231
Zn9	Zn	1.863196	0.248830	-0.060307
O10	O	1.870540	0.493559	-0.238893
C11	C	1.582962	0.262509	-0.132425
C12	C	1.407451	0.255535	-0.119330
C13	C	1.876846	-0.031378	-0.132427
C14	C	1.869877	-0.206896	-0.119328
C15	C	2.160339	0.252132	-0.173111
C16	C	2.335850	0.259105	-0.186200
C17	C	1.866455	0.546019	-0.173109
C18	C	1.873424	0.721537	-0.186202
N19	N	1.891657	0.277401	-0.371437
N20	N	1.851656	0.237228	0.065899
C21	C	1.945351	0.331365	0.096034
C22	C	1.937236	0.323222	0.184387
C23	C	1.835435	0.220933	0.242604
C24	C	1.741729	0.126793	0.212464
C25	C	1.749836	0.134945	0.124113
C26	C	1.806059	0.191413	0.510071
C27	C	1.797963	0.183264	0.598428
C28	C	1.993468	0.379696	0.570345
C29	C	2.001573	0.387832	0.481992
C30	C	1.907862	0.293698	0.451860
C31	C	1.827142	0.212604	0.332915
C32	C	1.916148	0.302037	0.361550
H33	H	1.881792	-0.205459	-0.253472
O34	O	1.859616	-0.294032	-0.039070
C35	C	1.719046	-0.374998	-0.018736
H36	H	1.629660	-0.310803	-0.059742
H37	H	1.746820	-0.501402	-0.032033
C38	C	1.758508	-0.458250	0.127192
C39	C	1.648718	-0.379397	0.076833
H40	H	1.715128	-0.460972	0.186144
H41	H	1.853216	-0.403708	0.113493
H42	H	1.781643	-0.563580	0.116101
H43	H	1.625600	-0.274065	0.087917
H44	H	1.554004	-0.433922	0.090537
O45	O	2.044278	0.430863	0.039602
C46	C	2.125262	0.512174	0.085150
H47	H	2.054255	0.513988	0.152258
H48	H	2.247121	0.449218	0.090201
C49	C	2.232242	0.681359	-0.044991
C50	C	2.145024	0.683599	0.037429
H51	H	2.244440	0.787100	-0.074429
H52	H	2.177687	0.626575	-0.075679
H53	H	2.333782	0.628888	-0.040771
H54	H	2.043480	0.736052	0.033208
H55	H	2.199562	0.738397	0.068115
H56	H	2.013535	0.399876	0.208917
H57	H	2.084474	0.471124	0.434596
H58	H	1.673536	0.058293	0.099580
H59	H	1.334471	0.247142	-0.052054
H60	H	2.069761	0.456336	0.594888
H61	H	1.715054	0.099970	0.645829
H62	H	1.729757	0.114757	0.485549
H63	H	1.408822	0.267486	-0.253471
O64	O	1.642747	0.027642	0.269098
C65	C	1.532148	0.116674	0.321069
H66	H	1.582446	0.233944	0.322127
H67	H	1.416980	0.141107	0.293974
C68	C	1.437185	-0.121525	0.411709
C69	C	1.498969	0.022503	0.413015
H70	H	1.416711	-0.179615	0.468425
H71	H	1.511693	-0.181509	0.376694
H72	H	1.341219	-0.101143	0.389126
H73	H	1.594942	0.002119	0.435587
H74	H	1.424475	0.082481	0.448036
O75	O	2.015252	0.401301	0.305086
C76	C	2.172779	0.359394	0.318082
H77	H	2.172455	0.292342	0.386213
H78	H	2.233825	0.280589	0.270283
C79	C	2.263228	0.592997	0.221133
C80	C	2.262830	0.510655	0.304816
H81	H	2.318779	0.686300	0.212947
H82	H	2.157100	0.621229	0.212375
H83	H	2.314096	0.527310	0.181310
H84	H	2.211945	0.576335	0.344637
H85	H	2.368951	0.482438	0.313581
O86	O	1.728181	0.113440	0.389555
C87	C	1.617579	0.202471	0.441525
H88	H	1.667864	0.319754	0.442572
H89	H	1.502403	0.226879	0.414439
C90	C	1.522661	-0.035728	0.532185
C91	C	1.584428	0.108316	0.533476
H92	H	1.502205	-0.093809	0.588904
H93	H	1.597171	-0.095711	0.497170
H94	H	1.426688	-0.015368	0.509609
H95	H	1.680409	0.087953	0.556042
H96	H	1.509933	0.168293	0.568497
