data_functionalizedCrystal
_audit_creation_method	'MofGen! by Chris Wilmer'
_symmetry_space_group_name_H-M	'P1'
_symmetry_Int_Tables_number	1
_symmetry_cell_setting	triclinic
loop_
_symmetry_equiv_pos_as_xyz
  x,y,z
_cell_length_a	14.044220
_cell_length_b	14.044220
_cell_length_c	12.503572
_cell_angle_alpha	93.843168
_cell_angle_beta	86.164750
_cell_angle_gamma	93.188878
loop_
_atom_site_label
_atom_site_type_symbol
_atom_site_fract_x
_atom_site_fract_y
_atom_site_fract_z
O1	O	1.282200	0.225116	-0.089210
O2	O	1.615533	0.558450	0.244123
O3	O	1.948867	0.891783	0.577457
O4	O	1.005530	0.216809	-0.089237
O5	O	1.338863	0.550142	0.244096
O6	O	1.672197	0.883476	0.577430
O7	O	1.139712	0.082627	-0.089213
O8	O	1.473045	0.415961	0.244120
O9	O	1.806378	0.749294	0.577453
O10	O	1.148019	0.359298	-0.089234
O11	O	1.481352	0.692631	0.244100
O12	O	1.814685	1.025964	0.577433
O13	O	1.129622	0.092737	0.089427
O14	O	1.462955	0.426070	0.422760
O15	O	1.796289	0.759404	0.756093
O16	O	0.995440	0.226918	0.089403
O17	O	1.328774	0.560252	0.422736
O18	O	1.662107	0.893585	0.756070
O19	O	1.272110	0.235226	0.089430
O20	O	1.605444	0.568559	0.422763
O21	O	1.938777	0.901892	0.756097
Cu22	Cu	1.132854	0.231995	0.105728
Cu23	Cu	1.466187	0.565328	0.439061
Cu24	Cu	1.799521	0.898662	0.772395
Cu25	Cu	1.144786	0.220040	-0.105535
Cu26	Cu	1.478120	0.553373	0.227798
Cu27	Cu	1.811453	0.886706	0.561132
O28	O	1.137929	0.369407	0.089406
O29	O	1.471262	0.702741	0.422740
O30	O	1.804595	1.036074	0.756073
C31	C	0.964864	0.218228	0.000080
C32	C	1.298197	0.551561	0.333413
C33	C	1.631530	0.884895	0.666746
C34	C	0.858721	0.207383	0.000070
C35	C	1.192055	0.540716	0.333403
C36	C	1.525388	0.874049	0.666736
C37	C	0.664382	0.187558	0.000092
C38	C	0.997716	0.520891	0.333426
C39	C	1.331049	0.854224	0.666759
C40	C	0.613253	0.264472	0.000091
C41	C	0.946586	0.597805	0.333425
C42	C	1.279919	0.931139	0.666758
C43	C	0.505116	0.253441	0.000104
C44	C	0.838449	0.586775	0.333437
C45	C	1.171782	0.920108	0.666771
C46	C	0.772529	0.198587	0.000080
C47	C	1.105863	0.531921	0.333413
C48	C	1.439196	0.865254	0.666746
C49	C	1.131031	0.052060	0.000107
C50	C	1.464365	0.385394	0.333440
C51	C	1.797698	0.718727	0.666773
C52	C	1.120187	-0.054082	0.000107
C53	C	1.453520	0.279251	0.333440
C54	C	1.786853	0.612584	0.666774
C55	C	1.100361	-0.248421	0.000090
C56	C	1.433695	0.084912	0.333423
C57	C	1.767028	0.418246	0.666756
C58	C	1.177275	-0.299551	0.000094
C59	C	1.510609	0.033783	0.333427
C60	C	1.843942	0.367116	0.666761
C61	C	1.166244	-0.407687	0.000084
C62	C	1.499578	-0.074354	0.333418
C63	C	1.832911	0.258979	0.666751
C64	C	1.111391	-0.140274	0.000099
C65	C	1.444724	0.193059	0.333433
C66	C	1.778058	0.526392	0.666766
C67	C	1.312777	0.233807	0.000111
C68	C	1.646110	0.567140	0.333444
C69	C	1.979444	0.900473	0.666778
C70	C	1.418920	0.244651	0.000114
C71	C	1.752253	0.577985	0.333447
C72	C	2.085586	0.911318	0.666781
C73	C	1.146609	0.399974	0.000084
C74	C	1.479943	0.733308	0.333417
C75	C	1.813276	1.066641	0.666751
C76	C	1.157454	0.506117	0.000077
C77	C	1.490788	0.839450	0.333410
C78	C	1.824121	1.172783	0.666743
N79	N	1.124469	0.240404	0.254319
N80	N	1.457802	0.573737	0.587652
N81	N	1.791135	0.907071	0.920985
N82	N	1.153179	0.211624	-0.254126
N83	N	1.486512	0.544957	0.079208
N84	N	1.819846	0.878290	0.412541
C85	C	1.112134	0.252782	0.473432
C86	C	1.445467	0.586115	0.806765
C87	C	1.778800	0.919449	1.140098
C88	C	1.165511	0.199249	0.526768
C89	C	1.498844	0.532582	0.860102
C90	C	1.832178	0.865915	1.193435
C91	C	1.158648	0.206136	0.648690
C92	C	1.491981	0.539469	0.982024
C93	C	1.825314	0.872802	1.315357
C94	C	1.118996	0.245896	0.351499
C95	C	1.452329	0.579229	0.684832
C96	C	1.785662	0.912563	1.018165
H97	H	1.251413	-0.262115	0.000029
H98	H	1.584746	0.071218	0.333362
H99	H	1.918079	0.404551	0.666696
O100	O	1.011992	-0.293226	0.000133
O101	O	1.345325	0.040108	0.333466
O102	O	1.678659	0.373441	0.666800
C103	C	0.920299	-0.443439	0.000065
C104	C	1.253633	-0.110106	0.333398
C105	C	1.586966	0.223227	0.666732
C106	C	1.020429	-0.392805	0.000035
C107	C	1.353763	-0.059471	0.333368
C108	C	1.687096	0.273862	0.666702
H109	H	0.927088	-0.523958	-0.000037
H110	H	1.260421	-0.190625	0.333296
H111	H	1.593755	0.142708	0.666630
H112	H	0.875612	-0.417760	0.074845
H113	H	1.208945	-0.084426	0.408179
H114	H	1.542278	0.248907	0.741512
H115	H	0.884068	-0.426080	-0.074676
H116	H	1.217402	-0.092747	0.258657
H117	H	1.550735	0.240586	0.591991
H118	H	1.056742	-0.410141	0.074725
H119	H	1.390076	-0.076807	0.408059
H120	H	1.723409	0.256526	0.741392
H121	H	1.065047	-0.418488	-0.074795
H122	H	1.398380	-0.085155	0.258538
H123	H	1.731714	0.248178	0.591872
H124	H	0.626945	0.113431	0.000104
H125	H	0.960278	0.446764	0.333437
H126	H	1.293612	0.780098	0.666770
H127	H	1.216364	0.148245	0.480864
H128	H	1.549697	0.481579	0.814198
H129	H	1.883030	0.814912	1.147531
H130	H	0.650692	0.338605	0.000081
H131	H	0.984026	0.671938	0.333414
H132	H	1.317359	1.005272	0.666747
H133	H	1.061285	0.303783	0.519330
H134	H	1.394619	0.637117	0.852663
H135	H	1.727952	0.970450	1.185997
