data_functionalizedCrystal
_audit_creation_method	'MofGen! by Chris Wilmer'
_symmetry_space_group_name_H-M	'P1'
_symmetry_Int_Tables_number	1
_symmetry_cell_setting	triclinic
loop_
_symmetry_equiv_pos_as_xyz
  x,y,z
_cell_length_a	15.944545
_cell_length_b	15.021413
_cell_length_c	27.732048
_cell_angle_alpha	89.999048
_cell_angle_beta	83.069414
_cell_angle_gamma	89.995468
loop_
_atom_site_label
_atom_site_type_symbol
_atom_site_fract_x
_atom_site_fract_y
_atom_site_fract_z
O1	O	1.113717	-0.073984	0.062319
O2	O	0.869066	-0.074000	0.070009
O3	O	0.998990	-0.073975	-0.004200
O4	O	0.983793	-0.074010	0.136528
O5	O	0.998969	0.074089	-0.004189
O6	O	0.869046	0.074064	0.070019
O7	O	1.113696	0.074080	0.062330
Zn8	Zn	0.991368	0.097580	0.066176
Zn9	Zn	0.991395	-0.097501	0.066162
O10	O	0.983773	0.074055	0.136539
C11	C	0.837766	0.000030	0.069695
C12	C	0.744532	0.000025	0.068740
C13	C	0.474538	0.000047	0.019887
C14	C	0.524802	0.073046	0.043445
C15	C	0.408933	0.000041	0.065333
C16	C	0.524803	-0.072933	0.043447
C17	C	0.573825	0.000032	0.067004
C18	C	0.457968	0.073101	0.088879
C19	C	0.457966	-0.072944	0.088874
C20	C	0.508196	0.000074	0.112465
C21	C	0.313943	0.000047	0.064369
C22	C	0.668811	0.000032	0.067972
C23	C	0.998661	0.000060	-0.022203
C24	C	0.997700	0.000067	-0.075862
C25	C	1.144997	0.000048	0.062643
C26	C	1.238231	0.000047	0.063599
N27	N	0.991355	0.230718	0.066186
N28	N	0.991414	-0.230638	0.066149
C29	C	0.931270	0.470390	0.100483
C30	C	1.007047	0.529726	0.109866
C31	C	0.991377	0.412325	0.066173
C32	C	0.915619	0.529730	0.056801
C33	C	0.991391	0.587749	0.066163
C34	C	1.067193	0.470355	0.075578
C35	C	0.975715	0.470354	0.022494
C36	C	1.051548	0.529664	0.031859
C37	C	0.991368	0.311268	0.066181
C38	C	0.991409	0.688804	0.066155
C39	C	1.068429	0.000026	-0.414372
C40	C	1.064865	0.000013	-0.616047
O41	O	1.129542	-0.000022	-0.647023
N42	N	0.987826	0.000009	-0.635503
C43	C	0.911672	0.000002	-0.604537
O44	O	0.846064	-0.000011	-0.625714
C45	C	0.915237	0.000009	-0.402863
C46	C	0.992281	0.000022	-0.383410
C47	C	1.145468	0.000038	-0.394918
C48	C	1.146358	0.000046	-0.344502
C49	C	1.070210	0.000042	-0.313540
C50	C	0.993172	0.000030	-0.332994
C51	C	0.839084	-0.000005	-0.371898
C52	C	0.839982	-0.000005	-0.321477
C53	C	0.917026	0.000008	-0.302024
C54	C	0.917914	0.000034	-0.251616
N55	N	0.994953	0.000038	-0.232160
C56	C	1.071101	0.000042	-0.263122
C57	C	0.909806	0.000001	-0.710419
C58	C	0.908915	0.000001	-0.760838
C59	C	1.062108	0.000010	-0.772344
C60	C	1.062999	0.000016	-0.721924
C61	C	0.986845	0.000005	-0.690963
C62	C	1.072965	0.000059	-0.157245
C63	C	1.073848	0.000071	-0.106824
C64	C	0.920655	0.000057	-0.095322
C65	C	0.919771	0.000050	-0.145739
C66	C	0.995933	0.000048	-0.176699
O67	O	0.853271	0.000058	-0.220611
O68	O	1.136700	0.000035	-0.241936
C69	C	1.067539	0.000018	-0.464787
C70	C	0.990501	0.000006	-0.484241
C71	C	0.914353	0.000002	-0.453279
C72	C	0.989610	0.000006	-0.534660
C73	C	1.065758	0.000010	-0.565621
C74	C	1.142797	0.000014	-0.546165
C75	C	1.143687	0.000022	-0.495749
C76	C	0.837314	-0.000002	-0.472736
C77	C	0.836430	-0.000009	-0.523152
C78	C	0.912578	-0.000005	-0.554114
C79	C	0.984102	0.000018	0.154542
C80	C	0.985063	0.000005	0.208201
H81	H	0.880489	0.444364	0.129522
H82	H	1.020307	0.555805	0.146800
H83	H	0.851547	0.555813	0.048879
H84	H	1.131279	0.444384	0.083545
H85	H	0.962432	0.444254	-0.014428
H86	H	0.428777	-0.134671	0.108045
O87	O	1.156953	0.000083	-0.085845
H88	H	1.144785	0.000096	-0.045584
O89	O	0.454446	0.000155	-0.031948
H90	H	0.482370	-0.059837	-0.050974
H91	H	0.553975	0.134771	0.024257
O92	O	0.419478	0.154953	0.114279
H93	H	0.350080	0.154335	0.113353
O94	O	1.118953	0.563940	-0.006582
H95	H	1.181741	0.540034	0.001312
O96	O	0.528047	0.000112	0.164346
H97	H	0.597584	-0.000469	0.164685
O98	O	1.155108	0.000070	-0.190634
H99	H	1.208820	0.000091	-0.168629
H100	H	0.777967	-0.000016	-0.296270
O101	O	1.229455	0.000034	-0.323522
H102	H	1.282249	0.000021	-0.353529
H103	H	0.553980	-0.134645	0.024242
O104	O	1.227605	0.000055	-0.428309
H105	H	1.281316	0.000072	-0.406303
H106	H	1.125735	0.000026	-0.706089
H107	H	1.124111	0.000014	-0.797562
H108	H	0.846177	0.000006	-0.776672
O109	O	0.827664	0.000008	-0.677027
H110	H	0.773952	0.000018	-0.699032
H111	H	0.776346	-0.000021	-0.387728
H112	H	0.857035	0.000064	-0.161578
O113	O	0.838525	0.000052	-0.061924
H114	H	0.852095	0.000049	-0.023598
O115	O	1.226785	0.000018	-0.474770
H116	H	1.279578	0.000008	-0.504776
H117	H	1.204799	0.000021	-0.571383
O118	O	0.753327	-0.000022	-0.544132
H119	H	0.700531	-0.000031	-0.514127
O120	O	0.755179	0.000009	-0.439344
H121	H	0.701466	0.000016	-0.461348
