data_functionalizedCrystal
_audit_creation_method	'MofGen! by Chris Wilmer'
_symmetry_space_group_name_H-M	'P1'
_symmetry_Int_Tables_number	1
_symmetry_cell_setting	triclinic
loop_
_symmetry_equiv_pos_as_xyz
  x,y,z
_cell_length_a	16.120530
_cell_length_b	13.897448
_cell_length_c	16.120297
_cell_angle_alpha	87.126532
_cell_angle_beta	90.128140
_cell_angle_gamma	92.886725
loop_
_atom_site_label
_atom_site_type_symbol
_atom_site_fract_x
_atom_site_fract_y
_atom_site_fract_z
Zn1	Zn	1.247483	0.488690	-0.534571
Zn2	Zn	1.497483	0.738690	-0.284571
Zn3	Zn	1.747483	0.988690	-0.034571
Zn4	Zn	1.997483	1.238690	0.215429
Zn5	Zn	1.254447	0.642247	-0.395515
Zn6	Zn	1.504447	0.892247	-0.145515
Zn7	Zn	1.754447	1.142247	0.104485
Zn8	Zn	2.004447	1.392247	0.354485
Zn9	Zn	1.115472	0.472390	-0.388489
Zn10	Zn	1.365472	0.722390	-0.138489
Zn11	Zn	1.615472	0.972390	0.111511
Zn12	Zn	1.865472	1.222390	0.361511
Zn13	Zn	1.108403	0.641358	-0.527485
Zn14	Zn	1.358403	0.891358	-0.277485
Zn15	Zn	1.608403	1.141358	-0.027485
Zn16	Zn	1.858403	1.391358	0.222515
O17	O	1.181451	0.561171	-0.461515
O18	O	1.431451	0.811171	-0.211515
O19	O	1.681451	1.061171	0.038485
O20	O	1.931451	1.311171	0.288485
O21	O	1.364774	0.516253	-0.522031
O22	O	1.614774	0.766253	-0.272031
O23	O	1.864774	1.016253	-0.022031
O24	O	2.114774	1.266253	0.227969
O25	O	1.241884	0.613265	-0.278218
O26	O	1.491884	0.863265	-0.028218
O27	O	1.741884	1.113265	0.221782
O28	O	1.991884	1.363265	0.471782
O29	O	1.133027	0.339575	-0.407892
O30	O	1.383027	0.589575	-0.157892
O31	O	1.633027	0.839575	0.092108
O32	O	1.883027	1.089575	0.342108
O33	O	1.369890	0.629070	-0.419868
O34	O	1.619890	0.879070	-0.169868
O35	O	1.869890	1.129070	0.080132
O36	O	2.119890	1.379070	0.330132
O37	O	1.230015	0.351550	-0.515218
O38	O	1.480015	0.601550	-0.265218
O39	O	1.730015	0.851550	-0.015218
O40	O	1.980015	1.101550	0.234782
O41	O	1.139780	0.488472	-0.273055
O42	O	1.389780	0.738472	-0.023055
O43	O	1.639780	0.988472	0.226945
O44	O	1.889780	1.238472	0.476945
O45	O	0.998167	0.487611	-0.401021
O46	O	1.248167	0.737611	-0.151021
O47	O	1.498167	0.987611	0.098979
O48	O	1.748167	1.237611	0.348979
O49	O	1.120980	0.627556	-0.644790
O50	O	1.370980	0.877556	-0.394790
O51	O	1.620980	1.127556	-0.144790
O52	O	1.870980	1.377556	0.105210
O53	O	0.992974	0.611751	-0.503140
O54	O	1.242974	0.861751	-0.253140
O55	O	1.492974	1.111751	-0.003140
O56	O	1.742974	1.361751	0.246860
O57	O	1.223161	0.515392	-0.649997
O58	O	1.473161	0.765392	-0.399997
O59	O	1.723161	1.015392	-0.149997
O60	O	1.973161	1.265392	0.100003
O61	O	1.235030	0.777106	-0.412996
O62	O	1.485030	1.027106	-0.162996
O63	O	1.735030	1.277106	0.087004
O64	O	1.985030	1.527106	0.337004
O65	O	1.127733	0.776454	-0.509954
O66	O	1.377733	1.026454	-0.259954
O67	O	1.627733	1.276454	-0.009954
O68	O	1.877733	1.526454	0.240046
C69	C	0.965398	0.547817	-0.450550
C70	C	1.215398	0.797817	-0.200550
C71	C	1.465398	1.047817	0.049450
C72	C	1.715398	1.297817	0.299450
C73	C	0.872968	0.542128	-0.445878
C74	C	1.122968	0.792128	-0.195878
C75	C	1.372968	1.042128	0.054122
C76	C	1.622968	1.292128	0.304122
C77	C	1.181392	0.811781	-0.461488
C78	C	1.431392	1.061781	-0.211488
C79	C	1.681392	1.311781	0.038512
C80	C	1.931392	1.561781	0.288512
C81	C	1.181441	0.918999	-0.461508
C82	C	1.431441	1.168999	-0.211508
C83	C	1.681441	1.418999	0.038492
C84	C	1.931441	1.668999	0.288492
C85	C	1.170505	0.573193	-0.678409
C86	C	1.420505	0.823193	-0.428409
C87	C	1.670505	1.073193	-0.178409
C88	C	1.920505	1.323193	0.071591
C89	C	1.165840	0.578316	-0.770837
C90	C	1.415840	0.828316	-0.520837
C91	C	1.665840	1.078316	-0.270837
C92	C	1.915840	1.328316	-0.020837
C93	C	0.703738	0.531719	-0.437357
C94	C	0.953738	0.781719	-0.187357
C95	C	1.203738	1.031719	0.062643
C96	C	1.453738	1.281719	0.312643
C97	C	0.660002	0.590698	-0.485734
C98	C	0.910002	0.840698	-0.235734
C99	C	1.160002	1.090698	0.014266
C100	C	1.410002	1.340698	0.264266
C101	C	0.565836	0.584907	-0.480993
C102	C	0.815836	0.834907	-0.230993
C103	C	1.065836	1.084907	0.019007
C104	C	1.315836	1.334907	0.269007
C105	C	0.797912	0.537509	-0.442097
C106	C	1.047912	0.787509	-0.192097
C107	C	1.297912	1.037509	0.057903
C108	C	1.547912	1.287509	0.307903
C109	C	1.398348	0.574579	-0.472524
C110	C	1.648348	0.824579	-0.222524
C111	C	1.898348	1.074579	0.027476
C112	C	2.148348	1.324579	0.277476
C113	C	1.490777	0.580293	-0.477215
C114	C	1.740777	0.830293	-0.227215
C115	C	1.990777	1.080293	0.022785
C116	C	2.240777	1.330293	0.272785
C117	C	1.181533	0.309586	-0.461562
C118	C	1.431533	0.559586	-0.211562
C119	C	1.681533	0.809586	0.038438
C120	C	1.931533	1.059586	0.288438
C121	C	1.181567	0.202375	-0.461581
C122	C	1.431567	0.452375	-0.211581
C123	C	1.681567	0.702375	0.038419
C124	C	1.931567	0.952375	0.288419
C125	C	1.181526	1.115302	-0.461564
C126	C	1.431526	1.365302	-0.211564
C127	C	1.681526	1.615302	0.038436
C128	C	1.931526	1.865302	0.288436
C129	C	1.181476	1.006065	-0.461535
C130	C	1.431476	1.256065	-0.211535
C131	C	1.681476	1.506065	0.038465
C132	C	1.931476	1.756065	0.288465
C133	C	1.157294	0.587646	-0.940062
C134	C	1.407294	0.837646	-0.690062
C135	C	1.657294	1.087646	-0.440062
C136	C	1.907294	1.337646	-0.190062
C137	C	1.205773	0.534418	-0.983829
C138	C	1.455773	0.784418	-0.733829
C139	C	1.705773	1.034418	-0.483829
C140	C	1.955773	1.284418	-0.233829
C141	C	1.201017	0.539609	-1.077991
C142	C	1.451017	0.789609	-0.827991
C143	C	1.701017	1.039609	-0.577991
C144	C	1.951017	1.289609	-0.327991
C145	C	1.162048	0.582456	-0.845890
C146	C	1.412048	0.832456	-0.595890
C147	C	1.662048	1.082456	-0.345890
C148	C	1.912048	1.332456	-0.095890
C149	C	1.192403	0.549130	-0.245467
C150	C	1.442403	0.799130	0.004533
C151	C	1.692403	1.049130	0.254533
C152	C	1.942403	1.299130	0.504533
C153	C	1.197228	0.543745	-0.153048
C154	C	1.447228	0.793745	0.096952
C155	C	1.697228	1.043745	0.346952
C156	C	1.947228	1.293745	0.596952
H157	H	0.693279	0.645540	-0.530713
H158	H	0.943279	0.895540	-0.280713
H159	H	1.193279	1.145540	-0.030713
H160	H	1.443279	1.395540	0.219287
H161	H	1.250848	0.484948	-0.950580
H162	H	1.500848	0.734948	-0.700580
H163	H	1.750848	0.984948	-0.450580
H164	H	2.000848	1.234948	-0.200580
H165	H	0.670463	0.476881	-0.392381
H166	H	0.920463	0.726881	-0.142381
H167	H	1.170463	0.976881	0.107619
H168	H	1.420463	1.226881	0.357619
C169	C	1.096411	0.654479	-0.984971
C170	C	1.346411	0.904479	-0.734971
C171	C	1.596411	1.154479	-0.484971
C172	C	1.846411	1.404479	-0.234971
H173	H	1.101172	0.649249	-1.043285
H174	H	1.351172	0.899249	-0.793285
H175	H	1.601172	1.149249	-0.543285
H176	H	1.851172	1.399249	-0.293285
H177	H	1.041243	0.636154	-0.967949
H178	H	1.291243	0.886154	-0.717949
H179	H	1.541243	1.136154	-0.467949
H180	H	1.791243	1.386154	-0.217949
H181	H	1.109275	0.719276	-0.971403
H182	H	1.359275	0.969276	-0.721403
H183	H	1.609275	1.219276	-0.471403
H184	H	1.859275	1.469276	-0.221403
