data_functionalizedCrystal
_audit_creation_method	'MofGen! by Chris Wilmer'
_symmetry_space_group_name_H-M	'P1'
_symmetry_Int_Tables_number	1
_symmetry_cell_setting	triclinic
loop_
_symmetry_equiv_pos_as_xyz
  x,y,z
_cell_length_a	23.532356
_cell_length_b	23.532407
_cell_length_c	14.472310
_cell_angle_alpha	89.989680
_cell_angle_beta	89.992966
_cell_angle_gamma	97.161748
loop_
_atom_site_label
_atom_site_type_symbol
_atom_site_fract_x
_atom_site_fract_y
_atom_site_fract_z
O1	O	-0.069133	0.755254	-0.076767
O2	O	-0.079136	0.589389	-0.076779
O3	O	0.008799	0.677338	-0.076786
O4	O	-0.157069	0.667305	-0.076760
O5	O	0.008794	0.677316	0.076896
O6	O	-0.079142	0.589366	0.076903
O7	O	-0.069138	0.755232	0.076915
Cu8	Cu	-0.074140	0.672297	0.090941
Cu9	Cu	-0.074134	0.672324	-0.090805
O10	O	-0.157074	0.667282	0.076922
C11	C	-0.078884	0.568162	0.000060
C12	C	-0.078118	0.504945	0.000054
C13	C	-0.022922	0.238788	0.000071
C14	C	-0.023633	0.298188	0.000071
O15	O	0.020154	0.334940	0.000096
N16	N	-0.075911	0.320804	0.000073
C17	C	-0.127480	0.284017	0.000084
O18	O	-0.172012	0.308709	0.000086
C19	C	-0.126768	0.224618	0.000091
C20	C	-0.074487	0.202005	0.000080
C21	C	0.029355	0.216174	0.000061
C22	C	0.030066	0.156778	0.000059
C23	C	-0.021499	0.119996	0.000068
C24	C	-0.073776	0.142609	0.000078
C25	C	-0.178337	0.187832	0.000109
C26	C	-0.177620	0.128430	0.000116
C27	C	-0.125339	0.105817	0.000105
C28	C	-0.124630	0.046431	0.000085
N29	N	-0.072353	0.023814	0.000083
C30	C	-0.020787	0.060597	0.000075
C31	C	-0.128972	0.408759	0.000071
C32	C	-0.129684	0.468157	0.000058
C33	C	-0.025837	0.482324	0.000047
C34	C	-0.025125	0.422925	0.000053
C35	C	-0.076694	0.386143	0.000070
C36	C	-0.019297	-0.064140	0.000070
C37	C	-0.018591	-0.123542	0.000065
C38	C	-0.122438	-0.137703	0.000081
C39	C	-0.123145	-0.078306	0.000082
C40	C	-0.071570	-0.041526	0.000080
O41	O	-0.168394	0.009644	0.000063
O42	O	0.023737	0.035897	0.000084
C43	C	-0.178288	0.667544	0.000084
C44	C	-0.241506	0.668299	0.000094
C45	C	-0.633517	0.673049	-0.083723
C46	C	-0.692917	0.673766	-0.083727
O47	O	-0.723633	0.674167	-0.154971
N48	N	-0.722628	0.674109	0.000044
C49	C	-0.692936	0.673741	0.083826
O50	O	-0.723662	0.674100	0.155079
C51	C	-0.633537	0.673028	0.083829
C52	C	-0.603830	0.672679	0.000052
C53	C	-0.603810	0.672700	-0.167493
C54	C	-0.544414	0.671982	-0.167488
C55	C	-0.514727	0.671612	-0.083713
C56	C	-0.544435	0.671960	0.000057
C57	C	-0.603846	0.672664	0.167609
C58	C	-0.544443	0.671951	0.167606
C59	C	-0.514735	0.671602	0.083829
C60	C	-0.455352	0.670872	0.083837
N61	N	-0.425640	0.670529	0.000065
C62	C	-0.455328	0.670898	-0.083709
C63	C	-0.817678	0.675240	0.083812
C64	C	-0.877076	0.675949	0.083809
C65	C	-0.877052	0.675975	-0.083744
C66	C	-0.817653	0.675262	-0.083740
C67	C	-0.787966	0.674897	0.000041
C68	C	-0.330594	0.669389	-0.083693
C69	C	-0.271194	0.668668	-0.083681
C70	C	-0.271222	0.668646	0.083871
C71	C	-0.330618	0.669363	0.083860
C72	C	-0.360302	0.669737	0.000070
O73	O	-0.424598	0.670473	0.155045
O74	O	-0.424594	0.670547	-0.154951
C75	C	0.030013	0.677076	0.000050
C76	C	0.093232	0.676322	0.000034
C77	C	-0.069390	0.776459	0.000074
C78	C	-0.070156	0.839676	0.000074
N79	N	-0.074144	0.672282	0.218772
N80	N	-0.074126	0.672343	-0.218636
C81	C	-0.074132	0.672323	0.592864
C82	C	-0.121028	0.625107	0.553701
C83	C	-0.121198	0.625214	0.446613
C84	C	-0.074138	0.672302	0.407273
C85	C	-0.086781	0.731651	0.446117
C86	C	-0.087114	0.731385	0.553238
C87	C	-0.014451	0.660722	0.553382
C88	C	-0.014857	0.659356	0.446255
C89	C	-0.074140	0.672294	0.302384
C90	C	-0.074131	0.672335	0.697752
H91	H	0.071349	0.246117	0.000057
H92	H	0.020444	0.695158	0.578706
C93	C	-0.784979	0.674891	-0.175900
N94	N	-0.760371	0.674616	-0.245319
C95	C	0.002074	0.603538	0.589908
N96	N	0.014514	0.560465	0.617419
H97	H	-0.247040	0.668342	0.152079
C98	C	-0.001885	0.600378	0.411964
N99	N	0.007884	0.555954	0.386132
H100	H	-0.901235	0.676274	-0.151958
C101	C	-0.235851	0.212693	0.000136
N102	N	-0.279174	0.231416	0.000163
C103	C	-0.909749	0.676326	0.175970
N104	N	-0.934355	0.676612	0.245390
H105	H	-0.165075	0.632375	0.580618
H106	H	-0.520275	0.671654	0.235832
H107	H	0.021650	0.691539	0.419478
H108	H	-0.520231	0.671701	-0.235708
H109	H	-0.219615	0.098484	0.000133
H110	H	-0.793511	0.674938	0.152040
H111	H	-0.054286	0.767599	0.579142
C112	C	0.087580	0.131912	0.000070
N113	N	0.130902	0.113187	0.000086
H114	H	-0.113673	0.580837	0.579484
C115	C	-0.041847	0.780233	0.411686
N116	N	-0.008002	0.816825	0.385750
C117	C	-0.181038	0.635177	0.411989
N118	N	-0.226112	0.642685	0.385911
H119	H	0.017447	0.404518	0.000045
C120	C	0.030887	0.522796	0.000046
N121	N	0.073608	0.553281	0.000047
H122	H	-0.354810	0.669625	0.152078
C123	C	-0.145905	0.745256	0.586992
N124	N	-0.190189	0.755700	0.612410
H125	H	-0.628023	0.672954	0.235830
C126	C	-0.180656	-0.053431	0.000084
N127	N	-0.223975	-0.034700	0.000093
C128	C	-0.238517	0.668303	-0.175846
N129	N	-0.213905	0.668037	-0.245263
H130	H	-0.172257	0.486563	0.000054
H131	H	-0.113715	0.581088	0.420352
H132	H	-0.354756	0.669694	-0.151923
C133	C	-0.636457	0.673104	-0.259660
N134	N	-0.661044	0.673404	-0.329086
C135	C	0.038925	-0.148412	0.000061
N136	N	0.082244	-0.167142	0.000063
C137	C	0.037438	-0.023689	0.000061
N138	N	0.080171	0.006778	0.000047
H139	H	-0.129798	0.742181	0.419287
H140	H	-0.164421	-0.167662	0.000084
C141	C	-0.185706	0.368304	0.000079
N142	N	-0.228438	0.337835	0.000086
