data_functionalizedCrystal
_audit_creation_method	'MofGen! by Chris Wilmer'
_symmetry_space_group_name_H-M	'P1'
_symmetry_Int_Tables_number	1
_symmetry_cell_setting	triclinic
loop_
_symmetry_equiv_pos_as_xyz
  x,y,z
_cell_length_a	18.426585
_cell_length_b	12.970454
_cell_length_c	12.970454
_cell_angle_alpha	59.999702
_cell_angle_beta	89.999510
_cell_angle_gamma	60.001630
loop_
_atom_site_label
_atom_site_type_symbol
_atom_site_fract_x
_atom_site_fract_y
_atom_site_fract_z
Zr1	Zr	0.699118	1.128554	-0.135322
O2	O	0.583243	1.343637	-0.299941
O3	O	0.734639	0.913467	-0.084857
O4	O	0.734640	1.128557	-0.299947
O5	O	0.583241	1.128546	0.084816
O6	O	0.854066	1.128564	-0.299952
O7	O	0.583241	1.128547	-0.084851
O8	O	0.854063	0.743807	0.084805
O9	O	0.583244	1.513303	-0.299941
O10	O	0.838915	1.001943	-0.063338
O11	O	0.749789	1.001936	0.063287
O12	O	0.749791	1.255177	-0.189954
O13	O	0.660664	1.255171	-0.063330
Zr14	Zr	0.889588	1.128564	0.135272
Zr15	Zr	0.889588	1.128566	-0.135328
Zr16	Zr	0.699117	1.128553	0.135278
Zr17	Zr	0.699119	1.399152	-0.135321
Zr18	Zr	0.889586	0.857967	0.135271
O19	O	0.854067	1.343651	0.084807
O20	O	0.854067	1.343654	-0.299951
O21	O	0.583242	1.343635	0.084817
O22	O	1.005463	0.913481	0.299891
O23	O	1.005463	0.913483	-0.084867
O24	O	0.734638	0.913465	0.299901
O25	O	1.005464	1.128572	-0.084866
O26	O	0.854065	1.128561	0.299897
O27	O	0.734639	1.128554	0.299902
O28	O	1.005464	1.128572	0.084801
O29	O	0.734642	1.513312	-0.299946
O30	O	0.854063	0.743806	0.299896
O31	O	1.005462	0.743815	0.299891
O32	O	1.005462	0.743817	0.084800
O33	O	0.583244	1.513302	-0.084850
O34	O	0.734642	1.513311	-0.084855
O35	O	0.838915	1.001941	0.189904
O36	O	0.928041	1.001947	0.063280
O37	O	0.838917	1.255182	-0.063337
O38	O	0.749790	1.255176	0.063287
C39	C	0.556103	1.128545	-0.000016
C40	C	0.475243	1.128540	-0.000014
C41	C	0.794352	1.128558	0.338454
C42	C	0.794352	1.128557	0.453331
C43	C	0.794355	1.467036	-0.000024
C44	C	0.794355	1.581911	-0.000024
C45	C	0.179129	1.128584	-0.000036
C46	C	0.261515	1.128578	-0.000033
C47	C	0.327183	1.128562	-0.000026
C48	C	0.409575	1.128556	-0.000021
C49	C	1.032602	1.128574	-0.000034
C50	C	1.113462	1.128578	-0.000037
C51	C	0.794351	0.790083	-0.000026
C52	C	0.794350	0.675207	-0.000027
C53	C	0.794353	1.128561	-0.338504
C54	C	0.794353	1.128562	-0.453381
C55	C	1.032600	0.790097	-0.000035
C56	C	1.113459	0.675226	-0.000038
C57	C	0.794350	0.790081	0.338453
C58	C	0.794349	0.675205	0.453330
C59	C	1.032600	0.790095	0.338445
C60	C	1.113459	0.675224	0.453318
C61	C	0.556106	1.467023	-0.338495
C62	C	0.475247	1.581895	-0.453368
C63	C	0.556105	1.467021	-0.000015
C64	C	0.475246	1.581892	-0.000012
C65	C	0.794355	1.467038	-0.338503
C66	C	0.794356	1.581914	-0.453380
C67	C	1.104909	0.621279	-0.066144
C68	C	1.180877	0.513361	-0.066172
C69	C	1.265395	0.459384	-0.000087
C70	C	1.273944	0.513342	0.066021
C71	C	1.197977	0.621266	0.066042
C72	C	1.197962	0.621282	0.441167
C73	C	1.273945	0.513363	0.549093
C74	C	1.265422	0.459381	0.669168
C75	C	1.180910	0.513333	0.681316
C76	C	1.104929	0.621257	0.573392
C77	C	0.390744	1.635850	-0.441217
C78	C	0.314761	1.743802	-0.549143
C79	C	0.323283	1.797790	-0.669218
C80	C	0.407795	1.743831	-0.681366
C81	C	0.483776	1.635888	-0.573442
C82	C	0.483797	1.635851	0.066083
C83	C	0.407828	1.743799	0.066081
C84	C	0.323310	1.797780	-0.000008
C85	C	0.314761	1.743817	-0.066111
C86	C	0.390729	1.635878	-0.066116
H87	H	1.036097	0.665226	-0.119974
H88	H	0.261407	1.885684	-0.757087
H89	H	1.173984	0.469364	0.779095
H90	H	1.327298	0.371501	0.757036
O91	O	1.356114	0.460689	0.130201
C92	C	1.514388	0.294441	0.188698
C93	C	1.421383	0.353930	0.115979
H94	H	1.567184	0.208138	0.177203
H95	H	1.522462	0.243787	0.293086
H96	H	1.522368	0.387451	0.149564
H97	H	1.413340	0.261001	0.155006
H98	H	1.413352	0.404626	0.011599
O99	O	1.206448	0.673446	0.130384
C100	C	1.306795	0.662048	0.261458
C101	C	1.297320	0.602810	0.188662
H102	H	1.380261	0.604986	0.308572
H103	H	1.273618	0.640752	0.336605
H104	H	1.273510	0.784354	0.193001
H105	H	1.330611	0.480496	0.257021
H106	H	1.330474	0.624218	0.113498
O107	O	1.172403	0.461064	-0.130402
C108	C	1.072058	0.472532	-0.261550
C109	C	1.081531	0.531859	-0.188842
H110	H	0.998593	0.529766	-0.308840
H111	H	1.105248	0.350249	-0.193132
H112	H	1.105333	0.493730	-0.336583
H113	H	1.048251	0.510766	-0.113809
H114	H	1.048365	0.654125	-0.257338
H115	H	0.383754	1.591948	-0.119935
O116	O	0.415908	1.796389	-0.798105
C117	C	0.340062	1.962746	-1.022962
C118	C	0.330751	1.903335	-0.890830
H119	H	0.271223	2.049243	-1.097966
H120	H	0.377882	1.869832	-1.034436
H121	H	0.377987	2.013215	-1.034298
H122	H	0.292808	1.852882	-0.879404
H123	H	0.292966	1.996301	-0.879417
O124	O	1.356099	0.460865	0.537500
C125	C	1.514387	0.294604	0.645137
C126	C	1.421406	0.353936	0.658450
H127	H	1.567212	0.208120	0.742909
H128	H	1.522425	0.387559	0.591367
H129	H	1.522353	0.244137	0.591261
H130	H	1.413375	0.404385	0.712352
H131	H	1.413410	0.260928	0.712169
H132	H	1.036126	0.665163	0.583303
O133	O	0.232740	1.795990	-0.537101
C134	C	0.148500	1.784579	-0.394539
C135	C	0.241437	1.725330	-0.407999
H136	H	0.155501	1.727498	-0.290167
H137	H	0.110582	1.763316	-0.441693
H138	H	0.110609	1.906879	-0.441807
H139	H	0.279402	1.603022	-0.360723
H140	H	0.279288	1.746706	-0.360879
O141	O	0.565795	1.583584	-0.585480
C142	C	0.650031	1.595076	-0.728046
C143	C	0.557095	1.654407	-0.714582
H144	H	0.643029	1.652333	-0.832418
H145	H	0.687935	1.472799	-0.680916
H146	H	0.687937	1.616243	-0.680755
H147	H	0.519114	1.633345	-0.761879
H148	H	0.519259	1.776666	-0.761678
H149	H	0.552609	1.591908	0.119909
O150	O	0.249451	1.902497	0.000041
C151	C	0.114926	1.968549	0.052694
C152	C	0.198519	1.849841	0.052685
H153	H	0.073733	1.926009	0.095276
H154	H	0.073616	2.069624	-0.048349
H155	H	0.135580	1.997866	0.111244
H156	H	0.177945	1.820400	-0.005803
H157	H	0.239809	1.748842	0.153763
H158	H	0.414807	1.787717	0.119915
H159	H	0.245937	1.787784	-0.119919
H160	H	1.327246	0.371504	-0.000112
H161	H	1.204918	0.665219	0.343406
H162	H	0.383787	1.591898	-0.343456
