data_functionalizedCrystal
_audit_creation_method	'MofGen! by Chris Wilmer'
_symmetry_space_group_name_H-M	'P1'
_symmetry_Int_Tables_number	1
_symmetry_cell_setting	triclinic
loop_
_symmetry_equiv_pos_as_xyz
  x,y,z
_cell_length_a	21.295418
_cell_length_b	21.295417
_cell_length_c	21.295412
_cell_angle_alpha	89.969332
_cell_angle_beta	89.957310
_cell_angle_gamma	90.046319
loop_
_atom_site_label
_atom_site_type_symbol
_atom_site_fract_x
_atom_site_fract_y
_atom_site_fract_z
Zn1	Zn	0.962349	-0.250359	-0.356234
Zn2	Zn	1.212349	-0.000359	-0.106234
Zn3	Zn	1.462349	0.249641	0.143766
Zn4	Zn	1.712349	0.499641	0.393766
Zn5	Zn	0.962254	-0.355628	-0.250959
Zn6	Zn	1.212254	-0.105628	-0.000959
Zn7	Zn	1.462254	0.144372	0.249041
Zn8	Zn	1.712254	0.394372	0.499041
Zn9	Zn	0.857074	-0.250405	-0.250943
Zn10	Zn	1.107074	-0.000405	-0.000943
Zn11	Zn	1.357074	0.249595	0.249057
Zn12	Zn	1.607074	0.499595	0.499057
Zn13	Zn	0.857042	-0.355623	-0.356155
Zn14	Zn	1.107042	-0.105623	-0.106155
Zn15	Zn	1.357042	0.144377	0.143845
Zn16	Zn	1.607042	0.394377	0.393845
O17	O	0.909680	-0.303004	-0.303573
O18	O	1.159680	-0.053004	-0.053573
O19	O	1.409680	0.196996	0.196427
O20	O	1.659680	0.446996	0.446427
O21	O	1.050426	-0.264306	-0.342308
O22	O	1.300426	-0.014306	-0.092308
O23	O	1.550426	0.235694	0.157692
O24	O	1.800426	0.485694	0.407692
O25	O	0.948275	-0.341691	-0.162868
O26	O	1.198275	-0.091691	0.087132
O27	O	1.448275	0.158309	0.337132
O28	O	1.698275	0.408309	0.587132
O29	O	0.871093	-0.162310	-0.264937
O30	O	1.121093	0.087690	-0.014937
O31	O	1.371093	0.337690	0.235063
O32	O	1.621093	0.587690	0.485063
O33	O	1.050356	-0.341646	-0.264963
O34	O	1.300356	-0.091646	-0.014963
O35	O	1.550356	0.158354	0.235037
O36	O	1.800356	0.408354	0.485037
O37	O	0.948438	-0.162276	-0.342293
O38	O	1.198438	0.087724	-0.092293
O39	O	1.448438	0.337724	0.157707
O40	O	1.698438	0.587724	0.407707
O41	O	0.871000	-0.264384	-0.162856
O42	O	1.121000	-0.014384	0.087144
O43	O	1.371000	0.235616	0.337144
O44	O	1.621000	0.485616	0.587144
O45	O	0.768981	-0.264380	-0.264861
O46	O	1.018981	-0.014380	-0.014861
O47	O	1.268981	0.235620	0.235139
O48	O	1.518981	0.485620	0.485139
O49	O	0.871038	-0.341639	-0.444255
O50	O	1.121038	-0.091639	-0.194255
O51	O	1.371038	0.158361	0.055745
O52	O	1.621038	0.408361	0.305745
O53	O	0.768957	-0.341684	-0.342160
O54	O	1.018957	-0.091684	-0.092160
O55	O	1.268957	0.158316	0.157840
O56	O	1.518957	0.408316	0.407840
O57	O	0.948406	-0.264302	-0.444313
O58	O	1.198406	-0.014302	-0.194313
O59	O	1.448406	0.235698	0.055687
O60	O	1.698406	0.485698	0.305687
O61	O	0.948243	-0.443716	-0.264887
O62	O	1.198243	-0.193716	-0.014887
O63	O	1.448243	0.056284	0.235113
O64	O	1.698243	0.306284	0.485113
O65	O	0.870945	-0.443713	-0.342175
O66	O	1.120945	-0.193713	-0.092175
O67	O	1.370945	0.056287	0.157825
O68	O	1.620945	0.306287	0.407825
C69	C	0.746128	-0.303037	-0.303500
C70	C	0.996128	-0.053037	-0.053500
C71	C	1.246128	0.196963	0.196500
C72	C	1.496128	0.446963	0.446500
C73	C	0.676160	-0.303066	-0.303484
C74	C	0.926160	-0.053066	-0.053484
C75	C	1.176160	0.196934	0.196516
C76	C	1.426160	0.446934	0.446516
C77	C	0.643297	-0.343371	-0.343674
C78	C	0.893297	-0.093371	-0.093674
C79	C	1.143297	0.156629	0.156326
C80	C	1.393297	0.406629	0.406326
C81	C	0.577555	-0.343356	-0.343702
C82	C	0.827555	-0.093356	-0.093702
C83	C	1.077555	0.156644	0.156298
C84	C	1.327555	0.406644	0.406298
C85	C	0.544678	-0.303042	-0.303530
C86	C	0.794678	-0.053042	-0.053530
C87	C	1.044678	0.196958	0.196470
C88	C	1.294678	0.446958	0.446470
C89	C	0.577548	-0.262729	-0.263337
C90	C	0.827548	-0.012729	-0.013337
C91	C	1.077548	0.237271	0.236663
C92	C	1.327548	0.487271	0.486663
C93	C	0.643289	-0.262741	-0.263315
C94	C	0.893289	-0.012741	-0.013315
C95	C	1.143289	0.237259	0.236685
C96	C	1.393289	0.487259	0.486685
N97	N	0.441403	-0.298123	-0.248472
N98	N	0.691403	-0.048123	0.001528
N99	N	0.941403	0.201877	0.251528
N100	N	1.191403	0.451877	0.501528
N101	N	0.378951	-0.298116	-0.248495
N102	N	0.628951	-0.048116	0.001505
N103	N	0.878951	0.201884	0.251505
N104	N	1.128951	0.451884	0.501505
C105	C	0.346603	-0.303002	-0.303596
C106	C	0.596603	-0.053002	-0.053596
C107	C	0.846603	0.196998	0.196404
C108	C	1.096603	0.446998	0.446404
N109	N	0.379065	-0.307908	-0.358675
N110	N	0.629065	-0.057908	-0.108675
N111	N	0.879065	0.192092	0.141325
N112	N	1.129065	0.442092	0.391325
N113	N	0.441522	-0.307920	-0.358650
N114	N	0.691522	-0.057920	-0.108650
N115	N	0.941522	0.192080	0.141350
N116	N	1.191522	0.442080	0.391350
C117	C	0.473392	-0.303024	-0.303550
C118	C	0.723392	-0.053024	-0.053550
C119	C	0.973392	0.196976	0.196450
C120	C	1.223392	0.446976	0.446450
C121	C	0.242455	-0.343292	-0.343820
C122	C	0.492455	-0.093292	-0.093820
C123	C	0.742455	0.156708	0.156180
C124	C	0.992455	0.406708	0.406180
C125	C	0.176711	-0.343272	-0.343849
C126	C	0.426711	-0.093272	-0.093849
C127	C	0.676711	0.156728	0.156151
C128	C	0.926711	0.406728	0.406151
C129	C	0.176706	-0.262649	-0.263479
C130	C	0.426706	-0.012649	-0.013479
C131	C	0.676706	0.237351	0.236521
C132	C	0.926706	0.487351	0.486521
C133	C	0.242448	-0.262665	-0.263455
C134	C	0.492448	-0.012665	-0.013455
C135	C	0.742448	0.237335	0.236545
C136	C	0.992448	0.487335	0.486545
C137	C	0.275319	-0.302990	-0.303625
C138	C	0.525319	-0.052990	-0.053625
C139	C	0.775319	0.197010	0.196375
C140	C	1.025319	0.447010	0.446375
C141	C	0.909597	-0.466556	-0.303538
C142	C	1.159597	-0.216556	-0.053538
C143	C	1.409597	0.033444	0.196462
C144	C	1.659597	0.283444	0.446462
C145	C	0.909620	-0.536524	-0.303544
C146	C	1.159620	-0.286524	-0.053544
C147	C	1.409620	-0.036524	0.196456
C148	C	1.659620	0.213476	0.446456
C149	C	0.949905	-0.569371	-0.263342
C150	C	1.199905	-0.319371	-0.013342
C151	C	1.449905	-0.069371	0.236658
C152	C	1.699905	0.180629	0.486658
C153	C	0.949934	-0.635113	-0.263356
C154	C	1.199934	-0.385113	-0.013356
C155	C	1.449934	-0.135113	0.236644
C156	C	1.699934	0.114887	0.486644
C157	C	0.909667	-0.668006	-0.303566
C158	C	1.159667	-0.418006	-0.053566
C159	C	1.409667	-0.168006	0.196434
C160	C	1.659667	0.081994	0.446434
C161	C	0.869379	-0.635151	-0.343776
C162	C	1.119379	-0.385151	-0.093776
C163	C	1.369379	-0.135151	0.156224
C164	C	1.619379	0.114849	0.406224
C165	C	0.869355	-0.569410	-0.343765
C166	C	1.119355	-0.319410	-0.093765
C167	C	1.369355	-0.069410	0.156235
C168	C	1.619355	0.180590	0.406235
N169	N	0.854600	-0.771287	-0.308340
N170	N	1.104600	-0.521287	-0.058340
N171	N	1.354600	-0.271287	0.191660
N172	N	1.604600	-0.021287	0.441660
N173	N	0.854625	-0.833739	-0.308347
N174	N	1.104625	-0.583739	-0.058347
N175	N	1.354625	-0.333739	0.191653
N176	N	1.604625	-0.083739	0.441653
C177	C	0.909738	-0.866081	-0.303602
C178	C	1.159738	-0.616081	-0.053602
C179	C	1.409738	-0.366081	0.196398
C180	C	1.659738	-0.116081	0.446398
N181	N	0.964827	-0.833612	-0.298838
N182	N	1.214827	-0.583612	-0.048838
N183	N	1.464827	-0.333612	0.201162
N184	N	1.714827	-0.083612	0.451162
N185	N	0.964802	-0.771155	-0.298828
N186	N	1.214802	-0.521155	-0.048828
N187	N	1.464802	-0.271155	0.201172
N188	N	1.714802	-0.021155	0.451172
C189	C	0.909689	-0.739291	-0.303582
C190	C	1.159689	-0.489291	-0.053582
C191	C	1.409689	-0.239291	0.196418
C192	C	1.659689	0.010709	0.446418
C193	C	0.950058	-0.970214	-0.263413
C194	C	1.200058	-0.720214	-0.013413
C195	C	1.450058	-0.470214	0.236587
C196	C	1.700058	-0.220214	0.486587
C197	C	0.950089	-1.035957	-0.263431
C198	C	1.200089	-0.785957	-0.013431
C199	C	1.450089	-0.535957	0.236569
C200	C	1.700089	-0.285957	0.486569
C201	C	0.869528	-1.035993	-0.343848
C202	C	1.119528	-0.785993	-0.093848
C203	C	1.369528	-0.535993	0.156152
C204	C	1.619528	-0.285993	0.406152
C205	C	0.869504	-0.970251	-0.343833
C206	C	1.119504	-0.720251	-0.093833
C207	C	1.369504	-0.470251	0.156167
C208	C	1.619504	-0.220251	0.406167
C209	C	0.909768	-0.937365	-0.303612
C210	C	1.159768	-0.687365	-0.053612
C211	C	1.409768	-0.437365	0.196388
C212	C	1.659768	-0.187365	0.446388
C213	C	1.073870	-0.302971	-0.303646
C214	C	1.323870	-0.052971	-0.053646
C215	C	1.573870	0.197029	0.196354
C216	C	1.823870	0.447029	0.446354
C217	C	1.143838	-0.302957	-0.303677
C218	C	1.393838	-0.052957	-0.053677
C219	C	1.643838	0.197043	0.196323
C220	C	1.893838	0.447043	0.446323
C221	C	0.909729	-0.302965	-0.467763
C222	C	1.159729	-0.052965	-0.217763
C223	C	1.409729	0.197035	0.032237
C224	C	1.659729	0.447035	0.282237
C225	C	0.909750	-0.302948	-0.537731
C226	C	1.159750	-0.052948	-0.287731
C227	C	1.409750	0.197052	-0.037731
C228	C	1.659750	0.447052	0.212269
C229	C	0.909780	-0.138814	-0.303622
C230	C	1.159780	0.111186	-0.053622
C231	C	1.409780	0.361186	0.196378
C232	C	1.659780	0.611186	0.446378
C233	C	0.909822	-0.068845	-0.303642
C234	C	1.159822	0.181155	-0.053642
C235	C	1.409822	0.431155	0.196358
C236	C	1.659822	0.681155	0.446358
C237	C	0.869524	-0.262690	-0.570582
C238	C	1.119524	-0.012690	-0.320582
C239	C	1.369524	0.237310	-0.070582
C240	C	1.619524	0.487310	0.179418
C241	C	0.869522	-0.262678	-0.636325
C242	C	1.119522	-0.012678	-0.386325
C243	C	1.369522	0.237322	-0.136325
C244	C	1.619522	0.487322	0.113675
C245	C	0.909757	-0.302918	-0.669214
C246	C	1.159757	-0.052918	-0.419214
C247	C	1.409757	0.197082	-0.169214
C248	C	1.659757	0.447082	0.080786
C249	C	0.949986	-0.343184	-0.636355
C250	C	1.199986	-0.093184	-0.386355
C251	C	1.449986	0.156816	-0.136355
C252	C	1.699986	0.406816	0.113645
C253	C	0.949983	-0.343199	-0.570614
C254	C	1.199983	-0.093199	-0.320614
C255	C	1.449983	0.156801	-0.070614
C256	C	1.699983	0.406801	0.179386
N257	N	0.964861	-0.307710	-0.772471
N258	N	1.214861	-0.057710	-0.522471
N259	N	1.464861	0.192290	-0.272471
N260	N	1.714861	0.442290	-0.022471
N261	N	0.964863	-0.307692	-0.834922
N262	N	1.214863	-0.057692	-0.584922
N263	N	1.464863	0.192308	-0.334922
N264	N	1.714863	0.442308	-0.084922
C265	C	0.909768	-0.302876	-0.867289
C266	C	1.159768	-0.052876	-0.617289
C267	C	1.409768	0.197124	-0.367289
C268	C	1.659768	0.447124	-0.117289
N269	N	0.854671	-0.298066	-0.834845
N270	N	1.104671	-0.048066	-0.584845
N271	N	1.354671	0.201934	-0.334845
N272	N	1.604671	0.451934	-0.084845
N273	N	0.854671	-0.298081	-0.772387
N274	N	1.104671	-0.048081	-0.522387
N275	N	1.354671	0.201919	-0.272387
N276	N	1.604671	0.451919	-0.022387
C277	C	0.909765	-0.302906	-0.740499
C278	C	1.159765	-0.052906	-0.490499
C279	C	1.409765	0.197094	-0.240499
C280	C	1.659765	0.447094	0.009501
C281	C	0.869536	-0.262603	-0.971425
C282	C	1.119536	-0.012603	-0.721425
C283	C	1.369536	0.237397	-0.471425
C284	C	1.619536	0.487397	-0.221425
C285	C	0.869533	-0.262596	-1.037169
C286	C	1.119533	-0.012596	-0.787169
C287	C	1.369533	0.237404	-0.537169
C288	C	1.619533	0.487404	-0.287169
C289	C	0.950003	-0.343098	-1.037198
C290	C	1.200003	-0.093098	-0.787198
C291	C	1.450003	0.156902	-0.537198
C292	C	1.700003	0.406902	-0.287198
C293	C	0.950001	-0.343109	-0.971456
C294	C	1.200001	-0.093109	-0.721456
C295	C	1.450001	0.156891	-0.471456
C296	C	1.700001	0.406891	-0.221456
C297	C	0.909768	-0.302858	-0.938573
C298	C	1.159768	-0.052858	-0.688573
C299	C	1.409768	0.197142	-0.438573
C300	C	1.659768	0.447142	-0.188573
C301	C	0.909667	-0.302997	-0.140021
C302	C	1.159667	-0.052997	0.109979
C303	C	1.409667	0.197003	0.359979
C304	C	1.659667	0.447003	0.609979
C305	C	0.909768	-0.302837	-0.070054
C306	C	1.159768	-0.052837	0.179946
C307	C	1.409768	0.197163	0.429946
C308	C	1.659768	0.447163	0.679946
H309	H	0.149955	-0.376092	-0.376580
H310	H	0.399955	-0.126092	-0.126580
H311	H	0.649955	0.123908	0.123420
H312	H	0.899955	0.373908	0.373420
N313	N	0.826136	-0.219201	-0.935955
N314	N	1.076136	0.030799	-0.685955
N315	N	1.326136	0.280799	-0.435955
N316	N	1.576136	0.530799	-0.185955
H317	H	0.832240	-0.225316	-0.889323
H318	H	1.082240	0.024684	-0.639323
H319	H	1.332240	0.274684	-0.389323
H320	H	1.582240	0.524684	-0.139323
H321	H	0.835959	-0.174239	-0.947469
H322	H	1.085959	0.075761	-0.697469
H323	H	1.335959	0.325761	-0.447469
H324	H	1.585959	0.575761	-0.197469
H325	H	0.836761	-0.229917	-0.543813
H326	H	1.086761	0.020083	-0.293813
H327	H	1.336761	0.270083	-0.043813
H328	H	1.586761	0.520083	0.206187
H329	H	0.982765	-0.375861	-1.063976
H330	H	1.232765	-0.125861	-0.813976
H331	H	1.482765	0.124139	-0.563976
H332	H	1.732765	0.374139	-0.313976
H333	H	0.836697	-0.943505	-0.376567
H334	H	1.086697	-0.693505	-0.126567
H335	H	1.336697	-0.443505	0.123433
H336	H	1.586697	-0.193505	0.373433
N337	N	0.826139	-0.219178	-1.072604
N338	N	1.076139	0.030822	-0.822604
N339	N	1.326139	0.280822	-0.572604
N340	N	1.576139	0.530822	-0.322604
H341	H	0.800654	-0.193683	-1.041795
H342	H	1.050654	0.056317	-0.791795
H343	H	1.300654	0.306317	-0.541795
H344	H	1.550654	0.556317	-0.291795
H345	H	0.851783	-0.190038	-1.099911
H346	H	1.101783	0.059962	-0.849911
H347	H	1.351783	0.309962	-0.599911
H348	H	1.601783	0.559962	-0.349911
H349	H	0.550793	-0.376177	-0.376431
H350	H	0.800793	-0.126177	-0.126431
H351	H	1.050793	0.123823	0.123569
H352	H	1.300793	0.373823	0.373569
H353	H	0.269205	-0.229847	-0.230726
H354	H	0.519205	0.020153	0.019274
H355	H	0.769205	0.270153	0.269274
H356	H	1.019205	0.520153	0.519274
H357	H	0.982759	-0.375890	-0.944708
H358	H	1.232759	-0.125890	-0.694708
H359	H	1.482759	0.124110	-0.444708
H360	H	1.732759	0.374110	-0.194708
H361	H	0.982692	-0.542597	-0.230593
H362	H	1.232692	-0.292597	0.019407
H363	H	1.482692	-0.042597	0.269407
H364	H	1.732692	0.207403	0.519407
H365	H	0.670057	-0.376207	-0.376384
H366	H	0.920057	-0.126207	-0.126384
H367	H	1.170057	0.123793	0.123616
H368	H	1.420057	0.373793	0.373616
H369	H	0.269220	-0.376124	-0.376531
H370	H	0.519220	-0.126124	-0.126531
H371	H	0.769220	0.123876	0.123469
H372	H	1.019220	0.373876	0.373469
N373	N	0.678736	-0.219274	-0.219958
N374	N	0.928736	0.030726	0.030042
N375	N	1.178736	0.280726	0.280042
N376	N	1.428736	0.530726	0.530042
H377	H	0.725371	-0.225401	-0.226037
H378	H	0.975371	0.024599	0.023963
H379	H	1.225371	0.274599	0.273963
H380	H	1.475371	0.524599	0.523963
H381	H	0.667304	-0.174326	-0.229842
H382	H	0.917304	0.075674	0.020158
H383	H	1.167304	0.325674	0.270158
H384	H	1.417304	0.575674	0.520158
H385	H	0.982741	-0.661863	-0.230619
H386	H	1.232741	-0.411863	0.019381
H387	H	1.482741	-0.161863	0.269381
H388	H	1.732741	0.088137	0.519381
N389	N	0.993494	-0.934745	-0.220040
N390	N	1.243494	-0.684745	0.029960
N391	N	1.493494	-0.434745	0.279960
N392	N	1.743494	-0.184745	0.529960
H393	H	1.022640	-0.907414	-0.245654
H394	H	1.272640	-0.657414	0.004346
H395	H	1.522640	-0.407414	0.254346
H396	H	1.772640	-0.157414	0.504346
H397	H	0.967875	-0.907557	-0.190835
H398	H	1.217875	-0.657557	0.059165
H399	H	1.467875	-0.407557	0.309165
H400	H	1.717875	-0.157557	0.559165
N401	N	0.993545	-1.071389	-0.220072
N402	N	1.243545	-0.821389	0.029928
N403	N	1.493545	-0.571389	0.279928
N404	N	1.743545	-0.321389	0.529928
H405	H	1.019045	-1.040578	-0.194591
H406	H	1.269045	-0.790578	0.055409
H407	H	1.519045	-0.540578	0.305409
H408	H	1.769045	-0.290578	0.555409
H409	H	0.967944	-1.098718	-0.190916
H410	H	1.217944	-0.848718	0.059084
H411	H	1.467944	-0.598718	0.309084
H412	H	1.717944	-0.348718	0.559084
N413	N	0.826133	-0.219257	-0.671768
N414	N	1.076133	0.030743	-0.421768
N415	N	1.326133	0.280743	-0.171768
N416	N	1.576133	0.530743	0.078232
H417	H	0.800645	-0.193761	-0.640961
H418	H	1.050645	0.056239	-0.390961
H419	H	1.300645	0.306239	-0.140961
H420	H	1.550645	0.556239	0.109039
H421	H	0.851781	-0.190117	-0.699070
H422	H	1.101781	0.059883	-0.449070
H423	H	1.351781	0.309883	-0.199070
H424	H	1.601781	0.559883	0.050930
N425	N	0.993378	-0.386591	-0.671824
N426	N	1.243378	-0.136591	-0.421824
N427	N	1.493378	0.113409	-0.171824
N428	N	1.743378	0.363409	0.078176
H429	H	0.987277	-0.380473	-0.718456
H430	H	1.237277	-0.130473	-0.468456
H431	H	1.487277	0.119527	-0.218456
H432	H	1.737277	0.369527	0.031544
H433	H	1.038342	-0.376792	-0.660367
H434	H	1.288342	-0.126792	-0.410367
H435	H	1.538342	0.123208	-0.160367
H436	H	1.788342	0.373208	0.089633
H437	H	0.149937	-0.229821	-0.230773
H438	H	0.399937	0.020179	0.019227
H439	H	0.649937	0.270179	0.269227
H440	H	0.899937	0.520179	0.519227
N441	N	0.993375	-0.386622	-0.535182
N442	N	1.243375	-0.136622	-0.285182
N443	N	1.493375	0.113378	-0.035182
N444	N	1.743375	0.363378	0.214818
H445	H	1.038358	-0.376834	-0.546660
H446	H	1.288358	-0.126834	-0.296660
H447	H	1.538358	0.123166	-0.046660
H448	H	1.788358	0.373166	0.203340
H449	H	0.987217	-0.380505	-0.488557
H450	H	1.237217	-0.130505	-0.238557
H451	H	1.487217	0.119495	0.011443
H452	H	1.737217	0.369495	0.261443
N453	N	0.542090	-0.219255	-0.220001
N454	N	0.792090	0.030745	0.029999
N455	N	1.042090	0.280745	0.279999
N456	N	1.292090	0.530745	0.529999
H457	H	0.514864	-0.190113	-0.245640
H458	H	0.764864	0.059887	0.004360
H459	H	1.014864	0.309887	0.254360
H460	H	1.264864	0.559887	0.504360
H461	H	0.514799	-0.244848	-0.190802
H462	H	0.764799	0.005152	0.059198
H463	H	1.014799	0.255152	0.309198
H464	H	1.264799	0.505152	0.559198
N465	N	0.825950	-0.670623	-0.387148
N466	N	1.075950	-0.420623	-0.137148
N467	N	1.325950	-0.170623	0.112852
N468	N	1.575950	0.079377	0.362852
H469	H	0.832076	-0.717255	-0.381053
H470	H	1.082076	-0.467255	-0.131053
H471	H	1.332076	-0.217255	0.118947
H472	H	1.582076	0.032745	0.368947
H473	H	0.780993	-0.659190	-0.377292
H474	H	1.030993	-0.409190	-0.127292
H475	H	1.280993	-0.159190	0.122708
H476	H	1.530993	0.090810	0.372708
N477	N	0.825902	-0.533977	-0.387127
N478	N	1.075902	-0.283977	-0.137127
N479	N	1.325902	-0.033977	0.112873
N480	N	1.575902	0.216023	0.362873
H481	H	0.800398	-0.564787	-0.412604
H482	H	1.050398	-0.314787	-0.162604
H483	H	1.300398	-0.064787	0.087396
H484	H	1.550398	0.185213	0.337396
H485	H	0.796774	-0.506755	-0.361459
H486	H	1.046774	-0.256755	-0.111459
H487	H	1.296774	-0.006755	0.138541
H488	H	1.546774	0.243245	0.388541
N489	N	0.826101	-1.071461	-0.387224
N490	N	1.076101	-0.821461	-0.137224
N491	N	1.326101	-0.571461	0.112776
N492	N	1.576101	-0.321461	0.362776
H493	H	0.832230	-1.118093	-0.381132
H494	H	1.082230	-0.868093	-0.131132
H495	H	1.332230	-0.618093	0.118868
H496	H	1.582230	-0.368093	0.368868
H497	H	0.781144	-1.060031	-0.377369
H498	H	1.031144	-0.810031	-0.127369
H499	H	1.281144	-0.560031	0.122631
H500	H	1.531144	-0.310031	0.372631
