data_functionalizedCrystal
_audit_creation_method	'MofGen! by Chris Wilmer'
_symmetry_space_group_name_H-M	'P1'
_symmetry_Int_Tables_number	1
_symmetry_cell_setting	triclinic
loop_
_symmetry_equiv_pos_as_xyz
  x,y,z
_cell_length_a	12.827893
_cell_length_b	12.759393
_cell_length_c	12.827885
_cell_angle_alpha	90.027504
_cell_angle_beta	89.980728
_cell_angle_gamma	89.985012
loop_
_atom_site_label
_atom_site_type_symbol
_atom_site_fract_x
_atom_site_fract_y
_atom_site_fract_z
Zn1	Zn	1.597674	0.418211	-0.590865
Zn2	Zn	1.597570	0.593927	-0.416133
Zn3	Zn	1.422915	0.418263	-0.416139
Zn4	Zn	1.422902	0.593849	-0.590832
O5	O	1.510265	0.506062	-0.503492
O6	O	1.743896	0.441531	-0.567698
O7	O	1.574363	0.570679	-0.269897
O8	O	1.446146	0.271235	-0.439333
O9	O	1.743819	0.570629	-0.439322
O10	O	1.574541	0.271197	-0.567704
O11	O	1.446045	0.441619	-0.269902
O12	O	1.276677	0.441544	-0.439301
O13	O	1.446124	0.570496	-0.737073
O14	O	1.276668	0.570546	-0.567648
O15	O	1.574528	0.441456	-0.737097
O16	O	1.574350	0.740938	-0.439290
O17	O	1.446023	0.740881	-0.567642
C18	C	1.238755	0.506043	-0.503472
C19	C	1.122602	0.506060	-0.503489
C20	C	1.070855	0.442292	-0.567112
C21	C	0.950805	0.442308	-0.567130
C22	C	1.510202	0.779030	-0.503485
C23	C	1.510271	0.895807	-0.503516
C24	C	1.643999	0.895813	-0.369964
C25	C	1.710890	0.950676	-0.303204
C26	C	1.710951	1.060398	-0.303239
C27	C	1.644116	1.115258	-0.370045
C28	C	1.577225	1.060395	-0.436805
C29	C	1.577169	0.950670	-0.436760
C30	C	1.443505	1.060389	-0.570361
C31	C	1.443436	0.950667	-0.570321
C32	C	1.376670	1.115249	-0.637166
C33	C	1.309772	1.060385	-0.703922
C34	C	1.309713	0.950657	-0.703883
C35	C	1.376545	0.895803	-0.637082
C36	C	1.782835	0.506083	-0.503513
C37	C	1.898988	0.506091	-0.503522
C38	C	1.510336	0.505962	-0.776063
C39	C	1.510367	0.505919	-0.892216
C40	C	1.510357	1.232029	-0.503539
C41	C	1.510396	1.115252	-0.503600
C42	C	1.573912	0.442053	-0.944012
C43	C	1.573945	0.442007	-1.064063
C44	C	1.510254	0.506087	-0.231982
C45	C	1.510427	0.505834	-0.115830
H46	H	0.943483	0.560694	-0.449054
H47	H	1.078028	0.560664	-0.449030
H48	H	1.115429	0.387682	-0.621565
C49	C	1.725603	1.183916	-0.162741
C50	C	1.784480	1.120718	-0.229866
H51	H	1.771000	1.221159	-0.117452
H52	H	1.680086	1.141182	-0.122710
H53	H	1.685806	1.232278	-0.202543
H54	H	1.824272	1.072350	-0.190064
H55	H	1.830016	1.163455	-0.269901
C56	C	1.743617	1.272319	-0.396819
C57	C	1.644195	1.235866	-0.370088
H58	H	1.743665	1.346778	-0.396840
H59	H	1.761626	1.247426	-0.464256
H60	H	1.792983	1.247488	-0.347477
H61	H	1.594829	1.260691	-0.419435
H62	H	1.626173	1.260770	-0.302642
C63	C	1.403364	1.272317	-0.736653
C64	C	1.376744	1.235856	-0.637209
H65	H	1.403414	1.346776	-0.736676
H66	H	1.353961	1.247500	-0.785961
H67	H	1.470780	1.247415	-0.754753
H68	H	1.309325	1.260752	-0.619112
H69	H	1.426149	1.260685	-0.587885
C70	C	1.716711	0.738639	-0.297185
C71	C	1.643927	0.775205	-0.369918
H72	H	1.716670	0.664180	-0.297161
H73	H	1.698677	0.763533	-0.229756
H74	H	1.784150	0.763392	-0.315325
H75	H	1.576486	0.750458	-0.351773
H76	H	1.661955	0.750300	-0.437362
H77	H	0.906303	0.387717	-0.621604
C78	C	1.761848	0.917004	-0.126272
C79	C	1.784348	0.890373	-0.229769
H80	H	1.807203	0.879781	-0.080939
H81	H	1.691639	0.899090	-0.110929
H82	H	1.771461	0.990204	-0.116756
H83	H	1.774727	0.817174	-0.239287
H84	H	1.854574	0.908281	-0.245117
C85	C	1.258813	1.094061	-0.880849
C86	C	1.236319	1.120690	-0.777351
H87	H	1.213468	1.131300	-0.926179
H88	H	1.249190	1.020874	-0.890372
H89	H	1.329034	1.111969	-0.896191
H90	H	1.166099	1.102775	-0.762006
H91	H	1.245933	1.193894	-0.767823
H92	H	1.255246	0.905992	-0.758251
C93	C	1.349876	0.738734	-0.537589
C94	C	1.376485	0.775196	-0.637035
H95	H	1.349849	0.664275	-0.537561
H96	H	1.282464	0.763616	-0.519489
H97	H	1.399281	0.763569	-0.488278
H98	H	1.327075	0.750366	-0.686345
H99	H	1.443907	0.750302	-0.655148
H100	H	1.628287	0.387405	-0.899481
C101	C	1.633200	0.382423	-1.231475
C102	C	1.647387	0.368183	-1.124187
H103	H	1.678537	0.336839	-1.268591
H104	H	1.648467	0.453014	-1.249299
H105	H	1.562975	0.367055	-1.249295
H106	H	1.717610	0.383559	-1.106365
H107	H	1.632127	0.297576	-1.106354
C108	C	1.495945	0.647086	-0.992946
C109	C	1.436980	0.579655	-1.055707
H110	H	1.450601	0.692654	-0.955818
H111	H	1.541422	0.687298	-1.035528
H112	H	1.535789	0.607035	-0.944914
H113	H	1.397142	0.619706	-1.103744
H114	H	1.391485	0.539439	-1.013121
H115	H	1.455981	0.560556	-0.936748
