data_functionalizedCrystal
_audit_creation_method	'MofGen! by Chris Wilmer'
_symmetry_space_group_name_H-M	'P1'
_symmetry_Int_Tables_number	1
_symmetry_cell_setting	triclinic
loop_
_symmetry_equiv_pos_as_xyz
  x,y,z
_cell_length_a	13.032831
_cell_length_b	16.120484
_cell_length_c	13.034118
_cell_angle_alpha	100.302666
_cell_angle_beta	76.579782
_cell_angle_gamma	86.078521
loop_
_atom_site_label
_atom_site_type_symbol
_atom_site_fract_x
_atom_site_fract_y
_atom_site_fract_z
Zn1	Zn	1.668115	-0.585176	-0.839401
Zn2	Zn	2.168115	-0.085176	-0.339401
Zn3	Zn	1.638470	-0.704488	-0.668488
Zn4	Zn	2.138470	-0.204488	-0.168488
Zn5	Zn	1.469953	-0.544843	-0.637010
Zn6	Zn	1.969953	-0.044843	-0.137010
Zn7	Zn	1.483704	-0.704249	-0.823529
Zn8	Zn	1.983704	-0.204249	-0.323529
O9	O	1.565060	-0.634689	-0.742107
O10	O	2.065060	-0.134689	-0.242107
O11	O	1.811884	-0.617983	-0.836545
O12	O	2.311884	-0.117983	-0.336545
O13	O	1.597954	-0.666531	-0.514726
O14	O	2.097954	-0.166531	-0.014726
O15	O	1.502892	-0.433549	-0.657327
O16	O	2.002892	0.066451	-0.157327
O17	O	1.790104	-0.705640	-0.710976
O18	O	2.290104	-0.205640	-0.210976
O19	O	1.648481	-0.463182	-0.806022
O20	O	2.148481	0.036818	-0.306022
O21	O	1.474146	-0.549240	-0.491600
O22	O	1.974146	-0.049240	0.008400
O23	O	1.324076	-0.549009	-0.641937
O24	O	1.824076	-0.049009	-0.141937
O25	O	1.526327	-0.705234	-0.975220
O26	O	2.026327	-0.205234	-0.475220
O27	O	1.334178	-0.666124	-0.778971
O28	O	1.834178	-0.166124	-0.278971
O29	O	1.661814	-0.617752	-0.986882
O30	O	2.161814	-0.117752	-0.486882
O31	O	1.611287	-0.821101	-0.695585
O32	O	2.111287	-0.321101	-0.195585
O33	O	1.497581	-0.820925	-0.809493
O34	O	1.997581	-0.320925	-0.309493
C35	C	1.290829	-0.603165	-0.705316
C36	C	1.790829	-0.103165	-0.205316
C37	C	1.173514	-0.589702	-0.689604
C38	C	1.673514	-0.089702	-0.189604
C39	C	1.126221	-0.641716	-0.750307
C40	C	1.626221	-0.141716	-0.250307
C41	C	1.004970	-0.627802	-0.734069
C42	C	1.504970	-0.127802	-0.234069
C43	C	1.552741	-0.851264	-0.754260
C44	C	2.052741	-0.351264	-0.254260
C45	C	1.547572	-0.943930	-0.759508
C46	C	2.047572	-0.443930	-0.259508
C47	C	1.538143	-1.113596	-0.769111
C48	C	2.038143	-0.613596	-0.269111
C49	C	1.592170	-1.154966	-0.715146
C50	C	2.092170	-0.654966	-0.215146
C51	C	1.586923	-1.249373	-0.720489
C52	C	2.086923	-0.749373	-0.220489
C53	C	1.543388	-1.019180	-0.763769
C54	C	2.043388	-0.519180	-0.263769
C55	C	1.840362	-0.666337	-0.779042
C56	C	2.340362	-0.166337	-0.279042
C57	C	1.957680	-0.679824	-0.794781
C58	C	2.457680	-0.179824	-0.294781
C59	C	1.598911	-0.665965	-1.020922
C60	C	2.098911	-0.165965	-0.520922
C61	C	1.613337	-0.679293	-1.139736
C62	C	2.113337	-0.179293	-0.639736
C63	C	1.577460	-0.417275	-0.729934
C64	C	2.077460	0.082725	-0.229934
C65	C	1.582743	-0.324626	-0.724747
C66	C	2.082743	0.175374	-0.224747
C67	C	1.531405	-0.603482	-0.464382
C68	C	2.031405	-0.103482	0.035618
C69	C	1.517198	-0.589942	-0.345582
C70	C	2.017198	-0.089942	0.154418
C71	C	1.557932	-0.627622	-0.181269
C72	C	2.057932	-0.127622	0.318731
C73	C	1.572610	-0.641621	-0.304054
C74	C	2.072610	-0.141621	0.195946
H75	H	1.006952	-0.734656	-0.858785
H76	H	1.506952	-0.234656	-0.358785
C77	C	1.267141	-0.683739	-0.911232
C78	C	1.767141	-0.183739	-0.411232
C79	C	1.192735	-0.715740	-0.836697
C80	C	1.692735	-0.215740	-0.336697
H81	H	1.308206	-0.729441	-0.964561
H82	H	1.808206	-0.229441	-0.464561
H83	H	1.231176	-0.647177	-0.944443
H84	H	1.731176	-0.147177	-0.444443
H85	H	1.312516	-0.652908	-0.875238
H86	H	1.812516	-0.152908	-0.375238
H87	H	1.147355	-0.746566	-0.872690
H88	H	1.647355	-0.246566	-0.372690
H89	H	1.228703	-0.752317	-0.803483
H90	H	1.728703	-0.252317	-0.303483
C91	C	1.594815	-1.042532	-0.567897
C92	C	2.094815	-0.542532	-0.067897
C93	C	1.659922	-1.107069	-0.647342
C94	C	2.159922	-0.607069	-0.147342
H95	H	1.636639	-1.012965	-0.526035
H96	H	2.136639	-0.512965	-0.026035
H97	H	1.561623	-1.004173	-0.601060
H98	H	2.061623	-0.504173	-0.101060
H99	H	1.542039	-1.066694	-0.522708
H100	H	2.042039	-0.566694	-0.022708
H101	H	1.712694	-1.082906	-0.692537
H102	H	2.212694	-0.582906	-0.192537
H103	H	1.693131	-1.145434	-0.614178
H104	H	2.193131	-0.645434	-0.114178
C105	C	0.972519	-0.476883	-0.669814
C106	C	1.472519	0.023117	-0.169814
C107	C	0.938454	-0.553777	-0.647674
C108	C	1.438454	-0.053777	-0.147674
H109	H	0.931447	-0.431187	-0.616481
H110	H	1.431447	0.068813	-0.116481
H111	H	1.045265	-0.476521	-0.669381
H112	H	1.545265	0.023479	-0.169381
H113	H	0.963930	-0.470789	-0.738592
H114	H	1.463930	0.029211	-0.238592
H115	H	0.947051	-0.559875	-0.578899
H116	H	1.447051	-0.059875	-0.078899
H117	H	0.865691	-0.554140	-0.648096
H118	H	1.365691	-0.054140	-0.148096
H119	H	1.487951	-1.149079	-0.819321
H120	H	1.987951	-0.649079	-0.319321
C121	C	1.479923	-0.554304	0.000609
C122	C	1.979923	-0.054304	0.500609
C123	C	1.479228	-0.553905	-0.106568
C124	C	1.979228	-0.053905	0.393432
H125	H	1.431338	-0.508790	0.046721
H126	H	1.931338	-0.008790	0.546721
H127	H	1.459598	-0.606584	0.017919
H128	H	1.959598	-0.106584	0.517919
H129	H	1.549306	-0.547795	0.009873
H130	H	2.049306	-0.047795	0.509873
H131	H	1.409846	-0.560422	-0.115834
H132	H	1.909846	-0.060422	0.384166
H133	H	1.499547	-0.501613	-0.123884
H134	H	1.999547	-0.001613	0.376116
H135	H	1.671636	-0.733897	-0.195079
H136	H	2.171636	-0.233897	0.304921
H137	H	1.124238	-0.534867	-0.625615
H138	H	1.624238	-0.034867	-0.125615
C139	C	1.729027	-0.682971	-0.449581
C140	C	2.229027	-0.182971	0.050419
C141	C	1.651328	-0.715337	-0.378747
C142	C	2.151328	-0.215337	0.121253
H143	H	1.777627	-0.728480	-0.495688
H144	H	2.277627	-0.228480	0.004312
H145	H	1.696167	-0.652378	-0.491547
H146	H	2.196167	-0.152378	0.008453
H147	H	1.765994	-0.646115	-0.409544
H148	H	2.265994	-0.146115	0.090456
H149	H	1.614356	-0.752188	-0.418785
H150	H	2.114356	-0.252188	0.081215
H151	H	1.684192	-0.745944	-0.336777
H152	H	2.184192	-0.245944	0.163223
C153	C	1.336229	-0.525838	-0.284578
C154	C	1.836229	-0.025838	0.215422
C155	C	1.438485	-0.516224	-0.270887
C156	C	1.938485	-0.016224	0.229113
H157	H	1.287637	-0.480330	-0.238459
H158	H	1.787637	0.019670	0.261541
H159	H	1.335777	-0.525573	-0.357285
H160	H	1.835777	-0.025573	0.142715
H161	H	1.315919	-0.578127	-0.267257
H162	H	1.815919	-0.078127	0.232743
H163	H	1.458798	-0.463938	-0.288216
H164	H	1.958798	0.036062	0.211784
H165	H	1.438940	-0.516481	-0.198164
H166	H	1.938940	-0.016481	0.301836
