data_functionalizedCrystal
_audit_creation_method	'MofGen! by Chris Wilmer'
_symmetry_space_group_name_H-M	'P1'
_symmetry_Int_Tables_number	1
_symmetry_cell_setting	triclinic
loop_
_symmetry_equiv_pos_as_xyz
  x,y,z
_cell_length_a	18.101398
_cell_length_b	18.050589
_cell_length_c	18.050583
_cell_angle_alpha	89.968090
_cell_angle_beta	89.978665
_cell_angle_gamma	90.023488
loop_
_atom_site_label
_atom_site_type_symbol
_atom_site_fract_x
_atom_site_fract_y
_atom_site_fract_z
Zn1	Zn	1.132114	-0.295700	-0.420040
Zn2	Zn	1.632114	0.204300	0.079960
Zn3	Zn	1.132023	-0.419913	-0.295860
Zn4	Zn	1.632023	0.080087	0.204140
Zn5	Zn	1.008279	-0.295731	-0.295853
Zn6	Zn	1.508279	0.204269	0.204147
Zn7	Zn	1.008230	-0.419842	-0.419997
Zn8	Zn	1.508230	0.080158	0.080003
O9	O	1.070161	-0.357797	-0.357937
O10	O	1.570161	0.142203	0.142063
O11	O	1.235735	-0.312194	-0.403589
O12	O	1.735735	0.187806	0.096411
O13	O	1.115590	-0.403482	-0.191934
O14	O	1.615590	0.096518	0.308066
O15	O	1.024765	-0.191802	-0.312342
O16	O	1.524765	0.308198	0.187658
O17	O	1.235668	-0.403452	-0.312354
O18	O	1.735668	0.096548	0.187646
O19	O	1.115746	-0.191779	-0.403582
O20	O	1.615746	0.308221	0.096418
O21	O	1.024677	-0.312247	-0.191929
O22	O	1.524677	0.187753	0.308071
O23	O	0.904640	-0.312178	-0.312300
O24	O	1.404640	0.187822	0.187700
O25	O	1.024681	-0.403332	-0.523927
O26	O	1.524681	0.096668	-0.023927
O27	O	0.904604	-0.403362	-0.403508
O28	O	1.404604	0.096638	0.096492
O29	O	1.115698	-0.312125	-0.523959
O30	O	1.615698	0.187875	-0.023959
O31	O	1.115542	-0.523828	-0.312311
O32	O	1.615542	-0.023828	0.187689
O33	O	1.024592	-0.523776	-0.403514
O34	O	1.524592	-0.023776	0.096486
C35	C	0.877751	-0.357766	-0.357899
C36	C	1.377751	0.142234	0.142101
C37	C	0.795437	-0.357771	-0.357900
C38	C	1.295437	0.142229	0.142100
C39	C	0.496346	-0.357818	-0.357962
C40	C	0.996346	0.142182	0.142038
C41	C	0.527669	-0.300160	-0.300857
C42	C	1.027669	0.199840	0.199143
C43	C	0.613287	-0.300315	-0.300613
C44	C	1.113287	0.199685	0.199387
C45	C	0.644728	-0.357794	-0.357931
C46	C	1.144728	0.142206	0.142069
C47	C	0.613615	-0.436028	-0.336553
C48	C	1.113615	0.063972	0.163447
C49	C	0.527970	-0.435708	-0.336156
C50	C	1.027970	0.064292	0.163844
C51	C	0.527955	-0.337921	-0.436581
C52	C	1.027955	0.162079	0.063419
C53	C	0.613606	-0.336179	-0.436152
C54	C	1.113606	0.163821	0.063848
C55	C	0.728588	-0.357786	-0.357915
C56	C	1.228588	0.142214	0.142085
C57	C	0.412486	-0.357832	-0.357977
C58	C	0.912486	0.142168	0.142023
C59	C	1.070072	-0.550749	-0.357925
C60	C	1.570072	-0.050749	0.142075
C61	C	1.070102	-0.633294	-0.357945
C62	C	1.570102	-0.133294	0.142055
C63	C	1.020692	-0.832744	-0.407524
C64	C	1.520692	-0.332744	0.092476
C65	C	1.002643	-0.882193	-0.339755
C66	C	1.502643	-0.382193	0.160245
C67	C	1.070174	-0.784425	-0.357954
C68	C	1.570174	-0.284425	0.142046
C69	C	1.088259	-0.882058	-0.425731
C70	C	1.588259	-0.382058	0.074269
C71	C	1.070243	-0.930410	-0.357970
C72	C	1.570243	-0.430410	0.142030
C73	C	1.052090	-0.832786	-0.290150
C74	C	1.552090	-0.332786	0.209850
C75	C	1.137738	-0.832647	-0.376172
C76	C	1.637738	-0.332647	0.123828
C77	C	1.119715	-0.882074	-0.308356
C78	C	1.619715	-0.382074	0.191644
C79	C	1.070133	-0.700327	-0.357947
C80	C	1.570133	-0.200327	0.142053
C81	C	1.070285	-1.014506	-0.357970
C82	C	1.570285	-0.514506	0.142030
C83	C	1.263323	-0.357827	-0.357977
C84	C	1.763323	0.142173	0.142023
C85	C	1.345637	-0.357840	-0.357994
C86	C	1.845637	0.142160	0.142006
C87	C	1.070194	-0.357717	-0.551643
C88	C	1.570194	0.142283	-0.051643
C89	C	1.070208	-0.357683	-0.634189
C90	C	1.570208	0.142317	-0.134189
C91	C	1.070271	-0.164091	-0.357966
C92	C	1.570271	0.335909	0.142034
C93	C	1.070318	-0.081545	-0.357978
C94	C	1.570318	0.418455	0.142022
C95	C	1.119753	-0.308061	-0.833657
C96	C	1.619753	0.191939	-0.333657
C97	C	1.052209	-0.289879	-0.883044
C98	C	1.552209	0.210121	-0.383044
C99	C	1.070238	-0.357671	-0.785319
C100	C	1.570238	0.142329	-0.285319
C101	C	1.137809	-0.375806	-0.883014
C102	C	1.637809	0.124194	-0.383014
C103	C	1.070272	-0.357657	-0.931305
C104	C	1.570272	0.142343	-0.431305
C105	C	1.002659	-0.339454	-0.833619
C106	C	1.502659	0.160546	-0.333619
C107	C	1.088303	-0.425412	-0.833585
C108	C	1.588303	0.074588	-0.333585
C109	C	1.020713	-0.407255	-0.882950
C110	C	1.520713	0.092745	-0.382950
C111	C	1.070219	-0.357677	-0.701221
C112	C	1.570219	0.142323	-0.201221
C113	C	1.070284	-0.357651	-1.015401
C114	C	1.570284	0.142349	-0.515401
C115	C	1.070172	-0.357822	-0.164985
C116	C	1.570172	0.142178	0.335015
C117	C	1.070301	-0.357647	-0.082440
C118	C	1.570301	0.142353	0.417560
H119	H	0.634324	-0.242301	-0.314013
H120	H	1.134324	0.257699	0.185987
Cl121	Cl	1.225882	-0.799021	-0.399990
Cl122	Cl	1.725882	-0.299021	0.100010
Cl123	Cl	1.226011	-0.399499	-0.916512
Cl124	Cl	1.726011	0.100501	-0.416512
H125	H	1.161590	-0.903597	-0.266395
H126	H	1.661590	-0.403597	0.233605
Cl127	Cl	0.495905	-0.210315	-0.321313
Cl128	Cl	0.995905	0.289685	0.178687
H129	H	0.506124	-0.313166	-0.242940
H130	H	1.006124	0.186834	0.257060
H131	H	1.161557	-0.266082	-0.812011
H132	H	1.661557	0.233918	-0.312011
H133	H	0.633745	-0.313469	-0.242357
H134	H	1.133745	0.186531	0.257643
Cl135	Cl	0.496680	-0.402756	-0.502274
Cl136	Cl	0.996680	0.097244	-0.002274
Cl137	Cl	0.914475	-0.915791	-0.315966
Cl138	Cl	1.414475	-0.415791	0.184034
Cl139	Cl	0.497076	-0.461754	-0.247420
Cl140	Cl	0.997076	0.038246	0.252580
Cl141	Cl	0.645023	-0.247299	-0.461051
Cl142	Cl	1.145023	0.252701	0.038949
Cl143	Cl	1.028635	-0.201426	-0.916591
Cl144	Cl	1.528635	0.298574	-0.416591
Cl145	Cl	0.956014	-0.472011	-0.916173
Cl146	Cl	1.456014	0.027989	-0.416173
Cl147	Cl	1.111832	-0.915477	-0.514214
Cl148	Cl	1.611832	-0.415477	-0.014214
Cl149	Cl	0.494649	-0.251373	-0.466591
Cl150	Cl	0.994649	0.248627	0.033409
Cl151	Cl	0.914427	-0.315670	-0.800266
Cl152	Cl	1.414427	0.184330	-0.300266
Cl153	Cl	1.028416	-0.799514	-0.201639
Cl154	Cl	1.528416	-0.299514	0.298361
H155	H	0.507248	-0.480122	-0.375935
H156	H	1.007248	0.019878	0.124065
Cl157	Cl	1.111910	-0.513842	-0.800014
Cl158	Cl	1.611910	-0.013842	-0.300014
H159	H	0.635034	-0.453193	-0.279700
H160	H	1.135034	0.046807	0.220300
Cl161	Cl	0.646647	-0.396293	-0.505364
Cl162	Cl	1.146647	0.103707	-0.005364
Cl163	Cl	0.645046	-0.504134	-0.398764
Cl164	Cl	1.145046	-0.004134	0.101236
Cl165	Cl	0.955994	-0.799299	-0.472152
Cl166	Cl	1.455994	-0.299299	0.027848
