data_functionalizedCrystal
_audit_creation_method	'MofGen! by Chris Wilmer'
_symmetry_space_group_name_H-M	'P1'
_symmetry_Int_Tables_number	1
_symmetry_cell_setting	triclinic
loop_
_symmetry_equiv_pos_as_xyz
  x,y,z
_cell_length_a	25.639242
_cell_length_b	25.639239
_cell_length_c	21.395355
_cell_angle_alpha	90.019334
_cell_angle_beta	90.025495
_cell_angle_gamma	90.030990
loop_
_atom_site_label
_atom_site_type_symbol
_atom_site_fract_x
_atom_site_fract_y
_atom_site_fract_z
Zn1	Zn	0.799283	-0.208319	0.354274
Zn2	Zn	0.799189	-0.295738	0.249495
Zn3	Zn	0.711842	-0.208307	0.249509
Zn4	Zn	0.711804	-0.295713	0.354233
O5	O	0.755529	-0.252019	0.301877
O6	O	0.872435	-0.219931	0.340385
O7	O	0.787579	-0.284146	0.161819
O8	O	0.723496	-0.135143	0.263429
O9	O	0.872367	-0.284157	0.263405
O10	O	0.787738	-0.135152	0.340399
O11	O	0.723405	-0.219911	0.161829
O12	O	0.638672	-0.219886	0.263389
O13	O	0.723431	-0.284114	0.441916
O14	O	0.638644	-0.284103	0.340330
O15	O	0.787702	-0.219906	0.441946
O16	O	0.787542	-0.368900	0.263366
O17	O	0.723341	-0.368882	0.340316
C18	C	0.619687	-0.251991	0.301857
C19	C	0.561573	-0.251992	0.301863
C20	C	0.310423	-0.218636	0.342034
C21	C	0.365027	-0.218631	0.342031
O22	O	0.393301	-0.190248	0.376181
N23	N	0.392299	-0.252013	0.301885
C24	C	0.364963	-0.285407	0.261744
O25	O	0.393174	-0.313801	0.227596
C26	C	0.310360	-0.285414	0.261751
C27	C	0.283091	-0.252026	0.301895
C28	C	0.283154	-0.185250	0.382176
C29	C	0.228554	-0.185255	0.382179
C30	C	0.201222	-0.218645	0.342040
C31	C	0.228491	-0.252030	0.301898
C32	C	0.283025	-0.318810	0.221614
C33	C	0.228418	-0.318815	0.221625
C34	C	0.201149	-0.285427	0.261769
C35	C	0.146558	-0.285425	0.261762
N36	N	0.119287	-0.252042	0.301908
C37	C	0.146619	-0.218652	0.342047
C38	C	0.479634	-0.285390	0.261733
C39	C	0.534236	-0.285380	0.261722
C40	C	0.534297	-0.218604	0.342010
C41	C	0.479693	-0.218612	0.342017
C42	C	0.452362	-0.252007	0.301879
C43	C	0.031954	-0.218664	0.342049
C44	C	-0.022652	-0.218670	0.342046
C45	C	-0.022708	-0.285448	0.261761
C46	C	0.031893	-0.285440	0.261761
C47	C	0.059222	-0.252047	0.301910
O48	O	0.118250	-0.313795	0.227630
O49	O	0.118402	-0.190268	0.376194
C50	C	0.755441	-0.387862	0.301849
C51	C	0.755452	-0.445976	0.301857
C52	C	0.789046	-0.806336	0.261877
C53	C	0.789066	-0.860940	0.261886
O54	O	0.817539	-0.889175	0.227862
N55	N	0.755621	-0.888258	0.301919
C56	C	0.722157	-0.860969	0.341951
O57	O	0.693712	-0.889219	0.376003
C58	C	0.722140	-0.806366	0.341945
C59	C	0.755584	-0.779051	0.301905
C60	C	0.822488	-0.779021	0.221841
C61	C	0.822467	-0.724420	0.221832
C62	C	0.789004	-0.697135	0.261859
C63	C	0.755563	-0.724450	0.301896
C64	C	0.688679	-0.779078	0.381980
C65	C	0.688665	-0.724471	0.381971
C66	C	0.722109	-0.697156	0.341931
C67	C	0.722079	-0.642564	0.341914
N68	N	0.755524	-0.615246	0.301881
C69	C	0.788987	-0.642532	0.261854
C70	C	0.722197	-0.975640	0.341961
C71	C	0.722211	-1.030242	0.341964
C72	C	0.789121	-1.030210	0.261899
C73	C	0.789104	-0.975606	0.261893
C74	C	0.755642	-0.948322	0.301927
C75	C	0.788940	-0.527867	0.261837
C76	C	0.788914	-0.473261	0.261830
C77	C	0.722006	-0.473299	0.341896
C78	C	0.722030	-0.527899	0.341902
C79	C	0.755501	-0.555182	0.301870
O80	O	0.693623	-0.614295	0.375923
O81	O	0.817432	-0.614275	0.227813
C82	C	0.891902	-0.252048	0.301898
C83	C	0.950016	-0.252060	0.301907
C84	C	0.755573	-0.252009	0.465301
C85	C	0.755591	-0.252004	0.534942
C86	C	0.755632	-0.115646	0.301920
C87	C	0.755676	-0.057532	0.301938
C88	C	0.755516	-0.251992	0.139090
C89	C	0.755599	-0.251849	0.069449
C90	C	0.789055	-0.218570	0.567672
C91	C	0.789055	-0.218547	0.633107
C92	C	0.755595	-0.251969	0.665810
C93	C	0.722125	-0.285406	0.633073
C94	C	0.722123	-0.285423	0.567639
C95	C	0.751436	-0.299045	0.769475
C96	C	0.751442	-0.299028	0.834908
C97	C	0.755599	-0.251913	0.867631
C98	C	0.759760	-0.204814	0.834913
C99	C	0.759758	-0.204832	0.769479
C100	C	0.755594	-0.251953	0.736763
C101	C	0.789064	-0.218451	0.971314
C102	C	0.789059	-0.218428	1.036750
C103	C	0.722132	-0.285291	1.036715
C104	C	0.722134	-0.285310	0.971279
C105	C	0.755602	-0.251891	0.938583
H106	H	0.305402	-0.158060	0.414865
H107	H	0.747912	-0.337402	0.742837
N108	N	0.823231	-0.184387	0.666551
N109	N	0.819802	-0.136142	0.659248
H110	H	0.843939	-0.112016	0.682867
H111	H	0.206168	-0.346012	0.188940
H112	H	-0.044851	-0.191479	0.374736
N113	N	0.687948	-0.319467	0.937853
N114	N	0.658074	-0.349305	0.967057
H115	H	0.633927	-0.373429	0.943450
H116	H	0.816337	-0.953369	0.229290
H117	H	0.661443	-0.801309	0.414582
H118	H	0.694973	-1.052478	0.374562
N119	N	0.688002	-0.947771	0.382842
N120	N	0.654681	-0.917342	0.360758
H121	H	0.630531	-0.897661	0.389630
N122	N	0.747157	-0.347138	0.868316
N123	N	0.743413	-0.389199	0.839093
H124	H	0.740372	-0.423177	0.862686
N125	N	0.654483	-0.696610	0.422874
N126	N	0.624630	-0.721009	0.458619
H127	H	0.600488	-0.701334	0.487507
H128	H	0.816309	-0.191199	1.063398
N129	N	-0.050633	-0.319547	0.220754
N130	N	-0.081112	-0.301105	0.180873
H131	H	-0.100836	-0.325190	0.151913
N132	N	0.687939	-0.319572	0.534194
N133	N	0.654638	-0.301177	0.497663
H134	H	0.630495	-0.325295	0.474040
H135	H	0.054199	-0.191472	0.374742
N136	N	0.451850	-0.184507	0.383032
N137	N	0.476266	-0.154700	0.418866
H138	H	0.456605	-0.130614	0.447838
N139	N	0.200712	-0.151139	0.423182
N140	N	0.225131	-0.121328	0.459009
H141	H	0.205471	-0.097230	0.487969
N142	N	0.562220	-0.184491	0.383007
N143	N	0.592695	-0.151144	0.361030
H144	H	0.612417	-0.127052	0.389982
N145	N	0.856633	-0.696531	0.180928
N146	N	0.886506	-0.720908	0.145197
H147	H	0.910639	-0.701215	0.116307
N148	N	0.059742	-0.319538	0.220740
N149	N	0.035330	-0.349344	0.184900
H150	H	0.054994	-0.373429	0.155930
N151	N	0.687856	-0.555796	0.382794
N152	N	0.657978	-0.531425	0.418525
H153	H	0.633844	-0.551123	0.447409
N154	N	0.562095	-0.319474	0.220709
N155	N	0.592555	-0.301027	0.180820
H156	H	0.612230	-0.325108	0.151855
H157	H	0.694884	-0.312499	1.063341
H158	H	0.816307	-0.191356	0.541054
H159	H	0.816370	-1.052435	0.229309
N160	N	0.687825	-0.445414	0.382772
N161	N	0.687816	-0.396661	0.382754
H162	H	0.663677	-0.376965	0.411624
N163	N	0.451726	-0.319506	0.220723
N164	N	0.476087	-0.349307	0.184884
H165	H	0.456380	-0.373403	0.155922
H166	H	0.694880	-0.312616	0.659704
N167	N	0.823078	-0.445368	0.220920
N168	N	0.852952	-0.469741	0.185186
H169	H	0.877081	-0.450044	0.156294
H170	H	0.763145	-0.166482	0.742843
H171	H	0.763146	-0.166448	0.861555
N172	N	0.823131	-0.555722	0.220942
N173	N	0.852983	-0.531318	0.185199
H174	H	0.877128	-0.550990	0.156312
N175	N	0.310862	-0.352920	0.180603
N176	N	0.286442	-0.382730	0.144775
H177	H	0.306100	-0.406823	0.115809
N178	N	0.823250	-0.184311	0.937920
N179	N	0.853123	-0.154455	0.967154
H180	H	0.877267	-0.130342	0.943572
H181	H	0.849740	-0.801231	0.189245
