data_functionalizedCrystal
_audit_creation_method	'MofGen! by Chris Wilmer'
_symmetry_space_group_name_H-M	'P1'
_symmetry_Int_Tables_number	1
_symmetry_cell_setting	triclinic
loop_
_symmetry_equiv_pos_as_xyz
  x,y,z
_cell_length_a	16.109302
_cell_length_b	23.532407
_cell_length_c	14.586319
_cell_angle_alpha	89.991566
_cell_angle_beta	89.994552
_cell_angle_gamma	83.155229
loop_
_atom_site_label
_atom_site_type_symbol
_atom_site_fract_x
_atom_site_fract_y
_atom_site_fract_z
O1	O	1.102555	0.073204	-0.076291
O2	O	1.602555	0.573204	0.423709
O3	O	0.860421	0.082313	-0.076285
O4	O	1.360421	0.582313	0.423715
O5	O	0.988790	-0.005146	-0.076271
O6	O	1.488790	0.494854	0.423729
O7	O	0.974187	0.160663	-0.076305
O8	O	1.474187	0.660663	0.423695
O9	O	0.988781	-0.005147	0.076209
O10	O	1.488781	0.494853	0.576209
O11	O	0.860412	0.082312	0.076196
O12	O	1.360412	0.582312	0.576196
O13	O	1.102546	0.073203	0.076190
O14	O	1.602546	0.573203	0.576190
Cu15	Cu	0.981478	0.077757	0.090116
Cu16	Cu	1.481478	0.577757	0.590116
Cu17	Cu	0.981489	0.077759	-0.090211
Cu18	Cu	1.481489	0.577759	0.409789
O19	O	0.974178	0.160662	0.076176
O20	O	1.474178	0.660662	0.576176
C21	C	0.829445	0.081944	-0.000044
C22	C	1.329445	0.581944	0.499956
C23	C	0.737158	0.080837	-0.000041
C24	C	1.237158	0.580837	0.499959
C25	C	0.524833	0.078278	0.083068
C26	C	1.024833	0.578278	0.583068
C27	C	0.438121	0.077232	0.083065
C28	C	0.938121	0.577232	0.583065
C29	C	0.438141	0.077236	-0.083178
C30	C	0.938141	0.577236	0.416822
C31	C	0.524852	0.078278	-0.083174
C32	C	1.024852	0.578278	0.416826
C33	C	0.568195	0.078802	-0.000048
C34	C	1.068195	0.578802	0.499952
C35	C	0.394772	0.076714	-0.000055
C36	C	0.894772	0.576714	0.499945
C37	C	0.300755	0.075580	-0.000059
C38	C	0.800755	0.575580	0.499941
C39	C	0.662218	0.079935	-0.000044
C40	C	1.162218	0.579935	0.499956
C41	C	0.988413	-0.026364	-0.000029
C42	C	1.488413	0.473636	0.499971
C43	C	0.987295	-0.089585	-0.000022
C44	C	1.487295	0.410415	0.499978
C45	C	1.056248	-0.488434	-0.000074
C46	C	1.556248	0.011566	0.499926
C47	C	1.055210	-0.547838	-0.000080
C48	C	1.555210	-0.047838	0.499920
O49	O	1.119130	-0.584347	-0.000116
O50	O	1.619130	-0.084347	0.499884
N51	N	0.978895	-0.570746	-0.000078
N52	N	1.478895	-0.070746	0.499922
C53	C	0.903614	-0.534246	-0.000078
C54	C	1.403614	-0.034246	0.499922
O55	O	0.838607	-0.559186	-0.000077
O56	O	1.338607	-0.059186	0.499923
C57	C	0.904653	-0.474843	-0.000077
C58	C	1.404653	0.025157	0.499923
C59	C	0.980973	-0.451939	-0.000071
C60	C	1.480973	0.048061	0.499929
C61	C	1.132562	-0.465529	-0.000068
C62	C	1.632562	0.034471	0.499932
C63	C	1.133600	-0.406129	-0.000059
C64	C	1.633600	0.093871	0.499941
C65	C	1.058325	-0.369634	-0.000056
C66	C	1.558325	0.130366	0.499944
C67	C	0.982011	-0.392539	-0.000062
C68	C	1.482011	0.107461	0.499938
C69	C	0.829373	-0.438345	-0.000084
C70	C	1.329373	0.061655	0.499916
C71	C	0.830419	-0.378938	-0.000084
C72	C	1.330419	0.121062	0.499916
C73	C	0.906739	-0.356034	-0.000077
C74	C	1.406739	0.143966	0.499923
C75	C	0.907774	-0.296644	-0.000050
C76	C	1.407774	0.203356	0.499950
N77	N	0.984089	-0.273736	-0.000053
N78	N	1.484089	0.226264	0.499947
C79	C	1.059364	-0.310231	-0.000056
C80	C	1.559364	0.189769	0.499944
C81	C	0.901436	-0.658997	-0.000080
C82	C	1.401436	-0.158997	0.499920
C83	C	0.900396	-0.718398	-0.000074
C84	C	1.400396	-0.218398	0.499926
C85	C	1.051993	-0.731986	-0.000078
C86	C	1.551993	-0.231986	0.499922
C87	C	1.053032	-0.672583	-0.000078
C88	C	1.553032	-0.172583	0.499922
C89	C	0.977751	-0.636089	-0.000083
C90	C	1.477751	-0.136089	0.499917
C91	C	1.061539	-0.185486	-0.000037
C92	C	1.561539	0.314514	0.499963
C93	C	1.062571	-0.126080	-0.000024
C94	C	1.562571	0.373920	0.499976
C95	C	0.910975	-0.112498	-0.000025
C96	C	1.410975	0.387502	0.499975
C97	C	0.909943	-0.171898	-0.000032
C98	C	1.409943	0.328102	0.499968
C99	C	0.985232	-0.208392	-0.000042
C100	C	1.485232	0.291608	0.499958
O101	O	0.843887	-0.260100	-0.000019
O102	O	1.343887	0.239900	0.499981
O103	O	1.124361	-0.285283	-0.000069
O104	O	1.624361	0.214717	0.499931
C105	C	1.133522	0.073572	-0.000054
C106	C	1.633522	0.573572	0.499946
C107	C	1.225809	0.074679	-0.000063
C108	C	1.725809	0.574679	0.499937
C109	C	0.974554	0.181880	-0.000069
C110	C	1.474554	0.681880	0.499931
C111	C	0.975672	0.245101	-0.000082
C112	C	1.475672	0.745101	0.499918
N113	N	0.981477	0.077756	0.216947
N114	N	1.481477	0.577756	0.716947
N115	N	0.981497	0.077756	-0.217042
N116	N	1.481497	0.577756	0.282958
C117	C	1.038337	0.039042	0.451960
C118	C	1.538337	0.539042	0.951960
C119	C	1.038340	0.039040	0.547941
C120	C	1.538340	0.539040	1.047941
C121	C	0.924631	0.116472	0.547938
C122	C	1.424631	0.616472	1.047938
C123	C	0.924625	0.116470	0.451959
C124	C	1.424625	0.616470	0.951959
C125	C	0.981483	0.077756	0.403972
C126	C	1.481483	0.577756	0.903972
C127	C	0.981491	0.077756	0.595933
C128	C	1.481491	0.577756	1.095933
C129	C	0.981493	0.077755	0.700000
C130	C	1.481493	0.577755	1.200000
C131	C	0.981480	0.077756	0.299898
C132	C	1.481480	0.577756	0.799898
H133	H	0.560159	0.078703	-0.150861
H134	H	1.060159	0.578703	0.349139
H135	H	0.878323	0.147996	0.412885
H136	H	1.378323	0.647996	0.912885
H137	H	1.195748	-0.387486	-0.000057
H138	H	1.695748	0.112514	0.499943
H139	H	0.402819	0.076806	0.150747
H140	H	0.902819	0.576806	0.650747
N141	N	0.393866	0.076695	-0.168084
N142	N	0.893866	0.576695	0.331916
N143	N	0.353480	0.035994	-0.186625
N144	N	0.853480	0.535994	0.313375
H145	H	0.322211	0.035611	-0.246592
H146	H	0.822211	0.535611	0.253408
N147	N	0.569093	0.078820	0.167983
N148	N	1.069093	0.578820	0.667983
N149	N	0.530361	0.078357	0.242188
N150	N	1.030361	0.578357	0.742188
H151	H	0.561616	0.078741	0.302163
H152	H	1.061616	0.578741	0.802163
N153	N	1.128896	-0.769262	-0.000080
N154	N	1.628896	-0.269262	0.499920
N155	N	1.179764	-0.767189	0.064191
N156	N	1.679764	-0.267189	0.564191
H157	H	1.234075	-0.793515	0.064191
H158	H	1.734075	-0.293515	0.564191
N159	N	0.866549	0.156010	0.596960
N160	N	1.366549	0.656010	1.096960
N161	N	0.815098	0.137929	0.650531
N162	N	1.315098	0.637929	1.150531
H163	H	0.774076	0.165853	0.685153
H164	H	1.274076	0.665853	1.185153
H165	H	1.124722	-0.107435	-0.000017
H166	H	1.624722	0.392565	0.499983
H167	H	1.193864	-0.495238	-0.000074
H168	H	1.693864	0.004762	0.499926
H169	H	1.115178	-0.653939	-0.000073
H170	H	1.615178	-0.153939	0.499927
N171	N	1.138451	-0.222749	-0.000049
N172	N	1.638451	0.277251	0.499951
N173	N	1.206577	-0.202281	-0.000043
N174	N	1.706577	0.297719	0.499957
H175	H	1.260898	-0.228597	-0.000047
H176	H	1.760898	0.271403	0.499953
N177	N	0.824526	-0.621728	-0.000082
N178	N	1.324526	-0.121728	0.499918
N179	N	0.756398	-0.642195	-0.000081
N180	N	1.256398	-0.142195	0.499919
H181	H	0.702079	-0.615878	-0.000084
H182	H	1.202079	-0.115878	0.499916
H183	H	0.838249	-0.737041	-0.000064
H184	H	1.338249	-0.237041	0.499936
N185	N	0.834096	-0.075203	-0.000035
N186	N	1.334096	0.424797	0.499965
N187	N	0.817788	-0.040532	-0.064312
N188	N	1.317788	0.459468	0.435688
H189	H	0.763492	-0.014190	-0.064327
H190	H	1.263492	0.485810	0.435673
H191	H	1.084633	0.007517	0.412891
H192	H	1.584633	0.507517	0.912891
N193	N	0.751405	-0.461721	-0.000093
N194	N	1.251405	0.038279	0.499907
N195	N	0.684209	-0.429119	-0.000100
N196	N	1.184209	0.070881	0.499900
H197	H	0.629138	-0.445627	-0.000110
H198	H	1.129138	0.054373	0.499890
N199	N	0.753511	-0.341669	-0.000100
N200	N	1.253511	0.158331	0.499900
N201	N	0.685381	-0.362132	-0.000111
N202	N	1.185381	0.137868	0.499889
H203	H	0.631064	-0.335812	-0.000123
H204	H	1.131064	0.164188	0.499877
H205	H	0.847797	-0.190548	-0.000012
H206	H	1.347797	0.309452	0.499988
H207	H	1.084634	0.007515	0.587010
H208	H	1.584634	0.507515	1.087010
