data_functionalizedCrystal
_audit_creation_method	'MofGen! by Chris Wilmer'
_symmetry_space_group_name_H-M	'P1'
_symmetry_Int_Tables_number	1
_symmetry_cell_setting	triclinic
loop_
_symmetry_equiv_pos_as_xyz
  x,y,z
_cell_length_a	29.839135
_cell_length_b	29.839131
_cell_length_c	29.839126
_cell_angle_alpha	89.970347
_cell_angle_beta	89.970753
_cell_angle_gamma	90.037758
loop_
_atom_site_label
_atom_site_type_symbol
_atom_site_fract_x
_atom_site_fract_y
_atom_site_fract_z
Zn1	Zn	0.686800	-0.178867	-0.254023
Zn2	Zn	1.186800	0.321133	0.245977
Zn3	Zn	0.686722	-0.253985	-0.178883
Zn4	Zn	1.186722	0.246015	0.321117
Zn5	Zn	0.611665	-0.178873	-0.178901
Zn6	Zn	1.111665	0.321127	0.321099
Zn7	Zn	0.611639	-0.253974	-0.253980
Zn8	Zn	1.111639	0.246026	0.246020
O9	O	0.649206	-0.216425	-0.216447
O10	O	1.149206	0.283575	0.283553
O11	O	0.749657	-0.188833	-0.244066
O12	O	1.249657	0.311167	0.255934
O13	O	0.676744	-0.244028	-0.116019
O14	O	1.176744	0.255972	0.383981
O15	O	0.621675	-0.116005	-0.188892
O16	O	1.121675	0.383995	0.311108
O17	O	0.749600	-0.244022	-0.188861
O18	O	1.249600	0.255978	0.311139
O19	O	0.676877	-0.116001	-0.244084
O20	O	1.176877	0.383999	0.255916
O21	O	0.621600	-0.188843	-0.116032
O22	O	1.121600	0.311157	0.383968
O23	O	0.548794	-0.188833	-0.188850
O24	O	1.048794	0.311167	0.311150
O25	O	0.621631	-0.244004	-0.316853
O26	O	1.121631	0.255996	0.183147
O27	O	0.548775	-0.244010	-0.244010
O28	O	1.048775	0.255990	0.255990
O29	O	0.676851	-0.188823	-0.316885
O30	O	1.176851	0.311177	0.183115
O31	O	0.676719	-0.316850	-0.188819
O32	O	1.176719	0.183150	0.311181
O33	O	0.621555	-0.316842	-0.243993
O34	O	1.121555	0.183158	0.256007
C35	C	0.649138	-0.333147	-0.216409
C36	C	1.149138	0.166853	0.283591
C37	C	0.649150	-0.383082	-0.216408
C38	C	1.149150	0.116918	0.283592
C39	C	0.532484	-0.216421	-0.216428
C40	C	1.032484	0.283579	0.283572
C41	C	0.482549	-0.216430	-0.216430
C42	C	0.982549	0.283570	0.283570
C43	C	0.677944	-0.692688	-0.245226
C44	C	1.177944	-0.192688	0.254774
C45	C	0.677992	-0.880361	-0.245253
C46	C	1.177992	-0.380361	0.254747
O47	O	0.702407	-0.904594	-0.269728
O48	O	1.202407	-0.404594	0.230272
N49	N	0.649283	-0.903867	-0.216497
N50	N	1.149283	-0.403867	0.283503
C51	C	0.620557	-0.880451	-0.187734
C52	C	1.120557	-0.380451	0.312266
O53	O	0.596135	-0.904751	-0.163279
O54	O	1.096135	-0.404751	0.336721
C55	C	0.620506	-0.692779	-0.187709
C56	C	1.120506	-0.192779	0.312291
C57	C	0.649221	-0.669276	-0.216464
C58	C	1.149221	-0.169276	0.283536
C59	C	0.706656	-0.669184	-0.273980
C60	C	1.206656	-0.169184	0.226020
C61	C	0.706645	-0.622269	-0.273971
C62	C	1.206645	-0.122269	0.226029
C63	C	0.677922	-0.598857	-0.245209
C64	C	1.177922	-0.098857	0.254791
C65	C	0.649210	-0.622360	-0.216456
C66	C	1.149210	-0.122360	0.283544
C67	C	0.591778	-0.669364	-0.158949
C68	C	1.091778	-0.169364	0.341051
C69	C	0.591767	-0.622443	-0.158946
C70	C	1.091767	-0.122443	0.341054
C71	C	0.620482	-0.598940	-0.187701
C72	C	1.120482	-0.098940	0.312299
C73	C	0.620476	-0.552033	-0.187685
C74	C	1.120476	-0.052033	0.312315
N75	N	0.649186	-0.528527	-0.216442
N76	N	1.149186	-0.028527	0.283558
C77	C	0.677909	-0.551939	-0.245203
C78	C	1.177909	-0.051939	0.254797
C79	C	0.620586	-0.978982	-0.187748
C80	C	1.120586	-0.478982	0.312252
C81	C	0.620599	-1.025900	-0.187753
C82	C	1.120599	-0.525900	0.312247
C83	C	0.678034	-1.025806	-0.245274
C84	C	1.178034	-0.525806	0.254726
C85	C	0.678023	-0.978887	-0.245266
C86	C	1.178023	-0.478887	0.254734
C87	C	0.649296	-0.955476	-0.216504
C88	C	1.149296	-0.455476	0.283496
C89	C	0.677884	-0.453413	-0.245183
C90	C	1.177884	0.046587	0.254817
C91	C	0.677872	-0.406494	-0.245170
C92	C	1.177872	0.093506	0.254830
C93	C	0.620436	-0.406591	-0.187651
C94	C	1.120436	0.093409	0.312349
C95	C	0.620449	-0.453507	-0.187662
C96	C	1.120449	0.046493	0.312338
C97	C	0.649175	-0.476917	-0.216431
C98	C	1.149175	0.023083	0.283569
O99	O	0.596071	-0.527770	-0.163227
O100	O	1.096071	-0.027770	0.336773
O101	O	0.702320	-0.527632	-0.269662
O102	O	1.202320	-0.027632	0.230338
C103	C	0.677954	-0.739603	-0.245235
C104	C	1.177954	-0.239603	0.254765
C105	C	0.649242	-0.763107	-0.216482
C106	C	1.149242	-0.263107	0.283518
C107	C	0.620519	-0.739695	-0.187720
C108	C	1.120519	-0.239695	0.312280
C109	C	0.649255	-0.810024	-0.216487
C110	C	1.149255	-0.310024	0.283513
C111	C	0.677978	-0.833437	-0.245249
C112	C	1.177978	-0.333437	0.254751
C113	C	0.706688	-0.809931	-0.274006
C114	C	1.206688	-0.309931	0.225994
C115	C	0.706677	-0.763015	-0.273997
C116	C	1.206677	-0.263015	0.226003
C117	C	0.591810	-0.763200	-0.158964
C118	C	1.091810	-0.263200	0.341036
C119	C	0.591823	-0.810116	-0.158974
C120	C	1.091823	-0.310116	0.341026
C121	C	0.620546	-0.833528	-0.187736
C122	C	1.120546	-0.333528	0.312264
C123	C	0.172933	-0.187731	-0.245235
C124	C	0.672933	0.312269	0.254765
C125	C	-0.014740	-0.187734	-0.245247
C126	C	0.485260	0.312266	0.254753
O127	O	-0.038982	-0.163323	-0.269717
O128	O	0.461018	0.336677	0.230283
N129	N	-0.038236	-0.216425	-0.216464
N130	N	0.461764	0.283575	0.283536
C131	C	-0.014810	-0.245115	-0.187672
C132	C	0.485190	0.254885	0.312328
O133	O	-0.039101	-0.269515	-0.163187
O134	O	0.460899	0.230485	0.336813
C135	C	0.172862	-0.245109	-0.187658
C136	C	0.672862	0.254891	0.312342
C137	C	0.196355	-0.216420	-0.216447
C138	C	0.696355	0.283580	0.283553
C139	C	0.196426	-0.159044	-0.274021
C140	C	0.696426	0.340956	0.225979
C141	C	0.243341	-0.159045	-0.274019
C142	C	0.743341	0.340955	0.225981
C143	C	0.266764	-0.187734	-0.245231
C144	C	0.766764	0.312266	0.254769
C145	C	0.243271	-0.216421	-0.216445
C146	C	0.743271	0.283579	0.283555
C147	C	0.196287	-0.273796	-0.158864
C148	C	0.696287	0.226204	0.341136
C149	C	0.243208	-0.273791	-0.158862
C150	C	0.743208	0.226209	0.341138
C151	C	0.266701	-0.245102	-0.187652
C152	C	0.766701	0.254898	0.312348
C153	C	0.313609	-0.245111	-0.187655
C154	C	0.813609	0.254889	0.312345
N155	N	0.337104	-0.216420	-0.216439
N156	N	0.837104	0.283580	0.283561
C157	C	0.313682	-0.187732	-0.245227
C158	C	0.813682	0.312268	0.254773
C159	C	-0.113341	-0.245116	-0.187683
C160	C	0.386659	0.254884	0.312317
C161	C	-0.160258	-0.245118	-0.187687
C162	C	0.339742	0.254882	0.312313
C163	C	-0.160185	-0.187737	-0.245262
C164	C	0.339815	0.312263	0.254738
C165	C	-0.113267	-0.187738	-0.245259
C166	C	0.386733	0.312262	0.254741
C167	C	-0.089845	-0.216426	-0.216467
C168	C	0.410155	0.283574	0.283533
C169	C	0.412207	-0.187737	-0.245221
C170	C	0.912207	0.312263	0.254779
C171	C	0.459127	-0.187742	-0.245218
C172	C	0.959127	0.312258	0.254782
C173	C	0.459050	-0.245121	-0.187642
C174	C	0.959050	0.254879	0.312358
C175	C	0.412134	-0.245118	-0.187647
C176	C	0.912134	0.254882	0.312353
C177	C	0.388714	-0.216422	-0.216438
C178	C	0.888714	0.283578	0.283562
O179	O	0.337880	-0.269506	-0.163195
O180	O	0.837880	0.230494	0.336805
O181	O	0.337980	-0.163329	-0.269702
O182	O	0.837980	0.336671	0.230298
C183	C	0.126017	-0.187730	-0.245236
C184	C	0.626017	0.312270	0.254764
C185	C	0.102524	-0.216417	-0.216450
C186	C	0.602524	0.283583	0.283550
C187	C	0.125947	-0.245106	-0.187662
C188	C	0.625947	0.254894	0.312338
C189	C	0.055606	-0.216419	-0.216454
C190	C	0.555606	0.283581	0.283546
C191	C	0.032184	-0.187731	-0.245242
C192	C	0.532184	0.312269	0.254758
C193	C	0.055679	-0.159040	-0.274026
C194	C	0.555679	0.340960	0.225974
C195	C	0.102595	-0.159042	-0.274025
C196	C	0.602595	0.340958	0.225975
C197	C	0.102451	-0.273796	-0.158878
C198	C	0.602451	0.226204	0.341122
C199	C	0.055536	-0.273793	-0.158883
C200	C	0.555536	0.226207	0.341117
C201	C	0.032113	-0.245105	-0.187671
C202	C	0.532113	0.254895	0.312329
C203	C	0.766385	-0.216428	-0.216467
C204	C	1.266385	0.283572	0.283533
C205	C	0.816319	-0.216430	-0.216475
C206	C	1.316319	0.283570	0.283525
C207	C	0.649247	-0.216412	-0.333625
C208	C	1.149247	0.283588	0.166375
C209	C	0.649264	-0.216406	-0.383560
C210	C	1.149264	0.283594	0.116440
C211	C	0.649287	-0.099246	-0.216495
C212	C	1.149287	0.400754	0.283505
C213	C	0.649322	-0.049312	-0.216515
C214	C	1.149322	0.450688	0.283485
C215	C	0.677971	-0.245081	-0.740143
C216	C	1.177971	0.254919	-0.240143
C217	C	0.677972	-0.245112	-0.552470
C218	C	1.177972	0.254888	-0.052470
O219	O	0.702376	-0.269563	-0.528202
O220	O	1.202376	0.230437	-0.028202
N221	N	0.649262	-0.216385	-0.529005
N222	N	1.149262	0.283615	-0.029005
C223	C	0.620547	-0.187649	-0.552461
C224	C	1.120547	0.312351	-0.052461
O225	O	0.596124	-0.163219	-0.528197
O226	O	1.096124	0.336781	-0.028197
C227	C	0.620544	-0.187621	-0.740134
C228	C	1.120544	0.312379	-0.240134
C229	C	0.649260	-0.216347	-0.763596
C230	C	1.149260	0.283653	-0.263596
C231	C	0.706684	-0.273805	-0.763606
C232	C	1.206684	0.226195	-0.263606
C233	C	0.706685	-0.273795	-0.810521
C234	C	1.206685	0.226205	-0.310521
C235	C	0.677974	-0.245061	-0.833974
C236	C	1.177974	0.254939	-0.333974
C237	C	0.649261	-0.216337	-0.810512
C238	C	1.149261	0.283663	-0.310512
C239	C	0.591828	-0.158888	-0.763589
C240	C	1.091828	0.341112	-0.263589
C241	C	0.591829	-0.158884	-0.810510
C242	C	1.091829	0.341116	-0.310510
C243	C	0.620544	-0.187610	-0.833972
C244	C	1.120544	0.312390	-0.333972
C245	C	0.620551	-0.187593	-0.880880
C246	C	1.120551	0.312407	-0.380880
N247	N	0.649261	-0.216321	-0.904345
N248	N	1.149261	0.283679	-0.404345
C249	C	0.677973	-0.245055	-0.880892
C250	C	1.177973	0.254945	-0.380892
C251	C	0.620551	-0.187666	-0.453931
C252	C	1.120551	0.312334	0.046069
C253	C	0.620552	-0.187672	-0.407013
C254	C	1.120552	0.312328	0.092987
C255	C	0.677977	-0.245136	-0.407025
C256	C	1.177977	0.254864	0.092975
C257	C	0.677978	-0.245127	-0.453944
C258	C	1.177978	0.254873	0.046056
C259	C	0.649262	-0.216393	-0.477396
C260	C	1.149262	0.283607	0.022604
C261	C	0.677974	-0.245032	-0.979418
C262	C	1.177974	0.254968	-0.479418
C263	C	0.677974	-0.245018	-1.026338
C264	C	1.177974	0.254982	-0.526338
C265	C	0.620547	-0.187556	-1.026321
C266	C	1.120547	0.312444	-0.526321
C267	C	0.620549	-0.187568	-0.979406
C268	C	1.120549	0.312432	-0.479406
C269	C	0.649263	-0.216309	-0.955955
C270	C	1.149263	0.283691	-0.455955
O271	O	0.596156	-0.163159	-0.905177
O272	O	1.096156	0.336841	-0.405177
O273	O	0.702385	-0.269489	-0.905165
O274	O	1.202385	0.230511	-0.405165
C275	C	0.677970	-0.245091	-0.693228
C276	C	1.177970	0.254909	-0.193228
C277	C	0.649257	-0.216366	-0.669765
C278	C	1.149257	0.283634	-0.169765
C279	C	0.620546	-0.187632	-0.693218
C280	C	1.120546	0.312368	-0.193218
C281	C	0.649259	-0.216373	-0.622847
C282	C	1.149259	0.283627	-0.122847
C283	C	0.677970	-0.245107	-0.599394
C284	C	1.177970	0.254893	-0.099394
C285	C	0.706680	-0.273835	-0.622860
C286	C	1.206680	0.226165	-0.122860
C287	C	0.706682	-0.273825	-0.669775
C288	C	1.206682	0.226175	-0.169775
C289	C	0.591835	-0.158905	-0.669753
C290	C	1.091835	0.341095	-0.169753
C291	C	0.591837	-0.158917	-0.622837
C292	C	1.091837	0.341083	-0.122837
C293	C	0.620548	-0.187651	-0.599385
C294	C	1.120548	0.312349	-0.099385
C295	C	0.649192	-0.216405	-0.099725
C296	C	1.149192	0.283595	0.400275
C297	C	0.649262	-0.216284	-0.049790
C298	C	1.149262	0.283716	0.450210
H299	H	0.701257	-0.387359	-0.268586
H300	H	1.201257	0.112641	0.231414
H301	H	0.478253	-0.164379	-0.268663
H302	H	0.978253	0.335621	0.231337
C303	C	0.589016	-1.051750	-0.156121
C304	C	1.089016	-0.551750	0.343879
H305	H	0.593137	-1.083047	-0.160239
H306	H	1.093137	-0.583047	0.339761
H307	H	0.558828	-1.044082	-0.162667
H308	H	1.058828	-0.544082	0.337333
H309	H	0.595605	-1.044073	-0.125940
H310	H	1.095605	-0.544073	0.374060
H311	H	0.597192	-0.959923	-0.164326
H312	H	1.097192	-0.459923	0.335674
C313	C	0.709561	-0.276617	-1.052146
C314	C	1.209561	0.223383	-0.552146
H315	H	0.705454	-0.272495	-1.083448
H316	H	1.205454	0.227505	-0.583448
H317	H	0.702967	-0.306804	-1.044444
H318	H	1.202967	0.193196	-0.544444
H319	H	0.739751	-0.270040	-1.044472
H320	H	1.239751	0.229960	-0.544472
H321	H	0.121719	-0.135680	-0.297467
H322	H	0.621719	0.364320	0.202533
H323	H	0.262276	-0.297152	-0.135415
H324	H	0.762276	0.202848	0.364585
H325	H	0.730059	-0.743882	-0.297412
H326	H	1.230059	-0.243882	0.202588
H327	H	0.701273	-0.472468	-0.268612
H328	H	1.201273	0.027532	0.231388
C329	C	0.029909	-0.127483	-0.305691
C330	C	0.529909	0.372517	0.194309
H331	H	-0.001398	-0.131592	-0.301564
H332	H	0.498602	0.368408	0.198436
H333	H	0.037607	-0.134097	-0.335864
H334	H	0.537607	0.365903	0.164136
H335	H	0.037612	-0.097286	-0.299171
H336	H	0.537612	0.402714	0.200829
C337	C	0.560242	-0.127275	-0.836304
C338	C	1.060242	0.372725	-0.336304
H339	H	0.543145	-0.110167	-0.815608
H340	H	1.043145	0.389833	-0.315608
H341	H	0.540657	-0.144455	-0.854593
H342	H	1.040657	0.355545	-0.354593
H343	H	0.577442	-0.107693	-0.854620
H344	H	1.077442	0.392307	-0.354620
C345	C	0.588967	-0.155951	-1.052125
C346	C	1.088967	0.344049	-0.552125
H347	H	0.593079	-0.160066	-1.083428
H348	H	1.093079	0.339934	-0.583428
H349	H	0.595557	-0.125766	-1.044453
H350	H	1.095557	0.374234	-0.544453
H351	H	0.558776	-0.162533	-1.044421
H352	H	1.058776	0.337467	-0.544421
H353	H	0.730065	-0.297206	-0.744516
H354	H	1.230065	0.202794	-0.244516
H355	H	0.393005	-0.268484	-0.164210
H356	H	0.893005	0.231516	0.335790
H357	H	0.568396	-0.688493	-0.135533
H358	H	1.068396	-0.188493	0.364467
H359	H	0.730065	-0.297217	-0.688874
H360	H	1.230065	0.202783	-0.188874
C361	C	0.128210	-0.305358	-0.127212
C362	C	0.628210	0.194642	0.372788
H363	H	0.107494	-0.322445	-0.110074
H364	H	0.607494	0.177555	0.389926
H365	H	0.146515	-0.288150	-0.107668
H366	H	0.646515	0.211850	0.392332
H367	H	0.146506	-0.324961	-0.144362
H368	H	0.646506	0.175039	0.355638
H369	H	0.478129	-0.268479	-0.164205
H370	H	0.978129	0.231521	0.335795
C371	C	0.560167	-0.596694	-0.127307
C372	C	1.060167	-0.096694	0.372693
H373	H	0.543072	-0.617414	-0.110182
H374	H	1.043072	-0.117414	0.389818
H375	H	0.540581	-0.578396	-0.144469
H376	H	1.040581	-0.078396	0.355531
H377	H	0.577358	-0.578390	-0.107742
H378	H	1.077358	-0.078390	0.392258
H379	H	0.597172	-0.164171	-0.960302
H380	H	1.097172	0.335829	-0.460302
H381	H	0.036412	-0.297160	-0.135440
H382	H	0.536412	0.202840	0.364560
C383	C	0.709560	-0.276645	-0.953629
C384	C	1.209560	0.223355	-0.453629
H385	H	0.726661	-0.293745	-0.974327
H386	H	1.226661	0.206255	-0.474327
H387	H	0.692366	-0.296226	-0.935311
H388	H	1.192366	0.203774	-0.435311
H389	H	0.729149	-0.259461	-0.935343
H390	H	1.229149	0.240539	-0.435343
C391	C	0.560216	-0.737453	-0.127320
C392	C	1.060216	-0.237453	0.372680
H393	H	0.543124	-0.758175	-0.110195
H394	H	1.043124	-0.258175	0.389805
H395	H	0.540626	-0.719154	-0.144477
H396	H	1.040626	-0.219154	0.355523
H397	H	0.577411	-0.719152	-0.107757
H398	H	1.077411	-0.219152	0.392243
H399	H	0.730025	-0.603135	-0.297387
H400	H	1.230025	-0.103135	0.202613
H401	H	0.730045	-0.688242	-0.297404
H402	H	1.230045	-0.188242	0.202596
C403	C	0.738266	-0.305401	-0.836324
C404	C	1.238266	0.194599	-0.336324
H405	H	0.755359	-0.322517	-0.815632
H406	H	1.255359	0.177483	-0.315632
H407	H	0.757855	-0.288221	-0.854646
H408	H	1.257855	0.211779	-0.354646
H409	H	0.721062	-0.324975	-0.854608
H410	H	1.221062	0.175025	-0.354608
H411	H	0.701360	-0.268518	-0.473044
H412	H	1.201360	0.231482	0.026956
C413	C	0.386452	-0.156177	-0.276895
C414	C	0.886452	0.343823	0.223105
H415	H	0.407168	-0.139097	-0.294040
H416	H	0.907168	0.360903	0.205960
H417	H	0.368151	-0.136573	-0.259756
H418	H	0.868151	0.363427	0.240244
H419	H	0.368151	-0.173394	-0.296439
H420	H	0.868151	0.326606	0.203561
C421	C	0.709555	-0.276746	-0.381221
C422	C	1.209555	0.223254	0.118779
H423	H	0.705438	-0.272636	-0.349919
H424	H	1.205438	0.227364	0.150081
H425	H	0.739747	-0.270178	-0.388924
H426	H	1.239747	0.229822	0.111076
H427	H	0.702952	-0.306931	-0.388895
H428	H	1.202952	0.193069	0.111105
C429	C	0.709601	-0.953038	-0.276904
C430	C	1.209601	-0.453038	0.223096
H431	H	0.726704	-0.973705	-0.294036
H432	H	1.226704	-0.473705	0.205964
H433	H	0.729181	-0.934724	-0.259743
H434	H	1.229181	-0.434724	0.240257
H435	H	0.692394	-0.934744	-0.296461
H436	H	1.192394	-0.434744	0.203539
C437	C	0.588967	-0.156071	-0.381209
C438	C	1.088967	0.343929	0.118791
H439	H	0.571866	-0.138963	-0.401900
H440	H	1.071866	0.361037	0.098100
H441	H	0.606161	-0.136497	-0.362921
H442	H	1.106161	0.363503	0.137079
H443	H	0.569379	-0.173263	-0.362892
H444	H	1.069379	0.326737	0.137108
C445	C	0.709627	-1.051565	-0.276913
C446	C	1.209627	-0.551565	0.223087
H447	H	0.705517	-1.082873	-0.272798
H448	H	1.205517	-0.582873	0.227202
H449	H	0.739815	-1.043855	-0.270373
H450	H	1.239815	-0.543855	0.229627
H451	H	0.703029	-1.043864	-0.307092
H452	H	1.203029	-0.543864	0.192908
C453	C	0.588965	-0.156053	-0.479722
C454	C	1.088965	0.343947	0.020278
H455	H	0.571873	-0.138944	-0.459024
H456	H	1.071873	0.361056	0.040976
H457	H	0.569376	-0.173230	-0.498009
H458	H	1.069376	0.326770	0.001991
H459	H	0.606166	-0.136473	-0.498039
H460	H	1.106166	0.363527	0.001961
C461	C	0.269178	-0.127481	-0.305681
C462	C	0.769178	0.372519	0.194319
H463	H	0.248503	-0.110394	-0.322821
H464	H	0.748503	0.389606	0.177179
H465	H	0.287483	-0.144687	-0.325225
H466	H	0.787483	0.355313	0.174775
H467	H	0.287480	-0.107879	-0.288529
H468	H	0.787480	0.392121	0.211471
C469	C	0.560239	-0.127289	-0.737790
C470	C	1.060239	0.372711	-0.237790
H471	H	0.543139	-0.110182	-0.758484
H472	H	1.043139	0.389818	-0.258484
H473	H	0.577432	-0.107714	-0.719502
H474	H	1.077432	0.392286	-0.219502
H475	H	0.540650	-0.144480	-0.719473
H476	H	1.040650	0.355520	-0.219473
H477	H	0.730060	-0.297229	-0.603756
H478	H	1.230060	0.202771	-0.103756
C479	C	0.170668	-0.127487	-0.305694
C480	C	0.670668	0.372513	0.194306
H481	H	0.191386	-0.110407	-0.322837
H482	H	0.691386	0.389593	0.177163
H483	H	0.152365	-0.107884	-0.288555
H484	H	0.652365	0.392116	0.211445
H485	H	0.152370	-0.144705	-0.325239
H486	H	0.652370	0.355295	0.174761
H487	H	0.597071	-0.472644	-0.164244
H488	H	1.097071	0.027356	0.335756
C489	C	0.588841	-0.380832	-0.156018
C490	C	1.088841	0.119168	0.343982
H491	H	0.592946	-0.349524	-0.160137
H492	H	1.092946	0.150476	0.339863
H493	H	0.595427	-0.388532	-0.125839
H494	H	1.095427	0.111468	0.374161
H495	H	0.558654	-0.388543	-0.162571
H496	H	1.058654	0.111457	0.337429
C497	C	0.560246	-0.127317	-0.597034
C498	C	1.060246	0.372683	-0.097034
H499	H	0.543145	-0.110208	-0.617725
H500	H	1.043145	0.389792	-0.117725
H501	H	0.577437	-0.107743	-0.578743
H502	H	1.077437	0.392257	-0.078743
H503	H	0.540658	-0.144512	-0.578720
H504	H	1.040658	0.355488	-0.078720
H505	H	0.568441	-0.829248	-0.135554
H506	H	1.068441	-0.329248	0.364446
C507	C	0.738281	-0.835690	-0.305644
C508	C	1.238281	-0.335690	0.194356
H509	H	0.734170	-0.866998	-0.301530
H510	H	1.234170	-0.366998	0.198470
H511	H	0.768469	-0.827982	-0.299101
H512	H	1.268469	-0.327982	0.200899
H513	H	0.731686	-0.827988	-0.335823
H514	H	1.231686	-0.327988	0.164177
C515	C	-0.087429	-0.156177	-0.276924
C516	C	0.412571	0.343823	0.223076
H517	H	-0.108102	-0.139092	-0.294066
H518	H	0.391898	0.360908	0.205934
H519	H	-0.069123	-0.173387	-0.296464
H520	H	0.430877	0.326613	0.203536
H521	H	-0.069127	-0.136573	-0.259773
H522	H	0.430873	0.363427	0.240227
C523	C	-0.185956	-0.156178	-0.276925
C524	C	0.314044	0.343822	0.223075
H525	H	-0.217262	-0.160289	-0.272800
H526	H	0.282738	0.339711	0.227200
H527	H	-0.178256	-0.162790	-0.307099
H528	H	0.321744	0.337210	0.192901
H529	H	-0.178253	-0.125983	-0.270402
H530	H	0.321747	0.374017	0.229598
H531	H	0.568454	-0.135506	-0.688843
H532	H	1.068454	0.364494	-0.188843
H533	H	-0.094275	-0.268479	-0.164235
H534	H	0.405725	0.231521	0.335765
C535	C	-0.186098	-0.276681	-0.156026
C536	C	0.313902	0.223319	0.343974
H537	H	-0.217396	-0.272580	-0.160151
H538	H	0.282604	0.227420	0.339849
H539	H	-0.178421	-0.270064	-0.125853
H540	H	0.321579	0.229936	0.374147
H541	H	-0.178421	-0.306876	-0.162546
H542	H	0.321579	0.193124	0.337454
H543	H	0.177167	-0.297158	-0.135421
H544	H	0.677167	0.202842	0.364579
