data_functionalizedCrystal
_audit_creation_method	'MofGen! by Chris Wilmer'
_symmetry_space_group_name_H-M	'P1'
_symmetry_Int_Tables_number	1
_symmetry_cell_setting	triclinic
loop_
_symmetry_equiv_pos_as_xyz
  x,y,z
_cell_length_a	11.792241
_cell_length_b	15.995350
_cell_length_c	10.268362
_cell_angle_alpha	89.996947
_cell_angle_beta	89.999626
_cell_angle_gamma	83.842895
loop_
_atom_site_label
_atom_site_type_symbol
_atom_site_fract_x
_atom_site_fract_y
_atom_site_fract_z
O1	O	1.505952	0.114763	-0.108167
O2	O	1.175512	0.126591	-0.108197
O3	O	1.349764	-0.001170	-0.108180
O4	O	1.331699	0.242524	-0.108184
O5	O	1.349749	-0.001175	0.108421
O6	O	1.175497	0.126586	0.108404
O7	O	1.505936	0.114758	0.108434
Cu8	Cu	1.340715	0.120671	0.128196
Cu9	Cu	1.340733	0.120678	-0.127959
O10	O	1.331684	0.242518	0.108417
C11	C	1.133220	0.125845	0.000100
C12	C	1.007224	0.123621	0.000088
C13	C	0.776546	0.119532	0.000126
C14	C	0.904913	0.121804	0.000105
C15	C	1.349010	-0.032370	0.000118
C16	C	1.346771	-0.125331	0.000111
C17	C	1.338730	-0.463115	0.000114
C18	C	1.214630	-0.416244	-0.000383
C19	C	1.216870	-0.319544	0.000106
C20	C	1.342718	-0.295536	0.000112
C21	C	1.403920	-0.336339	0.123804
C22	C	1.400803	-0.432989	0.123908
C23	C	1.403383	-0.433329	-0.122408
C24	C	1.403354	-0.336384	-0.124042
C25	C	1.344979	-0.200829	0.000115
C26	C	1.336473	-0.557823	0.000120
C27	C	1.548229	0.115504	0.000134
C28	C	1.674224	0.117727	0.000137
C29	C	1.332438	0.273719	0.000116
C30	C	1.334677	0.366680	0.000115
N31	N	1.340711	0.120666	0.308362
N32	N	1.340746	0.120676	-0.308125
C33	C	1.340727	0.120676	0.574033
C34	C	1.340715	0.120673	0.426195
H35	H	1.168761	-0.291338	-0.088562
H36	H	1.362816	-0.454051	-0.216159
H37	H	1.358608	-0.309336	-0.215547
H38	H	1.496377	-0.321794	0.128409
O39	O	1.155285	-0.438632	-0.106058
C40	C	1.057955	-0.475330	-0.064560
H41	H	1.034350	-0.453167	0.038391
H42	H	1.076976	-0.546729	-0.065341
C43	C	0.986821	-0.476128	-0.283692
C44	C	0.957823	-0.448902	-0.157250
H45	H	0.925056	-0.459830	-0.340869
H46	H	1.052396	-0.451407	-0.311651
H47	H	1.002673	-0.535626	-0.284324
H48	H	0.941986	-0.389405	-0.156616
H49	H	0.892243	-0.473612	-0.129292
H50	H	1.494881	-0.464675	-0.123234
H51	H	1.165243	-0.436065	0.087817
O52	O	1.159082	-0.286418	0.105964
C53	C	1.160911	-0.198428	0.106842
H54	H	1.176007	-0.175606	0.003744
H55	H	1.232469	-0.181390	0.173181
C56	C	1.027314	-0.184184	0.284083
C57	C	1.045845	-0.156154	0.157455
H58	H	0.956338	-0.158107	0.315309
H59	H	1.026084	-0.243465	0.283496
H60	H	1.086953	-0.169984	0.339350
H61	H	0.986214	-0.170363	0.102188
H62	H	1.047062	-0.096874	0.158034
H63	H	1.356161	-0.451495	0.216366
H64	H	1.495129	-0.320605	-0.131506
O65	O	1.509424	-0.471109	0.130576
C66	C	1.507636	-0.559104	0.130778
H67	H	1.424865	-0.575455	0.084717
H68	H	1.513331	-0.583290	0.235265
C69	C	1.711463	-0.580386	0.108644
C70	C	1.609806	-0.600468	0.052062
H71	H	1.774488	-0.605902	0.060094
H72	H	1.712668	-0.521101	0.108513
H73	H	1.716192	-0.600541	0.195715
H74	H	1.605071	-0.580304	-0.035001
H75	H	1.608602	-0.659750	0.052176
O76	O	1.353031	-0.302803	0.233580
C77	C	1.237524	-0.318186	0.234987
H78	H	1.225932	-0.374845	0.170913
H79	H	1.182401	-0.260659	0.196179
C80	C	1.215708	-0.266571	0.454198
C81	C	1.201473	-0.336166	0.375510
H82	H	1.193467	-0.277658	0.540879
H83	H	1.293526	-0.256204	0.453250
H84	H	1.169771	-0.218638	0.421843
H85	H	1.247420	-0.384094	0.407856
H86	H	1.123661	-0.346541	0.376467
