data_functionalizedCrystal
_audit_creation_method	'MofGen! by Chris Wilmer'
_symmetry_space_group_name_H-M	'P1'
_symmetry_Int_Tables_number	1
_symmetry_cell_setting	triclinic
loop_
_symmetry_equiv_pos_as_xyz
  x,y,z
_cell_length_a	12.759401
_cell_length_b	13.897447
_cell_length_c	12.759393
_cell_angle_alpha	89.967926
_cell_angle_beta	89.980623
_cell_angle_gamma	90.021237
loop_
_atom_site_label
_atom_site_type_symbol
_atom_site_fract_x
_atom_site_fract_y
_atom_site_fract_z
Zn1	Zn	1.606220	-0.383914	-0.594002
Zn2	Zn	1.606100	-0.545244	-0.418321
Zn3	Zn	1.430522	-0.383969	-0.418339
Zn4	Zn	1.430496	-0.545174	-0.593960
O5	O	1.518334	-0.464575	-0.506155
O6	O	1.753225	-0.405321	-0.570708
O7	O	1.582769	-0.523902	-0.271302
O8	O	1.453890	-0.248980	-0.441667
O9	O	1.753137	-0.523849	-0.441636
O10	O	1.582975	-0.248940	-0.570726
O11	O	1.453773	-0.405415	-0.271316
O12	O	1.283498	-0.405347	-0.441625
O13	O	1.453846	-0.523730	-0.740986
O14	O	1.283478	-0.523783	-0.570653
O15	O	1.582949	-0.405253	-0.741018
O16	O	1.582744	-0.680216	-0.441594
O17	O	1.453729	-0.680165	-0.570635
C18	C	1.245367	-0.464564	-0.506137
C19	C	1.128590	-0.464583	-0.506154
C20	C	0.964055	-0.402973	-0.573478
C21	C	1.073780	-0.402970	-0.573466
C22	C	1.073672	-0.526209	-0.438856
C23	C	0.963950	-0.526215	-0.438874
C24	C	0.964119	-0.331819	-0.651191
C25	C	1.073843	-0.331816	-0.651179
C26	C	1.518249	-0.715189	-0.506131
C27	C	1.518309	-0.822403	-0.506156
C28	C	1.518359	-0.909473	-0.506180
C29	C	1.518433	-1.018705	-0.506207
C30	C	1.792368	-0.464587	-0.506175
C31	C	1.909144	-0.464592	-0.506183
C32	C	1.518408	-0.464478	-0.780189
C33	C	1.518439	-0.464436	-0.896966
C34	C	1.518449	-0.212982	-0.506203
C35	C	1.518498	-0.105768	-0.506223
C36	C	1.585673	-0.402740	-0.951846
C37	C	1.585698	-0.402705	-1.061570
C38	C	1.451253	-0.526072	-1.061524
C39	C	1.451223	-0.526101	-0.951802
C40	C	1.663297	-0.331518	-0.951873
C41	C	1.663322	-0.331483	-1.061597
C42	C	1.518322	-0.464602	-0.233188
C43	C	1.518494	-0.464372	-0.116412
H44	H	1.118307	-0.576382	-0.384057
H45	H	0.930095	-0.260826	-0.622184
N46	N	1.378761	-0.592588	-1.120659
H47	H	1.303699	-0.577603	-1.101554
H48	H	1.389060	-0.583183	-1.198478
N49	N	1.771097	-0.357999	-1.101042
H50	H	1.766406	-0.418255	-1.145011
H51	H	1.799865	-0.303595	-1.144992
H52	H	0.934376	-0.351912	-0.732529
N53	N	1.118971	-0.367368	-0.753488
H54	H	1.060073	-0.384545	-0.802932
H55	H	1.163584	-0.315168	-0.785852
H56	H	0.919245	-0.576400	-0.384085
N57	N	1.113321	-0.232832	-0.622493
H58	H	1.051796	-0.188663	-0.609692
H59	H	1.157295	-0.237130	-0.556858
N60	N	1.378668	-0.592607	-0.892608
H61	H	1.336086	-0.631658	-0.943998
H62	H	1.421365	-0.637275	-0.847056
N63	N	1.634484	-0.232571	-0.912445
H64	H	1.621638	-0.188395	-0.973992
H65	H	1.568849	-0.236937	-0.868432
N66	N	1.765547	-0.367219	-0.906777
H67	H	1.814988	-0.384411	-0.965690
H68	H	1.797996	-0.315146	-0.862132
H69	H	1.634215	-0.260505	-1.095645
