data_functionalizedCrystal
_audit_creation_method	'MofGen! by Chris Wilmer'
_symmetry_space_group_name_H-M	'P1'
_symmetry_Int_Tables_number	1
_symmetry_cell_setting	triclinic
loop_
_symmetry_equiv_pos_as_xyz
  x,y,z
_cell_length_a	14.908520
_cell_length_b	19.077267
_cell_length_c	19.076919
_cell_angle_alpha	85.333063
_cell_angle_beta	95.429006
_cell_angle_gamma	89.109236
loop_
_atom_site_label
_atom_site_type_symbol
_atom_site_fract_x
_atom_site_fract_y
_atom_site_fract_z
Zn1	Zn	-0.432178	-1.041395	-0.375572
Zn2	Zn	0.067822	-0.541395	0.124428
Zn3	Zn	-0.577214	-1.039251	-0.264491
Zn4	Zn	-0.077214	-0.539251	0.235509
Zn5	Zn	-0.420548	-0.928797	-0.261890
Zn6	Zn	0.079452	-0.428797	0.238110
Zn7	Zn	-0.577162	-0.916684	-0.387067
Zn8	Zn	-0.077162	-0.416684	0.112933
O9	O	-0.501775	-0.981532	-0.322255
O10	O	-0.001775	-0.481532	0.177745
O11	O	-0.456306	-1.139527	-0.357115
O12	O	0.043694	-0.639527	0.142885
O13	O	-0.551586	-1.028771	-0.165271
O14	O	-0.051586	-0.528771	0.334729
O15	O	-0.295849	-0.949700	-0.271071
O16	O	0.204151	-0.449700	0.228929
O17	O	-0.562863	-1.137952	-0.275504
O18	O	-0.062863	-0.637952	0.224496
O19	O	-0.304394	-1.032425	-0.354593
O20	O	0.195606	-0.532425	0.145407
O21	O	-0.436484	-0.947621	-0.163360
O22	O	0.063516	-0.447621	0.336640
O23	O	-0.436434	-0.828773	-0.282217
O24	O	0.063566	-0.328773	0.217783
O25	O	-0.562776	-0.929055	-0.484417
O26	O	-0.062776	-0.429055	0.015583
O27	O	-0.551498	-0.819874	-0.374184
O28	O	-0.051498	-0.319874	0.125816
O29	O	-0.456257	-1.020680	-0.475971
O30	O	0.043743	-0.520680	0.024029
O31	O	-0.703448	-1.017026	-0.286650
O32	O	-0.203448	-0.517026	0.213350
O33	O	-0.703411	-0.926976	-0.376706
O34	O	-0.203411	-0.426976	0.123294
C35	C	-0.492699	-0.798805	-0.329166
C36	C	0.007301	-0.298805	0.170834
C37	C	-0.488839	-0.720632	-0.332140
C38	C	0.011161	-0.220632	0.167860
C39	C	-0.542406	-0.683091	-0.290976
C40	C	-0.042406	-0.183091	0.209024
C41	C	-0.538780	-0.609639	-0.293780
C42	C	-0.038780	-0.109639	0.206220
C43	C	-0.481580	-0.573730	-0.337745
C44	C	0.018420	-0.073730	0.162255
C45	C	-0.428011	-0.611276	-0.378914
C46	C	0.071989	-0.111276	0.121086
C47	C	-0.431643	-0.684727	-0.376114
C48	C	0.068357	-0.184727	0.123886
C49	C	-0.464784	-0.354144	-0.350689
C50	C	0.035216	0.145856	0.149311
C51	C	-0.461154	-0.280688	-0.353485
C52	C	0.038846	0.219312	0.146515
C53	C	-0.571925	-0.279055	-0.268351
C54	C	-0.071925	0.220945	0.231649
C55	C	-0.575548	-0.352508	-0.265551
C56	C	-0.075548	0.147492	0.234449
C57	C	-0.521982	-0.390048	-0.306723
C58	C	-0.021982	0.109952	0.193277
N59	N	-0.477870	-0.498650	-0.340610
N60	N	0.022130	0.001350	0.159390
N61	N	-0.525697	-0.465126	-0.303861
N62	N	-0.025697	0.034874	0.196139
C63	C	-0.736164	-0.970472	-0.333222
C64	C	-0.236164	-0.470472	0.166778
C65	C	-0.836441	-0.965805	-0.337935
C66	C	-0.336441	-0.465805	0.162065
C67	C	-1.024858	-1.050891	-0.253086
C68	C	-0.524858	-0.550891	0.246914
C69	C	-1.119077	-1.046507	-0.257511
C70	C	-0.619077	-0.546507	0.242489
C71	C	-1.119100	-0.952658	-0.351216
C72	C	-0.619100	-0.452658	0.148784
C73	C	-1.024881	-0.957042	-0.346790
C74	C	-0.524881	-0.457042	0.153210
C75	C	-0.977763	-1.006159	-0.297722
C76	C	-0.477763	-0.506159	0.202278
C77	C	-0.883542	-1.010538	-0.293293
C78	C	-0.383542	-0.510538	0.206707
C79	C	-0.883567	-0.916693	-0.387001
C80	C	-0.383567	-0.416693	0.112999
C81	C	-0.977786	-0.912310	-0.391427
C82	C	-0.477786	-0.412310	0.108573
C83	C	-0.266473	-0.992653	-0.311260
C84	C	0.233527	-0.492653	0.188740
C85	C	-0.166201	-0.997392	-0.306574
C86	C	0.333799	-0.497392	0.193426
C87	C	-0.510808	-0.973755	-0.506548
C88	C	-0.010808	-0.473755	-0.006548
C89	C	-0.514657	-0.970442	-0.585083
C90	C	-0.014657	-0.470442	-0.085083
C91	C	-0.510876	-0.164973	-0.315307
C92	C	-0.010876	0.335027	0.184693
C93	C	-0.514722	-0.243147	-0.312320
C94	C	-0.014722	0.256853	0.187680
C95	C	-0.461009	-1.016586	-0.617583
C96	C	0.038991	-0.516586	-0.117583
C97	C	-0.464622	-1.013464	-0.691375
C98	C	0.035378	-0.513464	-0.191375
C99	C	-0.521888	-0.964200	-0.732665
C100	C	-0.021888	-0.464200	-0.232665
C101	C	-0.575538	-0.918051	-0.700160
C102	C	-0.075538	-0.418051	-0.200160
C103	C	-0.571920	-0.921170	-0.626369
C104	C	-0.071920	-0.421170	-0.126369
C105	C	-0.538651	-0.949753	-0.953827
C106	C	-0.038651	-0.449753	-0.453827
C107	C	-0.542267	-0.946639	-1.027623
C108	C	-0.042267	-0.446639	-0.527623
C109	C	-0.431349	-1.042051	-1.018832
C110	C	0.068651	-0.542051	-0.518832
C111	C	-0.427740	-1.045169	-0.945041
C112	C	0.072260	-0.545169	-0.445041
C113	C	-0.481386	-0.999017	-0.912542
C114	C	0.018614	-0.499017	-0.412542
N115	N	-0.525584	-0.961009	-0.808092
N116	N	-0.025584	-0.461009	-0.308092
N117	N	-0.477685	-1.002205	-0.837116
N118	N	0.022315	-0.502205	-0.337116
C119	C	-0.492715	-0.989321	-0.138674
C120	C	0.007285	-0.489321	0.361326
C121	C	-0.488619	-0.992783	-0.060123
C122	C	0.011381	-0.492783	0.439877
H123	H	-0.421168	-0.384700	-0.384215
H124	H	0.078832	0.115300	0.115785
Cl125	Cl	-0.639265	-0.231858	-0.216598
Cl126	Cl	-0.139265	0.268142	0.283402
Cl127	Cl	-0.389236	-0.235547	-0.408756
Cl128	Cl	0.110764	0.264453	0.091244
H129	H	-1.157480	-0.912674	-0.391168
H130	H	-0.657480	-0.412674	0.108832
H131	H	-0.582347	-0.912183	-0.927376
H132	H	-0.082347	-0.412183	-0.427376
Cl133	Cl	-0.356109	-0.566133	-0.434191
Cl134	Cl	0.143891	-0.066133	0.065809
H135	H	-0.615596	-0.883588	-0.599909
H136	H	-0.115596	-0.383588	-0.099909
H137	H	-0.622162	-0.877937	-0.733785
H138	H	-0.122162	-0.377937	-0.233785
Cl139	Cl	-0.824309	-1.072282	-0.231607
Cl140	Cl	-0.324309	-0.572282	0.268393
H141	H	-0.381110	-1.085287	-0.911427
H142	H	0.118890	-0.585287	-0.411427
Cl143	Cl	-0.364300	-0.731922	-0.427868
Cl144	Cl	0.135700	-0.231922	0.072132
H145	H	-0.986494	-1.090879	-0.213128
H146	H	-0.486494	-0.590879	0.286872
Cl147	Cl	-0.614316	-0.728226	-0.235700
Cl148	Cl	-0.114316	-0.228226	0.264300
Cl149	Cl	-0.363909	-1.100065	-1.059692
Cl150	Cl	0.136091	-0.600065	-0.559692
H151	H	-1.157418	-1.082934	-0.221165
H152	H	-0.657418	-0.582934	0.278835
H153	H	-0.582400	-0.579076	-0.260259
H154	H	-0.082400	-0.079076	0.239741
H155	H	-0.622125	-0.381740	-0.229749
H156	H	-0.122125	0.118260	0.270251
Cl157	Cl	-1.037029	-0.850568	-0.453110
Cl158	Cl	-0.537029	-0.350568	0.046890
H159	H	-0.845212	-0.880267	-0.423345
H160	H	-0.345212	-0.380267	0.076655
Cl161	Cl	-0.389018	-1.078525	-0.565682
Cl162	Cl	0.110982	-0.578525	-0.065682
H163	H	-0.420938	-1.051042	-0.717833
H164	H	0.079062	-0.551042	-0.217833
Cl165	Cl	-0.614259	-0.884699	-1.079530
Cl166	Cl	-0.114259	-0.384699	-0.579530
