data_functionalizedCrystal
_audit_creation_method	'MofGen! by Chris Wilmer'
_symmetry_space_group_name_H-M	'P1'
_symmetry_Int_Tables_number	1
_symmetry_cell_setting	triclinic
loop_
_symmetry_equiv_pos_as_xyz
  x,y,z
_cell_length_a	19.188930
_cell_length_b	17.666332
_cell_length_c	12.837942
_cell_angle_alpha	90.004116
_cell_angle_beta	88.986860
_cell_angle_gamma	90.023133
loop_
_atom_site_label
_atom_site_type_symbol
_atom_site_fract_x
_atom_site_fract_y
_atom_site_fract_z
O1	O	0.935024	0.063194	0.129378
O2	O	1.435024	0.563194	0.629378
O3	O	0.732907	0.063142	0.146795
O4	O	1.232907	0.563142	0.646795
O5	O	0.829484	0.063162	-0.012796
O6	O	1.329484	0.563162	0.487204
O7	O	0.838447	0.063174	0.288969
O8	O	1.338447	0.563174	0.788969
O9	O	0.829464	-0.062735	-0.012800
O10	O	1.329464	0.437265	0.487200
O11	O	0.732888	-0.062755	0.146790
O12	O	1.232888	0.437245	0.646790
O13	O	0.935004	-0.062703	0.129374
O14	O	1.435004	0.437297	0.629374
Cu15	Cu	0.833944	-0.074224	0.138082
Cu16	Cu	1.333944	0.425776	0.638082
Cu17	Cu	0.833967	0.074663	0.138087
Cu18	Cu	1.333967	0.574663	0.638087
O19	O	0.838428	-0.062723	0.288965
O20	O	1.338428	0.437277	0.788965
C21	C	0.706848	0.000187	0.146229
C22	C	1.206848	0.500187	0.646229
C23	C	0.629227	0.000167	0.144536
C24	C	1.129227	0.500167	0.644536
N25	N	0.833933	-0.178944	0.138077
N26	N	1.333933	0.321056	0.638077
C27	C	0.880443	-0.218533	0.200780
C28	C	1.380443	0.281467	0.700780
C29	C	0.880454	-0.297781	0.200777
C30	C	1.380454	0.202219	0.700777
C31	C	0.833943	-0.337436	0.138083
C32	C	1.333943	0.162564	0.638083
C33	C	0.787430	-0.297837	0.075368
C34	C	1.287430	0.202163	0.575368
C35	C	0.787425	-0.218591	0.075365
C36	C	1.287425	0.281409	0.575365
N37	N	0.772620	-0.461891	0.135530
N38	N	1.272620	0.038109	0.635530
N39	N	0.772626	-0.537172	0.135539
N40	N	1.272626	-0.037172	0.635539
C41	C	0.833956	-0.576200	0.138087
C42	C	1.333956	-0.076200	0.638087
N43	N	0.895281	-0.537104	0.140646
N44	N	1.395281	-0.037104	0.640646
N45	N	0.895273	-0.461816	0.140643
N46	N	1.395273	0.038184	0.640643
C47	C	0.833944	-0.423365	0.138079
C48	C	1.333944	0.076635	0.638079
C49	C	0.880481	-0.701719	0.200790
C50	C	1.380481	-0.201719	0.700790
C51	C	0.880493	-0.780968	0.200779
C52	C	1.380493	-0.280968	0.700779
C53	C	0.787463	-0.781022	0.075376
C54	C	1.287463	-0.281022	0.575376
C55	C	0.787457	-0.701775	0.075380
C56	C	1.287457	-0.201775	0.575380
C57	C	0.833966	-0.662128	0.138093
C58	C	1.333966	-0.162128	0.638093
C59	C	0.590726	0.000183	0.238178
C60	C	1.090726	0.500183	0.738178
C61	C	0.517793	0.000191	0.236588
C62	C	1.017793	0.500191	0.736588
C63	C	0.483364	0.000199	0.141349
C64	C	0.983364	0.500199	0.641349
C65	C	0.521874	0.000179	0.047694
C66	C	1.021874	0.500179	0.547694
C67	C	0.594806	0.000163	0.049287
C68	C	1.094806	0.500163	0.549287
N69	N	0.370397	0.043075	0.068553
N70	N	0.870397	0.543075	0.568553
N71	N	0.301115	0.043091	0.067046
N72	N	0.801115	0.543091	0.567046
C73	C	0.263626	0.000245	0.136543
C74	C	0.763626	0.500245	0.636543
N75	N	0.298035	-0.042609	0.207620
N76	N	0.798035	0.457391	0.707620
N77	N	0.367323	-0.042623	0.209130
N78	N	0.867323	0.457377	0.709130
C79	C	0.404282	0.000215	0.139611
C80	C	0.904282	0.500215	0.639611
C81	C	0.146042	0.000268	0.228467
C82	C	0.646042	0.500268	0.728467
C83	C	0.073108	0.000272	0.226873
C84	C	0.573108	0.500272	0.726873
C85	C	0.077191	0.000268	0.037976
C86	C	0.577191	0.500268	0.537976
C87	C	0.150124	0.000256	0.039574
C88	C	0.650124	0.500256	0.539574
C89	C	0.184545	0.000260	0.134822
C90	C	0.684545	0.500260	0.634822
C91	C	0.961064	0.000254	0.129940
C92	C	1.461064	0.500254	0.629940
C93	C	1.038684	0.000279	0.131633
C94	C	1.538684	0.500279	0.631633
C95	C	0.826446	0.000213	-0.051405
C96	C	1.326446	0.500213	0.448595
C97	C	0.817415	0.000212	-0.166441
C98	C	1.317415	0.500212	0.333559
N99	N	0.833983	0.179383	0.138083
N100	N	1.333983	0.679383	0.638083
C101	C	0.925983	0.000256	-0.407892
C102	C	1.425983	0.500256	0.092108
C103	C	0.917501	0.000255	-0.515979
C104	C	1.417501	0.500255	-0.015979
C105	C	0.791969	0.000215	-0.490705
C106	C	1.291969	0.500215	0.009295
C107	C	0.800451	0.000216	-0.382618
C108	C	1.300451	0.500216	0.117382
C109	C	0.867460	0.000235	-0.341215
C110	C	1.367460	0.500235	0.158785
C111	C	0.875942	0.000231	-0.233126
C112	C	1.375942	0.500231	0.266874
C113	C	0.750411	0.000196	-0.207854
C114	C	1.250411	0.500196	0.292146
C115	C	0.741929	0.000195	-0.315942
C116	C	1.241929	0.500195	0.184058
C117	C	0.841465	0.000227	0.327574
C118	C	1.341465	0.500227	0.827574
C119	C	0.850496	0.000233	0.442610
C120	C	1.350496	0.500233	0.942610
H121	H	0.918316	-0.186257	0.251841
H122	H	1.418316	0.313743	0.751841
H123	H	0.965156	0.000274	-0.570264
H124	H	1.465156	0.500274	-0.070264
Cl125	Cl	1.010220	0.000261	-0.355838
Cl126	Cl	1.510220	0.500261	0.144162
H127	H	0.918352	-0.669436	0.251853
H128	H	1.418352	-0.169436	0.751853
H129	H	0.486439	0.000201	0.312845
H130	H	0.986439	0.500201	0.812845
H131	H	0.687372	0.000182	-0.349667
H132	H	1.187372	0.500182	0.150333
H133	H	0.493837	0.000196	-0.029850
H134	H	0.993837	0.500196	0.470150
Cl135	Cl	0.198528	0.000242	-0.078156
Cl136	Cl	0.698528	0.500242	0.421844
H137	H	0.174070	0.000260	0.306024
H138	H	0.674070	0.500260	0.806024
Cl139	Cl	0.960180	0.000250	-0.181078
Cl140	Cl	1.460180	0.500250	0.318922
H141	H	0.626153	0.000151	-0.026970
H142	H	1.126153	0.500151	0.473030
H143	H	0.737414	0.000207	-0.524435
H144	H	1.237414	0.500207	-0.024435
H145	H	0.749550	-0.186357	0.024303
H146	H	1.249550	0.313643	0.524303
H147	H	0.041761	0.000280	0.303131
H148	H	0.541761	0.500280	0.803131
Cl149	Cl	0.676836	0.000161	-0.124025
Cl150	Cl	1.176836	0.500161	0.375975
Cl151	Cl	0.728972	-0.652002	-0.003430
Cl152	Cl	1.228972	-0.152002	0.496570
Cl153	Cl	0.938928	-0.347561	0.279609
Cl154	Cl	1.438928	0.152439	0.779609
Cl155	Cl	0.938972	-0.830738	0.279608
Cl156	Cl	1.438972	-0.330738	0.779608
H157	H	0.749561	-0.330129	0.024321
H158	H	1.249561	0.169871	0.524321
Cl159	Cl	0.728999	-0.830867	-0.003453
Cl160	Cl	1.228999	-0.330867	0.496547
H161	H	0.618747	0.000187	0.315737
H162	H	1.118747	0.500187	0.815737
H163	H	0.049160	0.000321	-0.039569
H164	H	0.549160	0.500321	0.460431
