data_functionalizedCrystal
_audit_creation_method	'MofGen! by Chris Wilmer'
_symmetry_space_group_name_H-M	'P1'
_symmetry_Int_Tables_number	1
_symmetry_cell_setting	triclinic
loop_
_symmetry_equiv_pos_as_xyz
  x,y,z
_cell_length_a	17.000371
_cell_length_b	17.038272
_cell_length_c	14.421503
_cell_angle_alpha	90.004327
_cell_angle_beta	89.992560
_cell_angle_gamma	83.355402
loop_
_atom_site_label
_atom_site_type_symbol
_atom_site_fract_x
_atom_site_fract_y
_atom_site_fract_z
O1	O	1.058006	0.028031	-0.077116
O2	O	0.828185	0.056276	-0.077117
O3	O	0.941730	-0.071568	-0.077109
O4	O	0.944461	0.155876	-0.077124
O5	O	0.941711	-0.071549	0.077114
O6	O	0.828166	0.056295	0.077106
O7	O	1.057987	0.028051	0.077108
Cu8	Cu	0.943075	0.042175	0.091189
Cu9	Cu	0.943097	0.042152	-0.091198
O10	O	0.944442	0.155895	0.077100
C11	C	0.798625	0.057803	-0.000006
C12	C	0.710572	0.062314	-0.000006
C13	C	0.673845	-0.007108	0.000000
C14	C	0.591110	-0.002864	-0.000007
C15	C	0.545102	0.070802	-0.000013
C16	C	0.581834	0.140229	-0.000022
C17	C	0.664568	0.135985	-0.000022
C18	C	0.295066	0.087196	-0.000020
C19	C	0.212327	0.091434	-0.000018
C20	C	0.221608	-0.051659	-0.000004
C21	C	0.304344	-0.055897	0.000002
C22	C	0.341068	0.013530	-0.000012
C23	C	0.460533	0.075141	-0.000017
C24	C	0.425636	0.009190	-0.000015
C25	C	0.939235	-0.100516	0.000002
C26	C	0.931823	-0.186802	0.000002
C27	C	0.999881	-0.241577	0.000003
C28	C	0.992911	-0.322650	-0.000005
C29	C	0.917882	-0.348946	-0.000009
C30	C	0.849819	-0.294164	-0.000013
C31	C	0.856789	-0.213093	-0.000011
C32	C	0.893256	-0.593018	-0.000022
C33	C	0.886291	-0.674096	-0.000021
C34	C	1.029384	-0.702577	-0.000015
C35	C	1.036348	-0.621502	-0.000007
C36	C	0.968285	-0.566727	-0.000016
C37	C	0.910756	-0.431816	-0.000015
C38	C	0.975411	-0.483859	-0.000017
C39	C	1.087547	0.026524	-0.000006
C40	C	1.175600	0.022013	-0.000012
C41	C	0.946936	0.184843	-0.000014
C42	C	0.954349	0.271129	-0.000020
N43	N	0.943065	0.042190	0.219470
N44	N	0.943113	0.042130	-0.219480
C45	C	0.890550	0.101281	0.469120
C46	C	0.963161	0.111464	0.530922
C47	C	0.943083	0.042170	0.408631
C48	C	0.870492	0.032004	0.530923
C49	C	0.943094	0.042153	0.591353
C50	C	1.015732	0.052386	0.469073
C51	C	0.923014	-0.027102	0.469069
C52	C	0.995674	-0.016952	0.530843
C53	C	0.943075	0.042182	0.303370
C54	C	0.943109	0.042140	0.696612
H55	H	0.324957	0.143728	-0.000038
N56	N	1.051457	-0.079687	0.564643
N57	N	1.044190	-0.149659	0.543634
H58	H	1.083587	-0.193964	0.567510
H59	H	0.837834	-0.548429	-0.000029
H60	H	0.191698	-0.108182	-0.000004
N61	N	0.553612	-0.073788	0.000014
N62	N	0.565956	-0.122152	0.065032
H63	H	0.539476	-0.172247	0.065047
N64	N	0.534829	0.215471	-0.000043
N65	N	0.460960	0.219252	-0.000045
H66	H	0.427763	0.272393	-0.000059
N67	N	0.472615	-0.066063	-0.000014
N68	N	0.466491	-0.113508	-0.065014
H69	H	0.499675	-0.166657	-0.065011
H70	H	0.174868	0.151425	-0.000019
N71	N	0.901674	-0.100557	0.434967
N72	N	0.835671	-0.121624	0.454749
H73	H	0.820591	-0.173502	0.430665
N74	N	0.793474	0.021236	0.565011
N75	N	0.735402	0.070240	0.545238
H76	H	0.681006	0.062643	0.569312
N77	N	0.984453	0.184947	0.565012
N78	N	0.937557	0.227511	0.615728
H79	H	0.952589	0.279411	0.639801
N80	N	0.720826	-0.082363	0.000020
N81	N	0.688020	-0.144341	0.000026
H82	H	0.721198	-0.197493	0.000040
N83	N	0.351346	-0.131140	0.000015
N84	N	0.398537	-0.149461	0.065028
H85	H	0.431733	-0.202603	0.065043
H86	H	0.846176	0.151303	0.442019
H87	H	1.077143	0.061048	0.442018
N88	N	0.702073	0.206905	-0.000033
N89	N	0.660988	0.272674	-0.000039
H90	H	0.687474	0.322765	-0.000051
H91	H	0.423064	0.135120	-0.000021
H92	H	1.060978	-0.220174	0.000012
H93	H	1.048332	-0.367246	-0.000002
N94	N	1.112995	-0.594658	-0.000003
N95	N	1.173757	-0.643574	-0.000003
H96	H	1.227891	-0.624616	0.000002
N97	N	1.098913	-0.758517	-0.000005
N98	N	1.147588	-0.758991	0.065005
H99	H	1.196697	-0.798499	0.065011
H100	H	0.825190	-0.695502	-0.000009
N101	N	0.773184	-0.321035	-0.000028
N102	N	0.766968	-0.393421	-0.000030
H103	H	0.712843	-0.412399	-0.000039
H104	H	0.801369	-0.168494	-0.000012
N105	N	1.052043	-0.456988	-0.000002
N106	N	1.071873	-0.414917	0.065011
H107	H	1.125995	-0.395931	0.065026
H108	H	0.849667	-0.453235	-0.000016
