data_functionalizedCrystal
_audit_creation_method	'MofGen! by Chris Wilmer'
_symmetry_space_group_name_H-M	'P1'
_symmetry_Int_Tables_number	1
_symmetry_cell_setting	triclinic
loop_
_symmetry_equiv_pos_as_xyz
  x,y,z
_cell_length_a	12.759401
_cell_length_b	12.759400
_cell_length_c	12.759393
_cell_angle_alpha	90.030447
_cell_angle_beta	90.018496
_cell_angle_gamma	90.013326
loop_
_atom_site_label
_atom_site_type_symbol
_atom_site_fract_x
_atom_site_fract_y
_atom_site_fract_z
Zn1	Zn	1.606267	-0.418200	0.593990
Zn2	Zn	1.606166	-0.593919	0.418313
Zn3	Zn	1.430569	-0.418255	0.418329
Zn4	Zn	1.430562	-0.593838	0.593955
O5	O	1.518391	-0.506053	0.506147
O6	O	1.753274	-0.441520	0.570694
O7	O	1.582833	-0.570673	0.271294
O8	O	1.453920	-0.271226	0.441652
O9	O	1.753200	-0.570620	0.441625
O10	O	1.583005	-0.271186	0.570709
O11	O	1.453822	-0.441614	0.271306
O12	O	1.283547	-0.441535	0.441618
O13	O	1.453909	-0.570482	0.740980
O14	O	1.283542	-0.570536	0.570649
O15	O	1.582998	-0.441442	0.741006
O16	O	1.582826	-0.740929	0.441591
O17	O	1.453811	-0.740870	0.570634
C18	C	1.245423	-0.506033	0.506132
C19	C	1.128647	-0.506050	0.506151
C20	C	1.073810	-0.573328	0.573227
C21	C	0.964086	-0.573342	0.573238
C22	C	0.964045	-0.438796	0.439089
C23	C	1.073767	-0.438778	0.439084
C24	C	1.073832	-0.651010	0.650673
C25	C	0.964108	-0.651024	0.650685
C26	C	1.518336	-0.779020	0.506130
C27	C	1.518408	-0.895797	0.506158
C28	C	1.585589	-0.950558	0.573413
C29	C	1.585638	-1.060282	0.573439
C30	C	1.451322	-1.060474	0.438945
C31	C	1.451269	-0.950752	0.438926
C32	C	1.663138	-0.950448	0.651059
C33	C	1.663187	-1.060172	0.651084
C34	C	1.792424	-0.506073	0.506161
C35	C	1.909201	-0.506082	0.506168
C36	C	1.518464	-0.505947	0.780180
C37	C	1.518496	-0.505902	0.896957
C38	C	1.518475	-0.232019	0.506186
C39	C	1.518510	-0.115243	0.506203
C40	C	1.518378	-0.506083	0.233179
C41	C	1.518550	-0.505832	0.116403
C42	C	1.585722	-0.438704	0.951834
C43	C	1.585747	-0.438666	1.061558
C44	C	1.451316	-0.573033	1.061518
C45	C	1.451287	-0.573064	0.951796
C46	C	1.663337	-0.361131	0.951858
C47	C	1.663362	-0.361093	1.061582
H48	H	0.919349	-0.384025	0.384487
O49	O	1.109531	-0.625002	0.747706
C50	C	1.211186	-0.503943	0.851161
C51	C	1.170846	-0.533287	0.741216
H52	H	1.260748	-0.429777	0.845955
H53	H	1.260893	-0.570753	0.883503
H54	H	1.141707	-0.489539	0.905439
H55	H	1.240261	-0.547674	0.686859
H56	H	1.121106	-0.466461	0.708960
H57	H	1.641291	-0.920630	0.732406
H58	H	1.118412	-0.383987	0.384472
O59	O	1.755428	-0.909969	0.616384
C60	C	1.928852	-0.946305	0.551099
C61	C	1.824399	-0.992287	0.590372
H62	H	1.984636	-1.012836	0.530036
H63	H	1.965366	-0.895984	0.615314
H64	H	1.913850	-0.896039	0.478795
H65	H	1.839312	-1.042600	0.662656
H66	H	1.787918	-1.042548	0.526092
O67	O	1.760478	-0.387160	1.096941
C68	C	1.937437	-0.434555	1.051128
C69	C	1.827503	-0.405072	1.010943
H70	H	1.991662	-0.449024	0.981620
H71	H	1.932177	-0.508672	1.100711
H72	H	1.969874	-0.367717	1.100817
H73	H	1.795001	-0.471841	0.961210
H74	H	1.832829	-0.330923	0.961417
O75	O	1.760313	-1.095712	0.625345
C76	C	1.910279	-1.197276	0.678761
C77	C	1.800314	-1.157076	0.708057
H78	H	1.942644	-1.246915	0.745608
H79	H	1.964574	-1.127804	0.664299
H80	H	1.904994	-1.246930	0.604641
H81	H	1.805498	-1.107439	0.782191
H82	H	1.746062	-1.226594	0.722451
H83	H	0.934314	-0.732373	0.628754
O84	O	1.628412	-1.100565	0.743358
C85	C	1.562868	-1.064071	0.916669
C86	C	1.602257	-1.018184	0.812239
H87	H	1.541690	-0.997488	0.972379
H88	H	1.627063	-1.114252	0.953304
H89	H	1.490615	-1.114456	0.901600
H90	H	1.674491	-0.967752	0.827217
H91	H	1.537998	-0.968063	0.775636
O92	O	1.385934	-0.638423	0.898650
C93	C	1.252522	-0.771613	0.910194
C94	C	1.326507	-0.697670	0.970512
H95	H	1.204440	-0.819518	0.968268
H96	H	1.300654	-0.826649	0.858835
H97	H	1.197643	-0.723350	0.858813
H98	H	1.381401	-0.745848	1.021950
H99	H	1.278310	-0.642631	1.021804
H100	H	1.396556	-0.906166	0.384171
H101	H	1.641566	-0.279767	0.922100
H102	H	1.107848	-0.728262	0.621390
H103	H	1.396595	-0.627712	1.106182
H104	H	0.930109	-0.621980	0.728036
O105	O	1.755437	-0.396086	0.911196
C106	C	1.841122	-0.524945	0.802921
C107	C	1.736752	-0.485481	0.848920
H108	H	1.826049	-0.597212	0.752543
H109	H	1.896953	-0.546052	0.869411
H110	H	1.877629	-0.460726	0.752694
H111	H	1.700155	-0.549652	0.899134
H112	H	1.680994	-0.464342	0.782379
O113	O	1.386208	-1.114022	0.373670
C114	C	1.326709	-1.283139	0.314147
C115	C	1.400522	-1.222631	0.388108
H116	H	1.338239	-1.370959	0.325809
H117	H	1.345192	-1.261695	0.229417
H118	H	1.241986	-1.261545	0.332511
H119	H	1.485269	-1.244192	0.369838
H120	H	1.381948	-1.244079	0.472815
O121	O	1.628491	-0.268864	1.102079
C122	C	1.485643	-0.145930	1.113918
C123	C	1.525016	-0.250380	1.067968
H124	H	1.401972	-0.130964	1.086376
H125	H	1.538469	-0.079373	1.086322
H126	H	1.487322	-0.150165	1.203148
H127	H	1.523337	-0.246249	0.978737
H128	H	1.472181	-0.316895	1.095646
