data_functionalizedCrystal
_audit_creation_method	'MofGen! by Chris Wilmer'
_symmetry_space_group_name_H-M	'P1'
_symmetry_Int_Tables_number	1
_symmetry_cell_setting	triclinic
loop_
_symmetry_equiv_pos_as_xyz
  x,y,z
_cell_length_a	14.044220
_cell_length_b	16.109301
_cell_length_c	14.586319
_cell_angle_alpha	90.000846
_cell_angle_beta	89.998609
_cell_angle_gamma	91.674821
loop_
_atom_site_label
_atom_site_type_symbol
_atom_site_fract_x
_atom_site_fract_y
_atom_site_fract_z
O1	O	-1.257643	0.200436	-0.076125
O2	O	-0.981677	0.193203	-0.076149
O3	O	-1.127241	0.076352	-0.076141
O4	O	-1.112079	0.317286	-0.076133
O5	O	-1.127231	0.076350	0.076340
O6	O	-0.981666	0.193200	0.076332
O7	O	-1.257633	0.200433	0.076356
Cu8	Cu	-1.119649	0.196816	0.090266
Cu9	Cu	-1.119661	0.196820	-0.090060
O10	O	-1.112069	0.317284	0.076348
C11	C	-0.946358	0.190036	0.000088
C12	C	-0.841135	0.180592	0.000079
C13	C	-1.126622	0.045330	0.000096
C14	C	-1.124781	-0.047102	0.000086
C15	C	-1.292952	0.203600	0.000116
C16	C	-1.398175	0.213044	0.000120
C17	C	-0.648479	0.163326	0.000096
C18	C	-0.590825	0.230306	0.000102
C19	C	-0.483625	0.220699	0.000112
C20	C	-0.755690	0.172932	0.000086
C21	C	-1.112688	0.348306	0.000109
C22	C	-1.114529	0.440738	0.000112
N23	N	-1.119647	0.196814	0.217098
C24	C	-1.032436	0.656902	0.000092
C25	C	-1.034173	0.743752	0.000085
C26	C	-1.206881	0.736727	0.000104
C27	C	-1.205142	0.649879	0.000104
C28	C	-1.117917	0.609969	0.000103
C29	C	-1.121393	0.783667	0.000096
C30	C	-1.123278	0.877833	0.000088
C31	C	-1.116032	0.515797	0.000108
N32	N	-1.119670	0.196816	-0.216892
C33	C	-1.184125	0.145093	0.452108
C34	C	-1.184128	0.145092	0.548089
C35	C	-1.055186	0.248539	0.548092
C36	C	-1.055179	0.248536	0.452112
C37	C	-1.119654	0.196814	0.404123
C38	C	-1.119663	0.196816	0.596084
C39	C	-1.119666	0.196814	0.700151
C40	C	-1.119651	0.196815	0.300049
H41	H	-0.621976	0.294863	0.000100
Cl42	Cl	-0.926706	0.802750	0.000067
H43	H	-0.617330	0.098774	0.000099
H44	H	-1.236623	0.102977	0.413037
Cl45	Cl	-0.922782	0.606733	0.000085
Cl46	Cl	-0.974120	0.313557	0.391782
H47	H	-1.277897	0.769233	0.000114
Cl48	Cl	-1.312613	0.590873	0.000112
Cl49	Cl	-1.265178	0.080066	0.608411
H50	H	-1.002693	0.290650	0.587174
