data_functionalizedCrystal
_audit_creation_method	'MofGen! by Chris Wilmer'
_symmetry_space_group_name_H-M	'P1'
_symmetry_Int_Tables_number	1
_symmetry_cell_setting	triclinic
loop_
_symmetry_equiv_pos_as_xyz
  x,y,z
_cell_length_a	10.489716
_cell_length_b	14.853567
_cell_length_c	13.330367
_cell_angle_alpha	89.991237
_cell_angle_beta	90.006618
_cell_angle_gamma	84.082033
loop_
_atom_site_label
_atom_site_type_symbol
_atom_site_fract_x
_atom_site_fract_y
_atom_site_fract_z
O1	O	1.692652	0.127077	0.083406
O2	O	1.321318	0.139039	0.083409
O3	O	1.516904	0.001883	0.083411
O4	O	1.497066	0.264233	0.083405
O5	O	1.516874	0.001905	-0.083437
O6	O	1.321288	0.139061	-0.083438
O7	O	1.692622	0.127099	-0.083441
Cu8	Cu	1.506952	0.133082	-0.098674
Cu9	Cu	1.506988	0.133056	0.098642
O10	O	1.497036	0.264255	-0.083443
C11	C	1.515990	-0.031700	-0.000010
C12	C	1.513296	-0.131798	-0.000001
C13	C	1.273781	0.138151	-0.000014
C14	C	1.132180	0.135462	-0.000013
C15	C	1.385728	-0.545039	-0.000020
C16	C	1.618088	-0.565032	-0.000021
C17	C	1.620621	-0.470984	-0.000015
C18	C	1.505705	-0.413960	-0.000013
C19	C	1.388257	-0.450983	-0.000017
C20	C	1.738067	-0.433954	-0.000022
C21	C	1.740605	-0.339901	-0.000017
C22	C	1.625688	-0.282874	-0.000008
C23	C	1.508234	-0.319903	-0.000010
C24	C	1.393319	-0.262878	-0.000008
C25	C	1.275864	-0.299905	-0.000003
C26	C	1.273340	-0.393956	-0.000007
C27	C	1.628212	-0.188823	-0.000004
C28	C	1.395848	-0.168821	-0.000005
C29	C	1.033562	0.219570	-0.000012
C30	C	0.956700	0.175137	-0.082280
C31	C	0.956737	0.175095	0.082218
C32	C	1.057183	0.091064	-0.082348
C33	C	1.057225	0.091034	0.082224
C34	C	0.980413	0.046539	-0.000064
C35	C	1.740159	0.127986	-0.000016
C36	C	1.881760	0.130675	-0.000011
C37	C	1.497950	0.297837	-0.000020
C38	C	1.500643	0.397936	-0.000022
N39	N	1.506936	0.133100	-0.237456
C40	C	1.584457	0.188249	-0.710070
C41	C	1.429557	0.077827	-0.710055
C42	C	1.429538	0.077841	-0.605037
C43	C	1.506982	0.133058	-0.552530
C44	C	1.584444	0.188262	-0.605042
C45	C	1.352087	0.022631	-0.552517
C46	C	1.352067	0.022642	-0.447492
C47	C	1.429504	0.077865	-0.394984
C48	C	1.506968	0.133072	-0.447502
C49	C	1.584412	0.188290	-0.394995
C50	C	1.661870	0.243502	-0.447512
C51	C	1.661881	0.243485	-0.552533
C52	C	1.429493	0.077882	-0.289962
C53	C	1.584399	0.188303	-0.289967
N54	N	1.507013	0.133031	0.237424
H55	H	1.182300	-0.253463	-0.000008
H56	H	0.956804	-0.026676	-0.000110
O57	O	0.898632	0.222124	0.174342
H58	H	0.919482	0.293882	0.174160
H59	H	1.101131	0.055547	0.151779
H60	H	1.724946	0.288434	-0.595301
H61	H	1.723841	-0.158680	-0.000014
O62	O	1.065186	0.316472	-0.000114
H63	H	1.024736	0.351194	-0.068511
O64	O	0.898547	0.222171	-0.174410
H65	H	0.919370	0.293935	-0.174243
H66	H	1.177715	-0.424112	-0.000004
H67	H	1.366514	0.032865	-0.752812
H68	H	1.647518	0.233204	-0.752833
O69	O	1.346033	0.018307	-0.233291
H70	H	1.277553	0.061036	-0.185436
H71	H	1.290099	-0.575191	-0.000012
H72	H	1.100885	0.055588	-0.151968
H73	H	1.711647	-0.611467	-0.000031
H74	H	1.647457	0.233273	-0.247224
O75	O	1.745392	0.303063	-0.390878
H76	H	1.732359	0.293795	-0.309028
H77	H	1.836243	-0.309762	-0.000020
H78	H	1.289048	-0.022332	-0.595276
H79	H	1.288995	-0.022314	-0.404742
H80	H	1.302268	-0.122397	0.000001
H81	H	1.831625	-0.480390	-0.000033
