data_functionalizedCrystal
_audit_creation_method	'MofGen! by Chris Wilmer'
_symmetry_space_group_name_H-M	'P1'
_symmetry_Int_Tables_number	1
_symmetry_cell_setting	triclinic
loop_
_symmetry_equiv_pos_as_xyz
  x,y,z
_cell_length_a	8.634740
_cell_length_b	11.295483
_cell_length_c	8.559649
_cell_angle_alpha	86.481942
_cell_angle_beta	85.174486
_cell_angle_gamma	94.742736
loop_
_atom_site_label
_atom_site_type_symbol
_atom_site_fract_x
_atom_site_fract_y
_atom_site_fract_z
O1	O	1.996922	0.099010	0.502634
O2	O	1.553051	0.099014	0.459732
O3	O	1.814091	0.099010	0.254602
O4	O	1.735881	0.099013	0.707764
O5	O	1.791168	-0.099040	0.272586
O6	O	1.530127	-0.099037	0.477716
O7	O	1.973998	-0.099041	0.520619
Cu8	Cu	1.749969	-0.117122	0.500809
Cu9	Cu	1.777079	0.117095	0.479541
O10	O	1.712957	-0.099037	0.725749
C11	C	1.485290	-0.000011	0.459005
C12	C	1.317538	-0.000009	0.430026
N13	N	1.730913	-0.281858	0.515769
C14	C	1.933340	-0.531151	0.356792
C15	C	1.918949	-0.655814	0.368111
C16	C	1.687732	-0.655851	0.549714
C17	C	1.702123	-0.531188	0.538396
C18	C	1.824933	-0.468842	0.441934
C19	C	1.839330	-0.344176	0.430625
C20	C	1.608108	-0.344215	0.612220
C21	C	1.593716	-0.468879	0.623538
C22	C	2.041759	-0.000013	0.521345
C23	C	2.209511	-0.000007	0.550323
C24	C	1.808557	-0.000013	0.204976
C25	C	1.826200	-0.000006	0.030312
N26	N	1.796149	0.281831	0.464570
C27	C	1.718492	-0.000011	0.775374
C28	C	1.700850	-0.000010	0.950038
H29	H	1.245365	-0.000014	0.675492
H30	H	1.493723	-0.519655	0.702071
N31	N	1.540807	-0.000026	0.035987
H32	H	1.550464	-0.000025	0.152762
H33	H	1.490931	0.073388	-0.000393
H34	H	1.947022	-0.000017	-0.034592
N35	N	1.971787	-0.276926	0.326597
H36	H	2.038274	-0.335320	0.274375
H37	H	1.928001	-0.225210	0.243571
N38	N	2.065803	-0.463896	0.252777
H39	H	2.132303	-0.522287	0.200563
H40	H	2.022026	-0.412180	0.169746
N41	N	1.555300	-0.723110	0.653767
H42	H	1.488806	-0.664723	0.705998
H43	H	1.489493	-0.774846	0.588050
H44	H	1.281694	0.000021	0.304863
H45	H	2.007223	-0.706542	0.298778
H46	H	1.519839	-0.293469	0.681553
