data_functionalizedCrystal
_audit_creation_method	'MofGen! by Chris Wilmer'
_symmetry_space_group_name_H-M	'P1'
_symmetry_Int_Tables_number	1
_symmetry_cell_setting	triclinic
loop_
_symmetry_equiv_pos_as_xyz
  x,y,z
_cell_length_a	14.519731
_cell_length_b	14.044220
_cell_length_c	13.596369
_cell_angle_alpha	89.993157
_cell_angle_beta	89.994584
_cell_angle_gamma	88.438865
loop_
_atom_site_label
_atom_site_type_symbol
_atom_site_fract_x
_atom_site_fract_y
_atom_site_fract_z
O1	O	1.233888	0.124370	-0.081796
O2	O	1.733888	0.624370	0.418204
O3	O	0.966592	0.138983	-0.081798
O4	O	1.466592	0.638983	0.418202
O5	O	1.096228	-0.006315	-0.081788
O6	O	1.596228	0.493685	0.418212
O7	O	1.104252	0.269668	-0.081807
O8	O	1.604252	0.769668	0.418193
O9	O	1.096213	-0.006323	0.081795
O10	O	1.596213	0.493677	0.581795
O11	O	0.966578	0.138975	0.081785
O12	O	1.466578	0.638975	0.581785
O13	O	1.233873	0.124362	0.081787
O14	O	1.733873	0.624362	0.581787
Zn15	Zn	1.100223	0.131667	0.107758
Zn16	Zn	1.600223	0.631667	0.607758
Zn17	Zn	1.100242	0.131678	-0.107770
Zn18	Zn	1.600242	0.631678	0.392230
O19	O	1.104238	0.269660	0.081776
O20	O	1.604238	0.769660	0.581776
C21	C	0.932170	0.138295	-0.000007
C22	C	1.432170	0.638295	0.499993
C23	C	0.829625	0.136243	-0.000007
C24	C	1.329625	0.636243	0.499993
C25	C	0.746346	0.134575	-0.000011
C26	C	1.246346	0.634575	0.499989
C27	C	0.641869	0.132492	-0.000011
C28	C	1.141869	0.632492	0.499989
C29	C	0.558597	0.130839	-0.000011
C30	C	1.058597	0.630839	0.499989
C31	C	0.454113	0.128756	-0.000013
C32	C	0.954113	0.628756	0.499987
C33	C	1.092708	-0.041640	0.000004
C34	C	1.592708	0.458360	0.500004
C35	C	1.082231	-0.146884	0.000005
C36	C	1.582231	0.353116	0.500005
C37	C	1.063077	-0.339580	-0.000009
C38	C	1.563077	0.160420	0.499991
C39	C	1.137385	-0.397081	-0.000011
C40	C	1.637385	0.102919	0.499989
C41	C	1.126727	-0.504303	-0.000019
C42	C	1.626727	-0.004303	0.499981
C43	C	1.073733	-0.232347	-0.000001
C44	C	1.573733	0.267653	0.499999
C45	C	1.268295	0.125050	-0.000007
C46	C	1.768295	0.625050	0.499993
C47	C	1.370841	0.127102	-0.000013
C48	C	1.870841	0.627102	0.499987
C49	C	1.107757	0.304985	-0.000018
C50	C	1.607757	0.804985	0.499982
C51	C	1.118234	0.410229	-0.000026
C52	C	1.618234	0.910229	0.499974
N53	N	1.100217	0.131660	0.254850
N54	N	1.600217	0.631660	0.754850
N55	N	1.100256	0.131678	-0.254861
N56	N	1.600256	0.631678	0.245139
C57	C	1.100241	0.131679	0.656141
C58	C	1.600241	0.631679	1.156141
C59	C	1.100232	0.131677	0.544489
C60	C	1.600232	0.631677	1.044489
C61	C	1.100229	0.131670	0.455499
C62	C	1.600229	0.631670	0.955499
C63	C	1.100219	0.131667	0.343840
C64	C	1.600219	0.631667	0.843840
H65	H	1.209006	-0.365783	-0.000077
H66	H	1.709006	0.134217	0.499923
H67	H	0.991461	-0.370876	-0.000012
H68	H	1.491461	0.129124	0.499988
