data_functionalizedCrystal
_audit_creation_method	'MofGen! by Chris Wilmer'
_symmetry_space_group_name_H-M	'P1'
_symmetry_Int_Tables_number	1
_symmetry_cell_setting	triclinic
loop_
_symmetry_equiv_pos_as_xyz
  x,y,z
_cell_length_a	12.759401
_cell_length_b	18.215405
_cell_length_c	18.215399
_cell_angle_alpha	89.969449
_cell_angle_beta	89.982118
_cell_angle_gamma	90.026410
loop_
_atom_site_label
_atom_site_type_symbol
_atom_site_fract_x
_atom_site_fract_y
_atom_site_fract_z
Zn1	Zn	1.606160	-0.292962	-0.416064
Zn2	Zn	1.939494	0.040371	-0.082731
Zn3	Zn	2.272827	0.373705	0.250602
Zn4	Zn	1.606030	-0.416033	-0.292992
Zn5	Zn	1.939363	-0.082700	0.040341
Zn6	Zn	2.272696	0.250633	0.373674
Zn7	Zn	1.430468	-0.292988	-0.293016
Zn8	Zn	1.763802	0.040345	0.040318
Zn9	Zn	2.097135	0.373678	0.373651
Zn10	Zn	1.430420	-0.415995	-0.416021
Zn11	Zn	1.763753	-0.082661	-0.082688
Zn12	Zn	2.097086	0.250672	0.250645
O13	O	1.518269	-0.354494	-0.354524
O14	O	1.851603	-0.021161	-0.021190
O15	O	2.184936	0.312172	0.312143
O16	O	1.753164	-0.309293	-0.399747
O17	O	2.086497	0.024041	-0.066413
O18	O	2.419831	0.357374	0.266920
O19	O	1.582707	-0.399738	-0.190011
O20	O	1.916040	-0.066405	0.143322
O21	O	2.249373	0.266928	0.476655
O22	O	1.453849	-0.190001	-0.309366
O23	O	1.787183	0.143333	0.023967
O24	O	2.120516	0.476666	0.357300
O25	O	1.753068	-0.399713	-0.309326
O26	O	2.086401	-0.066379	0.024007
O27	O	2.419735	0.266954	0.357340
O28	O	1.582930	-0.189981	-0.399769
O29	O	1.916263	0.143352	-0.066436
O30	O	2.249596	0.476686	0.266897
O31	O	1.453723	-0.309338	-0.190028
O32	O	1.787056	0.023996	0.143305
O33	O	2.120389	0.357329	0.476638
O34	O	1.283441	-0.309300	-0.309325
O35	O	1.616774	0.024033	0.024009
O36	O	1.950108	0.357366	0.357342
O37	O	1.453766	-0.399647	-0.519011
O38	O	1.787100	-0.066313	-0.185678
O39	O	2.120433	0.267020	0.147655
O40	O	1.283405	-0.399672	-0.399696
O41	O	1.616738	-0.066339	-0.066363
O42	O	1.950072	0.266994	0.266970
O43	O	1.582882	-0.309255	-0.519043
O44	O	1.916216	0.024078	-0.185710
O45	O	2.249549	0.357411	0.147624
O46	O	1.582659	-0.519012	-0.309285
O47	O	1.915993	-0.185679	0.024049
O48	O	2.249326	0.147654	0.357382
O49	O	1.453640	-0.518984	-0.399674
O50	O	1.786973	-0.185651	-0.066340
O51	O	2.120306	0.147683	0.266993
C52	C	1.245302	-0.354485	-0.354509
C53	C	1.578635	-0.021152	-0.021176
C54	C	1.911969	0.312181	0.312158
C55	C	1.128525	-0.354499	-0.354520
C56	C	1.461859	-0.021166	-0.021187
C57	C	1.795192	0.312167	0.312147
C58	C	1.518159	-0.545701	-0.354488
C59	C	1.851492	-0.212367	-0.021155
C60	C	2.184825	0.120966	0.312179
C61	C	1.518207	-0.627500	-0.354498
C62	C	1.851541	-0.294166	-0.021164
C63	C	2.184874	0.039167	0.312169
C64	C	1.073672	-0.401628	-0.401503
C65	C	1.407006	-0.068294	-0.068169
C66	C	1.740339	0.265039	0.265164
C67	C	0.963948	-0.401631	-0.401517
C68	C	1.297282	-0.068297	-0.068184
C69	C	1.630615	0.265036	0.265149
C70	C	0.963940	-0.307375	-0.307560
C71	C	1.297273	0.025959	0.025773
C72	C	1.630607	0.359292	0.359106
C73	C	1.073662	-0.307369	-0.307550
C74	C	1.406996	0.025965	0.025783
C75	C	1.740329	0.359298	0.359117
C76	C	1.585546	-0.815684	-0.307519
C77	C	1.918879	-0.482351	0.025815
C78	C	2.252212	-0.149017	0.359148
C79	C	1.585593	-0.892543	-0.307536
C80	C	1.918926	-0.559209	0.025797
C81	C	2.252259	-0.225876	0.359130
C82	C	1.451128	-0.892553	-0.401581
C83	C	1.784461	-0.559220	-0.068248
C84	C	2.117795	-0.225886	0.265085
C85	C	1.451087	-0.815696	-0.401567
C86	C	1.784420	-0.482362	-0.068233
C87	C	2.117754	-0.149029	0.265100
C88	C	1.518294	-0.777263	-0.354531
C89	C	1.851628	-0.443930	-0.021198
C90	C	2.184961	-0.110596	0.312136
C91	C	1.518382	-0.930979	-0.354564
C92	C	1.851715	-0.597646	-0.021230
C93	C	2.185049	-0.264312	0.312103
C94	C	1.518433	-1.014313	-0.354583
C95	C	1.851766	-0.680979	-0.021250
C96	C	2.185099	-0.347646	0.312083
C97	C	1.518245	-0.693924	-0.354512
C98	C	1.851579	-0.360591	-0.021179
C99	C	2.184912	-0.027258	0.312154
C100	C	1.792303	-0.354504	-0.354539
C101	C	2.125636	-0.021171	-0.021205
C102	C	2.458969	0.312163	0.312128
C103	C	1.909079	-0.354508	-0.354545
C104	C	2.242413	-0.021175	-0.021212
C105	C	2.575746	0.312159	0.312122
C106	C	1.518333	-0.354444	-0.546477
C107	C	1.851667	-0.021110	-0.213143
C108	C	2.185000	0.312223	0.120190
C109	C	1.518361	-0.354422	-0.628275
C110	C	1.851694	-0.021089	-0.294942
C111	C	2.185027	0.312245	0.038391
C112	C	1.518409	-0.162542	-0.354575
C113	C	1.851743	0.170792	-0.021242
C114	C	2.185076	0.504125	0.312092
C115	C	1.518469	-0.080743	-0.354597
C116	C	1.851802	0.252591	-0.021264
C117	C	2.185136	0.585924	0.312070
C118	C	1.585616	-0.307311	-0.816487
C119	C	1.918949	0.026022	-0.483154
C120	C	2.252282	0.359355	-0.149820
C121	C	1.585628	-0.307290	-0.893346
C122	C	1.918961	0.026044	-0.560012
C123	C	2.252295	0.359377	-0.226679
C124	C	1.451180	-0.401419	-0.893302
C125	C	1.784514	-0.068086	-0.559968
C126	C	2.117847	0.265247	-0.226635
C127	C	1.451163	-0.401436	-0.816444
C128	C	1.784497	-0.068103	-0.483111
C129	C	2.117830	0.265230	-0.149778
C130	C	1.518387	-0.354383	-0.778039
C131	C	1.851720	-0.021050	-0.444706
C132	C	2.185054	0.312283	-0.111372
C133	C	1.518416	-0.354345	-0.931755
C134	C	1.851750	-0.021012	-0.598422
C135	C	2.185083	0.312322	-0.265089
C136	C	1.518430	-0.354322	-1.015089
C137	C	1.851763	-0.020989	-0.681756
C138	C	2.185096	0.312345	-0.348422
C139	C	1.518373	-0.354405	-0.694700
C140	C	1.851706	-0.021072	-0.361367
C141	C	2.185039	0.312261	-0.028033
C142	C	1.518266	-0.354492	-0.163317
C143	C	1.851600	-0.021159	0.170016
C144	C	2.184933	0.312175	0.503349
C145	C	1.518442	-0.354306	-0.081519
C146	C	1.851776	-0.020973	0.251815
C147	C	2.185109	0.312360	0.585148
H148	H	0.919292	-0.440006	-0.439776
H149	H	1.252625	-0.106673	-0.106443
H150	H	1.585958	0.226661	0.226891
H151	H	1.640371	-0.268958	-0.924647
H152	H	1.973704	0.064376	-0.591313
H153	H	2.307037	0.397709	-0.257980
H154	H	1.396409	-0.923854	-0.439875
H155	H	1.729742	-0.590521	-0.106541
H156	H	2.063075	-0.257187	0.226792
O157	O	0.910481	-0.261665	-0.261959
O158	O	1.243815	0.071669	0.071375
O159	O	1.577148	0.405002	0.404708
C160	C	0.801875	-0.271761	-0.272054
C161	C	1.135208	0.061572	0.061279
C162	C	1.468541	0.394906	0.394612
H163	H	0.786872	-0.328589	-0.296049
H164	H	1.120205	0.004744	0.037284
H165	H	1.453539	0.338077	0.370617
H166	H	0.760141	-0.266695	-0.216944
H167	H	1.093474	0.066638	0.116390
H168	H	1.426808	0.399972	0.449723
H169	H	0.770789	-0.228165	-0.311332
H170	H	1.104122	0.105169	0.022002
H171	H	1.437455	0.438502	0.355335
H172	H	1.396452	-0.439730	-0.924581
H173	H	1.729785	-0.106396	-0.591248
H174	H	2.063118	0.226937	-0.257914
O175	O	1.385656	-0.778483	-0.447261
O176	O	1.718989	-0.445149	-0.113927
O177	O	2.052322	-0.111816	0.219406
C178	C	1.326358	-0.828883	-0.488787
C179	C	1.659691	-0.495550	-0.155454
C180	C	1.993025	-0.162216	0.177879
H181	H	1.322769	-0.883694	-0.458653
H182	H	1.656103	-0.550361	-0.125320
H183	H	1.989436	-0.217028	0.208013
H184	H	1.243564	-0.806715	-0.496581
H185	H	1.576897	-0.473382	-0.163248
H186	H	1.910231	-0.140049	0.170086
H187	H	1.364788	-0.836995	-0.544706
H188	H	1.698122	-0.503661	-0.211373
H189	H	2.031455	-0.170328	0.121961
H190	H	1.640351	-0.268996	-0.785220
H191	H	1.973684	0.064338	-0.451886
H192	H	2.307017	0.397671	-0.118553
H193	H	1.396410	-0.439768	-0.785139
H194	H	1.729743	-0.106434	-0.451806
H195	H	2.063077	0.226899	-0.118473
H196	H	1.118325	-0.268986	-0.269291
H197	H	1.451658	0.064347	0.064042
H198	H	1.784991	0.397680	0.397375
O199	O	1.650804	-0.929968	-0.261871
O200	O	1.984137	-0.596634	0.071462
O201	O	2.317471	-0.263301	0.404796
C202	C	1.591106	-0.974515	-0.214296
C203	C	1.924440	-0.641182	0.119037
C204	C	2.257773	-0.307849	0.452371
H205	H	1.511441	-0.986038	-0.240167
H206	H	1.844774	-0.652705	0.093167
H207	H	2.178108	-0.319371	0.426500
H208	H	1.633949	-1.028551	-0.204535
H209	H	1.967282	-0.695218	0.128798
H210	H	2.300616	-0.361884	0.462132
H211	H	1.579657	-0.944981	-0.159717
H212	H	1.912990	-0.611648	0.173616
H213	H	2.246323	-0.278315	0.506949
H214	H	1.118339	-0.440003	-0.439750
H215	H	1.451672	-0.106669	-0.106417
H216	H	1.785006	0.226664	0.226916
H217	H	1.640271	-0.784394	-0.269221
H218	H	1.973605	-0.451061	0.064113
H219	H	2.306938	-0.117727	0.397446
