data_functionalizedCrystal
_audit_creation_method	'MofGen! by Chris Wilmer'
_symmetry_space_group_name_H-M	'P1'
_symmetry_Int_Tables_number	1
_symmetry_cell_setting	triclinic
loop_
_symmetry_equiv_pos_as_xyz
  x,y,z
_cell_length_a	19.805407
_cell_length_b	29.839131
_cell_length_c	19.805399
_cell_angle_alpha	89.969027
_cell_angle_beta	89.983114
_cell_angle_gamma	90.041420
loop_
_atom_site_label
_atom_site_type_symbol
_atom_site_fract_x
_atom_site_fract_y
_atom_site_fract_z
Zn1	Zn	1.034647	-0.178858	-0.382710
Zn2	Zn	1.034538	-0.253987	-0.269518
Zn3	Zn	0.921467	-0.178872	-0.269535
Zn4	Zn	0.921396	-0.253961	-0.382665
O5	O	0.978012	-0.216419	-0.326107
O6	O	1.129349	-0.188828	-0.367707
O7	O	1.019523	-0.244039	-0.174804
O8	O	0.936556	-0.116003	-0.284574
O9	O	1.129269	-0.244026	-0.284545
O10	O	1.019709	-0.115992	-0.367723
O11	O	0.936450	-0.188853	-0.174816
O12	O	0.826741	-0.188828	-0.284530
O13	O	0.936435	-0.243982	-0.477388
O14	O	0.826689	-0.243996	-0.367646
O15	O	1.019640	-0.188803	-0.477421
O16	O	1.019453	-0.316851	-0.284501
O17	O	0.936328	-0.316832	-0.367630
C18	C	0.802156	-0.216411	-0.326085
C19	C	0.726924	-0.216418	-0.326092
C20	C	0.691570	-0.245187	-0.369300
C21	C	0.620882	-0.245188	-0.369310
C22	C	0.585548	-0.216421	-0.326107
C23	C	0.620907	-0.187649	-0.282897
C24	C	0.691594	-0.187646	-0.282891
C25	C	0.335834	-0.187659	-0.282919
C26	C	0.265142	-0.187665	-0.282927
C27	C	0.265121	-0.245201	-0.369338
C28	C	0.335808	-0.245198	-0.369332
C29	C	0.371161	-0.216424	-0.326125
C30	C	0.447809	-0.216423	-0.326116
C31	C	0.508901	-0.216424	-0.326112
C32	C	0.977890	-0.333142	-0.326073
C33	C	0.977899	-0.383076	-0.326082
C34	C	1.021374	-0.692717	-0.282885
C35	C	1.021457	-0.880390	-0.282912
O36	O	1.058324	-0.904652	-0.246159
N37	N	0.978152	-0.903861	-0.326158
C38	C	0.934826	-0.880412	-0.369404
O39	O	0.898000	-0.904682	-0.406194
C40	C	0.934747	-0.692740	-0.369381
C41	C	0.978050	-0.669271	-0.326127
C42	C	1.064674	-0.669248	-0.239635
C43	C	1.064650	-0.622332	-0.239626
C44	C	1.021326	-0.598886	-0.282868
C45	C	0.978026	-0.622355	-0.326118
C46	C	0.891425	-0.669291	-0.412630
C47	C	0.891410	-0.622370	-0.412621
C48	C	0.934713	-0.598901	-0.369367
C49	C	0.934678	-0.551993	-0.369351
N50	N	0.977983	-0.528522	-0.326104
C51	C	1.021307	-0.551968	-0.282863
C52	C	0.934870	-0.978942	-0.369412
C53	C	0.934889	-1.025860	-0.369418
C54	C	1.021521	-1.025835	-0.282926
C55	C	1.021498	-0.978916	-0.282918
C56	C	0.978175	-0.955471	-0.326166
C57	C	1.021253	-0.453442	-0.282847
C58	C	1.021223	-0.406523	-0.282840
C59	C	0.934594	-0.406552	-0.369334
C60	C	0.934621	-0.453467	-0.369339
C61	C	0.977956	-0.476911	-0.326093
O62	O	0.897836	-0.527702	-0.406090
O63	O	1.058139	-0.527690	-0.246090
C64	C	1.021398	-0.739632	-0.282894
C65	C	0.978098	-0.763101	-0.326144
C66	C	0.934774	-0.739655	-0.369386
C67	C	0.978117	-0.810019	-0.326149
C68	C	1.021440	-0.833466	-0.282908
C69	C	1.064746	-0.809994	-0.239661
C70	C	1.064722	-0.763079	-0.239653
C71	C	0.891469	-0.763126	-0.412632
C72	C	0.891496	-0.810042	-0.412637
C73	C	0.934819	-0.833488	-0.369395
C74	C	1.154555	-0.216428	-0.326129
C75	C	1.229787	-0.216432	-0.326139
C76	C	0.978042	-0.216388	-0.502650
C77	C	0.978054	-0.216375	-0.577882
C78	C	0.978153	-0.099241	-0.326156
C79	C	0.978213	-0.049307	-0.326176
C80	C	0.934811	-0.187636	-0.613232
C81	C	0.934820	-0.187628	-0.683920
C82	C	0.978077	-0.216355	-0.719258
C83	C	1.021322	-0.245097	-0.683903
C84	C	1.021309	-0.245108	-0.613215
C85	C	1.021376	-0.245055	-0.968976
C86	C	1.021387	-0.245041	-1.039668
C87	C	0.934887	-0.187575	-1.039681
C88	C	0.934874	-0.187586	-0.968994
C89	C	0.978116	-0.216329	-0.933645
C90	C	0.978105	-0.216339	-0.856997
C91	C	0.978092	-0.216344	-0.795905
C92	C	0.978021	-0.216418	-0.150251
C93	C	0.978140	-0.216305	-0.075019
H94	H	0.364609	-0.164233	-0.247732
H95	H	1.056797	-1.044933	-0.247717
H96	H	0.720378	-0.164217	-0.247710
H97	H	0.899590	-0.164240	-0.584465
H98	H	1.056579	-0.268464	-0.940203
N99	N	0.890605	-0.954995	-0.413582
N100	N	0.847475	-0.928853	-0.389728
H101	H	0.816211	-0.911941	-0.420921
H102	H	0.720333	-0.268614	-0.404479
N103	N	0.890663	-0.158260	-0.720025
N104	N	0.914526	-0.129627	-0.759480
H105	H	0.883340	-0.108883	-0.784978
H106	H	1.099983	-0.743974	-0.204431
N107	N	0.584807	-0.158264	-0.238775
N108	N	0.521694	-0.158270	-0.238784
H109	H	0.496198	-0.137517	-0.207622
H110	H	1.056527	-0.268506	-0.584434
N111	N	0.847203	-0.693257	-0.456825
N112	N	0.871004	-0.719399	-0.499986
H113	H	0.839772	-0.736326	-0.531203
H114	H	1.056542	-0.472525	-0.247634
N115	N	1.108871	-0.598362	-0.195432
N116	N	1.085068	-0.572224	-0.152267
H117	H	1.116299	-0.555299	-0.121047
N118	N	1.065459	-0.382557	-0.238647
N119	N	1.104137	-0.403501	-0.200043
H120	H	1.135379	-0.386577	-0.168833
H121	H	0.899621	-1.044965	-0.404633
N122	N	0.890699	-0.158224	-1.075791
N123	N	0.828239	-0.161201	-1.067885
H124	H	0.797032	-0.140472	-1.093386
N125	N	0.847155	-0.598428	-0.456809
N126	N	0.808500	-0.619392	-0.495423
H127	H	0.777244	-0.602485	-0.526630
N128	N	0.890688	-0.158235	-0.932909
N129	N	0.852079	-0.132578	-0.964481
H130	H	0.820871	-0.111849	-0.938997
H131	H	1.099957	-0.688333	-0.204423
N132	N	1.065734	-0.954953	-0.238729
N133	N	1.104407	-0.975898	-0.200123
H134	H	1.135651	-0.958976	-0.168913
N135	N	0.890374	-0.477436	-0.413514
N136	N	0.851690	-0.456494	-0.452113
H137	H	0.820441	-0.473419	-0.483316
N138	N	0.584759	-0.274581	-0.413429
N139	N	0.521646	-0.274583	-0.413426
H140	H	0.496132	-0.295345	-0.444584
N141	N	1.065584	-0.274388	-1.075755
N142	N	1.104192	-0.300048	-1.044187
H143	H	1.135406	-0.320771	-1.069673
N144	N	1.065499	-0.274443	-0.720007
N145	N	1.065505	-0.274430	-0.783119
H146	H	1.096707	-0.295156	-0.808618
H147	H	0.236329	-0.268628	-0.404522
N148	N	0.371898	-0.274589	-0.413453
N149	N	0.363961	-0.316040	-0.408849
H150	H	0.389448	-0.336798	-0.440011
N151	N	0.229059	-0.158277	-0.238788
N152	N	0.260630	-0.132588	-0.200213
H153	H	0.235147	-0.111834	-0.169041
H154	H	0.899318	-0.387454	-0.404539
H155	H	0.856227	-0.829146	-0.447859
N156	N	1.108990	-0.833950	-0.195481
N157	N	1.085211	-0.860166	-0.152336
H158	H	1.116458	-0.877087	-0.121137
N159	N	0.847210	-0.739188	-0.456811
N160	N	0.808552	-0.760155	-0.495419
H161	H	0.777289	-0.743250	-0.526622
