data_functionalizedCrystal
_audit_creation_method	'MofGen! by Chris Wilmer'
_symmetry_space_group_name_H-M	'P1'
_symmetry_Int_Tables_number	1
_symmetry_cell_setting	triclinic
loop_
_symmetry_equiv_pos_as_xyz
  x,y,z
_cell_length_a	13.635800
_cell_length_b	17.110477
_cell_length_c	14.673664
_cell_angle_alpha	79.718558
_cell_angle_beta	101.408695
_cell_angle_gamma	99.060298
loop_
_atom_site_label
_atom_site_type_symbol
_atom_site_fract_x
_atom_site_fract_y
_atom_site_fract_z
V1	V	-1.867185	-0.109975	0.289839
V2	V	-1.367185	0.390025	0.789839
O3	O	-1.875007	0.004777	0.284445
O4	O	-1.375007	0.504777	0.784445
O5	O	-1.833092	-0.217575	0.287738
O6	O	-1.333092	0.282425	0.787738
O7	O	-1.784173	-0.108506	0.416302
O8	O	-1.284173	0.391494	0.916302
O9	O	-1.924264	-0.105046	0.154991
O10	O	-1.424264	0.394954	0.654991
V11	V	-2.117901	-0.096223	0.273724
V12	V	-1.617901	0.403777	0.773724
O13	O	-1.978170	-0.140142	0.325187
O14	O	-1.478170	0.359858	0.825187
O15	O	-2.232014	-0.066057	0.238376
O16	O	-1.732014	0.433943	0.738376
O17	O	-2.040390	0.011376	0.275825
O18	O	-1.540390	0.511376	0.775825
O19	O	-2.168777	-0.210976	0.279118
O20	O	-1.668777	0.289024	0.779118
O21	O	-2.119520	-0.101153	0.408572
O22	O	-1.619520	0.398847	0.908572
O23	O	-2.089309	-0.097692	0.147262
O24	O	-1.589309	0.402308	0.647262
V25	V	-1.367185	-0.109975	0.289839
V26	V	-0.867185	0.390025	0.789839
O27	O	-1.375007	0.004777	0.284445
O28	O	-0.875007	0.504777	0.784445
O29	O	-1.333092	-0.217575	0.287738
O30	O	-0.833092	0.282425	0.787738
O31	O	-1.284173	-0.108506	0.416302
O32	O	-0.784173	0.391494	0.916302
O33	O	-1.424264	-0.105046	0.154991
O34	O	-0.924264	0.394954	0.654991
V35	V	-1.617901	-0.096223	0.273724
V36	V	-1.117901	0.403777	0.773724
O37	O	-1.478170	-0.140142	0.325187
O38	O	-0.978170	0.359858	0.825187
O39	O	-1.732014	-0.066057	0.238376
O40	O	-1.232014	0.433943	0.738376
O41	O	-1.540390	0.011376	0.275825
O42	O	-1.040390	0.511376	0.775825
O43	O	-1.668777	-0.210976	0.279118
O44	O	-1.168777	0.289024	0.779118
O45	O	-1.619520	-0.101153	0.408572
O46	O	-1.119520	0.398847	0.908572
O47	O	-1.589309	-0.097692	0.147262
O48	O	-1.089309	0.402308	0.647262
C49	C	-1.755089	-0.243798	0.283135
C50	C	-1.255089	0.256202	0.783135
C51	C	-1.767465	-0.331764	0.282260
C52	C	-1.267465	0.168236	0.782260
C53	C	-1.861766	-0.377128	0.286483
C54	C	-1.361766	0.122872	0.786483
C55	C	-1.873388	-0.459782	0.285667
C56	C	-1.373388	0.040218	0.785667
C57	C	-1.790710	-0.497068	0.280620
C58	C	-1.290710	0.002932	0.780620
C59	C	-1.696400	-0.451698	0.276400
C60	C	-1.196400	0.048302	0.776400
C61	C	-1.684778	-0.369047	0.277223
C62	C	-1.184778	0.130953	0.777223
C63	C	-1.821373	-0.746419	0.277909
C64	C	-1.321373	-0.246419	0.777909
C65	C	-1.833004	-0.829076	0.277083
C66	C	-1.333004	-0.329076	0.777083
C67	C	-2.009991	-0.837154	0.286352
C68	C	-1.509991	-0.337154	0.786352
C69	C	-1.998362	-0.754500	0.287170
C70	C	-1.498362	-0.254500	0.787170
C71	C	-1.904053	-0.709138	0.282954
C72	C	-1.404053	-0.209138	0.782954
C73	C	-1.802588	-0.581552	0.279783
C74	C	-1.302588	-0.081552	0.779783
C75	C	-1.892174	-0.624656	0.283798
C76	C	-1.392174	-0.124656	0.783798
C77	C	-1.692688	-0.104670	0.447130
C78	C	-1.192688	0.395330	0.947130
C79	C	-1.665394	-0.104181	0.550513
C80	C	-1.165394	0.395819	1.050513
C81	C	-1.950065	0.037595	0.280426
C82	C	-1.450065	0.537595	0.780426
C83	C	-1.927305	0.125560	0.281307
C84	C	-1.427305	0.625560	0.781307
C85	C	-1.565407	-0.102393	0.929082
C86	C	-1.065407	0.397607	1.429082
C87	C	-1.593222	-0.102890	0.823752
C88	C	-1.093222	0.397110	1.323752
C89	C	-1.615400	-0.103287	0.739801
C90	C	-1.115400	0.396713	1.239801
C91	C	-1.643217	-0.103783	0.634464
C92	C	-1.143217	0.396217	1.134464
C93	C	-2.012467	-0.101532	0.116429
C94	C	-1.512467	0.398468	0.616429
C95	C	-2.029381	-0.102017	0.013044
C96	C	-1.529381	0.397983	0.513044
C97	C	-2.091369	-0.103831	-0.365524
C98	C	-1.591369	0.396169	0.134476
C99	C	-2.074126	-0.103326	-0.260195
C100	C	-1.574126	0.396674	0.239805
C101	C	-2.060376	-0.102925	-0.176243
C102	C	-1.560376	0.397075	0.323757
C103	C	-2.043131	-0.102418	-0.070907
C104	C	-1.543131	0.397582	0.429093
C105	C	-1.515949	-0.101527	1.116428
C106	C	-1.015949	0.398473	1.616428
C107	C	-1.543242	-0.102000	1.013042
C108	C	-1.043242	0.398000	1.513042
C109	C	-1.255089	-0.243798	0.283135
C110	C	-0.755089	0.256202	0.783135
C111	C	-1.267465	-0.331764	0.282260
C112	C	-0.767465	0.168236	0.782260
C113	C	-1.192688	-0.104670	0.447130
C114	C	-0.692688	0.395330	0.947130
C115	C	-1.165394	-0.104181	0.550513
C116	C	-0.665394	0.395819	1.050513
C117	C	-1.450065	0.037595	0.280426
C118	C	-0.950065	0.537595	0.780426
C119	C	-1.427305	0.125560	0.281307
C120	C	-0.927305	0.625560	0.781307
C121	C	-1.361773	-0.377116	0.286491
C122	C	-0.861773	0.122884	0.786491
C123	C	-1.373412	-0.459771	0.285684
C124	C	-0.873412	0.040229	0.785684
C125	C	-1.290745	-0.497072	0.280638
C126	C	-0.790745	0.002928	0.780638
C127	C	-1.196429	-0.451714	0.276409
C128	C	-0.696429	0.048286	0.776409
C129	C	-1.184789	-0.369061	0.277224
C130	C	-0.684789	0.130939	0.777224
C131	C	-1.505490	0.170912	0.277078
C132	C	-1.005490	0.670912	0.777078
C133	C	-1.484120	0.253566	0.277890
C134	C	-0.984120	0.753566	0.777890
C135	C	-1.384563	0.290867	0.282938
C136	C	-0.884563	0.790867	0.782938
C137	C	-1.306373	0.245509	0.287164
C138	C	-0.806373	0.745509	0.787164
C139	C	-1.327745	0.162857	0.286345
C140	C	-0.827745	0.662857	0.786345
H141	H	-1.929097	-0.346775	0.290584
H142	H	-1.429097	0.153225	0.790584
H143	H	-1.607988	-0.332112	0.273788
H144	H	-1.107988	0.167888	0.773788
H145	H	-1.586560	0.140553	0.272969
H146	H	-1.086560	0.640553	0.772969
H147	H	-1.744584	-0.709494	0.274471
H148	H	-1.244584	-0.209494	0.774471
H149	H	-1.367175	0.358168	0.283604
H150	H	-0.867175	0.858168	0.783604
H151	H	-1.300237	-0.564374	0.279976
H152	H	-0.800237	-0.064374	0.779976
H153	H	-1.735273	-0.611920	0.275671
H154	H	-1.235273	-0.111920	0.775671
H155	H	-1.225314	0.275892	0.291273
H156	H	-0.725314	0.775892	0.791273
H157	H	-1.959489	-0.594295	0.287912
H158	H	-1.459489	-0.094295	0.787912
H159	H	-1.450216	-0.496690	0.289125
H160	H	-0.950216	0.003310	0.789125
H161	H	-1.765666	-0.859434	0.272996
H162	H	-1.265666	-0.359434	0.772996
H163	H	-1.547798	0.290485	0.274450
H164	H	-1.047798	0.790485	0.774450
H165	H	-1.429097	-0.346756	0.290594
H166	H	-0.929097	0.153244	0.790594
H167	H	-2.065688	-0.724149	0.291286
H168	H	-1.565688	-0.224149	0.791286
H169	H	-1.629081	-0.482064	0.272296
H170	H	-1.129081	0.017936	0.772296
H171	H	-1.129126	-0.482097	0.272301
H172	H	-0.629126	0.017903	0.772301
H173	H	-1.107993	-0.332140	0.273773
H174	H	-0.607993	0.167860	0.773773
H175	H	-1.264071	0.125937	0.289797
H176	H	-0.764071	0.625937	0.789797
H177	H	-1.950176	-0.496714	0.289108
H178	H	-1.450176	0.003286	0.789108
H179	H	-2.086775	-0.874097	0.289785
H180	H	-1.586775	-0.374097	0.789785
