data_functionalizedCrystal
_audit_creation_method	'MofGen! by Chris Wilmer'
_symmetry_space_group_name_H-M	'P1'
_symmetry_Int_Tables_number	1
_symmetry_cell_setting	triclinic
loop_
_symmetry_equiv_pos_as_xyz
  x,y,z
_cell_length_a	6.817900
_cell_length_b	9.514072
_cell_length_c	16.255661
_cell_angle_alpha	91.323020
_cell_angle_beta	103.488922
_cell_angle_gamma	118.843421
loop_
_atom_site_label
_atom_site_type_symbol
_atom_site_fract_x
_atom_site_fract_y
_atom_site_fract_z
V1	V	-4.111881	-0.223505	-0.264538
O2	O	-4.010606	0.009405	-0.258820
O3	O	-4.146651	-0.441889	-0.263385
O4	O	-4.062356	-0.220653	-0.379613
O5	O	-4.095485	-0.213362	-0.141788
V6	V	-4.584878	-0.195577	-0.249776
O7	O	-4.396230	-0.284767	-0.296919
O8	O	-4.750727	-0.134315	-0.217395
O9	O	-4.326902	0.022807	-0.250929
O10	O	-4.803550	-0.428487	-0.255494
O11	O	-4.718672	-0.205720	-0.372527
O12	O	-4.411196	-0.198429	-0.134702
C13	C	-4.011921	-0.495108	-0.259381
C14	C	-4.121629	-0.673643	-0.259205
C15	C	-3.904393	-0.212897	-0.407640
C16	C	-3.945735	-0.212010	-0.501719
C17	C	-3.852254	-0.201415	-0.724506
C18	C	-4.060779	-0.338160	-0.794390
C19	C	-4.021486	-0.210347	-0.673962
C20	C	-3.886655	-0.072037	-0.771711
C21	C	-4.094639	-0.208733	-0.840341
C22	C	-4.229538	-0.347214	-0.742617
C23	C	-4.055307	-0.080971	-0.719922
C24	C	-4.263983	-0.217754	-0.789787
C25	C	-3.979340	-0.211278	-0.578116
C26	C	-4.136807	-0.207815	-0.936187
C27	C	-4.124977	0.076017	-0.254931
C28	C	-3.994508	0.254551	-0.255112
C29	C	-4.232504	-0.206190	-0.106670
C30	C	-4.170397	-0.207069	-0.012590
H31	H	-3.801719	-0.670327	-0.251700
O32	O	-4.351543	-0.763389	-0.263151
C33	C	-4.636154	-0.940328	-0.194181
C34	C	-4.375710	-0.838791	-0.189617
H35	H	-4.655775	-1.001290	-0.134729
H36	H	-4.731323	-1.037229	-0.253849
H37	H	-4.714176	-0.857528	-0.197323
H38	H	-4.297483	-0.921461	-0.186442
H39	H	-4.280708	-0.741875	-0.129958
O40	O	-4.063826	-0.467696	-0.833147
C41	C	-3.890861	-0.559152	-0.919174
C42	C	-3.887212	-0.412321	-0.875347
H43	H	-3.748053	-0.514434	-0.953288
H44	H	-4.067781	-0.638768	-0.967808
H45	H	-3.859354	-0.632968	-0.868811
H46	H	-3.918621	-0.338381	-0.925648
H47	H	-3.710284	-0.332823	-0.826695
O48	O	-3.644483	-0.193601	-0.690413
C49	C	-3.446307	-0.322815	-0.612836
C50	C	-3.681740	-0.331838	-0.651389
H51	H	-3.476352	-0.434581	-0.581291
H52	H	-3.327615	-0.208585	-0.562873
H53	H	-3.360659	-0.318644	-0.665864
H54	H	-3.767588	-0.336072	-0.598420
H55	H	-3.800267	-0.446052	-0.701371
H56	H	-4.052465	0.027770	-0.687489
H57	H	-4.374118	-0.463635	-0.729497
O58	O	-4.471966	-0.225739	-0.823649
C59	C	-4.670638	-0.095656	-0.899858
C60	C	-4.434936	-0.086381	-0.861527
H61	H	-4.640786	0.016983	-0.930508
H62	H	-4.757519	-0.102013	-0.846951
H63	H	-4.788136	-0.208887	-0.950547
H64	H	-4.317259	0.026840	-0.810849
H65	H	-4.348242	-0.080114	-0.914482
O66	O	-3.713927	0.066674	-0.787392
C67	C	-3.302306	0.231918	-0.771938
C68	C	-3.497698	0.074800	-0.754110
H69	H	-3.127445	0.238523	-0.745054
H70	H	-3.298112	0.341658	-0.740000
H71	H	-3.336752	0.231834	-0.844024
H72	H	-3.463388	0.074725	-0.682041
H73	H	-3.501843	-0.034870	-0.786106
