data_functionalizedCrystal
_audit_creation_method	'MofGen! by Chris Wilmer'
_symmetry_space_group_name_H-M	'P1'
_symmetry_Int_Tables_number	1
_symmetry_cell_setting	triclinic
loop_
_symmetry_equiv_pos_as_xyz
  x,y,z
_cell_length_a	16.992694
_cell_length_b	19.188930
_cell_length_c	15.455313
_cell_angle_alpha	92.650876
_cell_angle_beta	87.142206
_cell_angle_gamma	86.906503
loop_
_atom_site_label
_atom_site_type_symbol
_atom_site_fract_x
_atom_site_fract_y
_atom_site_fract_z
O1	O	1.043326	0.145160	-0.072038
O2	O	1.543326	0.645160	0.427962
O3	O	0.815047	0.143535	-0.072064
O4	O	1.315047	0.643535	0.427936
O5	O	0.935773	0.043078	-0.072033
O6	O	1.435773	0.543078	0.427967
O7	O	0.922600	0.245617	-0.072069
O8	O	1.422600	0.745617	0.427931
O9	O	0.928870	0.048798	0.072227
O10	O	1.428870	0.548798	0.572227
O11	O	0.808144	0.149255	0.072197
O12	O	1.308144	0.649255	0.572197
O13	O	1.036422	0.150879	0.072222
O14	O	1.536422	0.650879	0.572222
Cu15	Cu	0.921653	0.150589	0.085382
Cu16	Cu	1.421653	0.650589	0.585382
Cu17	Cu	0.929817	0.143825	-0.085223
Cu18	Cu	1.429817	0.643825	0.414777
O19	O	0.915696	0.251336	0.072192
O20	O	1.415696	0.751336	0.572192
C21	C	0.782390	0.144306	0.000064
C22	C	1.282390	0.644306	0.500064
C23	C	0.695368	0.138072	0.000055
C24	C	1.195368	0.638072	0.500055
C25	C	0.644922	0.198212	0.000045
C26	C	1.144922	0.698212	0.500045
C27	C	0.563155	0.192351	0.000058
C28	C	1.063155	0.692351	0.500058
C29	C	0.531836	0.126351	0.000075
C30	C	1.031836	0.626351	0.500075
C31	C	0.582288	0.066208	0.000087
C32	C	1.082288	0.566208	0.500087
C33	C	0.664053	0.072069	0.000080
C34	C	1.164053	0.572069	0.500080
C35	C	0.288320	0.102059	0.000102
C36	C	0.788320	0.602059	0.500102
C37	C	0.206548	0.096203	0.000106
C38	C	0.706548	0.596203	0.500106
C39	C	0.187420	0.222347	0.000079
C40	C	0.687420	0.722347	0.500079
C41	C	0.269188	0.228202	0.000067
C42	C	0.769188	0.728202	0.500067
C43	C	0.319633	0.168059	0.000084
C44	C	0.819633	0.668059	0.500084
N45	N	0.448257	0.120360	0.000085
N46	N	0.948257	0.620360	0.500085
N47	N	0.403210	0.174051	0.000079
N48	N	0.903210	0.674051	0.500079
C49	C	0.931895	0.019902	0.000099
C50	C	1.431895	0.519902	0.500099
C51	C	0.930614	-0.057677	0.000107
C52	C	1.430614	0.442323	0.500107
C53	C	1.001452	-0.098455	0.000119
C54	C	1.501452	0.401545	0.500119
C55	C	1.000250	-0.171350	0.000105
C56	C	1.500250	0.328650	0.500105
C57	C	0.928204	-0.203463	0.000096
C58	C	1.428204	0.296537	0.500096
C59	C	0.857356	-0.162676	0.000079
C60	C	1.357356	0.337324	0.500079
C61	C	0.858561	-0.089783	0.000085
C62	C	1.358561	0.410217	0.500085
N63	N	0.870784	-0.312744	0.049185
N64	N	1.370784	0.187256	0.549185
N65	N	0.869644	-0.381990	0.049181
N66	N	1.369644	0.118010	0.549181
C67	C	0.924569	-0.423085	0.000078
C68	C	1.424569	0.076915	0.500078
N69	N	0.980688	-0.392319	-0.049011
N70	N	1.480688	0.107681	0.450989
N71	N	0.981830	-0.323067	-0.049004
N72	N	1.481830	0.176933	0.450996
C73	C	0.926889	-0.282503	0.000090
C74	C	1.426889	0.217497	0.500090
C75	C	0.994108	-0.542904	0.000074
C76	C	1.494108	-0.042904	0.500074
C77	C	0.992903	-0.615801	0.000054
C78	C	1.492903	-0.115801	0.500054
C79	C	0.850007	-0.607124	0.000038
C80	C	1.350007	-0.107124	0.500038
C81	C	0.851215	-0.534230	0.000048
C82	C	1.351215	-0.034230	0.500048
C83	C	0.923267	-0.502124	0.000070
C84	C	1.423267	-0.002124	0.500070
C85	C	1.069079	0.150109	0.000093
C86	C	1.569079	0.650109	0.500093
C87	C	1.156102	0.156342	0.000096
C88	C	1.656102	0.656342	0.500096
C89	C	0.919575	0.274513	0.000057
C90	C	1.419575	0.774513	0.500057
C91	C	0.920856	0.352092	0.000044
C92	C	1.420856	0.852092	0.500044
N93	N	0.915916	0.155346	0.205376
N94	N	1.415916	0.655346	0.705376
N95	N	0.935560	0.139063	-0.205217
N96	N	1.435560	0.639063	0.294783
C97	C	0.967222	0.112686	0.250783
C98	C	1.467222	0.612686	0.750783
C99	C	0.962891	0.116291	0.341590
C100	C	1.462891	0.616291	0.841590
C101	C	0.907257	0.162559	0.386988
C102	C	1.407257	0.662559	0.886988
C103	C	0.855945	0.205221	0.341574
C104	C	1.355945	0.705221	0.841574
C105	C	0.860273	0.201613	0.250769
C106	C	1.360273	0.701613	0.750769
C107	C	0.888576	0.178116	0.658564
C108	C	1.388576	0.678116	1.158564
C109	C	0.884253	0.181723	0.749376
C110	C	1.384253	0.681723	1.249376
C111	C	0.991199	0.092792	0.749385
C112	C	1.491199	0.592792	1.249385
C113	C	0.995525	0.089190	0.658578
C114	C	1.495525	0.589190	1.158578
C115	C	0.944211	0.131849	0.613173
C116	C	1.444211	0.631849	1.113173
N117	N	0.902830	0.166246	0.479807
N118	N	1.402830	0.666246	0.979807
N119	N	0.948634	0.128158	0.520355
N120	N	1.448634	0.628158	1.020355
H121	H	0.329383	0.053086	0.000117
H122	H	0.829383	0.553086	0.500117
C123	C	0.770758	-0.642440	0.000025
C124	C	1.270758	-0.142440	0.500025
H125	H	0.780184	-0.691693	0.000028
H126	H	1.280184	-0.191693	0.500028
H127	H	0.744007	-0.630696	-0.050284
H128	H	1.244007	-0.130696	0.449716
H129	H	0.739193	-0.626726	0.050336
H130	H	1.239193	-0.126726	0.550336
H131	H	0.800874	-0.056581	0.000075
H132	H	1.300874	0.443419	0.500075
C133	C	1.080707	-0.063143	0.000128
C134	C	1.580707	0.436857	0.500128
H135	H	1.122724	-0.097874	0.000124
H136	H	1.622724	0.402126	0.500124
H137	H	1.081744	-0.032898	0.050434
H138	H	1.581744	0.467102	0.550434
H139	H	1.086553	-0.036880	-0.050186
H140	H	1.586553	0.463120	0.449814
H141	H	0.556781	0.012469	0.000113
H142	H	1.056781	0.512469	0.500113
H143	H	0.810642	0.242891	0.378543
H144	H	1.310642	0.742891	0.878543
H145	H	0.798696	-0.188827	0.000070
H146	H	1.298696	0.311173	0.500070
H147	H	0.818493	0.236350	0.213800
H148	H	1.318493	0.736350	0.713800
H149	H	0.705127	0.023097	0.000088
H150	H	1.205127	0.523097	0.500088
H151	H	0.793530	-0.501027	0.000043
H152	H	1.293530	-0.001027	0.500043
H153	H	0.181052	0.042455	0.000119
H154	H	0.681052	0.542455	0.500119
C155	C	1.028420	0.061790	0.200853
C156	C	1.528420	0.561790	0.700853
H157	H	1.058350	0.036895	0.240904
H158	H	1.558350	0.536895	0.740904
H159	H	1.062654	0.087328	0.165415
H160	H	1.562654	0.587328	0.665415
H161	H	1.002003	0.029733	0.165446
H162	H	1.502003	0.529733	0.665446
H163	H	1.057937	-0.204558	0.000111
H164	H	1.557937	0.295442	0.500111
H165	H	0.846795	0.212852	0.621602
H166	H	1.346795	0.712852	1.121602
H167	H	1.052778	-0.516763	0.000088
H168	H	1.552778	-0.016763	0.500088
H169	H	0.670415	0.251956	0.000031
H170	H	1.170415	0.751956	0.500031
H171	H	1.050591	-0.649002	0.000059
H172	H	1.550591	-0.149002	0.500059
H173	H	1.004668	0.081553	0.378560
H174	H	1.504668	0.581553	0.878560
H175	H	1.040827	0.051515	0.621617
H176	H	1.540827	0.551515	1.121617
C177	C	0.131930	0.288499	0.000071
C178	C	0.631930	0.788499	0.500071
H179	H	0.078747	0.275559	0.000085
H180	H	0.578747	0.775559	0.500085
H181	H	0.143798	0.313382	-0.050239
H182	H	0.643798	0.813382	0.449761
H183	H	0.139002	0.317365	0.050381
H184	H	0.639002	0.817365	0.550381
H185	H	0.522084	0.241323	0.000049
H186	H	1.022084	0.741323	0.500049
C187	C	1.047632	0.045864	0.799332
C188	C	1.547632	0.545864	1.299332
H189	H	1.037085	0.054634	0.859915
H190	H	1.537085	0.554634	1.359915
H191	H	1.100634	0.055797	0.784441
H192	H	1.600634	0.555797	1.284441
H193	H	1.039981	-0.001796	0.784464
H194	H	1.539981	0.498204	1.284464
C195	C	0.823053	0.232618	0.799317
C196	C	1.323053	0.732618	1.299317
H197	H	0.827834	0.228662	0.859900
H198	H	1.327834	0.728662	1.359900
H199	H	0.771469	0.221499	0.784452
H200	H	1.271469	0.721499	1.284452
H201	H	0.832115	0.279098	0.784418
H202	H	1.332115	0.779098	1.284418
C203	C	0.303633	0.300803	0.000061
C204	C	0.803633	0.800803	0.500061
H205	H	0.261877	0.335782	0.000066
H206	H	0.761877	0.835782	0.500066
H207	H	0.337534	0.303720	-0.050246
H208	H	0.837534	0.803720	0.449754
H209	H	0.332728	0.307701	0.050374
H210	H	0.832728	0.807701	0.550374
