data_functionalizedCrystal
_audit_creation_method	'MofGen! by Chris Wilmer'
_symmetry_space_group_name_H-M	'P1'
_symmetry_Int_Tables_number	1
_symmetry_cell_setting	triclinic
loop_
_symmetry_equiv_pos_as_xyz
  x,y,z
_cell_length_a	10.540510
_cell_length_b	10.723023
_cell_length_c	9.198806
_cell_angle_alpha	89.998149
_cell_angle_beta	89.995804
_cell_angle_gamma	84.490429
loop_
_atom_site_label
_atom_site_type_symbol
_atom_site_fract_x
_atom_site_fract_y
_atom_site_fract_z
O1	O	1.685818	0.175685	-0.120897
O2	O	1.316391	0.192293	-0.120897
O3	O	1.509626	0.002416	-0.120892
O4	O	1.492583	0.365562	-0.120902
O5	O	1.509611	0.002416	0.120893
O6	O	1.316376	0.192293	0.120888
O7	O	1.685802	0.175684	0.120888
Cu8	Cu	1.501088	0.183988	0.142965
Cu9	Cu	1.501106	0.183989	-0.142974
O10	O	1.492567	0.365561	0.120883
C11	C	1.269081	0.191055	-0.000005
C12	C	1.128133	0.187353	-0.000005
C13	C	1.508379	-0.044084	-0.000002
C14	C	1.504668	-0.182640	-0.000007
C15	C	1.503006	-0.244419	0.125242
C16	C	1.499171	-0.387623	0.125239
C17	C	0.910609	0.319260	-0.000564
C18	C	1.057203	0.323209	-0.000011
C19	C	1.083400	0.117807	0.138064
C20	C	0.936640	0.114819	0.138171
C21	C	0.936853	0.111990	-0.136783
C22	C	1.083191	0.118434	-0.138600
C23	C	1.733113	0.176922	-0.000008
C24	C	1.874061	0.180625	-0.000017
C25	C	1.493815	0.412062	-0.000011
C26	C	1.497525	0.550618	-0.000015
N27	N	1.501084	0.183987	0.344079
N28	N	1.501119	0.183980	-0.344088
C29	C	1.582218	0.103912	0.416278
C30	C	1.582238	0.103907	0.583690
H31	H	1.497734	-0.440751	0.232470
H32	H	1.504429	-0.191292	0.232474
H33	H	1.431632	0.252536	0.406205
H34	H	0.913697	0.013207	0.144446
H35	H	1.498944	-0.396261	-0.107251
C36	C	1.676037	0.011298	0.332363
H37	H	1.663720	0.023455	0.230851
H38	H	1.661314	-0.072077	0.357243
H39	H	1.760966	0.025396	0.357212
C40	C	0.851801	0.390360	0.132433
H41	H	0.874340	0.474036	0.131262
H42	H	0.883112	0.349899	0.218902
H43	H	0.761655	0.391026	0.129166
C44	C	1.502775	-0.254395	-0.144879
H45	H	1.504329	-0.197067	-0.223459
H46	H	1.427523	-0.296332	-0.150297
H47	H	1.575332	-0.314041	-0.150268
H48	H	1.431658	0.252545	0.593833
C49	C	1.096822	0.396728	-0.133701
H50	H	1.023262	0.424449	-0.188838
H51	H	1.153662	0.343993	-0.192116
H52	H	1.137961	0.467125	-0.102620
C53	C	1.125021	0.183054	0.276873
H54	H	1.169644	0.252668	0.250980
H55	H	1.179181	0.125574	0.332740
H56	H	1.051898	0.211204	0.332522
C57	C	0.853891	0.390775	-0.134313
H58	H	0.807406	0.336733	-0.191019
H59	H	0.920780	0.418906	-0.191168
H60	H	0.798465	0.460802	-0.103262
H61	H	1.085572	0.377947	0.099127
H62	H	0.896393	0.162347	0.241378
H63	H	1.130841	0.017792	0.143202
C64	C	0.879511	0.170001	-0.278161
H65	H	0.816732	0.236631	-0.255095
H66	H	0.841434	0.107867	-0.332077
H67	H	0.944996	0.201329	-0.334518
H68	H	1.651704	0.035356	0.645778
C69	C	1.121818	0.186787	-0.276590
H70	H	1.165162	0.257028	-0.249866
H71	H	1.047674	0.214319	-0.330803
H72	H	1.176479	0.131183	-0.334220
C73	C	1.149531	-0.015563	-0.149858
H74	H	1.205749	-0.031304	-0.069819
H75	H	1.196554	-0.024121	-0.237978
H76	H	1.087206	-0.073940	-0.148687
H77	H	0.914752	0.009989	-0.137714
