data_functionalizedCrystal
_audit_creation_method	'MofGen! by Chris Wilmer'
_symmetry_space_group_name_H-M	'P1'
_symmetry_Int_Tables_number	1
_symmetry_cell_setting	triclinic
loop_
_symmetry_equiv_pos_as_xyz
  x,y,z
_cell_length_a	15.944545
_cell_length_b	15.944551
_cell_length_c	9.730223
_cell_angle_alpha	90.002284
_cell_angle_beta	89.997420
_cell_angle_gamma	83.497455
loop_
_atom_site_label
_atom_site_type_symbol
_atom_site_fract_x
_atom_site_fract_y
_atom_site_fract_z
O1	O	1.114523	0.108303	0.114204
O2	O	1.614523	0.608303	0.614204
O3	O	0.869972	0.121665	0.114227
O4	O	1.369972	0.621665	0.614227
O5	O	0.998926	-0.007291	0.114202
O6	O	1.498926	0.492709	0.614202
O7	O	0.985569	0.237259	0.114228
O8	O	1.485569	0.737259	0.614228
O9	O	0.998924	-0.007288	-0.114378
O10	O	1.498924	0.492712	0.385622
O11	O	0.869971	0.121668	-0.114353
O12	O	1.369971	0.621668	0.385647
O13	O	1.114521	0.108307	-0.114376
O14	O	1.614521	0.608307	0.385624
Zn15	Zn	0.992246	0.114988	-0.150657
Zn16	Zn	1.492246	0.614988	0.349343
Zn17	Zn	0.992248	0.114984	0.150507
Zn18	Zn	1.492248	0.614984	0.650507
O19	O	0.985568	0.237262	-0.114352
O20	O	1.485568	0.737262	0.385648
C21	C	0.838677	0.121113	-0.000061
C22	C	1.338677	0.621113	0.499939
C23	C	0.745431	0.119453	-0.000052
C24	C	1.245431	0.619453	0.499948
C25	C	0.474798	0.034559	-0.000076
C26	C	0.974798	0.534559	0.499924
C27	C	0.525379	0.075490	-0.112777
C28	C	1.025379	0.575490	0.387223
C29	C	0.409787	0.113532	-0.000077
C30	C	0.909787	0.613532	0.499923
C31	C	0.525361	0.075508	0.112585
C32	C	1.025361	0.575508	0.612585
C33	C	0.574701	0.116437	-0.000062
C34	C	1.074701	0.616437	0.499938
C35	C	0.459140	0.154441	-0.112870
C36	C	0.959140	0.654441	0.387130
C37	C	0.459119	0.154448	0.112593
C38	C	0.959119	0.654448	0.612593
C39	C	0.509667	0.195436	-0.000136
C40	C	1.009667	0.695436	0.499864
C41	C	0.314785	0.111856	-0.000086
C42	C	0.814785	0.611856	0.499914
C43	C	0.669700	0.118119	-0.000063
C44	C	1.169700	0.618119	0.499937
C45	C	0.998370	-0.038583	-0.000088
C46	C	1.498370	0.461417	0.499912
C47	C	0.996708	-0.131829	-0.000089
C48	C	1.496708	0.368171	0.499911
C49	C	0.912803	-0.346684	-0.000062
C50	C	1.412803	0.153316	0.499938
C51	C	0.951765	-0.407700	-0.112769
C52	C	1.451765	0.092300	0.387231
C53	C	0.993701	-0.302555	-0.000078
C54	C	1.493701	0.197445	0.499922
C55	C	0.951786	-0.407687	0.112593
C56	C	1.451786	0.092313	0.612593
C57	C	0.990790	-0.467468	-0.000061
C58	C	1.490790	0.032532	0.499939
C59	C	1.032685	-0.362343	-0.112878
C60	C	1.532685	0.137657	0.387122
C61	C	1.032694	-0.362324	0.112585
C62	C	1.532694	0.137676	0.612585
C63	C	1.071715	-0.423322	-0.000150
C64	C	1.571715	0.076678	0.499850
C65	C	0.995375	-0.207553	-0.000088
C66	C	1.495375	0.292447	0.499912
C67	C	0.989122	-0.562469	-0.000060
C68	C	1.489122	-0.062469	0.499940
C69	C	1.145816	0.108859	-0.000086
C70	C	1.645816	0.608859	0.499914
C71	C	1.239062	0.110519	-0.000085
C72	C	1.739062	0.610519	0.499915
C73	C	0.986123	0.268555	-0.000059
C74	C	1.486123	0.768555	0.499941
C75	C	0.987785	0.361801	-0.000049
C76	C	1.487785	0.861801	0.499951
N77	N	0.992250	0.114990	-0.356193
N78	N	1.492250	0.614990	0.143807
C79	C	1.049366	0.057908	-0.428130
C80	C	1.549366	0.557908	0.071870
C81	C	1.049363	0.057898	-0.572013
C82	C	1.549363	0.557898	-0.072013
C83	C	0.935128	0.172060	-0.572010
C84	C	1.435128	0.672060	-0.072010
C85	C	0.935127	0.172065	-0.428129
C86	C	1.435127	0.672065	0.071871
C87	C	1.106489	0.000833	-0.356194
C88	C	1.606489	0.500833	0.143806
C89	C	1.163609	-0.056254	-0.428131
C90	C	1.663609	0.443746	0.071869
C91	C	1.163607	-0.056264	-0.572014
C92	C	1.663607	0.443736	-0.072014
C93	C	1.106485	0.000813	-0.643960
C94	C	1.606485	0.500813	-0.143960
N95	N	0.992250	0.114975	0.356044
N96	N	1.492250	0.614975	0.856044
H97	H	0.554310	0.042138	-0.208064
H98	H	1.054310	0.542138	0.291936
C99	C	1.106486	0.000798	-0.802236
C100	C	1.606486	0.500798	-0.302236
N101	N	1.106491	0.000790	-0.921448
N102	N	1.606491	0.500790	-0.421448
C103	C	0.872299	0.234840	-0.651156
C104	C	1.372299	0.734840	-0.151156
N105	N	0.824976	0.282129	-0.710769
N106	N	1.324976	0.782129	-0.210769
H107	H	0.430330	0.187770	-0.208252
H108	H	0.930330	0.687770	0.291748
C109	C	1.226428	-0.119070	-0.651140
C110	C	1.726428	0.380930	-0.151140
N111	N	1.273747	-0.166379	-0.710736
N112	N	1.773747	0.333621	-0.210736
C113	C	0.822092	-0.301678	-0.000207
C114	C	1.322092	0.198322	0.499793
N115	N	0.753771	-0.267776	-0.000326
N116	N	1.253771	0.232224	0.499674
H117	H	0.525159	0.263501	-0.000194
H118	H	1.025159	0.763501	0.499806
H119	H	0.917548	-0.427807	-0.208048
H120	H	1.417548	0.072193	0.291952
H121	H	0.917559	-0.427765	0.207885
H122	H	1.417559	0.072235	0.707885
H123	H	1.210112	-0.102728	-0.369545
H124	H	1.710112	0.397272	0.130455
H125	H	0.888618	0.218546	-0.369558
H126	H	1.388618	0.718546	0.130442
H127	H	0.554279	0.042140	0.207859
H128	H	1.054279	0.542140	0.707859
C129	C	0.453643	-0.057319	-0.000236
C130	C	0.953643	0.442681	0.499764
N131	N	0.437706	-0.126520	-0.000365
N132	N	0.937706	0.373480	0.499635
H133	H	1.066872	-0.342352	-0.208268
H134	H	1.566872	0.157648	0.291732
C135	C	1.162505	-0.468129	-0.000247
C136	C	1.662505	0.031871	0.499753
N137	N	1.230887	-0.501880	-0.000329
N138	N	1.730887	-0.001880	0.499671
C139	C	0.420007	0.199460	0.241327
C140	C	0.920007	0.699460	0.741327
N141	N	0.390546	0.233357	0.338301
N142	N	0.890546	0.733357	0.838301
C143	C	1.078879	-0.335127	0.241311
C144	C	1.578879	0.164873	0.741311
N145	N	1.113660	-0.314641	0.338278
N146	N	1.613660	0.185359	0.838278
H147	H	1.106497	0.000838	-0.239037
H148	H	1.606497	0.500838	0.260963
