data_functionalizedCrystal
_audit_creation_method	'MofGen! by Chris Wilmer'
_symmetry_space_group_name_H-M	'P1'
_symmetry_Int_Tables_number	1
_symmetry_cell_setting	triclinic
loop_
_symmetry_equiv_pos_as_xyz
  x,y,z
_cell_length_a	10.540510
_cell_length_b	11.792241
_cell_length_c	10.868271
_cell_angle_alpha	90.000107
_cell_angle_beta	89.997346
_cell_angle_gamma	95.646637
loop_
_atom_site_label
_atom_site_type_symbol
_atom_site_fract_x
_atom_site_fract_y
_atom_site_fract_z
O1	O	0.173994	-1.507345	-0.102196
O2	O	0.191926	-1.177049	-0.102223
O3	O	-0.001773	-1.349750	-0.102208
O4	O	0.367694	-1.334644	-0.102211
O5	O	-0.001781	-1.349735	0.102436
O6	O	0.191918	-1.177034	0.102421
O7	O	0.173987	-1.507330	0.102449
Zn8	Zn	0.182951	-1.342180	0.134927
Zn9	Zn	0.182961	-1.342199	-0.134701
O10	O	0.367686	-1.334629	0.102434
C11	C	0.190796	-1.134748	0.000095
C12	C	0.187424	-1.008726	0.000084
C13	C	-0.049077	-1.348617	0.000111
C14	C	-0.190016	-1.345249	0.000104
N15	N	0.182944	-1.342175	0.318941
C16	C	-0.407862	-1.465224	0.000582
C17	C	-0.261278	-1.468816	0.000115
C18	C	-0.234564	-1.282003	-0.116761
C19	C	-0.381316	-1.279285	-0.116853
C20	C	-0.381125	-1.276696	0.115866
C21	C	-0.234803	-1.282557	0.117405
C22	C	0.414990	-1.335762	0.000112
C23	C	0.555929	-1.339130	0.000111
C24	C	0.175117	-1.549631	0.000128
C25	C	0.178488	-1.675654	0.000131
C26	C	0.181225	-0.777998	0.000120
C27	C	0.184670	-0.906392	0.000100
N28	N	0.182959	-1.342213	-0.318715
C29	C	0.182959	-1.342193	0.569947
C30	C	0.182954	-1.342180	0.430270
H31	H	-0.232099	-1.518303	0.083887
H32	H	-0.404010	-1.186864	-0.122155
H33	H	-0.451521	-1.513093	-0.082745
F34	F	-0.462907	-1.528144	0.110130
F35	F	-0.224352	-1.533887	-0.109563
H36	H	-0.421669	-1.322520	-0.204204
F37	F	-0.172233	-1.163102	-0.122460
F38	F	-0.436846	-1.327672	0.231645
H39	H	-0.206344	-1.328577	0.203860
H40	H	-0.203848	-1.325937	-0.203724
F41	F	-0.170289	-1.164637	0.126620
F42	F	-0.409683	-1.155433	0.116888
