data_functionalizedCrystal
_audit_creation_method	'MofGen! by Chris Wilmer'
_symmetry_space_group_name_H-M	'P1'
_symmetry_Int_Tables_number	1
_symmetry_cell_setting	triclinic
loop_
_symmetry_equiv_pos_as_xyz
  x,y,z
_cell_length_a	19.077105
_cell_length_b	19.077068
_cell_length_c	12.759393
_cell_angle_alpha	87.737652
_cell_angle_beta	92.320093
_cell_angle_gamma	90.115316
loop_
_atom_site_label
_atom_site_type_symbol
_atom_site_fract_x
_atom_site_fract_y
_atom_site_fract_z
Zn1	Zn	1.063019	-0.322938	0.677057
Zn2	Zn	1.563019	0.177062	1.177057
Zn3	Zn	1.058198	-0.440458	0.508115
Zn4	Zn	1.558198	0.059542	1.008115
Zn5	Zn	0.945503	-0.318244	0.494066
Zn6	Zn	1.445503	0.181756	0.994066
Zn7	Zn	0.940754	-0.435680	0.676426
Zn8	Zn	1.440754	0.064320	1.176426
O9	O	1.001869	-0.379330	0.588916
O10	O	1.501869	0.120670	1.088916
O11	O	1.160711	-0.342491	0.660790
O12	O	1.660711	0.157509	1.160790
O13	O	1.043220	-0.424281	0.359230
O14	O	1.543220	0.075719	0.859230
O15	O	0.965097	-0.220537	0.512725
O16	O	1.465097	0.279463	1.012725
O17	O	1.157170	-0.428832	0.536669
O18	O	1.657170	0.071168	1.036669
O19	O	1.051435	-0.223986	0.647167
O20	O	1.551435	0.276014	1.147167
O21	O	0.960423	-0.334491	0.348909
O22	O	1.460423	0.165509	0.848909
O23	O	0.846542	-0.329858	0.512113
O24	O	1.346542	0.170142	1.012113
O25	O	0.957002	-0.420689	0.823530
O26	O	1.457002	0.079311	1.323530
O27	O	0.843052	-0.416138	0.646092
O28	O	1.343052	0.083862	1.146092
O29	O	1.046830	-0.337858	0.823994
O30	O	1.546830	0.162142	1.323994
O31	O	1.038614	-0.538153	0.536057
O32	O	1.538614	-0.038153	1.036057
O33	O	0.952328	-0.534643	0.659714
O34	O	1.452328	-0.034643	1.159714
C35	C	0.819301	-0.371971	0.577510
C36	C	1.319301	0.128029	1.077510
C37	C	0.741196	-0.368839	0.572657
C38	C	1.241196	0.131161	1.072657
C39	C	0.702702	-0.412357	0.640030
C40	C	1.202702	0.087643	1.140030
C41	C	0.629315	-0.409405	0.635474
C42	C	1.129315	0.090595	1.135474
C43	C	0.594424	-0.362939	0.563539
C44	C	1.094424	0.137061	1.063539
C45	C	0.632924	-0.319417	0.496163
C46	C	1.132924	0.180583	0.996163
C47	C	0.706310	-0.322365	0.500724
C48	C	1.206310	0.177635	1.000724
C49	C	0.375138	-0.349293	0.542432
C50	C	0.875138	0.150707	1.042432
C51	C	0.301747	-0.346349	0.537873
C52	C	0.801747	0.153651	1.037873
C53	C	0.298144	-0.436337	0.677187
C54	C	0.798144	0.063663	1.177187
C55	C	0.371531	-0.439285	0.681738
C56	C	0.871531	0.060715	1.181738
C57	C	0.410024	-0.395760	0.614365
C58	C	0.910024	0.104240	1.114365
N59	N	0.519411	-0.359923	0.558878
N60	N	1.019411	0.140077	1.058878
N61	N	0.485036	-0.398773	0.619032
N62	N	0.985036	0.101227	1.119032
C63	C	0.994452	-0.561895	0.599365
C64	C	1.494452	-0.061895	1.099365
C65	C	0.991343	-0.639999	0.603875
C66	C	1.491343	-0.139999	1.103875
C67	C	1.034842	-0.678499	0.541670
C68	C	1.534842	-0.178499	1.041670
C69	C	1.031922	-0.751886	0.545918
C70	C	1.531922	-0.251886	1.045918
C71	C	0.985500	-0.786773	0.612366
C72	C	1.485500	-0.286773	1.112366
C73	C	0.941999	-0.748268	0.674578
C74	C	1.441999	-0.248268	1.174578
C75	C	0.944923	-0.674882	0.670335
C76	C	1.444923	-0.174882	1.170335
C77	C	0.971938	-1.006060	0.631959
C78	C	1.471938	-0.506060	1.131959
C79	C	0.969016	-1.079452	0.636195
C80	C	1.469016	-0.579452	1.136195
C81	C	1.058940	-1.083065	0.507535
C82	C	1.558940	-0.583065	1.007535
C83	C	1.061857	-1.009677	0.503293
C84	C	1.561857	-0.509677	1.003293
C85	C	1.018359	-0.971179	0.565510
C86	C	1.518359	-0.471179	1.065510
N87	N	0.982513	-0.861787	0.616707
N88	N	1.482513	-0.361787	1.116707
N89	N	1.021350	-0.896166	0.561173
N90	N	1.521350	-0.396166	1.061173
C91	C	1.185150	-0.386718	0.600367
C92	C	1.685150	0.113282	1.100367
C93	C	1.263253	-0.389867	0.605246
C94	C	1.763253	0.110133	1.105246
C95	C	1.001924	-0.379265	0.862949
C96	C	1.501924	0.120735	1.362949
C97	C	1.001947	-0.379237	0.979725
C98	C	1.501947	0.120763	1.479725
C99	C	1.009334	-0.196053	0.578450
C100	C	1.509334	0.303947	1.078450
C101	C	1.012515	-0.117951	0.573990
C102	C	1.512515	0.382049	1.073990
C103	C	1.001856	-0.379346	0.315949
C104	C	1.501856	0.120654	0.815949
C105	C	1.001977	-0.379181	0.199170
C106	C	1.501977	0.120819	0.699170
C107	C	1.048724	-0.336100	1.034830
C108	C	1.548724	0.163900	1.534830
C109	C	1.048737	-0.336070	1.144553
C110	C	1.548737	0.163930	1.644553
C111	C	0.955195	-0.422320	1.144057
C112	C	1.455195	0.077680	1.644057
C113	C	0.955179	-0.422346	1.034336
C114	C	1.455179	0.077654	1.534336
H115	H	0.266794	-0.471772	0.732039
H116	H	0.766794	0.028228	1.232039
C117	C	0.924090	-0.963718	0.700387
C118	C	1.424090	-0.463718	1.200387
H119	H	0.932482	-0.915016	0.688357
H120	H	1.432482	-0.415016	1.188357
H121	H	0.876401	-0.973892	0.682705
H122	H	1.376401	-0.473892	1.182705
H123	H	0.933878	-0.976116	0.772326
H124	H	1.433878	-0.476116	1.272326
C125	C	0.741079	-0.463474	0.719151
C126	C	1.241079	0.036526	1.219151
H127	H	0.790298	-0.459004	0.712213
H128	H	1.290298	0.040996	1.212213
H129	H	0.729492	-0.452768	0.788438
H130	H	1.229492	0.047232	1.288438
H131	H	0.727127	-0.510191	0.705601
H132	H	1.227127	-0.010191	1.205601
C133	C	0.903759	-0.469742	1.204133
C134	C	1.403759	0.030258	1.704133
H135	H	0.910473	-0.463555	1.277372
H136	H	1.410473	0.036445	1.777372
H137	H	0.856962	-0.457561	1.182611
H138	H	1.356962	0.042439	1.682611
H139	H	0.912123	-0.517375	1.189487
H140	H	1.412123	-0.017375	1.689487
H141	H	1.086805	-0.300995	0.990369
H142	H	1.586805	0.199005	1.490369
H143	H	0.273342	-0.308503	0.479300
H144	H	0.773342	0.191497	0.979300
H145	H	0.904204	-0.776679	0.728686
H146	H	1.404204	-0.276679	1.228686
C147	C	0.417472	-0.301430	0.468307
C148	C	0.917472	0.198570	0.968307
H149	H	0.386179	-0.273343	0.424803
H150	H	0.886179	0.226657	0.924803
H151	H	0.447358	-0.271991	0.508587
H152	H	0.947358	0.228009	1.008587
H153	H	0.444990	-0.329432	0.425778
H154	H	0.944990	0.170568	0.925778
C155	C	0.897075	-0.632530	0.738758
C156	C	1.397075	-0.132530	1.238758
H157	H	0.905470	-0.583828	0.726723
H158	H	1.405470	-0.083828	1.226723
H159	H	0.849386	-0.642702	0.721079
H160	H	1.349386	-0.142702	1.221079
H161	H	0.906864	-0.644925	0.810698
H162	H	1.406864	-0.144925	1.310698
C163	C	1.112926	-0.971306	0.430207
C164	C	1.612926	-0.471306	0.930207
H165	H	1.138420	-1.004747	0.393774
H166	H	1.638420	-0.504747	0.893774
H167	H	1.087203	-0.941643	0.381068
H168	H	1.587203	-0.441643	0.881068
H169	H	1.144673	-0.943865	0.470698
H170	H	1.644673	-0.443865	0.970698
C171	C	1.085909	-0.640130	0.468578
C172	C	1.585909	-0.140130	0.968578
H173	H	1.111401	-0.673572	0.432147
H174	H	1.611401	-0.173572	0.932147
H175	H	1.060187	-0.610466	0.419436
H176	H	1.560187	-0.110466	0.919436
H177	H	1.117656	-0.612688	0.509067
H178	H	1.617656	-0.112688	1.009067
C179	C	1.100195	-0.288623	1.205165
C180	C	1.600195	0.211377	1.705165
H181	H	1.128048	-0.262958	1.156923
H182	H	1.628048	0.237042	1.656923
H183	H	1.074573	-0.256910	1.244536
H184	H	1.574573	0.243090	1.744536
H185	H	1.129723	-0.316733	1.251418
H186	H	1.629723	0.183267	1.751418
C187	C	0.586972	-0.457318	0.709523
C188	C	1.086972	0.042682	1.209523
H189	H	0.618262	-0.485432	0.752991
H190	H	1.118262	0.014568	1.252991
H191	H	0.559427	-0.429366	0.752077
H192	H	1.059427	0.070634	1.252077
H193	H	0.557112	-0.486739	0.669164
H194	H	1.057112	0.013261	1.169164
C195	C	0.903726	-0.469804	0.973717
C196	C	1.403726	0.030196	1.473717
H197	H	0.875882	-0.495482	1.021954
H198	H	1.375882	0.004518	1.521954
H199	H	0.874199	-0.441702	0.927460
H200	H	1.374199	0.058298	1.427460
H201	H	0.929361	-0.501515	0.934349
H202	H	1.429361	-0.001515	1.434349
H203	H	0.399934	-0.477124	0.740313
H204	H	0.899934	0.022876	1.240313
H205	H	0.604510	-0.281580	0.437596
H206	H	1.104510	0.218420	0.937596
H207	H	0.737651	-0.286925	0.445867
H208	H	1.237651	0.213075	0.945867
C209	C	1.079768	-0.794233	0.477486
C210	C	1.579768	-0.294233	0.977486
H211	H	1.107827	-0.762944	0.437295
H212	H	1.607827	-0.262944	0.937295
H213	H	1.109235	-0.824045	0.521272
H214	H	1.609235	-0.324045	1.021272
H215	H	1.051755	-0.821825	0.431656
H216	H	1.551755	-0.321825	0.931656
C217	C	1.106789	-1.125414	0.439112
C218	C	1.606789	-0.625414	0.939112
H219	H	1.098405	-1.174116	0.451159
H220	H	1.598405	-0.674116	0.951159
H221	H	1.097010	-1.113020	0.367176
H222	H	1.597010	-0.613020	0.867176
H223	H	1.154479	-1.115238	0.456807
H224	H	1.654479	-0.615238	0.956807
H225	H	0.931221	-1.107855	0.690324
H226	H	1.431221	-0.607855	1.190324
