data_functionalizedCrystal
_audit_creation_method	'MofGen! by Chris Wilmer'
_symmetry_space_group_name_H-M	'P1'
_symmetry_Int_Tables_number	1
_symmetry_cell_setting	triclinic
loop_
_symmetry_equiv_pos_as_xyz
  x,y,z
_cell_length_a	13.897449
_cell_length_b	12.759400
_cell_length_c	12.759393
_cell_angle_alpha	90.031564
_cell_angle_beta	89.979470
_cell_angle_gamma	89.984036
loop_
_atom_site_label
_atom_site_type_symbol
_atom_site_fract_x
_atom_site_fract_y
_atom_site_fract_z
Zn1	Zn	1.474721	0.418168	-0.594038
Zn2	Zn	1.474624	0.593887	-0.418359
Zn3	Zn	1.313411	0.418227	-0.418372
Zn4	Zn	1.313400	0.593810	-0.593994
O5	O	1.394039	0.506023	-0.506191
O6	O	1.609690	0.441486	-0.570747
O7	O	1.453202	0.570642	-0.271339
O8	O	1.334854	0.271198	-0.441698
O9	O	1.609618	0.570586	-0.441676
O10	O	1.453368	0.271155	-0.570760
O11	O	1.334760	0.441585	-0.271349
O12	O	1.178428	0.441510	-0.441655
O13	O	1.334836	0.570454	-0.741021
O14	O	1.178420	0.570510	-0.570684
O15	O	1.453358	0.441411	-0.741054
O16	O	1.453192	0.740898	-0.441633
O17	O	1.334742	0.740841	-0.570671
C18	C	1.393982	0.778991	-0.506169
C19	C	1.394045	0.895767	-0.506194
C20	C	1.143425	0.506009	-0.506167
C21	C	1.036211	0.506028	-0.506181
C22	C	1.394106	0.505917	-0.780224
C23	C	1.394135	0.505872	-0.897001
C24	C	0.839915	0.506032	-0.506209
C25	C	0.949148	0.506027	-0.506191
C26	C	1.645632	0.506038	-0.506215
C27	C	1.752846	0.506044	-0.506226
C28	C	1.394123	0.231990	-0.506236
C29	C	1.394158	0.115213	-0.506255
C30	C	1.455791	0.950624	-0.439078
C31	C	1.455850	1.060348	-0.439111
C32	C	1.332410	1.060349	-0.573378
C33	C	1.332356	0.950627	-0.573350
C34	C	1.527055	0.950624	-0.361557
C35	C	1.527114	1.060348	-0.361589
C36	C	1.455858	0.438673	-0.951882
C37	C	1.455881	0.438635	-1.061606
C38	C	1.332456	0.573004	-1.061559
C39	C	1.332429	0.573036	-0.951836
C40	C	1.527119	0.361099	-0.951910
C41	C	1.527142	0.361061	-1.061634
C42	C	1.394027	0.506053	-0.233223
C43	C	1.394185	0.505802	-0.116447
H44	H	1.282087	0.905963	-0.628011
Cl45	Cl	1.485749	0.898204	-0.242182
H46	H	1.601850	0.382852	-1.091415
H47	H	1.598088	1.094291	-0.390804
H48	H	1.507133	0.279735	-0.922153
Cl49	Cl	1.485736	0.241765	-1.114209
H50	H	1.507157	1.090211	-0.280208
H51	H	1.282165	0.627752	-0.907157
H52	H	1.282186	1.105029	-0.628055
Cl53	Cl	1.642354	0.904515	-0.395299
H54	H	1.282214	0.627684	-1.106219
Cl55	Cl	1.636651	0.406124	-0.899356
