data_functionalizedCrystal
_audit_creation_method	'MofGen! by Chris Wilmer'
_symmetry_space_group_name_H-M	'P1'
_symmetry_Int_Tables_number	1
_symmetry_cell_setting	triclinic
loop_
_symmetry_equiv_pos_as_xyz
  x,y,z
_cell_length_a	17.699077
_cell_length_b	16.176319
_cell_length_c	10.654550
_cell_angle_alpha	89.999586
_cell_angle_beta	96.117247
_cell_angle_gamma	90.006844
loop_
_atom_site_label
_atom_site_type_symbol
_atom_site_fract_x
_atom_site_fract_y
_atom_site_fract_z
O1	O	1.005092	0.068735	-0.158762
O2	O	1.338425	0.402069	0.174572
O3	O	1.671758	0.735402	0.507905
O4	O	0.784844	0.068739	-0.179431
O5	O	1.118177	0.402073	0.153902
O6	O	1.451511	0.735406	0.487236
O7	O	0.900032	0.068732	0.013732
O8	O	1.233365	0.402065	0.347065
O9	O	1.566699	0.735399	0.680398
O10	O	0.889904	0.068743	-0.351924
O11	O	1.223237	0.402076	-0.018591
O12	O	1.556571	0.735409	0.314742
O13	O	0.900014	-0.068761	0.013721
O14	O	1.233348	0.264572	0.347054
O15	O	1.566681	0.597906	0.680388
O16	O	0.784827	-0.068754	-0.179442
O17	O	1.118160	0.264580	0.153892
O18	O	1.451493	0.597913	0.487225
O19	O	1.005074	-0.068758	-0.158772
O20	O	1.338408	0.264575	0.174561
O21	O	1.671741	0.597909	0.507894
Cu22	Cu	0.894949	-0.081310	-0.169108
Cu23	Cu	1.228282	0.252023	0.164225
Cu24	Cu	1.561616	0.585357	0.497559
Cu25	Cu	0.894970	0.081292	-0.169095
Cu26	Cu	1.228303	0.414625	0.164238
Cu27	Cu	1.561636	0.747958	0.497571
O28	O	0.889887	-0.068751	-0.351935
O29	O	1.223220	0.264583	-0.018602
O30	O	1.556553	0.597916	0.314732
C31	C	0.756634	-0.000007	-0.178697
C32	C	1.089967	0.333327	0.154636
C33	C	1.423300	0.666660	0.487970
C34	C	0.672601	-0.000005	-0.176479
C35	C	1.005935	0.333328	0.156854
C36	C	1.339268	0.666661	0.490188
C37	C	0.633118	-0.074954	-0.175439
C38	C	0.966451	0.258380	0.157894
C39	C	1.299784	0.591713	0.491227
C40	C	0.554162	-0.074955	-0.173335
C41	C	0.887495	0.258379	0.159998
C42	C	1.220828	0.591712	0.493331
C43	C	0.514690	-0.000006	-0.172280
C44	C	0.848023	0.333327	0.161054
C45	C	1.181357	0.666660	0.494387
C46	C	0.554180	0.074948	-0.173315
C47	C	0.887513	0.408281	0.160018
C48	C	1.220846	0.741615	0.493351
C49	C	0.633135	0.074948	-0.175410
C50	C	0.966468	0.408281	0.157923
C51	C	1.299801	0.741615	0.491256
C52	C	0.235763	0.074949	-0.164864
C53	C	0.569096	0.408283	0.168469
C54	C	0.902429	0.741616	0.501802
C55	C	0.156802	0.074943	-0.162773
C56	C	0.490135	0.408277	0.170560
C57	C	0.823468	0.741610	0.503894
C58	C	0.156790	-0.074953	-0.162789
C59	C	0.490123	0.258380	0.170544
C60	C	0.823456	0.591713	0.503877
C61	C	0.235745	-0.074953	-0.164884
C62	C	0.569078	0.258380	0.168449
C63	C	0.902411	0.591713	0.501782
C64	C	0.275228	0.000000	-0.165913
C65	C	0.608561	0.333334	0.167420
C66	C	0.941894	0.666667	0.500753
C67	C	0.360841	0.000000	-0.168192
C68	C	0.694174	0.333334	0.165141
C69	C	1.027507	0.666667	0.498474
C70	C	0.429078	-0.000006	-0.170009
C71	C	0.762411	0.333328	0.163324
C72	C	1.095744	0.666661	0.496657
N73	N	0.894940	-0.195675	-0.169116
N74	N	1.228273	0.137658	0.164217
N75	N	1.561607	0.470991	0.497551
C76	C	0.945996	-0.761061	-0.083576
C77	C	1.279330	-0.427728	0.249758
C78	C	1.612663	-0.094394	0.583091
C79	C	0.945993	-0.674514	-0.083584
C80	C	1.279326	-0.341181	0.249749
C81	C	1.612660	-0.007847	0.583082
C82	C	0.894974	-0.631251	-0.169090
C83	C	1.228307	-0.297917	0.164244
C84	C	1.561640	0.035416	0.497577
C85	C	0.843960	-0.674539	-0.254600
C86	C	1.177293	-0.341205	0.078733
C87	C	1.510626	-0.007872	0.412066
C88	C	0.843967	-0.761084	-0.254597
C89	C	1.177300	-0.427751	0.078737
C90	C	1.510634	-0.094418	0.412070
C91	C	0.843929	-0.325511	-0.254618
C92	C	1.177262	0.007823	0.078715
C93	C	1.510596	0.341156	0.412049
C94	C	0.843924	-0.238959	-0.254613
C95	C	1.177257	0.094374	0.078721
C96	C	1.510591	0.427708	0.412054
C97	C	0.945955	-0.238940	-0.083606
C98	C	1.279288	0.094393	0.249728
C99	C	1.612621	0.427726	0.583061
C100	C	0.945962	-0.325486	-0.083602
C101	C	1.279296	0.007848	0.249731
C102	C	1.612629	0.341181	0.583065
C103	C	0.894951	-0.368766	-0.169117
C104	C	1.228285	-0.035433	0.164217
C105	C	1.561618	0.297900	0.497550
C106	C	0.894956	-0.462611	-0.169108
C107	C	1.228290	-0.129277	0.164226
C108	C	1.561623	0.204056	0.497559
C109	C	0.894964	-0.537408	-0.169093
C110	C	1.228298	-0.204075	0.164240
C111	C	1.561631	0.129259	0.497573
C112	C	1.033285	-0.000010	-0.159506
C113	C	1.366618	0.333323	0.173827
C114	C	1.699951	0.666657	0.507160
C115	C	1.117317	-0.000006	-0.161724
C116	C	1.450651	0.333327	0.171609
C117	C	1.783984	0.666661	0.504942
C118	C	0.899279	-0.000014	0.060511
C119	C	1.232613	0.333319	0.393845
C120	C	1.565946	0.666653	0.727178
C121	C	0.897055	-0.000013	0.199916
C122	C	1.230388	0.333321	0.533249
C123	C	1.563721	0.666654	0.866582
N124	N	0.894985	0.195657	-0.169077
N125	N	1.228318	0.528990	0.164256
N126	N	1.561651	0.862323	0.497589
C127	C	0.890639	-0.000003	-0.398715
C128	C	1.223972	0.333331	-0.065381
C129	C	1.557306	0.666664	0.267952
C130	C	0.892864	0.000002	-0.538119
C131	C	1.226197	0.333335	-0.204786
C132	C	1.559530	0.666668	0.128548
C133	C	0.964875	-0.000014	0.280591
C134	C	1.298209	0.333320	0.613924
C135	C	1.631542	0.666653	0.947257
C136	C	0.962780	-0.000004	0.411575
C137	C	1.296114	0.333330	0.744908
C138	C	1.629447	0.666663	1.078241
C139	C	0.825038	0.000005	0.381196
C140	C	1.158371	0.333338	0.714529
C141	C	1.491705	0.666672	1.047862
C142	C	0.827134	0.000001	0.250214
C143	C	1.160467	0.333334	0.583547
C144	C	1.493800	0.666667	0.916881
H145	H	0.522036	0.135972	-0.172447
H146	H	0.855369	0.469306	0.160887
H147	H	1.188703	0.802639	0.494220
H148	H	0.987531	-0.639274	-0.013963
H149	H	1.320864	-0.305941	0.319370
H150	H	1.654198	0.027393	0.652703
Cl151	Cl	1.010100	-0.379871	0.023897
Cl152	Cl	1.343434	-0.046537	0.357231
Cl153	Cl	1.676767	0.286796	0.690564
H154	H	0.665281	0.135979	-0.176259
H155	H	0.998614	0.469312	0.157074
H156	H	1.331948	0.802645	0.490408
Cl157	Cl	0.107149	-0.169183	-0.161489
Cl158	Cl	0.440483	0.164151	0.171844
Cl159	Cl	0.773816	0.497484	0.505178
Cl160	Cl	0.504527	-0.169180	-0.172052
Cl161	Cl	0.837860	0.164153	0.161282
Cl162	Cl	1.171193	0.497487	0.494615
H163	H	0.771902	0.000004	0.184524
H164	H	1.105236	0.333337	0.517858
H165	H	1.438569	0.666671	0.851191
Cl166	Cl	1.010087	-0.184526	0.023896
Cl167	Cl	1.343421	0.148808	0.357230
Cl168	Cl	1.676754	0.482141	0.690563
H169	H	0.802376	-0.203735	-0.324246
H170	H	1.135710	0.129598	0.009087
H171	H	1.469043	0.462931	0.342421
Cl172	Cl	0.285361	-0.169178	-0.166219
Cl173	Cl	0.618695	0.164156	0.167115
Cl174	Cl	0.952028	0.497489	0.500448
H175	H	0.987539	-0.796280	-0.013942
H176	H	1.320872	-0.462947	0.319391
H177	H	1.654205	-0.129614	0.652724
Cl178	Cl	0.779823	-0.620152	-0.362101
Cl179	Cl	1.113157	-0.286819	-0.028768
Cl180	Cl	1.446490	0.046514	0.304566
H181	H	0.665249	-0.135986	-0.176310
H182	H	0.998582	0.197348	0.157024
H183	H	1.331916	0.530681	0.490357
Cl184	Cl	0.107181	0.169172	-0.161443
Cl185	Cl	0.440515	0.502505	0.171890
Cl186	Cl	0.773848	0.835838	0.505224
Cl187	Cl	1.048045	-0.000003	0.512991
Cl188	Cl	1.381378	0.333330	0.846324
Cl189	Cl	1.714712	0.666664	1.179657
H190	H	0.267900	0.135981	-0.165698
H191	H	0.601234	0.469315	0.167635
H192	H	0.934567	0.802648	0.500969
H193	H	0.802393	-0.360743	-0.324245
H194	H	1.135726	-0.027410	0.009089
H195	H	1.469059	0.305924	0.342422
H196	H	0.802429	-0.796324	-0.324222
H197	H	1.135763	-0.462991	0.009111
H198	H	1.469096	-0.129657	0.342444
H199	H	0.768111	0.000014	0.422165
H200	H	1.101444	0.333348	0.755499
H201	H	1.434777	0.666681	1.088832
Cl202	Cl	1.052775	-0.000029	0.217363
Cl203	Cl	1.386109	0.333305	0.550696
Cl204	Cl	1.719442	0.666638	0.884029
