data_functionalizedCrystal
_audit_creation_method	'MofGen! by Chris Wilmer'
_symmetry_space_group_name_H-M	'P1'
_symmetry_Int_Tables_number	1
_symmetry_cell_setting	triclinic
loop_
_symmetry_equiv_pos_as_xyz
  x,y,z
_cell_length_a	7.681481
_cell_length_b	8.559649
_cell_length_c	8.559649
_cell_angle_alpha	69.778664
_cell_angle_beta	94.930900
_cell_angle_gamma	85.087445
loop_
_atom_site_label
_atom_site_type_symbol
_atom_site_fract_x
_atom_site_fract_y
_atom_site_fract_z
O1	O	-0.146430	-2.109658	0.037794
O2	O	0.353570	-1.609658	0.537794
O3	O	-0.146430	-1.634173	-0.045988
O4	O	0.353570	-1.134173	0.454012
O5	O	-0.146429	-1.913806	0.233646
O6	O	0.353571	-1.413806	0.733646
O7	O	-0.146432	-1.830024	-0.241840
O8	O	0.353568	-1.330024	0.258160
O9	O	0.146429	-1.948233	0.268133
O10	O	0.646429	-1.448233	0.768133
O11	O	0.146428	-1.668600	-0.011500
O12	O	0.646428	-1.168600	0.488500
O13	O	0.146428	-2.144084	0.072281
O14	O	0.646428	-1.644084	0.572281
Zn15	Zn	0.192925	-1.911808	0.035866
Zn16	Zn	0.692925	-1.411808	0.535866
Zn17	Zn	-0.192928	-1.866449	-0.009573
Zn18	Zn	0.307072	-1.366449	0.490427
O19	O	0.146426	-1.864451	-0.207352
O20	O	0.646426	-1.364451	0.292648
C21	C	-0.000002	-1.591077	-0.035093
C22	C	0.499998	-1.091077	0.464907
C23	C	-0.000002	-1.411378	-0.053992
C24	C	0.499998	-0.911378	0.446008
N25	N	0.456260	-1.942776	0.066880
N26	N	0.956260	-1.442776	0.566880
N27	N	-0.456262	-1.835496	-0.040571
N28	N	0.043738	-1.335496	0.459429
C29	C	-0.000003	-1.937368	0.311198
C30	C	0.499997	-1.437368	0.811198
C31	C	-0.000013	-1.956266	0.490896
C32	C	0.499987	-1.456266	0.990896
C33	C	-0.000002	-1.187180	0.061387
C34	C	0.499998	-0.687180	0.561387
C35	C	-0.000003	-1.366879	0.080286
C36	C	0.499997	-0.866879	0.580286
C37	C	-0.000004	-1.840889	-0.284905
C38	C	0.499996	-1.340889	0.215095
C39	C	-0.000006	-1.821989	-0.464604
C40	C	0.499994	-1.321989	0.035396
H41	H	-0.000011	-1.466256	0.209704
H42	H	0.499989	-0.966256	0.709704
F43	F	0.445450	-1.692355	-0.183929
F44	F	0.945450	-1.192355	0.316071
H45	H	0.531466	-2.052304	0.176553
H46	H	1.031466	-1.552304	0.676553
F47	F	-0.000018	-1.281475	-0.223168
F48	F	0.499982	-0.781475	0.276832
F49	F	-0.000001	-1.652824	0.405504
F50	F	0.499999	-1.152824	0.905504
F51	F	0.000008	-2.125443	0.620800
F52	F	0.500008	-1.625443	1.120800
