data_functionalizedCrystal
_audit_creation_method	'MofGen! by Chris Wilmer'
_symmetry_space_group_name_H-M	'P1'
_symmetry_Int_Tables_number	1
_symmetry_cell_setting	triclinic
loop_
_symmetry_equiv_pos_as_xyz
  x,y,z
_cell_length_a	15.537862
_cell_length_b	14.519731
_cell_length_c	14.750779
_cell_angle_alpha	77.331756
_cell_angle_beta	97.573514
_cell_angle_gamma	65.476644
loop_
_atom_site_label
_atom_site_type_symbol
_atom_site_fract_x
_atom_site_fract_y
_atom_site_fract_z
O1	O	1.229061	-0.272626	-0.079768
O2	O	0.954972	-0.166177	-0.079784
O3	O	1.099276	-0.356083	-0.079767
O4	O	1.084758	-0.082720	-0.079785
O5	O	1.140068	-0.409763	0.079888
O6	O	0.995765	-0.219857	0.079871
O7	O	1.269854	-0.326306	0.079887
Zn8	Zn	1.139286	-0.281604	0.105228
Zn9	Zn	1.085540	-0.210879	-0.105125
O10	O	1.125551	-0.136400	0.079870
C11	C	0.940290	-0.181879	0.000042
C12	C	0.835768	-0.148703	0.000036
C13	C	1.118992	-0.417054	0.000061
C14	C	1.116954	-0.518749	0.000061
C15	C	0.677373	-0.014229	0.000023
C16	C	0.775589	-0.045413	0.000028
C17	C	0.797749	-0.220852	0.000044
C18	C	0.699535	-0.189684	0.000044
C19	C	0.639354	-0.086371	0.000032
C20	C	0.661516	-0.261825	0.000053
C21	C	0.563308	-0.230658	0.000048
C22	C	0.503121	-0.127348	0.000033
C23	C	0.541147	-0.055203	0.000027
C24	C	0.721697	-0.365135	0.000058
C25	C	0.683677	-0.437277	0.000067
C26	C	0.585470	-0.406112	0.000069
C27	C	0.525282	-0.302803	0.000054
C28	C	0.547444	-0.478258	0.000075
C29	C	0.449237	-0.447090	0.000070
C30	C	0.427075	-0.271635	0.000049
C31	C	1.115298	-0.601335	0.000059
C32	C	1.113227	-0.704945	0.000051
C33	C	1.111583	-0.787530	0.000045
C34	C	1.109513	-0.891147	0.000039
C35	C	1.284535	-0.310603	0.000059
C36	C	1.389056	-0.343777	0.000058
C37	C	1.105834	-0.075429	0.000040
C38	C	1.107870	0.026268	0.000033
N39	N	1.175974	-0.329875	0.248788
N40	N	1.048860	-0.162618	-0.248685
C41	C	0.946397	-0.027844	0.600579
C42	C	0.972112	-0.061666	0.701081
C43	C	1.099920	-0.229790	0.701059
C44	C	1.074212	-0.195985	0.600554
C45	C	0.997451	-0.095010	0.550322
C46	C	1.125266	-0.263151	0.550298
C47	C	1.099563	-0.229345	0.449803
C48	C	1.022807	-0.128374	0.399564
C49	C	0.971749	-0.061205	0.449827
C50	C	1.202031	-0.364122	0.600532
C51	C	1.253085	-0.431288	0.550276
C52	C	1.227378	-0.397486	0.449778
C53	C	1.150622	-0.296514	0.399539
C54	C	1.278437	-0.464655	0.399515
C55	C	1.252735	-0.430849	0.299020
C56	C	1.124920	-0.262709	0.299044
H57	H	0.378075	-0.187512	0.000053
O58	O	1.335877	-0.540192	0.604453
H59	H	1.307881	-0.587150	0.650243
H60	H	1.222958	-0.391640	0.682362
O61	O	0.476228	0.056222	0.000033
H62	H	0.414321	0.096496	-0.065036
H63	H	0.423153	-0.101972	0.000026
O64	O	0.612357	-0.589686	0.000091
H65	H	0.687035	-0.599239	0.000097
O66	O	0.888954	0.047703	0.395634
H67	H	0.857769	0.088736	0.447462
O68	O	0.612451	0.097201	0.000012
H69	H	0.655383	0.142137	0.000004
O70	O	0.748598	-0.548705	0.000088
H71	H	0.718445	-0.562919	-0.064981
H72	H	1.062407	-0.180490	0.258143
O73	O	0.862661	-0.332279	0.000057
H74	H	0.865743	-0.390233	0.065133
O75	O	0.863583	0.081048	0.546377
H76	H	0.891560	0.128010	0.500566
O77	O	0.816602	0.032398	0.000027
H78	H	0.758254	0.109468	0.000026
H79	H	0.801658	-0.390503	0.000044
H80	H	0.930532	-0.006961	0.741995
H81	H	0.418281	-0.505835	0.000076
O82	O	0.995074	-0.091912	0.291171
H83	H	1.058646	-0.091763	0.264651
O84	O	1.361230	-0.573557	0.453696
H85	H	1.370524	-0.585780	0.532020
H86	H	1.162422	-0.312003	0.741969
H87	H	1.294309	-0.485543	0.258101
