data_functionalizedCrystal
_audit_creation_method	'MofGen! by Chris Wilmer'
_symmetry_space_group_name_H-M	'P1'
_symmetry_Int_Tables_number	1
_symmetry_cell_setting	triclinic
loop_
_symmetry_equiv_pos_as_xyz
  x,y,z
_cell_length_a	29.839131
_cell_length_b	29.839134
_cell_length_c	13.032268
_cell_angle_alpha	97.163839
_cell_angle_beta	82.859460
_cell_angle_gamma	89.980268
loop_
_atom_site_label
_atom_site_type_symbol
_atom_site_fract_x
_atom_site_fract_y
_atom_site_fract_z
Zn1	Zn	-0.211343	-0.654467	0.590854
Zn2	Zn	-0.276941	-0.663938	0.416102
Zn3	Zn	-0.201799	-0.588888	0.416127
Zn4	Zn	-0.286415	-0.579302	0.590783
O5	O	-0.244125	-0.621649	0.503467
O6	O	-0.220075	-0.718590	0.567692
O7	O	-0.259015	-0.661958	0.269877
O8	O	-0.140200	-0.597635	0.439345
O9	O	-0.268269	-0.725548	0.439303
O10	O	-0.147212	-0.645816	0.567716
O11	O	-0.203808	-0.606819	0.269896
O12	O	-0.212994	-0.524750	0.439277
O13	O	-0.284415	-0.581297	0.737020
O14	O	-0.275161	-0.517707	0.567595
O15	O	-0.229260	-0.636521	0.737073
O16	O	-0.341063	-0.652663	0.439234
O17	O	-0.348023	-0.590481	0.567571
C18	C	-0.244070	-0.504928	0.503432
C19	C	-0.244059	-0.454993	0.503441
C20	C	-0.219075	-0.094772	0.570423
C21	C	-0.219045	-0.282445	0.570409
O22	O	-0.197759	-0.303619	0.627372
N23	N	-0.244083	-0.309547	0.503459
C24	C	-0.269133	-0.289727	0.436512
O25	O	-0.290433	-0.317085	0.379573
C26	C	-0.269165	-0.102054	0.436532
C27	C	-0.244121	-0.074955	0.503480
C28	C	-0.194033	-0.067673	0.637366
C29	C	-0.194039	-0.020757	0.637365
C30	C	-0.219086	-0.000941	0.570421
C31	C	-0.244127	-0.028040	0.503479
C32	C	-0.294217	-0.082235	0.369591
C33	C	-0.294224	-0.035313	0.369604
C34	C	-0.269180	-0.008214	0.436552
C35	C	-0.269180	0.038692	0.436534
N36	N	-0.244141	0.065794	0.503484
C37	C	-0.219094	0.045977	0.570428
C38	C	-0.269114	-0.388258	0.436504
C39	C	-0.269106	-0.435177	0.436498
C40	C	-0.219018	-0.427891	0.570397
C41	C	-0.219024	-0.380973	0.570397
C42	C	-0.244076	-0.361157	0.503455
C43	C	-0.219108	0.144503	0.570420
C44	C	-0.219114	0.191422	0.570410
C45	C	-0.269204	0.184133	0.436515
C46	C	-0.269196	0.137218	0.436521
C47	C	-0.244147	0.117404	0.503482
O48	O	-0.290459	0.059897	0.379609
O49	O	-0.197806	0.073343	0.627374
C50	C	-0.219069	-0.141687	0.570425
C51	C	-0.244110	-0.168786	0.503482
C52	C	-0.269157	-0.148969	0.436538
C53	C	-0.244102	-0.215704	0.503475
C54	C	-0.219055	-0.235521	0.570419
C55	C	-0.194016	-0.208419	0.637369
C56	C	-0.194022	-0.161504	0.637368
C57	C	-0.294195	-0.176071	0.369587
C58	C	-0.294187	-0.222986	0.369593
C59	C	-0.269140	-0.242803	0.436537
C60	C	-0.360844	-0.621571	0.503415
C61	C	-0.410779	-0.621576	0.503428
C62	C	-0.716794	-0.654074	0.436739
C63	C	-0.904469	-0.654127	0.436780
O64	O	-0.925646	-0.681696	0.380039
N65	N	-0.931571	-0.621738	0.503545
C66	C	-0.911752	-0.589334	0.570311
O67	O	-0.939110	-0.561789	0.627107
C68	C	-0.724078	-0.589283	0.570275
C69	C	-0.696977	-0.621672	0.503497
C70	C	-0.689694	-0.686461	0.369968
C71	C	-0.642778	-0.686445	0.369954
C72	C	-0.622961	-0.654044	0.436712
C73	C	-0.650061	-0.621657	0.503483
C74	C	-0.704260	-0.556882	0.637044
C75	C	-0.657338	-0.556873	0.637031
C76	C	-0.630238	-0.589262	0.570254
C77	C	-0.583329	-0.589240	0.570228
N78	N	-0.556227	-0.621630	0.503462
C79	C	-0.576043	-0.654032	0.436704
C80	C	-1.010283	-0.589363	0.570323
C81	C	-1.057201	-0.589375	0.570331
C82	C	-1.049915	-0.654168	0.436801
C83	C	-1.002996	-0.654154	0.436789
C84	C	-0.983181	-0.621752	0.503558
C85	C	-0.477516	-0.653997	0.436680
C86	C	-0.430596	-0.653978	0.436670
C87	C	-0.437886	-0.589186	0.570203
C88	C	-0.484802	-0.589203	0.570210
C89	C	-0.504616	-0.621613	0.503445
O90	O	-0.562122	-0.561689	0.626947
O91	O	-0.548678	-0.681579	0.379932
C92	C	-0.763710	-0.654089	0.436753
C93	C	-0.790810	-0.621703	0.503524
C94	C	-0.770994	-0.589301	0.570282
C95	C	-0.837728	-0.621715	0.503532
C96	C	-0.857544	-0.654116	0.436774
C97	C	-0.830442	-0.686506	0.370008
C98	C	-0.783526	-0.686491	0.369995
C99	C	-0.798096	-0.556911	0.637047
C100	C	-0.845011	-0.556929	0.637055
C101	C	-0.864828	-0.589330	0.570297
C102	C	-0.126950	-0.621738	0.503541
C103	C	-0.077018	-0.621777	0.503573
C104	C	-0.258959	-0.606783	0.776022
C105	C	-0.265280	-0.600449	0.892169
C106	C	-0.244169	0.261174	0.503489
C107	C	-0.244161	0.211238	0.503466
C108	C	-0.229316	-0.636482	0.231972
C109	C	-0.222868	-0.642904	0.115825
C110	C	-0.240809	-0.624948	0.943976
C111	C	-0.247342	-0.618401	1.064020
H112	H	-0.173637	-0.083802	0.691885
O113	O	-0.299437	-0.566240	0.951122
H114	H	-0.324992	-0.583635	1.000837
O115	O	-0.296129	-0.366892	0.364279
H116	H	-0.332365	-0.374929	0.382039
H117	H	-0.273128	-0.592575	1.108534
O118	O	-1.071291	-0.689119	0.364798
H119	H	-1.063238	-0.723386	0.382803
O120	O	-0.635971	-0.521920	0.709046
H121	H	-0.617471	-0.539097	0.762259
H122	H	-0.314579	-0.245047	0.315067
H123	H	-0.198719	0.213484	0.624926
H124	H	-0.314626	-0.019182	0.315093
O125	O	-0.874236	-0.521989	0.709080
H126	H	-0.910192	-0.527436	0.697877
O127	O	-0.401369	-0.688917	0.364648
H128	H	-0.382518	-0.709195	0.411467
H129	H	-0.215021	-0.650768	0.899459
O130	O	-0.416510	-0.554238	0.642206
H131	H	-0.398012	-0.571423	0.695409
H132	H	-1.079262	-0.562997	0.624699
O133	O	-0.188708	-0.677114	1.056879
H134	H	-0.188939	-0.676892	0.971842
O135	O	-0.711065	-0.721413	0.297968
H136	H	-0.729568	-0.704235	0.244763
O137	O	-0.192086	0.123135	0.642628
H138	H	-0.174672	0.149866	0.689162
H139	H	-0.289584	0.115152	0.381998
O140	O	-0.167031	0.008469	0.709580
H141	H	-0.149619	-0.013199	0.756130
H142	H	-0.198631	-0.358911	0.624911
H143	H	-0.198623	-0.444034	0.624902
H144	H	-0.506868	-0.562831	0.624589
O145	O	-0.296110	-0.464404	0.364278
H146	H	-0.313530	-0.442737	0.317739
O147	O	-0.851823	-0.721453	0.298004
H148	H	-0.825099	-0.743973	0.251561
H149	H	-0.994153	-0.562976	0.624696
H150	H	-0.314610	-0.104291	0.315076
O151	O	-0.973767	-0.689091	0.364777
H152	H	-0.995435	-0.711624	0.318367
H153	H	-0.761464	-0.712865	0.315618
H154	H	-0.289594	0.200276	0.382007
O155	O	-0.733483	-0.521949	0.709072
H156	H	-0.728922	-0.525158	0.791094
O157	O	-0.167011	-0.132277	0.709576
H158	H	-0.179233	-0.136815	0.791555
O159	O	-0.167001	-0.229796	0.709578
H160	H	-0.171210	-0.266973	0.698328
O161	O	-0.321205	-0.154701	0.297368
H162	H	-0.338609	-0.181433	0.250811
H163	H	-0.620715	-0.712820	0.315581
O164	O	-0.498883	-0.688948	0.364664
H165	H	-0.472150	-0.711460	0.318229
H166	H	-0.781965	-0.530526	0.691411
