data_functionalizedCrystal
_audit_creation_method	'MofGen! by Chris Wilmer'
_symmetry_space_group_name_H-M	'P1'
_symmetry_Int_Tables_number	1
_symmetry_cell_setting	triclinic
loop_
_symmetry_equiv_pos_as_xyz
  x,y,z
_cell_length_a	16.956984
_cell_length_b	19.188924
_cell_length_c	16.053802
_cell_angle_alpha	92.554672
_cell_angle_beta	87.610701
_cell_angle_gamma	79.597691
loop_
_atom_site_label
_atom_site_type_symbol
_atom_site_fract_x
_atom_site_fract_y
_atom_site_fract_z
O1	O	1.061313	0.025799	-0.069434
O2	O	1.561313	0.525799	0.430566
O3	O	0.829069	0.050317	-0.069436
O4	O	1.329069	0.550317	0.430564
O5	O	0.951895	-0.063966	-0.069425
O6	O	1.451895	0.436034	0.430575
O7	O	0.938487	0.140083	-0.069445
O8	O	1.438487	0.640083	0.430555
O9	O	0.945135	-0.057700	0.069433
O10	O	1.445135	0.442300	0.569433
O11	O	0.822309	0.056584	0.069422
O12	O	1.322309	0.556584	0.569422
O13	O	1.054552	0.032066	0.069424
O14	O	1.554552	0.532066	0.569424
Zn15	Zn	0.937357	0.045319	0.091470
Zn16	Zn	1.437357	0.545319	0.591470
Zn17	Zn	0.946264	0.037064	-0.091482
Zn18	Zn	1.446264	0.537064	0.408518
O19	O	0.931726	0.146349	0.069413
O20	O	1.431726	0.646349	0.569413
C21	C	0.795976	0.054706	-0.000007
C22	C	1.295976	0.554706	0.499993
C23	C	0.707443	0.058439	-0.000007
C24	C	1.207443	0.558439	0.499993
C25	C	0.675577	-0.003971	0.000000
C26	C	1.175577	0.496029	0.500000
C27	C	0.592390	-0.000459	-0.000006
C28	C	1.092390	0.499541	0.499994
C29	C	0.541069	0.065462	-0.000014
C30	C	1.041069	0.565462	0.499986
C31	C	0.572940	0.127876	-0.000024
C32	C	1.072940	0.627876	0.499976
C33	C	0.656126	0.124364	-0.000024
C34	C	1.156126	0.624364	0.499976
C35	C	0.291236	0.082846	-0.000022
C36	C	0.791236	0.582846	0.499978
C37	C	0.208044	0.086353	-0.000019
C38	C	0.708044	0.586353	0.499981
C39	C	0.227501	-0.041982	-0.000003
C40	C	0.727501	0.458018	0.499997
C41	C	0.310687	-0.045488	0.000002
C42	C	0.810687	0.454512	0.500002
C43	C	0.342551	0.016925	-0.000012
C44	C	0.842551	0.516925	0.499988
N45	N	0.456038	0.069052	-0.000018
N46	N	0.956038	0.569052	0.499982
N47	N	0.427581	0.013334	-0.000014
N48	N	0.927581	0.513334	0.499986
C49	C	0.948082	-0.086820	0.000005
C50	C	1.448082	0.413180	0.500005
C51	C	0.946781	-0.164253	0.000007
C52	C	1.446781	0.335747	0.500007
C53	C	0.949859	-0.204035	-0.075685
C54	C	1.449859	0.295965	0.424315
C55	C	0.948626	-0.276790	-0.075691
C56	C	1.448626	0.223210	0.424309
C57	C	0.944330	-0.309763	-0.000001
C58	C	1.444330	0.190237	0.499999
C59	C	0.941247	-0.269972	0.075700
C60	C	1.441247	0.230028	0.575700
C61	C	0.942473	-0.197217	0.075705
C62	C	1.442473	0.302783	0.575705
N63	N	0.985050	-0.429277	0.056333
N64	N	1.485050	0.070723	0.556333
N65	N	0.983888	-0.498391	0.056324
N66	N	1.483888	0.001609	0.556324
C67	C	0.940636	-0.528969	-0.000010
C68	C	1.440636	-0.028969	0.499990
N69	N	0.898602	-0.487824	-0.056346
N70	N	1.398602	0.012176	0.443654
N71	N	0.899768	-0.418704	-0.056340
N72	N	1.399768	0.081296	0.443660
C73	C	0.943001	-0.388653	0.000002
C74	C	1.443001	0.111347	0.500002
C75	C	0.942376	-0.647640	-0.075714
C76	C	1.442376	-0.147640	0.424286
C77	C	0.941138	-0.720396	-0.075717
C78	C	1.441138	-0.220396	0.424283
C79	C	0.933767	-0.713578	0.075677
C80	C	1.433767	-0.213578	0.575677
C81	C	0.934998	-0.640823	0.075678
C82	C	1.434998	-0.140823	0.575678
C83	C	0.939306	-0.607859	-0.000020
C84	C	1.439306	-0.107859	0.499980
C85	C	1.087645	0.027677	-0.000007
C86	C	1.587645	0.527677	0.499993
C87	C	1.176179	0.023944	-0.000012
C88	C	1.676179	0.523944	0.499988
C89	C	0.935540	0.169203	-0.000018
C90	C	1.435540	0.669203	0.499982
C91	C	0.936841	0.246636	-0.000026
C92	C	1.436841	0.746636	0.499974
N93	N	0.931284	0.050953	0.216330
N94	N	1.431284	0.550953	0.716330
N95	N	0.952344	0.031424	-0.216342
N96	N	1.452344	0.531424	0.283658
C97	C	0.983566	0.002340	0.260028
C98	C	1.483566	0.502340	0.760028
C99	C	0.979325	0.006288	0.347435
C100	C	1.479325	0.506288	0.847435
C101	C	0.922805	0.058851	0.391141
C102	C	1.422805	0.558851	0.891141
C103	C	0.870518	0.107466	0.347436
C104	C	1.370518	0.607466	0.847436
C105	C	0.874756	0.103515	0.260031
C106	C	1.374756	0.603515	0.760031
C107	C	0.904294	0.076088	0.652549
C108	C	1.404294	0.576088	1.152549
C109	C	0.900062	0.080037	0.739960
C110	C	1.400062	0.580037	1.239960
C111	C	1.008868	-0.021143	0.739952
C112	C	1.508868	0.478857	1.239952
C113	C	1.013104	-0.025087	0.652546
C114	C	1.513104	0.474913	1.152546
C115	C	0.960814	0.023526	0.608849
C116	C	1.460814	0.523526	1.108849
N117	N	0.918471	0.062888	0.480484
N118	N	1.418471	0.562888	0.980484
N119	N	0.965146	0.019485	0.519507
N120	N	1.465146	0.519485	1.019507
H121	H	0.317169	0.133667	-0.000039
H122	H	0.817169	0.633667	0.499961
O123	O	0.944449	-0.763311	-0.157357
O124	O	1.444449	-0.263311	0.342643
H125	H	0.889711	-0.787247	-0.160974
H126	H	1.389711	-0.287247	0.339026
H127	H	0.939962	-0.164827	0.137344
H128	H	1.439962	0.335173	0.637344
H129	H	0.937747	-0.296824	0.137328
H130	H	1.437747	0.203176	0.637328
H131	H	0.531148	0.181550	-0.000036
H132	H	1.031148	0.681550	0.499964
H133	H	0.824495	0.150262	0.383027
H134	H	1.324495	0.650262	0.883027
H135	H	1.051440	-0.060722	0.775538
H136	H	1.551440	0.439278	1.275538
O137	O	1.074064	-0.081787	0.605416
O138	O	1.574064	0.418213	1.105416
H139	H	1.135388	-0.075689	0.622186
H140	H	1.635388	0.424311	1.122186
O141	O	0.947007	-0.612075	-0.157353
O142	O	1.447007	-0.112075	0.342647
H143	H	0.948925	-0.651961	-0.209989
H144	H	1.448925	-0.151961	0.290011
H145	H	0.166259	0.140037	-0.000022
H146	H	0.666259	0.640037	0.499978
H147	H	0.930264	-0.740423	0.137305
H148	H	1.430264	-0.240423	0.637305
O149	O	1.044512	-0.054369	0.212896
O150	O	1.544512	0.445631	0.712896
H151	H	1.038677	-0.048952	0.144775
H152	H	1.538677	0.451048	0.644775
O153	O	0.931698	-0.597912	0.157317
O154	O	1.431698	-0.097912	0.657317
H155	H	0.928513	-0.633062	0.209950
H156	H	1.428513	-0.133062	0.709950
O157	O	0.818371	0.155950	0.212893
O158	O	1.318371	0.655950	0.712893
H159	H	0.778362	0.193169	0.257967
H160	H	1.278362	0.693169	0.757967
O161	O	1.035728	-0.046132	0.394570
O162	O	1.535728	0.453868	0.894570
H163	H	1.075752	-0.083337	0.349494
H164	H	1.575752	0.416663	0.849494
O165	O	0.690501	0.191676	-0.000022
O166	O	1.190501	0.691676	0.499978
H167	H	0.640840	0.238106	-0.000017
H168	H	1.140840	0.738106	0.499983
H169	H	0.953365	-0.177200	-0.137324
H170	H	1.453365	0.322800	0.362676
H171	H	0.854035	0.122843	0.775541
H172	H	1.354035	0.622843	1.275541
H173	H	0.951127	-0.309185	-0.137331
H174	H	1.451127	0.190815	0.362669
H175	H	0.861719	0.115672	0.616978
H176	H	1.361719	0.615672	1.116978
H177	H	0.566450	-0.051280	-0.000001
H178	H	1.066450	0.448720	0.499999
O179	O	0.730930	-0.075072	0.000009
O180	O	1.230930	0.424928	0.500009
H181	H	0.694793	-0.117879	0.000005
H182	H	1.194793	0.382121	0.500005
O183	O	0.366041	-0.116589	0.000017
O184	O	0.866041	0.383411	0.500017
H185	H	0.329907	-0.159397	0.000018
H186	H	0.829907	0.340603	0.500018
H187	H	0.201549	-0.092796	-0.000001
H188	H	0.701549	0.407204	0.499999
