data_functionalizedCrystal
_audit_creation_method	'MofGen! by Chris Wilmer'
_symmetry_space_group_name_H-M	'P1'
_symmetry_Int_Tables_number	1
_symmetry_cell_setting	triclinic
loop_
_symmetry_equiv_pos_as_xyz
  x,y,z
_cell_length_a	19.288840
_cell_length_b	16.109304
_cell_length_c	18.366186
_cell_angle_alpha	89.996570
_cell_angle_beta	89.983729
_cell_angle_gamma	83.294327
loop_
_atom_site_label
_atom_site_type_symbol
_atom_site_fract_x
_atom_site_fract_y
_atom_site_fract_z
O1	O	0.921612	0.103617	-0.060667
O2	O	1.171612	0.353617	0.189333
O3	O	1.421612	0.603617	0.439333
O4	O	1.671612	0.853617	0.689333
O5	O	0.719383	0.117629	-0.060641
O6	O	0.969383	0.367629	0.189359
O7	O	1.219383	0.617629	0.439359
O8	O	1.469383	0.867629	0.689359
O9	O	0.826052	-0.010427	-0.060655
O10	O	1.076052	0.239573	0.189345
O11	O	1.326052	0.489573	0.439345
O12	O	1.576052	0.739573	0.689345
O13	O	0.814943	0.231673	-0.060653
O14	O	1.064943	0.481673	0.189347
O15	O	1.314943	0.731673	0.439347
O16	O	1.564943	0.981673	0.689347
O17	O	0.826034	-0.010434	0.060444
O18	O	1.076034	0.239566	0.310444
O19	O	1.326034	0.489566	0.560444
O20	O	1.576034	0.739566	0.810444
O21	O	0.719364	0.117623	0.060458
O22	O	0.969364	0.367623	0.310458
O23	O	1.219364	0.617623	0.560458
O24	O	1.469364	0.867623	0.810458
O25	O	0.921594	0.103610	0.060433
O26	O	1.171594	0.353610	0.310433
O27	O	1.421594	0.603610	0.560433
O28	O	1.671594	0.853610	0.810433
Zn29	Zn	0.820476	0.110616	0.079673
Zn30	Zn	1.070476	0.360616	0.329673
Zn31	Zn	1.320476	0.610616	0.579673
Zn32	Zn	1.570476	0.860616	0.829673
Zn33	Zn	0.820500	0.110624	-0.079881
Zn34	Zn	1.070500	0.360624	0.170119
Zn35	Zn	1.320500	0.610624	0.420119
Zn36	Zn	1.570500	0.860624	0.670119
O37	O	0.814925	0.231667	0.060447
O38	O	1.064925	0.481667	0.310447
O39	O	1.314925	0.731667	0.560447
O40	O	1.564925	0.981667	0.810447
C41	C	0.693496	0.117179	-0.000088
C42	C	0.943496	0.367179	0.249912
C43	C	1.193496	0.617179	0.499912
C44	C	1.443496	0.867179	0.749912
C45	C	0.616388	0.115836	-0.000078
C46	C	0.866388	0.365836	0.249922
C47	C	1.116388	0.615836	0.499922
C48	C	1.366388	0.865836	0.749922
C49	C	0.580193	0.115194	-0.066092
C50	C	0.830193	0.365194	0.183908
C51	C	1.080193	0.615194	0.433908
C52	C	1.330193	0.865194	0.683908
C53	C	0.507743	0.113923	-0.066100
C54	C	0.757743	0.363923	0.183900
C55	C	1.007743	0.613923	0.433900
C56	C	1.257743	0.863923	0.683900
C57	C	0.471493	0.113277	-0.000093
C58	C	0.721493	0.363277	0.249907
C59	C	0.971493	0.613277	0.499907
C60	C	1.221493	0.863277	0.749907
C61	C	0.507696	0.113923	0.065929
C62	C	0.757696	0.363923	0.315929
C63	C	1.007696	0.613923	0.565929
C64	C	1.257696	0.863923	0.815929
C65	C	0.580144	0.115203	0.065936
C66	C	0.830144	0.365203	0.315936
C67	C	1.080144	0.615203	0.565936
C68	C	1.330144	0.865203	0.815936
C69	C	0.362036	0.062549	0.050468
C70	C	0.612036	0.312549	0.300468
C71	C	0.862036	0.562549	0.550468
C72	C	1.112036	0.812549	0.800468
C73	C	0.289590	0.061264	0.050458
C74	C	0.539590	0.311264	0.300458
C75	C	0.789590	0.561264	0.550458
C76	C	1.039590	0.811264	0.800458
C77	C	0.248040	0.109334	-0.000112
C78	C	0.498040	0.359334	0.249888
C79	C	0.748040	0.609334	0.499888
C80	C	0.998040	0.859334	0.749888
C81	C	0.278945	0.158677	-0.050684
C82	C	0.528945	0.408677	0.199316
C83	C	0.778945	0.658677	0.449316
C84	C	1.028945	0.908677	0.699316
C85	C	0.351393	0.159957	-0.050677
C86	C	0.601393	0.409957	0.199323
C87	C	0.851393	0.659957	0.449323
C88	C	1.101393	0.909957	0.699323
C89	C	0.392935	0.111890	-0.000093
C90	C	0.642935	0.361890	0.249907
C91	C	0.892935	0.611890	0.499907
C92	C	1.142935	0.861890	0.749907
C93	C	0.133286	0.107315	-0.066139
C94	C	0.383286	0.357315	0.183861
C95	C	0.633286	0.607315	0.433861
C96	C	0.883286	0.857315	0.683861
C97	C	0.060834	0.106049	-0.066145
C98	C	0.310834	0.356049	0.183855
C99	C	0.560834	0.606049	0.433855
C100	C	0.810834	0.856049	0.683855
C101	C	0.060789	0.106041	0.065887
C102	C	0.310789	0.356041	0.315887
C103	C	0.560789	0.606041	0.565887
C104	C	0.810789	0.856041	0.815887
C105	C	0.133239	0.107315	0.065891
C106	C	0.383239	0.357315	0.315891
C107	C	0.633239	0.607315	0.565891
C108	C	0.883239	0.857315	0.815891
C109	C	0.169483	0.107948	-0.000124
C110	C	0.419483	0.357948	0.249876
C111	C	0.669483	0.607948	0.499876
C112	C	0.919483	0.857948	0.749876
C113	C	0.825592	-0.041404	-0.000107
C114	C	1.075592	0.208596	0.249893
C115	C	1.325592	0.458596	0.499893
C116	C	1.575592	0.708596	0.749893
C117	C	0.824242	-0.133694	-0.000112
C118	C	1.074242	0.116306	0.249888
C119	C	1.324242	0.366306	0.499888
C120	C	1.574242	0.616306	0.749888
C121	C	0.821133	-0.346017	-0.066120
C122	C	1.071133	-0.096017	0.183880
C123	C	1.321133	0.153983	0.433880
C124	C	1.571133	0.403983	0.683880
C125	C	0.819858	-0.432733	-0.066119
C126	C	1.069858	-0.182733	0.183881
C127	C	1.319858	0.067267	0.433881
C128	C	1.569858	0.317267	0.683881
C129	C	0.819842	-0.432737	0.065910
C130	C	1.069842	-0.182737	0.315910
C131	C	1.319842	0.067263	0.565910
C132	C	1.569842	0.317263	0.815910
C133	C	0.821112	-0.346022	0.065909
C134	C	1.071112	-0.096022	0.315909
C135	C	1.321112	0.153978	0.565909
C136	C	1.571112	0.403978	0.815909
C137	C	0.821761	-0.302665	-0.000109
C138	C	1.071761	-0.052665	0.249891
C139	C	1.321761	0.197335	0.499891
C140	C	1.571761	0.447335	0.749891
C141	C	0.819216	-0.476095	-0.000106
C142	C	1.069216	-0.226095	0.249894
C143	C	1.319216	0.023905	0.499894
C144	C	1.569216	0.273905	0.749894
C145	C	0.817833	-0.570116	-0.000105
C146	C	1.067833	-0.320116	0.249895
C147	C	1.317833	-0.070116	0.499895
C148	C	1.567833	0.179884	0.749895
C149	C	0.823142	-0.208638	-0.000110
C150	C	1.073142	0.041362	0.249890
C151	C	1.323142	0.291362	0.499890
C152	C	1.573142	0.541362	0.749890
C153	C	0.947481	0.104061	-0.000122
C154	C	1.197481	0.354061	0.249878
C155	C	1.447481	0.604061	0.499878
C156	C	1.697481	0.854061	0.749878
C157	C	1.024589	0.105404	-0.000136
C158	C	1.274589	0.355404	0.249864
C159	C	1.524589	0.605404	0.499864
C160	C	1.774589	0.855404	0.749864
C161	C	0.815384	0.262643	-0.000103
C162	C	1.065384	0.512643	0.249897
C163	C	1.315384	0.762643	0.499897
C164	C	1.565384	1.012643	0.749897
C165	C	0.816734	0.354934	-0.000103
C166	C	1.066734	0.604934	0.249897
C167	C	1.316734	0.854934	0.499897
C168	C	1.566734	1.104934	0.749897
N169	N	0.820465	0.110610	0.188564
N170	N	1.070465	0.360610	0.438564
N171	N	1.320465	0.610610	0.688564
N172	N	1.570465	0.860610	0.938564
N173	N	0.820517	0.110623	-0.188772
N174	N	1.070517	0.360623	0.061228
N175	N	1.320517	0.610623	0.311228
N176	N	1.570517	0.860623	0.561228
C177	C	0.867714	0.053934	0.226658
C178	C	1.117714	0.303934	0.476658
C179	C	1.367714	0.553934	0.726658
C180	C	1.617714	0.803934	0.976658
C181	C	0.867718	0.053930	0.302886
C182	C	1.117718	0.303930	0.552886
C183	C	1.367718	0.553930	0.802886
C184	C	1.617718	0.803930	1.052886
C185	C	0.820481	0.110616	0.341016
C186	C	1.070481	0.360616	0.591016
C187	C	1.320481	0.610616	0.841016
C188	C	1.570481	0.860616	1.091016
C189	C	0.773223	0.167297	0.302913
C190	C	1.023223	0.417297	0.552913
C191	C	1.273223	0.667297	0.802913
C192	C	1.523223	0.917297	1.052913
C193	C	0.773215	0.167293	0.226687
C194	C	1.023215	0.417293	0.476687
C195	C	1.273215	0.667293	0.726687
C196	C	1.523215	0.917293	0.976687
C197	C	0.811364	0.186371	0.461778
C198	C	1.061364	0.436371	0.711778
C199	C	1.311364	0.686371	0.961778
C200	C	1.561364	0.936371	1.211778
C201	C	0.811376	0.186375	0.538003
C202	C	1.061376	0.436375	0.788003
C203	C	1.311376	0.686375	1.038003
C204	C	1.561376	0.936375	1.288003
C205	C	0.820500	0.110627	0.576124
C206	C	1.070500	0.360627	0.826124
C207	C	1.320500	0.610627	1.076124
C208	C	1.570500	0.860627	1.326124
C209	C	0.829626	0.034870	0.538010
C210	C	1.079626	0.284870	0.788010
C211	C	1.329626	0.534870	1.038010
C212	C	1.579626	0.784870	1.288010
C213	C	0.829619	0.034867	0.461784
C214	C	1.079619	0.284867	0.711784
C215	C	1.329619	0.534867	0.961784
C216	C	1.579619	0.784867	1.211784
C217	C	0.820483	0.110626	0.423671
C218	C	1.070483	0.360626	0.673671
C219	C	1.320483	0.610626	0.923671
C220	C	1.570483	0.860626	1.173671
C221	C	0.867756	0.053942	0.696873
C222	C	1.117756	0.303942	0.946873
C223	C	1.367756	0.553942	1.196873
C224	C	1.617756	0.803942	1.446873
C225	C	0.867756	0.053937	0.773102
C226	C	1.117756	0.303937	1.023102
C227	C	1.367756	0.553937	1.273102
C228	C	1.617756	0.803937	1.523102
C229	C	0.773264	0.167311	0.773128
C230	C	1.023264	0.417311	1.023128
C231	C	1.273264	0.667311	1.273128
C232	C	1.523264	0.917311	1.523128
C233	C	0.773261	0.167309	0.696900
C234	C	1.023261	0.417309	0.946900
C235	C	1.273261	0.667309	1.196900
C236	C	1.523261	0.917309	1.446900
C237	C	0.820511	0.110625	0.658777
C238	C	1.070511	0.360625	0.908777
C239	C	1.320511	0.610625	1.158777
C240	C	1.570511	0.860625	1.408777
H241	H	0.376552	0.200136	-0.091853
H242	H	0.626552	0.450136	0.158147
H243	H	0.876552	0.700136	0.408147
H244	H	1.126552	0.950136	0.658147
H245	H	0.906228	0.007784	0.665832
H246	H	1.156228	0.257784	0.915832
H247	H	1.406228	0.507784	1.165832
H248	H	1.656228	0.757784	1.415832
H249	H	0.821659	-0.310718	-0.119875
H250	H	1.071659	-0.060718	0.130125
H251	H	1.321659	0.189282	0.380125
H252	H	1.571659	0.439282	0.630125
H253	H	0.031275	0.105520	0.119632
H254	H	0.281275	0.355520	0.369632
H255	H	0.531275	0.605520	0.619632
H256	H	0.781275	0.855520	0.869632
H257	H	0.162796	0.107839	-0.119892
H258	H	0.412796	0.357839	0.130108
H259	H	0.662796	0.607839	0.380108
H260	H	0.912796	0.857839	0.630108
H261	H	0.162710	0.107832	0.119646
H262	H	0.412710	0.357832	0.369646
H263	H	0.662710	0.607832	0.619646
H264	H	0.912710	0.857832	0.869646
H265	H	0.819345	-0.468026	-0.119872
H266	H	1.069345	-0.218026	0.130128
H267	H	1.319345	0.031974	0.380128
H268	H	1.569345	0.281974	0.630128
H269	H	0.906195	0.007776	0.333908
H270	H	1.156195	0.257776	0.583908
H271	H	1.406195	0.507776	0.833908
H272	H	1.656195	0.757776	1.083908
H273	H	0.819315	-0.468049	0.119659
H274	H	1.069315	-0.218049	0.369659
H275	H	1.319315	0.031951	0.619659
H276	H	1.569315	0.281951	0.869659
H277	H	0.821619	-0.310723	0.119666
H278	H	1.071619	-0.060723	0.369666
H279	H	1.321619	0.189277	0.619666
H280	H	1.571619	0.439277	0.869666
H281	H	0.837056	-0.026812	0.569047
H282	H	1.087056	0.223188	0.819047
H283	H	1.337056	0.473188	1.069047
H284	H	1.587056	0.723188	1.319047
H285	H	0.264433	0.021082	0.091634
H286	H	0.514433	0.271082	0.341634
H287	H	0.764433	0.521082	0.591634
H288	H	1.014433	0.771082	0.841634
H289	H	0.906186	0.007777	0.195620
H290	H	1.156186	0.257777	0.445620
H291	H	1.406186	0.507777	0.695620
H292	H	1.656186	0.757777	0.945620
H293	H	0.837048	-0.026817	0.430755
H294	H	1.087048	0.223183	0.680755
H295	H	1.337048	0.473183	0.930755
H296	H	1.587048	0.723183	1.180755
H297	H	0.395861	0.023403	0.091652
H298	H	0.645861	0.273403	0.341652
H299	H	0.895861	0.523403	0.591652
H300	H	1.145861	0.773403	0.841652
H301	H	0.906229	0.007781	0.804119
H302	H	1.156229	0.257781	1.054119
H303	H	1.406229	0.507781	1.304119
H304	H	1.656229	0.757781	1.554119
H305	H	0.734800	0.213463	0.804174
H306	H	0.984800	0.463463	1.054174
H307	H	1.234800	0.713463	1.304174
H308	H	1.484800	0.963463	1.554174
H309	H	0.031364	0.105531	-0.119903
H310	H	0.281364	0.355531	0.130097
H311	H	0.531364	0.605531	0.380097
H312	H	0.781364	0.855531	0.630097
H313	H	0.245115	0.197823	-0.091861
H314	H	0.495115	0.447823	0.158139
H315	H	0.745115	0.697823	0.408139
H316	H	0.995115	0.947823	0.658139
H317	H	0.734790	0.213463	0.665882
H318	H	0.984790	0.463463	0.915882
H319	H	1.234790	0.713463	1.165882
H320	H	1.484790	0.963463	1.415882
H321	H	0.803950	0.248061	0.569029
H322	H	1.053950	0.498061	0.819029
H323	H	1.303950	0.748061	1.069029
H324	H	1.553950	0.998061	1.319029
H325	H	0.803922	0.248059	0.430746
H326	H	1.053922	0.498059	0.680746
H327	H	1.303922	0.748059	0.930746
H328	H	1.553922	0.998059	1.180746
H329	H	0.734760	0.213450	0.333963
H330	H	0.984760	0.463450	0.583963
H331	H	1.234760	0.713450	0.833963
H332	H	1.484760	0.963450	1.083963
H333	H	0.609698	0.115709	-0.119846
H334	H	0.859698	0.365709	0.130154
H335	H	1.109698	0.615709	0.380154
H336	H	1.359698	0.865709	0.630154
H337	H	0.478267	0.113401	-0.119858
H338	H	0.728267	0.363401	0.130142
H339	H	0.978267	0.613401	0.380142
H340	H	1.228267	0.863401	0.630142
H341	H	0.734739	0.213446	0.195670
H342	H	0.984739	0.463446	0.445670
H343	H	1.234739	0.713446	0.695670
H344	H	1.484739	0.963446	0.945670
H345	H	0.478176	0.113399	0.119673
H346	H	0.728176	0.363399	0.369673
H347	H	0.978176	0.613399	0.619673
H348	H	1.228176	0.863399	0.869673
H349	H	0.609613	0.115726	0.119694
H350	H	0.859613	0.365726	0.369694
H351	H	1.109613	0.615726	0.619694
H352	H	1.359613	0.865726	0.869694
