data_functionalizedCrystal
_audit_creation_method	'MofGen! by Chris Wilmer'
_symmetry_space_group_name_H-M	'P1'
_symmetry_Int_Tables_number	1
_symmetry_cell_setting	triclinic
loop_
_symmetry_equiv_pos_as_xyz
  x,y,z
_cell_length_a	23.532407
_cell_length_b	15.944551
_cell_length_c	15.021413
_cell_angle_alpha	90.008907
_cell_angle_beta	90.001925
_cell_angle_gamma	96.826293
loop_
_atom_site_label
_atom_site_type_symbol
_atom_site_fract_x
_atom_site_fract_y
_atom_site_fract_z
O1	O	-0.755658	0.101953	-0.073912
O2	O	-0.589851	0.116707	-0.073937
O3	O	-0.677282	-0.012983	-0.073929
O4	O	-0.668227	0.231643	-0.073920
O5	O	-0.677268	-0.012965	0.074135
O6	O	-0.589838	0.116725	0.074128
O7	O	-0.755644	0.101972	0.074152
Zn8	Zn	-0.672738	0.109351	0.097648
Zn9	Zn	-0.672757	0.109327	-0.097433
O10	O	-0.668213	0.231661	0.074144
C11	C	-0.676899	-0.044265	0.000100
C12	C	-0.675772	-0.137501	0.000090
C13	C	-0.568627	0.116340	0.000092
C14	C	-0.505406	0.115211	0.000082
C15	C	-0.776868	0.102338	0.000122
C16	C	-0.840090	0.103468	0.000126
C17	C	-0.106572	0.184874	0.000125
C18	C	-0.047168	0.183824	0.000130
O19	O	-0.010674	0.248403	0.000165
N20	N	-0.024243	0.106724	0.000126
C21	C	-0.060726	0.030668	0.000125
O22	O	-0.035772	-0.035009	0.000123
C23	C	-0.120129	0.031718	0.000126
C24	C	-0.143051	0.108823	0.000122
C25	C	-0.129494	0.261973	0.000121
C26	C	-0.188894	0.263022	0.000114
C27	C	-0.225373	0.186971	0.000111
C28	C	-0.202451	0.109872	0.000115
C29	C	-0.156611	-0.044337	0.000132
C30	C	-0.216018	-0.043281	0.000134
C31	C	-0.238939	0.033825	0.000129
C32	C	-0.298329	0.034871	0.000104
N33	N	-0.321254	0.111971	0.000109
C34	C	-0.284776	0.188022	0.000112
C35	C	0.064025	0.028468	0.000125
C36	C	0.123427	0.027417	0.000118
C37	C	0.136981	0.180574	0.000124
C38	C	0.077578	0.181624	0.000125
C39	C	0.041100	0.105569	0.000129
C40	C	-0.409521	0.190219	0.000096
C41	C	-0.468927	0.191261	0.000085
C42	C	-0.482476	0.038104	0.000084
C43	C	-0.423075	0.037062	0.000090
C44	C	-0.386599	0.113126	0.000099
O45	O	-0.334859	-0.029673	0.000073
O46	O	-0.309738	0.253687	0.000126
C47	C	-0.668596	0.262943	0.000114
C48	C	-0.669723	0.356179	0.000118
N49	N	-0.672730	0.109367	0.230786
C50	C	-0.726610	0.570557	0.000113
C51	C	-0.700187	0.631805	0.073113
C52	C	-0.671762	0.526888	0.000110
C53	C	-0.700188	0.631772	-0.072867
C54	C	-0.673735	0.691784	0.000099
C55	C	-0.645323	0.586908	0.073171
C56	C	-0.645332	0.586869	-0.072875
C57	C	-0.618868	0.648100	0.000143
C58	C	-0.670626	0.431895	0.000117
C59	C	-0.674866	0.786776	0.000098
N60	N	-0.672770	0.109304	-0.230570
C61	C	-0.632296	0.169308	0.470466
C62	C	-0.683757	0.185181	0.529809
C63	C	-0.672745	0.109346	0.412393
C64	C	-0.621298	0.093492	0.529791
C65	C	-0.672754	0.109328	0.587817
C66	C	-0.724232	0.125257	0.470429
C67	C	-0.661739	0.033535	0.470407
C68	C	-0.713237	0.049376	0.529723
C69	C	-0.672738	0.109359	0.311336
C70	C	-0.672766	0.109314	0.688872
H71	H	-0.379828	0.252157	0.000107
H72	H	-0.573301	0.681642	0.000177
H73	H	-0.245716	-0.105216	0.000138
O74	O	-0.617768	0.563094	-0.146601
C75	C	-0.646834	0.585697	-0.223420
H76	H	-0.693263	0.592071	-0.205923
H77	H	-0.625297	0.648516	-0.250057
C78	C	-0.587935	0.509087	-0.316475
C79	C	-0.644961	0.516909	-0.294986
H80	H	-0.586778	0.466659	-0.360623
H81	H	-0.568351	0.493862	-0.264722
H82	H	-0.569993	0.561441	-0.338668
H83	H	-0.662899	0.464559	-0.272783
H84	H	-0.664548	0.532124	-0.346737
O85	O	-0.727955	0.655381	-0.146467
C86	C	-0.784741	0.615509	-0.146165
H87	H	-0.787466	0.556091	-0.103427
H88	H	-0.814274	0.660515	-0.117666
C89	C	-0.799846	0.664402	-0.294557
C90	C	-0.803192	0.591420	-0.242072
H91	H	-0.811229	0.649546	-0.353717
H92	H	-0.761589	0.691268	-0.294760
H93	H	-0.824457	0.701900	-0.270797
H94	H	-0.778576	0.553929	-0.265826
H95	H	-0.841445	0.564547	-0.241876
H96	H	-0.598124	0.220056	0.444447
H97	H	-0.693074	0.249285	0.555900
H98	H	-0.137960	-0.107125	0.000137
O99	O	-0.650707	-0.042947	0.439203
C100	C	-0.697351	-0.079066	0.387556
H101	H	-0.737598	-0.050514	0.407839
H102	H	-0.688076	-0.065651	0.314106
C103	C	-0.657032	-0.210275	0.378046
C104	C	-0.706466	-0.175213	0.402964
H105	H	-0.662653	-0.269583	0.387547
H106	H	-0.625606	-0.185941	0.412839
H107	H	-0.649308	-0.199088	0.316839
H108	H	-0.714185	-0.186391	0.464172
H109	H	-0.737894	-0.199551	0.368181
H110	H	-0.747484	-0.001343	0.555579
H111	H	-0.767753	0.138736	0.444464
O112	O	-0.569365	0.077447	0.560747
C113	C	-0.532770	0.067017	0.488291
H114	H	-0.559484	0.047864	0.426667
H115	H	-0.504678	0.129024	0.474894
C116	C	-0.461848	0.021259	0.586171
C117	C	-0.494658	-0.002272	0.510485
H118	H	-0.438336	-0.021479	0.599861
H119	H	-0.486501	0.028289	0.634987
H120	H	-0.438442	0.072933	0.574997
H121	H	-0.518068	-0.053939	0.521663
H122	H	-0.470008	-0.009312	0.461671
O123	O	-0.491122	0.266220	-0.000037
C124	C	-0.472488	0.312526	-0.076729
H125	H	-0.431287	0.289978	-0.102289
H126	H	-0.506860	0.302501	-0.130431
C127	C	-0.511962	0.434806	-0.022040
C128	C	-0.461356	0.407116	-0.053429
H129	H	-0.505097	0.493154	-0.007670
H130	H	-0.524518	0.403608	0.029628
H131	H	-0.540600	0.426444	-0.066797
H132	H	-0.432721	0.415468	-0.008669
H133	H	-0.448794	0.438318	-0.105089
O134	O	-0.211061	0.337996	0.000160
C135	C	-0.166117	0.404886	0.000145
H136	H	-0.125762	0.381678	0.028172
H137	H	-0.157716	0.428316	-0.070886
C138	C	-0.232450	0.506156	0.023798
C139	C	-0.182886	0.477654	0.058228
H140	H	-0.242794	0.551045	0.059623
H141	H	-0.262730	0.461093	0.023805
H142	H	-0.225442	0.525675	-0.035394
H143	H	-0.189897	0.458126	0.117414
H144	H	-0.152607	0.522716	0.058233
O145	O	-0.617698	0.563161	0.146851
C146	C	-0.616978	0.474869	0.145973
H147	H	-0.653542	0.444359	0.102717
H148	H	-0.574459	0.459473	0.117736
C149	C	-0.579326	0.477911	0.294714
C150	C	-0.624238	0.440437	0.241593
H151	H	-0.583802	0.456671	0.353697
H152	H	-0.579809	0.537395	0.295305
H153	H	-0.543898	0.465078	0.271173
H154	H	-0.659664	0.453279	0.265128
H155	H	-0.623761	0.380954	0.241008
H156	H	-0.099799	0.323906	0.000127
H157	H	0.058920	0.244410	0.000126
H158	H	0.142084	-0.035370	0.000108
O159	O	0.172398	0.254475	-0.000023
C160	C	0.162001	0.301324	-0.076692
H161	H	0.141702	0.256807	-0.130296
H162	H	0.131751	0.349689	-0.059353
C163	C	0.243859	0.401982	-0.045616
C164	C	0.218932	0.347303	-0.111456
H165	H	0.278975	0.430347	-0.067059
H166	H	0.250862	0.370421	0.006039
H167	H	0.218644	0.442278	-0.031173
H168	H	0.244143	0.307003	-0.125890
H169	H	0.211934	0.378859	-0.163115
O170	O	0.028673	-0.045495	0.000075
C171	C	0.061652	-0.113763	0.000092
H172	H	0.105982	-0.092054	-0.027935
H173	H	0.065888	-0.137415	0.071124
C174	C	-0.022377	-0.212374	-0.023560
C175	C	0.032069	-0.185712	-0.057990
H176	H	-0.040626	-0.256757	-0.059383
H177	H	-0.044596	-0.166381	-0.023568
H178	H	-0.018839	-0.232078	0.035633
H179	H	0.028530	-0.165998	-0.117177
H180	H	0.054287	-0.231703	-0.057993
O181	O	-0.517998	-0.035690	0.000123
C182	C	-0.575342	-0.018221	0.000099
H183	H	-0.577622	0.047743	0.028123
H184	H	-0.592524	-0.021567	-0.070935
C185	C	-0.608891	-0.164741	0.023751
C186	C	-0.611692	-0.083726	0.058178
H187	H	-0.631314	-0.205149	0.059574
H188	H	-0.570257	-0.176512	0.023764
H189	H	-0.623208	-0.167517	-0.035443
H190	H	-0.597368	-0.080948	0.117367
H191	H	-0.650324	-0.071956	0.058177
O192	O	-0.400872	-0.037888	-0.000034
C193	C	-0.419494	-0.084218	-0.076734
H194	H	-0.460696	-0.061686	-0.102309
H195	H	-0.385118	-0.074198	-0.130423
C196	C	-0.380011	-0.206472	-0.022033
C197	C	-0.430619	-0.178803	-0.053441
H198	H	-0.386871	-0.264817	-0.007667
H199	H	-0.367463	-0.175258	0.029640
H200	H	-0.351369	-0.198115	-0.066779
H201	H	-0.459257	-0.187150	-0.008691
H202	H	-0.443172	-0.210020	-0.105106
O203	O	-0.780932	0.530395	0.000360
C204	C	-0.809636	0.553160	0.077472
H205	H	-0.776938	0.575432	0.130998
H206	H	-0.836252	0.606323	0.060818
C207	C	-0.889364	0.448770	0.046152
C208	C	-0.849204	0.476119	0.111897
H209	H	-0.913774	0.401250	0.067385
H210	H	-0.870027	0.433435	-0.005802
H211	H	-0.911538	0.493080	0.032280
H212	H	-0.827026	0.431813	0.125759
H213	H	-0.868539	0.491445	0.163853
H214	H	-0.723380	0.651724	0.134836
