data_functionalizedCrystal
_audit_creation_method	'MofGen! by Chris Wilmer'
_symmetry_space_group_name_H-M	'P1'
_symmetry_Int_Tables_number	1
_symmetry_cell_setting	triclinic
loop_
_symmetry_equiv_pos_as_xyz
  x,y,z
_cell_length_a	13.635800
_cell_length_b	11.102244
_cell_length_c	11.102300
_cell_angle_alpha	88.053517
_cell_angle_beta	108.605850
_cell_angle_gamma	71.395130
loop_
_atom_site_label
_atom_site_type_symbol
_atom_site_fract_x
_atom_site_fract_y
_atom_site_fract_z
V1	V	2.055762	-0.175838	0.396253
O2	O	2.035282	0.008450	0.388713
O3	O	2.044147	-0.348658	0.393540
O4	O	2.044153	-0.173133	0.569074
O5	O	2.035276	-0.168290	0.211964
V6	V	2.294314	-0.153795	0.374211
O7	O	2.193432	-0.224191	0.444604
O8	O	2.381742	-0.105442	0.325860
O9	O	2.194325	0.019024	0.376924
O10	O	2.373493	-0.338083	0.381751
O11	O	2.373498	-0.161344	0.558500
O12	O	2.194320	-0.156500	0.201390
V13	V	2.555762	-0.175838	0.396253
O14	O	2.535282	0.008450	0.388713
O15	O	2.544147	-0.348658	0.393540
O16	O	2.544153	-0.173133	0.569074
O17	O	2.535276	-0.168290	0.211964
V18	V	2.794314	-0.153795	0.374211
O19	O	2.693432	-0.224191	0.444604
O20	O	2.881742	-0.105442	0.325860
O21	O	2.694325	0.019024	0.376924
O22	O	2.873493	-0.338083	0.381751
O23	O	2.873498	-0.161344	0.558500
O24	O	2.694320	-0.156500	0.201390
C25	C	1.969302	-0.390787	0.387288
C26	C	2.000533	-0.532070	0.386221
C27	C	1.985120	-0.580305	0.269341
C28	C	2.014472	-0.713057	0.268354
C29	C	2.074647	-0.749329	0.501137
C30	C	2.045302	-0.616579	0.502124
C31	C	1.940351	-0.495795	0.153439
C32	C	1.924934	-0.544028	0.036549
C33	C	1.954286	-0.676781	0.035561
C34	C	1.999056	-0.761299	0.151464
C35	C	1.969308	-0.166887	0.611198
C36	C	2.000541	-0.165819	0.752480
C37	C	2.100842	0.061148	0.383173
C38	C	2.059230	0.202429	0.384248
C39	C	2.100835	-0.162751	0.159260
C40	C	2.059221	-0.163812	0.017976
C41	C	2.469302	-0.390787	0.387288
C42	C	2.500533	-0.532070	0.386221
C43	C	2.107220	-0.171664	0.825329
C44	C	2.136559	-0.170656	0.958077
C45	C	1.952532	-0.157962	0.945117
C46	C	1.923192	-0.158961	0.812370
C47	C	2.636553	-0.737678	0.391076
C48	C	2.607212	-0.604927	0.392064
C49	C	2.423187	-0.591969	0.379378
C50	C	2.452527	-0.724716	0.378381
C51	C	2.469308	-0.166887	0.611198
C52	C	2.500541	-0.165819	0.752480
C53	C	2.600842	0.061148	0.383173
C54	C	2.559230	0.202429	0.384248
C55	C	2.600835	-0.162751	0.159260
C56	C	2.559221	-0.163812	0.017976
C57	C	2.607220	-0.171664	0.825329
C58	C	2.636559	-0.170656	0.958077
C59	C	2.452532	-0.157962	0.945117
C60	C	2.423192	-0.158961	0.812370
H61	H	1.916441	-0.387699	0.154229
H62	H	2.022961	-0.869394	0.150651
H63	H	2.389541	-0.773479	0.372810
Br64	Br	2.712192	-0.180967	0.744053
Br65	Br	2.347570	-0.148671	1.026406
H66	H	2.723422	-0.796991	0.395841
Br67	Br	2.212192	-0.180967	0.744053
Br68	Br	1.864209	-0.429332	-0.120737
H69	H	2.111096	-0.818154	0.595499
Br70	Br	2.066230	-0.551110	0.660750
Br71	Br	2.712175	-0.523648	0.401327
Br72	Br	2.281341	-0.178586	1.056939
H73	H	2.336315	-0.154191	0.753052
H74	H	1.889562	-0.152382	0.993896
Br75	Br	1.933383	-0.742240	-0.123069
Br76	Br	1.778400	-0.151019	0.713493
H77	H	2.336323	-0.532636	0.374613
Br78	Br	2.781341	-0.178586	1.056939
