data_functionalizedCrystal
_audit_creation_method	'MofGen! by Chris Wilmer'
_symmetry_space_group_name_H-M	'P1'
_symmetry_Int_Tables_number	1
_symmetry_cell_setting	triclinic
loop_
_symmetry_equiv_pos_as_xyz
  x,y,z
_cell_length_a	11.792254
_cell_length_b	11.792241
_cell_length_c	9.130313
_cell_angle_alpha	89.999168
_cell_angle_beta	89.995546
_cell_angle_gamma	95.803993
loop_
_atom_site_label
_atom_site_type_symbol
_atom_site_fract_x
_atom_site_fract_y
_atom_site_fract_z
O1	O	0.155566	-1.506915	-0.121636
O2	O	0.171599	-1.176575	-0.121675
O3	O	-0.001587	-1.349754	-0.121644
O4	O	0.328752	-1.333736	-0.121667
O5	O	-0.001591	-1.349740	0.121955
O6	O	0.171595	-1.176561	0.121924
O7	O	0.155562	-1.506901	0.121963
Cu8	Cu	0.163578	-1.341730	0.144186
Cu9	Cu	0.163583	-1.341746	-0.143898
O10	O	0.328748	-1.333722	0.121932
C11	C	0.170590	-1.134277	0.000120
C12	C	0.167576	-1.008263	0.000105
C13	C	0.162033	-0.777551	0.000144
C14	C	0.165112	-0.905936	0.000123
C15	C	-0.043880	-1.348738	0.000155
C16	C	-0.169893	-1.345718	0.000153
C17	C	-0.272229	-1.343264	0.000148
C18	C	-0.400616	-1.340196	0.000134
C19	C	0.371041	-1.334738	0.000130
C20	C	0.497054	-1.337758	0.000122
C21	C	0.156571	-0.549199	0.000162
C22	C	0.159586	-0.675213	0.000156
N23	N	0.163574	-1.341727	0.346809
C24	C	0.086920	-1.418436	0.423474
C25	C	0.086921	-1.418446	0.576811
C26	C	0.240240	-1.265034	0.576803
C27	C	0.240233	-1.265019	0.423469
N28	N	0.163582	-1.341751	0.653479
H29	H	0.024498	-1.480895	0.361061
O30	O	0.012419	-1.493073	0.651056
C31	C	-0.055259	-1.560748	0.550507
H32	H	-0.008715	-1.562304	0.441199
H33	H	-0.139827	-1.523381	0.534214
C34	C	-0.134986	-1.681135	0.744591
C35	C	-0.077816	-1.683054	0.610341
H36	H	-0.148906	-1.756578	0.781501
H37	H	-0.089394	-1.635539	0.812335
H38	H	-0.205454	-1.649991	0.730996
H39	H	-0.007345	-1.714184	0.623941
H40	H	-0.123397	-1.728658	0.542601
O41	O	0.314551	-1.190484	0.651440
C42	C	0.253295	-1.120085	0.740132
H43	H	0.164785	-1.164747	0.763111
H44	H	0.245015	-1.036149	0.681057
C45	C	0.425841	-1.041385	0.857555
C46	C	0.317134	-1.096243	0.885788
H47	H	0.465221	-1.026673	0.947400
H48	H	0.467112	-1.088810	0.797798
H49	H	0.418926	-0.971444	0.808322
H50	H	0.324051	-1.166189	0.935003
H51	H	0.275866	-1.048829	0.945557
O52	O	0.314859	-1.190614	0.349055
C53	C	0.427345	-1.209734	0.386522
H54	H	0.428519	-1.300609	0.428661
H55	H	0.460263	-1.147038	0.475526
C56	C	0.502725	-1.080944	0.198539
C57	C	0.504168	-1.192561	0.250283
H58	H	0.550115	-1.070345	0.114504
H59	H	0.426942	-1.068058	0.173299
H60	H	0.530154	-1.028709	0.272722
H61	H	0.476726	-1.244792	0.176107
H62	H	0.579949	-1.205455	0.275507
