data_functionalizedCrystal
_audit_creation_method	'MofGen! by Chris Wilmer'
_symmetry_space_group_name_H-M	'P1'
_symmetry_Int_Tables_number	1
_symmetry_cell_setting	triclinic
loop_
_symmetry_equiv_pos_as_xyz
  x,y,z
_cell_length_a	29.839131
_cell_length_b	29.839134
_cell_length_c	29.839125
_cell_angle_alpha	89.978020
_cell_angle_beta	90.025363
_cell_angle_gamma	89.969912
loop_
_atom_site_label
_atom_site_type_symbol
_atom_site_fract_x
_atom_site_fract_y
_atom_site_fract_z
Zn1	Zn	-0.178978	-0.686739	0.254101
Zn2	Zn	-0.254090	-0.686679	0.178961
Zn3	Zn	-0.178968	-0.611622	0.178971
Zn4	Zn	-0.254075	-0.611578	0.254049
O5	O	-0.216528	-0.649154	0.216521
O6	O	-0.188952	-0.749598	0.244151
O7	O	-0.244127	-0.676716	0.116095
O8	O	-0.116102	-0.621630	0.188963
O9	O	-0.244137	-0.749554	0.188946
O10	O	-0.116109	-0.676818	0.244161
O11	O	-0.188935	-0.621572	0.116102
O12	O	-0.188921	-0.548749	0.188912
O13	O	-0.244111	-0.621554	0.316923
O14	O	-0.244101	-0.548716	0.244072
O15	O	-0.188937	-0.676775	0.316961
O16	O	-0.316955	-0.676673	0.188896
O17	O	-0.316944	-0.621497	0.244063
C18	C	-0.333250	-0.649086	0.216483
C19	C	-0.383185	-0.649098	0.216482
C20	C	-0.216509	-0.532432	0.216488
C21	C	-0.216511	-0.482497	0.216485
C22	C	-0.216524	-0.649167	0.333699
C23	C	-0.216522	-0.649172	0.383633
C24	C	-0.692797	-0.677885	0.245303
C25	C	-0.880470	-0.677933	0.245330
O26	O	-0.904708	-0.702342	0.269807
N27	N	-0.903970	-0.649231	0.216570
C28	C	-0.880548	-0.620512	0.187804
O29	O	-0.904843	-0.596096	0.163346
C30	C	-0.692876	-0.620461	0.187780
C31	C	-0.669379	-0.649169	0.216538
C32	C	-0.669300	-0.706590	0.274059
C33	C	-0.622384	-0.706579	0.274051
C34	C	-0.598966	-0.677863	0.245286
C35	C	-0.622463	-0.649158	0.216529
C36	C	-0.669456	-0.591740	0.159016
C37	C	-0.622535	-0.591729	0.159013
C38	C	-0.599037	-0.620437	0.187771
C39	C	-0.552130	-0.620431	0.187755
N40	N	-0.528630	-0.649134	0.216515
C41	C	-0.552048	-0.677850	0.245280
C42	C	-0.979079	-0.620541	0.187818
C43	C	-1.025997	-0.620554	0.187824
C44	C	-1.025915	-0.677975	0.245351
C45	C	-0.978996	-0.677964	0.245342
C46	C	-0.955579	-0.649244	0.216578
C47	C	-0.453522	-0.677826	0.245259
C48	C	-0.406603	-0.677814	0.245247
C49	C	-0.406688	-0.620391	0.187722
C50	C	-0.453604	-0.620404	0.187732
C51	C	-0.477020	-0.649123	0.216505
O52	O	-0.527863	-0.596032	0.163295
O53	O	-0.527746	-0.702255	0.269742
C54	C	-0.739712	-0.677895	0.245312
C55	C	-0.763210	-0.649190	0.216556
C56	C	-0.739792	-0.620474	0.187790
C57	C	-0.810128	-0.649203	0.216561
C58	C	-0.833546	-0.677919	0.245326
C59	C	-0.810046	-0.706622	0.274086
C60	C	-0.763130	-0.706611	0.274077
C61	C	-0.763291	-0.591772	0.159031
C62	C	-0.810207	-0.591785	0.159041
C63	C	-0.833625	-0.620501	0.187807
C64	C	-0.099349	-0.649235	0.216568
C65	C	-0.049415	-0.649270	0.216589
C66	C	-0.216547	-0.766333	0.216553
C67	C	-0.216555	-0.816267	0.216567
C68	C	-0.245303	-0.172847	0.245207
C69	C	-0.245315	0.014827	0.245227
O70	O	-0.269774	0.039098	0.269629
N71	N	-0.216544	0.038288	0.216554
C72	C	-0.187766	0.014828	0.187877
O73	O	-0.163291	0.039089	0.163492
C74	C	-0.187751	-0.172844	0.187859
C75	C	-0.216527	-0.196303	0.216531
C76	C	-0.274076	-0.196305	0.273877
C77	C	-0.274075	-0.243221	0.273870
C78	C	-0.245299	-0.266677	0.245193
C79	C	-0.216526	-0.243219	0.216524
C80	C	-0.158971	-0.196303	0.159184
C81	C	-0.158969	-0.243224	0.159183
C82	C	-0.187745	-0.266683	0.187855
C83	C	-0.187749	-0.313591	0.187840
N84	N	-0.216520	-0.337052	0.216513
C85	C	-0.245295	-0.313595	0.245189
C86	C	-0.187776	0.113358	0.187887
C87	C	-0.187780	0.160276	0.187891
C88	C	-0.245329	0.160272	0.245242
C89	C	-0.245327	0.113353	0.245236
C90	C	-0.216547	0.089897	0.216560
C91	C	-0.245290	-0.412121	0.245172
C92	C	-0.245287	-0.459041	0.245161
C93	C	-0.187736	-0.459032	0.187812
C94	C	-0.187740	-0.412117	0.187821
C95	C	-0.216519	-0.388662	0.216505
O96	O	-0.163299	-0.337891	0.163455
O97	O	-0.269759	-0.337865	0.269577
C98	C	-0.245304	-0.125931	0.245214
C99	C	-0.216531	-0.102472	0.216545
C100	C	-0.187755	-0.125929	0.187868
C101	C	-0.216535	-0.055554	0.216548
C102	C	-0.245310	-0.032098	0.245225
C103	C	-0.274082	-0.055559	0.273898
C104	C	-0.274080	-0.102474	0.273891
C105	C	-0.158984	-0.102468	0.159196
C106	C	-0.158989	-0.055552	0.159205
C107	C	-0.187764	-0.032096	0.187881
C108	C	-0.216499	-0.649168	0.099798
C109	C	-0.216374	-0.649250	0.049864
C110	C	-0.187718	-0.677955	0.693300
C111	C	-0.187680	-0.677978	0.880973
O112	O	-0.163232	-0.702417	0.905257
N113	N	-0.216402	-0.649231	0.904419
C114	C	-0.245133	-0.620475	0.880943
O115	O	-0.269559	-0.596022	0.905192
C116	C	-0.245169	-0.620451	0.693271
C117	C	-0.216448	-0.649202	0.669828
C118	C	-0.158999	-0.706704	0.669856
C119	C	-0.159011	-0.706700	0.622941
C120	C	-0.187741	-0.677947	0.599469
C121	C	-0.216460	-0.649198	0.622912
C122	C	-0.273898	-0.591693	0.669797
C123	C	-0.273903	-0.591689	0.622876
C124	C	-0.245183	-0.620440	0.599432
C125	C	-0.245202	-0.620441	0.552525
N126	N	-0.216480	-0.649188	0.529079
C127	C	-0.187749	-0.677941	0.552551
C128	C	-0.245113	-0.620491	0.979474
C129	C	-0.245105	-0.620497	1.026392
C130	C	-0.187650	-0.677999	1.026418
C131	C	-0.187661	-0.677994	0.979499
C132	C	-0.216391	-0.649237	0.956028
C133	C	-0.187776	-0.677930	0.454025
C134	C	-0.187792	-0.677925	0.407105
C135	C	-0.245244	-0.620421	0.407083
C136	C	-0.245230	-0.620428	0.453999
C137	C	-0.216493	-0.649184	0.477469
O138	O	-0.269633	-0.596011	0.528212
O139	O	-0.163320	-0.702383	0.528294
C140	C	-0.187706	-0.677959	0.740215
C141	C	-0.216425	-0.649211	0.763659
C142	C	-0.245155	-0.620458	0.740187
C143	C	-0.216417	-0.649217	0.810577
C144	C	-0.187686	-0.677970	0.834049
C145	C	-0.158964	-0.706717	0.810603
C146	C	-0.158976	-0.706712	0.763687
C147	C	-0.273877	-0.591711	0.763633
C148	C	-0.273864	-0.591718	0.810548
C149	C	-0.245133	-0.620471	0.834020
H150	H	-0.472582	-0.701208	0.268692
O151	O	-0.692204	-0.563808	0.131067
C152	C	-0.687313	-0.506864	0.073998
C153	C	-0.661496	-0.538469	0.105636
H154	H	-0.662496	-0.486376	0.053422
H155	H	-0.709270	-0.483333	0.094581
H156	H	-0.709289	-0.527512	0.050547
H157	H	-0.639495	-0.517858	0.129093
H158	H	-0.639566	-0.562002	0.085026
O159	O	-0.476483	-0.592501	0.159856
C160	C	-0.529481	-0.531843	0.153758
C161	C	-0.503611	-0.563425	0.185374
H162	H	-0.551414	-0.508322	0.174377
H163	H	-0.551478	-0.552466	0.130302
H164	H	-0.504675	-0.511339	0.133184
H165	H	-0.528385	-0.583936	0.205977
H166	H	-0.481607	-0.542777	0.208800
O167	O	-0.691994	-0.734466	0.302065
C168	C	-0.706296	-0.756216	0.378510
C169	C	-0.680564	-0.724620	0.346845
H170	H	-0.697071	-0.748261	0.414722
H171	H	-0.697031	-0.792449	0.370692
H172	H	-0.743865	-0.751310	0.373557
H173	H	-0.642989	-0.729486	0.351781
H174	H	-0.689866	-0.688399	0.354672
O175	O	-0.131020	-0.032713	0.131408
C176	C	-0.070347	0.020218	0.125480
C177	C	-0.101997	-0.005612	0.157008
H178	H	-0.046868	0.042128	0.146165
H179	H	-0.090920	0.042234	0.101962
H180	H	-0.049802	-0.004614	0.104969
H181	H	-0.122549	0.019188	0.177547
H182	H	-0.081398	-0.027634	0.180496
H183	H	-0.297294	-0.568265	0.603768
O184	O	-0.159761	-0.389281	0.160034
C185	C	-0.099062	-0.336376	0.154136
C186	C	-0.130737	-0.362194	0.185648
H187	H	-0.075583	-0.314477	0.174832
H188	H	-0.119615	-0.314351	0.130610
H189	H	-0.078519	-0.361216	0.133633
H190	H	-0.151288	-0.337386	0.206180
H191	H	-0.110159	-0.384226	0.209144
O192	O	-0.599767	-0.563782	0.131134
C193	C	-0.546827	-0.503135	0.125015
C194	C	-0.572590	-0.534748	0.156639
H195	H	-0.524841	-0.479660	0.145623
H196	H	-0.571663	-0.482588	0.104472
H197	H	-0.524880	-0.523780	0.101533
H198	H	-0.594538	-0.514138	0.180149
H199	H	-0.547730	-0.555297	0.177151
H200	H	-0.164352	0.179372	0.164539
O201	O	-1.048798	-0.592606	0.159932
C202	C	-1.063195	-0.516205	0.138026
C203	C	-1.037355	-0.547809	0.169647
H204	H	-1.053946	-0.479981	0.145863
H205	H	-1.100758	-0.521103	0.142969
H206	H	-1.053987	-0.524140	0.101812
H207	H	-1.046526	-0.539893	0.205873
H208	H	-0.999799	-0.542905	0.164666
H209	H	-0.387614	-0.597012	0.164300
H210	H	-0.297274	-0.568297	0.744526
O211	O	-0.159847	-0.705869	0.384402
C212	C	-0.102879	-0.762922	0.389389
C213	C	-0.134494	-0.731293	0.415153
H214	H	-0.082379	-0.783492	0.414239
H215	H	-0.079359	-0.742333	0.367434
H216	H	-0.123520	-0.786378	0.367414
H217	H	-0.113890	-0.707830	0.437153
H218	H	-0.158015	-0.751910	0.437079
H219	H	-0.164339	0.094265	0.164534
H220	H	-0.268621	-0.597020	0.473087
O221	O	-0.740288	-0.734544	0.301952
C222	C	-0.687253	-0.795167	0.308066
C223	C	-0.713097	-0.763569	0.276444
H224	H	-0.665255	-0.818636	0.287456
H225	H	-0.712036	-0.815723	0.328616
H226	H	-0.665310	-0.774511	0.331542
H227	H	-0.735040	-0.784190	0.252941
H228	H	-0.688290	-0.743012	0.255925
O229	O	-0.599514	-0.734400	0.302013
C230	C	-0.546536	-0.740386	0.362696
C231	C	-0.572395	-0.708828	0.331045
H232	H	-0.524611	-0.719723	0.386183
H233	H	-0.524532	-0.763883	0.342124
H234	H	-0.571349	-0.760917	0.383233
H235	H	-0.547614	-0.688268	0.310501
H236	H	-0.594405	-0.685360	0.351643
H237	H	-0.297513	-0.036452	0.297246
H238	H	-0.829121	-0.730005	0.297506
O239	O	-0.832960	-0.563854	0.131088
C240	C	-0.828076	-0.506912	0.074017
C241	C	-0.802255	-0.538515	0.105653
H242	H	-0.803262	-0.486424	0.053437
H243	H	-0.850032	-0.483380	0.094601
H244	H	-0.850055	-0.527561	0.050569
H245	H	-0.780252	-0.517902	0.129107
H246	H	-0.780327	-0.562048	0.085041
O247	O	-0.301849	-0.563828	0.692579
C248	C	-0.362488	-0.557738	0.745537
C249	C	-0.330864	-0.589347	0.719759
H250	H	-0.385949	-0.578356	0.767525
H251	H	-0.383051	-0.537199	0.720710
H252	H	-0.341851	-0.534250	0.767482
H253	H	-0.351467	-0.612862	0.697814
H254	H	-0.310300	-0.609854	0.744610
H255	H	-0.164309	-0.478139	0.164463
H256	H	-0.744228	-0.568387	0.135607
H257	H	-0.268637	-0.597013	0.387964
O258	O	-0.273071	-0.592593	1.049111
C259	C	-0.349486	-0.570751	1.063450
C260	C	-0.317866	-0.602376	1.037688
H261	H	-0.385710	-0.578655	1.054231
H262	H	-0.341629	-0.534524	1.054206
H263	H	-0.344528	-0.575682	1.101015
H264	H	-0.322807	-0.597485	1.000118
H265	H	-0.325731	-0.638592	1.046970
O266	O	-0.273255	-0.481759	0.273058
C267	C	-0.330354	-0.476803	0.329924
C268	C	-0.298699	-0.451022	0.298362
H269	H	-0.350941	-0.451963	0.350384
H270	H	-0.309786	-0.498778	0.353483
H271	H	-0.353795	-0.498758	0.309243
H272	H	-0.275251	-0.429042	0.319007
H273	H	-0.319295	-0.429074	0.274802
H274	H	-0.135601	-0.730118	0.688962
O275	O	-0.956243	-0.705861	0.273324
C276	C	-0.961126	-0.762834	0.330365
C277	C	-0.986948	-0.731256	0.298704
H278	H	-0.985940	-0.783380	0.350886
H279	H	-0.939179	-0.742206	0.353863
H280	H	-0.939139	-0.786315	0.309759
H281	H	-1.008959	-0.707768	0.319273
H282	H	-1.008867	-0.751911	0.275205
H283	H	-0.268723	-0.393030	0.268530
H284	H	-0.297509	-0.177212	0.297231
O285	O	-0.131017	-0.125180	0.131295
C286	C	-0.073920	-0.120213	0.074428
C287	C	-0.105578	-0.094438	0.106000
H288	H	-0.053337	-0.095369	0.053976
H289	H	-0.094487	-0.142143	0.050862
H290	H	-0.050476	-0.142214	0.095100
H291	H	-0.129028	-0.072413	0.085365
H292	H	-0.084983	-0.072536	0.129568
O293	O	-0.301830	-0.563809	0.833267
C294	C	-0.378242	-0.541959	0.847610
C295	C	-0.346626	-0.573589	0.821848
H296	H	-0.414467	-0.549861	0.838395
H297	H	-0.370382	-0.505733	0.838362
H298	H	-0.373280	-0.546887	0.885174
H299	H	-0.351570	-0.568701	0.784278
H300	H	-0.354494	-0.609803	0.831134
H301	H	-0.135588	-0.730125	0.744604
H302	H	-0.135573	-0.730130	0.829722
O303	O	-0.159814	-0.705800	0.476839
C304	C	-0.099161	-0.711904	0.529837
C305	C	-0.130789	-0.680288	0.504021
H306	H	-0.075692	-0.691291	0.551828
H307	H	-0.078607	-0.732441	0.505036
H308	H	-0.119794	-0.735393	0.551785
H309	H	-0.110191	-0.656772	0.482073
H310	H	-0.151344	-0.659783	0.528847
H311	H	-0.135623	-0.730112	0.603857
H312	H	-0.268759	0.094256	0.268583
O313	O	-0.302039	-0.265936	0.301767
C314	C	-0.359136	-0.260971	0.358635
C315	C	-0.327481	-0.235195	0.327069
H316	H	-0.379721	-0.236128	0.379093
H317	H	-0.338566	-0.282944	0.382196
H318	H	-0.382578	-0.282929	0.337959
H319	H	-0.304033	-0.213213	0.347709
H320	H	-0.348078	-0.213250	0.303507
O321	O	-0.273238	0.183131	0.273087
C322	C	-0.298755	0.255415	0.298489
C323	C	-0.267124	0.229581	0.266940
H324	H	-0.293830	0.292974	0.293524
H325	H	-0.290915	0.246205	0.334739
H326	H	-0.334965	0.246188	0.290540
H327	H	-0.230903	0.238795	0.274848
H328	H	-0.275003	0.238793	0.230700
H329	H	-0.164274	-0.701406	0.960415
O330	O	-0.130999	-0.265939	0.131281
C331	C	-0.073900	-0.260979	0.074417
C332	C	-0.105557	-0.235200	0.105986
H333	H	-0.053315	-0.236138	0.053964
H334	H	-0.094468	-0.282908	0.050851
H335	H	-0.050458	-0.282980	0.095090
H336	H	-0.129005	-0.213174	0.085349
H337	H	-0.084961	-0.213299	0.129553
H338	H	-0.135539	-0.177211	0.135836
O339	O	-0.302046	-0.125190	0.301787
C340	C	-0.359145	-0.120225	0.358653
C341	C	-0.327488	-0.094448	0.327088
H342	H	-0.379730	-0.095382	0.379110
H343	H	-0.338577	-0.142198	0.382214
H344	H	-0.382586	-0.142182	0.337975
H345	H	-0.304040	-0.072467	0.347730
H346	H	-0.348084	-0.072503	0.303525
H347	H	-0.268511	-0.597073	0.960368
O348	O	-0.383798	-0.705652	0.273250
C349	C	-0.369404	-0.727419	0.349690
C350	C	-0.395248	-0.695859	0.318029
H351	H	-0.378659	-0.719518	0.385900
H352	H	-0.331842	-0.722479	0.344784
H353	H	-0.378603	-0.763649	0.341819
H354	H	-0.386087	-0.659617	0.325879
H355	H	-0.432804	-0.700837	0.322940
O356	O	-1.048737	-0.705826	0.273281
C357	C	-1.120987	-0.731301	0.298764
C358	C	-1.095195	-0.699735	0.267117
H359	H	-1.158553	-0.726394	0.293785
H360	H	-1.111784	-0.723378	0.334989
H361	H	-1.111715	-0.767527	0.290925
H362	H	-1.104453	-0.663499	0.274916
H363	H	-1.104401	-0.707696	0.230902
O364	O	-0.159752	-0.705884	1.049293
C365	C	-0.134291	-0.731379	1.121590
C366	C	-0.165904	-0.699776	1.095739
H367	H	-0.139261	-0.726458	1.159146
H368	H	-0.098058	-0.723505	1.112407
H369	H	-0.142174	-0.767596	1.112351
H370	H	-0.158062	-0.663549	1.104964
H371	H	-0.202128	-0.707688	1.104925
H372	H	-0.960016	-0.597153	0.164394
