data_functionalizedCrystal
_audit_creation_method	'MofGen! by Chris Wilmer'
_symmetry_space_group_name_H-M	'P1'
_symmetry_Int_Tables_number	1
_symmetry_cell_setting	triclinic
loop_
_symmetry_equiv_pos_as_xyz
  x,y,z
_cell_length_a	18.266242
_cell_length_b	9.065218
_cell_length_c	9.065215
_cell_angle_alpha	94.984709
_cell_angle_beta	90.005128
_cell_angle_gamma	89.990913
loop_
_atom_site_label
_atom_site_type_symbol
_atom_site_fract_x
_atom_site_fract_y
_atom_site_fract_z
O1	O	0.060881	-1.960409	0.216360
O2	O	0.060882	-1.531124	0.234106
O3	O	0.060879	-1.754642	0.010590
O4	O	0.060884	-1.736891	0.439875
O5	O	-0.060883	-1.754603	0.010578
O6	O	-0.060880	-1.531085	0.234094
O7	O	-0.060881	-1.960370	0.216347
Zn8	Zn	-0.080213	-1.745722	0.225219
Zn9	Zn	0.080214	-1.745772	0.225235
O10	O	-0.060878	-1.736852	0.439863
C11	C	0.000001	-1.476118	0.232394
C12	C	0.000001	-1.312275	0.227295
N13	N	-0.189700	-1.745698	0.225207
C14	C	-0.000002	-1.752917	-0.044403
C15	C	0.000001	-1.747819	-0.208246
C16	C	-0.228010	-1.844705	0.126284
C17	C	-0.304655	-1.844714	0.126277
C18	C	-0.342987	-1.745731	0.225219
C19	C	-0.304667	-1.646705	0.324150
C20	C	-0.228024	-1.646688	0.324144
N21	N	-0.463318	-1.728692	0.355533
N22	N	-0.536126	-1.728717	0.355534
C23	C	-0.573909	-1.745772	0.225241
N24	N	-0.536134	-1.762831	0.094943
N25	N	-0.463320	-1.762814	0.094943
C26	C	-0.426094	-1.745737	0.225236
C27	C	-0.695327	-1.844795	0.126302
C28	C	-0.771973	-1.844794	0.126294
C29	C	-0.771984	-1.646792	0.324179
C30	C	-0.695339	-1.646785	0.324175
C31	C	-0.657015	-1.745795	0.225238
N32	N	0.189701	-1.745808	0.225235
C33	C	0.000001	-2.015376	0.218059
C34	C	0.000006	-2.179219	0.223159
C35	C	0.000004	-1.738576	0.494856
C36	C	0.000006	-1.743674	0.658699
H37	H	-0.196809	-1.925321	0.045720
H38	H	-0.803193	-1.566192	0.404734
C39	C	-0.346805	-1.953649	0.017464
N40	N	-0.378550	-2.035705	-0.064488
C41	C	-0.346834	-1.537816	0.432980
N42	N	-0.378593	-1.455792	0.514949
H43	H	-0.664122	-1.925411	0.045737
H44	H	-0.664145	-1.566170	0.404734
H45	H	-0.803166	-1.925413	0.045730
H46	H	-0.196831	-1.566062	0.404700
