data_functionalizedCrystal
_audit_creation_method	'MofGen! by Chris Wilmer'
_symmetry_space_group_name_H-M	'P1'
_symmetry_Int_Tables_number	1
_symmetry_cell_setting	triclinic
loop_
_symmetry_equiv_pos_as_xyz
  x,y,z
_cell_length_a	11.792241
_cell_length_b	18.266242
_cell_length_c	19.188930
_cell_angle_alpha	90.011475
_cell_angle_beta	96.330901
_cell_angle_gamma	89.995824
loop_
_atom_site_label
_atom_site_type_symbol
_atom_site_fract_x
_atom_site_fract_y
_atom_site_fract_z
O1	O	-1.505484	0.060808	0.095696
O2	O	-1.005484	0.560808	0.595696
O3	O	-1.174995	0.060828	0.105558
O4	O	-0.674995	0.560828	0.605558
O5	O	-1.349777	0.060803	-0.000975
O6	O	-0.849777	0.560803	0.499025
O7	O	-1.330702	0.060833	0.202229
O8	O	-0.830702	0.560833	0.702229
O9	O	-1.349747	-0.060959	-0.000980
O10	O	-0.849747	0.439041	0.499020
O11	O	-1.174965	-0.060934	0.105553
O12	O	-0.674965	0.439066	0.605553
O13	O	-1.505454	-0.060954	0.095690
O14	O	-1.005454	0.439046	0.595690
Zn15	Zn	-1.340205	-0.080276	0.100620
Zn16	Zn	-0.840205	0.419724	0.600620
Zn17	Zn	-1.340244	0.080150	0.100628
Zn18	Zn	-0.840244	0.580150	0.600628
O19	O	-1.330673	-0.060929	0.202223
O20	O	-0.830673	0.439071	0.702223
C21	C	-1.132699	-0.000050	0.104936
C22	C	-0.632699	0.499950	0.604936
C23	C	-1.006713	-0.000043	0.103082
C24	C	-0.506713	0.499957	0.603082
C25	C	-0.776051	-0.000063	0.099672
C26	C	-0.276051	0.499937	0.599672
C27	C	-0.904408	-0.000052	0.101566
C28	C	-0.404408	0.499948	0.601566
N29	N	-1.340187	-0.189763	0.100615
N30	N	-0.840187	0.310237	0.600615
C31	C	-1.417605	-0.228083	0.053466
C32	C	-0.917605	0.271917	0.553466
C33	C	-1.417613	-0.304728	0.053462
C34	C	-0.917613	0.195272	0.553462
C35	C	-1.340212	-0.343050	0.100621
C36	C	-0.840212	0.156950	0.600621
C37	C	-1.262779	-0.304721	0.147774
C38	C	-0.762779	0.195279	0.647774
C39	C	-1.262766	-0.228077	0.147771
C40	C	-0.762766	0.271923	0.647771
N41	N	-1.325459	-0.463373	0.162345
N42	N	-0.825459	0.036627	0.662345
N43	N	-1.325478	-0.536181	0.162345
N44	N	-0.825478	-0.036181	0.662345
C45	C	-1.340244	-0.573972	0.100631
C46	C	-0.840244	-0.073972	0.600631
N47	N	-1.355012	-0.536205	0.038914
N48	N	-0.855012	-0.036205	0.538914
N49	N	-1.354999	-0.463391	0.038914
N50	N	-0.854999	0.036609	0.538914
C51	C	-1.340217	-0.426157	0.100629
C52	C	-0.840217	0.073843	0.600629
C53	C	-1.417674	-0.695400	0.053474
C54	C	-0.917674	-0.195400	0.553474
C55	C	-1.417674	-0.772046	0.053470
C56	C	-0.917674	-0.272046	0.553470
C57	C	-1.262846	-0.772037	0.147787
C58	C	-0.762846	-0.272037	0.647787
C59	C	-1.262841	-0.695392	0.147785
C60	C	-0.762841	-0.195392	0.647785
C61	C	-1.340261	-0.657078	0.100630
C62	C	-0.840261	-0.157078	0.600630
C63	C	-0.547751	-0.000072	0.096313
C64	C	-0.047751	0.499928	0.596313
C65	C	-0.673737	-0.000069	0.098167
C66	C	-0.173737	0.499931	0.598167
C67	C	-1.349144	-0.000080	-0.026992
C68	C	-0.849144	0.499920	0.473008
C69	C	-1.347290	-0.000086	-0.104507
C70	C	-0.847290	0.499914	0.395493
N71	N	-1.340271	0.189637	0.100628
N72	N	-0.840271	0.689637	0.600628
C73	C	-1.449846	-0.000096	-0.148850
C74	C	-0.949846	0.499904	0.351150
C75	C	-1.448104	-0.000084	-0.221684
C76	C	-0.948104	0.499916	0.278316
C77	C	-1.343800	-0.000077	-0.250171
C78	C	-0.843800	0.499923	0.249829
C79	C	-1.241230	-0.000063	-0.205818
C80	C	-0.741230	0.499937	0.294182
C81	C	-1.242975	-0.000068	-0.132986
C82	C	-0.742975	0.499932	0.367014
N83	N	-1.264062	-0.041510	-0.358630
N84	N	-0.764062	0.458490	0.141370
N85	N	-1.262411	-0.041507	-0.427817
N86	N	-0.762411	0.458493	0.072183
C87	C	-1.338536	-0.000062	-0.469609
C88	C	-0.838536	0.499938	0.030391
N89	N	-1.416391	0.041372	-0.439601
N90	N	-0.916391	0.541372	0.060399
N91	N	-1.418045	0.041366	-0.370407
N92	N	-0.918045	0.541366	0.129593
C93	C	-1.341896	-0.000072	-0.329144
C94	C	-0.841896	0.499928	0.170856
C95	C	-1.439211	-0.000058	-0.592928
C96	C	-0.939211	0.499942	-0.092928
C97	C	-1.437464	-0.000041	-0.665762
C98	C	-0.937464	0.499959	-0.165762
C99	C	-1.230588	-0.000028	-0.649895
C100	C	-0.730588	0.499972	-0.149895
C101	C	-1.232337	-0.000037	-0.577062
C102	C	-0.732337	0.499963	-0.077062
C103	C	-1.336652	-0.000055	-0.548583
C104	C	-0.836652	0.499945	-0.048583
C105	C	-1.331305	-0.000044	0.228240
C106	C	-0.831305	0.499956	0.728240
C107	C	-1.333159	-0.000033	0.305755
C108	C	-0.833159	0.499967	0.805755
H109	H	-1.480643	-0.196890	0.015067
H110	H	-0.980643	0.303110	0.515067
H111	H	-1.156305	-0.000056	-0.229017
H112	H	-0.656305	0.499944	0.270983
H113	H	-1.531620	-0.000089	-0.257795
H114	H	-1.031620	0.499911	0.242205
H115	H	-1.480714	-0.803247	0.015072
H116	H	-0.980714	-0.303247	0.515072
H117	H	-1.524150	-0.000070	-0.569739
H118	H	-1.024150	0.499930	-0.069739
H119	H	-1.145661	-0.000019	-0.673089
H120	H	-0.645661	0.499981	-0.173089
H121	H	-1.480712	-0.664203	0.015075
H122	H	-0.980712	-0.164203	0.515075
H123	H	-1.520981	-0.000045	-0.701866
H124	H	-1.020981	0.499955	-0.201866
H125	H	-1.199820	-0.803238	0.186182
H126	H	-0.699820	-0.303238	0.686182
H127	H	-1.148825	-0.000033	-0.540957
H128	H	-0.648825	0.499967	-0.040957
H129	H	-1.199804	-0.664190	0.186182
H130	H	-0.699804	-0.164190	0.686182
H131	H	-1.159459	-0.000060	-0.096881
H132	H	-0.659459	0.499940	0.403119
H133	H	-1.199757	-0.335926	0.186169
H134	H	-0.699757	0.164074	0.686169
H135	H	-1.480658	-0.335934	0.015066
H136	H	-0.980658	0.164066	0.515066
H137	H	-1.199722	-0.196877	0.186166
H138	H	-0.699722	0.303123	0.686166
H139	H	-1.534787	-0.000108	-0.125667
H140	H	-1.034787	0.499892	0.374333
