data_functionalizedCrystal
_audit_creation_method	'MofGen! by Chris Wilmer'
_symmetry_space_group_name_H-M	'P1'
_symmetry_Int_Tables_number	1
_symmetry_cell_setting	triclinic
loop_
_symmetry_equiv_pos_as_xyz
  x,y,z
_cell_length_a	14.044220
_cell_length_b	15.538191
_cell_length_c	14.750779
_cell_angle_alpha	97.573912
_cell_angle_beta	76.182253
_cell_angle_gamma	70.230486
loop_
_atom_site_label
_atom_site_type_symbol
_atom_site_fract_x
_atom_site_fract_y
_atom_site_fract_z
O1	O	-0.272397	1.206584	-0.079787
O2	O	-0.166020	0.941261	-0.079799
O3	O	-0.355826	1.069942	-0.079784
O4	O	-0.082591	1.077903	-0.079802
O5	O	-0.409478	1.106319	0.079871
O6	O	-0.219672	0.977638	0.079856
O7	O	-0.326048	1.242961	0.079868
Zn8	Zn	-0.281378	1.116075	0.105210
Zn9	Zn	-0.210690	1.068147	-0.105141
O10	O	-0.136242	1.114280	0.079852
C11	C	-0.416767	1.084644	0.000044
C12	C	-0.518415	1.074245	0.000045
C13	C	-0.181716	0.925289	0.000027
C14	C	-0.148564	0.823500	0.000023
C15	C	-0.310352	1.258933	0.000040
C16	C	-0.343502	1.360721	0.000037
C17	C	-0.704530	1.055229	0.000030
C18	C	-0.787540	1.128988	0.000030
C19	C	-0.891101	1.118407	0.000022
C20	C	-0.600958	1.065808	0.000038
C21	C	-0.075301	1.099577	0.000023
C22	C	0.026349	1.109976	0.000016
N23	N	-0.329624	1.148792	0.248770
C24	C	-0.014149	1.676180	0.000012
C25	C	-0.045325	1.771827	0.000017
C26	C	-0.220672	1.779539	0.000029
C27	C	-0.189513	1.683891	0.000029
C28	C	-0.086250	1.632219	0.000019
C29	C	-0.261613	1.639930	0.000036
C30	C	-0.230455	1.544290	0.000031
C31	C	-0.127196	1.492610	0.000019
C32	C	-0.055092	1.536578	0.000014
C33	C	-0.364873	1.691603	0.000039
C34	C	-0.436974	1.647642	0.000046
C35	C	-0.405818	1.552002	0.000048
C36	C	-0.302559	1.500322	0.000035
C37	C	-0.477923	1.508034	0.000052
C38	C	-0.446764	1.412393	0.000047
C39	C	-0.271401	1.404681	0.000030
N40	N	-0.162454	1.035437	-0.248701
C41	C	-0.027752	0.944062	0.600564
C42	C	-0.061556	0.966994	0.701066
C43	C	-0.229591	1.080971	0.701042
C44	C	-0.195804	1.058045	0.600538
C45	C	-0.094883	0.989590	0.550307
C46	C	-0.262935	1.103573	0.550281
C47	C	-0.229147	1.080652	0.449786
C48	C	-0.128229	1.012202	0.399548
C49	C	-0.061095	0.966668	0.449812
C50	C	-0.363852	1.172032	0.600514
C51	C	-0.430983	1.217560	0.550257
C52	C	-0.397199	1.194635	0.449760
C53	C	-0.296281	1.126185	0.399522
C54	C	-0.464332	1.240168	0.399496
C55	C	-0.430545	1.217246	0.299001
C56	C	-0.262493	1.103263	0.299027
H57	H	-0.780808	1.200066	-0.000031
H58	H	-0.711240	0.984141	0.000025
H59	H	-0.187319	1.362609	0.000035
H60	H	-0.311761	1.136710	0.741952
C61	C	-0.091054	0.986984	0.289005
H62	H	-0.021334	0.939700	0.266290
H63	H	-0.137988	0.964324	0.266270
H64	H	-0.090889	1.041373	0.266259
C65	C	0.083253	0.868752	0.545299
H66	H	0.093753	0.861619	0.478251
H67	H	0.135798	0.887600	0.561760
H68	H	0.088676	0.810567	0.561782
H69	H	-0.546499	1.295911	0.440407
H70	H	-0.505476	1.376599	0.000051
H71	H	-0.180317	1.047514	0.258127
H72	H	-0.561996	1.550117	0.000051
H73	H	-0.101828	1.414733	0.000011
C74	C	-0.401023	1.197251	0.711057
H75	H	-0.470735	1.244549	0.733774
H76	H	-0.401188	1.142869	0.733808
H77	H	-0.354081	1.219912	0.733784
C78	C	0.049909	0.891359	0.394547
H79	H	0.060409	0.884226	0.327499
H80	H	0.102455	0.910207	0.411008
H81	H	0.055333	0.833174	0.411030
C82	C	0.058497	1.479732	0.000001
H83	H	0.096981	1.519608	-0.000007
H84	H	0.055590	1.454941	0.055670
H85	H	0.093001	1.429581	-0.055687
H86	H	0.069933	1.634108	0.000017
C87	C	0.012268	0.916863	0.756346
H88	H	0.077198	0.872796	0.712034
H89	H	0.026149	0.961924	0.795565
H90	H	-0.021008	0.884914	0.795533
C91	C	-0.334255	1.836384	0.000046
H92	H	-0.342489	1.899643	0.000054
H93	H	-0.346475	1.809611	-0.055622
H94	H	-0.383878	1.834981	0.055735
H95	H	0.013393	1.807618	0.000022
C96	C	-0.550557	1.704488	0.000063
H97	H	-0.558791	1.767746	0.000071
H98	H	-0.562777	1.677714	-0.055605
H99	H	-0.600180	1.703085	0.055752
C100	C	-0.541991	1.292852	0.605516
H101	H	-0.552503	1.299979	0.672566
H102	H	-0.547439	1.351036	0.589032
H103	H	-0.594522	1.273976	0.589049
H104	H	-0.485210	1.254322	0.258081
H105	H	-0.390233	1.769475	0.000025
