data_functionalizedCrystal
_audit_creation_method	'MofGen! by Chris Wilmer'
_symmetry_space_group_name_H-M	'P1'
_symmetry_Int_Tables_number	1
_symmetry_cell_setting	triclinic
loop_
_symmetry_equiv_pos_as_xyz
  x,y,z
_cell_length_a	11.026607
_cell_length_b	11.026607
_cell_length_c	8.140239
_cell_angle_alpha	89.998310
_cell_angle_beta	89.997756
_cell_angle_gamma	108.586017
loop_
_atom_site_label
_atom_site_type_symbol
_atom_site_fract_x
_atom_site_fract_y
_atom_site_fract_z
O1	O	1.726730	0.533621	-0.136609
O2	O	1.360150	0.472857	-0.136612
O3	O	1.513058	0.319949	-0.136605
O4	O	1.573822	0.686529	-0.136616
O5	O	1.513047	0.319945	0.136622
O6	O	1.360139	0.472853	0.136615
O7	O	1.726719	0.533616	0.136618
Zn8	Zn	1.543427	0.503234	0.179997
Zn9	Zn	1.543442	0.503240	-0.179991
O10	O	1.573810	0.686525	0.136611
C11	C	1.312485	0.461645	0.000001
C12	C	1.170471	0.428228	0.000000
C13	C	1.116821	0.520498	-0.000004
C14	C	0.970043	0.485962	-0.000005
C15	C	1.501843	0.272287	0.000007
C16	C	1.468426	0.130273	0.000000
C17	C	1.560695	0.076624	-0.000001
C18	C	1.526160	-0.070155	-0.000008
C19	C	1.774384	0.544828	0.000001
C20	C	1.916398	0.578245	-0.000009
C21	C	1.585026	0.734187	-0.000005
C22	C	1.618443	0.876200	-0.000009
N23	N	1.543426	0.503231	0.425680
N24	N	1.543451	0.503235	-0.425674
H25	H	0.907314	0.381393	-0.000044
H26	H	1.107738	0.323666	-0.000039
O27	O	1.191837	0.645179	-0.000072
C28	C	1.321688	0.651904	-0.000022
H29	H	1.331046	0.559225	-0.051751
H30	H	1.378993	0.735822	-0.079341
H31	H	1.360028	0.666106	0.131062
O32	O	0.991266	0.702983	-0.000324
C33	C	1.069077	0.727782	-0.141819
H34	H	1.023020	0.654339	-0.240703
H35	H	1.079702	0.827898	-0.189345
H36	H	1.167427	0.721164	-0.109827
O37	O	1.743262	-0.049165	-0.000075
C38	C	1.822345	-0.127550	-0.000031
H39	H	1.767015	-0.225678	-0.051764
H40	H	1.910272	-0.081780	-0.079351
H41	H	1.853699	-0.138574	0.131051
H42	H	1.665258	0.139357	0.000010
O43	O	1.343726	0.055312	-0.000224
C44	C	1.318911	-0.022447	-0.141758
H45	H	1.412178	-0.033469	-0.188935
H46	H	1.249206	-0.120638	-0.109940
H47	H	1.275283	0.023887	-0.240842
O48	O	1.401360	-0.144845	0.000205
C49	C	1.340363	-0.118557	0.141733
H50	H	1.395109	-0.018756	0.188920
H51	H	1.238235	-0.123431	0.109905
H52	H	1.338418	-0.192226	0.240815
