data_functionalizedCrystal
_audit_creation_method	'MofGen! by Chris Wilmer'
_symmetry_space_group_name_H-M	'P1'
_symmetry_Int_Tables_number	1
_symmetry_cell_setting	triclinic
loop_
_symmetry_equiv_pos_as_xyz
  x,y,z
_cell_length_a	17.917559
_cell_length_b	12.477906
_cell_length_c	17.917559
_cell_angle_alpha	59.884082
_cell_angle_beta	90.240086
_cell_angle_gamma	54.265007
loop_
_atom_site_label
_atom_site_type_symbol
_atom_site_fract_x
_atom_site_fract_y
_atom_site_fract_z
Zr1	Zr	0.681772	1.180051	-0.136848
O2	O	0.546397	1.427544	-0.272215
O3	O	0.734333	0.932558	-0.084292
O4	O	0.726948	1.157471	-0.247694
O5	O	0.547026	1.220442	0.007503
O6	O	0.856787	1.139659	-0.240933
O7	O	0.553782	1.202631	-0.108812
O8	O	0.869998	0.737330	0.051365
O9	O	0.533815	1.622771	-0.284795
O10	O	0.840284	1.021062	-0.070192
O11	O	0.738344	1.047647	0.011566
O12	O	0.729649	1.312453	-0.180820
O13	O	0.627709	1.339038	-0.099062
Zr14	Zr	0.878076	1.180049	0.059445
Zr15	Zr	0.888851	1.151642	-0.126064
Zr16	Zr	0.670997	1.208457	0.048660
Zr17	Zr	0.661706	1.491414	-0.156912
Zr18	Zr	0.898142	0.868685	0.079509
O19	O	0.825515	1.427542	0.006888
O20	O	0.840837	1.387151	-0.256881
O21	O	0.531076	1.467934	-0.008446
O22	O	1.013451	0.932555	0.194811
O23	O	1.028772	0.892165	-0.068958
O24	O	0.719011	0.972948	0.179478
O25	O	1.012822	1.139658	-0.084906
O26	O	0.832901	1.202629	0.170291
O27	O	0.703061	1.220441	0.163529
O28	O	1.006066	1.157469	0.031409
O29	O	0.698415	1.600190	-0.276223
O30	O	0.861433	0.759910	0.198820
O31	O	1.026033	0.737329	0.207392
O32	O	1.034598	0.714750	0.059937
O33	O	0.525250	1.645350	-0.137341
O34	O	0.689850	1.622769	-0.128769
O35	O	0.830199	1.047646	0.103416
O36	O	0.932139	1.021061	0.021658
O37	O	0.821504	1.312453	-0.088969
O38	O	0.719564	1.339038	-0.007211
C39	C	0.805024	0.790581	-0.013604
C40	C	0.813543	0.658399	-0.005087
C41	C	0.520900	1.215584	-0.052191
C42	C	0.432989	1.227644	-0.056769
C43	C	0.287786	1.110446	-0.012277
C44	C	0.272069	1.249646	-0.065124
C45	C	0.361615	1.237400	-0.060474
C46	C	0.198235	1.122689	-0.016926
C47	C	1.038948	1.144516	-0.025212
C48	C	1.126859	1.132456	-0.020634
C49	C	0.793403	1.144518	-0.270744
C50	C	0.797977	1.132458	-0.349498
C51	C	0.754824	1.569518	-0.063799
C52	C	0.746305	1.701700	-0.072317
C53	C	0.753499	1.249653	-0.583691
C54	C	0.806346	1.110454	-0.493710
C55	C	0.801688	1.122701	-0.413464
C56	C	0.758156	1.237409	-0.663946
C57	C	0.766446	1.215582	0.193341
C58	C	0.761871	1.227641	0.272094
C59	C	1.064048	0.755047	-0.000115
C60	C	1.160478	0.610805	0.012981
C61	C	0.791546	0.826113	0.218438
C62	C	0.795490	0.705991	0.305709
C63	C	1.050570	0.790579	0.231928
C64	C	1.142425	0.658397	0.323777
C65	C	0.509278	1.569520	-0.309331
C66	C	0.417423	1.701703	-0.401181
C67	C	0.495800	1.605052	-0.077289
C68	C	0.399371	1.749294	-0.090385
C69	C	0.768302	1.533986	-0.295842
C70	C	0.764358	1.654109	-0.383113
C71	C	1.157815	0.543067	-0.028822
C72	C	1.248412	0.407552	-0.016535
C73	C	1.341672	0.339770	0.037560
C74	C	1.344332	0.407521	0.079363
C75	C	1.253735	0.543041	0.067071
C76	C	0.845290	0.649581	0.394646
C77	C	0.848991	0.536732	0.476652
C78	C	0.802898	0.480285	0.469720
C79	C	0.753092	0.536707	0.380774
C80	C	0.749385	0.649563	0.298769
C81	C	1.238781	0.582444	0.324234
C82	C	1.325095	0.458259	0.410528
C83	C	1.315052	0.410021	0.496365
C84	C	1.218686	0.485987	0.495905
C85	C	1.132373	0.610178	0.409611
C86	C	0.321066	1.777671	-0.401639
C87	C	0.234749	1.901894	-0.487935
C88	C	0.244792	1.950138	-0.573773
C89	C	0.341159	1.874164	-0.573312
C90	C	0.427474	1.749952	-0.487017
C91	C	0.402033	1.817045	-0.048591
C92	C	0.311435	1.952591	-0.060899
C93	C	0.218175	2.020377	-0.114997
C94	C	0.215515	1.952620	-0.156797
C95	C	0.306112	1.817084	-0.144493
C96	C	0.810462	1.710519	-0.376151
C97	C	0.806775	1.823369	-0.458142
C98	C	0.756978	1.879816	-0.547095
C99	C	0.710874	1.823395	-0.554055
C100	C	0.714567	1.710537	-0.472064
H101	H	0.191363	1.378015	-0.113866
H102	H	0.505930	1.688098	-0.486655
Cl103	Cl	1.446230	0.362776	0.411085
Cl104	Cl	0.519262	1.731864	0.019418
Cl105	Cl	0.412384	0.912266	0.062971
H106	H	1.210523	0.446693	0.565805
H107	H	1.246978	0.621699	0.254350
Cl108	Cl	0.647376	0.915062	-0.171253
Cl109	Cl	1.011243	0.705638	0.409054
Cl110	Cl	0.104289	2.190764	-0.130453
Cl111	Cl	0.881602	0.912258	-0.467817
H112	H	0.753978	1.971712	-0.613850
H113	H	0.313620	2.007736	-0.026855
H114	H	0.704760	1.378012	-0.600458
Cl115	Cl	0.308414	1.717048	-0.293741
Cl116	Cl	1.257101	0.628171	0.119638
Cl117	Cl	0.873073	1.639577	-0.264334
Cl118	Cl	0.686781	0.720454	0.186968
H119	H	0.156292	1.963733	-0.488292
H120	H	1.081886	0.598251	-0.072881
H121	H	0.349324	1.913461	-0.643211
H122	H	0.174501	2.051281	-0.644033
H123	H	0.882825	0.695527	0.400307
Cl124	Cl	1.455557	0.169395	0.053006
Cl125	Cl	1.461582	0.322283	0.147371
Cl126	Cl	0.911612	0.465818	0.588458
H127	H	1.246226	0.352406	-0.050579
H128	H	0.139570	2.007832	-0.200844
Cl129	Cl	0.807569	0.338404	0.572823
Cl130	Cl	1.423571	0.253888	0.604843
Cl131	Cl	0.302747	1.731919	-0.197035
H132	H	0.715564	0.490732	0.375145
Cl133	Cl	0.648264	1.894391	-0.665891
H134	H	0.677019	1.664622	-0.477746
Cl135	Cl	0.912476	0.445046	0.093837
H136	H	0.844318	1.869296	-0.452457
