data_functionalizedCrystal
_audit_creation_method	'MofGen! by Chris Wilmer'
_symmetry_space_group_name_H-M	'P1'
_symmetry_Int_Tables_number	1
_symmetry_cell_setting	triclinic
loop_
_symmetry_equiv_pos_as_xyz
  x,y,z
_cell_length_a	11.792241
_cell_length_b	9.016244
_cell_length_c	11.792254
_cell_angle_alpha	90.002390
_cell_angle_beta	84.196007
_cell_angle_gamma	90.003149
loop_
_atom_site_label
_atom_site_type_symbol
_atom_site_fract_x
_atom_site_fract_y
_atom_site_fract_z
O1	O	1.506921	0.123197	0.155562
O2	O	1.176581	0.123232	0.171595
O3	O	1.349760	0.123203	-0.001591
O4	O	1.333742	0.123226	0.328748
O5	O	1.349734	-0.123478	-0.001587
O6	O	1.176555	-0.123449	0.171599
O7	O	1.506896	-0.123484	0.155566
Cu8	Cu	1.341723	-0.145990	0.163583
Cu9	Cu	1.341753	0.145738	0.163578
O10	O	1.333716	-0.123455	0.328752
C11	C	1.134277	-0.000104	0.170590
C12	C	1.008263	-0.000091	0.167576
N13	N	1.341710	-0.351177	0.163586
C14	C	0.777551	-0.000134	0.162033
C15	C	0.905936	-0.000111	0.165112
C16	C	1.248788	-0.586194	0.255919
C17	C	1.248992	-0.414303	0.256264
C18	C	1.460302	-0.413525	0.190183
C19	C	1.459795	-0.585470	0.190836
C20	C	1.317219	-0.585725	0.044349
C21	C	1.314494	-0.413771	0.045130
C22	C	1.549199	-0.000145	0.156571
C23	C	1.675213	-0.000148	0.159586
N24	N	1.341775	0.350924	0.163567
C25	C	1.348738	-0.000137	-0.043880
C26	C	1.345718	-0.000135	-0.169893
C27	C	1.343264	-0.000130	-0.272229
C28	C	1.340196	-0.000116	-0.400616
C29	C	1.334738	-0.000112	0.371041
C30	C	1.337758	-0.000104	0.497054
H31	H	1.160864	-0.372151	0.240309
H32	H	1.264332	-0.629383	0.343875
H33	H	1.482317	-0.370444	0.276165
C34	C	1.196631	-0.358730	0.017886
N35	N	1.107854	-0.317268	-0.002631
H36	H	1.232587	-0.629166	0.018954
H37	H	1.481321	-0.625556	0.277803
H38	H	1.531174	-0.372632	0.124739
H39	H	1.377759	-0.370806	-0.026869
H40	H	1.160383	-0.627579	0.240215
C41	C	1.270277	-0.358703	0.375763
N42	N	1.286316	-0.316828	0.465773
H43	H	1.531188	-0.627064	0.126262
H44	H	1.385021	-0.626389	-0.024385
