data_functionalizedCrystal
_audit_creation_method	'MofGen! by Chris Wilmer'
_symmetry_space_group_name_H-M	'P1'
_symmetry_Int_Tables_number	1
_symmetry_cell_setting	triclinic
loop_
_symmetry_equiv_pos_as_xyz
  x,y,z
_cell_length_a	14.044220
_cell_length_b	10.654550
_cell_length_c	9.130313
_cell_angle_alpha	90.000110
_cell_angle_beta	90.004466
_cell_angle_gamma	91.163110
loop_
_atom_site_label
_atom_site_type_symbol
_atom_site_fract_x
_atom_site_fract_y
_atom_site_fract_z
O1	O	1.259693	-0.302980	-0.121637
O2	O	0.983652	-0.292047	-0.121674
O3	O	1.128019	-0.115412	-0.121649
O4	O	1.115326	-0.479615	-0.121662
O5	O	1.128017	-0.115417	0.121950
O6	O	0.983650	-0.292052	0.121925
O7	O	1.259691	-0.302985	0.121962
Cu8	Cu	1.121671	-0.297519	0.144186
Cu9	Cu	1.121673	-0.297513	-0.143898
O10	O	1.115324	-0.479620	0.121937
C11	C	0.948305	-0.287263	0.000121
C12	C	0.842986	-0.272988	0.000106
N13	N	1.121676	-0.297523	0.346809
C14	C	1.127086	-0.068523	0.000149
C15	C	1.124298	0.071201	0.000143
C16	C	0.650153	-0.246889	0.000136
C17	C	0.593185	-0.348137	0.000139
C18	C	0.485886	-0.333615	0.000156
C19	C	0.757461	-0.261409	0.000120
C20	C	1.295038	-0.307769	0.000164
C21	C	1.400358	-0.322044	0.000169
C22	C	1.116257	-0.526509	0.000136
C23	C	1.119045	-0.666233	0.000132
C24	C	1.209299	0.142144	0.000159
C25	C	1.206673	0.273429	0.000148
C26	C	1.034038	0.262814	0.000112
C27	C	1.036664	0.131532	0.000112
C28	C	1.308969	0.148274	0.000186
C29	C	1.306343	0.279559	0.000176
N30	N	1.121675	-0.297500	-0.346520
C31	C	1.185618	-0.219340	0.423472
C32	C	1.185616	-0.219324	0.576808
C33	C	1.057725	-0.375686	0.576806
C34	C	1.057724	-0.375694	0.423472
C35	C	1.259458	-0.129069	0.423474
C36	C	1.259455	-0.129054	0.576811
H37	H	0.624998	-0.445725	0.000129
H38	H	1.347954	0.115001	-0.101747
Cl39	Cl	1.365780	-0.186995	0.350049
Cl40	Cl	0.601039	-0.096230	0.000144
Cl41	Cl	1.357953	0.088330	0.162592
H42	H	1.236409	-0.035516	0.624358
Cl43	Cl	0.929801	0.042348	0.000055
Cl44	Cl	0.977325	-0.473965	0.327094
Cl45	Cl	1.371995	-0.173575	0.641090
H46	H	1.336465	0.322177	-0.105000
H47	H	1.343896	0.317543	0.102124
H48	H	1.243262	-0.030909	0.381855
Cl49	Cl	0.923876	0.338668	0.000070
Cl50	Cl	0.977333	-0.473953	0.673191
