data_functionalizedCrystal
_audit_creation_method	'MofGen! by Chris Wilmer'
_symmetry_space_group_name_H-M	'P1'
_symmetry_Int_Tables_number	1
_symmetry_cell_setting	triclinic
loop_
_symmetry_equiv_pos_as_xyz
  x,y,z
_cell_length_a	25.639242
_cell_length_b	25.639240
_cell_length_c	15.296720
_cell_angle_alpha	99.636054
_cell_angle_beta	80.345918
_cell_angle_gamma	89.961937
loop_
_atom_site_label
_atom_site_type_symbol
_atom_site_fract_x
_atom_site_fract_y
_atom_site_fract_z
Zn1	Zn	0.748016	0.259380	0.510214
Zn2	Zn	0.763069	0.331692	0.359357
Zn3	Zn	0.675728	0.244265	0.359363
Zn4	Zn	0.660539	0.346770	0.510131
O5	O	0.711838	0.295527	0.434766
O6	O	0.823174	0.268988	0.490234
O7	O	0.764139	0.307458	0.233126
O8	O	0.685374	0.173109	0.379411
O9	O	0.834234	0.322115	0.379400
O10	O	0.738483	0.184214	0.490241
O11	O	0.699970	0.243226	0.233131
O12	O	0.600551	0.257847	0.379331
O13	O	0.659486	0.347814	0.636373
O14	O	0.589391	0.333158	0.490099
O15	O	0.723755	0.283609	0.636434
O16	O	0.749411	0.406853	0.379320
O17	O	0.674082	0.417932	0.490093
C18	C	0.576001	0.295499	0.434707
C19	C	0.517887	0.295502	0.434704
C20	C	0.272480	0.256267	0.377189
C21	C	0.327085	0.256261	0.377177
O22	O	0.360246	0.222866	0.328225
N23	N	0.348609	0.295513	0.434749
C24	C	0.315523	0.334770	0.492343
O25	O	0.338845	0.368156	0.541311
C26	C	0.260919	0.334773	0.492358
C27	C	0.239399	0.295522	0.434776
C28	C	0.250959	0.217019	0.319612
C29	C	0.196357	0.217025	0.319623
C30	C	0.163276	0.256280	0.377210
C31	C	0.184797	0.295529	0.434786
C32	C	0.227834	0.374028	0.549955
C33	C	0.173226	0.374027	0.549966
C34	C	0.151706	0.334776	0.492384
C35	C	0.097114	0.334790	0.492384
N36	N	0.075591	0.295539	0.434812
C37	C	0.108672	0.256284	0.377225
C38	C	0.430198	0.334759	0.492307
C39	C	0.484802	0.334759	0.492288
C40	C	0.496360	0.256249	0.377124
C41	C	0.441755	0.256252	0.377139
C42	C	0.408674	0.295508	0.434735
C43	C	-0.005996	0.256301	0.377251
C44	C	-0.060603	0.256312	0.377264
C45	C	-0.072156	0.334820	0.492431
C46	C	-0.017554	0.334811	0.492415
C47	C	0.015525	0.295546	0.434822
O48	O	0.063921	0.368167	0.541314
O49	O	0.085342	0.222899	0.328273
C50	C	0.711744	0.431364	0.434716
C51	C	0.711749	0.489479	0.434725
C52	C	0.751099	0.844072	0.377150
C53	C	0.751114	0.898677	0.377159
O54	O	0.784504	0.922005	0.328179
N55	N	0.711878	0.931768	0.434786
C56	C	0.672627	0.910252	0.492415
O57	O	0.639256	0.943412	0.541433
C58	C	0.672615	0.855648	0.492410
C59	C	0.711850	0.822559	0.434773
C60	C	0.790331	0.810983	0.319518
C61	C	0.790316	0.756382	0.319508
C62	C	0.751067	0.734869	0.377131
C63	C	0.711834	0.767957	0.434763
C64	C	0.633367	0.834133	0.550043
C65	C	0.633358	0.779525	0.550034
C66	C	0.672593	0.746436	0.492396
C67	C	0.672570	0.691843	0.492376
N68	N	0.711806	0.658752	0.434749
C69	C	0.751055	0.680265	0.377126
C70	C	0.672657	1.024923	0.492422
C71	C	0.672667	1.079526	0.492423
C72	C	0.751154	1.067947	0.377168
C73	C	0.751142	1.013343	0.377163
C74	C	0.711893	0.991832	0.434795
C75	C	0.751018	0.565598	0.377110
C76	C	0.750997	0.510992	0.377103
C77	C	0.672512	0.522576	0.492361
C78	C	0.672531	0.577177	0.492365
C79	C	0.711788	0.598686	0.434737
O80	O	0.639198	0.668479	0.541334
O81	O	0.784425	0.647100	0.328125
C82	C	0.848205	0.295555	0.434826
C83	C	0.906316	0.295568	0.434851
C84	C	0.688247	0.319080	0.670049
C85	C	0.678194	0.329117	0.770313
C86	C	0.711926	1.159159	0.434820
C87	C	0.711917	1.101044	0.434803
C88	C	0.735367	0.272028	0.200399
C89	C	0.745521	0.261844	0.100136
C90	C	0.783707	0.223700	1.053066
C91	C	0.793155	0.214271	0.958863
C92	C	0.764416	0.242981	0.911721
C93	C	0.726226	0.281123	0.958791
C94	C	0.716780	0.290556	1.053003
C95	C	0.697489	0.309837	0.911658
C96	C	0.659299	0.347979	0.958727
C97	C	0.649854	0.357410	1.052930
C98	C	0.678594	0.328700	1.100072
C99	C	0.706935	0.300404	0.817446
C100	C	0.640008	0.367260	0.817382
C101	C	0.630560	0.376690	0.911585
H102	H	0.146293	0.405993	0.596872
O103	O	0.828403	0.831950	0.263545
C104	C	0.804548	0.857745	0.205208
H105	H	0.761720	0.869120	0.236905
H106	H	0.827069	0.894929	0.193228
H107	H	0.805566	0.830047	0.138318
O108	O	0.612139	0.395231	0.771638
C109	C	0.621206	0.449647	0.794648
H110	H	0.660374	0.454889	0.820565
H111	H	0.622896	0.469270	0.732676
H112	H	0.587682	0.468783	0.849308
O113	O	0.420780	0.218112	0.321331
C114	C	0.384078	0.189530	0.372797
H115	H	0.369052	0.214865	0.441104
H116	H	0.349359	0.178817	0.336083
H117	H	0.404144	0.151795	0.382820
O118	O	0.026123	0.218207	0.321171
C119	C	0.021754	0.220550	0.231240
H120	H	0.007190	0.261849	0.226568
H121	H	0.062121	0.211542	0.186672
H122	H	-0.007579	0.190153	0.207758
H123	H	0.738029	0.269348	0.779131
O124	O	0.773698	0.233819	0.820214
C125	C	0.826949	0.244122	0.788778
H126	H	0.851616	0.240641	0.843103
H127	H	0.842592	0.214229	0.725781
H128	H	0.829699	0.285826	0.772028
H129	H	0.670903	0.336375	1.176780
H130	H	-0.078121	0.224348	0.330371
O131	O	0.828445	0.724197	0.263652
C132	C	0.857037	0.697729	0.315069
H133	H	0.831710	0.696386	0.383391
H134	H	0.867741	0.655658	0.278330
H135	H	0.894779	0.719740	0.325061
H136	H	0.782986	0.583105	0.330185
O137	O	0.789308	0.981281	0.321149
C138	C	0.823940	1.011983	0.270275
H139	H	0.822034	1.054596	0.307234
H140	H	0.866094	0.995220	0.260722
H141	H	0.811698	1.010961	0.201733
H142	H	0.640555	0.505051	0.539274
H143	H	0.640692	1.007412	0.539350
H144	H	0.640583	0.604120	0.539301
H145	H	0.601415	0.861065	0.596974
H146	H	0.523304	0.224284	0.330235
H147	H	0.599465	0.407745	0.949922
O148	O	0.175540	0.178841	0.263666
C149	C	0.216457	0.144203	0.212829
H150	H	0.251683	0.146131	0.249780
H151	H	0.201661	0.102049	0.203347
H152	H	0.229113	0.156420	0.144255
H153	H	0.783114	1.085473	0.330251
O154	O	0.634525	1.111592	0.548490
C155	C	0.599875	1.080886	0.599325
H156	H	0.620964	1.042258	0.602475
H157	H	0.587141	1.103762	0.670392
H158	H	0.563500	1.071809	0.566216
O159	O	0.830251	0.177186	0.913283
C160	C	0.853600	0.153877	0.975089
H161	H	0.825453	0.158784	1.042233
H162	H	0.861940	0.109961	0.947894
H163	H	0.892287	0.174035	0.985116
O164	O	0.595179	0.758715	0.606051
C165	C	0.560565	0.799635	0.656937
H166	H	0.562486	0.834868	0.619987
H167	H	0.518404	0.784854	0.666493
H168	H	0.572814	0.812273	0.725477
O169	O	0.612796	0.394528	1.098549
C170	C	0.626499	0.444333	1.075514
H171	H	0.653456	0.438568	1.007124
H172	H	0.589073	0.467444	1.072254
H173	H	0.648047	0.467258	1.128536
H174	H	-0.000031	0.366775	0.539296
H175	H	0.782948	0.484052	0.330164
H176	H	0.502319	0.366726	0.539167
O177	O	0.811560	0.195848	1.098998
C178	C	0.795044	0.212366	1.192239
H179	H	0.753392	0.230764	1.205075
H180	H	0.795035	0.176794	1.228074
H181	H	0.823351	0.242896	1.218966
H182	H	0.277889	0.185049	0.272718
O183	O	0.398143	0.372951	0.548281
C184	C	0.428854	0.407583	0.599102
H185	H	0.471472	0.405652	0.562131
H186	H	0.412107	0.449739	0.608598
H187	H	0.427816	0.395362	0.667671
H188	H	0.245345	0.405991	0.596844
H189	H	-0.099100	0.366782	0.539314
