data_functionalizedCrystal
_audit_creation_method	'MofGen! by Chris Wilmer'
_symmetry_space_group_name_H-M	'P1'
_symmetry_Int_Tables_number	1
_symmetry_cell_setting	triclinic
loop_
_symmetry_equiv_pos_as_xyz
  x,y,z
_cell_length_a	19.121241
_cell_length_b	19.121111
_cell_length_c	19.120904
_cell_angle_alpha	85.256407
_cell_angle_beta	89.875472
_cell_angle_gamma	84.995459
loop_
_atom_site_label
_atom_site_type_symbol
_atom_site_fract_x
_atom_site_fract_y
_atom_site_fract_z
Zn1	Zn	1.043551	0.254511	-0.452560
Zn2	Zn	1.543551	0.754511	0.047440
Zn3	Zn	1.043461	0.367162	-0.339911
Zn4	Zn	1.543461	0.867162	0.160089
Zn5	Zn	0.931336	0.254093	-0.330312
Zn6	Zn	1.431336	0.754093	0.169688
Zn7	Zn	0.920826	0.377148	-0.452504
Zn8	Zn	1.420826	0.877148	0.047496
O9	O	0.984793	0.313228	-0.393822
O10	O	1.484793	0.813228	0.106178
O11	O	1.141824	0.265450	-0.441657
O12	O	1.641824	0.765450	0.058343
O13	O	1.032948	0.347809	-0.240356
O14	O	1.532948	0.847809	0.259644
O15	O	0.950657	0.155504	-0.342535
O16	O	1.450657	0.655504	0.157465
O17	O	1.141758	0.348214	-0.358894
O18	O	1.641758	0.848214	0.141106
O19	O	1.033101	0.155812	-0.432350
O20	O	1.533101	0.655812	0.067650
O21	O	0.950570	0.264737	-0.233304
O22	O	1.450570	0.764737	0.266696
O23	O	0.831656	0.274420	-0.342481
O24	O	1.331656	0.774420	0.157519
O25	O	0.932744	0.365235	-0.550793
O26	O	1.432744	0.865235	-0.050793
O27	O	0.823934	0.364829	-0.432255
O28	O	1.323934	0.864829	0.067745
O29	O	1.022910	0.275134	-0.550834
O30	O	1.522910	0.775134	-0.050834
O31	O	1.022757	0.467131	-0.358840
O32	O	1.522757	0.967131	0.141160
O33	O	0.932657	0.474467	-0.441562
O34	O	1.432657	0.974467	0.058438
C35	C	0.802311	0.320663	-0.386321
C36	C	1.302311	0.820663	0.113679
C37	C	0.724242	0.323862	-0.383129
C38	C	1.224242	0.823862	0.116871
C39	C	0.687594	0.282348	-0.424792
C40	C	1.187594	0.782348	0.075208
C41	C	0.614241	0.285350	-0.421787
C42	C	1.114241	0.785350	0.078213
C43	C	0.577537	0.329869	-0.377123
C44	C	1.077537	0.829869	0.122877
C45	C	0.614190	0.371385	-0.335456
C46	C	1.114190	0.871385	0.164544
C47	C	0.687542	0.368379	-0.338458
C48	C	1.187542	0.868379	0.161542
C49	C	0.356060	0.341094	-0.365896
C50	C	0.856060	0.841094	0.134104
C51	C	0.282703	0.344098	-0.362899
C52	C	0.782703	0.844098	0.137101
C53	C	0.282759	0.258062	-0.449230
C54	C	0.782759	0.758062	0.050770
C55	C	0.356112	0.255063	-0.452230
C56	C	0.856112	0.755063	0.047770
C57	C	0.392759	0.296576	-0.410561
C58	C	0.892759	0.796576	0.089439
C59	C	0.502558	0.332940	-0.374052
C60	C	1.002558	0.832940	0.125948
C61	C	0.467737	0.293501	-0.413629
C62	C	0.967737	0.793501	0.086371
C63	C	0.976575	0.496376	-0.401253
C64	C	1.476575	0.996376	0.098747
C65	C	0.973123	0.574726	-0.404458
C66	C	1.473123	1.074726	0.095542
C67	C	1.018444	0.607692	-0.362934
C68	C	1.518444	1.107692	0.137066
C69	C	1.015201	0.681310	-0.365953
C70	C	1.515201	1.181310	0.134047
C71	C	0.966633	0.721961	-0.410493
C72	C	1.466633	1.221961	0.089507
C73	C	0.921310	0.688990	-0.452022
C74	C	1.421310	1.188990	0.047978
C75	C	0.924557	0.615373	-0.449006
C76	C	1.424557	1.115373	0.050994
C77	C	0.954484	0.944429	-0.421754
C78	C	1.454484	1.444429	0.078246
C79	C	0.951239	1.018051	-0.424765
C80	C	1.451239	1.518051	0.075235
C81	C	1.045132	1.010365	-0.338696
C82	C	1.545132	1.510365	0.161304
C83	C	1.048371	0.936747	-0.335682
C84	C	1.548371	1.436747	0.164318
C85	C	1.003051	0.903783	-0.377213
C86	C	1.503051	1.403783	0.122787
C87	C	0.963315	0.797211	-0.413578
C88	C	1.463315	1.297211	0.086422
C89	C	1.006372	0.828534	-0.374131
C90	C	1.506372	1.328534	0.125869
C91	C	1.167988	0.305765	-0.401352
C92	C	1.667988	0.805765	0.098648
C93	C	1.246055	0.302584	-0.404561
C94	C	1.746055	0.802584	0.095439
C95	C	0.976665	0.321345	-0.577010
C96	C	1.476665	0.821345	-0.077010
C97	C	0.973201	0.324803	-0.655073
C98	C	1.473201	0.824803	-0.155073
C99	C	0.993055	1.129366	-0.386386
C100	C	1.493055	1.629366	0.113614
C101	C	0.996560	1.051017	-0.383240
C102	C	1.496560	1.551017	0.116760
C103	C	1.018516	0.279520	-0.691770
C104	C	1.518516	0.779520	-0.191770
C105	C	1.015252	0.282767	-0.765119
C106	C	1.515252	0.782767	-0.265119
C107	C	0.966678	0.331302	-0.801770
C108	C	1.466678	0.831302	-0.301770
C109	C	0.921358	0.376588	-0.765068
C110	C	1.421358	0.876588	-0.265068
C111	C	0.924618	0.373336	-0.691720
C112	C	1.424618	0.873336	-0.191720
C113	C	0.954482	0.343463	-1.023231
C114	C	1.454482	0.843463	-0.523231
C115	C	0.951227	0.346712	-1.096584
C116	C	1.451227	0.846712	-0.596584
C117	C	1.045121	0.252890	-1.096630
C118	C	1.545121	0.752890	-0.596630
C119	C	1.048379	0.249646	-1.023281
C120	C	1.548379	0.749646	-0.523281
C121	C	1.003058	0.294929	-0.986585
C122	C	1.503058	0.794929	-0.486585
C123	C	0.963343	0.334624	-0.876744
C124	C	1.463343	0.834624	-0.376744
C125	C	1.006390	0.291603	-0.911612
C126	C	1.506390	0.791603	-0.411612
C127	C	0.992933	0.305091	-0.211346
C128	C	1.492933	0.805091	0.288654
C129	C	0.996542	0.301428	-0.133280
C130	C	1.496542	0.801428	0.366720
H131	H	0.717380	0.402183	-0.304531
H132	H	1.217380	0.902183	0.195469
C133	C	1.094967	0.203077	-1.136996
C134	C	1.594967	0.703077	-0.636996
C135	C	1.175002	0.205128	-1.130433
C136	C	1.675002	0.705128	-0.630433
C137	C	1.224849	0.155311	-1.170799
C138	C	1.724849	0.655311	-0.670799
C139	C	1.194662	0.103441	-1.217729
C140	C	1.694662	0.603441	-0.717729
C141	C	1.114624	0.101388	-1.224295
C142	C	1.614624	0.601388	-0.724295
C143	C	1.064776	0.151205	-1.183928
C144	C	1.564776	0.651205	-0.683928
H145	H	1.197351	0.243527	-1.095691
H146	H	1.697351	0.743527	-0.595691
H147	H	1.284098	0.156831	-1.165939
H148	H	1.784098	0.656831	-0.665939
H149	H	1.231562	0.066563	-1.247611
H150	H	1.731562	0.566563	-0.747611
H151	H	1.092274	0.062989	-1.259037
H152	H	1.592274	0.562989	-0.759037
H153	H	1.005527	0.149685	-1.188789
H154	H	1.505527	0.649685	-0.688789
C155	C	0.727966	0.233374	-0.473922
C156	C	1.227966	0.733374	0.026078
C157	C	0.808650	0.230063	-0.477227
C158	C	1.308650	0.730063	0.022773
C159	C	0.849019	0.181085	-0.526356
C160	C	1.349019	0.681085	-0.026356
C161	C	0.808704	0.135416	-0.572179
C162	C	1.308704	0.635416	-0.072179
C163	C	0.728015	0.138725	-0.568874
C164	C	1.228015	0.638725	-0.068874
C165	C	0.687646	0.187703	-0.519746
C166	C	1.187646	0.687703	-0.019746
H167	H	0.838498	0.263872	-0.443305
H168	H	1.338498	0.763872	0.056695
H169	H	0.908751	0.178636	-0.528802
H170	H	1.408751	0.678636	-0.028802
H171	H	0.838588	0.099159	-0.608547
H172	H	1.338588	0.599159	-0.108547
H173	H	0.698168	0.104917	-0.602797
H174	H	1.198168	0.604917	-0.102797
H175	H	0.627915	0.190152	-0.517300
H176	H	1.127915	0.690152	-0.017300
C177	C	0.897812	0.400125	-1.136903
C178	C	1.397812	0.900125	-0.636903
C179	C	0.847975	0.449952	-1.096543
C180	C	1.347975	0.949952	-0.596543
C181	C	0.794576	0.503374	-1.136864
C182	C	1.294576	1.003374	-0.636864
C183	C	0.791014	0.506970	-1.217545
C184	C	1.291014	1.006970	-0.717545
C185	C	0.840852	0.457141	-1.257910
C186	C	1.340852	0.957141	-0.757910
C187	C	0.894251	0.403719	-1.217589
C188	C	1.394251	0.903719	-0.717589
H189	H	0.850610	0.447292	-1.036814
H190	H	1.350610	0.947292	-0.536814
H191	H	0.757682	0.540260	-1.106983
H192	H	1.257682	1.040260	-0.606983
H193	H	0.751484	0.546516	-1.247393
H194	H	1.251484	1.046516	-0.747393
H195	H	0.838217	0.459801	-1.317639
H196	H	1.338217	0.959801	-0.817639
H197	H	0.931145	0.366833	-1.247470
H198	H	1.431145	0.866833	-0.747470
C199	C	0.508110	0.244530	-0.462757
C200	C	1.008110	0.744530	0.037243
C201	C	0.554735	0.275542	-0.521148
C202	C	1.054735	0.775542	-0.021148
C203	C	0.595116	0.226573	-0.570278
C204	C	1.095116	0.726573	-0.070278
C205	C	0.588871	0.146593	-0.561018
C206	C	1.088871	0.646593	-0.061018
C207	C	0.542244	0.115577	-0.502625
C208	C	1.042244	0.615577	-0.002625
C209	C	0.501863	0.164545	-0.453495
C210	C	1.001863	0.664545	0.046505
H211	H	0.559360	0.334752	-0.528005
H212	H	1.059360	0.834752	-0.028005
H213	H	0.629633	0.249534	-0.613504
H214	H	1.129633	0.749534	-0.113504
H215	H	0.618764	0.110343	-0.597387
H216	H	1.118764	0.610343	-0.097387
H217	H	0.537620	0.056367	-0.495768
H218	H	1.037620	0.556367	0.004232
H219	H	0.467347	0.141585	-0.410268
H220	H	0.967347	0.641585	0.089732
C221	C	0.396474	0.206098	-0.501375
C222	C	0.896474	0.706098	-0.001375
C223	C	0.443082	0.237119	-0.559777
C224	C	0.943082	0.737119	-0.059777
C225	C	0.483439	0.188160	-0.608932
C226	C	0.983439	0.688160	-0.108932
C227	C	0.477189	0.108180	-0.599686
C228	C	0.977189	0.608180	-0.099686
C229	C	0.430580	0.077155	-0.541282
C230	C	0.930580	0.577155	-0.041282
C231	C	0.390223	0.126114	-0.492127
C232	C	0.890223	0.626114	0.007873
H233	H	0.447710	0.296329	-0.566624
H234	H	0.947710	0.796329	-0.066624
H235	H	0.517942	0.211127	-0.652167
H236	H	1.017942	0.711127	-0.152167
H237	H	0.507064	0.071938	-0.636074
H238	H	1.007064	0.571938	-0.136074
H239	H	0.425951	0.017945	-0.534435
H240	H	0.925951	0.517945	-0.034435
H241	H	0.355719	0.103146	-0.448892
H242	H	0.855719	0.603146	0.051108
C243	C	0.242446	0.212393	-0.495055
C244	C	0.742446	0.712393	0.004945
C245	C	0.188209	0.247524	-0.549325
C246	C	0.688209	0.747524	-0.049325
C247	C	0.147895	0.201850	-0.595149
C248	C	0.647895	0.701850	-0.095149
C249	C	0.161819	0.121045	-0.586703
C250	C	0.661819	0.621045	-0.086703
C251	C	0.216058	0.085910	-0.532431
C252	C	0.716058	0.585910	-0.032431
C253	C	0.256371	0.131584	-0.486607
C254	C	0.756371	0.631584	0.013393
H255	H	0.177900	0.307345	-0.555579
H256	H	0.677900	0.807345	-0.055579
H257	H	0.107744	0.227860	-0.635324
H258	H	0.607744	0.727860	-0.135324
H259	H	0.131976	0.087234	-0.620625
H260	H	0.631976	0.587234	-0.120625
H261	H	0.226367	0.026089	-0.526177
H262	H	0.726367	0.526089	-0.026177
H263	H	0.296523	0.105574	-0.446431
H264	H	0.796523	0.605574	0.053569
C265	C	0.242324	0.393067	-0.313762
C266	C	0.742324	0.893067	0.186238
C267	C	0.256190	0.383231	-0.234102
C268	C	0.756190	0.883231	0.265898
C269	C	0.215809	0.432197	-0.184969
C270	C	0.715809	0.932197	0.315031
C271	C	0.161562	0.490998	-0.215496
C272	C	0.661562	0.990998	0.284504
C273	C	0.147694	0.500836	-0.295160
C274	C	0.647694	1.000836	0.204840
C275	C	0.188075	0.451870	-0.344293
C276	C	0.688075	0.951870	0.155707
H277	H	0.296349	0.339701	-0.211501
H278	H	0.796349	0.839701	0.288499
H279	H	0.226076	0.424914	-0.125996
H280	H	0.726076	0.924914	0.374004
H281	H	0.131670	0.527245	-0.179125
H282	H	0.631670	1.027245	0.320875
H283	H	0.107535	0.544366	-0.317762
H284	H	0.607535	1.044366	0.182238
H285	H	0.177808	0.459153	-0.403266
H286	H	0.677808	0.959153	0.096734
C287	C	0.396362	0.386766	-0.320068
C288	C	0.896362	0.886766	0.179932
C289	C	0.390059	0.377774	-0.239585
C290	C	0.890059	0.877774	0.260415
C291	C	0.430362	0.423452	-0.193755
C292	C	0.930362	0.923452	0.306245
C293	C	0.476968	0.478122	-0.228409
C294	C	0.976968	0.978122	0.271591
C295	C	0.483273	0.487116	-0.308897
C296	C	0.983273	0.987116	0.191103
C297	C	0.442970	0.441438	-0.354726
C298	C	0.942970	0.941438	0.145274
H299	H	0.355557	0.337302	-0.213928
H300	H	0.855557	0.837302	0.286072
H301	H	0.425695	0.416794	-0.134173
H302	H	0.925695	0.916794	0.365827
H303	H	0.506803	0.511935	-0.194484
H304	H	1.006803	1.011935	0.305516
H305	H	0.517775	0.527588	-0.334554
H306	H	1.017775	1.027588	0.165446
H307	H	0.447637	0.448097	-0.414309
H308	H	0.947637	0.948097	0.085691
H309	H	1.058073	0.239999	-0.661934
H310	H	1.558073	0.739999	-0.161934
H311	H	1.082030	1.037213	-0.304885
H312	H	1.582030	1.537213	0.195115
C313	C	0.904629	0.908179	-0.467439
C314	C	1.404629	1.408179	0.032561
C315	C	0.824597	0.921374	-0.458783
C316	C	1.324597	1.421374	0.041217
C317	C	0.774740	0.885123	-0.504473
C318	C	1.274740	1.385123	-0.004473
C319	C	0.804916	0.835677	-0.558820
C320	C	1.304916	1.335677	-0.058820
C321	C	0.884953	0.822481	-0.567479
C322	C	1.384953	1.322481	-0.067479
C323	C	0.934810	0.858731	-0.521789
C324	C	1.434810	1.358731	-0.021789
H325	H	0.802255	0.957978	-0.418550
H326	H	1.302255	1.457978	0.081450
H327	H	0.715491	0.894892	-0.498063
H328	H	1.215491	1.394892	0.001937
H329	H	0.768010	0.808842	-0.592643
H330	H	1.268010	1.308842	-0.092643
H331	H	0.907295	0.785876	-0.607712
H332	H	1.407295	1.285876	-0.107712
H333	H	0.994058	0.848962	-0.528199
H334	H	1.494058	1.348962	-0.028199
C335	C	0.904621	0.393279	-0.982887
C336	C	1.404621	0.893279	-0.482887
C337	C	0.824591	0.391218	-0.989479
C338	C	1.324591	0.891218	-0.489479
C339	C	0.774721	0.441038	-0.949138
C340	C	1.274721	0.941038	-0.449138
C341	C	0.804882	0.492920	-0.902205
C342	C	1.304882	0.992920	-0.402205
C343	C	0.884917	0.494984	-0.895611
C344	C	1.384917	0.994984	-0.395611
C345	C	0.934786	0.445163	-0.935952
C346	C	1.434786	0.945163	-0.435952
H347	H	0.802260	0.352810	-1.024223
H348	H	1.302260	0.852810	-0.524223
H349	H	0.715474	0.439510	-0.954020
H350	H	1.215474	0.939510	-0.454020
H351	H	0.767966	0.529800	-0.872343
H352	H	1.267966	1.029800	-0.372343
H353	H	0.907248	0.533392	-0.860867
H354	H	1.407248	1.033392	-0.360867
H355	H	0.994033	0.446691	-0.931070
H356	H	1.494033	0.946691	-0.431070
C357	C	1.065056	0.717568	-0.320271
C358	C	1.565056	1.217568	0.179729
C359	C	1.034882	0.767025	-0.265933
C360	C	1.534882	1.267025	0.234067
C361	C	1.084741	0.803280	-0.220249
C362	C	1.584741	1.303280	0.279751
C363	C	1.164774	0.790078	-0.228903
C364	C	1.664774	1.290078	0.271097
C365	C	1.194951	0.740619	-0.283244
C366	C	1.694951	1.240619	0.216756
C367	C	1.145092	0.704364	-0.328927
C368	C	1.645092	1.204364	0.171073
H369	H	0.975634	0.776800	-0.259525
H370	H	1.475634	1.276800	0.240475
H371	H	1.062401	0.839893	-0.180023
H372	H	1.562401	1.339893	0.319977
H373	H	1.201682	0.816917	-0.195085
H374	H	1.701682	1.316917	0.304915
H375	H	1.254200	0.730844	-0.289652
H376	H	1.754200	1.230844	0.210348
H377	H	1.167432	0.667750	-0.369154
H378	H	1.667432	1.167750	0.130846
H379	H	0.472666	0.369188	-0.337686
H380	H	0.972666	0.869188	0.162314
C381	C	0.874700	0.579107	-0.494681
C382	C	1.374700	1.079107	0.005319
C383	C	0.794668	0.592295	-0.486020
C384	C	1.294668	1.092295	0.013980
C385	C	0.744812	0.556030	-0.531698
C386	C	1.244812	1.056030	-0.031698
C387	C	0.774990	0.506576	-0.586037
C388	C	1.274990	1.006576	-0.086037
C389	C	0.855027	0.493385	-0.594701
C390	C	1.355027	0.993385	-0.094701
C391	C	0.904882	0.529651	-0.549022
C392	C	1.404882	1.029651	-0.049022
H393	H	0.772325	0.628906	-0.445793
H394	H	1.272325	1.128906	0.054207
H395	H	0.685564	0.565794	-0.525285
H396	H	1.185564	1.065794	-0.025285
H397	H	0.738084	0.479730	-0.619851
H398	H	1.238084	0.979730	-0.119851
H399	H	0.877370	0.456775	-0.634928
H400	H	1.377370	0.956775	-0.134928
H401	H	0.964131	0.519886	-0.555436
H402	H	1.464131	1.019886	-0.055436
C403	C	1.065101	0.232952	-0.805482
C404	C	1.565101	0.732952	-0.305482
C405	C	1.145135	0.235009	-0.798919
C406	C	1.645135	0.735009	-0.298919
C407	C	1.194985	0.185189	-0.839280
C408	C	1.694985	0.685189	-0.339280
C409	C	1.164801	0.133312	-0.886204
C410	C	1.664801	0.633312	-0.386204
C411	C	1.084763	0.131254	-0.892769
C412	C	1.584763	0.631254	-0.392769
C413	C	1.034913	0.181074	-0.852408
C414	C	1.534913	0.681074	-0.352408
H415	H	1.167482	0.273412	-0.764181
H416	H	1.667482	0.773412	-0.264181
H417	H	1.254234	0.186713	-0.834420
H418	H	1.754234	0.686713	-0.334420
H419	H	1.201703	0.096433	-0.916082
H420	H	1.701703	0.596433	-0.416082
H421	H	1.062416	0.092850	-0.927507
H422	H	1.562416	0.592850	-0.427507
H423	H	0.975664	0.179550	-0.857269
H424	H	1.475664	0.679550	-0.357269
H425	H	0.881805	0.416104	-0.794914
H426	H	1.381805	0.916104	-0.294914
H427	H	0.887712	0.410205	-0.661842
H428	H	1.387712	0.910205	-0.161842
H429	H	0.584406	0.251547	-0.455714
H430	H	1.084406	0.751547	0.044286
H431	H	0.584300	0.407630	-0.299086
H432	H	1.084300	0.907630	0.200914
H433	H	1.057991	0.574598	-0.326661
H434	H	1.557991	1.074598	0.173339
H435	H	1.045919	0.795434	-0.337870
H436	H	1.545919	1.295434	0.162130
H437	H	1.087920	0.903650	-0.299414
H438	H	1.587920	1.403650	0.200586
H439	H	0.911697	1.051147	-0.461047
H440	H	1.411697	1.551147	0.038953
H441	H	0.881767	0.722094	-0.488290
H442	H	1.381767	1.222094	0.011710
H443	H	0.923770	0.830317	-0.449841
H444	H	1.423770	1.330317	0.050159
H445	H	1.087936	0.210125	-0.993445
H446	H	1.587936	0.710125	-0.493445
H447	H	1.045936	0.252083	-0.881767
H448	H	1.545936	0.752083	-0.381767
H449	H	0.923796	0.374145	-0.906593
H450	H	1.423796	0.874145	-0.406593
