data_functionalizedCrystal
_audit_creation_method	'MofGen! by Chris Wilmer'
_symmetry_space_group_name_H-M	'P1'
_symmetry_Int_Tables_number	1
_symmetry_cell_setting	triclinic
loop_
_symmetry_equiv_pos_as_xyz
  x,y,z
_cell_length_a	11.792241
_cell_length_b	16.992695
_cell_length_c	15.455313
_cell_angle_alpha	87.152573
_cell_angle_beta	87.304628
_cell_angle_gamma	92.569181
loop_
_atom_site_label
_atom_site_type_symbol
_atom_site_fract_x
_atom_site_fract_y
_atom_site_fract_z
O1	O	1.520363	-0.104106	-0.072047
O2	O	2.020363	0.395894	0.427953
O3	O	1.190930	-0.115185	-0.072067
O4	O	1.690930	0.384815	0.427933
O5	O	1.354325	0.004502	-0.072050
O6	O	1.854325	0.504502	0.427950
O7	O	1.356967	-0.223794	-0.072064
O8	O	1.856967	0.276206	0.427936
O9	O	1.344979	-0.002314	0.072211
O10	O	1.844979	0.497686	0.572211
O11	O	1.181583	-0.122001	0.072194
O12	O	1.681583	0.377999	0.572194
O13	O	1.511017	-0.110922	0.072214
O14	O	2.011017	0.389078	0.572214
Cu15	Cu	1.345447	-0.117084	0.085376
Cu16	Cu	1.845447	0.382916	0.585376
Cu17	Cu	1.356500	-0.109023	-0.085229
Cu18	Cu	1.856500	0.390977	0.414771
O19	O	1.347621	-0.230610	0.072197
O20	O	1.847621	0.269390	0.572197
C21	C	1.143909	-0.117897	0.000061
C22	C	1.643909	0.382103	0.500061
C23	C	1.017725	-0.115814	0.000053
C24	C	1.517725	0.384186	0.500053
N25	N	1.337681	-0.122753	0.205371
N26	N	1.837681	0.377247	0.705371
C27	C	1.346254	0.030321	0.000080
C28	C	1.846254	0.530321	0.500080
C29	C	1.336116	0.117409	0.000079
C30	C	1.836116	0.617409	0.500079
C31	C	0.786698	-0.111984	0.000078
C32	C	1.286698	0.388016	0.500078
C33	C	0.915258	-0.114112	0.000065
C34	C	1.415258	0.385888	0.500065
C35	C	1.558038	-0.108210	0.000084
C36	C	2.058038	0.391790	0.500084
C37	C	1.684222	-0.110293	0.000086
C38	C	2.184222	0.389707	0.500086
C39	C	1.355692	-0.256428	0.000065
C40	C	1.855692	0.243572	0.500065
C41	C	1.365831	-0.343516	0.000060
C42	C	1.865831	0.156484	0.500060
C43	C	1.433934	0.167233	0.000086
C44	C	1.933934	0.667233	0.500086
C45	C	1.424402	0.249060	0.000077
C46	C	1.924402	0.749060	0.500077
C47	C	1.317051	0.281062	0.000068
C48	C	1.817051	0.781062	0.500068
C49	C	1.219227	0.231231	0.000058
C50	C	1.719227	0.731231	0.500058
C51	C	1.228760	0.149406	0.000061
C52	C	1.728760	0.649406	0.500061
C53	C	1.277539	0.524828	0.000053
C54	C	1.777539	1.024828	0.500053
C55	C	1.268013	0.606660	0.000053
C56	C	1.768013	1.106660	0.500053
C57	C	1.473190	0.624484	0.000071
C58	C	1.973190	1.124484	0.500071
C59	C	1.482713	0.542656	0.000079
C60	C	1.982713	1.042656	0.500079
C61	C	1.384889	0.492832	0.000065
C62	C	1.884889	0.992832	0.500065
N63	N	1.307305	0.364702	0.000062
N64	N	1.807305	0.864702	0.500062
N65	N	1.394636	0.409194	0.000065
N66	N	1.894636	0.909194	0.500065
N67	N	1.364274	-0.103348	-0.205224
N68	N	1.864274	0.396652	0.294776
C69	C	1.407124	-0.071924	0.250772
C70	C	1.907124	0.428076	0.750772
C71	C	1.401263	-0.076219	0.341580
C72	C	1.901263	0.423781	0.841580
C73	C	1.325962	-0.131346	0.386984
C74	C	1.825962	0.368654	0.886984
C75	C	1.256511	-0.182177	0.341576
C76	C	1.756511	0.317823	0.841576
C77	C	1.262368	-0.177878	0.250771
C78	C	1.762368	0.322122	0.750771
C79	C	1.300680	-0.149880	0.658563
C80	C	1.800680	0.350120	1.158563
C81	C	1.294830	-0.154177	0.749375
C82	C	1.794830	0.345823	1.249375
C83	C	1.439581	-0.048217	0.749372
C84	C	1.939581	0.451783	1.249372
C85	C	1.445436	-0.043926	0.658565
C86	C	1.945436	0.456074	1.158565
C87	C	1.375981	-0.094754	0.613165
C88	C	1.875981	0.405246	1.113165
N89	N	1.319971	-0.135739	0.479804
N90	N	1.819971	0.364261	0.979804
N91	N	1.381967	-0.090357	0.520347
N92	N	1.881967	0.409643	1.020347
H93	H	1.521350	0.141184	0.000099
H94	H	2.021350	0.641184	0.500099
H95	H	1.504055	0.289625	0.000085
H96	H	2.004055	0.789625	0.500085
H97	H	1.131820	0.257293	0.000045
H98	H	1.631820	0.757293	0.500045
H99	H	1.457808	-0.034830	0.378545
H100	H	1.957808	0.465170	0.878545
H101	H	1.570129	0.516607	0.000087
H102	H	2.070129	1.016607	0.500087
H103	H	1.552832	0.665058	0.000081
H104	H	2.052832	1.165058	0.500081
C105	C	1.121153	0.094599	0.000055
C106	C	1.621153	0.594599	0.500055
N107	N	1.040099	0.053319	0.000049
N108	N	1.540099	0.553319	0.500049
C109	C	1.211987	-0.214821	0.799318
C110	C	1.711987	0.285179	1.299318
N111	N	1.149593	-0.260497	0.836935
N112	N	1.649593	0.239503	1.336935
C113	C	1.224432	-0.205896	0.608635
C114	C	1.724432	0.294104	1.108635
N115	N	1.167055	-0.248126	0.571026
N116	N	1.667055	0.251874	1.071026
C117	C	1.173668	-0.242810	0.391524
C118	C	1.673668	0.257190	0.891524
N119	N	1.111268	-0.288481	0.429144
N120	N	1.611268	0.211519	0.929144
H121	H	1.468447	-0.027037	0.213810
H122	H	1.968447	0.472963	0.713810
C123	C	1.149914	0.641859	0.000036
C124	C	1.649914	1.141859	0.500036
N125	N	1.060967	0.668372	0.000023
N126	N	1.560967	1.168372	0.500023
H127	H	1.506752	0.000963	0.621598
H128	H	2.006752	0.500963	1.121598
C129	C	1.515967	0.007696	0.799319
C130	C	2.015967	0.507696	1.299319
N131	N	1.573500	0.049815	0.836939
N132	N	2.073500	0.549815	1.336939
H133	H	1.197883	0.484271	0.000042
H134	H	1.697883	0.984271	0.500042
H135	H	1.205818	-0.219267	0.213806
H136	H	1.705818	0.280733	0.713806
