data_functionalizedCrystal
_audit_creation_method	'MofGen! by Chris Wilmer'
_symmetry_space_group_name_H-M	'P1'
_symmetry_Int_Tables_number	1
_symmetry_cell_setting	triclinic
loop_
_symmetry_equiv_pos_as_xyz
  x,y,z
_cell_length_a	21.295417
_cell_length_b	18.215407
_cell_length_c	18.215399
_cell_angle_alpha	90.018561
_cell_angle_beta	89.967848
_cell_angle_gamma	89.977757
loop_
_atom_site_label
_atom_site_type_symbol
_atom_site_fract_x
_atom_site_fract_y
_atom_site_fract_z
Zn1	Zn	-0.250754	-1.125043	-0.416069
Zn2	Zn	0.249246	-0.625043	0.083931
Zn3	Zn	-0.356026	-1.124939	-0.292994
Zn4	Zn	0.143974	-0.624939	0.207006
Zn5	Zn	-0.250759	-1.001976	-0.293019
Zn6	Zn	0.249241	-0.501976	0.206981
Zn7	Zn	-0.355975	-1.001930	-0.416022
Zn8	Zn	0.144025	-0.501930	0.083978
O9	O	-0.303378	-1.063472	-0.354526
O10	O	0.196622	-0.563472	0.145474
O11	O	-0.264738	-1.228014	-0.399752
O12	O	0.235262	-0.728014	0.100248
O13	O	-0.342085	-1.108604	-0.190013
O14	O	0.157915	-0.608604	0.309987
O15	O	-0.162669	-1.018364	-0.309373
O16	O	0.337331	-0.518364	0.190627
O17	O	-0.342081	-1.227937	-0.309329
O18	O	0.157919	-0.727937	0.190671
O19	O	-0.162666	-1.108781	-0.399777
O20	O	0.337334	-0.608781	0.100223
O21	O	-0.264746	-1.018263	-0.190032
O22	O	0.235254	-0.518263	0.309968
O23	O	-0.264697	-0.898985	-0.309327
O24	O	0.235303	-0.398985	0.190673
O25	O	-0.341994	-1.018285	-0.519012
O26	O	0.158006	-0.518285	-0.019012
O27	O	-0.341998	-0.898951	-0.399696
O28	O	0.158002	-0.398951	0.100304
O29	O	-0.264689	-1.108736	-0.519047
O30	O	0.235311	-0.608736	-0.019047
O31	O	-0.444108	-1.108559	-0.309283
O32	O	0.055892	-0.608559	0.190717
O33	O	-0.444071	-1.018184	-0.399671
O34	O	0.055929	-0.518184	0.100329
C35	C	-0.303343	-0.872266	-0.354509
C36	C	0.196657	-0.372266	0.145491
C37	C	-0.303343	-0.790467	-0.354519
C38	C	0.196657	-0.290467	0.145481
C39	C	-0.263162	-0.525443	-0.401677
C40	C	0.236838	-0.025443	0.098323
C41	C	-0.263155	-0.602302	-0.401676
C42	C	0.236845	-0.102302	0.098324
C43	C	-0.343574	-0.602242	-0.307378
C44	C	0.156426	-0.102242	0.192622
C45	C	-0.343584	-0.525385	-0.307383
C46	C	0.156416	-0.025385	0.192617
C47	C	-0.303374	-0.486987	-0.354532
C48	C	0.196626	0.013013	0.145468
C49	C	-0.303357	-0.640703	-0.354525
C50	C	0.196643	-0.140703	0.145475
C51	C	-0.303350	-0.724037	-0.354523
C52	C	0.196650	-0.224037	0.145477
C53	C	-0.303382	-0.403648	-0.354535
C54	C	0.196618	0.096352	0.145465
C55	C	-0.466930	-1.063375	-0.354485
C56	C	0.033070	-0.563375	0.145515
C57	C	-0.536898	-1.063402	-0.354492
C58	C	-0.036898	-0.563402	0.145508
C59	C	-0.569763	-1.110502	-0.307476
C60	C	-0.069763	-0.610502	0.192524
C61	C	-0.635506	-1.110536	-0.307492
C62	C	-0.135506	-0.610536	0.192508
C63	C	-0.668381	-1.063457	-0.354518
C64	C	-0.168381	-0.563457	0.145482
C65	C	-0.635507	-1.016354	-0.401544
C66	C	-0.135507	-0.516354	0.098456
C67	C	-0.569766	-1.016326	-0.401531
C68	C	-0.069766	-0.516326	0.098469
N69	N	-0.771638	-0.999079	-0.360123
N70	N	-0.271638	-0.499079	0.139877
N71	N	-0.834090	-0.999107	-0.360130
N72	N	-0.334090	-0.499107	0.139870
C73	C	-0.866455	-1.063540	-0.354560
C74	C	-0.366455	-0.563540	0.145440
N75	N	-0.834010	-1.127944	-0.348967
N76	N	-0.334010	-0.627944	0.151033
N77	N	-0.771553	-1.127915	-0.348956
N78	N	-0.271553	-0.627915	0.151044
C79	C	-0.739666	-1.063483	-0.354537
C80	C	-0.239666	-0.563483	0.145463
C81	C	-0.970606	-1.110681	-0.307559
C82	C	-0.470606	-0.610681	0.192441
C83	C	-1.036350	-1.110717	-0.307580
C84	C	-0.536350	-0.610717	0.192420
C85	C	-1.036350	-1.016528	-0.401628
C86	C	-0.536350	-0.516528	0.098372
C87	C	-0.970608	-1.016499	-0.401610
C88	C	-0.470608	-0.516499	0.098390
C89	C	-0.937740	-1.063575	-0.354572
C90	C	-0.437740	-0.563575	0.145428
C91	C	-0.139188	-1.063589	-0.354583
C92	C	0.360812	-0.563589	0.145417
C93	C	-0.069220	-1.063639	-0.354607
C94	C	0.430780	-0.563639	0.145393
C95	C	-0.303335	-1.063517	-0.546479
C96	C	0.196665	-0.563517	-0.046479
C97	C	-0.303317	-1.063536	-0.628278
C98	C	0.196683	-0.563536	-0.128278
C99	C	-0.303404	-0.255425	-0.354540
C100	C	0.196596	0.244575	0.145460
C101	C	-0.303389	-0.337224	-0.354538
C102	C	0.196611	0.162776	0.145462
C103	C	-0.263026	-1.110651	-0.816491
C104	C	0.236974	-0.610651	-0.316491
C105	C	-0.263008	-1.110659	-0.893350
C106	C	0.236992	-0.610659	-0.393350
C107	C	-0.343509	-1.016473	-0.893303
C108	C	0.156491	-0.516473	-0.393303
C109	C	-0.343524	-1.016461	-0.816445
C110	C	0.156476	-0.516461	-0.316445
C111	C	-0.303284	-1.063554	-0.778042
C112	C	0.196716	-0.563554	-0.278042
C113	C	-0.303250	-1.063575	-0.931758
C114	C	0.196750	-0.563575	-0.431758
C115	C	-0.303231	-1.063584	-1.015091
C116	C	0.196769	-0.563584	-0.515091
C117	C	-0.303302	-1.063544	-0.694703
C118	C	0.196698	-0.563544	-0.194703
C119	C	-0.303376	-1.063470	-0.163320
C120	C	0.196624	-0.563470	0.336680
C121	C	-0.303217	-1.063593	-0.081521
C122	C	0.196783	-0.563593	0.418479
H123	H	-0.376333	-0.494073	-0.268992
H124	H	0.123667	0.005927	0.231008
O125	O	-0.938606	-1.156450	-0.261975
O126	O	-0.438606	-0.656450	0.238025
C127	C	-0.900530	-1.203952	-0.303909
C128	C	-0.400530	-0.703952	0.196091
H129	H	-0.890660	-1.177959	-0.359653
H130	H	-0.390660	-0.677959	0.140347
H131	H	-0.925825	-1.258496	-0.312052
H132	H	-0.425825	-0.758496	0.187948
C133	C	-0.850224	-1.249200	-0.194946
C134	C	-0.350224	-0.749200	0.305054
C135	C	-0.838097	-1.217271	-0.263410
C136	C	-0.338097	-0.717271	0.236590
H137	H	-0.811714	-1.257419	-0.169964
H138	H	-0.311714	-0.757419	0.330036
H139	H	-0.875878	-1.217199	-0.166694
H140	H	-0.375878	-0.717199	0.333306
H141	H	-0.871305	-1.294650	-0.201742
H142	H	-0.371305	-0.794650	0.298258
H143	H	-0.817024	-1.171819	-0.256613
H144	H	-0.317024	-0.671819	0.243387
H145	H	-0.812439	-1.249265	-0.291660
H146	H	-0.312439	-0.749265	0.208340
O147	O	-0.382688	-0.970771	-0.930529
O148	O	0.117312	-0.470771	-0.430529
C149	C	-0.445434	-0.986823	-0.911739
C150	C	0.054566	-0.486823	-0.411739
H151	H	-0.446753	-1.015101	-0.855939
H152	H	0.053247	-0.515101	-0.355939
H153	H	-0.466634	-1.024653	-0.954992
H154	H	0.033366	-0.524653	-0.454992
C155	C	-0.481936	-0.880320	-0.976698
C156	C	0.018064	-0.380320	-0.476698
C157	C	-0.483556	-0.915047	-0.908160
C158	C	0.016444	-0.415047	-0.408160
H159	H	-0.505452	-0.836047	-0.974493
H160	H	-0.005452	-0.336047	-0.474493
H161	H	-0.439663	-0.869507	-0.989360
H162	H	0.060337	-0.369507	-0.489360
H163	H	-0.499601	-0.911854	-1.012735
H164	H	0.000399	-0.411854	-0.512735
H165	H	-0.465884	-0.883518	-0.872126
H166	H	0.034116	-0.383518	-0.372126
H167	H	-0.525827	-0.925854	-0.895492
H168	H	-0.025827	-0.425854	-0.395492
O169	O	-0.382664	-0.970812	-0.779009
O170	O	0.117336	-0.470812	-0.279009
C171	C	-0.423345	-1.012679	-0.734555
C172	C	0.076655	-0.512679	-0.234555
H173	H	-0.401155	-1.068464	-0.723063
H174	H	0.098845	-0.568464	-0.223063
H175	H	-0.469992	-1.020737	-0.764155
H176	H	0.030008	-0.520737	-0.264155
C177	C	-0.462001	-0.903655	-0.675649
C178	C	0.037999	-0.403655	-0.175649
C179	C	-0.434744	-0.972169	-0.661529
C180	C	0.065256	-0.472169	-0.161529
H181	H	-0.469035	-0.878666	-0.630605
H182	H	0.030965	-0.378666	-0.130605
H183	H	-0.434596	-0.875448	-0.705600
H184	H	0.065404	-0.375448	-0.205600
H185	H	-0.500871	-0.910380	-0.700318
H186	H	-0.000871	-0.410380	-0.200318
H187	H	-0.395872	-0.965444	-0.636870
H188	H	0.104128	-0.465444	-0.136870
H189	H	-0.462143	-1.000375	-0.631572
H190	H	0.037857	-0.500375	-0.131572
H191	H	-0.376310	-0.633514	-0.268990
H192	H	0.123690	-0.133514	0.231010
H193	H	-0.543007	-0.977971	-0.439819
H194	H	-0.043007	-0.477971	0.060181
H195	H	-0.543004	-1.148835	-0.269176
H196	H	-0.043004	-0.648835	0.230824
H197	H	-0.230410	-0.633609	-0.440067
H198	H	0.269590	-0.133609	0.059933
H199	H	-0.662270	-1.148893	-0.269206
H200	H	-0.162270	-0.648893	0.230794
H201	H	-0.662278	-0.978024	-0.439834
H202	H	-0.162278	-0.478024	0.060166
H203	H	-0.230225	-1.149009	-0.924653
H204	H	0.269775	-0.649009	-0.424653
O205	O	-0.224041	-0.488111	-0.447376
O206	O	0.275959	0.011889	0.052624
C207	C	-0.183353	-0.443634	-0.405570
C208	C	0.316647	0.056366	0.094430
H209	H	-0.179398	-0.466772	-0.347614
H210	H	0.320602	0.033228	0.152386
H211	H	-0.202819	-0.385378	-0.402999
H212	H	0.297181	0.114622	0.097001
C213	C	-0.122810	-0.414070	-0.512848
C214	C	0.377190	0.085930	-0.012848
C215	C	-0.117948	-0.442492	-0.441667
C216	C	0.382052	0.057508	0.058333
H217	H	-0.082466	-0.413362	-0.535115
H218	H	0.417534	0.086638	-0.035115
H219	H	-0.150223	-0.444033	-0.541014
H220	H	0.349777	0.055967	-0.041014
H221	H	-0.139035	-0.365526	-0.510696
H222	H	0.360965	0.134474	-0.010696
H223	H	-0.101731	-0.491038	-0.443821
H224	H	0.398269	0.008962	0.056179
H225	H	-0.090530	-0.412538	-0.413502
H226	H	0.409470	0.087462	0.086498
H227	H	-1.063108	-1.149076	-0.269295
H228	H	-0.563108	-0.649076	0.230705
H229	H	-1.063116	-0.978199	-0.439920
H230	H	-0.563116	-0.478199	0.060080
O231	O	-0.938776	-0.970669	-0.447299
O232	O	-0.438776	-0.470669	0.052701
C233	C	-0.981887	-0.929135	-0.488822
C234	C	-0.481887	-0.429135	0.011178
H235	H	-1.028771	-0.926626	-0.458687
H236	H	-0.528771	-0.426626	0.041313
H237	H	-0.988825	-0.956053	-0.544742
H238	H	-0.488825	-0.456053	-0.044742
C239	C	-0.898690	-0.853872	-0.536362
C240	C	-0.398690	-0.353872	-0.036362
C241	C	-0.956272	-0.850786	-0.499346
C242	C	-0.456272	-0.350786	0.000654
H243	H	-0.882890	-0.805544	-0.542857
H244	H	-0.382890	-0.305544	-0.042857
H245	H	-0.869645	-0.881856	-0.508389
H246	H	-0.369645	-0.381856	-0.008389
H247	H	-0.904480	-0.876307	-0.582958
H248	H	-0.404480	-0.376307	-0.082958
H249	H	-0.950481	-0.828360	-0.452748
H250	H	-0.450481	-0.328360	0.047252
H251	H	-0.985316	-0.822797	-0.527312
H252	H	-0.485316	-0.322797	-0.027312
O253	O	-0.223901	-1.156286	-0.779106
O254	O	0.276099	-0.656286	-0.279106
C255	C	-0.183236	-1.114403	-0.734674
C256	C	0.316764	-0.614403	-0.234674
H257	H	-0.205435	-1.058618	-0.723138
H258	H	0.294565	-0.558618	-0.223138
H259	H	-0.136582	-1.106347	-0.764314
H260	H	0.363418	-0.606347	-0.264314
C261	C	-0.144586	-1.223407	-0.675848
C262	C	0.355414	-0.723407	-0.175848
C263	C	-0.171854	-1.154893	-0.661675
C264	C	0.328146	-0.654893	-0.161675
H265	H	-0.137562	-1.248384	-0.630820
H266	H	0.362438	-0.748384	-0.130820
H267	H	-0.171981	-1.251625	-0.705784
H268	H	0.328019	-0.751625	-0.205784
H269	H	-0.105710	-1.216684	-0.700550
H270	H	0.394290	-0.716684	-0.200550
H271	H	-0.210732	-1.161617	-0.636981
H272	H	0.289268	-0.661617	-0.136981
H273	H	-0.144465	-1.126677	-0.631732
H274	H	0.355535	-0.626677	-0.131732
