data_functionalizedCrystal
_audit_creation_method	'MofGen! by Chris Wilmer'
_symmetry_space_group_name_H-M	'P1'
_symmetry_Int_Tables_number	1
_symmetry_cell_setting	triclinic
loop_
_symmetry_equiv_pos_as_xyz
  x,y,z
_cell_length_a	15.944551
_cell_length_b	14.519709
_cell_length_c	13.596369
_cell_angle_alpha	90.006934
_cell_angle_beta	90.000836
_cell_angle_gamma	83.589442
loop_
_atom_site_label
_atom_site_type_symbol
_atom_site_fract_x
_atom_site_fract_y
_atom_site_fract_z
O1	O	-1.114698	-0.118943	-0.081691
O2	O	-0.614698	0.381057	0.418309
O3	O	-0.870169	-0.133607	-0.081716
O4	O	-0.370169	0.366393	0.418284
O5	O	-0.998917	0.007975	-0.081694
O6	O	-0.498917	0.507975	0.418306
O7	O	-0.985950	-0.260525	-0.081713
O8	O	-0.485950	0.239475	0.418287
O9	O	-0.998904	0.007982	0.081889
O10	O	-0.498904	0.507982	0.581889
O11	O	-0.870156	-0.133600	0.081867
O12	O	-0.370156	0.366400	0.581867
O13	O	-1.114685	-0.118936	0.081892
O14	O	-0.614685	0.381064	0.581892
Zn15	Zn	-0.992419	-0.126267	0.107852
Zn16	Zn	-0.492419	0.373733	0.607852
Zn17	Zn	-0.992435	-0.126276	-0.107676
Zn18	Zn	-0.492435	0.373724	0.392324
O19	O	-0.985937	-0.260518	0.081870
O20	O	-0.485937	0.239482	0.581870
C21	C	-0.838868	-0.132995	0.000073
C22	C	-0.338868	0.367005	0.500073
C23	C	-0.745619	-0.131170	0.000064
C24	C	-0.245619	0.368830	0.500064
C25	C	-1.145986	-0.119548	0.000101
C26	C	-0.645986	0.380452	0.500101
C27	C	-1.239235	-0.121373	0.000104
C28	C	-0.739235	0.378627	0.500104
C29	C	-0.530629	-0.039048	0.000089
C30	C	-0.030629	0.460952	0.500089
C31	C	-0.469677	-0.081830	-0.080569
C32	C	0.030323	0.418170	0.419431
C33	C	-0.574889	-0.127868	0.000075
C34	C	-0.074889	0.372132	0.500075
C35	C	-0.469687	-0.081844	0.080711
C36	C	0.030313	0.418156	0.580711
C37	C	-0.409971	-0.124672	0.000091
C38	C	0.090029	0.375328	0.500091
C39	C	-0.515165	-0.170674	-0.080649
C40	C	-0.015165	0.329326	0.419351
C41	C	-0.515181	-0.170675	0.080703
C42	C	-0.015181	0.329325	0.580703
C43	C	-0.454247	-0.213522	0.000025
C44	C	0.045753	0.286478	0.500025
C45	C	-0.669894	-0.129706	0.000065
C46	C	-0.169894	0.370294	0.500065
C47	C	-0.314967	-0.122840	0.000094
C48	C	0.185033	0.377160	0.500094
C49	C	-0.998306	0.042337	0.000098
C50	C	-0.498306	0.542337	0.500098
C51	C	-0.996495	0.144715	0.000098
C52	C	-0.496495	0.644715	0.500098
C53	C	-0.986548	-0.294880	0.000076
C54	C	-0.486548	0.205120	0.500076
C55	C	-0.988359	-0.397258	0.000070
C56	C	-0.488359	0.102742	0.500070
N57	N	-0.992413	-0.126259	0.254944
N58	N	-0.492413	0.373741	0.754944
C59	C	-0.989829	0.519599	0.000072
C60	C	-0.489829	1.019599	0.500072
C61	C	-0.991680	0.415295	0.000080
C62	C	-0.491680	0.915295	0.500080
C63	C	-0.993162	0.332161	0.000086
C64	C	-0.493162	0.832161	0.500086
C65	C	-0.995013	0.227849	0.000092
C66	C	-0.495013	0.727849	0.500092
N67	N	-0.992448	-0.126276	-0.254767
N68	N	-0.492448	0.373724	0.245233
C69	C	-0.992434	-0.126277	0.656235
C70	C	-0.492434	0.373723	1.156235
C71	C	-0.992426	-0.126275	0.544583
C72	C	-0.492426	0.373725	1.044583
C73	C	-0.992424	-0.126269	0.455593
C74	C	-0.492424	0.373731	0.955593
C75	C	-0.992415	-0.126266	0.343934
C76	C	-0.492415	0.373734	0.843934
H77	H	-0.563855	0.034665	-0.000005
H78	H	-0.063855	0.534665	0.499995
C79	C	-0.542246	-0.221384	-0.172878
C80	C	-0.042246	0.278616	0.327122
N81	N	-0.562647	-0.259574	-0.242345
N82	N	-0.062647	0.240426	0.257655
H83	H	-0.449518	-0.044266	-0.148754
H84	H	0.050482	0.455734	0.351246
C85	C	-0.409588	-0.313204	-0.000044
C86	C	0.090412	0.186796	0.499956
N87	N	-0.375948	-0.388283	-0.000101
N88	N	0.124052	0.111717	0.499899
C89	C	-0.442472	-0.031068	0.172831
C90	C	0.057528	0.468932	0.672831
N91	N	-0.421977	0.007183	0.242213
N92	N	0.078023	0.507183	0.742213
H93	H	-0.535361	-0.208208	0.148892
H94	H	-0.035361	0.291792	0.648892
