data_functionalizedCrystal
_audit_creation_method	'MofGen! by Chris Wilmer'
_symmetry_space_group_name_H-M	'P1'
_symmetry_Int_Tables_number	1
_symmetry_cell_setting	triclinic
loop_
_symmetry_equiv_pos_as_xyz
  x,y,z
_cell_length_a	13.635800
_cell_length_b	11.102233
_cell_length_c	11.163952
_cell_angle_alpha	88.369435
_cell_angle_beta	70.476221
_cell_angle_gamma	108.604738
loop_
_atom_site_label
_atom_site_type_symbol
_atom_site_fract_x
_atom_site_fract_y
_atom_site_fract_z
V1	V	-2.061252	-0.175853	0.396263
O2	O	-2.040665	0.008437	0.388715
O3	O	-2.049602	-0.348674	0.393557
O4	O	-2.052036	-0.173154	0.569084
O5	O	-2.038214	-0.168298	0.211972
V6	V	-2.299498	-0.153809	0.374219
O7	O	-2.199592	-0.224208	0.444616
O8	O	-2.386257	-0.105454	0.325866
O9	O	-2.199545	0.019012	0.376925
O10	O	-2.378784	-0.338099	0.381767
O11	O	-2.381235	-0.161364	0.558510
O12	O	-2.197111	-0.156508	0.201398
V13	V	-1.561252	-0.175853	0.396263
O14	O	-1.540665	0.008437	0.388715
O15	O	-1.549602	-0.348674	0.393557
O16	O	-1.552036	-0.173154	0.569084
O17	O	-1.538214	-0.168298	0.211972
V18	V	-1.799498	-0.153809	0.374219
O19	O	-1.699592	-0.224208	0.444616
O20	O	-1.886257	-0.105454	0.325866
O21	O	-1.699545	0.019012	0.376925
O22	O	-1.878784	-0.338099	0.381767
O23	O	-1.881235	-0.161364	0.558510
O24	O	-1.697111	-0.156508	0.201398
C25	C	-1.974671	-0.390803	0.387307
C26	C	-2.005888	-0.532087	0.386247
C27	C	-1.957789	-0.724741	0.378395
C28	C	-1.928459	-0.591992	0.379403
C29	C	-2.112659	-0.604939	0.392096
C30	C	-2.141990	-0.737687	0.391097
C31	C	-1.851441	-0.717265	0.371062
C32	C	-1.822111	-0.584516	0.372069
C33	C	-1.977775	-0.166909	0.611208
C34	C	-2.010964	-0.165846	0.752491
C35	C	-2.056890	-0.281732	0.837018
C36	C	-2.088081	-0.280730	0.969769
C37	C	-2.027411	-0.047945	0.933449
C38	C	-1.996228	-0.048949	0.800702
C39	C	-2.106148	0.061135	0.383172
C40	C	-2.064550	0.202417	0.384240
C41	C	-1.474671	-0.390803	0.387307
C42	C	-1.505888	-0.532087	0.386247
C43	C	-1.606148	0.061135	0.383172
C44	C	-1.564550	0.202417	0.384240
C45	C	-2.106527	-0.162764	1.159268
C46	C	-2.073339	-0.163840	1.017988
C47	C	-1.477775	-0.166909	0.611208
C48	C	-1.510964	-0.165846	0.752491
C49	C	-1.603043	-0.162757	0.159267
C50	C	-1.559472	-0.163814	0.017983
C51	C	-1.612646	-0.604935	0.392089
C52	C	-1.641976	-0.737687	0.391103
C53	C	-1.457777	-0.724728	0.378426
C54	C	-1.428452	-0.591981	0.379421
C55	C	-1.618652	-0.171694	0.825340
C56	C	-1.649830	-0.170690	0.958089
C57	C	-1.465624	-0.157996	0.945128
C58	C	-1.434445	-0.158990	0.812380
H59	H	-2.228926	-0.796993	0.395874
Cl60	Cl	-1.938479	0.096750	0.694430
H61	H	-1.728906	-0.796996	0.395863
H62	H	-2.015416	0.047228	0.972720
H63	H	-1.737517	-0.175451	1.017397
H64	H	-1.675702	-0.556174	0.397645
Cl65	Cl	-1.360435	-0.800032	0.369837
H66	H	-1.341515	-0.532665	0.374668
H67	H	-2.068892	-0.376917	0.797770
H68	H	-1.680961	-0.177274	0.776582
Cl69	Cl	-1.369440	-0.149395	1.020430
Cl70	Cl	-1.299054	-0.151634	0.720790
H71	H	-2.175704	-0.556155	0.397680
Cl72	Cl	-2.145821	-0.426423	1.076028
H73	H	-1.802437	-0.741740	0.276288
Cl74	Cl	-1.795873	-0.539561	0.511370
Cl75	Cl	-1.838258	-0.789981	0.504245
H76	H	-1.748983	-0.531680	0.280177
