data_functionalizedCrystal
_audit_creation_method	'MofGen! by Chris Wilmer'
_symmetry_space_group_name_H-M	'P1'
_symmetry_Int_Tables_number	1
_symmetry_cell_setting	triclinic
loop_
_symmetry_equiv_pos_as_xyz
  x,y,z
_cell_length_a	11.792240
_cell_length_b	12.837943
_cell_length_c	11.295483
_cell_angle_alpha	94.538773
_cell_angle_beta	85.886114
_cell_angle_gamma	89.511178
loop_
_atom_site_label
_atom_site_type_symbol
_atom_site_fract_x
_atom_site_fract_y
_atom_site_fract_z
O1	O	-0.288338	-1.384059	-0.099054
O2	O	-0.273753	-1.082172	-0.099058
O3	O	-0.116621	-1.240439	-0.099020
O4	O	-0.445471	-1.225792	-0.099092
O5	O	-0.130398	-1.226538	0.099028
O6	O	-0.287531	-1.068271	0.098989
O7	O	-0.302115	-1.370158	0.098994
Cu8	Cu	-0.296081	-1.217945	0.117075
Cu9	Cu	-0.279788	-1.234384	-0.117139
O10	O	-0.459248	-1.211891	0.098955
C11	C	-0.081126	-1.232567	0.000011
C12	C	0.045166	-1.229811	0.000031
C13	C	-0.275716	-1.036573	-0.000034
C14	C	-0.261022	-0.921413	-0.000034
C15	C	-0.300153	-1.415757	-0.000032
C16	C	-0.314846	-1.530917	-0.000040
C17	C	0.276391	-1.224744	0.000050
C18	C	0.147721	-1.227560	0.000039
C19	C	0.505254	-1.219759	-0.000035
C20	C	0.378954	-1.222507	0.000063
N21	N	-0.307542	-1.206390	0.281808
C22	C	-0.437666	-0.681449	-0.000056
C23	C	-0.423865	-0.573246	-0.000055
C24	C	-0.219621	-0.596800	-0.000023
C25	C	-0.233422	-0.705003	-0.000024
C26	C	-0.342448	-0.747324	-0.000042
C27	C	-0.356247	-0.855530	-0.000052
C28	C	-0.152004	-0.879082	-0.000011
C29	C	-0.138204	-0.770878	-0.000010
N30	N	-0.268319	-1.245948	-0.281873
C31	C	-0.185758	-1.329128	0.531128
C32	C	-0.194428	-1.320403	0.655789
C33	C	-0.333543	-1.180210	0.655795
C34	C	-0.324874	-1.188935	0.531134
C35	C	-0.250980	-1.263398	0.468804
C36	C	-0.242317	-1.272127	0.344141
C37	C	-0.381426	-1.131930	0.344149
C38	C	-0.390096	-1.123205	0.468810
H39	H	-0.445021	-0.889985	-0.000065
H40	H	-0.434538	-1.078411	0.293391
H41	H	-0.125599	-1.389765	0.480378
O42	O	-0.543650	-0.722391	-0.000029
C43	C	-0.624733	-0.641047	-0.000082
H44	H	-0.587571	-0.564735	0.037422
H45	H	-0.648051	-0.632587	-0.095104
C46	C	-0.777649	-0.760430	0.031495
C47	C	-0.732009	-0.666704	0.077568
H48	H	-0.843824	-0.776257	0.079388
H49	H	-0.723023	-0.815234	0.031526
H50	H	-0.797072	-0.753368	-0.047689
H51	H	-0.712574	-0.673771	0.156744
H52	H	-0.786635	-0.611901	0.077552
O53	O	-0.461888	-1.050787	0.529177
C54	C	-0.517619	-0.994662	0.447432
H55	H	-0.464754	-0.999451	0.358576
H56	H	-0.604724	-1.029743	0.434155
C57	C	-0.597171	-0.873611	0.605238
C58	C	-0.532237	-0.879486	0.496106
H59	H	-0.606194	-0.802566	0.635263
H60	H	-0.559628	-0.911425	0.660313
H61	H	-0.669752	-0.902851	0.594159
H62	H	-0.459654	-0.850258	0.507189
H63	H	-0.569768	-0.841664	0.441034
O64	O	-0.516242	-0.509103	-0.000024
C65	C	-0.480685	-0.404525	-0.000052
H66	H	-0.393644	-0.397235	0.037459
H67	H	-0.475003	-0.379932	-0.095067
C68	C	-0.674005	-0.342315	0.031525
C69	C	-0.567104	-0.333359	0.077606
H70	H	-0.727314	-0.298415	0.079423
H71	H	-0.697962	-0.412771	0.031540
H72	H	-0.669254	-0.321822	-0.047654
H73	H	-0.571854	-0.353864	0.156777
H74	H	-0.543150	-0.262905	0.077607
O75	O	-0.131026	-1.384366	0.716146
C76	C	-0.063926	-1.451934	0.634395
H77	H	-0.104437	-1.459591	0.545524
H78	H	0.025019	-1.418703	0.621160
C79	C	-0.006302	-1.550885	0.792178
C80	C	-0.056063	-1.560296	0.683027
H81	H	-0.001446	-1.617727	0.822177
H82	H	-0.051504	-1.505361	0.847256
H83	H	0.067814	-1.523188	0.781133
H84	H	-0.130182	-1.587980	0.694075
H85	H	-0.010872	-1.605828	0.627951
O86	O	-0.405159	-1.107828	0.716491
C87	C	-0.342376	-1.038442	0.788597
H88	H	-0.259297	-1.077951	0.807258
H89	H	-0.322990	-0.965100	0.740577
C90	C	-0.514247	-0.959824	0.884101
C91	C	-0.412212	-1.008353	0.907029
H92	H	-0.557326	-0.941259	0.957153
H93	H	-0.556546	-1.006567	0.835518
H94	H	-0.498077	-0.898711	0.844081
H95	H	-0.428382	-1.069470	0.947034
H96	H	-0.369917	-0.961619	0.955621
O97	O	-0.113712	-0.555719	0.000209
C98	C	-0.062077	-0.582152	0.102771
H99	H	-0.130605	-0.599980	0.174451
H100	H	-0.004799	-0.653929	0.079586
C101	C	0.093691	-0.468089	0.061259
C102	C	0.009522	-0.489977	0.149301
H103	H	0.137861	-0.411233	0.089959
H104	H	0.058906	-0.450282	-0.007842
H105	H	0.141410	-0.527910	0.041946
H106	H	-0.038204	-0.430161	0.168602
H107	H	0.044301	-0.507771	0.218407
O108	O	-0.032311	-0.729727	-0.000206
C109	C	-0.011105	-0.675016	-0.102758
H110	H	-0.068235	-0.705971	-0.174456
H111	H	-0.029694	-0.588220	-0.079568
C112	C	0.184511	-0.652666	-0.061196
C113	C	0.114350	-0.690692	-0.149260
H114	H	0.261898	-0.662330	-0.089878
H115	H	0.170224	-0.689522	0.007899
H116	H	0.169006	-0.580338	-0.041879
H117	H	0.129845	-0.763020	-0.168565
H118	H	0.128642	-0.653848	-0.218359
H119	H	-0.074470	-0.932730	-0.000008
H120	H	-0.182153	-1.332760	0.293393
