data_functionalizedCrystal
_audit_creation_method	'MofGen! by Chris Wilmer'
_symmetry_space_group_name_H-M	'P1'
_symmetry_Int_Tables_number	1
_symmetry_cell_setting	triclinic
loop_
_symmetry_equiv_pos_as_xyz
  x,y,z
_cell_length_a	18.101398
_cell_length_b	18.101395
_cell_length_c	18.101390
_cell_angle_alpha	89.968664
_cell_angle_beta	89.975319
_cell_angle_gamma	90.026371
loop_
_atom_site_label
_atom_site_type_symbol
_atom_site_fract_x
_atom_site_fract_y
_atom_site_fract_z
Zn1	Zn	1.132124	-0.294895	-0.418847
Zn2	Zn	1.465457	0.038439	-0.085514
Zn3	Zn	1.798790	0.371772	0.247820
Zn4	Zn	1.132019	-0.418752	-0.295009
Zn5	Zn	1.465352	-0.085418	0.038325
Zn6	Zn	1.798685	0.247915	0.371658
Zn7	Zn	1.008282	-0.294918	-0.295008
Zn8	Zn	1.341615	0.038415	0.038325
Zn9	Zn	1.674948	0.371748	0.371659
Zn10	Zn	1.008233	-0.418689	-0.418797
Zn11	Zn	1.341567	-0.085355	-0.085464
Zn12	Zn	1.674900	0.247978	0.247869
O13	O	1.070164	-0.356813	-0.356915
O14	O	1.403498	-0.023480	-0.023582
O15	O	1.736831	0.309853	0.309751
O16	O	1.235743	-0.311341	-0.402441
O17	O	1.569076	0.021992	-0.069107
O18	O	1.902409	0.355325	0.264226
O19	O	1.115581	-0.402361	-0.191376
O20	O	1.448914	-0.069028	0.141958
O21	O	1.782248	0.264305	0.475291
O22	O	1.024774	-0.191282	-0.311456
O23	O	1.358107	0.142051	0.021877
O24	O	1.691441	0.475384	0.355211
O25	O	1.235666	-0.402338	-0.311457
O26	O	1.568999	-0.069005	0.021876
O27	O	1.902332	0.264328	0.355210
O28	O	1.115760	-0.191265	-0.402440
O29	O	1.449093	0.142068	-0.069106
O30	O	1.782427	0.475402	0.264227
O31	O	1.024672	-0.311381	-0.191375
O32	O	1.358005	0.021952	0.141958
O33	O	1.691339	0.355285	0.475292
O34	O	0.904642	-0.311320	-0.311408
O35	O	1.237976	0.022013	0.021925
O36	O	1.571309	0.355346	0.355259
O37	O	1.024691	-0.402231	-0.522437
O38	O	1.358025	-0.068898	-0.189103
O39	O	1.691358	0.264436	0.144230
O40	O	0.904607	-0.402254	-0.402355
O41	O	1.237940	-0.068921	-0.069022
O42	O	1.571274	0.264413	0.264311
O43	O	1.115713	-0.311280	-0.522473
O44	O	1.449046	0.022053	-0.189140
O45	O	1.782380	0.355387	0.144193
O46	O	1.115534	-0.522376	-0.311409
O47	O	1.448867	-0.189043	0.021924
O48	O	1.782201	0.144290	0.355258
O49	O	1.024590	-0.522330	-0.402356
O50	O	1.357923	-0.188997	-0.069023
O51	O	1.691256	0.144337	0.264311
C52	C	0.877754	-0.356783	-0.356877
C53	C	1.211087	-0.023450	-0.023543
C54	C	1.544420	0.309883	0.309790
C55	C	0.795440	-0.356788	-0.356878
C56	C	1.128773	-0.023455	-0.023544
C57	C	1.462106	0.309878	0.309789
C58	C	0.496349	-0.356835	-0.356940
C59	C	0.829682	-0.023501	-0.023607
C60	C	1.163015	0.309832	0.309727
C61	C	0.527672	-0.299336	-0.299997
C62	C	0.861005	0.033998	0.033336
C63	C	1.194338	0.367331	0.366669
C64	C	0.613290	-0.299490	-0.299754
C65	C	0.946623	0.033843	0.033579
C66	C	1.279956	0.367177	0.366912
C67	C	0.644731	-0.356811	-0.356909
C68	C	0.978065	-0.023478	-0.023576
C69	C	1.311398	0.309856	0.309758
C70	C	0.613613	-0.434824	-0.335587
C71	C	0.946946	-0.101491	-0.002253
C72	C	1.280280	0.231842	0.331080
C73	C	0.527968	-0.434505	-0.335191
C74	C	0.861301	-0.101172	-0.001857
C75	C	1.194635	0.232162	0.331476
C76	C	0.527964	-0.336998	-0.435339
C77	C	0.861297	-0.003665	-0.102005
C78	C	1.194631	0.329668	0.231328
C79	C	0.613615	-0.335261	-0.434911
C80	C	0.946948	-0.001928	-0.101577
C81	C	1.280281	0.331405	0.231756
C82	C	0.728591	-0.356803	-0.356893
C83	C	1.061924	-0.023469	-0.023559
C84	C	1.395257	0.309864	0.309774
C85	C	0.412489	-0.356848	-0.356954
C86	C	0.745823	-0.023515	-0.023621
C87	C	1.079156	0.309818	0.309712
C88	C	1.070065	-0.549224	-0.356893
C89	C	1.403399	-0.215891	-0.023560
C90	C	1.736732	0.117443	0.309773
C91	C	1.070091	-0.631538	-0.356909
C92	C	1.403424	-0.298205	-0.023576
C93	C	1.736757	0.035129	0.309758
C94	C	1.070253	-0.930629	-0.356949
C95	C	1.403586	-0.597296	-0.023615
C96	C	1.736920	-0.263962	0.309718
C97	C	1.013166	-0.899306	-0.414312
C98	C	1.346499	-0.565972	-0.080979
C99	C	1.679833	-0.232639	0.252354
C100	C	1.012895	-0.813688	-0.414133
C101	C	1.346228	-0.480354	-0.080799
C102	C	1.679561	-0.147021	0.252534
C103	C	1.070172	-0.782247	-0.356930
C104	C	1.403506	-0.448913	-0.023596
C105	C	1.736839	-0.115580	0.309737
C106	C	1.049043	-0.813402	-0.278878
C107	C	1.382376	-0.480068	0.054455
C108	C	1.715709	-0.146735	0.387788
C109	C	1.048675	-0.899047	-0.279221
C110	C	1.382008	-0.565713	0.054112
C111	C	1.715341	-0.232380	0.387445
C112	C	1.148595	-0.898978	-0.376950
C113	C	1.481928	-0.565644	-0.043617
C114	C	1.815262	-0.232311	0.289717
C115	C	1.148134	-0.813327	-0.378661
C116	C	1.481468	-0.479993	-0.045328
C117	C	1.814801	-0.146660	0.288005
C118	C	1.070128	-0.698387	-0.356914
C119	C	1.403462	-0.365054	-0.023581
C120	C	1.736795	-0.031720	0.309753
C121	C	1.070296	-1.014488	-0.356959
C122	C	1.403629	-0.681155	-0.023626
C123	C	1.736962	-0.347822	0.309707
C124	C	1.263326	-0.356844	-0.356954
C125	C	1.596660	-0.023511	-0.023621
C126	C	1.929993	0.309822	0.309712
C127	C	1.345640	-0.356857	-0.356971
C128	C	1.678974	-0.023524	-0.023638
C129	C	2.012307	0.309809	0.309696
C130	C	1.070208	-0.356746	-0.550077
C131	C	1.403542	-0.023413	-0.216744
C132	C	1.736875	0.309921	0.116589
C133	C	1.070227	-0.356717	-0.632391
C134	C	1.403560	-0.023384	-0.299058
C135	C	1.736894	0.309950	0.034275
C136	C	1.070284	-0.163652	-0.356953
C137	C	1.403617	0.169682	-0.023620
C138	C	1.736951	0.503015	0.309713
C139	C	1.070335	-0.081337	-0.356970
C140	C	1.403668	0.251996	-0.023636
C141	C	1.737002	0.585329	0.309697
C142	C	1.070267	-0.356671	-0.931483
C143	C	1.403600	-0.023338	-0.598149
C144	C	1.736934	0.309996	-0.264816
C145	C	1.127724	-0.299648	-0.900180
C146	C	1.461057	0.033685	-0.566847
C147	C	1.794391	0.367018	-0.233514
C148	C	1.127545	-0.299437	-0.814562
C149	C	1.460878	0.033897	-0.481229
C150	C	1.794212	0.367230	-0.147895
C151	C	1.070248	-0.356694	-0.783100
C152	C	1.403581	-0.023360	-0.449767
C153	C	1.736915	0.309973	-0.116433
C154	C	0.992231	-0.335484	-0.814166
C155	C	1.325565	-0.002151	-0.480832
C156	C	1.658898	0.331183	-0.147499
C157	C	0.992575	-0.335057	-0.899811
C158	C	1.325908	-0.001723	-0.566478
C159	C	1.659242	0.331610	-0.233144
C160	C	1.090140	-0.435050	-0.899899
C161	C	1.423473	-0.101716	-0.566565
C162	C	1.756806	0.231617	-0.233232
C163	C	1.091852	-0.434650	-0.814249
C164	C	1.425185	-0.101317	-0.480915
C165	C	1.758519	0.232017	-0.147582
C166	C	1.070232	-0.356708	-0.699240
C167	C	1.403566	-0.023375	-0.365907
C168	C	1.736899	0.309959	-0.032574
C169	C	1.070278	-0.356655	-1.015342
C170	C	1.403611	-0.023322	-0.682009
C171	C	1.736944	0.310012	-0.348675
C172	C	1.070163	-0.356827	-0.164505
C173	C	1.403496	-0.023494	0.168829
C174	C	1.736830	0.309839	0.502162
C175	C	1.070288	-0.356648	-0.082191
C176	C	1.403621	-0.023314	0.251142
C177	C	1.736955	0.310019	0.584476
H178	H	0.633959	-0.277852	-0.450989
H179	H	0.967292	0.055481	-0.117655
H180	H	1.300625	0.388815	0.215678
H181	H	1.088451	-0.919770	-0.235023
H182	H	1.421784	-0.586437	0.098310
H183	H	1.755118	-0.253104	0.431643
H184	H	1.192917	-0.791921	-0.339927
H185	H	1.526251	-0.458587	-0.006593
H186	H	1.859584	-0.125254	0.326740
Cl187	Cl	0.646656	-0.395210	-0.503926
Cl188	Cl	0.979990	-0.061877	-0.170593
Cl189	Cl	1.313323	0.271456	0.162740
Cl190	Cl	1.107234	-0.209790	-0.782944
Cl191	Cl	1.440568	0.123544	-0.449610
Cl192	Cl	1.773901	0.456877	-0.116277
Cl193	Cl	0.646670	-0.461248	-0.248053
Cl194	Cl	0.980003	-0.127914	0.085280
Cl195	Cl	1.313337	0.205419	0.418613
Cl196	Cl	0.496689	-0.401656	-0.500844
Cl197	Cl	0.830023	-0.068322	-0.167511
Cl198	Cl	1.163356	0.265011	0.165823
H199	H	1.191127	-0.919234	-0.335170
H200	H	1.524460	-0.585901	-0.001837
H201	H	1.857794	-0.252567	0.331497
H202	H	1.026255	-0.919850	-0.472374
H203	H	1.359588	-0.586517	-0.139040
H204	H	1.692921	-0.253184	0.194293
H205	H	1.089314	-0.793038	-0.234972
H206	H	1.422648	-0.459704	0.098361
H207	H	1.755981	-0.126371	0.431694
H208	H	1.185396	-0.312720	-0.793559
H209	H	1.518729	0.020614	-0.460226
H210	H	1.852063	0.353947	-0.126893
H211	H	0.992382	-0.792013	-0.261633
H212	H	1.325715	-0.458680	0.071701
H213	H	1.659049	-0.125347	0.405034
H214	H	0.506392	-0.281101	-0.454725
H215	H	0.839725	0.052232	-0.121392
H216	H	1.173059	0.385566	0.211941
H217	H	0.507101	-0.241309	-0.313215
H218	H	0.840435	0.092024	0.020118
H219	H	1.173768	0.425358	0.353452
Cl220	Cl	1.033301	-0.781158	-0.503487
Cl221	Cl	1.366634	-0.447825	-0.170154
Cl222	Cl	1.699968	-0.114492	0.163180
H223	H	0.506122	-0.312301	-0.242242
H224	H	0.839455	0.021032	0.091091
H225	H	1.172789	0.354365	0.424424
Cl226	Cl	1.031934	-0.503773	-0.781188
Cl227	Cl	1.365267	-0.170439	-0.447855
Cl228	Cl	1.698600	0.162894	-0.114521
H229	H	0.955450	-0.920888	-0.401230
H230	H	1.288783	-0.587555	-0.067896
H231	H	1.622117	-0.254222	0.265437
H232	H	0.954826	-0.793261	-0.400884
H233	H	1.288159	-0.459927	-0.067550
H234	H	1.621492	-0.126594	0.265783
Cl235	Cl	1.178337	-0.932240	-0.463326
Cl236	Cl	1.511671	-0.598907	-0.129993
Cl237	Cl	1.845004	-0.265574	0.203340
Cl238	Cl	1.172739	-0.781884	-0.467347
Cl239	Cl	1.506072	-0.448551	-0.134014
Cl240	Cl	1.839405	-0.115218	0.199320
Cl241	Cl	0.495971	-0.502891	-0.396425
Cl242	Cl	0.829305	-0.169558	-0.063091
Cl243	Cl	1.162638	0.163776	0.270242
Cl244	Cl	1.025527	-0.500646	-0.931147
Cl245	Cl	1.358861	-0.167312	-0.597814
Cl246	Cl	1.692194	0.166021	-0.264480
Cl247	Cl	0.960259	-0.929989	-0.253066
Cl248	Cl	1.293592	-0.596656	0.080268
Cl249	Cl	1.626925	-0.263323	0.413601
H250	H	1.185764	-0.312767	-0.920788
H251	H	1.519098	0.020566	-0.587454
H252	H	1.852431	0.353899	-0.254121
H253	H	1.114736	-0.241908	-0.921715
H254	H	1.448070	0.091425	-0.588382
H255	H	1.781403	0.424759	-0.255049
Cl256	Cl	0.966531	-0.246609	-0.930674
Cl257	Cl	1.299864	0.086724	-0.597341
Cl258	Cl	1.633198	0.420058	-0.264008
Cl259	Cl	0.924223	-0.396376	-0.931781
Cl260	Cl	1.257557	-0.063042	-0.598448
Cl261	Cl	1.590890	0.270291	-0.265115
H262	H	0.633743	-0.312604	-0.241661
H263	H	0.967076	0.020730	0.091672
H264	H	1.300410	0.354063	0.425005
Cl265	Cl	0.645044	-0.502742	-0.397619
Cl266	Cl	0.978377	-0.169409	-0.064286
Cl267	Cl	1.311710	0.163924	0.269047
Cl268	Cl	1.176468	-0.464833	-0.933263
Cl269	Cl	1.509801	-0.131500	-0.599930
Cl270	Cl	1.843135	0.201834	-0.266596
Cl271	Cl	0.645778	-0.210173	-0.320386
Cl272	Cl	0.979112	0.123160	0.012947
Cl273	Cl	1.312445	0.456493	0.346280
Cl274	Cl	0.924340	-0.397635	-0.782708
Cl275	Cl	1.257673	-0.064302	-0.449375
Cl276	Cl	1.591007	0.269032	-0.116041
Cl277	Cl	0.965748	-0.248005	-0.781072
Cl278	Cl	1.299081	0.085329	-0.447738
Cl279	Cl	1.632414	0.418662	-0.114405
Cl280	Cl	1.180497	-0.459343	-0.782907
Cl281	Cl	1.513830	-0.126010	-0.449574
Cl282	Cl	1.847163	0.207324	-0.116241
H283	H	0.507956	-0.451326	-0.277877
H284	H	0.841289	-0.117993	0.055456
H285	H	1.174622	0.215340	0.388789
