data_functionalizedCrystal
_audit_creation_method	'MofGen! by Chris Wilmer'
_symmetry_space_group_name_H-M	'P1'
_symmetry_Int_Tables_number	1
_symmetry_cell_setting	triclinic
loop_
_symmetry_equiv_pos_as_xyz
  x,y,z
_cell_length_a	17.077404
_cell_length_b	13.032721
_cell_length_c	17.077396
_cell_angle_alpha	82.846305
_cell_angle_beta	90.019501
_cell_angle_gamma	97.204757
loop_
_atom_site_label
_atom_site_type_symbol
_atom_site_fract_x
_atom_site_fract_y
_atom_site_fract_z
Zn1	Zn	1.160375	-0.416035	0.483523
Zn2	Zn	1.143613	-0.590801	0.368926
Zn3	Zn	1.029103	-0.416072	0.352275
Zn4	Zn	1.012412	-0.590739	0.500144
O5	O	1.086376	-0.503412	0.426217
O6	O	1.267997	-0.439229	0.468335
O7	O	1.128394	-0.567664	0.256874
O8	O	1.060517	-0.269828	0.355761
O9	O	1.255683	-0.567629	0.384141
O10	O	1.156961	-0.269801	0.452188
O11	O	1.044264	-0.439292	0.244641
O12	O	0.917043	-0.439231	0.371877
O13	O	1.032069	-0.567523	0.607782
O14	O	0.904780	-0.567559	0.480516
O15	O	1.140777	-0.439169	0.595571
O16	O	1.112209	-0.737032	0.400257
O17	O	1.015816	-0.736987	0.496662
C18	C	0.882430	-0.503393	0.426193
C19	C	0.795178	-0.503410	0.426204
C20	C	1.060404	-0.774928	0.452087
C21	C	1.049365	-0.891083	0.463180
C22	C	0.747814	-0.570331	0.482702
C23	C	0.665833	-0.570333	0.482715
C24	C	0.631218	-0.503419	0.426226
C25	C	0.678589	-0.436491	0.369726
C26	C	0.760569	-0.436484	0.369717
C27	C	0.507717	-0.436512	0.369747
C28	C	0.425732	-0.436519	0.369754
C29	C	0.412982	-0.570361	0.482744
C30	C	0.494961	-0.570354	0.482735
C31	C	0.542326	-0.503427	0.426234
C32	C	1.092179	-0.942857	0.420462
C33	C	1.080770	-1.062910	0.431927
C34	C	1.291118	-0.503432	0.426241
C35	C	1.378367	-0.503440	0.426251
C36	C	1.086431	-0.503335	0.630954
C37	C	1.086454	-0.503302	0.718201
C38	C	1.112470	-0.230836	0.400263
C39	C	1.123590	-0.114681	0.389203
C40	C	1.086374	-0.503413	0.222269
C41	C	1.086530	-0.503152	0.134995
C42	C	1.143060	-0.436463	0.752833
C43	C	1.143073	-0.436428	0.834811
C44	C	1.086482	-0.503239	0.882154
C45	C	1.029870	-0.570081	0.847516
C46	C	1.029855	-0.570110	0.765540
C47	C	1.029908	-0.570018	1.018380
C48	C	1.029924	-0.569991	1.100362
C49	C	1.143126	-0.436336	1.087651
C50	C	1.143111	-0.436365	1.005675
C51	C	1.086499	-0.503209	0.971042
H52	H	0.627272	-0.624828	0.528720
O53	O	0.968842	-0.642110	0.981028
H54	H	0.998875	-0.695291	0.948742
O55	O	0.989620	-0.950095	0.522865
H56	H	1.005025	-0.929147	0.582501
H57	H	1.035670	-1.107459	0.476993
H58	H	1.189145	-0.382061	0.714292
H59	H	1.189196	-0.381968	0.967130
H60	H	0.397552	-0.382020	0.323764
O61	O	1.204180	-0.364228	1.125000
H62	H	1.239639	-0.410990	1.166818
O63	O	0.558808	-0.364338	0.308801
H64	H	0.520965	-0.317820	0.269514
O65	O	0.641244	-0.364345	0.308787
H66	H	0.608972	-0.311246	0.338919
O67	O	1.151928	-0.883860	0.360775
H68	H	1.211561	-0.904672	0.376280
O69	O	1.204131	-0.364343	0.872168
H70	H	1.243486	-0.317902	0.825476
O71	O	0.361903	-0.642542	0.543693
H72	H	0.299083	-0.631297	0.534218
O73	O	1.183341	-1.055687	0.329512
H74	H	1.182925	-0.970651	0.329870
O75	O	0.811660	-0.364318	0.308773
H76	H	0.773818	-0.317799	0.269487
H77	H	0.983841	-0.624392	1.138908
H78	H	0.983790	-0.624476	0.886069
H79	H	0.983753	-0.624527	0.737343
O80	O	0.532302	-0.642519	0.543662
H81	H	0.485596	-0.689051	0.582959
H82	H	0.775990	-0.624824	0.528699
