data_functionalizedCrystal
_audit_creation_method	'MofGen! by Chris Wilmer'
_symmetry_space_group_name_H-M	'P1'
_symmetry_Int_Tables_number	1
_symmetry_cell_setting	triclinic
loop_
_symmetry_equiv_pos_as_xyz
  x,y,z
_cell_length_a	12.837932
_cell_length_b	11.892095
_cell_length_c	19.288865
_cell_angle_alpha	93.870403
_cell_angle_beta	91.017025
_cell_angle_gamma	94.311455
loop_
_atom_site_label
_atom_site_type_symbol
_atom_site_fract_x
_atom_site_fract_y
_atom_site_fract_z
O1	O	1.381261	0.094032	-0.176516
O2	O	1.079497	0.094033	-0.167598
O3	O	1.239097	0.094010	-0.071523
O4	O	1.221661	0.094055	-0.272591
O5	O	1.225790	-0.093995	-0.079520
O6	O	1.066189	-0.093973	-0.175595
O7	O	1.367954	-0.093973	-0.184513
Zn8	Zn	1.214959	-0.123823	-0.181324
Zn9	Zn	1.232491	0.123883	-0.170787
O10	O	1.208354	-0.093951	-0.280588
C11	C	1.034236	0.000030	-0.168584
C12	C	0.919201	0.000029	-0.159599
C13	C	0.769708	0.000010	-0.084506
C14	C	0.877795	0.000012	-0.092943
C15	C	0.852512	0.000040	-0.217823
C16	C	0.744425	0.000037	-0.209386
C17	C	0.703027	0.000024	-0.142725
C18	C	0.594939	0.000030	-0.134288
C19	C	0.569658	0.000049	-0.259168
C20	C	0.677745	0.000051	-0.267605
N21	N	1.203001	-0.292875	-0.188514
C22	C	1.327667	-0.529541	-0.113515
C23	C	1.319316	-0.647882	-0.118547
C24	C	1.177943	-0.647900	-0.203606
C25	C	1.186294	-0.529559	-0.198574
C26	C	1.261160	-0.470384	-0.153528
C27	C	1.269515	-0.352041	-0.148500
C28	C	1.128138	-0.352061	-0.233555
C29	C	1.119787	-0.470402	-0.238587
C30	C	1.413214	0.000032	-0.183527
C31	C	1.528250	0.000041	-0.192511
C32	C	1.231882	0.000004	-0.049607
C33	C	1.230197	-0.000006	0.027611
N34	N	1.244458	0.292935	-0.163592
C35	C	1.215569	0.000058	-0.302504
C36	C	1.217254	0.000075	-0.379722
C37	C	1.323843	-0.000012	0.065912
C38	C	1.322262	0.000006	0.138468
C39	C	1.227027	0.000007	0.172719
C40	C	1.133369	0.000019	0.134409
C41	C	1.134953	0.000013	0.061855
C42	C	1.147500	-0.065847	0.283318
C43	C	1.145919	-0.065847	0.355870
C44	C	1.222136	0.000032	0.396500
C45	C	1.299951	0.065898	0.364568
C46	C	1.301535	0.065892	0.292014
C47	C	1.225298	0.000015	0.251392
C48	C	1.314074	0.000048	0.513475
C49	C	1.312490	0.000073	0.586032
C50	C	1.123593	0.000074	0.581971
C51	C	1.125181	0.000061	0.509416
C52	C	1.220424	0.000042	0.475172
H53	H	1.330477	-0.303861	-0.111824
H54	H	1.116983	-0.696096	-0.240276
H55	H	1.388632	-0.481360	-0.076842
H56	H	1.073986	-0.303882	-0.266138
O57	O	1.033944	0.000013	0.020539
H58	H	1.024731	-0.076618	-0.015865
O59	O	0.725053	-0.000007	-0.012610
H60	H	0.681841	0.076623	-0.002519
H61	H	0.886237	0.000040	-0.272096
O62	O	1.385450	0.136934	0.257571
H63	H	1.348611	0.198773	0.226235
H64	H	1.373472	-0.696044	-0.085964
O65	O	1.024171	0.000054	0.468103
H66	H	1.041272	0.000058	0.411898
H67	H	0.561235	0.000024	-0.080009
H68	H	1.058830	-0.518596	-0.275260
O69	O	1.426567	0.000000	0.028977
H70	H	1.491421	0.000016	0.067805
O71	O	1.423268	-0.000015	0.179792
H72	H	1.489760	-0.000038	0.143790
O73	O	0.949720	-0.000000	-0.030151
H74	H	0.902770	-0.000003	0.017618
O75	O	1.382161	0.136971	0.408377
H76	H	1.367981	0.125926	0.464194
H77	H	1.391627	0.000038	0.485592
O78	O	1.413498	0.000057	0.627348
H79	H	1.479986	0.000029	0.591343
H80	H	1.046051	0.000080	0.609858
H81	H	1.082554	-0.119473	0.381864
H82	H	1.085432	-0.119501	0.250242
H83	H	1.055828	0.000022	0.162301
H84	H	0.711466	0.000058	-0.321879
O85	O	0.497739	0.000058	-0.321969
H86	H	0.415623	0.000047	-0.304906
