data_functionalizedCrystal
_audit_creation_method	'MofGen! by Chris Wilmer'
_symmetry_space_group_name_H-M	'P1'
_symmetry_Int_Tables_number	1
_symmetry_cell_setting	triclinic
loop_
_symmetry_equiv_pos_as_xyz
  x,y,z
_cell_length_a	19.188930
_cell_length_b	10.489716
_cell_length_c	17.666332
_cell_angle_alpha	90.008963
_cell_angle_beta	90.011603
_cell_angle_gamma	83.836959
loop_
_atom_site_label
_atom_site_type_symbol
_atom_site_fract_x
_atom_site_fract_y
_atom_site_fract_z
O1	O	0.098422	1.691880	0.062952
O2	O	0.598422	2.191880	0.562952
O3	O	0.107686	1.320473	0.062956
O4	O	0.607686	1.820473	0.562956
O5	O	0.001470	1.516894	0.062939
O6	O	0.501470	2.016894	0.562939
O7	O	0.204638	1.495458	0.062969
O8	O	0.704638	1.995458	0.562969
O9	O	0.001464	1.516860	-0.062958
O10	O	0.501464	2.016860	0.437042
O11	O	0.107680	1.320439	-0.062941
O12	O	0.607680	1.820439	0.437059
O13	O	0.098416	1.691845	-0.062945
O14	O	0.598416	2.191845	0.437055
Cu15	Cu	0.103048	1.506139	-0.074438
Cu16	Cu	0.603048	2.006139	0.425562
Cu17	Cu	0.103055	1.506180	0.074449
Cu18	Cu	0.603055	2.006180	0.574449
O19	O	0.204633	1.495424	-0.062928
O20	O	0.704633	1.995424	0.437072
C21	C	0.106987	1.272939	0.000007
C22	C	0.606987	1.772939	0.500007
C23	C	0.104905	1.131355	0.000008
C24	C	0.604905	1.631355	0.500008
C25	C	0.170040	1.032224	0.000020
C26	C	0.670040	1.532224	0.500020
C27	C	0.135618	0.955631	-0.062063
C28	C	0.635618	1.455631	0.437937
C29	C	0.135608	0.955672	0.062062
C30	C	0.635608	1.455672	0.562062
C31	C	0.070510	1.056626	-0.062125
C32	C	0.570510	1.556626	0.437875
C33	C	0.070510	1.056672	0.062055
C34	C	0.570510	1.556672	0.562055
C35	C	0.036041	0.980129	-0.000042
C36	C	0.536041	1.480129	0.499958
C37	C	-0.024549	1.516183	-0.000012
C38	C	0.475451	2.016183	0.499988
C39	C	-0.102067	1.514099	-0.000018
C40	C	0.397933	2.014099	0.499982
C41	C	-0.146225	1.629353	-0.000023
C42	C	0.353775	2.129353	0.499977
C43	C	-0.219061	1.627395	-0.000011
C44	C	0.280939	2.127395	0.499989
C45	C	-0.247738	1.510177	-0.000009
C46	C	0.252262	2.010177	0.499991
C47	C	-0.203571	1.394908	-0.000000
C48	C	0.296429	1.894908	0.500000
C49	C	-0.130735	1.396869	-0.000005
C50	C	0.369265	1.896869	0.499995
N51	N	-0.356341	1.420566	-0.042853
N52	N	0.143659	1.920566	0.457147
N53	N	-0.425531	1.418712	-0.042851
N54	N	0.074469	1.918712	0.457149
C55	C	-0.467186	1.504262	0.000006
C56	C	0.032814	2.004262	0.500006
N57	N	-0.437036	1.591757	0.042851
N58	N	0.062964	2.091757	0.542851
N59	N	-0.367839	1.593616	0.042845
N60	N	0.132161	2.093616	0.542845
C61	C	-0.326714	1.508038	-0.000004
C62	C	0.173286	2.008038	0.499996
C63	C	-0.590321	1.617401	0.000016
C64	C	-0.090321	2.117401	0.500016
C65	C	-0.663159	1.615438	0.000033
C66	C	-0.163159	2.115438	0.500033
C67	C	-0.647667	1.382948	0.000036
C68	C	-0.147667	1.882948	0.500036
C69	C	-0.574831	1.384914	0.000026
C70	C	-0.074831	1.884914	0.500026
C71	C	-0.546163	1.502144	0.000013
C72	C	-0.046163	2.002144	0.500013
C73	C	0.230651	1.496135	0.000024
C74	C	0.730651	1.996135	0.500024
C75	C	0.308170	1.498219	0.000036
C76	C	0.808170	1.998219	0.500036
C77	C	0.099115	1.739379	0.000005
C78	C	0.599115	2.239379	0.500005
C79	C	0.101198	1.880964	0.000009
C80	C	0.601198	2.380964	0.500009
N81	N	0.103042	1.506120	-0.179158
N82	N	0.603042	2.006120	0.320842
C83	C	0.056033	1.593123	-0.218775
C84	C	0.556033	2.093123	0.281225
C85	C	0.056030	1.593131	-0.298023
C86	C	0.556030	2.093131	0.201977
C87	C	0.103048	1.506147	-0.337650
C88	C	0.603048	2.006147	0.162350
C89	C	0.150061	1.419127	-0.298023
C90	C	0.650061	1.919127	0.201977
C91	C	0.150058	1.419113	-0.218777
C92	C	0.650058	1.919113	0.281223
N93	N	0.164745	1.489566	-0.462060
N94	N	0.664745	1.989566	0.037940
N95	N	0.164745	1.489587	-0.537340
N96	N	0.664745	1.989587	-0.037340
C97	C	0.103058	1.506180	-0.576414
C98	C	0.603058	2.006180	-0.076414
N99	N	0.041368	1.522778	-0.537364
N100	N	0.541368	2.022778	-0.037364
N101	N	0.041368	1.522764	-0.462076
N102	N	0.541368	2.022764	0.037924
C103	C	0.103056	1.506151	-0.423579
C104	C	0.603056	2.006151	0.076421
C105	C	0.056041	1.593197	-0.701961
C106	C	0.556041	2.093197	-0.201961
C107	C	0.056037	1.593195	-0.781210
C108	C	0.556037	2.093195	-0.281210
C109	C	0.150074	1.419198	-0.781209
C110	C	0.650074	1.919198	-0.281209
C111	C	0.150072	1.419193	-0.701961
C112	C	0.650072	1.919193	-0.201961
C113	C	0.103056	1.506199	-0.662342
C114	C	0.603056	2.006199	-0.162342
N115	N	0.103054	1.506209	0.179168
N116	N	0.603054	2.006209	0.679168
H117	H	0.043027	1.100543	-0.114662
H118	H	0.543027	1.600543	0.385338
F119	F	0.005994	1.685737	-0.340193
F120	F	0.505994	2.185737	0.159807
F121	F	-0.038067	0.949844	-0.000100
F122	F	0.461933	1.449844	0.499900
H123	H	0.163112	0.911520	-0.114539
H124	H	0.663112	1.411520	0.385461
F125	F	0.200109	1.326615	-0.823379
F126	F	0.700109	1.826615	-0.323379
H127	H	0.043037	1.100797	0.114534
H128	H	0.543037	1.600797	0.614534
F129	F	-0.115718	1.754120	-0.000021
F130	F	0.384282	2.254120	0.499979
F131	F	0.171567	0.898051	0.130655
F132	F	0.671567	1.398051	0.630655
H133	H	0.188339	1.348263	-0.186520
H134	H	0.688339	1.848263	0.313480
F135	F	0.244093	1.062825	-0.000046
F136	F	0.744093	1.562825	0.499954
H137	H	0.188342	1.348301	-0.330292
H138	H	0.688342	1.848301	0.169708
H139	H	-0.255021	1.721252	-0.000012
H140	H	0.244979	2.221252	0.499988
F141	F	-0.527833	1.262244	0.000028
F142	F	-0.027833	1.762244	0.500028
H143	H	-0.566979	1.712856	0.000008
H144	H	-0.066979	2.212856	0.500008
H145	H	-0.699112	1.709296	0.000033
H146	H	-0.199112	2.209296	0.500033
F147	F	-0.234091	1.270157	0.000007
F148	F	0.265909	1.770157	0.500007
F149	F	-0.083738	1.274195	0.000001
F150	F	0.416262	1.774195	0.500001
H151	H	0.188354	1.348352	-0.669703
H152	H	0.688354	1.848352	-0.169703
H153	H	0.017756	1.664039	-0.669701
H154	H	0.517756	2.164039	-0.169701
F155	F	-0.678181	1.258195	0.000041
F156	F	-0.178181	1.758195	0.500041
H157	H	0.017749	1.663966	-0.186519
H158	H	0.517749	2.163966	0.313481
F159	F	0.005997	1.685793	-0.823375
F160	F	0.505997	2.185793	-0.323375
