data_functionalizedCrystal
_audit_creation_method	'MofGen! by Chris Wilmer'
_symmetry_space_group_name_H-M	'P1'
_symmetry_Int_Tables_number	1
_symmetry_cell_setting	triclinic
loop_
_symmetry_equiv_pos_as_xyz
  x,y,z
_cell_length_a	19.121414
_cell_length_b	19.120786
_cell_length_c	19.121242
_cell_angle_alpha	89.925866
_cell_angle_beta	90.121862
_cell_angle_gamma	95.006361
loop_
_atom_site_label
_atom_site_type_symbol
_atom_site_fract_x
_atom_site_fract_y
_atom_site_fract_z
Zn1	Zn	1.077614	-0.248194	0.340649
Zn2	Zn	1.577614	0.251806	0.840649
Zn3	Zn	1.067536	-0.360890	0.218817
Zn4	Zn	1.567536	0.139110	0.718817
Zn5	Zn	0.955370	-0.248644	0.228398
Zn6	Zn	1.455370	0.251356	0.728398
Zn7	Zn	0.954896	-0.370849	0.340595
Zn8	Zn	1.454896	0.129151	0.840595
O9	O	1.013854	-0.307144	0.282115
O10	O	1.513854	0.192856	0.782115
O11	O	1.174577	-0.258788	0.320500
O12	O	1.674577	0.241212	0.820500
O13	O	1.048637	-0.342021	0.122146
O14	O	1.548637	0.157979	0.622146
O15	O	0.976003	-0.150278	0.247320
O16	O	1.476003	0.349722	0.747320
O17	O	1.167172	-0.341585	0.230991
O18	O	1.667172	0.158415	0.730991
O19	O	1.065815	-0.149947	0.329790
O20	O	1.565815	0.350053	0.829790
O21	O	0.966230	-0.259554	0.129185
O22	O	1.466230	0.240446	0.629185
O23	O	0.857008	-0.269211	0.247269
O24	O	1.357008	0.230789	0.747269
O25	O	0.975195	-0.358558	0.438544
O26	O	1.475195	0.141442	0.938544
O27	O	0.856660	-0.358994	0.329699
O28	O	1.356660	0.141006	0.829699
O29	O	1.065355	-0.268444	0.438583
O30	O	1.565355	0.231556	0.938583
O31	O	1.048177	-0.460518	0.230939
O32	O	1.548177	0.039482	0.730939
O33	O	0.965422	-0.467834	0.320409
O34	O	1.465422	0.032166	0.820409
C35	C	0.831346	-0.315232	0.289518
C36	C	1.331346	0.184768	0.789518
C37	C	0.753268	-0.318710	0.292701
C38	C	1.253268	0.181290	0.792701
C39	C	0.716754	-0.273534	0.251356
C40	C	1.216754	0.226466	0.751356
C41	C	0.643391	-0.276808	0.254346
C42	C	1.143391	0.223192	0.754346
C43	C	0.606545	-0.325255	0.298686
C44	C	1.106545	0.174745	0.798686
C45	C	0.643064	-0.370436	0.340033
C46	C	1.143064	0.129564	0.840033
C47	C	0.716425	-0.367165	0.337039
C48	C	1.216425	0.132835	0.837039
C49	C	0.385033	-0.337475	0.309868
C50	C	0.885033	0.162525	0.809868
C51	C	0.311667	-0.340741	0.312861
C52	C	0.811667	0.159259	0.812861
C53	C	0.311999	-0.247114	0.227173
C54	C	0.811999	0.252886	0.727173
C55	C	0.385362	-0.243844	0.224185
C56	C	0.885362	0.256156	0.724185
C57	C	0.421875	-0.289028	0.265529
C58	C	0.921875	0.210972	0.765529
C59	C	0.531556	-0.328601	0.301746
C60	C	1.031556	0.171399	0.801746
C61	C	0.496861	-0.285685	0.262466
C62	C	0.996861	0.214315	0.762466
C63	C	1.005674	-0.489666	0.274643
C64	C	1.505674	0.010334	0.774643
C65	C	1.002240	-0.567747	0.271468
C66	C	1.502240	-0.067747	0.771468
C67	C	1.047355	-0.604201	0.312951
C68	C	1.547355	-0.104201	0.812951
C69	C	1.044125	-0.677567	0.309969
C70	C	1.544125	-0.177567	0.809969
C71	C	0.995784	-0.714478	0.265498
C72	C	1.495784	-0.214478	0.765498
C73	C	0.950664	-0.678020	0.224013
C74	C	1.450664	-0.178020	0.724013
C75	C	0.953891	-0.604655	0.227000
C76	C	1.453891	-0.104655	0.727000
C77	C	0.983701	-0.936003	0.254334
C78	C	1.483701	-0.436003	0.754334
C79	C	0.980479	-1.009373	0.251349
C80	C	1.480479	-0.509373	0.751349
C81	C	1.073939	-1.008915	0.337306
C82	C	1.573939	-0.508915	0.837306
C83	C	1.077165	-0.935549	0.340285
C84	C	1.577165	-0.435549	0.840285
C85	C	1.032043	-0.899097	0.298803
C86	C	1.532043	-0.399097	0.798803
C87	C	0.992483	-0.789470	0.262447
C88	C	1.492483	-0.289470	0.762447
C89	C	1.035340	-0.824107	0.301858
C90	C	1.535340	-0.324107	0.801858
C91	C	1.197075	-0.299025	0.274683
C92	C	1.697075	0.200975	0.774683
C93	C	1.275153	-0.295565	0.271516
C94	C	1.775153	0.204435	0.771516
C95	C	1.021346	-0.314562	0.464669
C96	C	1.521346	0.185438	0.964669
C97	C	1.024539	-0.317722	0.542463
C98	C	1.524539	0.182278	1.042463
C99	C	1.022086	-0.123910	0.289630
C100	C	1.522086	0.376090	0.789630
C101	C	1.025594	-0.045826	0.292833
C102	C	1.525594	0.454174	0.792833
C103	C	1.006434	-0.299703	0.100271
C104	C	1.506434	0.200297	0.600271
C105	C	1.003386	-0.296338	0.022480
C106	C	1.503386	0.203662	0.522480
C107	C	1.044785	-0.337787	0.982262
C108	C	1.544785	0.162213	1.482262
C109	C	1.041775	-0.334813	0.909167
C110	C	1.541775	0.165187	1.409167
C111	C	0.997370	-0.290387	0.876292
C112	C	1.497370	0.209613	1.376292
C113	C	0.955966	-0.248937	0.916516
C114	C	1.455966	0.251063	1.416516
C115	C	0.958973	-0.251915	0.989609
C116	C	1.458973	0.248085	1.489609
C117	C	0.986142	-0.279250	0.655780
C118	C	1.486142	0.220750	1.155780
C119	C	0.983140	-0.276274	0.582681
C120	C	1.483140	0.223726	1.082681
C121	C	1.068948	-0.362152	0.575337
C122	C	1.568948	0.137848	1.075337
C123	C	1.071954	-0.365123	0.648433
C124	C	1.571954	0.134877	1.148433
C125	C	1.030548	-0.323675	0.688650
C126	C	1.530548	0.176325	1.188650
C127	C	0.994294	-0.287344	0.801577
C128	C	1.494294	0.212656	1.301577
C129	C	1.033621	-0.326722	0.763363
C130	C	1.533621	0.173278	1.263363
H131	H	0.746154	-0.403952	0.370707
H132	H	1.246154	0.096048	0.870707
H133	H	0.613057	-0.409885	0.376133
H134	H	1.113057	0.090115	0.876133
H135	H	1.108114	-0.401300	0.675194
H136	H	1.608114	0.098700	1.175194
H137	H	0.414753	-0.374267	0.343534
H138	H	0.914753	0.125733	0.843534
H139	H	0.415357	-0.204398	0.188074
H140	H	0.915357	0.295602	0.688074
H141	H	0.526865	-0.246242	0.226362
H142	H	1.026865	0.253758	0.726362
H143	H	0.917153	-0.574976	0.193221
H144	H	1.417153	-0.074976	0.693221
H145	H	1.074698	-0.794052	0.338069
H146	H	1.574698	-0.294052	0.838069
H147	H	1.110674	-1.038602	0.371079
H148	H	1.610674	-0.538602	0.871079
H149	H	1.075478	-0.368574	0.876424
H150	H	1.575478	0.131426	1.376424
H151	H	0.501548	-0.368046	0.337848
H152	H	1.001548	0.131954	0.837848
H153	H	1.086723	-0.574152	0.349160
H154	H	1.586723	-0.074152	0.849160
H155	H	0.946981	-0.240092	0.555917
H156	H	1.446981	0.259908	1.055917
H157	H	0.953125	-0.819531	0.226237
H158	H	1.453125	-0.319531	0.726237
H159	H	1.080949	-0.373960	1.009023
H160	H	1.580949	0.126040	1.509023
H161	H	1.102658	-0.395896	0.542584
H162	H	1.602658	0.104104	1.042584
H163	H	0.946962	-0.906330	0.220556
H164	H	1.446962	-0.406330	0.720556
H165	H	1.116528	-0.905497	0.376496
H166	H	1.616528	-0.405497	0.876496
H167	H	1.080868	-0.707244	0.343743
H168	H	1.580868	-0.207244	0.843743
H169	H	0.941110	-1.039424	0.215136
H170	H	1.441110	-0.539424	0.715136
H171	H	0.281669	-0.380192	0.348973
H172	H	0.781669	0.119808	0.848973
H173	H	0.911301	-0.708079	0.187808
H174	H	1.411301	-0.208079	0.687808
H175	H	0.952425	-0.245502	0.688517
H176	H	1.452425	0.254498	1.188517
H177	H	0.919807	-0.212767	0.889744
H178	H	1.419807	0.287233	1.389744
H179	H	0.925262	-0.218162	1.022355
H180	H	1.425262	0.281838	1.522355
H181	H	1.069774	-0.362895	0.790133
H182	H	1.569774	0.137105	1.290133
H183	H	0.958139	-0.251171	0.774802
H184	H	1.458139	0.248829	1.274802
H185	H	0.746750	-0.234078	0.215255
H186	H	1.246750	0.265922	0.715255
H187	H	0.613664	-0.240024	0.220674
H188	H	1.113664	0.259976	0.720674
H189	H	0.282263	-0.210329	0.193512
H190	H	0.782263	0.289671	0.693512
