data_functionalizedCrystal
_audit_creation_method	'MofGen! by Chris Wilmer'
_symmetry_space_group_name_H-M	'P1'
_symmetry_Int_Tables_number	1
_symmetry_cell_setting	triclinic
loop_
_symmetry_equiv_pos_as_xyz
  x,y,z
_cell_length_a	6.817900
_cell_length_b	11.168129
_cell_length_c	17.329378
_cell_angle_alpha	90.470961
_cell_angle_beta	103.025558
_cell_angle_gamma	108.508637
loop_
_atom_site_label
_atom_site_type_symbol
_atom_site_fract_x
_atom_site_fract_y
_atom_site_fract_z
V1	V	-4.032097	-0.148895	-0.245035
O2	O	-3.993163	0.033713	-0.240363
O3	O	-4.008915	-0.320776	-0.243366
O4	O	-3.974463	-0.134951	-0.351900
O5	O	-4.027854	-0.153398	-0.131078
V6	V	-4.513653	-0.128430	-0.231404
O7	O	-4.297668	-0.193787	-0.274936
O8	O	-4.698279	-0.083538	-0.201503
O9	O	-4.313628	0.043451	-0.233073
O10	O	-4.669984	-0.311038	-0.236075
O11	O	-4.635293	-0.123927	-0.345361
O12	O	-4.348081	-0.142373	-0.124539
C13	C	-3.860350	-0.363041	-0.239502
C14	C	-3.922621	-0.503481	-0.238850
C15	C	-3.915282	-0.556162	-0.170164
C16	C	-3.979643	-0.701314	-0.169488
C17	C	-3.816401	-0.126002	-0.377947
C18	C	-3.850730	-0.115739	-0.465310
C19	C	-3.923070	-0.225369	-0.517580
C20	C	-3.955333	-0.215723	-0.599667
C21	C	-3.915240	-0.096446	-0.629481
C22	C	-3.842900	0.013192	-0.577204
C23	C	-3.810652	0.003545	-0.495120
C24	C	-4.009807	-0.061593	-0.876762
C25	C	-4.042055	-0.051954	-0.958854
C26	C	-4.154489	-0.280871	-0.981311
C27	C	-4.122224	-0.290507	-0.899223
C28	C	-4.049897	-0.180869	-0.846954
C29	C	-3.948210	-0.086584	-0.713386
C30	C	-4.016943	-0.190733	-0.763050
C31	C	-4.125537	0.085710	-0.236935
C32	C	-4.042503	0.226149	-0.237592
C33	C	-4.169485	-0.151327	-0.098488
C34	C	-4.114394	-0.161584	-0.011124
H35	H	-3.861363	-0.493804	-0.111861
N36	N	-3.904952	0.042059	-0.745550
H37	H	-3.750507	0.094417	-0.723636
H38	H	-3.999129	0.086323	-0.729074
N39	N	-3.971528	-0.761377	-0.091595
H40	H	-3.869940	-0.811599	-0.085498
H41	H	-4.118554	-0.819690	-0.090920
H42	H	-4.048675	-0.728517	-0.296400
N43	N	-3.994086	-0.586080	-0.316081
H44	H	-3.895731	-0.637209	-0.316325
H45	H	-3.990171	-0.530907	-0.361972
N46	N	-3.998833	0.076699	-0.991013
H47	H	-3.885447	0.089807	-1.021843
H48	H	-3.948219	0.144611	-0.945405
N49	N	-3.966311	-0.354018	-0.485426
H50	H	-4.017043	-0.422004	-0.530999
H51	H	-4.079637	-0.367001	-0.454582
H52	H	-4.014245	-0.304996	-0.642223
H53	H	-4.154883	-0.387635	-0.874955
H54	H	-4.213381	-0.370131	-1.023877
N55	N	-3.931795	0.056654	-0.820392
H56	H	-3.911283	0.133676	-0.851738
H57	H	-3.791712	0.061638	-0.783121
H58	H	-3.810270	0.110310	-0.601486
N59	N	-3.732640	0.121787	-0.438738
H60	H	-3.712131	0.198814	-0.470079
H61	H	-3.592557	0.126773	-0.401466
N62	N	-4.060197	-0.319376	-0.730894
H63	H	-3.925070	-0.324473	-0.694613
H64	H	-4.110977	-0.387296	-0.776504
