data_functionalizedCrystal
_audit_creation_method	'MofGen! by Chris Wilmer'
_symmetry_space_group_name_H-M	'P1'
_symmetry_Int_Tables_number	1
_symmetry_cell_setting	triclinic
loop_
_symmetry_equiv_pos_as_xyz
  x,y,z
_cell_length_a	12.827893
_cell_length_b	14.908520
_cell_length_c	12.827885
_cell_angle_alpha	93.263516
_cell_angle_beta	89.980919
_cell_angle_gamma	93.320565
loop_
_atom_site_label
_atom_site_type_symbol
_atom_site_fract_x
_atom_site_fract_y
_atom_site_fract_z
Zn1	Zn	1.573615	-0.359115	-0.614811
Zn2	Zn	1.906948	-0.025781	-0.281478
Zn3	Zn	2.240281	0.307552	0.051855
Zn4	Zn	1.563402	-0.509998	-0.450142
Zn5	Zn	1.896735	-0.176665	-0.116809
Zn6	Zn	2.230069	0.156668	0.216525
Zn7	Zn	1.398853	-0.359159	-0.440088
Zn8	Zn	1.732186	-0.025825	-0.106755
Zn9	Zn	2.065520	0.307508	0.226578
Zn10	Zn	1.388739	-0.509931	-0.624838
Zn11	Zn	1.722072	-0.176598	-0.291505
Zn12	Zn	2.055406	0.156735	0.041829
O13	O	1.481152	-0.434551	-0.532470
O14	O	1.814485	-0.101217	-0.199137
O15	O	2.147819	0.232116	0.134197
O16	O	1.718495	-0.379139	-0.592979
O17	O	2.051829	-0.045806	-0.259645
O18	O	2.385162	0.287527	0.073688
O19	O	1.541533	-0.490036	-0.302575
O20	O	1.874866	-0.156702	0.030758
O21	O	2.208199	0.176631	0.364091
O22	O	1.430542	-0.232908	-0.454862
O23	O	1.763876	0.100425	-0.121529
O24	O	2.097209	0.433758	0.211804
O25	O	1.710992	-0.489993	-0.471997
O26	O	2.044325	-0.156660	-0.138663
O27	O	2.377659	0.176674	0.194670
O28	O	1.558939	-0.232876	-0.583230
O29	O	1.892272	0.100457	-0.249897
O30	O	2.225606	0.433791	0.083436
O31	O	1.420640	-0.379214	-0.295189
O32	O	1.753973	-0.045881	0.038144
O33	O	2.087306	0.287452	0.371478
O34	O	1.251276	-0.379149	-0.464585
O35	O	1.584609	-0.045816	-0.131251
O36	O	1.917943	0.287518	0.202082
O37	O	1.413304	-0.489879	-0.769741
O38	O	1.746638	-0.156545	-0.436408
O39	O	2.079971	0.176788	-0.103074
O40	O	1.243845	-0.489921	-0.600319
O41	O	1.577179	-0.156588	-0.266986
O42	O	1.910512	0.176746	0.066347
O43	O	1.549132	-0.379074	-0.762374
O44	O	1.882465	-0.045741	-0.429041
O45	O	2.215798	0.287592	-0.095708
O46	O	1.531726	-0.636234	-0.481719
O47	O	1.865059	-0.302900	-0.148386
O48	O	2.198392	0.030433	0.184947
O49	O	1.403401	-0.636184	-0.610068
O50	O	1.736735	-0.302851	-0.276734
O51	O	2.070068	0.030482	0.056599
C52	C	1.209643	-0.434533	-0.532450
C53	C	1.542977	-0.101200	-0.199116
C54	C	1.876310	0.232133	0.134217
C55	C	1.093489	-0.434548	-0.532467
C56	C	1.426823	-0.101214	-0.199134
C57	C	1.760156	0.232119	0.134199
C58	C	1.465386	-0.668943	-0.548095
C59	C	1.798719	-0.335609	-0.214762
C60	C	2.132053	-0.002276	0.118571
C61	C	1.458737	-0.769217	-0.554815
C62	C	1.792070	-0.435883	-0.221481
C63	C	2.125404	-0.102550	0.111852
C64	C	1.037998	-0.489317	-0.472512
C65	C	1.371331	-0.155984	-0.139178
C66	C	1.704664	0.177350	0.194155
C67	C	0.917946	-0.489333	-0.472528
C68	C	1.251280	-0.156000	-0.139195
C69	C	1.584613	0.177334	0.194138
C70	C	1.580004	-0.957632	-0.433900
C71	C	1.913337	-0.624299	-0.100567
C72	C	2.246671	-0.290966	0.232767
C73	C	1.573760	-1.051849	-0.440210
C74	C	1.907093	-0.718515	-0.106877
C75	C	2.240427	-0.385182	0.226457
C76	C	1.440011	-1.051867	-0.573750
C77	C	1.773345	-0.718534	-0.240417
C78	C	2.106678	-0.385201	0.092917
C79	C	1.446255	-0.957651	-0.567440
C80	C	1.779588	-0.624318	-0.234106
C81	C	2.112922	-0.290984	0.099227
C82	C	1.516253	-0.910537	-0.497511
C83	C	1.849586	-0.577203	-0.164178
C84	C	2.182919	-0.243870	0.169155
C85	C	1.522491	-0.816319	-0.491196
C86	C	1.855824	-0.482985	-0.157863
C87	C	2.189157	-0.149652	0.175470
C88	C	1.388748	-0.816339	-0.624741
C89	C	1.722081	-0.483006	-0.291407
C90	C	2.055415	-0.149672	0.041926
C91	C	1.382504	-0.910555	-0.631051
C92	C	1.715837	-0.577222	-0.297718
C93	C	2.049171	-0.243889	0.035616
C94	C	1.753721	-0.434569	-0.532491
C95	C	2.087054	-0.101235	-0.199157
C96	C	2.420388	0.232098	0.134176
C97	C	1.869874	-0.434576	-0.532500
C98	C	2.203207	-0.101243	-0.199166
C99	C	2.536540	0.232090	0.134167
C100	C	1.481229	-0.434464	-0.805034
C101	C	1.814562	-0.101131	-0.471701
C102	C	2.147896	0.232203	-0.138368
C103	C	1.481262	-0.434427	-0.921185
C104	C	1.814595	-0.101094	-0.587852
C105	C	2.147928	0.232240	-0.254518
C106	C	1.497008	-0.199243	-0.516806
C107	C	1.830341	0.134090	-0.183473
C108	C	2.163675	0.467423	0.149860
C109	C	1.503765	-0.098969	-0.510132
C110	C	1.837098	0.234364	-0.176798
C111	C	2.170432	0.567697	0.156535
C112	C	1.548481	-0.379587	-0.969324
C113	C	1.881814	-0.046254	-0.635991
C114	C	2.215148	0.287080	-0.302657
C115	C	1.548516	-0.379547	-1.089372
C116	C	1.881850	-0.046214	-0.756038
C117	C	2.215183	0.287119	-0.422705
C118	C	1.481140	-0.434572	-0.260961
C119	C	1.814473	-0.101239	0.072372
C120	C	2.147807	0.232095	0.405705
C121	C	1.481327	-0.434355	-0.144794
C122	C	1.814660	-0.101021	0.188539
C123	C	2.147993	0.232312	0.521872
H124	H	1.079366	-0.536198	-0.421173
H125	H	1.412700	-0.202865	-0.087839
H126	H	1.746033	0.130468	0.245494
H127	H	1.579483	-0.777959	-0.434255
H128	H	1.912817	-0.444626	-0.100921
H129	H	2.246150	-0.111293	0.232412
H130	H	1.636991	-0.919271	-0.376954
H131	H	1.970325	-0.585938	-0.043621
H132	H	2.303658	-0.252605	0.289713
H133	H	1.423733	-0.481343	-0.968846
H134	H	1.757066	-0.148009	-0.635513
H135	H	2.090399	0.185324	-0.302180
H136	H	0.870239	-0.536221	-0.421196
H137	H	1.203572	-0.202888	-0.087863
H138	H	1.536906	0.130445	0.245471
H139	H	1.423778	-0.481311	-1.103389
H140	H	1.757112	-0.147978	-0.770056
H141	H	2.090445	0.185356	-0.436722
H142	H	1.052120	-0.387672	-0.583814
H143	H	1.385453	-0.054339	-0.250480
H144	H	1.718787	0.278994	0.082853
H145	H	0.917575	-0.387680	-0.583828
H146	H	1.250908	-0.054347	-0.250494
H147	H	1.584241	0.278987	0.082839
H148	H	1.625675	-1.090190	-0.388413
H149	H	1.959008	-0.756857	-0.055080
H150	H	2.292342	-0.423524	0.278254
H151	H	1.325517	-0.948929	-0.687987
H152	H	1.658850	-0.615595	-0.354654
H153	H	1.992183	-0.282262	-0.021321
H154	H	1.383030	-1.090244	-0.630689
H155	H	1.716363	-0.756911	-0.297356
H156	H	2.049696	-0.423577	0.035978
H157	H	1.606000	-0.332662	-0.921662
H158	H	1.939333	0.000671	-0.588329
H159	H	2.272667	0.334004	-0.254996
H160	H	1.336834	-0.777983	-0.676535
H161	H	1.670167	-0.444650	-0.343201
H162	H	2.003501	-0.111317	-0.009868
H163	H	1.606069	-0.332600	-1.130784
H164	H	1.939402	0.000734	-0.797451
H165	H	2.272735	0.334067	-0.464118
