data_functionalizedCrystal
_audit_creation_method	'MofGen! by Chris Wilmer'
_symmetry_space_group_name_H-M	'P1'
_symmetry_Int_Tables_number	1
_symmetry_cell_setting	triclinic
loop_
_symmetry_equiv_pos_as_xyz
  x,y,z
_cell_length_a	14.044220
_cell_length_b	14.044220
_cell_length_c	13.101039
_cell_angle_alpha	93.667477
_cell_angle_beta	86.340132
_cell_angle_gamma	93.188878
loop_
_atom_site_label
_atom_site_type_symbol
_atom_site_fract_x
_atom_site_fract_y
_atom_site_fract_z
O1	O	-1.281968	-0.225348	0.085109
O2	O	-1.031968	0.024652	0.335109
O3	O	-0.781968	0.274652	0.585109
O4	O	-0.531968	0.524652	0.835109
O5	O	-1.005298	-0.217041	0.085135
O6	O	-0.755298	0.032959	0.335135
O7	O	-0.505298	0.282959	0.585135
O8	O	-0.255298	0.532959	0.835135
O9	O	-1.139480	-0.082860	0.085112
O10	O	-0.889480	0.167140	0.335112
O11	O	-0.639480	0.417140	0.585112
O12	O	-0.389480	0.667140	0.835112
O13	O	-1.147787	-0.359530	0.085132
O14	O	-0.897787	-0.109530	0.335132
O15	O	-0.647787	0.140470	0.585132
O16	O	-0.397787	0.390470	0.835132
O17	O	-1.129854	-0.092504	-0.085316
O18	O	-0.879854	0.157496	0.164684
O19	O	-0.629854	0.407496	0.414684
O20	O	-0.379854	0.657496	0.664684
O21	O	-0.995673	-0.226686	-0.085293
O22	O	-0.745673	0.023314	0.164707
O23	O	-0.495673	0.273314	0.414707
O24	O	-0.245673	0.523314	0.664707
O25	O	-1.272343	-0.234993	-0.085319
O26	O	-1.022343	0.015007	0.164681
O27	O	-0.772343	0.265007	0.414681
O28	O	-0.522343	0.515007	0.664681
Zn29	Zn	-1.132479	-0.232371	-0.112365
Zn30	Zn	-0.882479	0.017629	0.137635
Zn31	Zn	-0.632479	0.267629	0.387635
Zn32	Zn	-0.382479	0.517629	0.637635
Zn33	Zn	-1.145162	-0.219663	0.112181
Zn34	Zn	-0.895162	0.030337	0.362181
Zn35	Zn	-0.645162	0.280337	0.612181
Zn36	Zn	-0.395162	0.530337	0.862181
O37	O	-1.138161	-0.369175	-0.085296
O38	O	-0.888161	-0.119175	0.164704
O39	O	-0.638161	0.130825	0.414704
O40	O	-0.388161	0.380825	0.664704
C41	C	-0.964864	-0.218228	-0.000076
C42	C	-0.714864	0.031772	0.249924
C43	C	-0.464864	0.281772	0.499924
C44	C	-0.214864	0.531772	0.749924
C45	C	-0.858722	-0.207383	-0.000066
C46	C	-0.608722	0.042617	0.249934
C47	C	-0.358722	0.292617	0.499934
C48	C	-0.108722	0.542617	0.749934
C49	C	-1.131031	-0.052060	-0.000102
C50	C	-0.881031	0.197940	0.249898
C51	C	-0.631031	0.447940	0.499898
C52	C	-0.381031	0.697940	0.749898
C53	C	-1.120187	0.054083	-0.000102
C54	C	-0.870187	0.304083	0.249898
C55	C	-0.620187	0.554083	0.499898
C56	C	-0.370187	0.804083	0.749898
C57	C	-1.312777	-0.233806	-0.000106
C58	C	-1.062777	0.016194	0.249894
C59	C	-0.812777	0.266194	0.499894
C60	C	-0.562777	0.516194	0.749894
C61	C	-1.418920	-0.244651	-0.000109
C62	C	-1.168920	0.005349	0.249891
C63	C	-0.918920	0.255349	0.499891
C64	C	-0.668920	0.505349	0.749891
C65	C	-0.664383	-0.187558	-0.000088
C66	C	-0.414383	0.062442	0.249912
C67	C	-0.164383	0.312442	0.499912
C68	C	0.085617	0.562442	0.749912
C69	C	-0.613253	-0.264472	-0.000087
C70	C	-0.363253	-0.014472	0.249913
C71	C	-0.113253	0.235528	0.499913
C72	C	0.136747	0.485528	0.749913
C73	C	-0.505116	-0.253441	-0.000099
C74	C	-0.255116	-0.003441	0.249901
C75	C	-0.005116	0.246559	0.499901
C76	C	0.244884	0.496559	0.749901
C77	C	-0.772529	-0.198587	-0.000076
C78	C	-0.522529	0.051413	0.249924
C79	C	-0.272529	0.301413	0.499924
C80	C	-0.022529	0.551413	0.749924
C81	C	-1.146610	-0.399974	-0.000080
C82	C	-0.896610	-0.149974	0.249920
C83	C	-0.646610	0.100026	0.499920
C84	C	-0.396610	0.350026	0.749920
C85	C	-1.157455	-0.506116	-0.000073
C86	C	-0.907455	-0.256116	0.249927
C87	C	-0.657455	-0.006116	0.499927
C88	C	-0.407455	0.243884	0.749927
N89	N	-1.123831	-0.241043	-0.265612
N90	N	-0.873831	0.008957	-0.015612
N91	N	-0.623831	0.258957	0.234388
N92	N	-0.373831	0.508957	0.484388
C93	C	-1.100362	0.248421	-0.000086
C94	C	-0.850362	0.498421	0.249914
C95	C	-0.600362	0.748421	0.499914
C96	C	-0.350362	0.998421	0.749914
C97	C	-1.177276	0.299551	-0.000090
C98	C	-0.927276	0.549551	0.249910
C99	C	-0.677276	0.799551	0.499910
C100	C	-0.427276	1.049551	0.749910
C101	C	-1.166245	0.407688	-0.000080
C102	C	-0.916245	0.657688	0.249920
C103	C	-0.666245	0.907688	0.499920
C104	C	-0.416245	1.157688	0.749920
C105	C	-1.111391	0.140275	-0.000095
C106	C	-0.861391	0.390275	0.249905
C107	C	-0.611391	0.640275	0.499905
C108	C	-0.361391	0.890275	0.749905
C109	C	-1.112065	-0.252851	-0.474653
C110	C	-0.862065	-0.002851	-0.224653
C111	C	-0.612065	0.247149	0.025347
C112	C	-0.362065	0.497149	0.275347
C113	C	-1.165580	-0.199179	-0.525538
C114	C	-0.915580	0.050821	-0.275538
C115	C	-0.665580	0.300821	-0.025538
C116	C	-0.415580	0.550821	0.224462
C117	C	-1.159034	-0.205749	-0.641855
C118	C	-0.909034	0.044251	-0.391855
C119	C	-0.659034	0.294251	-0.141855
C120	C	-0.409034	0.544251	0.108145
C121	C	-1.118610	-0.246282	-0.358325
C122	C	-0.868610	0.003718	-0.108325
C123	C	-0.618610	0.253718	0.141675
C124	C	-0.368610	0.503718	0.391675
N125	N	-1.153817	-0.210984	0.265428
N126	N	-0.903817	0.039016	0.515428
N127	N	-0.653817	0.289016	0.765428
N128	N	-0.403817	0.539016	1.015428
H129	H	-0.650693	-0.338605	-0.000077
H130	H	-0.400693	-0.088605	0.249923
H131	H	-0.150693	0.161395	0.499923
H132	H	0.099307	0.411395	0.749923
C133	C	-0.561679	-0.071517	0.087521
C134	C	-0.311679	0.178483	0.337521
C135	C	-0.061679	0.428483	0.587521
C136	C	0.188321	0.678483	0.837521
C137	C	-0.613850	-0.087484	-0.000088
C138	C	-0.363850	0.162516	0.249912
C139	C	-0.113850	0.412516	0.499912
C140	C	0.136150	0.662516	0.749912
H141	H	-0.530480	-0.009734	0.087525
H142	H	-0.280480	0.240266	0.337525
H143	H	-0.030480	0.490266	0.587525
H144	H	0.219520	0.740266	0.837525
H145	H	-0.515396	-0.118325	0.087507
H146	H	-0.265396	0.131675	0.337507
H147	H	-0.015396	0.381675	0.587507
H148	H	0.234604	0.631675	0.837507
H149	H	-0.603786	-0.075650	0.146947
H150	H	-0.353786	0.174350	0.396947
H151	H	-0.103786	0.424350	0.646947
H152	H	0.146214	0.674350	0.896947
H153	H	-0.571741	-0.083359	-0.059515
H154	H	-0.321741	0.166641	0.190485
H155	H	-0.071741	0.416641	0.440485
H156	H	0.178259	0.666641	0.690485
H157	H	-0.660138	-0.040663	-0.000084
H158	H	-0.410138	0.209337	0.249916
H159	H	-0.160138	0.459337	0.499916
H160	H	0.089862	0.709337	0.749916
H161	H	-1.251413	0.262115	-0.000028
H162	H	-1.001413	0.512115	0.249972
H163	H	-0.751413	0.762115	0.499972
H164	H	-0.501413	1.012115	0.749972
H165	H	-1.216314	-0.148295	-0.481744
H166	H	-0.966314	0.101705	-0.231744
H167	H	-0.716314	0.351705	0.018256
H168	H	-0.466314	0.601705	0.268256
C169	C	-1.008595	0.397850	-0.000086
C170	C	-0.758595	0.647850	0.249914
C171	C	-0.508595	0.897850	0.499914
C172	C	-0.258595	1.147850	0.749914
C173	C	-1.000288	0.298955	-0.000085
C174	C	-0.750288	0.548955	0.249915
C175	C	-0.500288	0.798955	0.499915
C176	C	-0.250288	1.048955	0.749915
H177	H	-0.946813	0.429053	-0.000095
H178	H	-0.696813	0.679053	0.249905
H179	H	-0.446813	0.929053	0.499905
H180	H	-0.196813	1.179053	0.749905
H181	H	-1.045641	0.419143	0.059345
H182	H	-0.795641	0.669143	0.309345
H183	H	-0.545641	0.919143	0.559345
H184	H	-0.295641	1.169143	0.809345
H185	H	-1.038951	0.412422	-0.059519
H186	H	-0.788951	0.662422	0.190481
H187	H	-0.538951	0.912422	0.440481
H188	H	-0.288951	1.162422	0.690481
H189	H	-0.969938	0.284383	0.059353
H190	H	-0.719938	0.534383	0.309353
H191	H	-0.469938	0.784383	0.559353
H192	H	-0.219938	1.034383	0.809353
H193	H	-0.963228	0.277654	-0.059522
H194	H	-0.713228	0.527654	0.190478
H195	H	-0.463228	0.777654	0.440478
H196	H	-0.213228	1.027654	0.690478
H197	H	-1.061336	-0.303733	-0.518442
H198	H	-0.811336	-0.053733	-0.268442
H199	H	-0.561336	0.196267	-0.018442
H200	H	-0.311336	0.446267	0.231558
