data_functionalizedCrystal
_audit_creation_method	'MofGen! by Chris Wilmer'
_symmetry_space_group_name_H-M	'P1'
_symmetry_Int_Tables_number	1
_symmetry_cell_setting	triclinic
loop_
_symmetry_equiv_pos_as_xyz
  x,y,z
_cell_length_a	12.759401
_cell_length_b	21.295417
_cell_length_c	12.759393
_cell_angle_alpha	90.037048
_cell_angle_beta	90.020938
_cell_angle_gamma	90.031227
loop_
_atom_site_label
_atom_site_type_symbol
_atom_site_fract_x
_atom_site_fract_y
_atom_site_fract_z
Zn1	Zn	1.606157	-0.250553	0.593972
Zn2	Zn	1.606002	-0.355835	0.418272
Zn3	Zn	1.430456	-0.250587	0.418307
Zn4	Zn	1.430401	-0.355791	0.593909
O5	O	1.518254	-0.303192	0.506115
O6	O	1.753157	-0.264523	0.570677
O7	O	1.582673	-0.341906	0.271256
O8	O	1.453850	-0.162493	0.441651
O9	O	1.753043	-0.341874	0.441591
O10	O	1.582937	-0.162468	0.570711
O11	O	1.453700	-0.264581	0.271282
O12	O	1.283427	-0.264538	0.441590
O13	O	1.453758	-0.341799	0.740939
O14	O	1.283388	-0.341831	0.570604
O15	O	1.582885	-0.264481	0.740985
O16	O	1.582621	-0.443919	0.441530
O17	O	1.453608	-0.443886	0.570570
C18	C	1.245287	-0.303184	0.506095
C19	C	1.128510	-0.303196	0.506111
C20	C	1.518120	-0.466743	0.506062
C21	C	1.518159	-0.536711	0.506075
C22	C	1.073655	-0.343504	0.573182
C23	C	0.963931	-0.343506	0.573203
C24	C	0.963927	-0.262891	0.439071
C25	C	1.073649	-0.262886	0.439057
C26	C	1.585336	-0.569508	0.573324
C27	C	1.585373	-0.635250	0.573350
C28	C	1.518244	-0.668194	0.506108
C29	C	1.451054	-0.635389	0.438853
C30	C	1.451011	-0.569648	0.438837
N31	N	1.510303	-0.771462	0.414161
N32	N	1.510350	-0.833913	0.414180
C33	C	1.518367	-0.866268	0.506155
N34	N	1.526356	-0.833813	0.598113
N35	N	1.526315	-0.771356	0.598093
C36	C	1.518282	-0.739479	0.506119
C37	C	1.585588	-0.970351	0.573439
C38	C	1.585617	-1.036094	0.573466
C39	C	1.451304	-1.036232	0.438960
C40	C	1.451269	-0.970489	0.438942
C41	C	1.518416	-0.937553	0.506180
C42	C	1.792287	-0.303200	0.506137
C43	C	1.909064	-0.303203	0.506146
C44	C	1.518333	-0.303131	0.780149
C45	C	1.518366	-0.303105	0.896926
C46	C	1.518417	-0.139001	0.506192
C47	C	1.518486	-0.069033	0.506224
C48	C	1.518236	-0.303206	0.233148
C49	C	1.518406	-0.303055	0.116372
C50	C	1.585607	-0.262839	0.951813
C51	C	1.585625	-0.262812	1.061537
C52	C	1.451157	-0.343322	1.061477
C53	C	1.451135	-0.343346	0.951754
H54	H	1.118320	-0.376325	0.627785
H55	H	1.640378	-0.230023	1.106222
C56	C	1.378061	-0.387040	1.120818
C57	C	1.319149	-0.422296	1.049261
C58	C	1.251794	-0.462572	1.103885
H59	H	1.418117	-0.414516	1.163616
H60	H	1.332261	-0.362964	1.163605
H61	H	1.364944	-0.446371	1.006493
H62	H	1.279073	-0.394837	1.006461
H63	H	1.205994	-0.438496	1.146672
H64	H	1.291858	-0.490044	1.146681
H65	H	1.211807	-0.486494	1.055342
H66	H	0.919273	-0.376328	0.627821
H67	H	1.396306	-0.542944	0.384073
C68	C	1.658418	-0.219107	0.892152
C69	C	1.598955	-0.178783	0.829152
C70	C	1.665990	-0.138490	0.774172
H71	H	1.698486	-0.195062	0.940441
H72	H	1.704149	-0.243177	0.849283
H73	H	1.553242	-0.154715	0.872018
H74	H	1.558889	-0.202811	0.780844
H75	H	1.711722	-0.162560	0.731303
H76	H	1.706056	-0.114449	0.822468
H77	H	1.625656	-0.111129	0.731413
H78	H	1.640260	-0.943533	0.628191
H79	H	1.396372	-0.376135	0.907064
H80	H	0.919245	-0.230073	0.384477
C81	C	1.378525	-1.072104	0.366001
C82	C	1.392951	-1.136698	0.380394
C83	C	1.325926	-1.169766	0.313197
H84	H	1.307879	-1.061434	0.381251
H85	H	1.393935	-1.061395	0.295395
H86	H	1.377533	-1.147403	0.450984
H87	H	1.463582	-1.147386	0.365137
H88	H	1.341336	-1.159057	0.242592
H89	H	1.255285	-1.159091	0.328453
H90	H	1.335712	-1.213596	0.322948
H91	H	1.118313	-0.230058	0.384438
C92	C	1.378303	-0.934991	0.365799
C93	C	1.319540	-0.977909	0.306895
C94	C	1.252319	-0.945232	0.239494
H95	H	1.332395	-0.909348	0.405821
H96	H	1.418481	-0.909359	0.319996
H97	H	1.279365	-1.003530	0.352692
H98	H	1.365420	-1.003554	0.266851
H99	H	1.292497	-0.919600	0.193691
H100	H	1.206418	-0.919590	0.279525
H101	H	1.212447	-0.974347	0.199512
H102	H	1.640009	-0.542693	0.628076
H103	H	1.640321	-1.062796	0.628234
H104	H	1.640068	-0.661959	0.628125
C105	C	1.378285	-0.671266	0.365886
C106	C	1.392720	-0.735860	0.380272
C107	C	1.325707	-0.768929	0.313065
H108	H	1.307636	-0.660602	0.381132
H109	H	1.393699	-0.660553	0.295283
H110	H	1.377299	-0.746570	0.450859
H111	H	1.463355	-0.746544	0.365019
H112	H	1.341121	-0.758215	0.242462
H113	H	1.255063	-0.758259	0.328316
H114	H	1.335499	-0.812759	0.322810
