data_functionalizedCrystal
_audit_creation_method	'MofGen! by Chris Wilmer'
_symmetry_space_group_name_H-M	'P1'
_symmetry_Int_Tables_number	1
_symmetry_cell_setting	triclinic
loop_
_symmetry_equiv_pos_as_xyz
  x,y,z
_cell_length_a	10.268362
_cell_length_b	10.654562
_cell_length_c	10.654550
_cell_angle_alpha	84.487503
_cell_angle_beta	89.999831
_cell_angle_gamma	89.992550
loop_
_atom_site_label
_atom_site_type_symbol
_atom_site_fract_x
_atom_site_fract_y
_atom_site_fract_z
O1	O	0.108382	-1.667833	-0.176468
O2	O	0.108366	-1.302356	-0.193258
O3	O	0.108370	-1.493498	-0.002124
O4	O	0.108379	-1.476692	-0.367602
O5	O	-0.108231	-1.493479	-0.002131
O6	O	-0.108235	-1.302338	-0.193264
O7	O	-0.108218	-1.667814	-0.176475
Cu8	Cu	-0.128004	-1.485074	-0.184870
Cu9	Cu	0.128151	-1.485096	-0.184863
O10	O	-0.108222	-1.476673	-0.367608
C11	C	0.000063	-1.255549	-0.192025
C12	C	0.000057	-1.116107	-0.188327
N13	N	-0.308170	-1.485068	-0.184875
C14	C	0.000071	-1.492254	0.044671
C15	C	0.000075	-1.488563	0.184114
C16	C	-0.426012	-1.485077	-0.184876
C17	C	-0.573850	-1.485093	-0.184864
N18	N	0.308317	-1.485112	-0.184848
C19	C	0.000087	-1.714621	-0.177708
C20	C	0.000102	-1.854064	-0.181406
C21	C	-0.118002	-1.050566	-0.186605
C22	C	-0.117980	-0.919544	-0.183140
C23	C	0.118170	-0.919614	-0.183124
C24	C	0.118147	-1.050635	-0.186580
C25	C	-0.236091	-1.116038	-0.188352
C26	C	-0.354160	-1.050497	-0.186632
C27	C	-0.354138	-0.919475	-0.183167
C28	C	-0.236048	-0.853994	-0.181422
C29	C	0.000080	-1.477916	-0.414403
C30	C	0.000084	-1.481608	-0.553847
C31	C	0.000076	-1.601103	0.263595
C32	C	0.000085	-1.597627	0.394615
C33	C	0.000087	-1.369059	0.366662
C34	C	0.000087	-1.372537	0.235644
C35	C	0.000065	-1.717129	0.212064
C36	C	0.000064	-1.829680	0.291546
C37	C	0.000073	-1.826203	0.422567
C38	C	0.000083	-1.710176	0.474106
H39	H	-0.450304	-1.103822	-0.188043
H40	H	-0.236122	-1.222722	-0.191178
O41	O	0.000140	-1.935409	0.499957
C42	C	0.000075	-2.031357	0.714184
C43	C	0.000035	-1.907583	0.626689
H44	H	-0.000038	-2.008903	0.816665
H45	H	0.090741	-2.088423	0.695405
H46	H	-0.090553	-2.088386	0.695243
H47	H	0.090601	-1.850453	0.645579
H48	H	-0.090691	-1.850612	0.645486
H49	H	-0.450275	-0.866116	-0.181757
H50	H	0.000104	-1.707355	0.580794
H51	H	-0.236040	-0.747307	-0.178598
H52	H	0.000092	-1.274595	0.408637
H53	H	0.214313	-0.866289	-0.181706
H54	H	0.214281	-1.103999	-0.187988
H55	H	0.000053	-1.719973	0.105382
O56	O	0.000004	-1.942274	0.241279
C57	C	0.000074	-2.048932	0.051828
C58	C	0.000109	-1.921331	0.108583
H59	H	0.000186	-2.032045	-0.055464
H60	H	-0.090591	-2.104616	0.084393
H61	H	0.090703	-2.104611	0.084551
H62	H	-0.090459	-1.865550	0.075886
H63	H	0.090834	-1.865744	0.076023
H64	H	0.000084	-1.280896	0.170928
