data_functionalizedCrystal
_audit_creation_method	'MofGen! by Chris Wilmer'
_symmetry_space_group_name_H-M	'P1'
_symmetry_Int_Tables_number	1
_symmetry_cell_setting	triclinic
loop_
_symmetry_equiv_pos_as_xyz
  x,y,z
_cell_length_a	14.908571
_cell_length_b	12.759400
_cell_length_c	14.908854
_cell_angle_alpha	86.674357
_cell_angle_beta	89.795614
_cell_angle_gamma	86.710990
loop_
_atom_site_label
_atom_site_type_symbol
_atom_site_fract_x
_atom_site_fract_y
_atom_site_fract_z
Zn1	Zn	1.345355	-0.469301	-0.587610
Zn2	Zn	1.353946	-0.655690	-0.437252
Zn3	Zn	1.203665	-0.470493	-0.428604
Zn4	Zn	1.194977	-0.635402	-0.578907
O5	O	1.274486	-0.557722	-0.508093
O6	O	1.472322	-0.502017	-0.574926
O7	O	1.341242	-0.640113	-0.310278
O8	O	1.222501	-0.323315	-0.449720
O9	O	1.478633	-0.638957	-0.464459
O10	O	1.326600	-0.322439	-0.566541
O11	O	1.230831	-0.504049	-0.303924
O12	O	1.076686	-0.484377	-0.441280
O13	O	1.207693	-0.604379	-0.705889
O14	O	1.070302	-0.605535	-0.551707
O15	O	1.318176	-0.482345	-0.712283
O16	O	1.332818	-0.800019	-0.456020
O17	O	1.216024	-0.785113	-0.560093
C18	C	1.040868	-0.542884	-0.494611
C19	C	0.940925	-0.536561	-0.488865
C20	C	1.274433	-0.830687	-0.508071
C21	C	1.274492	-0.947466	-0.508097
C22	C	0.746530	-0.651060	-0.592900
C23	C	0.652624	-0.645121	-0.587504
C24	C	0.659204	-0.518740	-0.472682
C25	C	0.753110	-0.524679	-0.478078
C26	C	0.796770	-0.590842	-0.538188
C27	C	0.890678	-0.596785	-0.543579
C28	C	0.897256	-0.470400	-0.428762
C29	C	0.803350	-0.464461	-0.423366
C30	C	1.335366	-1.010054	-0.453973
C31	C	1.335420	-1.119779	-0.454004
C32	C	1.213716	-1.104318	-0.562284
C33	C	1.213668	-0.994595	-0.562258
C34	C	1.396190	-0.962924	-0.399813
C35	C	1.457069	-1.025513	-0.345684
C36	C	1.457123	-1.135239	-0.345715
C37	C	1.396298	-1.182375	-0.399875
C38	C	1.509015	-0.572617	-0.521628
C39	C	1.608958	-0.578965	-0.527396
C40	C	1.261007	-0.540966	-0.742624
C41	C	1.255263	-0.533825	-0.842567
C42	C	1.274562	-0.283690	-0.508136
C43	C	1.274594	-0.166915	-0.508155
C44	C	1.359462	-0.662089	-1.036989
C45	C	1.354068	-0.655384	-1.130895
C46	C	1.239087	-0.513705	-1.124285
C47	C	1.244481	-0.520410	-1.030380
C48	C	1.304669	-0.594606	-0.986735
C49	C	1.310058	-0.601316	-0.892828
C50	C	1.195082	-0.459632	-0.886220
C51	C	1.189688	-0.452927	-0.980125
C52	C	1.287964	-0.574340	-0.274478
C53	C	1.293882	-0.581195	-0.174546
H54	H	0.926225	-0.650661	-0.592522
C55	C	1.523968	-0.973667	-0.286111
H56	H	1.515213	-0.899355	-0.293835
H57	H	1.583624	-0.994468	-0.302802
H58	H	1.514326	-0.995183	-0.224932
C59	C	1.172908	-0.432076	-1.172306
H60	H	1.177549	-0.437748	-1.235430
H61	H	1.186982	-0.363428	-1.157678
H62	H	1.113362	-0.444703	-1.153444
C63	C	0.611168	-0.445981	-0.406560
H64	H	0.548046	-0.451079	-0.411179
H65	H	0.625800	-0.375436	-0.420689
H66	H	0.630015	-0.466562	-0.347006
C67	C	1.123484	-0.371318	-1.028135
H68	H	1.091628	-0.332084	-0.984753
H69	H	1.082196	-0.406406	-1.062503
H70	H	1.155791	-0.325101	-1.066756
C71	C	1.396358	-1.303071	-0.399915
H72	H	1.351417	-1.322176	-0.439923
H73	H	1.384205	-1.331106	-0.340991
H74	H	1.453489	-1.330389	-0.418874
C75	C	1.414338	-0.729617	-1.186172
H76	H	1.450950	-0.774767	-1.146726
H77	H	1.451419	-0.689298	-1.225072
H78	H	1.377823	-0.770601	-1.220810
H79	H	1.396151	-0.873581	-0.399779
H80	H	1.150465	-0.404683	-0.845293
C81	C	1.524086	-1.204083	-0.286179
H82	H	1.560296	-1.160296	-0.253916
H83	H	1.561281	-1.246857	-0.322871
H84	H	1.491985	-1.247558	-0.244999
C85	C	1.376262	-0.682926	-0.844819
H86	H	1.408127	-0.722148	-0.888202
H87	H	1.343962	-0.729138	-0.806195
H88	H	1.417556	-0.647831	-0.810455
C89	C	0.952521	-0.404154	-0.368580
H90	H	1.014702	-0.417160	-0.380404
H91	H	0.940587	-0.422765	-0.307258
H92	H	0.936379	-0.331662	-0.380963
C93	C	1.146809	-1.156162	-0.621851
H94	H	1.110552	-1.103171	-0.654088
H95	H	1.109657	-1.198996	-0.585176
H96	H	1.178947	-1.198291	-0.663053
C97	C	0.794559	-0.723837	-0.659013
H98	H	0.751188	-0.758849	-0.690827
H99	H	0.833162	-0.774327	-0.626654
H100	H	0.828947	-0.683225	-0.700359
H101	H	1.164099	-0.943635	-0.606331
C102	C	1.425656	-0.743706	-0.988977
H103	H	1.457518	-0.782937	-1.032357
H104	H	1.393348	-0.789910	-0.950352
H105	H	1.466954	-0.708619	-0.954612
H106	H	0.611722	-0.694155	-0.632058
H107	H	0.767789	-0.410590	-0.374429
