data_functionalizedCrystal
_audit_creation_method	'MofGen! by Chris Wilmer'
_symmetry_space_group_name_H-M	'P1'
_symmetry_Int_Tables_number	1
_symmetry_cell_setting	triclinic
loop_
_symmetry_equiv_pos_as_xyz
  x,y,z
_cell_length_a	12.594516
_cell_length_b	12.594517
_cell_length_c	13.897441
_cell_angle_alpha	90.026693
_cell_angle_beta	89.973623
_cell_angle_gamma	89.989009
loop_
_atom_site_label
_atom_site_type_symbol
_atom_site_fract_x
_atom_site_fract_y
_atom_site_fract_z
Zn1	Zn	-0.423852	-1.627276	-0.545563
Zn2	Zn	0.076148	-1.127276	-0.045563
Zn3	Zn	-0.601863	-1.627164	-0.384276
Zn4	Zn	-0.101863	-1.127164	0.115724
Zn5	Zn	-0.423883	-1.449277	-0.384264
Zn6	Zn	0.076117	-0.949277	0.115736
Zn7	Zn	-0.601773	-1.449262	-0.545512
Zn8	Zn	-0.101773	-0.949262	-0.045512
O9	O	-0.512843	-1.538245	-0.464904
O10	O	-0.012843	-1.038245	0.035096
O11	O	-0.447490	-1.776207	-0.524194
O12	O	0.052510	-1.276207	-0.024194
O13	O	-0.578304	-1.603527	-0.249293
O14	O	-0.078304	-1.103527	0.250707
O15	O	-0.274933	-1.472942	-0.405677
O16	O	0.225067	-0.972942	0.094323
O17	O	-0.578274	-1.776125	-0.405697
O18	O	-0.078274	-1.276125	0.094303
O19	O	-0.274910	-1.603717	-0.524183
O20	O	0.225090	-1.103717	-0.024183
O21	O	-0.447543	-1.472834	-0.249284
O22	O	0.052457	-0.972834	0.250716
O23	O	-0.447456	-1.300330	-0.405628
O24	O	0.052544	-0.800330	0.094372
O25	O	-0.578121	-1.472917	-0.680500
O26	O	-0.078121	-0.972917	-0.180500
O27	O	-0.578151	-1.300319	-0.524096
O28	O	-0.078151	-0.800319	-0.024096
O29	O	-0.447403	-1.603703	-0.680538
O30	O	0.052597	-1.103703	-0.180538
O31	O	-0.750797	-1.603512	-0.405648
O32	O	-0.250797	-1.103512	0.094352
O33	O	-0.750731	-1.472808	-0.524107
O34	O	-0.250731	-0.972808	-0.024107
C35	C	-0.512798	-1.261704	-0.464856
C36	C	-0.012798	-0.761704	0.035144
C37	C	-0.512804	-1.143399	-0.464858
C38	C	-0.012804	-0.643399	0.035142
C39	C	-0.441616	-1.074121	-0.400541
C40	C	0.058384	-0.574121	0.099459
C41	C	-0.538699	-1.003309	-0.376814
C42	C	-0.038699	-0.503309	0.123186
C43	C	-0.415751	-1.003411	-0.488587
C44	C	0.084249	-0.503411	0.011413
C45	C	-0.609938	-1.074145	-0.441085
C46	C	-0.109938	-0.574145	0.058915
C47	C	-0.486925	-1.074253	-0.552899
C48	C	0.013075	-0.574253	-0.052899
C49	C	-0.584075	-1.003474	-0.529205
C50	C	-0.084075	-0.503474	-0.029205
C51	C	-0.789384	-1.538175	-0.464894
C52	C	-0.289384	-1.038175	0.035106
C53	C	-0.907689	-1.538243	-0.464923
C54	C	-0.407689	-1.038243	0.035077
C55	C	-0.976945	-1.467146	-0.529307
C56	C	-0.476945	-0.967146	-0.029307
C57	C	-1.047808	-1.441211	-0.441288
C58	C	-0.547808	-0.941211	0.058712
C59	C	-1.047625	-1.564275	-0.552957
C60	C	-0.547625	-1.064275	-0.052957
C61	C	-0.976994	-1.512257	-0.376857
C62	C	-0.476994	-1.012257	0.123143
C63	C	-0.976804	-1.635365	-0.488585
C64	C	-0.476804	-1.135365	0.011415
C65	C	-1.047636	-1.609467	-0.400505
C66	C	-0.547636	-1.109467	0.099495
C67	C	-0.235222	-1.538344	-0.464934
C68	C	0.264778	-1.038344	0.035066
C69	C	-0.116916	-1.538386	-0.464947
C70	C	0.383084	-1.038386	0.035053
C71	C	-0.512749	-1.538321	-0.716497
C72	C	-0.012749	-1.038321	-0.216497
C73	C	-0.512708	-1.538353	-0.823711
C74	C	-0.012708	-1.038353	-0.323711
C75	C	-0.512867	-0.815866	-0.464935
C76	C	-0.012867	-0.315866	0.035065
C77	C	-0.512823	-0.934171	-0.464902
C78	C	-0.012823	-0.434171	0.035098
C79	C	-0.512636	-1.538382	-1.020006
C80	C	-0.012636	-1.038382	-0.520006
C81	C	-0.512679	-1.538362	-0.910774
C82	C	-0.012679	-1.038362	-0.410774
C83	C	-0.512859	-1.538231	-0.214289
C84	C	-0.012859	-1.038231	0.285711
C85	C	-0.512600	-1.538405	-0.107076
C86	C	-0.012600	-1.038405	0.392924
H87	H	-0.333678	-0.972284	-0.508605
H88	H	0.166322	-0.472284	-0.008605
H89	H	-1.078479	-1.669653	-0.346005
H90	H	-0.578479	-1.169653	0.153995
Cl91	Cl	-0.928614	-1.762044	-0.519519
Cl92	Cl	-0.428614	-1.262044	-0.019519
H93	H	-0.464991	-1.105439	-0.627312
H94	H	0.035009	-0.605439	-0.127312
Cl95	Cl	-0.929298	-1.478207	-0.261894
Cl96	Cl	-0.429298	-0.978207	0.238106
H97	H	-1.079020	-1.359143	-0.421294
H98	H	-0.579020	-0.859143	0.078706
H99	H	-0.692047	-1.105087	-0.420951
H100	H	-0.192047	-0.605087	0.079049
Cl101	Cl	-0.677136	-0.955877	-0.613210
Cl102	Cl	-0.177136	-0.455877	-0.113210
Cl103	Cl	-0.929017	-1.374159	-0.613250
Cl104	Cl	-0.429017	-0.874159	-0.113250
Cl105	Cl	-1.095530	-1.598179	-0.667884
Cl106	Cl	-0.595530	-1.098179	-0.167884
Cl107	Cl	-0.348772	-1.122019	-0.316478
Cl108	Cl	0.151228	-0.622019	0.183522
Cl109	Cl	-0.572519	-0.955196	-0.261894
Cl110	Cl	-0.072519	-0.455196	0.238106
