data_functionalizedCrystal
_audit_creation_method	'MofGen! by Chris Wilmer'
_symmetry_space_group_name_H-M	'P1'
_symmetry_Int_Tables_number	1
_symmetry_cell_setting	triclinic
loop_
_symmetry_equiv_pos_as_xyz
  x,y,z
_cell_length_a	12.784905
_cell_length_b	12.837942
_cell_length_c	7.088929
_cell_angle_alpha	96.883014
_cell_angle_beta	84.455072
_cell_angle_gamma	83.968130
loop_
_atom_site_label
_atom_site_type_symbol
_atom_site_fract_x
_atom_site_fract_y
_atom_site_fract_z
O1	O	1.401223	0.017971	0.158999
O2	O	1.096224	0.061964	0.159001
O3	O	1.241961	-0.110327	0.158988
O4	O	1.255486	0.190261	0.159012
O5	O	1.261433	-0.133399	-0.158989
O6	O	1.115695	0.038891	-0.158976
O7	O	1.420695	-0.005101	-0.158977
Cu8	Cu	1.269973	0.014788	-0.188011
Cu9	Cu	1.246946	0.042074	0.188034
O10	O	1.274957	0.167189	-0.158965
C11	C	1.066650	0.053288	0.000012
C12	C	0.949518	0.061802	0.000012
C13	C	0.735566	-0.111640	0.000033
C14	C	0.625511	-0.103646	0.000033
C15	C	0.619350	0.085783	0.000027
C16	C	0.729405	0.077789	0.000027
C17	C	0.787510	-0.020926	0.000027
C18	C	0.897568	-0.028920	0.000013
C19	C	0.891404	0.160509	0.000020
C20	C	0.781348	0.168503	0.000021
C21	C	1.247128	-0.160072	0.000001
C22	C	1.233499	-0.273920	0.000004
C23	C	1.397329	-0.529643	0.000043
C24	C	1.384529	-0.636615	0.000047
C25	C	1.195100	-0.594837	0.000027
C26	C	1.207900	-0.487865	0.000024
C27	C	1.309018	-0.455273	0.000029
C28	C	1.321817	-0.348300	0.000012
C29	C	1.132389	-0.306523	0.000007
C30	C	1.119589	-0.413495	0.000010
C31	C	1.450268	0.003574	0.000015
C32	C	1.567399	-0.004938	0.000027
C33	C	1.269791	0.216934	0.000026
C34	C	1.283418	0.330783	0.000036
N35	N	1.286177	-0.004405	-0.452500
N36	N	1.230749	0.061258	0.452523
H37	H	0.944875	-0.109299	0.000010
Br38	Br	1.381946	-0.117815	-0.588593
Br39	Br	1.504384	-0.737544	0.000079
Br40	Br	1.012532	-0.205587	-0.000046
H41	H	1.112773	-0.621392	0.000044
Br42	Br	1.135003	0.174678	-0.411390
H43	H	0.782877	-0.192018	0.000020
H44	H	0.583223	-0.177514	0.000042
H45	H	1.037261	-0.440046	0.000013
H46	H	0.572020	0.166154	0.000052
H47	H	0.933708	0.234375	0.000005
Br48	Br	0.702482	0.302468	0.000039
Br49	Br	1.459047	-0.304069	-0.000001
H50	H	1.479664	-0.503108	0.000029
