data_functionalizedCrystal
_audit_creation_method	'MofGen! by Chris Wilmer'
_symmetry_space_group_name_H-M	'P1'
_symmetry_Int_Tables_number	1
_symmetry_cell_setting	triclinic
loop_
_symmetry_equiv_pos_as_xyz
  x,y,z
_cell_length_a	13.032831
_cell_length_b	25.639240
_cell_length_c	13.032268
_cell_angle_alpha	82.864661
_cell_angle_beta	89.113023
_cell_angle_gamma	82.835975
loop_
_atom_site_label
_atom_site_type_symbol
_atom_site_fract_x
_atom_site_fract_y
_atom_site_fract_z
Zn1	Zn	1.498317	-0.353075	0.780663
Zn2	Zn	1.520023	-0.430970	0.608645
Zn3	Zn	1.348185	-0.331235	0.586915
Zn4	Zn	1.326273	-0.428143	0.758772
O5	O	1.423200	-0.385856	0.683749
O6	O	1.645112	-0.373732	0.776101
O7	O	1.515483	-0.409783	0.461850
O8	O	1.368187	-0.260977	0.612683
O9	O	1.661060	-0.430960	0.649720
O10	O	1.478488	-0.277023	0.755029
O11	O	1.389235	-0.336508	0.445884
O12	O	1.201363	-0.333767	0.591456
O13	O	1.330840	-0.426143	0.905589
O14	O	1.185264	-0.404965	0.717719
O15	O	1.457240	-0.370991	0.921672
O16	O	1.494236	-0.503750	0.628493
O17	O	1.351888	-0.501674	0.738790
C18	C	1.155997	-0.366690	0.649854
C19	C	1.041684	-0.358504	0.635379
C20	C	0.982793	-0.390128	0.691304
C21	C	0.864644	-0.381669	0.676344
C22	C	1.423064	-0.521684	0.683650
C23	C	1.423096	-0.579800	0.683654
C24	C	1.480651	-0.948501	0.757991
C25	C	1.480679	-1.003109	0.758016
O26	O	1.529451	-1.038418	0.821116
N27	N	1.423330	-1.022111	0.683866
C28	C	1.365941	-0.986502	0.609693
O29	O	1.317163	-1.007678	0.546626
C30	C	1.365908	-0.931895	0.609674
C31	C	1.423269	-0.912896	0.683822
C32	C	1.538006	-0.929502	0.832134
C33	C	1.537980	-0.874898	0.832108
C34	C	1.480598	-0.839293	0.757939
C35	C	1.423243	-0.858293	0.683796
C36	C	1.308514	-0.896287	0.535507
C37	C	1.308486	-0.841677	0.535494
C38	C	1.365847	-0.822679	0.609642
C39	C	1.365835	-0.768084	0.609601
N40	N	1.423184	-0.749082	0.683750
C41	C	1.480565	-0.784687	0.757919
C42	C	1.366013	-1.101180	0.609741
C43	C	1.366051	-1.155785	0.609755
C44	C	1.480787	-1.172389	0.758079
C45	C	1.480754	-1.117782	0.758059
C46	C	1.423362	-1.082178	0.683890
C47	C	1.480506	-0.670014	0.757858
C48	C	1.480478	-0.615405	0.757823
C49	C	1.365738	-0.598806	0.609503
C50	C	1.365770	-0.653411	0.609534
C51	C	1.423156	-0.689014	0.683721
O52	O	1.317084	-0.732744	0.546536
O53	O	1.529324	-0.763502	0.820984
C54	C	1.691445	-0.405097	0.717776
C55	C	1.805755	-0.413297	0.732276
C56	C	1.389174	-0.400687	0.951989
C57	C	1.374675	-0.407008	1.066297
C58	C	1.423360	-0.249501	0.683874
C59	C	1.423429	-0.191395	0.683928
C60	C	1.457151	-0.371049	0.416560
C61	C	1.471850	-0.364595	0.302278
C62	C	1.430751	-0.382537	1.125216
C63	C	1.415766	-0.389069	1.243360
H64	H	1.527192	-0.599939	0.818203
Br65	Br	0.867487	-0.468857	0.830568
Br66	Br	1.317242	-0.432045	1.305047
H67	H	1.530951	-0.338805	1.265262
Br68	Br	1.044536	-0.445696	0.789567
Br69	Br	1.529232	-0.339540	1.063519
Br70	Br	1.558664	-1.220720	0.858737
H71	H	1.315566	-0.432789	1.103317
H72	H	0.827597	-0.348328	0.617389
H73	H	1.004633	-0.325166	0.576428
H74	H	1.527228	-0.698997	0.818274
Br75	Br	1.615823	-0.849123	0.932749
H76	H	1.319281	-1.072192	0.549335
Br77	Br	1.615886	-0.977814	0.932811
Br78	Br	1.558604	-1.092005	0.858692
Br79	Br	1.230659	-0.922056	0.434872
Br80	Br	1.288220	-1.181562	0.509106
Br81	Br	1.230589	-0.793359	0.434832
H82	H	1.319071	-0.668880	0.549150
Br83	Br	1.287868	-0.550475	0.508848
