data_functionalizedCrystal
_audit_creation_method	'MofGen! by Chris Wilmer'
_symmetry_space_group_name_H-M	'P1'
_symmetry_Int_Tables_number	1
_symmetry_cell_setting	triclinic
loop_
_symmetry_equiv_pos_as_xyz
  x,y,z
_cell_length_a	6.817900
_cell_length_b	15.301126
_cell_length_c	16.305550
_cell_angle_alpha	95.166946
_cell_angle_beta	103.455250
_cell_angle_gamma	104.177575
loop_
_atom_site_label
_atom_site_type_symbol
_atom_site_fract_x
_atom_site_fract_y
_atom_site_fract_z
V1	V	-4.029811	-0.125521	-0.263289
O2	O	-4.013692	0.005249	-0.258014
O3	O	-3.984745	-0.248133	-0.261742
O4	O	-3.981172	-0.123933	-0.378003
O5	O	-4.017289	-0.119811	-0.140948
V6	V	-4.513038	-0.109838	-0.248625
O7	O	-4.291719	-0.159920	-0.295456
O8	O	-4.701327	-0.075438	-0.216459
O9	O	-4.334898	0.012774	-0.250172
O10	O	-4.646554	-0.240608	-0.253901
O11	O	-4.642956	-0.115548	-0.370967
O12	O	-4.338470	-0.111426	-0.133912
C13	C	-3.830564	-0.278012	-0.257654
C14	C	-3.875002	-0.378252	-0.257154
C15	C	-4.078108	-0.429950	-0.261137
C16	C	-4.119853	-0.524136	-0.260672
C17	C	-3.958486	-0.566622	-0.256218
C18	C	-3.755365	-0.514917	-0.252238
C19	C	-3.713626	-0.420734	-0.252709
C20	C	-3.842374	-0.711225	-0.251254
C21	C	-3.884115	-0.805415	-0.250781
C22	C	-4.248601	-0.814627	-0.259217
C23	C	-4.206862	-0.720444	-0.259688
C24	C	-4.003742	-0.668746	-0.255706
C25	C	-3.826006	-0.119582	-0.405955
C26	C	-3.867544	-0.119096	-0.499736
C27	C	-4.018577	-0.117211	-0.840478
C28	C	-3.782370	-0.111616	-0.799538
C29	C	-3.739201	-0.112495	-0.702045
C30	C	-3.943646	-0.118146	-0.671432
C31	C	-4.113209	-0.207200	-0.722241
C32	C	-4.155058	-0.206697	-0.819790
C33	C	-4.070982	-0.034464	-0.794464
C34	C	-4.023032	-0.033759	-0.696620
C35	C	-3.901311	-0.118677	-0.575895
C36	C	-4.060921	-0.116686	-0.936016
C37	C	-4.152420	0.042649	-0.254258
C38	C	-4.087220	0.142887	-0.254764
C39	C	-4.156979	-0.115779	-0.105955
C40	C	-4.094679	-0.116261	-0.012173
H41	H	-4.413984	-0.856722	-0.262446
O42	O	-4.380910	-0.674618	-0.264515
H43	H	-4.529173	-0.726390	-0.267222
O44	O	-4.218066	-0.032283	-0.668322
H45	H	-4.348358	-0.035455	-0.724901
O46	O	-3.639346	-0.026401	-0.815739
H47	H	-3.473689	-0.024008	-0.786253
H48	H	-4.285239	-0.566224	-0.263916
H49	H	-3.900115	0.032111	-0.662107
O50	O	-3.581319	-0.560740	-0.247446
H51	H	-3.561324	-0.593629	-0.189241
H52	H	-3.548241	-0.378643	-0.249470
O53	O	-4.042135	-0.290202	-0.700155
H54	H	-4.157226	-0.333997	-0.672396
H55	H	-4.266574	-0.214556	-0.703344
O56	O	-3.569205	-0.027692	-0.655468
H57	H	-3.517153	0.014316	-0.702536
H58	H	-4.329116	-0.214507	-0.847798
O59	O	-3.947369	0.054922	-0.811976
H60	H	-3.847190	0.041363	-0.853675
H61	H	-4.243141	-0.037771	-0.821287
H62	H	-3.738968	-0.171067	-0.831172
O63	O	-3.710086	-0.851247	-0.245990
H64	H	-3.561839	-0.799480	-0.243315
H65	H	-3.676979	-0.669137	-0.248018
O66	O	-3.653480	-0.192153	-0.680613
H67	H	-3.642755	-0.230202	-0.739926
H68	H	-4.209513	-0.395363	-0.264755
O69	O	-4.109486	-0.289656	-0.860212
H70	H	-4.057819	-0.329754	-0.810039
