data_functionalizedCrystal
_audit_creation_method	'MofGen! by Chris Wilmer'
_symmetry_space_group_name_H-M	'P1'
_symmetry_Int_Tables_number	1
_symmetry_cell_setting	triclinic
loop_
_symmetry_equiv_pos_as_xyz
  x,y,z
_cell_length_a	15.625110
_cell_length_b	16.109301
_cell_length_c	14.586319
_cell_angle_alpha	90.005214
_cell_angle_beta	71.919928
_cell_angle_gamma	83.870633
loop_
_atom_site_label
_atom_site_type_symbol
_atom_site_fract_x
_atom_site_fract_y
_atom_site_fract_z
O1	O	-1.196179	-0.108566	0.321498
O2	O	-0.696179	0.391434	0.821498
O3	O	-0.933699	-0.121493	0.234219
O4	O	-0.433699	0.378507	0.734219
O5	O	-1.072150	0.005991	0.280266
O6	O	-0.572150	0.505991	0.780266
O7	O	-1.057729	-0.236050	0.275452
O8	O	-0.557729	0.263950	0.775452
O9	O	-1.072140	0.005993	0.432743
O10	O	-0.572140	0.505993	0.932743
O11	O	-0.933690	-0.121491	0.386696
O12	O	-0.433690	0.378509	0.886696
O13	O	-1.196170	-0.108565	0.473976
O14	O	-0.696170	0.391435	0.973976
Cu15	Cu	-1.064929	-0.115027	0.444259
Cu16	Cu	-0.564929	0.384973	0.944259
Cu17	Cu	-1.064940	-0.115030	0.263936
Cu18	Cu	-0.564940	0.384970	0.763936
O19	O	-1.057719	-0.236048	0.427929
O20	O	-0.557719	0.263952	0.927929
C21	C	-0.900107	-0.120905	0.299289
C22	C	-0.400107	0.379095	0.799289
C23	C	-0.800027	-0.119148	0.266011
C24	C	-0.300027	0.380852	0.766011
C25	C	-1.071561	0.036968	0.356311
C26	C	-0.571561	0.536968	0.856311
C27	C	-1.069810	0.129266	0.355730
C28	C	-0.569810	0.629266	0.855730
C29	C	-1.229762	-0.109152	0.408903
C30	C	-0.729762	0.390848	0.908903
C31	C	-1.329842	-0.110909	0.442176
C32	C	-0.829842	0.389091	0.942176
C33	C	-0.658972	-0.116673	0.135997
C34	C	-0.158972	0.383327	0.635997
C35	C	-0.753013	-0.118324	0.167277
C36	C	-0.253013	0.381676	0.667277
C37	C	-0.753010	-0.118326	0.333505
C38	C	-0.253010	0.381674	0.833505
C39	C	-0.658967	-0.116679	0.302239
C40	C	-0.158967	0.383321	0.802239
C41	C	-0.611955	-0.115851	0.203484
C42	C	-0.111955	0.384149	0.703484
C43	C	-0.611950	-0.115857	0.369725
C44	C	-0.111950	0.384143	0.869725
C45	C	-0.517916	-0.114206	0.338462
C46	C	-0.017916	0.385794	0.838462
C47	C	-0.470898	-0.113376	0.239711
C48	C	0.029102	0.386624	0.739711
C49	C	-0.517921	-0.114200	0.172220
C50	C	-0.017921	0.385800	0.672220
C51	C	-0.658965	-0.116678	0.468480
C52	C	-0.158965	0.383322	0.968480
C53	C	-0.611948	-0.115857	0.535966
C54	C	-0.111948	0.384143	1.035966
C55	C	-0.517911	-0.114212	0.504703
C56	C	-0.017911	0.385788	1.004703
C57	C	-0.470893	-0.113382	0.405953
C58	C	0.029107	0.386618	0.905953
C59	C	-0.470888	-0.113388	0.572194
C60	C	0.029112	0.386612	1.072194
C61	C	-0.376854	-0.111736	0.540930
C62	C	0.123146	0.388264	1.040930
C63	C	-0.376859	-0.111731	0.374689
C64	C	0.123141	0.388269	0.874689
N65	N	-1.064927	-0.115025	0.571090
N66	N	-0.564927	0.384975	1.071090
C67	C	-1.058308	-0.267025	0.351882
C68	C	-0.558308	0.232975	0.851882
C69	C	-1.060059	-0.359323	0.352457
C70	C	-0.560059	0.140677	0.852457
C71	C	-1.147891	0.351427	0.381678
C72	C	-0.647891	0.851427	0.881678
C73	C	-1.146238	0.438150	0.381121
C74	C	-0.646238	0.938150	0.881121
C75	C	-0.981972	0.418509	0.326503
C76	C	-0.481972	0.918509	0.826503
C77	C	-0.983625	0.331788	0.327054
C78	C	-0.483625	0.831788	0.827054
C79	C	-1.066588	0.298249	0.354647
C80	C	-0.566588	0.798249	0.854647
C81	C	-1.063281	0.471693	0.353539
C82	C	-0.563281	0.971693	0.853539
C83	C	-1.061489	0.565722	0.352935
C84	C	-0.561489	1.065722	0.852935
C85	C	-1.068381	0.204215	0.355250
C86	C	-0.568381	0.704215	0.855250
N87	N	-1.064949	-0.115025	0.137107
N88	N	-0.564949	0.384975	0.637107
C89	C	-1.126254	-0.058595	0.826492
C90	C	-0.626254	0.441405	1.326492
C91	C	-1.126256	-0.058593	0.922475
C92	C	-0.626256	0.441407	1.422475
C93	C	-1.003616	-0.171459	0.881696
C94	C	-0.503616	0.328541	1.381696
C95	C	-1.003610	-0.171456	0.785714
C96	C	-0.503610	0.328544	1.285714
C97	C	-1.064934	-0.115025	0.758117
C98	C	-0.564934	0.384975	1.258117
C99	C	-1.064943	-0.115026	0.950080
C100	C	-0.564943	0.384974	1.450080
C101	C	-1.064945	-0.115024	1.054148
C102	C	-0.564945	0.384976	1.554148
C103	C	-1.064930	-0.115025	0.654042
C104	C	-0.564930	0.384975	1.154042
H105	H	-0.338578	-0.111067	0.294273
H106	H	0.161422	0.388933	0.794273
F107	F	-1.236187	0.315736	0.411044
F108	F	-0.736187	0.815736	0.911044
F109	F	-0.759047	-0.118428	0.501752
F110	F	-0.259047	0.381572	1.001752
H111	H	-1.176186	-0.012644	0.804026
H112	H	-0.676186	0.487356	1.304026
H113	H	-0.394329	-0.112033	0.214258
H114	H	0.105671	0.387967	0.714258
H115	H	-1.176187	-0.012641	0.978145
H116	H	-0.676187	0.487359	1.478145
F117	F	-1.232773	0.494742	0.409890
F118	F	-0.732773	0.994742	0.909890
F119	F	-0.467881	-0.113332	0.067113
F120	F	0.032119	0.386668	0.567113
F121	F	-0.938356	-0.231516	0.911075
F122	F	-0.438356	0.268484	1.411075
H123	H	-0.914427	0.445827	0.304040
H124	H	-0.414427	0.945827	0.804040
F125	F	-0.938338	-0.231517	0.712936
F126	F	-0.438338	0.268483	1.212936
H127	H	-0.917414	0.288488	0.305038
H128	H	-0.417414	0.788488	0.805038
H129	H	-0.620691	-0.116009	0.055581
H130	H	-0.120691	0.383991	0.555581
H131	H	-0.791289	-0.118998	0.112313
H132	H	-0.291289	0.381002	0.612313
H133	H	-0.650238	-0.116527	0.616373
H134	H	-0.150238	0.383473	1.116373
F135	F	-0.803053	-0.119206	0.438603
F136	F	-0.303053	0.380794	0.938603
F137	F	-0.326814	-0.110852	0.612757
F138	F	0.173186	0.389148	1.112757
F139	F	-0.520935	-0.114260	0.677293
F140	F	-0.020935	0.385740	1.177293
