data_functionalizedCrystal
_audit_creation_method	'MofGen! by Chris Wilmer'
_symmetry_space_group_name_H-M	'P1'
_symmetry_Int_Tables_number	1
_symmetry_cell_setting	triclinic
loop_
_symmetry_equiv_pos_as_xyz
  x,y,z
_cell_length_a	19.805407
_cell_length_b	10.686285
_cell_length_c	19.805399
_cell_angle_alpha	94.389466
_cell_angle_beta	90.017803
_cell_angle_gamma	85.628966
loop_
_atom_site_label
_atom_site_type_symbol
_atom_site_fract_x
_atom_site_fract_y
_atom_site_fract_z
Zn1	Zn	1.055504	-0.502467	0.362074
Zn2	Zn	1.064140	-0.713478	0.240229
Zn3	Zn	0.942319	-0.502491	0.248901
Zn4	Zn	0.951000	-0.713401	0.353382
O5	O	1.003241	-0.607959	0.301147
O6	O	1.151367	-0.530479	0.345919
O7	O	1.047962	-0.685533	0.146661
O8	O	0.950086	-0.325913	0.271180
O9	O	1.157712	-0.685509	0.256400
O10	O	1.033242	-0.325894	0.354328
O11	O	0.958461	-0.530522	0.153032
O12	O	0.848753	-0.530447	0.262753
O13	O	0.964881	-0.685378	0.449254
O14	O	0.855131	-0.685402	0.339515
O15	O	1.041660	-0.530405	0.455639
O16	O	1.056379	-0.890043	0.247972
O17	O	0.973256	-0.889987	0.331106
C18	C	0.827383	-0.607920	0.301132
C19	C	0.752152	-0.607933	0.301140
C20	C	0.713510	-0.527352	0.347813
C21	C	0.642822	-0.527359	0.347815
C22	C	0.610777	-0.607954	0.301148
C23	C	0.649424	-0.688538	0.254470
C24	C	0.720110	-0.688524	0.254465
C25	C	0.364353	-0.688595	0.254489
C26	C	0.293661	-0.688605	0.254498
C27	C	0.287065	-0.527430	0.347839
C28	C	0.357751	-0.527416	0.347834
C29	C	0.396391	-0.607995	0.301154
C30	C	0.473039	-0.607985	0.301151
C31	C	0.534131	-0.607971	0.301153
C32	C	1.016715	-0.935799	0.287670
C33	C	1.022541	-1.076050	0.281927
C34	C	1.179785	-0.608000	0.301162
C35	C	1.255018	-0.608017	0.301168
C36	C	1.003276	-0.607880	0.477693
C37	C	1.003290	-0.607846	0.552926
C38	C	0.989732	-0.278839	0.314691
C39	C	0.983976	-0.138588	0.320463
C40	C	1.003242	-0.607947	0.125291
C41	C	1.003343	-0.607626	0.050073
C42	C	1.043270	-0.527148	0.591597
C43	C	1.043275	-0.527111	0.662287
C44	C	1.003304	-0.607780	0.694304
C45	C	0.963321	-0.688482	0.655629
C46	C	0.963312	-0.688511	0.584941
C47	C	0.963354	-0.688364	0.940707
C48	C	0.963367	-0.688331	1.011401
C49	C	1.043317	-0.526964	1.018053
C50	C	1.043308	-0.526993	0.947365
C51	C	1.003322	-0.607690	0.908696
C52	C	1.003316	-0.607727	0.832046
C53	C	1.003314	-0.607750	0.770953
H54	H	0.611363	-0.461744	0.385822
C55	C	0.960936	-0.858038	1.083902
C56	C	0.919427	-0.777011	1.046594
H57	H	0.933811	-0.912788	1.105625
H58	H	0.984744	-0.809975	1.117047
H59	H	0.992398	-0.906319	1.054334
H60	H	0.887968	-0.728723	1.076164
H61	H	0.895608	-0.825079	1.013446
C62	C	0.867675	-1.097900	0.354980
C63	C	0.933389	-1.066030	0.370941
H64	H	0.836445	-1.053093	0.386142
H65	H	0.865087	-1.185783	0.357613
H66	H	0.856922	-1.076417	0.310363
H67	H	0.944144	-1.087521	0.415556
H68	H	0.935979	-0.978128	0.368315
C69	C	0.256531	-0.313842	0.389791
C70	C	0.244591	-0.438842	0.399148
H71	H	0.230314	-0.259159	0.421471
H72	H	0.244159	-0.295268	0.345102
H73	H	0.303218	-0.302323	0.396466
H74	H	0.197905	-0.450364	0.392468
H75	H	0.256958	-0.457423	0.443848
C76	C	0.630129	-0.749725	0.137290
C77	C	0.614202	-0.777131	0.203172
H78	H	0.608382	-0.804419	0.105622
H79	H	0.677752	-0.761251	0.130611
H80	H	0.615044	-0.664921	0.130954
H81	H	0.629292	-0.861933	0.209509
H82	H	0.566569	-0.765616	0.209853
C83	C	1.067487	-0.313447	0.692830
C84	C	1.087225	-0.438401	0.704786
H85	H	1.094625	-0.258679	0.719063
H86	H	1.021261	-0.294967	0.705173
H87	H	1.073202	-0.301951	0.646145
H88	H	1.081506	-0.449900	0.751471
H89	H	1.133463	-0.456887	0.692447
H90	H	1.060013	-1.129812	0.244533
H91	H	0.930805	-0.754091	0.909230
C92	C	0.927836	-0.760096	0.761034
C93	C	0.919384	-0.777156	0.690822
H94	H	0.900714	-0.814850	0.782757
H95	H	0.914451	-0.675319	0.776103
H96	H	0.974075	-0.778573	0.771857
H97	H	0.873145	-0.758670	0.679997
H98	H	0.932764	-0.861953	0.675746
C99	C	0.377040	-0.466216	0.465014
C100	C	0.392972	-0.438820	0.399132
H101	H	0.398780	-0.411510	0.496681
H102	H	0.392123	-0.551006	0.471356
H103	H	0.329410	-0.454689	0.471688
H104	H	0.440602	-0.450356	0.392456
H105	H	0.377893	-0.354009	0.392787
C106	C	1.045695	-0.357453	0.519090
C107	C	1.087205	-0.438468	0.556406
H108	H	1.072820	-0.302708	0.497364
H109	H	1.014232	-0.309178	0.548650
H110	H	1.021890	-0.405534	0.485942
H111	H	1.111006	-0.390388	0.589558
H112	H	1.118680	-0.486748	0.526844
H113	H	0.930749	-0.754211	0.553456
C114	C	1.155413	-0.465518	1.042368
C115	C	1.087266	-0.438249	1.060562
H116	H	1.182544	-0.410756	1.068614
H117	H	1.161124	-0.453990	0.995693
H118	H	1.168789	-0.550298	1.050471
H119	H	1.073888	-0.353470	1.052455
H120	H	1.081551	-0.449766	1.107249
H121	H	0.739596	-0.461726	0.385817
C122	C	0.307277	-0.847912	0.162216
C123	C	0.258435	-0.777193	0.203193
H124	H	0.285528	-0.902593	0.130543
H125	H	0.336849	-0.896251	0.189669
H126	H	0.332572	-0.792849	0.138638
H127	H	0.233144	-0.832256	0.226775
H128	H	0.228852	-0.728850	0.175737
H129	H	0.395805	-0.754209	0.216480
C130	C	1.045718	-0.357288	0.874867
C131	C	1.087237	-0.438300	0.912176
H132	H	1.072836	-0.302529	0.853143
H133	H	1.014253	-0.309027	0.904430
H134	H	1.021916	-0.405371	0.841717
H135	H	1.111035	-0.390217	0.945330
H136	H	1.118714	-0.486565	0.882611
C137	C	0.750660	-0.902108	0.212531
C138	C	0.762591	-0.777107	0.203166
H139	H	0.776889	-0.956792	0.180861
H140	H	0.703982	-0.913645	0.205852
H141	H	0.763029	-0.920666	0.257230
H142	H	0.750217	-0.758546	0.158468
H143	H	0.809279	-0.765564	0.209840
