data_functionalizedCrystal
_audit_creation_method	'MofGen! by Chris Wilmer'
_symmetry_space_group_name_H-M	'P1'
_symmetry_Int_Tables_number	1
_symmetry_cell_setting	triclinic
loop_
_symmetry_equiv_pos_as_xyz
  x,y,z
_cell_length_a	6.817900
_cell_length_b	17.982783
_cell_length_c	10.943624
_cell_angle_alpha	94.170555
_cell_angle_beta	108.838799
_cell_angle_gamma	102.448572
loop_
_atom_site_label
_atom_site_type_symbol
_atom_site_fract_x
_atom_site_fract_y
_atom_site_fract_z
V1	V	-4.083143	-0.105392	-0.403087
O2	O	-4.074765	0.005085	-0.394862
O3	O	-4.029290	-0.208994	-0.400861
O4	O	-4.061606	-0.103762	-0.578645
O5	O	-4.042226	-0.100876	-0.215847
V6	V	-4.563997	-0.092179	-0.380627
O7	O	-4.350257	-0.134376	-0.452354
O8	O	-4.747080	-0.063194	-0.331360
O9	O	-4.394642	0.011424	-0.382854
O10	O	-4.689771	-0.202656	-0.388852
O11	O	-4.722311	-0.096695	-0.567867
O12	O	-4.362327	-0.093809	-0.205069
C13	C	-3.872096	-0.234251	-0.394639
C14	C	-3.909531	-0.318947	-0.393988
C15	C	-3.869351	-0.347863	-0.275394
C16	C	-3.904546	-0.427444	-0.274788
C17	C	-3.979906	-0.478109	-0.392776
C18	C	-4.020094	-0.449188	-0.511380
C19	C	-3.984913	-0.369608	-0.511986
C20	C	-4.161976	-0.770126	-0.508941
C21	C	-4.197148	-0.849711	-0.508326
C22	C	-4.081609	-0.827963	-0.271743
C23	C	-4.046428	-0.748383	-0.272348
C24	C	-4.086629	-0.719469	-0.390951
C25	C	-4.048470	-0.633178	-0.391608
C26	C	-4.018050	-0.564399	-0.392121
C27	C	-3.913316	-0.100015	-0.621419
C28	C	-3.976955	-0.099368	-0.764942
C29	C	-3.823123	-0.095009	-0.842067
C30	C	-3.992619	-0.159711	-0.948386
C31	C	-3.920875	-0.033519	-0.914358
C32	C	-4.145643	-0.164131	-0.869385
C33	C	-4.073836	-0.037882	-0.835333
C34	C	-4.243464	-0.102603	-0.941622
C35	C	-4.215179	0.036676	-0.389072
C36	C	-4.156983	0.121371	-0.389731
C37	C	-4.173958	-0.097558	-0.162289
C38	C	-4.089558	-0.098201	-0.018764
H39	H	-4.048886	-0.851513	-0.175170
H40	H	-4.421788	-0.105829	-0.984883
Br41	Br	-4.303029	-0.256236	-0.835622
H42	H	-3.826467	0.021668	-0.934840
H43	H	-3.644881	-0.091884	-0.798603
Br44	Br	-4.122390	-0.517947	-0.671511
H45	H	-4.258517	-0.890962	-0.604412
Br46	Br	-3.767054	-0.279110	-0.115256
Br47	Br	-3.850044	-0.466685	-0.113832
H48	H	-3.985055	-0.707134	-0.176269
H49	H	-4.107425	0.013626	-0.786087
Br50	Br	-4.039467	-0.330365	-0.672942
H51	H	-4.194686	-0.746595	-0.605514
H52	H	-3.958947	-0.211216	-0.997597
