data_functionalizedCrystal
_audit_creation_method	'MofGen! by Chris Wilmer'
_symmetry_space_group_name_H-M	'P1'
_symmetry_Int_Tables_number	1
_symmetry_cell_setting	triclinic
loop_
_symmetry_equiv_pos_as_xyz
  x,y,z
_cell_length_a	19.288864
_cell_length_b	16.109301
_cell_length_c	18.366186
_cell_angle_alpha	89.992337
_cell_angle_beta	89.977106
_cell_angle_gamma	83.298863
loop_
_atom_site_label
_atom_site_type_symbol
_atom_site_fract_x
_atom_site_fract_y
_atom_site_fract_z
O1	O	0.921600	0.103716	-0.060785
O2	O	1.421600	0.603716	0.439215
O3	O	0.719373	0.117707	-0.060736
O4	O	1.219373	0.617707	0.439264
O5	O	0.826042	-0.010339	-0.060755
O6	O	1.326042	0.489661	0.439245
O7	O	0.814931	0.231761	-0.060767
O8	O	1.314931	0.731761	0.439233
O9	O	0.826024	-0.010345	0.060345
O10	O	1.326024	0.489655	0.560345
O11	O	0.719355	0.117701	0.060363
O12	O	1.219355	0.617701	0.560363
O13	O	0.921582	0.103710	0.060314
O14	O	1.421582	0.603710	0.560314
Zn15	Zn	0.820466	0.110704	0.079566
Zn16	Zn	1.320466	0.610704	0.579566
Zn17	Zn	0.820490	0.110712	-0.079988
Zn18	Zn	1.320490	0.610712	0.420012
O19	O	0.814913	0.231755	0.060333
O20	O	1.314913	0.731755	0.560333
C21	C	0.693487	0.117254	-0.000180
C22	C	1.193487	0.617254	0.499820
C23	C	0.616380	0.115902	-0.000161
C24	C	1.116380	0.615902	0.499839
C25	C	0.825583	-0.041315	-0.000205
C26	C	1.325583	0.458685	0.499795
C27	C	0.824234	-0.133606	-0.000203
C28	C	1.324234	0.366394	0.499797
C29	C	0.571863	0.191034	-0.000176
C30	C	1.071863	0.691034	0.499824
C31	C	0.499413	0.189764	-0.000184
C32	C	0.999413	0.689764	0.499816
C33	C	0.471483	0.113359	-0.000191
C34	C	0.971483	0.613359	0.499809
C35	C	0.516009	0.038218	-0.000172
C36	C	1.016009	0.538218	0.499828
C37	C	0.588458	0.039489	-0.000157
C38	C	1.088458	0.539489	0.499843
C39	C	0.363084	0.053298	-0.042639
C40	C	0.863084	0.553298	0.457361
C41	C	0.290636	0.052029	-0.042659
C42	C	0.790636	0.552029	0.457341
C43	C	0.248028	0.109433	-0.000235
C44	C	0.748028	0.609433	0.499765
C45	C	0.277874	0.168120	0.042199
C46	C	0.777874	0.668120	0.542199
C47	C	0.350323	0.169391	0.042214
C48	C	0.850323	0.669391	0.542214
C49	C	0.392925	0.111971	-0.000207
C50	C	0.892925	0.611971	0.499793
C51	C	0.124952	0.183193	-0.000258
C52	C	0.624952	0.683193	0.499742
C53	C	0.052501	0.181920	-0.000262
C54	C	0.552501	0.681920	0.499738
C55	C	0.069099	0.030372	-0.000257
C56	C	0.569099	0.530372	0.499743
C57	C	0.141548	0.031647	-0.000246
C58	C	0.641548	0.531647	0.499754
C59	C	0.169470	0.108060	-0.000250
C60	C	0.669470	0.608060	0.499750
C61	C	0.884391	-0.356084	-0.000229
C62	C	1.384391	0.143916	0.499771
C63	C	0.883118	-0.442800	-0.000235
C64	C	1.383118	0.057200	0.499765
C65	C	0.756559	-0.422493	-0.000201
C66	C	1.256559	0.077507	0.499799
C67	C	0.757833	-0.335778	-0.000201
C68	C	1.257833	0.164222	0.499799
C69	C	0.821751	-0.302577	-0.000211
C70	C	1.321751	0.197423	0.499789
C71	C	0.819204	-0.476007	-0.000217
C72	C	1.319204	0.023993	0.499783
C73	C	0.817823	-0.570028	-0.000223
C74	C	1.317823	-0.070028	0.499777
C75	C	0.823133	-0.208549	-0.000206
C76	C	1.323133	0.291451	0.499794
C77	C	0.947469	0.104163	-0.000244
C78	C	1.447469	0.604163	0.499756
C79	C	1.024576	0.105514	-0.000268
C80	C	1.524576	0.605514	0.499732
C81	C	0.815372	0.262732	-0.000219
C82	C	1.315372	0.762732	0.499781
C83	C	0.816722	0.355022	-0.000225
C84	C	1.316722	0.855022	0.499775
N85	N	0.820455	0.110698	0.188457
N86	N	1.320455	0.610698	0.688457
N87	N	0.820506	0.110712	-0.188879
N88	N	1.320506	0.610712	0.311121
C89	C	0.867703	0.054027	0.226549
C90	C	1.367703	0.554027	0.726549
C91	C	0.867707	0.054023	0.302777
C92	C	1.367707	0.554023	0.802777
C93	C	0.820470	0.110705	0.340910
C94	C	1.320470	0.610705	0.840910
C95	C	0.773213	0.167380	0.302808
C96	C	1.273213	0.667380	0.802808
C97	C	0.773205	0.167377	0.226582
C98	C	1.273205	0.667377	0.726582
C99	C	0.811353	0.186459	0.461668
C100	C	1.311353	0.686459	0.961668
C101	C	0.811365	0.186463	0.537893
C102	C	1.311365	0.686463	1.037893
C103	C	0.820490	0.110715	0.576017
C104	C	1.320490	0.610715	1.076017
C105	C	0.829616	0.034960	0.537908
C106	C	1.329616	0.534960	1.037908
C107	C	0.829609	0.034956	0.461681
C108	C	1.329609	0.534956	0.961681
C109	C	0.820473	0.110715	0.423564
C110	C	1.320473	0.610715	0.923564
C111	C	0.867746	0.054036	0.696764
C112	C	1.367746	0.554036	1.196764
C113	C	0.867745	0.054031	0.772993
C114	C	1.367745	0.554031	1.272993
C115	C	0.773254	0.167395	0.773023
C116	C	1.273254	0.667395	1.273023
C117	C	0.773251	0.167392	0.696796
C118	C	1.273251	0.667392	1.196796
C119	C	0.820500	0.110714	0.658671
C120	C	1.320500	0.610714	1.158671
H121	H	0.594592	0.253255	-0.000181
H122	H	1.094592	0.753255	0.499819
F123	F	0.382085	0.231845	0.087377
F124	F	0.882085	0.731845	0.587377
F125	F	0.917999	-0.006296	0.343324
F126	F	1.417999	0.493704	0.843324
F127	F	0.691159	-0.278828	-0.000187
F128	F	1.191159	0.221172	0.499813
F129	F	0.949789	-0.499743	-0.000256
F130	F	1.449789	0.000257	0.499744
H131	H	0.704519	-0.449537	-0.000191
H132	H	1.204519	0.050463	0.499809
H133	H	0.906175	0.007874	0.195510
H134	H	1.406175	0.507874	0.695510
F135	F	0.635838	-0.040479	-0.000140
F136	F	1.135838	0.459521	0.499860
F137	F	0.722937	0.227702	0.343392
F138	F	1.222937	0.727702	0.843392
F139	F	0.452026	0.269732	-0.000198
F140	F	0.952026	0.769732	0.499802
F141	F	0.839316	-0.045666	0.421125
F142	F	1.339316	0.454334	0.921125
H143	H	0.837046	-0.026722	0.568947
H144	H	1.337046	0.473278	1.068947
H145	H	0.266341	0.004247	-0.077214
H146	H	0.766341	0.504247	0.422786
H147	H	0.734729	0.213526	0.195567
H148	H	1.234729	0.713526	0.695567
F149	F	0.918030	-0.006290	0.656188
F150	F	1.418030	0.493710	1.156188
H151	H	0.177795	-0.029534	-0.000238
H152	H	0.677795	0.470466	0.499762
H153	H	0.397770	0.006551	-0.077190
H154	H	0.897770	0.506551	0.422810
F155	F	0.005121	0.261890	-0.000274
F156	F	0.505121	0.761890	0.499726
H157	H	0.906218	0.007878	0.804009
H158	H	1.406218	0.507878	1.304009
H159	H	0.243184	0.214863	0.076745
H160	H	0.743184	0.714863	0.576745
H161	H	0.734789	0.213542	0.804071
H162	H	1.234789	0.713542	1.304071
F163	F	0.722965	0.227713	0.656252
F164	F	1.222965	0.727713	1.156252
F165	F	0.801691	0.267087	0.421100
F166	F	1.301691	0.767087	0.921100
F167	F	0.154671	0.264517	-0.000257
F168	F	0.654671	0.764517	0.499743
F169	F	0.039379	-0.050945	-0.000258
F170	F	0.539379	0.449055	0.499742
F171	F	0.801657	0.267088	0.578445
F172	F	1.301657	0.767088	1.078445
F173	F	0.486284	-0.043098	-0.000176
F174	F	0.986284	0.456902	0.499824
H175	H	0.936438	-0.329054	-0.000239
H176	H	1.436438	0.170946	0.499761
