data_functionalizedCrystal
_audit_creation_method	'MofGen! by Chris Wilmer'
_symmetry_space_group_name_H-M	'P1'
_symmetry_Int_Tables_number	1
_symmetry_cell_setting	triclinic
loop_
_symmetry_equiv_pos_as_xyz
  x,y,z
_cell_length_a	34.490303
_cell_length_b	34.489386
_cell_length_c	34.485816
_cell_angle_alpha	60.004462
_cell_angle_beta	60.008900
_cell_angle_gamma	59.994399
loop_
_atom_site_label
_atom_site_type_symbol
_atom_site_fract_x
_atom_site_fract_y
_atom_site_fract_z
O1	O	0.053846	-0.566517	0.473678
O2	O	0.553846	-0.066517	0.973678
O3	O	0.020329	-0.441078	0.381663
O4	O	0.520329	0.058922	0.881663
O5	O	0.099768	-0.520436	0.381578
O6	O	0.599768	-0.020436	0.881578
O7	O	-0.025592	-0.487159	0.473762
O8	O	0.474408	0.012841	0.973762
O9	O	0.126127	-0.494082	0.407849
O10	O	0.626127	0.005918	0.907849
O11	O	0.046689	-0.414724	0.407933
O12	O	0.546689	0.085276	0.907933
O13	O	0.080206	-0.540163	0.499949
O14	O	0.580206	-0.040163	0.999949
Zn15	Zn	0.067632	-0.473259	0.458112
Zn16	Zn	0.567632	0.026741	0.958112
Zn17	Zn	0.032903	-0.507982	0.423499
Zn18	Zn	0.532903	-0.007982	0.923499
O19	O	0.000767	-0.460805	0.500033
O20	O	0.500767	0.039195	1.000033
N21	N	0.091336	-0.449565	0.481736
N22	N	0.591336	0.050435	0.981736
N23	N	0.009203	-0.531680	0.399875
N24	N	0.509203	-0.031680	0.899875
C25	C	0.142510	-0.268211	0.532817
C26	C	0.642510	0.231789	1.032817
C27	C	0.142641	-0.398441	0.662987
C28	C	0.642641	0.101559	1.162987
C29	C	0.142524	-0.398421	0.532817
C30	C	0.642524	0.101579	1.032817
C31	C	0.272762	-0.398394	0.532723
C32	C	0.772762	0.101606	1.032723
C33	C	0.156853	-0.311177	0.547124
C34	C	0.656853	0.188823	1.047124
C35	C	0.156928	-0.384109	0.620020
C36	C	0.656928	0.115891	1.120020
C37	C	0.229794	-0.384081	0.547073
C38	C	0.729794	0.115919	1.047073
C39	C	0.156863	-0.384097	0.547124
C40	C	0.656863	0.115903	1.047124
C41	C	0.124253	-0.213522	0.514606
C42	C	0.624253	0.286478	1.014606
C43	C	0.124277	-0.416652	0.514606
C44	C	0.624277	0.083348	1.014606
C45	C	0.175110	-0.365866	0.565335
C46	C	0.675110	0.134134	1.065335
C47	C	0.352285	-0.384669	0.490824
C48	C	0.852285	0.115331	0.990824
C49	C	0.401998	-0.401229	0.474223
C50	C	0.901998	0.098771	0.974223
C51	C	0.402027	-0.481671	0.504898
C52	C	0.902027	0.018329	1.004898
C53	C	0.352316	-0.465109	0.521500
C54	C	0.852316	0.034891	1.021500
C55	C	0.136220	-0.188652	0.465734
C56	C	0.636220	0.311348	0.965734
C57	C	0.119621	-0.138936	0.449181
C58	C	0.619621	0.361064	0.949181
C59	C	0.079092	-0.138961	0.530374
C60	C	0.579092	0.361039	1.030374
C61	C	0.095691	-0.188678	0.546927
C62	C	0.595691	0.311322	1.046927
C63	C	0.075398	-0.404656	0.526651
C64	C	0.575398	0.095344	1.026651
C65	C	0.058814	-0.421229	0.510091
C66	C	0.558814	0.078771	1.010091
C67	C	0.139984	-0.461794	0.469452
C68	C	0.639984	0.038206	0.969452
C69	C	0.156570	-0.445221	0.486007
C70	C	0.656570	0.054779	0.986007
C71	C	0.075593	-0.404694	0.742565
C72	C	0.575593	0.095306	1.242565
C73	C	0.059066	-0.421281	0.792280
C74	C	0.559066	0.078719	1.292280
C75	C	0.140274	-0.461856	0.792215
C76	C	0.640274	0.038144	1.292215
C77	C	0.156800	-0.445269	0.742499
C78	C	0.656800	0.054731	1.242499
C79	C	0.124458	-0.416687	0.717675
C80	C	0.624458	0.083313	1.217675
C81	C	0.327446	-0.416608	0.514460
C82	C	0.827446	0.083392	1.014460
C83	C	-0.023585	-0.564792	0.161919
C84	C	0.476415	-0.064792	0.661919
C85	C	-0.023910	-0.769260	0.366530
C86	C	0.476090	-0.269260	0.866530
C87	C	-0.023880	-0.564780	0.366623
C88	C	0.476120	-0.064780	0.866623
C89	C	-0.228325	-0.564561	0.366222
C90	C	0.271675	-0.064561	0.866222
C91	C	-0.129610	-0.597564	0.333467
C92	C	0.370390	-0.097564	0.833467
C93	C	-0.056729	-0.597644	0.333613
C94	C	0.443271	-0.097644	0.833613
C95	C	-0.074925	-0.615849	0.315324
C96	C	0.425075	-0.115849	0.815324
C97	C	-0.088689	-0.695351	0.357144
C98	C	0.411311	-0.195351	0.857144
C99	C	-0.072155	-0.745068	0.373736
C100	C	0.427845	-0.245068	0.873736
C101	C	0.008283	-0.745150	0.343188
C102	C	0.508283	-0.245150	0.843188
C103	C	-0.008252	-0.695435	0.326596
C104	C	0.491748	-0.195435	0.826596
C105	C	-0.154529	-0.609541	0.382326
C106	C	0.345471	-0.109541	0.882326
C107	C	-0.204241	-0.592916	0.398818
C108	C	0.295759	-0.092916	0.898818
C109	C	-0.204114	-0.552341	0.317588
C110	C	0.295886	-0.052341	0.817588
C111	C	-0.154401	-0.568966	0.301096
C112	C	0.345599	-0.068966	0.801096
C113	C	-0.068707	-0.548770	0.321590
C114	C	0.431293	-0.048770	0.821590
C115	C	-0.052166	-0.532225	0.338221
C116	C	0.447834	-0.032225	0.838221
C117	C	-0.011669	-0.613425	0.378886
C118	C	0.488331	-0.113425	0.878886
C119	C	-0.028210	-0.629972	0.362261
C120	C	0.471790	-0.129972	0.862261
C121	C	-0.068581	-0.548777	0.235758
C122	C	0.431419	-0.048777	0.735758
C123	C	-0.051939	-0.532234	0.186043
C124	C	0.448061	-0.032234	0.686043
C125	C	-0.011379	-0.613438	0.186090
C126	C	0.488621	-0.113438	0.686090
C127	C	-0.028020	-0.629981	0.235806
C128	C	0.471980	-0.129981	0.735806
C129	C	-0.056622	-0.597649	0.260639
C130	C	0.443378	-0.097649	0.760639
C131	C	-0.056739	-0.670537	0.333576
C132	C	0.443261	-0.170537	0.833576
C133	C	-0.005614	-0.545951	0.107238
C134	C	0.494386	-0.045951	0.607238
C135	C	-0.006360	-0.823943	0.385033
C136	C	0.493640	-0.323943	0.885033
C137	C	-0.005995	-0.545937	0.384582
C138	C	0.494005	-0.045937	0.884582
C139	C	-0.283006	-0.545971	0.383725
C140	C	0.216994	-0.045971	0.883725
N141	N	0.426163	-0.449489	0.481488
N142	N	0.926163	0.050511	0.981488
O143	O	0.588601	-0.457377	0.364497
O144	O	1.088601	0.042623	0.864497
O145	O	0.588789	-0.549696	0.489801
O146	O	1.088789	-0.049696	0.989801
O147	O	0.588709	-0.549485	0.410335
O148	O	1.088709	-0.049485	0.910335
O149	O	0.588681	-0.457588	0.443963
O150	O	1.088681	0.042412	0.943963
O151	O	0.509731	-0.523223	0.436741
O152	O	1.009731	-0.023223	0.936741
O153	O	0.509811	-0.523434	0.516207
O154	O	1.009811	-0.023434	1.016207
O155	O	0.509624	-0.431115	0.390903
O156	O	1.009624	0.068885	0.890903
Zn157	Zn	0.497178	-0.473105	0.457747
Zn158	Zn	0.997178	0.026895	0.957747
Zn159	Zn	0.601234	-0.507706	0.422956
Zn160	Zn	1.101234	-0.007706	0.922956
O161	O	0.509704	-0.431326	0.470368
O162	O	1.009704	0.068674	0.970368
N163	N	0.672250	-0.531322	0.399211
N164	N	1.172250	-0.031322	0.899211
N165	N	0.091303	-0.114798	0.481730
N166	N	0.591303	0.385202	0.981730
O167	O	-0.025603	0.047729	0.473733
O168	O	0.474397	0.547729	0.973733
O169	O	0.099703	0.047764	0.381394
O170	O	0.599703	0.547764	0.881394
O171	O	0.020199	0.047731	0.381655
O172	O	0.520199	0.547731	0.881655
O173	O	0.053901	0.047761	0.473472
O174	O	0.553901	0.547761	0.973472
O175	O	0.046564	-0.031252	0.407974
O176	O	0.546564	0.468748	0.907974
O177	O	0.126068	-0.031219	0.407713
O178	O	0.626068	0.468781	0.907713
O179	O	0.000762	-0.031254	0.500052
O180	O	0.500762	0.468746	1.000052
Zn181	Zn	0.067601	-0.043777	0.458061
Zn182	Zn	0.567601	0.456223	0.958061
Zn183	Zn	0.032864	0.060287	0.423385
Zn184	Zn	0.532864	0.560287	0.923385
O185	O	0.080266	-0.031222	0.499791
O186	O	0.580266	0.468778	0.999791
N187	N	0.009156	0.131307	0.399717
N188	N	0.509156	0.631307	0.899717
N189	N	0.091635	-0.449614	0.816396
N190	N	0.591635	0.050386	1.316396
O191	O	0.083664	-0.566502	0.978913
O192	O	0.583664	-0.066502	1.478913
O193	O	-0.008637	-0.441152	0.978954
O194	O	0.491363	0.058848	1.478954
O195	O	-0.008421	-0.520640	0.978930
O196	O	0.491579	-0.020640	1.478930
O197	O	0.083448	-0.487013	0.978936
O198	O	0.583448	0.012987	1.478936
O199	O	0.017877	-0.494296	0.899950
O200	O	0.517877	0.005704	1.399950
O201	O	0.017661	-0.414807	0.899974
O202	O	0.517661	0.085193	1.399974
O203	O	0.109961	-0.540157	0.899933
O204	O	0.609961	-0.040157	1.399933
Zn205	Zn	0.067986	-0.473299	0.887414
Zn206	Zn	0.567986	0.026701	1.387414
Zn207	Zn	0.033338	-0.508010	0.991473
Zn208	Zn	0.533338	-0.008010	1.491473
O209	O	0.109746	-0.460669	0.899956
O210	O	0.609746	0.039331	1.399956
N211	N	0.009689	-0.531700	1.062491
N212	N	0.509689	-0.031700	1.562491
C213	C	0.030367	-0.412095	0.382120
C214	C	0.530367	0.087905	0.882120
C215	C	0.128741	-0.510370	0.382016
C216	C	0.628741	-0.010370	0.882016
C217	C	0.070168	-0.569147	0.499490
C218	C	0.570168	-0.069147	0.999490
C219	C	-0.028207	-0.470871	0.499595
C220	C	0.471793	0.029129	0.999595
C221	C	0.549323	-0.549278	0.518791
C222	C	1.049323	-0.049278	1.018791
C223	C	0.549225	-0.549017	0.420381
C224	C	1.049225	-0.049017	0.920381
C225	C	0.549087	-0.431532	0.361914
C226	C	1.049087	0.068468	0.861914
C227	C	0.549188	-0.431794	0.460322
C228	C	1.049188	0.068206	0.960322
C229	C	0.128638	0.008374	0.381806
C230	C	0.628638	0.508374	0.881806
C231	C	0.030215	0.008236	0.382161
C232	C	0.530215	0.508236	0.882161
C233	C	-0.028206	0.008233	0.499608
C234	C	0.471794	0.508233	0.999608
C235	C	0.070250	0.008272	0.499285
C236	C	0.570250	0.508272	0.999285
C237	C	-0.008199	-0.412187	0.939469
C238	C	0.491801	0.087813	1.439469
C239	C	-0.007927	-0.510619	0.939425
C240	C	0.492073	-0.010619	1.439425
C241	C	0.109523	-0.569121	0.939417
C242	C	0.609523	-0.069121	1.439417
C243	C	0.109257	-0.470684	0.939444
C244	C	0.609257	0.029316	1.439444
H245	H	0.049253	-0.381417	0.722357
H246	H	0.549253	0.118583	1.222357
O247	O	0.078908	0.008190	0.533718
O248	O	0.578908	0.508190	1.033718
C249	C	0.127164	-0.032708	0.583596
C250	C	0.627164	0.467292	1.083596
C251	C	0.117405	-0.032677	0.544606
C252	C	0.617405	0.467323	1.044606
H253	H	0.158295	-0.065741	0.592403
H254	H	0.658295	0.434259	1.092403
H255	H	0.094265	-0.032750	0.616798
H256	H	0.594265	0.467250	1.116798
H257	H	0.136177	0.000366	0.570425
H258	H	0.636177	0.500366	1.070425
H259	H	0.108404	-0.065746	0.557731
H260	H	0.608404	0.434254	1.057731
H261	H	0.150312	-0.032610	0.511411
H262	H	0.650312	0.467390	1.011411
O263	O	0.143738	-0.462188	0.939459
O264	O	0.643738	0.037812	1.439459
C265	C	0.223771	-0.493245	0.939405
C266	C	0.723771	0.006755	1.439405
C267	C	0.184760	-0.502934	0.939400
C268	C	0.684760	-0.002934	1.439400
H269	H	0.256950	-0.526177	0.939347
H270	H	0.756950	-0.026177	1.439347
H271	H	0.210654	-0.484228	0.972470
H272	H	0.710654	0.015772	1.472470
H273	H	0.232597	-0.462137	0.906364
H274	H	0.732597	0.037863	1.406364
H275	H	0.175916	-0.534047	0.972419
H276	H	0.675916	-0.034047	1.472419
H277	H	0.197897	-0.511922	0.906313
H278	H	0.697897	-0.011922	1.406313
O279	O	-0.096425	-0.517303	0.293786
O280	O	0.403575	-0.017303	0.793786
C281	C	-0.134827	-0.435015	0.255185
C282	C	0.365173	0.064985	0.755185
C283	C	-0.103443	-0.470599	0.286687
C284	C	0.396557	0.029401	0.786687
H285	H	-0.140503	-0.397248	0.249427
H286	H	0.359497	0.102752	0.749427
H287	H	-0.170616	-0.440667	0.273333
H288	H	0.329384	0.059333	0.773333
H289	H	-0.116567	-0.440790	0.219441
H290	H	0.383433	0.059210	0.719441
H291	H	-0.121662	-0.464846	0.322436
H292	H	0.378338	0.035154	0.822436
H293	H	-0.067656	-0.464938	0.268501
H294	H	0.432344	0.035062	0.768501
O295	O	0.549156	-0.397397	0.468988
O296	O	1.049156	0.102603	0.968988
C297	C	0.549233	-0.375683	0.525382
C298	C	1.049233	0.124317	1.025382
C299	C	0.549258	-0.414675	0.515635
C300	C	1.049258	0.085325	1.015635
H301	H	0.549325	-0.389641	0.563092
H302	H	1.049325	0.110359	1.063092
H303	H	0.516144	-0.343286	0.521205
H304	H	1.016144	0.156714	1.021205
H305	H	0.582248	-0.365264	0.499046
H306	H	1.082248	0.134736	0.999046
H307	H	0.516265	-0.425134	0.541963
H308	H	1.016265	0.074866	1.041963
H309	H	0.582369	-0.447046	0.519796
H310	H	1.082369	0.052954	1.019796
H311	H	0.138503	-0.605120	0.939399
H312	H	0.638503	-0.105120	1.439399
H313	H	0.164745	-0.517463	0.353068
H314	H	0.664745	-0.017463	0.853068
H315	H	-0.037176	-0.376187	0.939482
H316	H	0.462824	0.123813	1.439482
H317	H	0.022995	0.008233	0.353314
H318	H	0.522995	0.508233	0.853314
H319	H	0.164551	0.008603	0.352745
H320	H	0.664551	0.508603	0.852745
O321	O	0.084121	-0.212800	0.594408
O322	O	0.584121	0.287200	1.094408
C323	C	0.087949	-0.227960	0.668835
C324	C	0.587949	0.272040	1.168835
C325	C	0.101094	-0.200627	0.615064
C326	C	0.601094	0.299373	1.115064
H327	H	0.101656	-0.218121	0.685553
H328	H	0.601656	0.281879	1.185553
H329	H	0.104726	-0.267770	0.675164
H330	H	0.604726	0.232230	1.175164
H331	H	0.047698	-0.218198	0.685601
H332	H	0.547698	0.281802	1.185601
H333	H	0.141338	-0.210349	0.598261
H334	H	0.641338	0.289651	1.098261
H335	H	0.084283	-0.160823	0.608768
H336	H	0.584283	0.339177	1.108768
O337	O	0.549081	-0.396936	0.318982
O338	O	1.049081	0.103064	0.818982
C339	C	0.589907	-0.344974	0.249258
C340	C	1.089907	0.155026	0.749258
C341	C	0.589968	-0.384144	0.297873
C342	C	1.089968	0.115856	0.797873
H343	H	0.622966	-0.334627	0.232173
H344	H	1.122966	0.165373	0.732173
H345	H	0.556857	-0.312581	0.254260
H346	H	1.056857	0.187419	0.754260
H347	H	0.589868	-0.358742	0.225333
H348	H	1.089868	0.141258	0.725333
H349	H	0.590024	-0.370421	0.321823
H350	H	1.090024	0.129579	0.821823
H351	H	0.623015	-0.416530	0.292835
H352	H	1.123015	0.083470	0.792835
O353	O	-0.071173	0.008313	0.534149
O354	O	0.428827	0.508313	1.034149
C355	C	-0.155657	0.049209	0.557103
C356	C	0.344343	0.549209	1.057103
C357	C	-0.107027	0.049180	0.517949
C358	C	0.392973	0.549180	1.017949
H359	H	-0.184659	0.082241	0.544016
H360	H	0.315341	0.582241	1.044016
H361	H	-0.155723	0.049248	0.590175
H362	H	0.344277	0.549248	1.090175
H363	H	-0.162591	0.016134	0.566095
H364	H	0.337409	0.516134	1.066095
H365	H	-0.100062	0.082249	0.508916
H366	H	0.399938	0.582249	1.008916
H367	H	-0.106984	0.049115	0.484902
H368	H	0.393016	0.549115	0.984902
O369	O	0.011580	-0.409561	0.816380
O370	O	0.511580	0.090439	1.316380
C371	C	-0.067220	-0.367580	0.811191
C372	C	0.432780	0.132420	1.311191
C373	C	-0.013456	-0.380806	0.783838
C374	C	0.486544	0.119194	1.283838
H375	H	-0.087478	-0.344337	0.784893
H376	H	0.412522	0.155663	1.284893
H377	H	-0.077015	-0.347317	0.834455
H378	H	0.422985	0.152683	1.334455
H379	H	-0.076970	-0.401328	0.834479
H380	H	0.423030	0.098672	1.334479
H381	H	-0.003668	-0.347082	0.760524
H382	H	0.496332	0.152918	1.260524
H383	H	-0.003690	-0.401087	0.760604
H384	H	0.496310	0.098913	1.260604
O385	O	0.171755	-0.489630	0.816256
O386	O	0.671755	0.010370	1.316256
C387	C	0.254047	-0.528106	0.810945
C388	C	0.754047	-0.028106	1.310945
C389	C	0.218448	-0.496650	0.783660
C390	C	0.718448	0.003350	1.283660
H391	H	0.291806	-0.533783	0.784603
H392	H	0.791806	-0.033783	1.284603
H393	H	0.248376	-0.563892	0.834201
H394	H	0.748376	-0.063892	1.334201
H395	H	0.248310	-0.509900	0.834235
H396	H	0.748310	-0.009900	1.334235
H397	H	0.224164	-0.514814	0.760344
H398	H	0.724164	-0.014814	1.260344
H399	H	0.224127	-0.460866	0.760434
H400	H	0.724127	0.039134	1.260434
O401	O	-0.063625	-0.484741	0.161952
O402	O	0.436375	0.015259	0.661952
C403	C	-0.105598	-0.405945	0.167156
C404	C	0.394402	0.094055	0.667156
C405	C	-0.092409	-0.459716	0.194500
C406	C	0.407591	0.040284	0.694500
H407	H	-0.128863	-0.385696	0.193460
H408	H	0.371137	0.114304	0.693460
H409	H	-0.125822	-0.396118	0.143841
H410	H	0.374178	0.103882	0.643841
H411	H	-0.071839	-0.396213	0.143920
H412	H	0.428161	0.103787	0.643920
H413	H	-0.126143	-0.469486	0.217762
H414	H	0.373857	0.030514	0.717762
H415	H	-0.072166	-0.469514	0.217785
H416	H	0.427834	0.030486	0.717785
O417	O	-0.042329	-0.519262	0.939446
O418	O	0.457671	-0.019262	1.439446
C419	C	-0.092270	-0.567425	0.980309
C420	C	0.407730	-0.067425	1.480309
C421	C	-0.053301	-0.557695	0.980338
C422	C	0.446699	-0.057695	1.480338
H423	H	-0.101160	-0.598491	1.013371
H424	H	0.398840	-0.098491	1.513371
H425	H	-0.079102	-0.576491	0.947261
H426	H	0.420898	-0.076491	1.447261
H427	H	-0.125425	-0.534467	0.980285
H428	H	0.374575	-0.034467	1.480285
H429	H	-0.020133	-0.590635	0.980379
H430	H	0.479867	-0.090635	1.480379
H431	H	-0.066507	-0.548609	1.013383
H432	H	0.433493	-0.048609	1.513383
O433	O	0.204255	-0.456893	0.718249
O434	O	0.704255	0.043107	1.218249
C435	C	0.265708	-0.449300	0.641634
C436	C	0.765708	0.050700	1.141634
C437	C	0.211954	-0.436110	0.669037
C438	C	0.711954	0.063890	1.169037
H439	H	0.271949	-0.432495	0.601841
H440	H	0.771949	0.067505	1.101841
H441	H	0.282502	-0.489552	0.651358
H442	H	0.782502	0.010448	1.151358
H443	H	0.282467	-0.435591	0.651422
H444	H	0.782467	0.064409	1.151422
H445	H	0.195153	-0.449788	0.659263
H446	H	0.695153	0.050212	1.159263
H447	H	0.195194	-0.395856	0.659310
H448	H	0.695194	0.104144	1.159310
O449	O	0.043964	-0.376889	0.554407
O450	O	0.543964	0.123111	1.054407
C451	C	-0.038298	-0.338420	0.592987
C452	C	0.461702	0.161580	1.092987
C453	C	-0.002751	-0.369861	0.561540
C454	C	0.497249	0.130139	1.061540
H455	H	-0.076075	-0.332737	0.598772
H456	H	0.423925	0.167263	1.098772
H457	H	-0.032622	-0.302636	0.574778
H458	H	0.467378	0.197364	1.074778
H459	H	-0.032509	-0.356642	0.628722
H460	H	0.467491	0.143358	1.128722
H461	H	-0.008519	-0.351681	0.525800
H462	H	0.491481	0.148319	1.025800
H463	H	-0.008436	-0.405644	0.579786
H464	H	0.491564	0.094356	1.079786
H465	H	0.019013	-0.411451	0.519888
H466	H	0.519013	0.088549	1.019888
H467	H	0.549237	-0.577886	0.413185
H468	H	1.049237	-0.077886	0.913185
O469	O	0.171377	-0.489478	0.441604
O470	O	0.671377	0.010522	0.941604
C471	C	0.235671	-0.495809	0.368418
C472	C	0.735671	0.004191	0.868418
C473	C	0.200137	-0.464407	0.399905
C474	C	0.700137	0.035593	0.899905
H475	H	0.258939	-0.475555	0.334702
H476	H	0.758939	0.024445	0.834702
H477	H	0.215450	-0.505586	0.358608
H478	H	0.715450	-0.005586	0.858608
H479	H	0.258952	-0.529551	0.388654
H480	H	0.758952	-0.029551	0.888654
H481	H	0.176847	-0.430645	0.379698
H482	H	0.676847	0.069355	0.879698
H483	H	0.220387	-0.454668	0.409717
H484	H	0.720387	0.045332	0.909717
O485	O	0.204035	-0.456812	0.474337
O486	O	0.704035	0.043188	0.974337
C487	C	0.265561	-0.449282	0.481858
C488	C	0.765561	0.050718	0.981858
C489	C	0.211795	-0.436110	0.495100
C490	C	0.711795	0.063890	0.995100
H491	H	0.271852	-0.432559	0.498648
H492	H	0.771852	0.067441	0.998648
H493	H	0.282306	-0.435533	0.441604
H494	H	0.782306	0.064467	0.941604
H495	H	0.282331	-0.489541	0.495547
H496	H	0.782331	0.010459	0.995547
H497	H	0.194985	-0.395856	0.481443
H498	H	0.694985	0.104144	0.981443
H499	H	0.195085	-0.449893	0.535356
H500	H	0.695085	0.050107	1.035356
O501	O	0.328213	-0.496148	0.544382
O502	O	0.828213	0.003852	1.044382
C503	C	0.313036	-0.554621	0.539970
C504	C	0.813036	-0.054621	1.039970
C505	C	0.340350	-0.519476	0.513999
C506	C	0.840350	-0.019476	1.013999
H507	H	0.322846	-0.573499	0.515420
H508	H	0.822846	-0.073499	1.015420
H509	H	0.273226	-0.534482	0.550615
H510	H	0.773226	-0.034482	1.050615
H511	H	0.322841	-0.581925	0.573120
H512	H	0.822841	-0.081925	1.073120
H513	H	0.330585	-0.492163	0.480832
H514	H	0.830585	0.007837	0.980832
H515	H	0.380154	-0.539648	0.503389
H516	H	0.880154	-0.039648	1.003389
O517	O	0.426057	-0.370137	0.451251
O518	O	0.926057	0.129863	0.951251
C519	C	0.420788	-0.288606	0.422593
C520	C	0.920788	0.211394	0.922593
C521	C	0.393481	-0.323764	0.448611
C522	C	0.893481	0.176236	0.948611
H523	H	0.394462	-0.251108	0.420459
H524	H	0.894462	0.248892	0.920459
H525	H	0.444021	-0.290085	0.385196
H526	H	0.944021	0.209915	0.885196
H527	H	0.444102	-0.298608	0.442895
H528	H	0.944102	0.201392	0.942895
H529	H	0.370142	-0.313787	0.428349
H530	H	0.870142	0.186213	0.928349
H531	H	0.370278	-0.322279	0.486010
H532	H	0.870278	0.177721	0.986010
H533	H	0.332037	-0.345175	0.485091
H534	H	0.832037	0.154825	0.985091
O535	O	0.163894	-0.212762	0.434319
O536	O	0.663894	0.287238	0.934319
C537	C	0.170200	-0.227940	0.369996
C538	C	0.670200	0.272060	0.869996
C539	C	0.138806	-0.200612	0.405555
C540	C	0.638806	0.299388	0.905555
H541	H	0.149933	-0.218119	0.346725
H542	H	0.649933	0.281881	0.846725
H543	H	0.180000	-0.267751	0.390197
H544	H	0.680000	0.232249	0.890197
H545	H	0.203927	-0.218155	0.346720
H546	H	0.703927	0.281845	0.846720
H547	H	0.105060	-0.210357	0.428840
H548	H	0.605060	0.289643	0.928840
H549	H	0.129045	-0.160808	0.385324
H550	H	0.629045	0.339192	0.885324
O551	O	0.016410	-0.644911	0.162045
O552	O	0.516410	-0.144911	0.662045
C553	C	0.054849	-0.727203	0.167346
C554	C	0.554849	-0.227203	0.667346
C555	C	0.023383	-0.691611	0.194636
C556	C	0.523383	-0.191611	0.694636
H557	H	0.060489	-0.764967	0.193684
H558	H	0.560489	-0.264967	0.693684
H559	H	0.090648	-0.721557	0.144139
H560	H	0.590648	-0.221557	0.644139
H561	H	0.036676	-0.721428	0.144006
H562	H	0.536676	-0.221428	0.644006
H563	H	0.041515	-0.697364	0.218002
H564	H	0.541515	-0.197364	0.718002
H565	H	-0.012414	-0.697265	0.217813
H566	H	0.487586	-0.197265	0.717813
H567	H	0.129365	-0.118686	0.409385
H568	H	0.629365	0.381314	0.909385
O569	O	-0.063710	-0.484760	0.326525
O570	O	0.436290	0.015240	0.826525
C571	C	-0.035074	-0.419001	0.288309
C572	C	0.464926	0.080999	0.788309
C573	C	-0.021939	-0.472760	0.301533
C574	C	0.478061	0.027240	0.801533
H575	H	-0.001311	-0.409281	0.268092
H576	H	0.498689	0.090719	0.768092
H577	H	-0.055330	-0.409177	0.322022
H578	H	0.444670	0.090823	0.822022
H579	H	-0.058315	-0.398740	0.264994
H580	H	0.441685	0.101260	0.764994
H581	H	0.001317	-0.493058	0.324836
H582	H	0.501317	0.006942	0.824836
H583	H	-0.001707	-0.482549	0.267801
H584	H	0.498293	0.017451	0.767801
O585	O	-0.071180	-0.462465	0.534117
O586	O	0.428820	0.037535	1.034117
C587	C	-0.140904	-0.485526	0.586071
C588	C	0.359096	0.014474	1.086071
C589	C	-0.092252	-0.495091	0.546969
C590	C	0.407748	0.004909	1.046969
H591	H	-0.157951	-0.511905	0.596481
H592	H	0.342049	-0.011905	1.096481
H593	H	-0.164854	-0.447822	0.572272
H594	H	0.335146	0.052178	1.072272
H595	H	-0.135910	-0.489791	0.618434
H596	H	0.364090	0.010209	1.118434
H597	H	-0.097201	-0.490853	0.514593
H598	H	0.402799	0.009147	1.014593
H599	H	-0.068320	-0.532792	0.560806
H600	H	0.431680	-0.032792	1.060806
H601	H	0.055841	-0.118733	0.556693
H602	H	0.555841	0.381267	1.056693
O603	O	0.016085	-0.644875	0.406656
O604	O	0.516085	-0.144875	0.906656
C605	C	0.089217	-0.709235	0.413118
C606	C	0.589217	-0.209235	0.913118
C607	C	0.057828	-0.673650	0.381621
C608	C	0.557828	-0.173650	0.881621
H609	H	0.122977	-0.732502	0.392887
H610	H	0.622977	-0.232502	0.892887
H611	H	0.068966	-0.732514	0.446824
H612	H	0.568966	-0.232514	0.946824
H613	H	0.098958	-0.689006	0.422953
H614	H	0.598958	-0.189006	0.922953
H615	H	0.048077	-0.693840	0.371750
H616	H	0.548077	-0.193840	0.871750
H617	H	0.078096	-0.650371	0.347938
H618	H	0.578096	-0.150371	0.847938
O619	O	-0.016595	-0.677457	0.374003
O620	O	0.483405	-0.177457	0.874003
C621	C	-0.020505	-0.751899	0.437006
C622	C	0.479495	-0.251899	0.937006
C623	C	-0.033681	-0.698134	0.423787
C624	C	0.466319	-0.198134	0.923787
H625	H	-0.034321	-0.768632	0.477255
H626	H	0.465679	-0.268632	0.977255
H627	H	0.019748	-0.768724	0.423376
H628	H	0.519748	-0.268724	0.923376
H629	H	-0.037217	-0.758140	0.420164
H630	H	0.462783	-0.258140	0.920164
H631	H	-0.017001	-0.691851	0.440624
H632	H	0.482999	-0.191851	0.940624
H633	H	-0.073938	-0.681336	0.437407
H634	H	0.426062	-0.181336	0.937407
H635	H	0.422274	-0.521162	0.510626
H636	H	0.922274	-0.021162	1.010626
H637	H	-0.091873	-0.522445	0.255974
H638	H	0.408127	-0.022445	0.755974
H639	H	-0.018278	-0.669778	0.256062
H640	H	0.481722	-0.169778	0.756062
H641	H	0.077330	-0.605181	0.528391
H642	H	0.577330	-0.105181	1.028391
H643	H	0.017768	-0.675232	0.307405
H644	H	0.517768	-0.175232	0.807405
O645	O	0.055399	-0.769319	0.336327
O646	O	0.555399	-0.269319	0.836327
C647	C	0.134493	-0.784592	0.279561
C648	C	0.634493	-0.284592	0.779561
C649	C	0.081149	-0.757200	0.287265
C650	C	0.581149	-0.257200	0.787265
H651	H	0.155328	-0.774796	0.239897
H652	H	0.655328	-0.274796	0.739897
H653	H	0.140852	-0.824393	0.295434
H654	H	0.640852	-0.324393	0.795434
H655	H	0.146791	-0.774840	0.297656
H656	H	0.646791	-0.274840	0.797656
H657	H	0.068814	-0.766912	0.269170
H658	H	0.568814	-0.266912	0.769170
H659	H	0.074820	-0.717405	0.271404
H660	H	0.574820	-0.217405	0.771404
O661	O	-0.103266	-0.769100	0.396695
O662	O	0.396734	-0.269100	0.896695
C663	C	-0.184810	-0.763774	0.425349
C664	C	0.315190	-0.263774	0.925349
C665	C	-0.149624	-0.736497	0.399314
C666	C	0.350376	-0.236497	0.899314
H667	H	-0.222297	-0.737426	0.427466
H668	H	0.277703	-0.237426	0.927466
H669	H	-0.183340	-0.786996	0.462753
H670	H	0.316660	-0.286996	0.962753
H671	H	-0.174833	-0.787099	0.405071
H672	H	0.325167	-0.287099	0.905071
H673	H	-0.159578	-0.713146	0.419552
H674	H	0.340422	-0.213146	0.919552
H675	H	-0.151100	-0.713304	0.361908
H676	H	0.348900	-0.213304	0.861908
O677	O	-0.130520	-0.637298	0.413833
O678	O	0.369480	-0.137298	0.913833
C679	C	-0.135894	-0.675808	0.496145
C680	C	0.364106	-0.175808	0.996145
C681	C	-0.163142	-0.644360	0.460514
C682	C	0.336858	-0.144360	0.960514
H683	H	-0.162257	-0.681535	0.533893
H684	H	0.337743	-0.181535	1.033893
H685	H	-0.112629	-0.657631	0.490500
H686	H	0.387371	-0.157631	0.990500
H687	H	-0.112616	-0.711571	0.490415
H688	H	0.387384	-0.211571	0.990415
H689	H	-0.186445	-0.608591	0.466222
H690	H	0.313555	-0.108591	0.966222
H691	H	-0.186377	-0.662574	0.466167
H692	H	0.313623	-0.162574	0.966167
O693	O	-0.135768	-0.671109	0.363833
O694	O	0.364232	-0.171109	0.863833
C695	C	-0.195826	-0.614952	0.327076
C696	C	0.304174	-0.114952	0.827076
C697	C	-0.142496	-0.642373	0.319438
C698	C	0.357504	-0.142373	0.819438
H699	H	-0.201284	-0.591720	0.291189
H700	H	0.298716	-0.091720	0.791189
H701	H	-0.209860	-0.591634	0.348908
H702	H	0.290140	-0.091634	0.848908
H703	H	-0.215821	-0.641232	0.346790
H704	H	0.284179	-0.141232	0.846790
H705	H	-0.122463	-0.616128	0.299711
H706	H	0.377537	-0.116128	0.799711
H707	H	-0.128500	-0.665699	0.297626
H708	H	0.371500	-0.165699	0.797626
H709	H	0.023205	-0.376060	0.353221
H710	H	0.523205	0.123940	0.853221
H711	H	-0.224299	-0.529059	0.291228
H712	H	0.275701	-0.029059	0.791228
O713	O	-0.228505	-0.604569	0.446271
O714	O	0.271495	-0.104569	0.946271
C715	C	-0.284693	-0.642772	0.512017
C716	C	0.215307	-0.142772	1.012017
C717	C	-0.257253	-0.629595	0.458270
C718	C	0.242747	-0.129595	0.958270
H719	H	-0.307936	-0.663016	0.521736
H720	H	0.192064	-0.163016	1.021736
H721	H	-0.308000	-0.609036	0.521799
H722	H	0.192000	-0.109036	1.021799
H723	H	-0.258428	-0.666049	0.532312
H724	H	0.241572	-0.166049	1.032312
H725	H	-0.283484	-0.606330	0.437938
H726	H	0.216516	-0.106330	0.937938
H727	H	-0.233940	-0.663350	0.448524
H728	H	0.266060	-0.163350	0.948524
H729	H	0.549371	-0.578259	0.554780
H730	H	1.049371	-0.078259	1.054780
O731	O	-0.130265	-0.557308	0.253616
O732	O	0.369735	-0.057308	0.753616
C733	C	-0.135382	-0.515288	0.174785
C734	C	0.364618	-0.015288	0.674785
C735	C	-0.162773	-0.528464	0.228542
C736	C	0.337227	-0.028464	0.728542
H737	H	-0.161653	-0.491958	0.154497
H738	H	0.338347	0.008042	0.654497
H739	H	-0.112125	-0.549023	0.164996
H740	H	0.387875	-0.049023	0.664996
H741	H	-0.112085	-0.495102	0.165065
H742	H	0.387915	0.004898	0.665065
H743	H	-0.186097	-0.548638	0.238300
H744	H	0.313903	-0.048638	0.738300
H745	H	-0.186001	-0.494711	0.238302
H746	H	0.313999	0.005289	0.738302
