data_functionalizedCrystal
_audit_creation_method	'MofGen! by Chris Wilmer'
_symmetry_space_group_name_H-M	'P1'
_symmetry_Int_Tables_number	1
_symmetry_cell_setting	triclinic
loop_
_symmetry_equiv_pos_as_xyz
  x,y,z
_cell_length_a	18.215407
_cell_length_b	10.685194
_cell_length_c	18.215399
_cell_angle_alpha	85.603424
_cell_angle_beta	89.982632
_cell_angle_gamma	94.374625
loop_
_atom_site_label
_atom_site_type_symbol
_atom_site_fract_x
_atom_site_fract_y
_atom_site_fract_z
Zn1	Zn	1.102695	-0.502506	-0.393607
Zn2	Zn	1.093205	-0.713548	-0.261107
Zn3	Zn	0.979626	-0.502537	-0.270558
Zn4	Zn	0.970199	-0.713467	-0.384141
O5	O	1.036431	-0.608014	-0.327353
O6	O	1.204419	-0.530523	-0.376036
O7	O	1.078113	-0.685604	-0.159375
O8	O	1.003868	-0.325936	-0.294797
O9	O	1.197448	-0.685574	-0.278690
O10	O	1.094286	-0.325914	-0.385200
O11	O	0.994667	-0.530574	-0.166318
O12	O	0.875392	-0.530495	-0.285619
O13	O	0.987801	-0.685436	-0.488383
O14	O	0.868466	-0.685465	-0.369068
O15	O	1.085145	-0.530444	-0.495337
O16	O	1.068972	-0.890134	-0.269511
O17	O	0.978600	-0.890074	-0.359904
C18	C	0.845227	-0.607976	-0.327342
C19	C	0.763427	-0.607989	-0.327353
C20	C	0.578855	-0.527420	-0.378109
C21	C	0.501996	-0.527431	-0.378111
C22	C	0.494758	-0.688644	-0.276609
C23	C	0.571616	-0.688626	-0.276604
C24	C	0.613663	-0.608016	-0.327358
C25	C	0.459945	-0.608045	-0.327365
C26	C	0.376611	-0.608057	-0.327367
C27	C	0.697002	-0.608001	-0.327356
C28	C	1.021753	-0.935894	-0.312671
C29	C	1.015541	-1.076162	-0.306415
C30	C	1.228383	-0.608054	-0.327365
C31	C	1.310181	-0.608071	-0.327370
C32	C	1.036480	-0.607927	-0.519310
C33	C	1.036501	-0.607890	-0.601111
C34	C	1.051187	-0.278855	-0.342109
C35	C	1.057475	-0.138587	-0.348397
C36	C	1.087208	-0.527111	-0.792930
C37	C	1.087219	-0.527074	-0.869791
C38	C	0.985854	-0.688475	-0.862538
C39	C	0.985841	-0.688504	-0.785679
C40	C	1.036522	-0.607824	-0.750877
C41	C	1.036546	-0.607758	-0.904596
C42	C	1.036557	-0.607719	-0.987932
C43	C	1.036510	-0.607861	-0.667537
C44	C	1.036429	-0.608010	-0.136147
C45	C	1.036567	-0.607692	-0.054363
H46	H	0.599957	-0.754258	-0.235273
H47	H	1.128491	-0.461347	-0.904028
C48	C	0.940870	-0.760102	-0.977137
C49	C	0.930153	-0.777165	-0.900794
H50	H	0.906484	-0.814866	-1.000751
H51	H	0.933898	-0.675316	-0.993530
H52	H	0.989493	-0.778576	-0.988902
H53	H	0.881531	-0.758683	-0.889028
H54	H	0.937118	-0.861971	-0.884395
H55	H	1.128474	-0.461412	-0.764597
C56	C	1.108109	-0.936339	-0.399146
C57	C	1.112366	-1.065880	-0.403382
H58	H	1.142000	-0.891450	-0.433089
H59	H	1.059602	-0.914859	-0.410822
H60	H	1.119849	-0.914852	-0.350653
H61	H	1.100620	-1.087369	-0.451873
H62	H	1.160883	-1.087368	-0.391710
C63	C	0.885650	-0.848059	-0.786223
C64	C	0.930125	-0.777237	-0.739448
H65	H	0.851258	-0.902838	-0.757680
H66	H	0.859968	-0.793063	-0.818660
H67	H	0.915564	-0.896322	-0.814042
H68	H	0.900212	-0.728967	-0.711632
H69	H	0.955809	-0.832239	-0.706997
C70	C	0.910045	-1.224676	-0.289553
C71	C	0.960647	-1.148874	-0.251427
H72	H	0.876160	-1.269569	-0.255605
H73	H	0.884133	-1.173253	-0.323852
H74	H	0.935528	-1.282628	-0.315049
H75	H	0.935165	-1.090915	-0.225935
H76	H	0.986563	-1.200301	-0.217115
C77	C	0.400741	-0.858398	-0.258635
C78	C	0.448538	-0.777260	-0.220828
H79	H	0.372212	-0.913113	-0.224197
H80	H	0.369014	-0.810401	-0.288854
H81	H	0.428587	-0.906724	-0.288485
H82	H	0.420692	-0.728927	-0.190982
H83	H	0.480269	-0.825263	-0.190597
C84	C	0.605296	-0.466202	-0.505523
C85	C	0.625074	-0.438807	-0.433892
H86	H	0.633826	-0.411487	-0.539960
H87	H	0.614111	-0.551002	-0.512412
H88	H	0.554539	-0.454676	-0.512778
H89	H	0.675830	-0.450343	-0.426636
H90	H	0.616264	-0.353987	-0.427000
C91	C	0.416372	-0.510137	-0.477897
C92	C	0.463734	-0.438844	-0.433900
H93	H	0.392748	-0.455441	-0.512337
H94	H	0.443905	-0.565165	-0.503526
H95	H	0.380332	-0.558139	-0.447666
H96	H	0.499777	-0.390849	-0.464131
H97	H	0.436198	-0.383793	-0.408269
