data_functionalizedCrystal
_audit_creation_method	'MofGen! by Chris Wilmer'
_symmetry_space_group_name_H-M	'P1'
_symmetry_Int_Tables_number	1
_symmetry_cell_setting	triclinic
loop_
_symmetry_equiv_pos_as_xyz
  x,y,z
_cell_length_a	14.853566
_cell_length_b	14.853569
_cell_length_c	13.330367
_cell_angle_alpha	89.994190
_cell_angle_beta	89.995295
_cell_angle_gamma	83.634990
loop_
_atom_site_label
_atom_site_type_symbol
_atom_site_fract_x
_atom_site_fract_y
_atom_site_fract_z
O1	O	1.196370	0.117698	-0.083360
O2	O	0.933911	0.131721	-0.083377
O3	O	1.072150	-0.006520	-0.083358
O4	O	1.058130	0.255939	-0.083378
O5	O	1.072130	-0.006523	0.083489
O6	O	0.933891	0.131718	0.083470
O7	O	1.196350	0.117695	0.083487
Cu8	Cu	1.065118	0.124706	0.098713
Cu9	Cu	1.065142	0.124710	-0.098603
O10	O	1.058110	0.255936	0.083469
C11	C	0.900312	0.131084	0.000045
C12	C	0.800228	0.129181	0.000039
C13	C	0.377054	0.121132	-0.090892
C14	C	0.377054	0.121129	0.091012
C15	C	0.471088	0.122916	0.091008
C16	C	0.518109	0.123813	0.000054
C17	C	0.471097	0.122922	-0.090898
C18	C	0.518106	0.123816	0.181958
C19	C	0.612146	0.125605	0.181959
C20	C	0.659170	0.126495	0.091003
C21	C	0.612152	0.125603	0.000048
C22	C	0.659173	0.126499	-0.090907
C23	C	0.612157	0.125601	-0.181863
C24	C	0.518121	0.123812	-0.181853
C25	C	0.753207	0.128284	0.090993
C26	C	0.753215	0.128290	-0.090913
C27	C	1.071505	-0.040111	0.000066
C28	C	1.069600	-0.140194	0.000066
C29	C	0.986590	-0.176570	0.000063
C30	C	1.150822	-0.197861	0.000063
C31	C	1.149036	-0.291895	0.000058
C32	C	1.066025	-0.328271	0.000055
C33	C	0.984800	-0.270613	0.000055
C34	C	1.230259	-0.349560	0.000047
C35	C	1.228475	-0.443600	0.000042
C36	C	1.145463	-0.479978	0.000045
C37	C	1.064236	-0.422313	0.000047
C38	C	0.981225	-0.458690	0.000044
C39	C	0.899996	-0.401027	0.000053
C40	C	0.901788	-0.306991	0.000059
C41	C	1.143671	-0.574014	0.000039
C42	C	0.979436	-0.552732	0.000036
C43	C	1.229949	0.118332	0.000064
C44	C	1.330033	0.120235	0.000063
C45	C	1.058756	0.289526	0.000043
C46	C	1.060660	0.389610	0.000035
N47	N	1.065108	0.124703	0.237495
N48	N	1.065159	0.124706	-0.237384
C49	C	1.003927	0.185899	0.710109
C50	C	1.126382	0.063514	0.710094
C51	C	1.126372	0.063511	0.605075
C52	C	1.065139	0.124704	0.552569
C53	C	1.003917	0.185900	0.605081
C54	C	1.187599	0.002322	0.552556
C55	C	1.187592	0.002318	0.447531
C56	C	1.126354	0.063507	0.395023
C57	C	1.065129	0.124705	0.447541
C58	C	1.003896	0.185898	0.395035
C59	C	0.942666	0.247092	0.447552
C60	C	0.942679	0.247089	0.552573
C61	C	1.126341	0.063510	0.290001
C62	C	1.003886	0.185899	0.290007
H63	H	0.650418	0.126334	0.256021
C64	C	0.847927	0.238543	0.742464
C65	C	0.936623	0.253157	0.767833
H66	H	0.806377	0.280061	0.778107
H67	H	0.839167	0.247307	0.672411
H68	H	0.838081	0.178350	0.759685
H69	H	0.946470	0.313347	0.750605
H70	H	0.945386	0.244400	0.837902
C71	C	0.889913	0.403070	0.415197
C72	C	0.875363	0.314357	0.389828
H73	H	0.848368	0.444594	0.379552
H74	H	0.881143	0.411823	0.485250
H75	H	0.950094	0.412959	0.397977
H76	H	0.815184	0.304465	0.407055
H77	H	0.884126	0.305600	0.319760
H78	H	0.835657	-0.260034	0.000064
H79	H	0.650454	0.126337	-0.255918
H80	H	1.176198	0.013691	0.247247
H81	H	1.237457	-0.047495	0.595309
H82	H	1.294617	-0.490542	0.000036
C83	C	1.306187	-0.585608	0.000026
C84	C	1.232948	-0.637395	0.000028
H85	H	1.361305	-0.624739	0.000026
H86	H	1.303468	-0.548482	-0.058152
H87	H	1.303463	-0.548492	0.058215
H88	H	1.235668	-0.674507	-0.058166
H89	H	1.235668	-0.674537	0.058211
H90	H	0.920455	-0.129618	0.000074
C91	C	1.308631	-0.118664	0.458076
C92	C	1.254886	-0.064953	0.389809
H93	H	1.350169	-0.160198	0.422438
H94	H	1.341110	-0.081076	0.499019
H95	H	1.271061	-0.151155	0.499058
H96	H	1.292456	-0.032456	0.348832
H97	H	1.222405	-0.102545	0.348849
C98	C	0.868997	0.052864	0.196519
C99	C	0.804890	0.129273	0.190959
H100	H	0.900906	0.053479	0.258235
H101	H	0.839117	-0.000354	0.192756
H102	H	0.910453	0.053659	0.142343
H103	H	0.763430	0.128475	0.245131
H104	H	0.834771	0.182505	0.194732
H105	H	0.954020	0.235726	0.247263
H106	H	1.176240	0.013696	0.752848
H107	H	0.791494	0.129017	-0.164980
C108	C	0.373968	0.121084	-0.262609
C109	C	0.466438	0.122836	-0.281825
H110	H	0.342060	0.120489	-0.324328
H111	H	0.365369	0.068262	-0.225243
H112	H	0.351762	0.173325	-0.225237
H113	H	0.488646	0.070591	-0.319191
H114	H	0.475043	0.175664	-0.319207
H115	H	0.892828	0.296912	0.595339
H116	H	0.338770	0.120396	-0.164946
H117	H	0.479814	0.123092	0.256008
C118	C	0.281334	0.041682	0.196547
C119	C	0.325369	0.120146	0.190985
H120	H	0.249428	0.041074	0.258273
H121	H	0.239880	0.040903	0.142388
H122	H	0.324834	-0.010147	0.192770
H123	H	0.281868	0.171975	0.194754
H124	H	0.366827	0.120933	0.245159
C125	C	0.838904	-0.563525	-0.085739
C126	C	0.888187	-0.592715	0.000028
H127	H	0.782574	-0.588215	-0.085745
H128	H	0.828347	-0.499276	-0.085721
H129	H	0.872364	-0.583304	-0.143918
H130	H	0.854729	-0.572931	0.058208
H131	H	0.898741	-0.656978	0.000020
C132	C	0.759467	-0.411836	-0.085725
C133	C	0.808753	-0.441021	0.000043
H134	H	0.703142	-0.436535	-0.085733
H135	H	0.748900	-0.347587	-0.085705
H136	H	0.792931	-0.431608	-0.143903
H137	H	0.775292	-0.421243	0.058222
H138	H	0.819317	-0.505283	0.000032
C139	C	1.226482	-0.063161	0.000075
C140	C	1.242064	-0.157878	0.000069
H141	H	1.282815	-0.038478	0.000086
H142	H	1.193048	-0.043378	-0.058107
H143	H	1.193026	-0.043394	0.058260
H144	H	1.275514	-0.177646	-0.058121
H145	H	1.275512	-0.177669	0.058256
H146	H	1.297842	-0.319935	0.000112
