data_functionalizedCrystal
_audit_creation_method	'MofGen! by Chris Wilmer'
_symmetry_space_group_name_H-M	'P1'
_symmetry_Int_Tables_number	1
_symmetry_cell_setting	triclinic
loop_
_symmetry_equiv_pos_as_xyz
  x,y,z
_cell_length_a	17.699083
_cell_length_b	19.188924
_cell_length_c	16.176319
_cell_angle_alpha	89.991125
_cell_angle_beta	89.998611
_cell_angle_gamma	83.212490
loop_
_atom_site_label
_atom_site_type_symbol
_atom_site_fract_x
_atom_site_fract_y
_atom_site_fract_z
O1	O	1.003960	0.088295	-0.068634
O2	O	0.783566	0.099782	-0.068662
O3	O	0.900126	-0.007610	-0.068638
O4	O	0.887400	0.195687	-0.068659
O5	O	0.900110	-0.007617	0.068855
O6	O	0.783550	0.099775	0.068831
O7	O	1.003944	0.088288	0.068859
Cu8	Cu	0.893746	0.094031	0.081399
Cu9	Cu	0.893765	0.094039	-0.081202
O10	O	0.887384	0.195680	0.068834
C11	C	0.755362	0.099367	0.000081
C12	C	0.671345	0.098132	0.000071
C13	C	0.622640	0.161169	0.000065
C14	C	0.543698	0.160005	0.000076
C15	C	0.513464	0.095803	0.000087
C16	C	0.562175	0.032761	0.000096
C17	C	0.641116	0.033926	0.000091
C18	C	0.243819	0.028060	0.000116
C19	C	0.164872	0.026900	0.000119
C20	C	0.146401	0.154139	0.000101
C21	C	0.225341	0.155305	0.000096
C22	C	0.274046	0.092263	0.000110
C23	C	0.359644	0.093526	0.000099
C24	C	0.427868	0.094538	0.000091
C25	C	0.899707	-0.033625	0.000110
C26	C	0.898472	-0.111132	0.000112
C27	C	0.897905	-0.147527	-0.074836
C28	C	0.896734	-0.220351	-0.074843
C29	C	0.896146	-0.256779	0.000103
C30	C	0.896710	-0.220374	0.075061
C31	C	0.897873	-0.147550	0.075065
N32	N	0.937384	-0.376398	0.055889
N33	N	0.936281	-0.445578	0.055879
C34	C	0.892641	-0.476192	0.000095
N35	N	0.850154	-0.435014	-0.055693
N36	N	0.851261	-0.365828	-0.055686
C37	C	0.894885	-0.335744	0.000107
C38	C	0.890803	-0.591552	-0.074865
C39	C	0.889627	-0.664376	-0.074869
C40	C	0.889610	-0.664398	0.075037
C41	C	0.890778	-0.591574	0.075038
C42	C	0.891378	-0.555155	0.000085
C43	C	1.032149	0.088703	0.000114
C44	C	1.116165	0.089938	0.000118
C45	C	0.887804	0.221695	0.000085
C46	C	0.889038	0.299202	0.000078
N47	N	0.893738	0.094025	0.195764
N48	N	0.893778	0.094040	-0.195568
C49	C	0.945366	0.046491	0.239039
C50	C	0.945370	0.046490	0.325586
C51	C	0.893749	0.094027	0.368857
C52	C	0.842115	0.141564	0.325576
C53	C	0.842108	0.141560	0.239030
C54	C	0.842141	0.141577	0.674604
C55	C	0.842153	0.141578	0.761156
C56	C	0.945403	0.046506	0.761160
C57	C	0.945396	0.046503	0.674615
C58	C	0.893760	0.094037	0.631341
C59	C	0.893755	0.094036	0.537497
C60	C	0.893756	0.094032	0.462700
H61	H	0.647250	0.213450	0.000055
H62	H	0.800067	0.180267	0.203797
O63	O	0.896005	-0.255707	0.147885
C64	C	0.830757	-0.229887	0.193480
H65	H	0.785277	-0.204258	0.149619
H66	H	0.846241	-0.189435	0.240217
C67	C	0.855863	-0.322428	0.293271
C68	C	0.800002	-0.290954	0.239399
H69	H	0.836893	-0.360095	0.321599
H70	H	0.899824	-0.339822	0.262555
H71	H	0.868761	-0.288711	0.332211
H72	H	0.787112	-0.324669	0.200454
H73	H	0.756038	-0.273567	0.270109
H74	H	0.504044	0.211336	0.000069
O75	O	0.898294	-0.112144	0.147851
C76	C	0.833444	-0.061984	0.152318
H77	H	0.787293	-0.078317	0.109779
H78	H	0.849149	-0.008605	0.132184
C79	C	0.860419	-0.037178	0.294104
C80	C	0.803732	-0.057241	0.241863
H81	H	0.842093	-0.034248	0.349340
H82	H	0.904111	-0.070969	0.291095
H83	H	0.873501	0.007303	0.277316
H84	H	0.790659	-0.101724	0.258645
H85	H	0.760037	-0.023457	0.244877
H86	H	0.896268	-0.249990	-0.135876
O87	O	0.891307	-0.556104	0.147769
C88	C	0.892480	-0.484020	0.131703
H89	H	0.868690	-0.471132	0.067288
H90	H	0.953517	-0.470786	0.135264
C91	C	0.872669	-0.456397	0.275475
C92	C	0.843442	-0.440567	0.196361
H93	H	0.842423	-0.429592	0.315360
H94	H	0.871881	-0.504962	0.286300
H95	H	0.923532	-0.445368	0.278430
H96	H	0.792584	-0.451604	0.193404
H97	H	0.844220	-0.392003	0.185537
H98	H	0.898391	-0.117880	-0.135869
O99	O	0.291198	-0.033131	0.000009
C100	C	0.337397	-0.036272	-0.071213
H101	H	0.341210	0.019142	-0.094956
H102	H	0.311525	-0.068108	-0.121073
C103	C	0.412977	-0.139611	-0.020423
C104	C	0.417666	-0.071551	-0.049581
H105	H	0.462490	-0.161376	-0.007082
H106	H	0.381850	-0.137498	0.027559
H107	H	0.391414	-0.166132	-0.061979
H108	H	0.439219	-0.045029	-0.008023
H109	H	0.448798	-0.073661	-0.097556
H110	H	0.249953	0.207585	0.000084
H111	H	0.987405	0.007784	0.203814
O112	O	0.098980	0.215316	0.000133
C113	C	0.022821	0.200526	0.000122
H114	H	0.019977	0.145691	0.026164
H115	H	-0.000022	0.203212	-0.065839
C116	C	-0.022179	0.322166	0.022050
C117	C	-0.025673	0.254818	0.054042
H118	H	-0.052094	0.355657	0.055307
H119	H	0.029130	0.332131	0.022054
H120	H	-0.041213	0.324394	-0.032917
H121	H	-0.006630	0.252589	0.109004
H122	H	-0.076981	0.244854	0.054048
H123	H	0.140259	-0.025384	0.000129
H124	H	0.537552	-0.019514	0.000116
H125	H	0.891287	-0.561898	-0.135897
O126	O	0.688323	-0.027373	0.000055
C127	C	0.644712	-0.084290	0.000085
H128	H	0.585731	-0.066469	-0.025944
H129	H	0.639159	-0.103980	0.066050
C130	C	0.756689	-0.165830	-0.021860
C131	C	0.684250	-0.143942	-0.053836
H132	H	0.781078	-0.202627	-0.055118
H133	H	0.786071	-0.127484	-0.021877
H134	H	0.752051	-0.182233	0.033110
H135	H	0.688889	-0.127532	-0.108802
H136	H	0.654869	-0.182287	-0.053830
O137	O	0.889119	-0.699631	-0.147751
C138	C	0.889884	-0.651865	-0.213900
H139	H	0.914660	-0.602888	-0.191915
H140	H	0.829309	-0.636689	-0.236970
C141	C	0.908648	-0.746505	-0.311696
C142	C	0.939085	-0.686352	-0.284695
H143	H	0.938995	-0.767778	-0.355368
H144	H	0.908130	-0.778685	-0.267131
H145	H	0.858170	-0.733849	-0.330915
H146	H	0.989559	-0.699009	-0.265468
H147	H	0.939613	-0.654174	-0.329259
O148	O	0.888900	-0.699720	0.147866
C149	C	0.823652	-0.673888	0.193454
H150	H	0.778177	-0.648259	0.149586
H151	H	0.839138	-0.633432	0.240184
C152	C	0.848741	-0.766417	0.293262
C153	C	0.792885	-0.734945	0.239382
H154	H	0.829764	-0.804078	0.321596
H155	H	0.892702	-0.783819	0.262551
H156	H	0.861641	-0.732696	0.332196
H157	H	0.779993	-0.768662	0.200442
H158	H	0.748922	-0.717549	0.270088
H159	H	0.987409	0.007784	0.360821
O160	O	0.995569	0.000258	0.632711
C161	C	1.041151	-0.041688	0.689466
H162	H	1.010132	-0.042438	0.751164
H163	H	1.097298	-0.019083	0.698656
C164	C	1.095099	-0.116107	0.579926
C165	C	1.056997	-0.117033	0.655703
H166	H	1.104877	-0.162583	0.559099
H167	H	1.064392	-0.087846	0.541688
H168	H	1.141884	-0.097266	0.587594
H169	H	1.010210	-0.135866	0.648032
H170	H	1.087697	-0.145299	0.693939
H171	H	0.987445	0.007800	0.796403
O172	O	0.791897	0.187684	0.803154
C173	C	0.717016	0.176423	0.782008
H174	H	0.716840	0.120521	0.758228
H175	H	0.694642	0.215147	0.731770
C176	C	0.665897	0.255983	0.888106
C177	C	0.665680	0.187322	0.858905
H178	H	0.634229	0.262710	0.935537
H179	H	0.716345	0.263573	0.902350
H180	H	0.647253	0.288246	0.846233
H181	H	0.684332	0.155061	0.900773
H182	H	0.615233	0.179727	0.844669
O183	O	0.792043	0.187715	0.367734
C184	C	0.803107	0.177516	0.453402
H185	H	0.863367	0.151352	0.465221
H186	H	0.760391	0.142548	0.477978
C187	C	0.717481	0.281092	0.483301
C188	C	0.791496	0.248962	0.497818
H189	H	0.710315	0.325162	0.510700
H190	H	0.710024	0.287962	0.425586
H191	H	0.681893	0.251945	0.503782
H192	H	0.827082	0.278105	0.477328
H193	H	0.798959	0.242098	0.555531
H194	H	0.800099	0.180281	0.639378
