data_functionalizedCrystal
_audit_creation_method	'MofGen! by Chris Wilmer'
_symmetry_space_group_name_H-M	'P1'
_symmetry_Int_Tables_number	1
_symmetry_cell_setting	triclinic
loop_
_symmetry_equiv_pos_as_xyz
  x,y,z
_cell_length_a	13.897449
_cell_length_b	12.645330
_cell_length_c	13.897441
_cell_angle_alpha	89.972699
_cell_angle_beta	89.979267
_cell_angle_gamma	90.018972
loop_
_atom_site_label
_atom_site_type_symbol
_atom_site_fract_x
_atom_site_fract_y
_atom_site_fract_z
Zn1	Zn	1.474703	-0.421969	-0.545403
Zn2	Zn	1.974703	0.078031	-0.045403
Zn3	Zn	1.474597	-0.599265	-0.384114
Zn4	Zn	1.974597	-0.099265	0.115886
Zn5	Zn	1.313392	-0.422020	-0.384122
Zn6	Zn	1.813392	0.077980	0.115878
Zn7	Zn	1.313373	-0.599195	-0.545367
Zn8	Zn	1.813373	-0.099195	-0.045367
O9	O	1.394016	-0.510612	-0.464751
O10	O	1.894016	-0.010612	0.035249
O11	O	1.609670	-0.445496	-0.524020
O12	O	2.109670	0.054504	-0.024020
O13	O	1.453176	-0.575803	-0.249133
O14	O	1.953176	-0.075803	0.250867
O15	O	1.334842	-0.273666	-0.405535
O16	O	1.834842	0.226334	0.094465
O17	O	1.609592	-0.575754	-0.405521
O18	O	2.109592	-0.075754	0.094479
O19	O	1.453356	-0.273629	-0.524028
O20	O	1.953356	0.226371	-0.024028
O21	O	1.334739	-0.445582	-0.249139
O22	O	1.834739	0.054418	0.250861
O23	O	1.178408	-0.445514	-0.405499
O24	O	1.678408	0.054486	0.094501
O25	O	1.334811	-0.575636	-0.680353
O26	O	1.834811	-0.075636	-0.180353
O27	O	1.178394	-0.575684	-0.523965
O28	O	1.678394	-0.075684	-0.023965
O29	O	1.453339	-0.445428	-0.680380
O30	O	1.953339	0.054572	-0.180380
O31	O	1.453158	-0.747603	-0.405486
O32	O	1.953158	-0.247603	0.094514
O33	O	1.334708	-0.747552	-0.523957
O34	O	1.834708	-0.247552	-0.023957
C35	C	1.143402	-0.510598	-0.464729
C36	C	1.643402	-0.010598	0.035271
C37	C	1.036188	-0.510618	-0.464743
C38	C	1.536188	-0.010618	0.035257
C39	C	1.393946	-0.786042	-0.464738
C40	C	1.893946	-0.286042	0.035262
C41	C	1.394004	-0.903872	-0.464764
C42	C	1.894004	-0.403872	0.035236
C43	C	0.839893	-0.510621	-0.464768
C44	C	1.339893	-0.010621	0.035232
C45	C	0.949125	-0.510616	-0.464751
C46	C	1.449125	-0.010616	0.035249
C47	C	1.319794	-1.071448	-0.539525
C48	C	1.819794	-0.571448	-0.039525
C49	C	1.319415	-0.948889	-0.539284
C50	C	1.819415	-0.448889	-0.039284
C51	C	1.366485	-0.948472	-0.363109
C52	C	1.866485	-0.448472	0.136891
C53	C	1.366032	-1.071070	-0.363563
C54	C	1.866032	-0.571070	0.136437
C55	C	1.496187	-1.070958	-0.490835
C56	C	1.996187	-0.570958	0.009165
C57	C	1.495561	-0.948351	-0.493058
C58	C	1.995561	-0.448351	0.006942
C59	C	1.645609	-0.510627	-0.464774
C60	C	2.145609	-0.010627	0.035226
C61	C	1.752823	-0.510634	-0.464784
C62	C	2.252823	-0.010634	0.035216
C63	C	1.394085	-0.510519	-0.716344
C64	C	1.894085	-0.010519	-0.216344
C65	C	1.394114	-0.510479	-0.823558
C66	C	1.894114	-0.010479	-0.323558
C67	C	1.394113	-0.234107	-0.464786
C68	C	1.894113	0.265893	0.035214
C69	C	1.394154	-0.116277	-0.464801
C70	C	1.894154	0.383723	0.035199
C71	C	1.394140	-0.510407	-1.019854
C72	C	1.894140	-0.010407	-0.519854
C73	C	1.394122	-0.510450	-0.910621
C74	C	1.894122	-0.010450	-0.410621
C75	C	1.394003	-0.510629	-0.214137
C76	C	1.894003	-0.010629	0.285863
C77	C	1.394161	-0.510370	-0.106924
C78	C	1.894161	-0.010370	0.393076
H79	H	1.336632	-0.918731	-0.614661
H80	H	1.836632	-0.418731	-0.114661
C81	C	1.265274	-1.109845	-0.333779
C82	C	1.765274	-0.609845	0.166221
H83	H	1.264110	-1.184964	-0.333790
H84	H	1.764110	-0.684964	0.166210
H85	H	1.218884	-1.083913	-0.378075
H86	H	1.718884	-0.583913	0.121925
H87	H	1.250674	-1.084587	-0.271085
H88	H	1.750674	-0.584587	0.228915
C89	C	1.436003	-1.111143	-0.285775
C90	C	1.936003	-0.611143	0.214225
H91	H	1.464574	-1.052492	-0.254032
H92	H	1.964574	-0.552492	0.245968
H93	H	1.484795	-1.152811	-0.314976
H94	H	1.984795	-0.652811	0.185024
H95	H	1.401792	-1.152831	-0.240309
H96	H	1.901792	-0.652831	0.259691
C97	C	1.437319	-0.909084	-0.285833
C98	C	1.937319	-0.409084	0.214167
H99	H	1.419352	-0.936990	-0.224938
H100	H	1.919352	-0.436990	0.275062
H101	H	1.435780	-0.834030	-0.283430
H102	H	1.935780	-0.334030	0.216570
H103	H	1.500529	-0.931951	-0.301451
H104	H	2.000529	-0.431951	0.198549
C105	C	1.571033	-1.110117	-0.417322
C106	C	2.071033	-0.610117	0.082678
H107	H	1.632539	-1.082465	-0.433425
H108	H	2.132539	-0.582465	0.066575
H109	H	1.573331	-1.185185	-0.418412
H110	H	2.073331	-0.685185	0.081588
H111	H	1.553405	-1.086842	-0.354769
H112	H	2.053405	-0.586842	0.145231
C113	C	1.342746	-1.111304	-0.641666
C114	C	1.842746	-0.611304	-0.141666
H115	H	1.397889	-1.155633	-0.639661
H116	H	1.897889	-0.655633	-0.139661
H117	H	1.355016	-1.052680	-0.682641
H118	H	1.855016	-0.552680	-0.182641
H119	H	1.289466	-1.150253	-0.665699
H120	H	1.789466	-0.650253	-0.165699
H121	H	1.292676	-0.917863	-0.340655
H122	H	1.792676	-0.417863	0.159345
C123	C	1.217234	-0.909385	-0.515983
C124	C	1.717234	-0.409385	-0.015983
H125	H	1.216650	-0.834259	-0.515766
H126	H	1.716650	-0.334259	-0.015766
H127	H	1.198369	-0.934862	-0.454491
H128	H	1.698369	-0.434862	0.045509
H129	H	1.173641	-0.934652	-0.563333
H130	H	1.673641	-0.434652	-0.063333
H131	H	1.244625	-1.102351	-0.522497
H132	H	1.744625	-0.602351	-0.022497
H133	H	1.516314	-0.919196	-0.567871
H134	H	2.016314	-0.419196	-0.067871
C135	C	1.530099	-1.112610	-0.589273
C136	C	2.030099	-0.612610	-0.089273
H137	H	1.482341	-1.158033	-0.615418
H138	H	1.982341	-0.658033	-0.115418
H139	H	1.588463	-1.150736	-0.581465
H140	H	2.088463	-0.650736	-0.081465
H141	H	1.540391	-1.054751	-0.631678
H142	H	2.040391	-0.554751	-0.131678
H143	H	1.553880	-0.917701	-0.442596
H144	H	2.053880	-0.417701	0.057404
