data_functionalizedCrystal
_audit_creation_method	'MofGen! by Chris Wilmer'
_symmetry_space_group_name_H-M	'P1'
_symmetry_Int_Tables_number	1
_symmetry_cell_setting	triclinic
loop_
_symmetry_equiv_pos_as_xyz
  x,y,z
_cell_length_a	13.897449
_cell_length_b	16.120531
_cell_length_c	13.897441
_cell_angle_alpha	87.136997
_cell_angle_beta	89.978743
_cell_angle_gamma	87.066788
loop_
_atom_site_label
_atom_site_type_symbol
_atom_site_fract_x
_atom_site_fract_y
_atom_site_fract_z
Zn1	Zn	1.455115	0.331870	-0.564869
Zn2	Zn	1.788448	0.665203	-0.231535
Zn3	Zn	2.121781	0.998537	0.101798
Zn4	Zn	1.446794	0.471299	-0.411729
Zn5	Zn	1.780127	0.804633	-0.078395
Zn6	Zn	2.113460	1.137966	0.254938
Zn7	Zn	1.293808	0.331906	-0.403582
Zn8	Zn	1.627141	0.665240	-0.070248
Zn9	Zn	1.960474	0.998573	0.263085
Zn10	Zn	1.285568	0.471246	-0.572971
Zn11	Zn	1.618901	0.804579	-0.239637
Zn12	Zn	1.952234	1.137912	0.093696
O13	O	1.370321	0.401580	-0.488288
O14	O	1.703654	0.734914	-0.154954
O15	O	2.036988	1.068247	0.178379
O16	O	1.588992	0.350373	-0.544573
O17	O	1.922325	0.683706	-0.211240
O18	O	2.255659	1.017040	0.122093
O19	O	1.426466	0.452846	-0.275669
O20	O	1.759799	0.786179	0.057665
O21	O	2.093133	1.119513	0.390998
O22	O	1.322136	0.215236	-0.418177
O23	O	1.655470	0.548569	-0.084843
O24	O	1.988803	0.881902	0.248490
O25	O	1.582879	0.452811	-0.432062
O26	O	1.916212	0.786144	-0.098729
O27	O	2.249545	1.119478	0.234605
O28	O	1.440648	0.215209	-0.536674
O29	O	1.773981	0.548543	-0.203340
O30	O	2.107314	0.881876	0.129993
O31	O	1.314068	0.350435	-0.269683
O32	O	1.647401	0.683768	0.063650
O33	O	1.980734	1.017101	0.396984
O34	O	1.157733	0.350383	-0.426033
O35	O	1.491067	0.683716	-0.092699
O36	O	1.824400	1.017049	0.240634
O37	O	1.308092	0.452720	-0.706876
O38	O	1.641426	0.786053	-0.373542
O39	O	1.974759	1.119386	-0.040209
O40	O	1.151680	0.452755	-0.550482
O41	O	1.485013	0.786088	-0.217149
O42	O	1.818346	1.119422	0.116185
O43	O	1.432658	0.350321	-0.700923
O44	O	1.765991	0.683654	-0.367590
O45	O	2.099324	1.016988	-0.034256
O46	O	1.418476	0.587958	-0.439918
O47	O	1.751809	0.921291	-0.106585
O48	O	2.085143	1.254625	0.226749
O49	O	1.300024	0.587919	-0.558382
O50	O	1.633357	0.921252	-0.225049
O51	O	1.966690	1.254585	0.108285
C52	C	1.119707	0.401568	-0.488253
C53	C	1.453041	0.734901	-0.154920
C54	C	1.786374	1.068234	0.178413
C55	C	1.012493	0.401582	-0.488263
C56	C	1.345826	0.734915	-0.154929
C57	C	1.679159	1.068249	0.178404
C58	C	0.925423	0.401585	-0.488279
C59	C	1.258756	0.734918	-0.154945
C60	C	1.592089	1.068252	0.178388
C61	C	0.816190	0.401591	-0.488308
C62	C	1.149523	0.734924	-0.154975
C63	C	1.482856	1.068257	0.178358
C64	C	1.357479	0.618188	-0.500934
C65	C	1.690812	0.951522	-0.167601
C66	C	2.024146	1.284855	0.165732
C67	C	1.352073	0.710854	-0.506377
C68	C	1.685407	1.044187	-0.173044
C69	C	2.018740	1.377521	0.160290
C70	C	1.342210	0.880516	-0.516333
C71	C	1.675543	1.213849	-0.183000
C72	C	2.008876	1.547182	0.150333
C73	C	1.398468	0.921805	-0.460187
C74	C	1.731802	1.255138	-0.126854
C75	C	2.065135	1.588471	0.206480
C76	C	1.392980	1.016210	-0.465727
C77	C	1.726314	1.349543	-0.132394
C78	C	2.059647	1.682877	0.200940
C79	C	1.347697	0.786102	-0.510795
C80	C	1.681030	1.119435	-0.177461
C81	C	2.014363	1.452768	0.155872
C82	C	1.621913	0.401594	-0.488323
C83	C	1.955246	0.734927	-0.154989
C84	C	2.288580	1.068260	0.178344
C85	C	1.729127	0.401600	-0.488338
C86	C	2.062460	0.734933	-0.155004
C87	C	2.395793	1.068266	0.178329
C88	C	1.383205	1.184127	-0.475595
C89	C	1.716538	1.517460	-0.142261
C90	C	2.049872	1.850793	0.191072
C91	C	1.388608	1.091461	-0.470141
C92	C	1.721941	1.424794	-0.136807
C93	C	2.055274	1.758127	0.196526
C94	C	1.370384	0.401510	-0.739877
C95	C	1.703717	0.734844	-0.406543
C96	C	2.037051	1.068177	-0.073210
C97	C	1.370411	0.401481	-0.847089
C98	C	1.703744	0.734814	-0.513755
C99	C	2.037078	1.068147	-0.180422
C100	C	1.370432	0.401457	-0.934157
C101	C	1.703766	0.734790	-0.600824
C102	C	2.037099	1.068124	-0.267491
C103	C	1.370462	0.401419	-1.043388
C104	C	1.703795	0.734753	-0.710054
C105	C	2.037129	1.068086	-0.376721
C106	C	1.370317	0.401590	-0.237674
C107	C	1.703650	0.734923	0.095660
C108	C	2.036984	1.068257	0.428993
C109	C	1.370491	0.401385	-0.130448
C110	C	1.703824	0.734718	0.202885
C111	C	2.037157	1.068052	0.536218
H112	H	1.450754	0.886252	-0.407958
H113	H	1.784087	1.219586	-0.074624
H114	H	2.117421	1.552919	0.258709
Br115	Br	1.255066	0.939768	-0.603380
Br116	Br	1.588399	1.273101	-0.270047
Br117	Br	1.921733	1.606435	0.063287
