data_functionalizedCrystal
_audit_creation_method	'MofGen! by Chris Wilmer'
_symmetry_space_group_name_H-M	'P1'
_symmetry_Int_Tables_number	1
_symmetry_cell_setting	triclinic
loop_
_symmetry_equiv_pos_as_xyz
  x,y,z
_cell_length_a	14.628931
_cell_length_b	14.628931
_cell_length_c	14.628931
_cell_angle_alpha	120.000164
_cell_angle_beta	90.000118
_cell_angle_gamma	59.999864
loop_
_atom_site_label
_atom_site_type_symbol
_atom_site_fract_x
_atom_site_fract_y
_atom_site_fract_z
Zr1	Zr	0.880615	1.000581	0.119965
O2	O	0.734654	1.191287	0.265926
O3	O	0.925361	0.809875	0.075220
O4	O	0.925360	1.000581	0.265926
O5	O	0.734655	1.000580	-0.075212
O6	O	1.075792	1.000581	0.265926
O7	O	0.734655	1.000581	0.075220
O8	O	1.075793	0.659442	-0.075212
O9	O	0.734654	1.341720	0.265926
O10	O	1.056709	0.888315	0.056137
O11	O	0.944444	0.888315	-0.056129
O12	O	0.944443	1.112847	0.168403
O13	O	0.832178	1.112847	0.056137
Zr14	Zr	1.120537	1.000580	-0.119957
Zr15	Zr	1.120537	1.000581	0.119965
Zr16	Zr	0.880616	1.000580	-0.119957
Zr17	Zr	0.880615	1.240503	0.119965
Zr18	Zr	1.120538	0.760658	-0.119957
O19	O	1.075792	1.191286	-0.075211
O20	O	1.075792	1.191287	0.265927
O21	O	0.734655	1.191286	-0.075212
O22	O	1.266499	0.809874	-0.265918
O23	O	1.266498	0.809875	0.075220
O24	O	0.925361	0.809874	-0.265918
O25	O	1.266498	1.000581	0.075221
O26	O	1.075793	1.000580	-0.265918
O27	O	0.925361	1.000580	-0.265918
O28	O	1.266498	1.000580	-0.075211
O29	O	0.925359	1.341720	0.265927
O30	O	1.075793	0.659442	-0.265918
O31	O	1.266499	0.659442	-0.265918
O32	O	1.266499	0.659442	-0.075212
O33	O	0.734654	1.341719	0.075220
O34	O	0.925360	1.341719	0.075221
O35	O	1.056710	0.888314	-0.168395
O36	O	1.168975	0.888315	-0.056129
O37	O	1.056709	1.112847	0.056137
O38	O	0.944443	1.112846	-0.056129
C39	C	1.000577	0.700475	0.000004
C40	C	1.000577	0.598622	0.000003
C41	C	0.921818	0.631972	0.078763
C42	C	0.921816	0.526703	0.078764
C43	C	0.700471	1.000581	0.000004
C44	C	0.598618	1.000581	0.000003
C45	C	0.553209	1.000581	0.078763
C46	C	0.447938	1.000581	0.078764
C47	C	1.300682	1.000581	0.000005
C48	C	1.402535	1.000581	0.000005
C49	C	1.000576	1.000581	0.300110
C50	C	1.000576	1.000582	0.401963
C51	C	1.000576	1.300686	0.000005
C52	C	1.000576	1.402540	0.000005
C53	C	0.944885	1.111962	0.608328
C54	C	0.944884	1.111965	0.503058
C55	C	1.000577	1.000580	0.699898
C56	C	1.000577	1.000579	0.598045
C57	C	1.300682	0.700475	0.000004
C58	C	1.402535	0.598622	0.000004
C59	C	1.000577	0.700474	-0.300102
C60	C	1.000578	0.598620	-0.401955
C61	C	1.300683	0.700474	-0.300102
C62	C	1.402536	0.598620	-0.401955
C63	C	0.700470	1.300687	0.300110
C64	C	0.598617	1.402541	0.401963
C65	C	0.700471	1.300686	0.000004
C66	C	0.598617	1.402540	0.000004
C67	C	1.000575	1.300687	0.300110
C68	C	1.000575	1.402541	0.401964
C69	C	1.392253	0.553212	0.055695
C70	C	1.497523	0.447942	0.055697
C71	C	1.056269	0.553211	-0.503056
C72	C	1.056271	0.447940	-0.608328
C73	C	1.503637	0.553211	-0.391672
C74	C	1.608909	0.447940	-0.496942
H75	H	1.068007	0.492136	-0.067423
H76	H	1.305517	0.592276	0.103379
H77	H	1.393916	0.559566	-0.488691
H78	H	0.408885	1.000588	0.146197
H79	H	1.048261	0.905218	0.393326
C80	C	0.830719	0.565048	0.169861
N81	N	0.762102	0.593929	0.238480
H82	H	0.897202	1.207320	0.695064
H83	H	1.103943	0.592274	-0.511676
H84	H	0.441575	1.000587	-0.067424
H85	H	1.695639	0.408885	-0.488312
H86	H	0.897209	1.207324	0.511687
H87	H	1.512260	0.592272	-0.304937
C88	C	1.120688	0.395185	-0.725497
N89	N	1.169208	0.355448	-0.813753
H90	H	0.952895	0.559567	-0.393335
C91	C	1.091678	0.364186	-0.091094
N92	N	1.160299	0.335305	-0.159708
H93	H	0.592268	1.000574	0.146188
C94	C	1.065055	0.871751	0.480870
N95	N	1.113647	0.774713	0.392612
C96	C	0.830729	0.775829	0.169865
N97	N	0.762119	0.884184	0.238487
C98	C	1.481457	0.455284	-0.609708
N99	N	1.393201	0.495022	-0.618491
C100	C	0.545868	1.000559	-0.091103
N101	N	0.506140	1.000537	-0.159729
C102	C	1.485860	0.395185	0.120109
N103	N	1.477077	0.355447	0.168626
H104	H	1.489272	0.559567	-0.047670
C105	C	1.610289	0.455289	-0.064408
N106	N	1.619072	0.495031	-0.112922
H107	H	0.952904	0.441575	-0.511314
