data_functionalizedCrystal
_audit_creation_method	'MofGen! by Chris Wilmer'
_symmetry_space_group_name_H-M	'P1'
_symmetry_Int_Tables_number	1
_symmetry_cell_setting	triclinic
loop_
_symmetry_equiv_pos_as_xyz
  x,y,z
_cell_length_a	19.805407
_cell_length_b	18.050589
_cell_length_c	18.050582
_cell_angle_alpha	89.981795
_cell_angle_beta	89.984143
_cell_angle_gamma	90.028221
loop_
_atom_site_label
_atom_site_type_symbol
_atom_site_fract_x
_atom_site_fract_y
_atom_site_fract_z
Zn1	Zn	1.034702	-0.295707	-0.419954
Zn2	Zn	1.368036	0.037627	-0.086620
Zn3	Zn	1.701369	0.370960	0.246713
Zn4	Zn	1.034621	-0.419890	-0.295773
Zn5	Zn	1.367954	-0.086557	0.037560
Zn6	Zn	1.701288	0.246777	0.370894
Zn7	Zn	0.921524	-0.295718	-0.295776
Zn8	Zn	1.254858	0.037615	0.037558
Zn9	Zn	1.588191	0.370948	0.370891
Zn10	Zn	0.921477	-0.419859	-0.419920
Zn11	Zn	1.254810	-0.086526	-0.086586
Zn12	Zn	1.588144	0.246807	0.246747
O13	O	0.978081	-0.357794	-0.357855
O14	O	1.311414	-0.024460	-0.024522
O15	O	1.644748	0.308873	0.308811
O16	O	1.129408	-0.312188	-0.403494
O17	O	1.462741	0.021146	-0.070161
O18	O	1.796075	0.354479	0.263173
O19	O	1.019604	-0.403436	-0.191849
O20	O	1.352938	-0.070103	0.141485
O21	O	1.686271	0.263231	0.474818
O22	O	0.936592	-0.191792	-0.312264
O23	O	1.269925	0.141541	0.021070
O24	O	1.603258	0.474875	0.354403
O25	O	1.129348	-0.403425	-0.312259
O26	O	1.462682	-0.070091	0.021074
O27	O	1.796015	0.263242	0.354408
O28	O	1.019743	-0.191784	-0.403497
O29	O	1.353076	0.141550	-0.070163
O30	O	1.686410	0.474883	0.263170
O31	O	0.936513	-0.312208	-0.191851
O32	O	1.269846	0.021126	0.141483
O33	O	1.603179	0.354459	0.474816
O34	O	0.826801	-0.312178	-0.312230
O35	O	1.160135	0.021155	0.021103
O36	O	1.493468	0.354489	0.354436
O37	O	0.936511	-0.403373	-0.523849
O38	O	1.269844	-0.070039	-0.190515
O39	O	1.603177	0.263294	0.142818
O40	O	0.826767	-0.403384	-0.403438
O41	O	1.160100	-0.070050	-0.070105
O42	O	1.493433	0.263283	0.263228
O43	O	1.019697	-0.312158	-0.523874
O44	O	1.353030	0.021175	-0.190540
O45	O	1.686364	0.354509	0.142793
O46	O	1.019558	-0.523810	-0.312226
O47	O	1.352892	-0.190477	0.021107
O48	O	1.686225	0.142856	0.354441
O49	O	0.936432	-0.523788	-0.403436
O50	O	1.269765	-0.190455	-0.070103
O51	O	1.603098	0.142879	0.263231
C52	C	0.802225	-0.357779	-0.357831
C53	C	1.135558	-0.024446	-0.024498
C54	C	1.468892	0.308887	0.308835
C55	C	0.726993	-0.357791	-0.357839
C56	C	1.060326	-0.024458	-0.024505
C57	C	1.393660	0.308876	0.308828
C58	C	0.977999	-0.550746	-0.357843
C59	C	1.311333	-0.217412	-0.024510
C60	C	1.644666	0.115921	0.308824
C61	C	0.978026	-0.633291	-0.357863
C62	C	1.311360	-0.299958	-0.024529
C63	C	1.644693	0.033375	0.308804
C64	C	0.691649	-0.405354	-0.405254
C65	C	1.024982	-0.072020	-0.071921
C66	C	1.358315	0.261313	0.261413
C67	C	0.620960	-0.405355	-0.405264
C68	C	0.954293	-0.072021	-0.071931
C69	C	1.287627	0.261312	0.261402
C70	C	0.585618	-0.357797	-0.357855
C71	C	0.918951	-0.024464	-0.024522
C72	C	1.252284	0.308870	0.308811
C73	C	0.620967	-0.310229	-0.310438
C74	C	0.954300	0.023104	0.022895
C75	C	1.287634	0.356437	0.356228
C76	C	0.691654	-0.310225	-0.310432
C77	C	1.024988	0.023109	0.022901
C78	C	1.358321	0.356442	0.356235
C79	C	0.335894	-0.310246	-0.310463
C80	C	0.669227	0.023088	0.022871
C81	C	1.002560	0.356421	0.356204
C82	C	0.265202	-0.310255	-0.310471
C83	C	0.598535	0.023078	0.022862
C84	C	0.931868	0.356411	0.356196
C85	C	0.265200	-0.405376	-0.405295
C86	C	0.598533	-0.072042	-0.071962
C87	C	0.931866	0.261291	0.261372
C88	C	0.335887	-0.405371	-0.405289
C89	C	0.669220	-0.072038	-0.071956
C90	C	1.002553	0.261295	0.261378
C91	C	0.371230	-0.357801	-0.357875
C92	C	0.704563	-0.024468	-0.024542
C93	C	1.037897	0.308865	0.308792
C94	C	0.447879	-0.357799	-0.357865
C95	C	0.781212	-0.024466	-0.024532
C96	C	1.114545	0.308867	0.308802
C97	C	0.508970	-0.357802	-0.357861
C98	C	0.842304	-0.024469	-0.024528
C99	C	1.175637	0.308865	0.308806
C100	C	0.932867	-0.832757	-0.407445
C101	C	1.266200	-0.499423	-0.074112
C102	C	1.599533	-0.166090	0.259221
C103	C	0.916372	-0.882191	-0.339678
C104	C	1.249706	-0.548857	-0.006344
C105	C	1.583039	-0.215524	0.326989
C106	C	0.978093	-0.784422	-0.357872
C107	C	1.311426	-0.451088	-0.024539
C108	C	1.644760	-0.117755	0.308794
C109	C	0.994620	-0.882070	-0.425648
C110	C	1.327954	-0.548736	-0.092314
C111	C	1.661287	-0.215403	0.241019
C112	C	0.978156	-0.930407	-0.357888
C113	C	1.311489	-0.597074	-0.024554
C114	C	1.644822	-0.263740	0.308779
C115	C	0.961566	-0.832769	-0.290069
C116	C	1.294899	-0.499435	0.043264
C117	C	1.628233	-0.166102	0.376598
C118	C	1.039843	-0.832643	-0.376085
C119	C	1.373176	-0.499310	-0.042751
C120	C	1.706510	-0.165976	0.290582
C121	C	1.023372	-0.882055	-0.308270
C122	C	1.356705	-0.548721	0.025063
C123	C	1.690039	-0.215388	0.358396
C124	C	0.978055	-0.700324	-0.357865
C125	C	1.311388	-0.366990	-0.024531
C126	C	1.644722	-0.033657	0.308802
C127	C	0.978194	-1.014503	-0.357888
C128	C	1.311527	-0.681170	-0.024555
C129	C	1.644861	-0.347837	0.308779
C130	C	1.154624	-0.357808	-0.357880
C131	C	1.487957	-0.024475	-0.024547
C132	C	1.821290	0.308858	0.308787
C133	C	1.229856	-0.357815	-0.357890
C134	C	1.563189	-0.024481	-0.024557
C135	C	1.896522	0.308852	0.308776
C136	C	0.978108	-0.357761	-0.551561
C137	C	1.311441	-0.024427	-0.218228
C138	C	1.644774	0.308906	0.115106
C139	C	0.978119	-0.357747	-0.634107
C140	C	1.311452	-0.024413	-0.300774
C141	C	1.644786	0.308920	0.032560
C142	C	0.978182	-0.164088	-0.357884
C143	C	1.311515	0.169245	-0.024551
C144	C	1.644848	0.502579	0.308783
C145	C	0.978224	-0.081542	-0.357896
C146	C	1.311558	0.251791	-0.024563
C147	C	1.644891	0.585125	0.308770
C148	C	0.932917	-0.407281	-0.833544
C149	C	1.266250	-0.073948	-0.500211
C150	C	1.599584	0.259385	-0.166877
C151	C	0.994669	-0.425435	-0.882938
C152	C	1.328002	-0.092101	-0.549605
C153	C	1.661335	0.241232	-0.216271
C154	C	0.978152	-0.357690	-0.785237
C155	C	1.311486	-0.024357	-0.451904
C156	C	1.644819	0.308977	-0.118571
C157	C	0.916434	-0.339516	-0.882925
C158	C	1.249768	-0.006182	-0.549592
C159	C	1.583101	0.327151	-0.216259
C160	C	0.978179	-0.357637	-0.931223
C161	C	1.311512	-0.024303	-0.597889
C162	C	1.644846	0.309030	-0.264556
C163	C	1.039937	-0.375879	-0.833544
C164	C	1.373270	-0.042546	-0.500211
C165	C	1.706603	0.290788	-0.166877
C166	C	0.961661	-0.289928	-0.833527
C167	C	1.294994	0.043405	-0.500194
C168	C	1.628327	0.376738	-0.166860
C169	C	1.023455	-0.308056	-0.882899
C170	C	1.356788	0.025277	-0.549565
C171	C	1.690122	0.358610	-0.216232
C172	C	0.978136	-0.357723	-0.701139
C173	C	1.311469	-0.024389	-0.367806
C174	C	1.644803	0.308944	-0.034472
C175	C	0.978202	-0.357604	-1.015319
C176	C	1.311536	-0.024270	-0.681986
C177	C	1.644869	0.309063	-0.348653
C178	C	0.978094	-0.357773	-0.164903
C179	C	1.311427	-0.024439	0.168430
C180	C	1.644760	0.308894	0.501763
C181	C	0.978214	-0.357578	-0.082358
C182	C	1.311547	-0.024244	0.250975
C183	C	1.644880	0.309089	0.584309
H184	H	0.720419	-0.444083	-0.443857
H185	H	1.053753	-0.110750	-0.110524
H186	H	1.387086	0.222583	0.222809
Br187	Br	1.017948	-0.520906	-0.919112
Br188	Br	1.351281	-0.187573	-0.585779
Br189	Br	1.684615	0.145760	-0.252446
H190	H	0.864229	-0.324166	-0.904617
H191	H	1.197562	0.009167	-0.571284
H192	H	1.530896	0.342500	-0.237951
Br193	Br	1.087167	-0.917906	-0.238332
Br194	Br	1.420501	-0.584573	0.095001
Br195	Br	1.753834	-0.251240	0.428334
Br196	Br	1.126974	-0.401578	-0.797548
Br197	Br	1.460307	-0.068245	-0.464215
Br198	Br	1.793641	0.265088	-0.130881
Br199	Br	0.829381	-0.918462	-0.314002
Br200	Br	1.162714	-0.585129	0.019331
Br201	Br	1.496047	-0.251795	0.352664
Br202	Br	0.383848	-0.469921	-0.469627
Br203	Br	0.717182	-0.136587	-0.136294
Br204	Br	1.050515	0.196746	0.197039
H205	H	1.092022	-0.810865	-0.391507
H206	H	1.425355	-0.477531	-0.058174
H207	H	1.758688	-0.144198	0.275159
H208	H	0.720431	-0.271491	-0.271826
H209	H	1.053764	0.061843	0.061508
H210	H	1.387098	0.395176	0.394841
Br211	Br	0.572995	-0.469905	-0.469618
Br212	Br	0.906328	-0.136571	-0.136285
Br213	Br	1.239661	0.196762	0.197048
H214	H	0.236415	-0.444107	-0.443905
H215	H	0.569748	-0.110774	-0.110571
H216	H	0.903081	0.222560	0.222762
Br217	Br	0.573003	-0.245678	-0.246104
Br218	Br	0.906336	0.087655	0.087230
Br219	Br	1.239670	0.420988	0.420563
Br220	Br	0.938211	-0.796829	-0.194518
Br221	Br	1.271544	-0.463496	0.138815
Br222	Br	1.604878	-0.130163	0.472148
H223	H	1.008574	-0.903725	-0.482959
H224	H	1.341908	-0.570392	-0.149625
H225	H	1.675241	-0.237059	0.183708
Br226	Br	0.869216	-0.477267	-0.797422
Br227	Br	1.202549	-0.143933	-0.464089
Br228	Br	1.535883	0.189400	-0.130756
Br229	Br	1.087303	-0.238118	-0.918795
Br230	Br	1.420637	0.095215	-0.585462
Br231	Br	1.753970	0.428548	-0.252129
H232	H	0.236428	-0.271523	-0.271865
H233	H	0.569761	0.061810	0.061468
H234	H	0.903094	0.395143	0.394802
Br235	Br	0.869031	-0.796675	-0.477222
Br236	Br	1.202365	-0.463342	-0.143889
Br237	Br	1.535698	-0.130009	0.189444
Br238	Br	0.383851	-0.245682	-0.246119
Br239	Br	0.717184	0.087651	0.087214
Br240	Br	1.050518	0.420984	0.420548
Br241	Br	0.938355	-0.194481	-0.797323
Br242	Br	1.271689	0.138853	-0.463990
Br243	Br	1.605022	0.472186	-0.130656
