data_functionalizedCrystal
_audit_creation_method	'MofGen! by Chris Wilmer'
_symmetry_space_group_name_H-M	'P1'
_symmetry_Int_Tables_number	1
_symmetry_cell_setting	triclinic
loop_
_symmetry_equiv_pos_as_xyz
  x,y,z
_cell_length_a	12.759401
_cell_length_b	15.297327
_cell_length_c	12.759393
_cell_angle_alpha	99.642347
_cell_angle_beta	89.979527
_cell_angle_gamma	99.708126
loop_
_atom_site_label
_atom_site_type_symbol
_atom_site_fract_x
_atom_site_fract_y
_atom_site_fract_z
Zn1	Zn	1.533811	-0.359076	-0.666328
Zn2	Zn	2.033811	0.140924	-0.166328
Zn3	Zn	1.503259	-0.509963	-0.521033
Zn4	Zn	2.003259	-0.009963	-0.021033
Zn5	Zn	1.358101	-0.359126	-0.490673
Zn6	Zn	1.858101	0.140874	0.009327
Zn7	Zn	1.327670	-0.509899	-0.696657
Zn8	Zn	1.827670	-0.009899	-0.196657
O9	O	1.430711	-0.434516	-0.593673
O10	O	1.930711	0.065484	-0.093673
O11	O	1.676778	-0.379098	-0.647067
O12	O	2.176778	0.120902	-0.147067
O13	O	1.483953	-0.490002	-0.369994
O14	O	1.983953	0.009998	0.130006
O15	O	1.406931	-0.232873	-0.488576
O16	O	1.906931	0.267127	0.011424
O17	O	1.654332	-0.489954	-0.540320
O18	O	2.154332	0.010046	-0.040320
O19	O	1.536024	-0.232837	-0.617629
O20	O	2.036024	0.267163	-0.117629
O21	O	1.377306	-0.379182	-0.347689
O22	O	1.877306	0.120818	0.152311
O23	O	1.207045	-0.379120	-0.517985
O24	O	1.707045	0.120880	-0.017985
O25	O	1.355066	-0.489844	-0.839646
O26	O	1.855066	0.010156	-0.339646
O27	O	1.184687	-0.489892	-0.669320
O28	O	1.684687	0.010108	-0.169320
O29	O	1.506517	-0.379035	-0.817363
O30	O	2.006517	0.120965	-0.317363
O31	O	1.454446	-0.636200	-0.569728
O32	O	1.954446	-0.136200	-0.069728
O33	O	1.325441	-0.636153	-0.698759
O34	O	1.825441	-0.136153	-0.198759
C35	C	1.157745	-0.434505	-0.593650
C36	C	1.657745	0.065495	-0.093650
C37	C	1.040965	-0.434522	-0.593669
C38	C	1.540965	0.065478	-0.093669
C39	C	1.383355	-0.668911	-0.640852
C40	C	1.883355	-0.168911	-0.140852
C41	C	1.363192	-0.769186	-0.661070
C42	C	1.863192	-0.269186	-0.161070
C43	C	0.974472	-0.492289	-0.672382
C44	C	1.474472	0.007711	-0.172382
C45	C	0.864747	-0.492292	-0.672403
C46	C	1.364747	0.007708	-0.172403
C47	C	0.888020	-0.376759	-0.514991
C48	C	1.388020	0.123241	-0.014991
C49	C	0.997743	-0.376752	-0.514974
C50	C	1.497743	0.123248	-0.014974
C51	C	1.575251	-1.051818	-0.449527
C52	C	2.075251	-0.551818	0.050473
C53	C	1.594195	-0.957604	-0.430526
C54	C	2.094195	-0.457604	0.069474
C55	C	1.536446	-0.910495	-0.488160
C56	C	2.036446	-0.410495	0.011840
C57	C	1.459750	-0.957608	-0.564800
C58	C	1.959750	-0.457608	-0.064800
C59	C	1.440798	-1.051831	-0.583797
C60	C	1.940798	-0.551831	-0.083797
C61	C	1.401993	-0.910508	-0.622430
C62	C	1.901993	-0.410508	-0.122430
C63	C	1.325297	-0.957622	-0.699069
C64	C	1.825297	-0.457622	-0.199069
C65	C	1.306350	-1.051835	-0.718064
C66	C	1.806350	-0.551835	-0.218064
C67	C	1.364098	-1.098944	-0.660429
C68	C	1.864098	-0.598944	-0.160429
C69	C	1.420945	-0.816286	-0.603433
C70	C	1.920945	-0.316286	-0.103433
C71	C	1.286492	-0.816299	-0.737702
C72	C	1.786492	-0.316299	-0.237702
C73	C	1.267548	-0.910512	-0.756704
C74	C	1.767548	-0.410512	-0.256704
C75	C	1.704741	-0.434528	-0.593697
C76	C	2.204741	0.065472	-0.093697
C77	C	1.821517	-0.434533	-0.593707
C78	C	2.321517	0.065467	-0.093707
C79	C	1.430805	-0.434427	-0.867689
C80	C	1.930805	0.065573	-0.367689
C81	C	1.430845	-0.434389	-0.984458
C82	C	1.930845	0.065611	-0.484458
C83	C	1.478280	-0.199206	-0.546333
C84	C	1.978280	0.300794	-0.046333
C85	C	1.498551	-0.098931	-0.526159
C86	C	1.998551	0.401069	-0.026159
C87	C	1.509741	-0.376648	-1.137441
C88	C	2.009741	0.123352	-0.637441
C89	C	1.509714	-0.376683	-1.027724
C90	C	2.009714	0.123317	-0.527724
C91	C	1.352005	-0.492071	-1.050916
C92	C	1.852005	0.007929	-0.550916
C93	C	1.352037	-0.492040	-1.160632
C94	C	1.852037	0.007960	-0.660632
C95	C	1.430690	-0.434539	-0.320710
C96	C	1.930690	0.065461	0.179290
C97	C	1.430905	-0.434323	-0.203891
C98	C	1.930905	0.065677	0.296109
H99	H	1.009660	-0.539326	-0.736462
H100	H	1.509660	-0.039326	-0.236462
Br101	Br	1.245046	-0.570328	-1.250823
Br102	Br	1.745046	-0.070328	-0.750823
H103	H	1.656639	-0.919248	-0.368126
H104	H	2.156639	-0.419248	0.131874
H105	H	0.810612	-0.539330	-0.736500
H106	H	1.310612	-0.039330	-0.236500
Br107	Br	1.244971	-0.570391	-0.992199
Br108	Br	1.744971	-0.070391	-0.492199
Br109	Br	1.087995	-0.298340	-0.408151
Br110	Br	1.587995	0.201660	0.091849
H111	H	1.622256	-1.090182	-0.402603
H112	H	2.122256	-0.590182	0.097397
H113	H	1.243886	-1.090192	-0.780456
H114	H	1.743886	-0.590192	-0.280456
Br115	Br	0.829354	-0.298362	-0.408195
Br116	Br	1.329354	0.201638	0.091805
H117	H	1.483391	-0.777934	-0.541032
H118	H	1.983391	-0.277934	-0.041032
H119	H	1.551874	-0.833782	-0.472684
H120	H	2.051874	-0.333782	0.027316
H121	H	1.573911	-0.329719	-0.973625
H122	H	2.073911	0.170281	-0.473625
Br123	Br	1.337921	-1.226810	-0.685743
Br124	Br	1.837921	-0.726810	-0.185743
Br125	Br	1.163466	-0.974462	-0.860713
Br126	Br	1.663466	-0.474462	-0.360713
Br127	Br	1.208103	-0.752373	-0.815916
Br128	Br	1.708103	-0.252373	-0.315916
Br129	Br	1.616771	-0.298315	-1.196146
Br130	Br	2.116771	0.201685	-0.696146
