data_functionalizedCrystal
_audit_creation_method	'MofGen! by Chris Wilmer'
_symmetry_space_group_name_H-M	'P1'
_symmetry_Int_Tables_number	1
_symmetry_cell_setting	triclinic
loop_
_symmetry_equiv_pos_as_xyz
  x,y,z
_cell_length_a	21.395364
_cell_length_b	29.839131
_cell_length_c	21.395355
_cell_angle_alpha	90.020172
_cell_angle_beta	90.024552
_cell_angle_gamma	90.056371
loop_
_atom_site_label
_atom_site_type_symbol
_atom_site_fract_x
_atom_site_fract_y
_atom_site_fract_z
Zn1	Zn	0.957813	-0.178726	0.354254
Zn2	Zn	1.457813	0.321274	0.854254
Zn3	Zn	0.957696	-0.253841	0.249474
Zn4	Zn	1.457696	0.246159	0.749474
Zn5	Zn	0.853028	-0.178746	0.249491
Zn6	Zn	1.353028	0.321254	0.749491
Zn7	Zn	0.852977	-0.253849	0.354214
Zn8	Zn	1.352977	0.246151	0.854214
O9	O	0.905378	-0.216291	0.301858
O10	O	1.405378	0.283709	0.801858
O11	O	1.045475	-0.188679	0.340365
O12	O	1.545475	0.311321	0.840365
O13	O	0.943783	-0.243885	0.161798
O14	O	1.443783	0.256115	0.661798
O15	O	0.866998	-0.115876	0.263412
O16	O	1.366998	0.384124	0.763412
O17	O	1.045389	-0.243866	0.263383
O18	O	1.545389	0.256134	0.763383
O19	O	0.943983	-0.115862	0.340381
O20	O	1.443983	0.384138	0.840381
O21	O	0.866884	-0.188712	0.161811
O22	O	1.366884	0.311288	0.661811
O23	O	0.765343	-0.188720	0.263373
O24	O	1.265343	0.311280	0.763373
O25	O	0.866912	-0.243879	0.441897
O26	O	1.366912	0.256121	0.941897
O27	O	0.765306	-0.243898	0.340313
O28	O	1.265306	0.256102	0.840313
O29	O	0.943934	-0.188687	0.441927
O30	O	1.443934	0.311313	0.941927
O31	O	0.943734	-0.316710	0.263344
O32	O	1.443734	0.183290	0.763344
O33	O	0.866798	-0.316716	0.340296
O34	O	1.366798	0.183284	0.840296
C35	C	0.742591	-0.216313	0.301841
C36	C	1.242591	0.283687	0.801841
C37	C	0.672949	-0.216333	0.301848
C38	C	1.172949	0.283667	0.801848
C39	C	0.905265	-0.333013	0.301827
C40	C	1.405265	0.166987	0.801827
C41	C	0.905274	-0.382948	0.301835
C42	C	1.405274	0.117052	0.801835
C43	C	0.640303	-0.187644	0.341994
C44	C	1.140303	0.312356	0.841994
C45	C	0.574868	-0.187632	0.341997
C46	C	1.074868	0.312368	0.841997
C47	C	0.542081	-0.216317	0.301859
C48	C	1.042081	0.283683	0.801859
C49	C	0.574735	-0.245008	0.261705
C50	C	1.074735	0.254992	0.761705
C51	C	0.640169	-0.245016	0.261699
C52	C	1.140169	0.254984	0.761699
C53	C	0.438346	-0.256775	0.296820
C54	C	0.938346	0.243225	0.796820
C55	C	0.372913	-0.256768	0.296830
C56	C	0.872913	0.243232	0.796830
C57	C	0.340260	-0.216292	0.301873
C58	C	0.840260	0.283708	0.801873
C59	C	0.373048	-0.175823	0.306919
C60	C	0.873048	0.324177	0.806919
C61	C	0.438483	-0.175831	0.306914
C62	C	0.938483	0.324169	0.806914
C63	C	0.471129	-0.216311	0.301861
C64	C	0.971129	0.283689	0.801861
C65	C	0.236662	-0.187588	0.342024
C66	C	0.736662	0.312412	0.842024
C67	C	0.171225	-0.187575	0.342022
C68	C	0.671225	0.312425	0.842022
C69	C	0.171093	-0.244955	0.261734
C70	C	0.671093	0.255045	0.761734
C71	C	0.236529	-0.244964	0.261733
C72	C	0.736529	0.255036	0.761733
C73	C	0.269309	-0.216281	0.301881
C74	C	0.769309	0.283719	0.801881
C75	C	0.945512	-0.692575	0.261848
C76	C	1.445512	-0.192575	0.761848
C77	C	0.945589	-0.880248	0.261872
C78	C	1.445589	-0.380248	0.761872
O79	O	0.979711	-0.904500	0.227850
O80	O	1.479711	-0.404500	0.727850
N81	N	0.905508	-0.903733	0.301905
N82	N	1.405508	-0.403733	0.801905
C83	C	0.865408	-0.880296	0.341939
C84	C	1.365408	-0.380296	0.841939
O85	O	0.831323	-0.904577	0.375994
O86	O	1.331323	-0.404577	0.875994
C87	C	0.865334	-0.692624	0.341917
C88	C	1.365334	-0.192624	0.841917
C89	C	0.905413	-0.669142	0.301876
C90	C	1.405413	-0.169142	0.801876
C91	C	0.985588	-0.669093	0.221811
C92	C	1.485588	-0.169093	0.721811
C93	C	0.985566	-0.622178	0.221803
C94	C	1.485566	-0.122178	0.721803
C95	C	0.945467	-0.598744	0.261832
C96	C	1.445467	-0.098744	0.761832
C97	C	0.905391	-0.622226	0.301868
C98	C	1.405391	-0.122226	0.801868
C99	C	0.825238	-0.669188	0.381953
C100	C	1.325238	-0.169188	0.881953
C101	C	0.825224	-0.622267	0.381945
C102	C	1.325224	-0.122267	0.881945
C103	C	0.865303	-0.598785	0.341904
C104	C	1.365303	-0.098785	0.841904
C105	C	0.865271	-0.551878	0.341889
C106	C	1.365271	-0.051878	0.841889
N107	N	0.905351	-0.528393	0.301856
N108	N	1.405351	-0.028393	0.801856
C109	C	0.945450	-0.551827	0.261827
C110	C	1.445450	-0.051827	0.761827
C111	C	0.865449	-0.978827	0.341946
C112	C	1.365449	-0.478827	0.841946
C113	C	0.865466	-1.025744	0.341951
C114	C	1.365466	-0.525744	0.841951
C115	C	0.945648	-1.025694	0.261885
C116	C	1.445648	-0.525694	0.761885
C117	C	0.945627	-0.978775	0.261878
C118	C	1.445627	-0.478775	0.761878
C119	C	0.905530	-0.955342	0.301913
C120	C	1.405530	-0.455342	0.801913
C121	C	0.945400	-0.453301	0.261813
C122	C	1.445400	0.046699	0.761813
C123	C	0.945372	-0.406381	0.261806
C124	C	1.445372	0.093619	0.761806
C125	C	0.865193	-0.406436	0.341874
C126	C	1.365193	0.093564	0.841874
C127	C	0.865218	-0.453352	0.341878
C128	C	1.365218	0.046648	0.841878
C129	C	0.905326	-0.476783	0.301845
C130	C	1.405326	0.023217	0.801845
O131	O	0.831172	-0.527597	0.375898
O132	O	1.331172	-0.027597	0.875898
O133	O	0.979540	-0.527537	0.227786
O134	O	1.479540	-0.027537	0.727786
C135	C	0.945534	-0.739491	0.261856
C136	C	1.445534	-0.239491	0.761856
C137	C	0.905458	-0.762973	0.301893
C138	C	1.405458	-0.262973	0.801893
C139	C	0.865359	-0.739539	0.341921
C140	C	1.365359	-0.239539	0.841921
C141	C	0.905475	-0.809891	0.301897
C142	C	1.405475	-0.309891	0.801897
C143	C	0.945574	-0.833324	0.261869
C144	C	1.445574	-0.333324	0.761869
C145	C	0.985654	-0.809840	0.221835
C146	C	1.485654	-0.309840	0.721835
C147	C	0.985632	-0.762924	0.221827
C148	C	1.485632	-0.262924	0.721827
C149	C	0.825278	-0.763024	0.381955
C150	C	1.325278	-0.263024	0.881955
C151	C	0.825303	-0.809939	0.381959
C152	C	1.325303	-0.309939	0.881959
C153	C	0.865402	-0.833373	0.341930
C154	C	1.365402	-0.333373	0.841930
C155	C	1.068802	-0.216269	0.301876
C156	C	1.568802	0.283731	0.801876
C157	C	1.138443	-0.216260	0.301884
C158	C	1.638443	0.283740	0.801884
C159	C	0.905430	-0.216282	0.465282
C160	C	1.405430	0.283718	0.965282
C161	C	0.905452	-0.216278	0.534923
C162	C	1.405452	0.283722	1.034923
C163	C	0.905509	-0.099112	0.301903
C164	C	1.405509	0.400888	0.801903
C165	C	0.905565	-0.049178	0.301922
C166	C	1.405565	0.450822	0.801922
C167	C	0.905362	-0.216267	0.139071
C168	C	1.405362	0.283733	0.639071
C169	C	0.905462	-0.216145	0.069430
C170	C	1.405462	0.283855	0.569430
C171	C	0.945556	-0.187538	0.567652
C172	C	1.445556	0.312462	1.067652
C173	C	0.945555	-0.187518	0.633088
C174	C	1.445555	0.312482	1.133088
C175	C	0.905457	-0.216247	0.665791
C176	C	1.405457	0.283753	1.165791
C177	C	0.865346	-0.244989	0.633054
C178	C	1.365346	0.255011	1.133054
C179	C	0.865343	-0.245005	0.567620
C180	C	1.365343	0.254995	1.067620
C181	C	0.900471	-0.256699	0.769455
C182	C	1.400471	0.243301	1.269455
C183	C	0.900478	-0.256685	0.834888
C184	C	1.400478	0.243315	1.334888
C185	C	0.905461	-0.216200	0.867612
C186	C	1.405461	0.283800	1.367612
C187	C	0.910451	-0.175728	0.834895
C188	C	1.410451	0.324272	1.334895
C189	C	0.910449	-0.175743	0.769461
C190	C	1.410449	0.324257	1.269461
C191	C	0.905455	-0.216234	0.736744
C192	C	1.405455	0.283766	1.236744
C193	C	0.945566	-0.187436	0.971294
C194	C	1.445566	0.312564	1.471294
C195	C	0.945561	-0.187416	1.036731
C196	C	1.445561	0.312584	1.536731
C197	C	0.865355	-0.244891	1.036696
C198	C	1.365355	0.255109	1.536696
C199	C	0.865357	-0.244907	0.971260
C200	C	1.365357	0.255093	1.471260
C201	C	0.905466	-0.216180	0.938563
C202	C	1.405466	0.283820	1.438563
H203	H	0.548282	-0.164268	0.374688
H204	H	1.048282	0.335732	0.874688
H205	H	0.978222	-0.164043	0.944671
H206	H	1.478222	0.335957	1.444671
O207	O	0.988611	-0.381057	0.218624
O208	O	1.488611	0.118943	0.718624
H209	H	0.981861	-0.344494	0.225338
H210	H	1.481861	0.155506	0.725338
O211	O	0.337842	-0.132161	0.312354
O212	O	0.837842	0.367839	0.812354
H213	H	0.286833	-0.138952	0.311502
H214	H	0.786833	0.361048	0.811502
H215	H	0.978217	-0.164010	1.063378
H216	H	1.478217	0.335990	1.563378
H217	H	0.832584	-0.472472	0.374484
H218	H	1.332584	0.027528	0.874484
H219	H	0.832543	-0.387349	0.374463
H220	H	1.332543	0.112651	0.874463
O221	O	0.473850	-0.132185	0.312340
O222	O	0.973850	0.367815	0.812340
H223	H	0.440157	-0.104036	0.315840
H224	H	0.940157	0.395964	0.815840
H225	H	1.018268	-0.743809	0.189223
H226	H	1.518268	-0.243809	0.689223
H227	H	0.263109	-0.268327	0.229044
H228	H	0.763109	0.231673	0.729044
O229	O	1.028918	-0.835118	0.178673
O230	O	1.528918	-0.335118	0.678673
H231	H	1.022202	-0.871687	0.185417
H232	H	1.522202	-0.371687	0.685417
O233	O	0.915829	-0.132095	0.734174
O234	O	1.415829	0.367905	1.234174
H235	H	0.873864	-0.127525	0.704342
H236	H	1.373864	0.372475	1.204342
H237	H	0.144399	-0.268311	0.229053
H238	H	0.644399	0.231689	0.729053
H239	H	0.792598	-0.688299	0.414555
H240	H	1.292598	-0.188299	0.914555
O241	O	0.988653	-0.478570	0.218631
O242	O	1.488653	0.021430	0.718631
H243	H	1.016509	-0.454353	0.190788
H244	H	1.516509	0.045647	0.690788
H245	H	0.792572	-0.603190	0.414548
H246	H	1.292572	-0.103190	0.914548
H247	H	0.832704	-0.268313	0.944611
H248	H	1.332704	0.231687	1.444611
H249	H	1.018203	-0.603062	0.189201
H250	H	1.518203	-0.103062	0.689201
H251	H	0.896418	-0.289639	0.861521
H252	H	1.396418	0.210361	1.361521
H253	H	0.464927	-0.289737	0.292713
H254	H	0.964927	0.210263	0.792713
H255	H	0.978211	-0.164112	0.659741
H256	H	1.478211	0.335888	1.159741
O257	O	0.822103	-0.275878	1.071958
O258	O	1.322103	0.224122	1.571958
H259	H	0.828844	-0.271041	1.122958
H260	H	1.328844	0.228959	1.622958
O261	O	0.337550	-0.300413	0.291376
O262	O	0.837550	0.199587	0.791376
H263	H	0.371246	-0.328558	0.287851
H264	H	0.871246	0.171442	0.787851
O265	O	1.028836	-0.694365	0.178630
O266	O	1.528836	-0.194365	0.678630
H267	H	1.056692	-0.670147	0.150790
H268	H	1.556692	-0.170147	0.650790
H269	H	0.832824	-1.044859	0.374550
H270	H	1.332824	-0.544859	0.874550
O271	O	0.988861	-0.953448	0.218699
O272	O	1.488861	-0.453448	0.718699
H273	H	1.016747	-0.977630	0.190871
H274	H	1.516747	-0.477630	0.690871
O275	O	0.782073	-0.835265	0.425149
O276	O	1.282073	-0.335265	0.925149
H277	H	0.754194	-0.811083	0.452984
H278	H	1.254194	-0.311083	0.952984
O279	O	0.895095	-0.300368	0.734163
O280	O	1.395095	0.199632	1.234163
H281	H	0.852646	-0.299668	0.704339
H282	H	1.352646	0.200332	1.204339
H283	H	0.978298	-1.044781	0.229292
H284	H	1.478298	-0.544781	0.729292
O285	O	0.822072	-0.275998	0.532321
O286	O	1.322072	0.224002	1.032321
H287	H	0.832767	-0.311256	0.544877
H288	H	1.332767	0.188744	1.044877
O289	O	0.822093	-0.275973	0.668325
O290	O	1.322093	0.224027	1.168325
H291	H	0.832791	-0.311234	0.655765
H292	H	1.332791	0.188766	1.155765
O293	O	0.675661	-0.156701	0.385283
O294	O	1.175661	0.343299	0.885283
H295	H	0.641962	-0.136745	0.413194
H296	H	1.141962	0.363255	0.913194
O297	O	0.988812	-0.156554	0.532385
O298	O	1.488812	0.343446	1.032385
H299	H	1.016696	-0.136564	0.566142
H300	H	1.516696	0.363436	1.066142
O301	O	0.782014	-0.737751	0.425117
O302	O	1.282014	-0.237751	0.925117
H303	H	0.754143	-0.761968	0.452945
H304	H	1.254143	-0.261968	0.952945
O305	O	0.822183	-0.953555	0.385114
O306	O	1.322183	-0.453555	0.885114
H307	H	0.794311	-0.977771	0.412940
H308	H	1.294311	-0.477771	0.912940
H309	H	0.144646	-0.164211	0.374713
H310	H	0.644646	0.335789	0.874713
O311	O	0.272025	-0.156648	0.385315
O312	O	0.772025	0.343352	0.885315
H313	H	0.238328	-0.136690	0.413225
H314	H	0.738328	0.363310	0.913225
H315	H	0.548036	-0.268363	0.229025
H316	H	1.048036	0.231637	0.729025
H317	H	0.666749	-0.268378	0.229007
H318	H	1.166749	0.231622	0.729007
O319	O	0.915810	-0.132056	0.870178
O320	O	1.415810	0.367944	1.370178
H321	H	0.914960	-0.138841	0.921175
H322	H	1.414960	0.361159	1.421175
