data_functionalizedCrystal
_audit_creation_method	'MofGen! by Chris Wilmer'
_symmetry_space_group_name_H-M	'P1'
_symmetry_Int_Tables_number	1
_symmetry_cell_setting	triclinic
loop_
_symmetry_equiv_pos_as_xyz
  x,y,z
_cell_length_a	19.188930
_cell_length_b	19.288856
_cell_length_c	18.266242
_cell_angle_alpha	90.008438
_cell_angle_beta	89.993453
_cell_angle_gamma	96.861229
loop_
_atom_site_label
_atom_site_type_symbol
_atom_site_fract_x
_atom_site_fract_y
_atom_site_fract_z
O1	O	0.087066	-0.921361	-0.060923
O2	O	0.587066	-0.421361	0.439077
O3	O	0.098822	-0.719100	-0.060918
O4	O	0.598822	-0.219100	0.439082
O5	O	-0.008712	-0.826067	-0.060906
O6	O	0.491288	-0.326067	0.439094
O7	O	0.194600	-0.814394	-0.060934
O8	O	0.694600	-0.314394	0.439066
O9	O	-0.008708	-0.826053	0.060856
O10	O	0.491292	-0.326053	0.560856
O11	O	0.098826	-0.719086	0.060844
O12	O	0.598826	-0.219086	0.560844
O13	O	0.087070	-0.921347	0.060839
O14	O	0.587070	-0.421347	0.560839
Zn15	Zn	0.092949	-0.820214	0.080174
Zn16	Zn	0.592949	-0.320214	0.580174
Zn17	Zn	0.092943	-0.820233	-0.080253
Zn18	Zn	0.592943	-0.320233	0.419747
O19	O	0.194604	-0.814380	0.060828
O20	O	0.694604	-0.314380	0.560828
C21	C	0.098447	-0.693217	-0.000036
C22	C	0.598447	-0.193217	0.499964
C23	C	0.097314	-0.616113	-0.000034
C24	C	0.597314	-0.116113	0.499966
C25	C	0.152749	-0.052076	-0.000031
C26	C	0.652749	0.447924	0.499969
C27	C	0.153819	-0.124522	-0.000036
C28	C	0.653819	0.375478	0.499964
C29	C	0.090723	-0.169224	-0.000027
C30	C	0.590723	0.330776	0.499973
C31	C	0.026552	-0.141474	-0.000031
C32	C	0.526552	0.358526	0.499969
C33	C	0.025484	-0.069029	-0.000033
C34	C	0.525484	0.430971	0.499967
C35	C	0.043667	-0.290486	0.042639
C36	C	0.543667	0.209514	0.542639
C37	C	0.044738	-0.362930	0.042645
C38	C	0.544738	0.137070	0.542645
C39	C	0.094016	-0.392671	-0.000024
C40	C	0.594016	0.107329	0.499976
C41	C	0.142234	-0.349957	-0.042691
C42	C	0.642234	0.150043	0.457309
C43	C	0.141166	-0.277511	-0.042693
C44	C	0.641166	0.222489	0.457307
C45	C	0.091875	-0.247780	-0.000025
C46	C	0.591875	0.252220	0.499975
C47	C	0.159343	-0.498967	-0.000032
C48	C	0.659343	0.001033	0.499968
C49	C	0.160411	-0.571416	-0.000042
C50	C	0.660411	-0.071416	0.499958
C51	C	0.033142	-0.588367	-0.000029
C52	C	0.533142	-0.088367	0.499971
C53	C	0.032076	-0.515920	-0.000026
C54	C	0.532076	-0.015920	0.499974
C55	C	0.095179	-0.471224	-0.000024
C56	C	0.595179	0.028776	0.499976
C57	C	-0.034721	-0.825682	-0.000023
C58	C	0.465279	-0.325682	0.499977
C59	C	-0.112226	-0.824548	-0.000017
C60	C	0.387774	-0.324548	0.499983
C61	C	-0.157156	-0.887312	-0.000015
C62	C	0.342844	-0.387312	0.499985
C63	C	-0.229980	-0.886246	-0.000026
C64	C	0.270020	-0.386246	0.499974
C65	C	-0.257870	-0.822412	-0.000025
C66	C	0.242130	-0.322412	0.499975
C67	C	-0.212929	-0.759639	-0.000031
C68	C	0.287071	-0.259639	0.499969
C69	C	-0.140107	-0.760707	-0.000027
C70	C	0.359893	-0.260707	0.499973
N71	N	-0.365868	-0.773613	0.041414
N72	N	0.134132	-0.273613	0.541414
N73	N	-0.435047	-0.772603	0.041411
N74	N	0.064953	-0.272603	0.541411
C75	C	-0.477278	-0.819190	-0.000040
C76	C	0.022722	-0.319190	0.499960
N77	N	-0.447719	-0.866837	-0.041479
N78	N	0.052281	-0.366837	0.458521
N79	N	-0.378534	-0.867849	-0.041474
N80	N	0.121466	-0.367849	0.458526
C81	C	-0.336832	-0.821247	-0.000030
C82	C	0.163168	-0.321247	0.499970
C83	C	-0.601173	-0.880804	-0.000052
C84	C	-0.101173	-0.380804	0.499948
C85	C	-0.673998	-0.879735	-0.000068
C86	C	-0.173998	-0.379735	0.499932
C87	C	-0.656945	-0.753125	-0.000066
C88	C	-0.156945	-0.253125	0.499934
C89	C	-0.584122	-0.754196	-0.000057
C90	C	-0.084122	-0.254196	0.499943
C91	C	-0.556241	-0.818037	-0.000046
C92	C	-0.056241	-0.318037	0.499954
C93	C	0.220613	-0.814765	-0.000057
C94	C	0.720613	-0.314765	0.499943
C95	C	0.298118	-0.815900	-0.000068
C96	C	0.798118	-0.315900	0.499932
C97	C	0.087448	0.052770	-0.000039
C98	C	0.587448	0.552770	0.499961
C99	C	0.088586	-0.024333	-0.000031
C100	C	0.588586	0.475667	0.499969
N101	N	0.092952	-0.820207	0.189661
N102	N	0.592952	-0.320207	0.689661
C103	C	0.135170	-0.862240	0.771930
C104	C	0.635170	-0.362240	1.271930
C105	C	0.135177	-0.862233	0.695285
C106	C	0.635177	-0.362233	1.195285
C107	C	0.092939	-0.820238	0.656974
C108	C	0.592939	-0.320238	1.156974
C109	C	0.050706	-0.778233	0.695313
C110	C	0.550706	-0.278233	1.195313
C111	C	0.050706	-0.778236	0.771957
C112	C	0.550706	-0.278236	1.271957
N113	N	0.031779	-0.818556	0.536644
N114	N	0.531779	-0.318556	1.036644
N115	N	0.031781	-0.818557	0.463836
N116	N	0.531781	-0.318557	0.963836
C117	C	0.092939	-0.820225	0.426051
C118	C	0.592939	-0.320225	0.926051
N119	N	0.154095	-0.821905	0.463825
N120	N	0.654095	-0.321905	0.963825
N121	N	0.154092	-0.821908	0.536640
N122	N	0.654092	-0.321908	1.036640
C123	C	0.092935	-0.820229	0.573867
C124	C	0.592935	-0.320229	1.073867
C125	C	0.135180	-0.862215	0.304614
C126	C	0.635180	-0.362215	0.804614
C127	C	0.135189	-0.862203	0.227967
C128	C	0.635189	-0.362203	0.727967
C129	C	0.050711	-0.778208	0.227997
C130	C	0.550711	-0.278208	0.727997
C131	C	0.050710	-0.778216	0.304642
C132	C	0.550710	-0.278216	0.804642
C133	C	0.092943	-0.820223	0.342946
C134	C	0.592943	-0.320223	0.842946
N135	N	0.092939	-0.820244	0.810261
N136	N	0.592939	-0.320244	1.310261
H137	H	0.212662	-0.594001	-0.000048
H138	H	0.712662	-0.094001	0.499952
H139	H	0.180426	-0.242737	-0.077434
H140	H	0.680426	0.257263	0.422566
H141	H	0.016325	-0.744010	0.196804
H142	H	0.516325	-0.244010	0.696804
H143	H	0.169583	-0.896400	0.196760
H144	H	0.669583	-0.396400	0.696760
Cl145	Cl	-0.002387	-0.725421	0.352831
Cl146	Cl	0.497613	-0.225421	0.852831
Cl147	Cl	0.188276	-0.915021	0.352771
Cl148	Cl	0.688276	-0.415021	0.852771
Cl149	Cl	-0.015873	-0.416619	0.096288
Cl150	Cl	0.484127	0.083381	0.596288
H151	H	0.003536	-0.266279	0.077386
H152	H	0.503536	0.233721	0.577386
Cl153	Cl	-0.247990	-0.679390	-0.000036
Cl154	Cl	0.252010	-0.179390	0.499964
H155	H	-0.547539	-0.703086	-0.000054
H156	H	-0.047539	-0.203086	0.499946
H157	H	-0.018232	-0.624763	-0.000027
H158	H	0.481768	-0.124763	0.499973
H159	H	0.204132	-0.015688	-0.000033
H160	H	0.704132	0.484312	0.499967
H161	H	-0.103524	-0.709594	-0.000028
H162	H	0.396476	-0.209594	0.499972
Cl163	Cl	-0.002390	-0.725437	0.820146
Cl164	Cl	0.497610	-0.225437	1.320146
Cl165	Cl	0.234487	-0.159407	-0.000034
Cl166	Cl	0.734487	0.340593	0.499966
H167	H	-0.578471	-0.932787	-0.000047
H168	H	-0.078471	-0.432787	0.499953
H169	H	0.169561	-0.896444	0.803113
H170	H	0.669561	-0.396444	1.303113
Cl171	Cl	-0.730484	-0.958647	-0.000070
Cl172	Cl	-0.230484	-0.458647	0.499930
Cl173	Cl	-0.286475	-0.965157	-0.000024
Cl174	Cl	0.213525	-0.465157	0.499976
Cl175	Cl	-0.692000	-0.672875	-0.000069
Cl176	Cl	-0.192000	-0.172875	0.499931
Cl177	Cl	0.188260	-0.915043	0.647089
Cl178	Cl	0.688260	-0.415043	1.147089
Cl179	Cl	-0.002389	-0.725436	0.647151
Cl180	Cl	0.497611	-0.225436	1.147151
Cl181	Cl	-0.048590	-0.481042	-0.000029
Cl182	Cl	0.451410	0.018958	0.499971
H183	H	-0.026767	-0.046443	-0.000033
H184	H	0.473233	0.453557	0.499967
H185	H	0.210725	-0.462574	-0.000031
H186	H	0.710725	0.037426	0.499969
Cl187	Cl	-0.052769	-0.197670	-0.000022
Cl188	Cl	0.447231	0.302330	0.499978
Cl189	Cl	0.204194	-0.387335	-0.096328
Cl190	Cl	0.704194	0.112665	0.403672
H191	H	-0.134460	-0.939297	-0.000009
H192	H	0.365540	-0.439297	0.499991
