data_functionalizedCrystal
_audit_creation_method	'MofGen! by Chris Wilmer'
_symmetry_space_group_name_H-M	'P1'
_symmetry_Int_Tables_number	1
_symmetry_cell_setting	triclinic
loop_
_symmetry_equiv_pos_as_xyz
  x,y,z
_cell_length_a	19.805407
_cell_length_b	18.101397
_cell_length_c	19.805399
_cell_angle_alpha	90.029325
_cell_angle_beta	90.017803
_cell_angle_gamma	90.017782
loop_
_atom_site_label
_atom_site_type_symbol
_atom_site_fract_x
_atom_site_fract_y
_atom_site_fract_z
Zn1	Zn	1.034764	-0.294900	0.382679
Zn2	Zn	1.534764	0.205100	0.882679
Zn3	Zn	1.034690	-0.418743	0.269488
Zn4	Zn	1.534690	0.081257	0.769488
Zn5	Zn	0.921578	-0.294914	0.269508
Zn6	Zn	1.421578	0.205086	0.769508
Zn7	Zn	0.921554	-0.418698	0.382638
Zn8	Zn	1.421554	0.081302	0.882638
O9	O	0.978146	-0.356814	0.326078
O10	O	1.478146	0.143186	0.826078
O11	O	1.129470	-0.311341	0.367673
O12	O	1.629470	0.188659	0.867673
O13	O	1.019665	-0.402342	0.174774
O14	O	1.519665	0.097658	0.674774
O15	O	0.936634	-0.191280	0.284546
O16	O	1.436634	0.308720	0.784546
O17	O	1.129416	-0.402328	0.284512
O18	O	1.629416	0.097672	0.784512
O19	O	1.019790	-0.191269	0.367693
O20	O	1.519790	0.308731	0.867693
O21	O	0.936562	-0.311366	0.174788
O22	O	1.436562	0.188634	0.674788
O23	O	0.826858	-0.311322	0.284505
O24	O	1.326858	0.188678	0.784505
O25	O	0.936591	-0.402251	0.477360
O26	O	1.436591	0.097749	0.977360
O27	O	0.826840	-0.402265	0.367622
O28	O	1.326840	0.097735	0.867622
O29	O	1.019766	-0.311297	0.477391
O30	O	1.519766	0.188703	0.977391
O31	O	1.019641	-0.522370	0.284472
O32	O	1.519641	-0.022370	0.784472
O33	O	0.936520	-0.522337	0.367603
O34	O	1.436520	-0.022337	0.867603
C35	C	0.802290	-0.356791	0.326062
C36	C	1.302290	0.143209	0.826062
C37	C	0.727058	-0.356799	0.326071
C38	C	1.227058	0.143201	0.826071
C39	C	0.691743	-0.309505	0.369439
C40	C	1.191743	0.190495	0.869439
C41	C	0.621055	-0.309509	0.369441
C42	C	1.121055	0.190491	0.869441
C43	C	0.585683	-0.356811	0.326079
C44	C	1.085683	0.143189	0.826079
C45	C	0.621003	-0.404106	0.282706
C46	C	1.121003	0.095894	0.782706
C47	C	0.691690	-0.404098	0.282701
C48	C	1.191690	0.095902	0.782701
C49	C	0.335930	-0.404139	0.282727
C50	C	0.835930	0.095861	0.782727
C51	C	0.265238	-0.404145	0.282737
C52	C	0.765238	0.095855	0.782737
C53	C	0.265294	-0.309551	0.369468
C54	C	0.765294	0.190449	0.869468
C55	C	0.335981	-0.309543	0.369462
C56	C	0.835981	0.190457	0.869462
C57	C	0.371295	-0.356835	0.326087
C58	C	0.871295	0.143165	0.826087
C59	C	0.447944	-0.356829	0.326084
C60	C	0.947944	0.143171	0.826084
C61	C	0.509036	-0.356821	0.326085
C62	C	1.009036	0.143179	0.826085
C63	C	0.978088	-0.549225	0.326045
C64	C	1.478088	-0.049225	0.826045
C65	C	0.978126	-0.631539	0.326054
C66	C	1.478126	-0.131539	0.826054
C67	C	0.978212	-0.930629	0.326116
C68	C	1.478212	-0.430629	0.826116
C69	C	1.030364	-0.899294	0.273672
C70	C	1.530364	-0.399294	0.773672
C71	C	1.030544	-0.813676	0.273808
C72	C	1.530544	-0.313676	0.773808
C73	C	0.978169	-0.782247	0.326085
C74	C	1.478169	-0.282247	0.826085
C75	C	0.997504	-0.813257	0.397429
C76	C	1.497504	-0.313257	0.897429
C77	C	0.997908	-0.898902	0.397143
C78	C	1.497908	-0.398902	0.897143
C79	C	0.906586	-0.899134	0.307833
C80	C	1.406586	-0.399134	0.807833
C81	C	0.906940	-0.813485	0.306240
C82	C	1.406940	-0.313485	0.806240
C83	C	0.978144	-0.698388	0.326071
C84	C	1.478144	-0.198388	0.826071
C85	C	0.978239	-1.014489	0.326134
C86	C	1.478239	-0.514489	0.826134
C87	C	1.154689	-0.356838	0.326095
C88	C	1.654689	0.143162	0.826095
C89	C	1.229921	-0.356848	0.326102
C90	C	1.729921	0.143152	0.826102
C91	C	0.978184	-0.356767	0.502621
C92	C	1.478184	0.143233	1.002621
C93	C	0.978201	-0.356747	0.577853
C94	C	1.478201	0.143253	1.077853
C95	C	0.978223	-0.163652	0.326126
C96	C	1.478223	0.336348	0.826126
C97	C	0.978256	-0.081338	0.326146
C98	C	1.478256	0.418662	0.826146
C99	C	0.978148	-0.356807	0.150222
C100	C	1.478148	0.143193	0.650222
C101	C	0.978262	-0.356618	0.074991
C102	C	1.478262	0.143382	0.574991
C103	C	1.021511	-0.309385	0.613214
C104	C	1.521511	0.190615	1.113214
C105	C	1.021518	-0.309364	0.683903
C106	C	1.521518	0.190636	1.183903
C107	C	0.978217	-0.356709	0.719229
C108	C	1.478217	0.143291	1.219229
C109	C	0.934902	-0.404073	0.683863
C110	C	1.434902	0.095927	1.183863
C111	C	0.934893	-0.404090	0.613175
C112	C	1.434893	0.095910	1.113175
C113	C	0.934941	-0.404004	0.968936
C114	C	1.434941	0.095996	1.468936
C115	C	0.934955	-0.403985	1.039628
C116	C	1.434955	0.096015	1.539628
C117	C	1.021566	-0.309278	1.039663
C118	C	1.521566	0.190722	1.539663
C119	C	1.021556	-0.309295	0.968976
C120	C	1.521556	0.190705	1.468976
C121	C	0.978239	-0.356656	0.933616
C122	C	1.478239	0.143344	1.433616
C123	C	0.978231	-0.356678	0.856968
C124	C	1.478231	0.143322	1.356968
C125	C	0.978228	-0.356691	0.795876
C126	C	1.478228	0.143309	1.295876
H127	H	0.592304	-0.271000	0.404757
H128	H	1.092304	0.229000	0.904757
H129	H	0.364777	-0.271027	0.404775
H130	H	0.864777	0.228973	0.904775
N131	N	0.890643	-0.452459	0.577052
N132	N	1.390643	0.047541	1.077052
N133	N	0.828191	-0.447531	0.584938
N134	N	1.328191	0.052469	1.084938
H135	H	0.796935	-0.481690	0.559426
H136	H	1.296935	0.018310	1.059426
H137	H	1.056787	-0.270798	0.712690
H138	H	1.556787	0.229202	1.212690
N139	N	0.372007	-0.452449	0.238434
N140	N	0.872007	0.047551	0.738434
N141	N	0.435120	-0.452438	0.238429
N142	N	0.935120	0.047562	0.738429
H143	H	0.460603	-0.486558	0.207145
H144	H	0.960603	0.013442	0.707145
N145	N	1.065774	-0.260930	0.932882
N146	N	1.565774	0.239070	1.432882
N147	N	1.065756	-0.260949	0.869769
N148	N	1.565756	0.239051	1.369769
H149	H	1.096983	-0.226787	0.844277
H150	H	1.596983	0.273213	1.344277
H151	H	0.899644	-0.442619	0.712631
H152	H	1.399644	0.057381	1.212631
N153	N	0.888654	-0.788053	0.240379
N154	N	1.388654	-0.288053	0.740379
N155	N	0.883705	-0.720348	0.229036
N156	N	1.383705	-0.220348	0.729036
H157	H	0.870794	-0.702381	0.182520
H158	H	1.370794	-0.202381	0.682520
N159	N	1.065807	-0.260879	1.075773
N160	N	1.565807	0.239121	1.575773
N161	N	1.104463	-0.218611	1.044223
N162	N	1.604463	0.281389	1.544223
H163	H	1.135708	-0.184430	1.069723
H164	H	1.635708	0.315570	1.569723
H165	H	1.083130	-0.920765	0.285629
H166	H	1.583130	-0.420765	0.785629
N167	N	1.097106	-0.787913	0.288981
N168	N	1.597106	-0.287913	0.788981
N169	N	1.143570	-0.833186	0.299509
N170	N	1.643570	-0.333186	0.799509
H171	H	1.190582	-0.814993	0.310227
H172	H	1.690582	-0.314993	0.810227
H173	H	0.899692	-0.442540	1.068389
H174	H	1.399692	0.057460	1.568389
H175	H	0.592198	-0.442616	0.247396
H176	H	1.092198	0.057384	0.747396
H177	H	0.960681	-0.792897	0.437554
H178	H	1.460681	-0.292897	0.937554
H179	H	1.050263	-0.918824	0.412630
H180	H	1.550263	-0.418824	0.912630
H181	H	0.899679	-0.442579	0.940155
H182	H	1.399679	0.057421	1.440155
N183	N	1.065731	-0.261011	0.577133
N184	N	1.565731	0.238989	1.077133
N185	N	1.041927	-0.213825	0.537700
N186	N	1.541927	0.286175	1.037700
H187	H	1.073157	-0.179656	0.512218
H188	H	1.573157	0.320344	1.012218
N189	N	1.062447	-0.786274	0.417182
N190	N	1.562447	-0.286274	0.917182
N191	N	1.094602	-0.744215	0.378840
N192	N	1.594602	-0.244215	0.878840
H193	H	1.140469	-0.725158	0.392787
H194	H	1.640469	-0.225158	0.892787
H195	H	0.888996	-0.920793	0.256711
H196	H	1.388996	-0.420793	0.756711
N197	N	0.727871	-0.261175	0.413723
N198	N	1.227871	0.238825	0.913723
N199	N	0.767312	-0.213945	0.389980
N200	N	1.267312	0.286055	0.889980
H201	H	0.792827	-0.179808	0.421255
H202	H	1.292827	0.320192	0.921255
H203	H	0.236440	-0.442666	0.247424
H204	H	0.736440	0.057334	0.747424
H205	H	0.865993	-0.792098	0.341641
H206	H	1.365993	-0.292098	0.841641
N207	N	0.229217	-0.261250	0.413781
N208	N	0.729217	0.238750	0.913781
N209	N	0.189786	-0.287380	0.456869
N210	N	0.689786	0.212620	0.956869
H211	H	0.164306	-0.253272	0.488167
H212	H	0.664306	0.246728	0.988167
N213	N	0.727768	-0.452396	0.238392
N214	N	1.227768	0.047604	0.738392
N215	N	0.719849	-0.447389	0.175945
N216	N	1.219849	0.052611	0.675945
H217	H	0.745329	-0.481497	0.144648
H218	H	1.245329	0.018503	0.644648
N219	N	1.015365	-0.787383	0.207443
N220	N	1.515365	-0.287383	0.707443
N221	N	1.004565	-0.832288	0.160701
N222	N	1.504565	-0.332288	0.660701
H223	H	0.993847	-0.813723	0.113828
H224	H	1.493847	-0.313723	0.613828
H225	H	1.018413	-0.919936	0.220613
H226	H	1.518413	-0.419936	0.720613
H227	H	0.867729	-0.919399	0.346030
H228	H	1.367729	-0.419399	0.846030
N229	N	0.952321	-0.924896	0.447832
N230	N	1.452321	-0.424896	0.947832
N231	N	0.920312	-0.879783	0.483308
N232	N	1.420312	-0.379783	0.983308
H233	H	0.888118	-0.898138	0.519108
H234	H	1.388118	-0.398138	1.019108
