data_functionalizedCrystal
_audit_creation_method	'MofGen! by Chris Wilmer'
_symmetry_space_group_name_H-M	'P1'
_symmetry_Int_Tables_number	1
_symmetry_cell_setting	triclinic
loop_
_symmetry_equiv_pos_as_xyz
  x,y,z
_cell_length_a	12.645331
_cell_length_b	12.645330
_cell_length_c	12.645324
_cell_angle_alpha	89.969240
_cell_angle_beta	90.021980
_cell_angle_gamma	89.974834
loop_
_atom_site_label
_atom_site_type_symbol
_atom_site_fract_x
_atom_site_fract_y
_atom_site_fract_z
Zn1	Zn	1.620661	0.421989	0.599453
Zn2	Zn	1.620519	0.599298	0.422196
Zn3	Zn	1.443378	0.422046	0.422197
Zn4	Zn	1.443331	0.599208	0.599411
O5	O	1.531973	0.510635	0.510814
O6	O	1.768990	0.445523	0.575956
O7	O	1.596981	0.575846	0.273849
O8	O	1.466974	0.273691	0.445729
O9	O	1.768885	0.575791	0.445726
O10	O	1.597224	0.273649	0.575958
O11	O	1.466836	0.445620	0.273850
O12	O	1.295025	0.445533	0.445688
O13	O	1.466895	0.575638	0.747764
O14	O	1.294990	0.575693	0.575886
O15	O	1.597178	0.445436	0.747795
O16	O	1.596936	0.747633	0.445686
O17	O	1.466757	0.747567	0.575885
C18	C	1.256543	0.510610	0.510784
C19	C	1.138713	0.510625	0.510796
C20	C	0.971135	0.428364	0.429340
C21	C	1.093695	0.428577	0.428981
C22	C	1.094176	0.622302	0.480283
C23	C	0.971578	0.621853	0.479727
C24	C	0.971566	0.482270	0.623079
C25	C	1.094172	0.479776	0.622455
C26	C	1.531854	0.786065	0.510804
C27	C	1.531901	0.903895	0.510835
C28	C	1.450318	1.071461	0.592998
C29	C	1.449919	0.948902	0.592732
C30	C	1.501650	0.948502	0.399113
C31	C	1.501134	1.071100	0.399614
C32	C	1.644177	1.070983	0.539492
C33	C	1.643507	0.948376	0.541933
C34	C	1.808478	0.510661	0.510846
C35	C	1.926308	0.510672	0.510859
C36	C	1.532047	0.510520	0.787320
C37	C	1.532079	0.510471	0.905150
C38	C	1.532083	1.234130	0.510852
C39	C	1.532035	1.116300	0.510878
C40	C	1.531959	0.510673	0.235385
C41	C	1.532133	0.510423	0.117555
C42	C	1.614059	0.428544	0.950051
C43	C	1.614411	0.428758	1.072611
C44	C	1.562018	0.622241	1.073033
C45	C	1.562583	0.621795	0.950435
C46	C	1.420018	0.481547	0.950320
C47	C	1.420650	0.479055	1.072927
H48	H	0.940681	0.402256	0.650830
H49	H	0.942930	0.645937	0.397688
H50	H	0.942578	0.542220	0.683818
C51	C	1.135572	0.655401	0.370640
C52	C	1.110648	0.587089	0.272990
C53	C	1.152042	0.620181	0.163345
C54	C	1.218360	0.721585	0.151349
C55	C	1.243288	0.789904	0.249002
C56	C	1.201894	0.756812	0.358647
H57	H	1.061552	0.512017	0.281867
H58	H	1.133588	0.569606	0.091056
H59	H	1.249002	0.746082	0.070183
H60	H	1.292383	0.864975	0.240125
H61	H	1.220348	0.807387	0.430936
C62	C	0.931340	0.316149	0.454882
C63	C	0.965223	0.222207	0.385234
C64	C	0.925417	0.109990	0.410776
C65	C	0.851727	0.091714	0.505966
C66	C	0.817839	0.185659	0.575620
C67	C	0.857646	0.297876	0.550078
H68	H	1.019776	0.235734	0.314763
H69	H	0.950503	0.040446	0.359213
H70	H	0.822260	0.008644	0.524874
H71	H	0.763286	0.172132	0.646091
H72	H	0.832560	0.367420	0.601641
C73	C	0.931507	0.707517	0.556421
C74	C	1.011065	0.776119	0.617973
C75	C	0.970999	0.861790	0.694656
C76	C	0.851375	0.878858	0.709787
C77	C	0.771810	0.810254	0.648233
C78	C	0.811875	0.724583	0.571550
H79	H	1.099625	0.763486	0.606774
H80	H	1.029900	0.912575	0.740222
H81	H	0.821716	0.942276	0.766553
H82	H	0.683250	0.822887	0.659432
H83	H	0.752975	0.673798	0.525984
C84	C	1.390390	1.109870	0.366876
C85	C	1.345037	1.079771	0.257944
C86	C	1.234289	1.118535	0.225208
C87	C	1.168895	1.187398	0.301405
C88	C	1.214247	1.217501	0.410344
C89	C	1.324995	1.178738	0.443080
H90	H	1.393447	1.028791	0.201532
H91	H	1.200717	1.096250	0.144564
H92	H	1.086913	1.216093	0.277172
H93	H	1.165838	1.268481	0.466756
H94	H	1.358567	1.201022	0.523724
C95	C	1.133574	0.707374	0.557963
C96	C	1.099731	0.823467	0.543377
C97	C	1.139132	0.908538	0.621057
C98	C	1.212377	0.877515	0.713324
C99	C	1.246224	0.761417	0.727914
C100	C	1.206823	0.676346	0.650234
H101	H	1.045507	0.846437	0.475072
H102	H	1.114076	0.994481	0.610256
H103	H	1.241544	0.940489	0.770827
H104	H	1.300448	0.738447	0.796219
H105	H	1.231879	0.590402	0.661035
H106	H	1.504153	0.684938	1.102140
H107	H	1.697462	0.447919	1.101953
H108	H	1.696623	0.447486	0.919257
C109	C	0.929458	0.453431	0.317654
C110	C	0.854971	0.548230	0.300226
C111	C	0.813293	0.573301	0.188542
C112	C	0.846104	0.503573	0.094286
C113	C	0.920596	0.408768	0.111712
C114	C	0.962273	0.383697	0.223396
H115	H	0.830679	0.599852	0.370002
H116	H	0.758150	0.643482	0.175643
H117	H	0.815252	0.522132	0.011611
H118	H	0.944888	0.357146	0.041936
H119	H	1.017417	0.313515	0.236295
H120	H	1.122971	0.447350	0.345821
C121	C	1.475436	0.908168	0.704663
C122	C	1.581280	0.937211	0.757422
C123	C	1.606771	0.896496	0.869368
C124	C	1.526418	0.826738	0.928555
C125	C	1.420566	0.797692	0.875796
C126	C	1.395075	0.838407	0.763850
H127	H	1.640769	0.988853	0.713608
H128	H	1.685130	0.917998	0.908423
H129	H	1.545287	0.796599	1.011424
H130	H	1.361078	0.746050	0.919610
H131	H	1.316717	0.816905	0.724795
H132	H	1.666319	0.919216	0.624154
C133	C	1.133492	0.368748	0.653542
C134	C	1.205704	0.306358	0.577928
C135	C	1.245026	0.195328	0.609009
C136	C	1.212137	0.146689	0.715705
C137	C	1.139921	0.209080	0.791327
C138	C	1.100598	0.320110	0.760245
H139	H	1.230055	0.342363	0.498939
H140	H	1.298486	0.149142	0.553028
H141	H	1.241245	0.064499	0.738713
H142	H	1.115570	0.173075	0.870316
H143	H	1.047139	0.366296	0.816226
H144	H	1.123807	0.345764	0.448106
H145	H	1.356351	0.534332	1.103517
H146	H	1.124821	0.535351	0.686442
C147	C	1.681444	1.112627	0.647683
C148	C	1.789625	1.078568	0.692128
C149	C	1.826878	1.120212	0.800323
C150	C	1.755949	1.195915	0.864074
C151	C	1.647760	1.229978	0.819631
C152	C	1.610508	1.188334	0.711435
H153	H	1.842138	1.022524	0.644935
H154	H	1.906967	1.094996	0.833223
H155	H	1.783525	1.226742	0.944167
H156	H	1.595248	1.286021	0.866824
H157	H	1.530419	1.213550	0.678535
H158	H	1.559291	0.919352	0.336254
H159	H	1.558070	1.100766	0.336341
C160	C	1.726432	1.110155	0.458701
C161	C	1.788998	1.029961	0.391770
C162	C	1.871243	1.069140	0.310977
C163	C	1.890922	1.188514	0.297114
C164	C	1.828353	1.268716	0.364046
C165	C	1.746108	1.229537	0.444840
H166	H	1.774432	0.941586	0.402031
H167	H	1.917560	1.009768	0.261429
H168	H	1.951804	1.217516	0.237306
H169	H	1.842919	1.357090	0.353786
H170	H	1.699791	1.288909	0.494387
H171	H	1.469062	1.100864	0.676112
C172	C	1.589219	0.316760	1.113285
C173	C	1.483543	0.263785	1.084094
C174	C	1.458358	0.151780	1.124758
C175	C	1.538849	0.092750	1.194613
C176	C	1.644532	0.145725	1.223807
C177	C	1.669717	0.257730	1.183143
H178	H	1.423953	0.307483	1.032380
H179	H	1.380124	0.112565	1.103147
H180	H	1.520205	0.009837	1.224715
H181	H	1.704122	0.102027	1.275521
H182	H	1.747951	0.296945	1.204755
H183	H	1.643022	0.647130	1.103773
H184	H	1.367701	1.102363	0.574283
C185	C	1.673228	0.654838	0.911810
C186	C	1.760459	0.681447	0.992519
C187	C	1.871108	0.714488	0.953901
C188	C	1.894526	0.720919	0.834574
C189	C	1.807293	0.694308	0.753858
C190	C	1.696644	0.661268	0.792476
H191	H	1.743125	0.676687	1.080858
H192	H	1.935683	0.734186	1.013653
H193	H	1.976435	0.745377	0.805987
H194	H	1.824627	0.699068	0.665519
H195	H	1.632069	0.641569	0.732724
H196	H	1.366791	0.919668	0.573774
H197	H	1.505424	0.684917	0.920728
H198	H	1.420537	0.917892	0.374434
H199	H	1.707606	0.917733	0.486476
H200	H	1.392710	0.401415	0.919401
H201	H	1.595607	0.345394	0.920594
H202	H	1.398105	0.396765	1.102030
H203	H	1.358944	0.541214	0.921278
