data_functionalizedCrystal
_audit_creation_method	'MofGen! by Chris Wilmer'
_symmetry_space_group_name_H-M	'P1'
_symmetry_Int_Tables_number	1
_symmetry_cell_setting	triclinic
loop_
_symmetry_equiv_pos_as_xyz
  x,y,z
_cell_length_a	12.759401
_cell_length_b	12.759400
_cell_length_c	19.077174
_cell_angle_alpha	92.276367
_cell_angle_beta	87.686541
_cell_angle_gamma	90.012280
loop_
_atom_site_label
_atom_site_type_symbol
_atom_site_fract_x
_atom_site_fract_y
_atom_site_fract_z
Zn1	Zn	1.630075	-0.442172	-0.397939
Zn2	Zn	1.622933	-0.610810	-0.280252
Zn3	Zn	1.447336	-0.435143	-0.280261
Zn4	Zn	1.454368	-0.617805	-0.397913
O5	O	1.538678	-0.526483	-0.339091
O6	O	1.776149	-0.464556	-0.382335
O7	O	1.593707	-0.581638	-0.181763
O8	O	1.471623	-0.289056	-0.295885
O9	O	1.770901	-0.588454	-0.295871
O10	O	1.605880	-0.294219	-0.382343
O11	O	1.464697	-0.452577	-0.181769
O12	O	1.301247	-0.459360	-0.295860
O13	O	1.483608	-0.600376	-0.496407
O14	O	1.306414	-0.593561	-0.382299
O15	O	1.612699	-0.471339	-0.496426
O16	O	1.600526	-0.758758	-0.295846
O17	O	1.476683	-0.763897	-0.382291
C18	C	1.265710	-0.526458	-0.339078
C19	C	1.148934	-0.526473	-0.339089
C20	C	1.091356	-0.456511	-0.294163
C21	C	0.981632	-0.456537	-0.294172
C22	C	0.987075	-0.596489	-0.384039
C23	C	1.096796	-0.596468	-0.384026
C24	C	1.143493	-0.386516	-0.249226
C25	C	1.085915	-0.316548	-0.204297
C26	C	0.976191	-0.316574	-0.204306
C27	C	0.924046	-0.386567	-0.249244
C28	C	1.538622	-0.799449	-0.339080
C29	C	1.538696	-0.916227	-0.339099
C30	C	1.608572	-0.973700	-0.384154
C31	C	1.608622	-1.083425	-0.384171
C32	C	1.468916	-1.078194	-0.294072
C33	C	1.468862	-0.968471	-0.294059
C34	C	1.678406	-0.921456	-0.429195
C35	C	1.748289	-0.978930	-0.474253
C36	C	1.748339	-1.088655	-0.474270
C37	C	1.678506	-1.140907	-0.429229
C38	C	1.812712	-0.526509	-0.339105
C39	C	1.929489	-0.526520	-0.339111
C40	C	1.549734	-0.537422	-0.522668
C41	C	1.554446	-0.542084	-0.600897
C42	C	1.538763	-0.252451	-0.339118
C43	C	1.538800	-0.135675	-0.339129
C44	C	1.489494	-0.477080	-0.637652
C45	C	1.493917	-0.481468	-0.711157
C46	C	1.563298	-0.550857	-0.747905
C47	C	1.628253	-0.615868	-0.711145
C48	C	1.623824	-0.611484	-0.637642
C49	C	1.583742	-0.571179	-0.967737
C50	C	1.588169	-0.575557	-1.041245
C51	C	1.453831	-0.441158	-1.041252
C52	C	1.449412	-0.436775	-0.967747
C53	C	1.514363	-0.501790	-0.930993
N54	N	1.567823	-0.555342	-0.823039
N55	N	1.509832	-0.497309	-0.855861
C56	C	1.527725	-0.515510	-0.156229
C57	C	1.523217	-0.510553	-0.078000
H58	H	1.143678	-0.653436	-0.420609
H59	H	1.805232	-1.135448	-0.510965
C60	C	0.929711	-0.673470	-0.433472
N61	N	0.886505	-0.731449	-0.470708
H62	H	1.805139	-0.936382	-0.510929
H63	H	1.678540	-1.230253	-0.429255
C64	C	1.382383	-0.369653	-1.081686
N65	N	1.328563	-0.315796	-1.112142
C66	C	1.392151	-1.135673	-0.244498
N67	N	1.334349	-1.178965	-0.207145
H68	H	1.433002	-0.420570	-0.607736
H69	H	0.834701	-0.386587	-0.249244
H70	H	1.441022	-0.428539	-0.741079
H71	H	1.644672	-0.632062	-1.071164
C72	C	0.912858	-0.239609	-0.154884
N73	N	0.865158	-0.181631	-0.117660
H74	H	1.678375	-0.832113	-0.429184
C75	C	1.392003	-0.905246	-0.244489
N76	N	1.334113	-0.857625	-0.207151
C77	C	1.373085	-0.360445	-0.927329
N78	N	1.315596	-0.302950	-0.896886
H79	H	1.636618	-0.624131	-0.937821
H80	H	1.676723	-0.664409	-0.607717
C81	C	1.264191	-0.386484	-0.249211
N82	N	1.355100	-0.386461	-0.249199
C83	C	1.143276	-0.239558	-0.154869
N84	N	1.186480	-0.181565	-0.117641
H85	H	1.684739	-0.672371	-0.741072
