data_functionalizedCrystal
_audit_creation_method	'MofGen! by Chris Wilmer'
_symmetry_space_group_name_H-M	'P1'
_symmetry_Int_Tables_number	1
_symmetry_cell_setting	triclinic
loop_
_symmetry_equiv_pos_as_xyz
  x,y,z
_cell_length_a	10.654550
_cell_length_b	16.109301
_cell_length_c	9.730223
_cell_angle_alpha	89.997247
_cell_angle_beta	89.996251
_cell_angle_gamma	83.973192
loop_
_atom_site_label
_atom_site_type_symbol
_atom_site_fract_x
_atom_site_fract_y
_atom_site_fract_z
O1	O	1.666250	0.116770	-0.114408
O2	O	1.300620	0.127896	-0.114386
O3	O	1.493479	0.001362	-0.114384
O4	O	1.473391	0.243304	-0.114410
O5	O	1.493477	0.001365	0.114196
O6	O	1.300618	0.127899	0.114194
O7	O	1.666248	0.116773	0.114172
Zn8	Zn	1.483433	0.122337	0.150475
Zn9	Zn	1.483436	0.122332	-0.150689
O10	O	1.473389	0.243307	0.114170
C11	C	1.253832	0.127080	-0.000093
C12	C	1.114422	0.124636	-0.000085
C13	C	1.033926	0.199138	-0.000113
C14	C	0.902936	0.196836	-0.000136
C15	C	0.932952	0.045526	-0.000109
C16	C	1.063939	0.047828	-0.000076
C17	C	1.016595	0.286496	-0.000135
C18	C	0.885606	0.284194	-0.000158
C19	C	1.492665	-0.029616	-0.000093
C20	C	1.490225	-0.121926	-0.000091
C21	C	1.598991	-0.343552	-0.000119
C22	C	1.596689	-0.430286	-0.000130
C23	C	1.367868	-0.411772	-0.000111
C24	C	1.370172	-0.325040	-0.000110
C25	C	1.485737	-0.290932	-0.000107
C26	C	1.481131	-0.464399	-0.000119
C27	C	1.478634	-0.558440	-0.000131
C28	C	1.488234	-0.196885	-0.000097
C29	C	1.713036	0.117589	-0.000124
C30	C	1.852446	0.120033	-0.000141
C31	C	1.474204	0.274286	-0.000124
C32	C	1.476643	0.366595	-0.000135
N33	N	1.483440	0.122339	0.356011
N34	N	1.483438	0.122324	-0.356225
C35	C	1.568859	0.066329	0.427939
C36	C	1.568856	0.066319	0.571822
C37	C	1.398010	0.178336	0.571837
C38	C	1.398008	0.178342	0.427957
C39	C	1.667500	0.001659	0.427931
C40	C	1.667497	0.001649	0.571814
H41	H	1.045462	0.320662	0.095527
C42	C	1.601172	-0.133420	0.524893
C43	C	1.627468	-0.079884	0.632069
H44	H	1.576479	-0.183758	0.562098
H45	H	1.534730	-0.107212	0.469978
H46	H	1.674482	-0.145607	0.469932
H47	H	1.554154	-0.067692	0.687025
H48	H	1.693915	-0.106097	0.687008
H49	H	1.129476	-0.012838	-0.000033
C50	C	1.797496	0.020860	0.768443
C51	C	1.797516	0.020879	0.624537
H52	H	1.877763	0.032728	0.800988
H53	H	1.734399	0.062227	0.800977
H54	H	1.780332	-0.032394	0.800956
H55	H	1.814670	0.074135	0.592023
H56	H	1.860632	-0.020490	0.591989
C57	C	1.726841	-0.538575	0.117351
C58	C	1.721178	-0.488129	-0.000143
H59	H	1.803696	-0.574288	0.117333
H60	H	1.722991	-0.504361	0.197052
H61	H	1.657682	-0.571298	0.117337
H62	H	1.790332	-0.455402	-0.000124
H63	H	1.725040	-0.522347	-0.079864
C64	C	1.262735	-0.536507	-0.000087
C65	C	1.240844	-0.449267	-0.000094
H66	H	1.184312	-0.559651	-0.000065
H67	H	1.309351	-0.554518	-0.079799
H68	H	1.309373	-0.554517	0.079623
H69	H	1.194214	-0.431256	-0.079810
H70	H	1.194208	-0.431248	0.079626
C71	C	0.761711	0.258143	0.198334
C72	C	0.823469	0.319822	0.133067
H73	H	0.723361	0.280133	0.280588
H74	H	0.698775	0.240684	0.138961
H75	H	0.821121	0.211789	0.219735
H76	H	0.764057	0.366174	0.111657
H77	H	0.886411	0.337293	0.192452
C78	C	1.143751	-0.315444	-0.000077
C79	C	1.245673	-0.267193	-0.000091
H80	H	1.066897	-0.279730	-0.000061
H81	H	1.147606	-0.349653	-0.079783
H82	H	1.147620	-0.349662	0.079639
H83	H	1.241809	-0.232978	-0.079813
H84	H	1.241816	-0.232969	0.079623
H85	H	1.758409	0.021908	0.383296
H86	H	1.328452	0.223932	0.630431
C87	C	0.745485	-0.025189	-0.000148
C88	C	0.877456	-0.038899	-0.000113
H89	H	0.711230	-0.077312	-0.000160
H90	H	0.717841	0.005513	0.079550
H91	H	0.717885	0.005518	-0.079872
H92	H	0.905058	-0.069601	0.079617
H93	H	0.905112	-0.069615	-0.079819
H94	H	1.646924	-0.062244	0.388885
H95	H	1.328442	0.223942	0.369395
C96	C	0.961919	0.346365	-0.220879
C97	C	1.064233	0.324050	-0.133353
H98	H	0.991332	0.369551	-0.303120
H99	H	0.921283	0.298249	-0.242291
H100	H	0.903764	0.386440	-0.176591
H101	H	1.122383	0.283970	-0.177638
H102	H	1.104889	0.372172	-0.111944
H103	H	0.843427	0.317108	-0.095829
H104	H	1.693091	-0.315785	-0.000119
