data_functionalizedCrystal
_audit_creation_method	'MofGen! by Chris Wilmer'
_symmetry_space_group_name_H-M	'P1'
_symmetry_Int_Tables_number	1
_symmetry_cell_setting	triclinic
loop_
_symmetry_equiv_pos_as_xyz
  x,y,z
_cell_length_a	14.421503
_cell_length_b	11.792241
_cell_length_c	11.792241
_cell_angle_alpha	84.193416
_cell_angle_beta	90.004173
_cell_angle_gamma	89.996519
loop_
_atom_site_label
_atom_site_type_symbol
_atom_site_fract_x
_atom_site_fract_y
_atom_site_fract_z
O1	O	0.077022	-1.506916	-0.155552
O2	O	0.577022	-1.006916	0.344448
O3	O	0.077044	-1.176575	-0.171585
O4	O	0.577044	-0.676575	0.328415
O5	O	0.077026	-1.349761	0.001602
O6	O	0.577026	-0.849761	0.501602
O7	O	0.077040	-1.333729	-0.328739
O8	O	0.577040	-0.833729	0.171261
O9	O	-0.077198	-1.349733	0.001576
O10	O	0.422802	-0.849733	0.501576
O11	O	-0.077180	-1.176546	-0.171611
O12	O	0.422820	-0.676546	0.328389
O13	O	-0.077201	-1.506887	-0.155578
O14	O	0.422799	-1.006887	0.344422
Cu15	Cu	-0.091272	-1.341714	-0.163597
Cu16	Cu	0.408728	-0.841714	0.336403
Cu17	Cu	0.091115	-1.341748	-0.163566
Cu18	Cu	0.591115	-0.841748	0.336434
O19	O	-0.077184	-1.333700	-0.328765
O20	O	0.422816	-0.833700	0.171235
C21	C	-0.000065	-1.134269	-0.170591
C22	C	0.499935	-0.634269	0.329409
C23	C	-0.000057	-1.008255	-0.167576
C24	C	0.499943	-0.508255	0.332424
N25	N	-0.219554	-1.341698	-0.163618
N26	N	0.280446	-0.841698	0.336382
C27	C	-0.000086	-1.348740	0.043880
C28	C	0.499914	-0.848740	0.543880
C29	C	-0.000084	-1.345726	0.169894
C30	C	0.499916	-0.845726	0.669894
C31	C	-0.469199	-1.261602	-0.243663
C32	C	0.030801	-0.761602	0.256337
C33	C	-0.531008	-1.364297	-0.266324
C34	C	-0.031008	-0.864297	0.233676
C35	C	-0.408715	-1.341726	-0.163591
C36	C	0.091285	-0.841726	0.336409
C37	C	-0.531001	-1.239057	-0.140956
C38	C	-0.031001	-0.739057	0.359044
C39	C	-0.591437	-1.341743	-0.163567
C40	C	-0.091437	-0.841743	0.336433
C41	C	-0.469163	-1.444473	-0.186303
C42	C	0.030837	-0.944473	0.313697
C43	C	-0.469150	-1.319165	-0.060891
C44	C	0.030850	-0.819165	0.439109
C45	C	-0.530931	-1.421934	-0.083508
C46	C	-0.030931	-0.921934	0.416492
C47	C	-0.303454	-1.341714	-0.163607
C48	C	0.196546	-0.841714	0.336393
C49	C	-0.696695	-1.341766	-0.163550
C50	C	-0.196695	-0.841766	0.336450
N51	N	0.219396	-1.341772	-0.163537
N52	N	0.719396	-0.841772	0.336463
C53	C	-0.000090	-1.549192	-0.156572
C54	C	0.499910	-1.049192	0.343428
C55	C	-0.000092	-1.675206	-0.159587
C56	C	0.499908	-1.175206	0.340413
C57	C	-0.000084	-0.777543	-0.162034
C58	C	0.499916	-0.277543	0.337966
C59	C	-0.000069	-0.905928	-0.165113
C60	C	0.499931	-0.405928	0.334887
C61	C	-0.000070	-1.334721	-0.371043
C62	C	0.499930	-0.834721	0.128957
C63	C	-0.000065	-1.337736	-0.497057
C64	C	0.499935	-0.837736	0.002943
C65	C	-0.000069	-1.340183	0.400606
C66	C	0.499931	-0.840183	0.900606
C67	C	-0.000077	-1.343262	0.272221
C68	C	0.499923	-0.843262	0.772221
H69	H	-0.442094	-1.193914	-0.311433
H70	H	0.057906	-0.693914	0.188567
H71	H	-0.557866	-1.489774	-0.015780
H72	H	-0.057866	-0.989774	0.484220
Br73	Br	-0.576293	-1.396135	-0.411062
Br74	Br	-0.076293	-0.896135	0.088938
H75	H	-0.441959	-1.300034	0.025923
H76	H	0.058041	-0.800034	0.525923
H77	H	-0.442114	-1.531325	-0.205540
H78	H	0.057886	-1.031325	0.294460
H79	H	-0.558166	-1.152225	-0.121823
H80	H	-0.058166	-0.652225	0.378177
