data_functionalizedCrystal
_audit_creation_method	'MofGen! by Chris Wilmer'
_symmetry_space_group_name_H-M	'P1'
_symmetry_Int_Tables_number	1
_symmetry_cell_setting	triclinic
loop_
_symmetry_equiv_pos_as_xyz
  x,y,z
_cell_length_a	21.395362
_cell_length_b	16.625546
_cell_length_c	21.395356
_cell_angle_alpha	89.972354
_cell_angle_beta	89.957023
_cell_angle_gamma	90.038346
loop_
_atom_site_label
_atom_site_type_symbol
_atom_site_fract_x
_atom_site_fract_y
_atom_site_fract_z
Zn1	Zn	0.957889	-0.320680	-0.354586
Zn2	Zn	1.457889	0.179320	0.145414
Zn3	Zn	0.957809	-0.455517	-0.249808
Zn4	Zn	1.457809	0.044483	0.250192
Zn5	Zn	0.853106	-0.320739	-0.249787
Zn6	Zn	1.353106	0.179261	0.250213
Zn7	Zn	0.853089	-0.455512	-0.354513
Zn8	Zn	1.353089	0.044488	0.145487
O9	O	0.905473	-0.388112	-0.302174
O10	O	1.405473	0.111888	0.197826
O11	O	1.045557	-0.338544	-0.340726
O12	O	1.545557	0.161456	0.159274
O13	O	0.943893	-0.437665	-0.162128
O14	O	1.443893	0.062335	0.337872
O15	O	0.867047	-0.207899	-0.263710
O16	O	1.367047	0.292101	0.236290
O17	O	1.045497	-0.437608	-0.263747
O18	O	1.545497	0.062392	0.236253
O19	O	0.944031	-0.207856	-0.340706
O20	O	1.444031	0.292144	0.159294
O21	O	0.866969	-0.338645	-0.162112
O22	O	1.366969	0.161355	0.337888
O23	O	0.765426	-0.338640	-0.263640
O24	O	1.265426	0.161360	0.236360
O25	O	0.867017	-0.437599	-0.442201
O26	O	1.367017	0.062401	0.057799
O27	O	0.765413	-0.437657	-0.340582
O28	O	1.265413	0.062343	0.159418
O29	O	0.944014	-0.338539	-0.442254
O30	O	1.444014	0.161461	0.057746
O31	O	0.943876	-0.568349	-0.263676
O32	O	1.443876	-0.068349	0.236324
O33	O	0.866939	-0.568345	-0.340602
O34	O	1.366939	-0.068345	0.159398
C35	C	0.742686	-0.388155	-0.302101
C36	C	1.242686	0.111845	0.197899
C37	C	0.673044	-0.388192	-0.302085
C38	C	1.173044	0.111808	0.197915
C39	C	0.640341	-0.439819	-0.342088
C40	C	1.140341	0.060181	0.157912
C41	C	0.574905	-0.439799	-0.342116
C42	C	1.074905	0.060201	0.157884
C43	C	0.542176	-0.388161	-0.302129
C44	C	1.042176	0.111839	0.197871
C45	C	0.574887	-0.336525	-0.262123
C46	C	1.074887	0.163475	0.237877
C47	C	0.640321	-0.336540	-0.262101
C48	C	1.140321	0.163460	0.237899
C49	C	0.438451	-0.381677	-0.245724
C50	C	0.938451	0.118323	0.254276
C51	C	0.373019	-0.381668	-0.245745
C52	C	0.873019	0.118332	0.254255
C53	C	0.340355	-0.388109	-0.302198
C54	C	0.840355	0.111891	0.197802
C55	C	0.373133	-0.394577	-0.358632
C56	C	0.873133	0.105423	0.141368
C57	C	0.438567	-0.394592	-0.358610
C58	C	0.938567	0.105408	0.141390
C59	C	0.471224	-0.388138	-0.302149
C60	C	0.971224	0.111862	0.197851
C61	C	0.236699	-0.439716	-0.342236
C62	C	0.736699	0.060284	0.157764
C63	C	0.171263	-0.439691	-0.342265
C64	C	0.671263	0.060309	0.157735
C65	C	0.171246	-0.336421	-0.262266
C66	C	0.671246	0.163579	0.237734
C67	C	0.236681	-0.336442	-0.262242
C68	C	0.736681	0.163558	0.237758
C69	C	0.269404	-0.388094	-0.302227
C70	C	0.769404	0.111906	0.197773
C71	C	0.905414	-0.597603	-0.302147
C72	C	1.405414	-0.097603	0.197853
C73	C	0.905446	-0.687224	-0.302157
C74	C	1.405446	-0.187224	0.197843
C75	C	0.905555	-1.015400	-0.302222
C76	C	1.405555	-0.515400	0.197778
C77	C	0.905523	-0.924091	-0.302206
C78	C	1.405523	-0.424091	0.197794
C79	C	0.905500	-0.851315	-0.302189
C80	C	1.405500	-0.351315	0.197811
C81	C	0.905469	-0.760001	-0.302174
C82	C	1.405469	-0.260001	0.197826
C83	C	1.068897	-0.388070	-0.302247
C84	C	1.568897	0.111930	0.197753
C85	C	1.138538	-0.388052	-0.302278
C86	C	1.638538	0.111948	0.197722
C87	C	0.905522	-0.388062	-0.465597
C88	C	1.405522	0.111938	0.034403
C89	C	0.905544	-0.388041	-0.535238
C90	C	1.405544	0.111959	-0.035238
C91	C	0.905550	-0.177803	-0.302214
C92	C	1.405550	0.322197	0.197786
C93	C	0.905582	-0.088182	-0.302231
C94	C	1.405582	0.411818	0.197769
C95	C	0.865500	-0.336475	-0.567933
C96	C	1.365500	0.163525	-0.067933
C97	C	0.865497	-0.336460	-0.633369
C98	C	1.365497	0.163540	-0.133369
C99	C	0.905550	-0.388002	-0.666107
C100	C	1.405550	0.111998	-0.166107
C101	C	0.945597	-0.439578	-0.633404
C102	C	1.445597	0.060422	-0.133404
C103	C	0.945594	-0.439597	-0.567969
C104	C	1.445594	0.060403	-0.067969
C105	C	0.962003	-0.394322	-0.769812
C106	C	1.462003	0.105678	-0.269812
C107	C	0.962008	-0.394297	-0.835245
C108	C	1.462008	0.105703	-0.335245
C109	C	0.905561	-0.387948	-0.867927
C110	C	1.405561	0.112052	-0.367927
C111	C	0.849108	-0.381607	-0.835169
C112	C	1.349108	0.118393	-0.335169
C113	C	0.849104	-0.381626	-0.769735
C114	C	1.349104	0.118374	-0.269735
C115	C	0.905558	-0.387988	-0.737059
C116	C	1.405558	0.112012	-0.237059
C117	C	0.865511	-0.336363	-0.971575
C118	C	1.365511	0.163637	-0.471575
C119	C	0.865508	-0.336354	-1.037012
C120	C	1.365508	0.163646	-0.537012
C121	C	0.945613	-0.439468	-1.037045
C122	C	1.445613	0.060532	-0.537045
C123	C	0.945611	-0.439481	-0.971610
C124	C	1.445611	0.060519	-0.471610
C125	C	0.905561	-0.387925	-0.938879
C126	C	1.405561	0.112075	-0.438879
C127	C	0.905460	-0.388104	-0.139386
C128	C	1.405460	0.111896	0.360614
C129	C	0.905561	-0.387898	-0.069745
C130	C	1.405561	0.112102	0.430255
H131	H	0.666948	-0.294498	-0.229525
H132	H	1.166948	0.205502	0.270475
F133	F	0.988238	-0.494328	-1.071883
F134	F	1.488238	0.005672	-0.571883
F135	F	0.136458	-0.494638	-0.384848
F136	F	0.636458	0.005362	0.115152
F137	F	1.022089	-0.401051	-0.870103
F138	F	1.522089	0.098949	-0.370103
H139	H	0.832885	-0.294497	-0.541288
H140	H	1.332885	0.205503	-0.041288
H141	H	0.346540	-0.399820	-0.404602
H142	H	0.846540	0.100180	0.095398
F143	F	0.136417	-0.281460	-0.219712
F144	F	0.636417	0.218540	0.280288
H145	H	0.263344	-0.481770	-0.374796
H146	H	0.763344	0.018230	0.125204
H147	H	0.465252	-0.399856	-0.404560
H148	H	0.965252	0.100144	0.095440
F149	F	0.988235	-0.494361	-0.936812
F150	F	1.488235	0.005639	-0.436812
H151	H	0.263309	-0.294407	-0.229664
H152	H	0.763309	0.205593	0.270336
F153	F	0.675163	-0.494789	-0.384645
F154	F	1.175163	0.005211	0.115355
F155	F	0.338140	-0.374784	-0.185685
F156	F	0.838140	0.125216	0.314315
F157	F	0.473208	-0.374823	-0.185635
F158	F	0.973208	0.125177	0.314365
H159	H	0.548235	-0.294480	-0.229567
H160	H	1.048235	0.205520	0.270433
H161	H	0.978208	-0.481545	-0.660063
H162	H	1.478208	0.018455	-0.160063
F163	F	0.822886	-0.281561	-0.668172
F164	F	1.322886	0.218439	-0.168172
F165	F	0.540093	-0.494749	-0.384695
F166	F	1.040093	0.005251	0.115305
H167	H	0.803143	-0.376432	-0.861777
H168	H	1.303143	0.123568	-0.361777
F169	F	0.789024	-0.374882	-0.734873
F170	F	1.289024	0.125118	-0.234873
F171	F	0.822884	-0.281497	-0.936738
F172	F	1.322884	0.218503	-0.436738
F173	F	0.822871	-0.281486	-1.071808
F174	F	1.322871	0.218514	-0.571808
H175	H	1.007973	-0.399485	-0.743207
H176	H	1.507973	0.100515	-0.243207
H177	H	0.978205	-0.481588	-0.541349
H178	H	1.478205	0.018412	-0.041349
