data_functionalizedCrystal
_audit_creation_method	'MofGen! by Chris Wilmer'
_symmetry_space_group_name_H-M	'P1'
_symmetry_Int_Tables_number	1
_symmetry_cell_setting	triclinic
loop_
_symmetry_equiv_pos_as_xyz
  x,y,z
_cell_length_a	12.837943
_cell_length_b	27.732048
_cell_length_c	11.892095
_cell_angle_alpha	93.851775
_cell_angle_beta	85.689438
_cell_angle_gamma	88.735798
loop_
_atom_site_label
_atom_site_type_symbol
_atom_site_fract_x
_atom_site_fract_y
_atom_site_fract_z
O1	O	1.380115	0.122782	-0.094008
O2	O	1.078409	0.116579	-0.094014
O3	O	1.238631	0.049749	-0.093989
O4	O	1.219894	0.189612	-0.094033
O5	O	1.225272	0.055311	0.094016
O6	O	1.065051	0.122142	0.093992
O7	O	1.366757	0.128345	0.093997
Zn8	Zn	1.213783	0.126126	0.123844
Zn9	Zn	1.231383	0.118797	-0.123861
O10	O	1.206535	0.195175	0.093973
C11	C	1.033143	0.117265	-0.000011
C12	C	0.918166	0.111016	-0.000012
C13	C	0.676005	0.186144	-0.000019
C14	C	0.567973	0.180275	-0.000020
C15	C	0.594068	0.093407	-0.000005
C16	C	0.702100	0.099277	-0.000005
C17	C	0.743064	0.145647	-0.000014
C18	C	0.851099	0.151516	-0.000022
C19	C	0.877191	0.064649	0.000001
C20	C	0.769159	0.058780	0.000001
C21	C	1.231558	0.034504	0.000017
C22	C	1.230373	-0.019210	0.000026
C23	C	1.317601	-0.353705	-0.000031
C24	C	1.313207	-0.555583	-0.000046
O25	O	1.392971	-0.582888	-0.000094
N26	N	1.218201	-0.579414	-0.000047
C27	C	1.124288	-0.552772	-0.000051
O28	O	1.043379	-0.577674	-0.000064
C29	C	1.128683	-0.350895	-0.000043
C30	C	1.223695	-0.327067	-0.000031
C31	C	1.412605	-0.329876	-0.000020
C32	C	1.413702	-0.279410	-0.000010
C33	C	1.319795	-0.252772	-0.000010
C34	C	1.224792	-0.276600	-0.000021
C35	C	1.034772	-0.324255	-0.000056
C36	C	1.035879	-0.273783	-0.000056
C37	C	1.130890	-0.249954	-0.000044
C38	C	1.131982	-0.199496	-0.000012
N39	N	1.226988	-0.175665	-0.000011
C40	C	1.320894	-0.202303	-0.000010
C41	C	1.121987	-0.658760	-0.000053
C42	C	1.120887	-0.709229	-0.000053
C43	C	1.309807	-0.712036	-0.000050
C44	C	1.310905	-0.661566	-0.000042
C45	C	1.216992	-0.634929	-0.000052
C46	C	1.323191	-0.096319	0.000012
C47	C	1.324280	-0.045848	0.000027
C48	C	1.135361	-0.043045	0.000018
C49	C	1.134271	-0.093512	0.000009
C50	C	1.228195	-0.120148	0.000002
O51	O	1.052262	-0.172160	0.000024
O52	O	1.401793	-0.177392	-0.000023
C53	C	1.316504	-0.404172	-0.000041
C54	C	1.221500	-0.428000	-0.000051
C55	C	1.127594	-0.401362	-0.000052
C56	C	1.220401	-0.478469	-0.000051
C57	C	1.314308	-0.505107	-0.000051
C58	C	1.409314	-0.481276	-0.000050
C59	C	1.410411	-0.430810	-0.000040
C60	C	1.032588	-0.425193	-0.000053
C61	C	1.031499	-0.475660	-0.000062
C62	C	1.125405	-0.502298	-0.000061
C63	C	1.412023	0.127658	-0.000008
C64	C	1.527001	0.133908	-0.000014
C65	C	1.213608	0.210420	-0.000035
C66	C	1.214794	0.264133	-0.000052
N67	N	1.201778	0.131128	0.292897
N68	N	1.243396	0.113792	-0.292913
C69	C	1.326930	0.078958	0.529564
C70	C	1.318546	0.082459	0.647904
C71	C	1.176623	0.141626	0.647921
C72	C	1.185007	0.138126	0.529580
C73	C	1.260163	0.106791	0.470406
C74	C	1.268551	0.103294	0.352063
C75	C	1.126624	0.162459	0.352082
C76	C	1.118240	0.165959	0.470422
H77	H	0.931804	0.031673	-0.000001
N78	N	1.041472	0.197969	0.530854
N79	N	0.981866	0.222818	0.478017
H80	H	0.927646	0.245426	0.520694
N81	N	1.345274	0.071277	0.291577
N82	N	1.317509	0.037832	0.225562
H83	H	1.371682	0.015216	0.182831
N84	N	0.892927	0.198883	-0.000014
N85	N	0.866491	0.229649	0.079236
H86	H	0.896028	0.263103	0.079246
N87	N	0.937726	-0.348593	-0.000066
N88	N	0.910382	-0.374103	0.079173
H89	H	0.841838	-0.391291	0.079165
N90	N	1.058437	0.190894	0.291635
N91	N	1.065939	0.187770	0.185975
H92	H	1.017788	0.207854	0.143282
H93	H	1.401652	-0.026449	0.000039
N94	N	1.507462	-0.406473	-0.000012
N95	N	1.564950	-0.410716	0.079242
H96	H	1.633498	-0.393531	0.079263
H97	H	0.709358	0.223900	-0.000028
H98	H	0.513376	0.213252	-0.000021
H99	H	1.115425	0.167134	0.696116
N100	N	0.552208	0.046047	0.000031
N101	N	0.489209	0.035429	0.079290
H102	H	0.459642	0.001980	0.079317
N103	N	0.727293	0.011420	0.000019
N104	N	0.630835	0.006185	0.000023
H105	H	0.601267	-0.027264	0.000034
H106	H	1.399673	-0.118000	0.000002
N107	N	1.405742	-0.739243	-0.000045
N108	N	1.463493	-0.732211	0.079197
H109	H	1.531245	-0.751427	0.079195
H110	H	1.491070	-0.260013	-0.000004
H111	H	1.045507	-0.637077	-0.000061
N112	N	1.508547	-0.357074	-0.000027
N113	N	1.593356	-0.335783	-0.000021
H114	H	1.661122	-0.354988	-0.000020
N115	N	1.407964	-0.637236	-0.000025
N116	N	1.491796	-0.661031	-0.000015
H117	H	1.560350	-0.643851	-0.000003
H118	H	1.043518	-0.728625	-0.000043
H119	H	0.959402	-0.252098	-0.000066
N120	N	1.037211	-0.117846	0.000032
N121	N	0.953372	-0.094053	0.000049
H122	H	0.884820	-0.111236	0.000061
H123	H	1.372913	0.059793	0.696067
N124	N	1.039447	-0.015829	-0.000017
N125	N	0.981725	-0.022861	-0.079285
H126	H	0.913986	-0.003638	-0.079321
N127	N	1.505228	-0.508499	-0.000037
N128	N	1.504219	-0.553559	-0.000042
H129	H	1.571954	-0.572788	-0.000037
N130	N	0.934429	-0.499989	-0.000061
N131	N	0.850596	-0.476193	-0.000062
H132	H	0.782042	-0.493373	-0.000069
N133	N	0.936660	-0.397988	-0.000069
N134	N	0.878920	-0.405025	-0.079318
H135	H	0.811164	-0.385813	-0.079326
N136	N	1.403610	0.046904	0.469129
N137	N	1.463157	0.022023	0.521964
H138	H	1.517277	-0.000636	0.479284
