data_functionalizedCrystal
_audit_creation_method	'MofGen! by Chris Wilmer'
_symmetry_space_group_name_H-M	'P1'
_symmetry_Int_Tables_number	1
_symmetry_cell_setting	triclinic
loop_
_symmetry_equiv_pos_as_xyz
  x,y,z
_cell_length_a	16.959455
_cell_length_b	18.050589
_cell_length_c	16.959455
_cell_angle_alpha	90.005878
_cell_angle_beta	90.005786
_cell_angle_gamma	90.025168
loop_
_atom_site_label
_atom_site_type_symbol
_atom_site_fract_x
_atom_site_fract_y
_atom_site_fract_z
Zn1	Zn	1.208272	-0.295858	0.446929
Zn2	Zn	1.708272	0.204142	0.946929
Zn3	Zn	1.208196	-0.420014	0.314759
Zn4	Zn	1.708196	0.079986	0.814759
Zn5	Zn	1.076121	-0.295836	0.314766
Zn6	Zn	1.576121	0.204164	0.814766
Zn7	Zn	1.076047	-0.420004	0.446897
Zn8	Zn	1.576047	0.079996	0.946897
O9	O	1.142159	-0.357928	0.380838
O10	O	1.642159	0.142072	0.880838
O11	O	1.318873	-0.312341	0.429406
O12	O	1.818873	0.187659	0.929406
O13	O	1.190675	-0.403537	0.204149
O14	O	1.690675	0.096463	0.704149
O15	O	1.093714	-0.191914	0.332314
O16	O	1.593714	0.308086	0.832314
O17	O	1.318817	-0.403558	0.332301
O18	O	1.818817	0.096442	0.832301
O19	O	1.190805	-0.191930	0.429413
O20	O	1.690805	0.308070	0.929413
O21	O	1.093639	-0.312304	0.204154
O22	O	1.593639	0.187696	0.704154
O23	O	0.965500	-0.312293	0.332284
O24	O	1.465500	0.187707	0.832284
O25	O	1.093588	-0.403540	0.557512
O26	O	1.593588	0.096460	1.057512
O27	O	0.965446	-0.403519	0.429360
O28	O	1.465446	0.096481	0.929360
O29	O	1.190734	-0.312330	0.557535
O30	O	1.690734	0.187670	1.057535
O31	O	1.190603	-0.523937	0.332271
O32	O	1.690603	-0.023937	0.832271
O33	O	1.093514	-0.523930	0.429352
O34	O	1.593514	-0.023930	0.929352
C35	C	0.936793	-0.357903	0.380819
C36	C	1.436793	0.142097	0.880819
C37	C	0.848936	-0.357911	0.380830
C38	C	1.348936	0.142089	0.880830
C39	C	0.477464	-0.310388	0.330396
C40	C	0.977464	0.189612	0.830396
C41	C	0.477457	-0.405529	0.431325
C42	C	0.977457	0.094471	0.931325
C43	C	0.560002	-0.405518	0.431320
C44	C	1.060002	0.094482	0.931320
C45	C	0.601283	-0.357942	0.380851
C46	C	1.101283	0.142058	0.880851
C47	C	0.560018	-0.310377	0.330388
C48	C	1.060018	0.189623	0.830388
C49	C	0.601274	-0.453088	0.481777
C50	C	1.101274	0.046912	0.981777
C51	C	0.683825	-0.453080	0.481774
C52	C	1.183825	0.046920	0.981774
C53	C	0.725107	-0.405500	0.431308
C54	C	1.225107	0.094500	0.931308
C55	C	0.683837	-0.357932	0.380843
C56	C	1.183837	0.142068	0.880843
C57	C	0.725117	-0.310356	0.330375
C58	C	1.225117	0.189644	0.830375
C59	C	0.683848	-0.262784	0.279913
C60	C	1.183848	0.237216	0.779913
C61	C	0.601300	-0.262797	0.279922
C62	C	1.101300	0.237203	0.779922
C63	C	0.807655	-0.405486	0.431299
C64	C	1.307655	0.094514	0.931299
C65	C	0.807671	-0.310345	0.330367
C66	C	1.307671	0.189655	0.830367
C67	C	1.142063	-0.550880	0.380825
C68	C	1.642063	-0.050880	0.880825
C69	C	1.142095	-0.633426	0.380845
C70	C	1.642095	-0.133426	0.880845
C71	C	1.089350	-0.832899	0.433620
C72	C	1.589350	-0.332899	0.933620
C73	C	1.070097	-0.882317	0.361493
C74	C	1.570097	-0.382317	0.861493
C75	C	1.142173	-0.784556	0.380856
C76	C	1.642173	-0.284556	0.880856
C77	C	1.161464	-0.882219	0.452991
C78	C	1.661464	-0.382219	0.952991
C79	C	1.142246	-0.930541	0.380872
C80	C	1.642246	-0.430541	0.880872
C81	C	1.122883	-0.832887	0.308691
C82	C	1.622883	-0.332887	0.808691
C83	C	1.214282	-0.832785	0.400237
C84	C	1.714282	-0.332785	0.900237
C85	C	1.195057	-0.882181	0.328060
C86	C	1.695057	-0.382181	0.828060
C87	C	1.142128	-0.700458	0.380847
C88	C	1.642128	-0.200458	0.880847
C89	C	1.142291	-1.014638	0.380872
C90	C	1.642291	-0.514638	0.880872
C91	C	1.348327	-0.357953	0.380856
C92	C	1.848327	0.142047	0.880856
C93	C	1.436184	-0.357964	0.380864
C94	C	1.936184	0.142036	0.880864
C95	C	1.142161	-0.357936	0.587006
C96	C	1.642161	0.142064	1.087006
C97	C	1.142162	-0.357940	0.674862
C98	C	1.642162	0.142060	1.174862
C99	C	1.142276	-0.164222	0.380868
C100	C	1.642276	0.335778	0.880868
C101	C	1.142326	-0.081676	0.380881
C102	C	1.642326	0.418324	0.880881
C103	C	1.091584	-0.405431	0.716126
C104	C	1.591584	0.094569	1.216126
C105	C	1.192736	-0.310448	0.716152
C106	C	1.692736	0.189552	1.216152
C107	C	1.192736	-0.310447	0.798698
C108	C	1.692736	0.189553	1.298698
C109	C	1.142158	-0.357938	0.839962
C110	C	1.642158	0.142062	1.339962
C111	C	1.091580	-0.405430	0.798679
C112	C	1.591580	0.094570	1.298679
C113	C	1.243306	-0.262950	0.839987
C114	C	1.743306	0.237050	1.339987
C115	C	1.243307	-0.262947	0.922538
C116	C	1.743307	0.237053	1.422538
C117	C	1.192733	-0.310442	0.963803
C118	C	1.692733	0.189558	1.463803
C119	C	1.142154	-0.357937	0.922515
C120	C	1.642154	0.142063	1.422515
C121	C	1.091576	-0.405428	0.963779
C122	C	1.591576	0.094572	1.463779
C123	C	1.041001	-0.452927	0.922493
C124	C	1.541001	0.047073	1.422493
C125	C	1.041006	-0.452926	0.839944
C126	C	1.541006	0.047074	1.339944
C127	C	1.192728	-0.310444	1.046351
C128	C	1.692728	0.189556	1.546351
C129	C	1.091573	-0.405427	1.046332
C130	C	1.591573	0.094573	1.546332
C131	C	1.142151	-0.357936	1.175471
C132	C	1.642151	0.142064	1.675471
C133	C	1.142150	-0.357935	1.087615
C134	C	1.642150	0.142065	1.587615
H135	H	0.841253	-0.444221	0.472382
H136	H	1.341253	0.055779	0.972382
H137	H	0.567657	-0.491827	0.522860
H138	H	1.067657	0.008173	1.022860
N139	N	1.254270	-0.910678	0.268905
N140	N	1.754270	-0.410678	0.768905
H141	H	1.308553	-0.891860	0.283050
H142	H	1.808553	-0.391860	0.783050
H143	H	1.239558	-0.892630	0.214493
H144	H	1.739558	-0.392630	0.714493
H145	H	0.999816	-0.491590	0.956100
H146	H	1.499816	0.008410	1.456100
N147	N	0.432942	-0.456839	0.485762
N148	N	0.932942	0.043161	0.985762
H149	H	0.447290	-0.509881	0.473392
H150	H	0.947290	-0.009881	0.973392
H151	H	0.374399	-0.449568	0.478087
H152	H	0.874399	0.050432	0.978087
N153	N	1.247267	-0.259213	1.090876
N154	N	1.747267	0.240787	1.590876
H155	H	1.303738	-0.270746	1.076516
H156	H	1.803738	0.229254	1.576516
H157	H	1.239526	-0.266440	1.149418
H158	H	1.739526	0.233560	1.649418
N159	N	0.852185	-0.259021	0.275935
N160	N	1.352185	0.240979	0.775935
H161	H	0.837802	-0.270468	0.219439
H162	H	1.337802	0.229532	0.719439
H163	H	0.910728	-0.266252	0.283649
H164	H	1.410728	0.233748	0.783649
H165	H	0.999830	-0.491596	0.806322
H166	H	1.499830	0.008404	1.306322
N167	N	1.294992	-0.803941	0.421979
N168	N	1.794992	-0.303941	0.921979
H169	H	1.294486	-0.747993	0.421301
H170	H	1.794486	-0.247993	0.921301
H171	H	1.335032	-0.822702	0.382691
H172	H	1.835032	-0.322702	0.882691
H173	H	1.284481	-0.224283	0.806384
H174	H	1.784481	0.275717	1.306384
N175	N	1.183040	-0.910931	0.533783
N176	N	1.683040	-0.410931	1.033783
H177	H	1.143072	-0.893005	0.573587
H178	H	1.643072	-0.393005	1.073587
H179	H	1.237105	-0.892134	0.548758
H180	H	1.737105	-0.392134	1.048758
H181	H	1.050388	-0.444103	1.079923
H182	H	1.550388	0.055897	1.579923
N183	N	1.030100	-0.804231	0.492646
N184	N	1.530100	-0.304231	0.992646
H185	H	0.975670	-0.822252	0.477905
H186	H	1.475670	-0.322252	0.977905
H187	H	1.030912	-0.748284	0.492554
H188	H	1.530912	-0.248284	0.992554
H189	H	1.050409	-0.444106	0.682507
H190	H	1.550409	0.055894	1.182507
N191	N	1.247296	-0.259232	0.671659
N192	N	1.747296	0.240768	1.171659
H193	H	1.303760	-0.270780	0.686041
H194	H	1.803760	0.229220	1.186041
H195	H	1.234988	-0.206188	0.686050
H196	H	1.734988	0.293812	1.186050
N197	N	0.989365	-0.911131	0.339769
N198	N	1.489365	-0.411131	0.839769
H199	H	0.949471	-0.893208	0.379649
H200	H	1.449471	-0.393208	0.879649
H201	H	0.990188	-0.967076	0.339418
H202	H	1.490188	-0.467076	0.839418
N203	N	1.297845	-0.211712	0.967065
N204	N	1.797845	0.288288	1.467065
H205	H	1.329882	-0.181625	0.928398
H206	H	1.829882	0.318375	1.428398
H207	H	1.334412	-0.241938	1.001319
H208	H	1.834412	0.258062	1.501319
H209	H	0.717470	-0.224051	0.238818
H210	H	1.217470	0.275949	0.738818
N211	N	1.101218	-0.804308	0.227869
N212	N	1.601218	-0.304308	0.727869
H213	H	1.051879	-0.773196	0.231665
H214	H	1.551879	-0.273196	0.731665
H215	H	1.091499	-0.847532	0.191315
H216	H	1.591499	-0.347532	0.691315
N217	N	0.556790	-0.211514	0.225475
N218	N	1.056790	0.288486	0.725475
H219	H	0.498232	-0.218752	0.233129
H220	H	0.998232	0.281248	0.733129
H221	H	0.571220	-0.223010	0.169010
H222	H	1.071220	0.276990	0.669010
H223	H	0.443859	-0.271654	0.289313
H224	H	0.943859	0.228346	0.789313
H225	H	0.717419	-0.491815	0.522863
H226	H	1.217419	0.008185	1.022863
