data_functionalizedCrystal
_audit_creation_method	'MofGen! by Chris Wilmer'
_symmetry_space_group_name_H-M	'P1'
_symmetry_Int_Tables_number	1
_symmetry_cell_setting	triclinic
loop_
_symmetry_equiv_pos_as_xyz
  x,y,z
_cell_length_a	18.050590
_cell_length_b	18.050589
_cell_length_c	18.050583
_cell_angle_alpha	90.031709
_cell_angle_beta	89.999666
_cell_angle_gamma	89.976137
loop_
_atom_site_label
_atom_site_type_symbol
_atom_site_fract_x
_atom_site_fract_y
_atom_site_fract_z
Zn1	Zn	1.135267	0.295821	-0.419625
Zn2	Zn	1.135161	0.420034	-0.295445
Zn3	Zn	1.011084	0.295839	-0.295483
Zn4	Zn	1.011020	0.419950	-0.419628
O5	O	1.073133	0.357911	-0.357545
O6	O	1.239178	0.312326	-0.403135
O7	O	1.118685	0.403602	-0.191526
O8	O	1.027628	0.191912	-0.311966
O9	O	1.239100	0.403585	-0.311901
O10	O	1.118865	0.191899	-0.403173
O11	O	1.027525	0.312356	-0.191554
O12	O	0.907151	0.312275	-0.311968
O13	O	1.027519	0.403442	-0.523552
O14	O	0.907104	0.403459	-0.403177
O15	O	1.118803	0.312245	-0.523550
O16	O	1.118623	0.523948	-0.311903
O17	O	1.027417	0.523886	-0.403140
C18	C	0.880181	0.357860	-0.357577
C19	C	0.797635	0.357857	-0.357609
C20	C	0.598181	0.407584	-0.407090
C21	C	0.548796	0.339865	-0.425360
C22	C	0.646505	0.357898	-0.357572
C23	C	0.548808	0.425656	-0.339302
C24	C	0.500520	0.357944	-0.357539
C25	C	0.598207	0.290143	-0.375878
C26	C	0.598224	0.375979	-0.289788
C27	C	0.548861	0.308213	-0.308032
C28	C	0.730603	0.357872	-0.357594
C29	C	0.416423	0.357962	-0.357517
C30	C	1.073022	0.550863	-0.357534
C31	C	1.073042	0.633409	-0.357554
C32	C	1.023470	0.832853	-0.407151
C33	C	1.005366	0.882300	-0.339389
C34	C	1.073098	0.784539	-0.357564
C35	C	1.091222	0.882174	-0.425334
C36	C	1.073150	0.930524	-0.357580
C37	C	1.054958	0.832899	-0.289766
C38	C	1.140846	0.832769	-0.375757
C39	C	1.122767	0.882193	-0.307948
C40	C	1.073066	0.700441	-0.357556
C41	C	1.073183	1.014621	-0.357580
C42	C	1.266839	0.357963	-0.357514
C43	C	1.349384	0.357984	-0.357500
C44	C	1.073166	0.357832	-0.551251
C45	C	1.073180	0.357798	-0.633797
C46	C	1.073237	1.164205	-0.357574
C47	C	1.073209	1.081660	-0.357589
C48	C	1.122870	0.308181	-0.833247
C49	C	1.055138	0.289992	-0.882659
C50	C	1.073210	0.357785	-0.784927
C51	C	1.140969	0.375927	-0.882597
C52	C	1.073244	0.357772	-0.930912
C53	C	1.005442	0.339561	-0.833252
C54	C	1.091318	0.425528	-0.833186
C55	C	1.023540	0.407365	-0.882576
C56	C	1.073191	0.357791	-0.700829
C57	C	1.073256	0.357766	-1.015009
C58	C	1.073143	0.357936	-0.164593
C59	C	1.073273	0.357761	-0.082048
H60	H	0.527342	0.266166	-0.266143
H61	H	0.619952	0.391278	-0.232495
H62	H	1.106532	0.903819	-0.482641
H63	H	0.527106	0.482939	-0.323865
O64	O	1.209126	0.806824	-0.394263
C65	C	1.228002	0.831899	-0.465773
H66	H	1.175360	0.845791	-0.497781
H67	H	1.259857	0.786646	-0.496250
H68	H	1.264053	0.883536	-0.461115
H69	H	0.981447	0.811188	-0.449026
O70	O	0.936999	0.908224	-0.321154
C71	C	0.884812	0.883074	-0.373552
H72	H	0.914306	0.869157	-0.427647
H73	H	0.841951	0.928293	-0.383940
H74	H	0.855980	0.831438	-0.351441
O75	O	1.036869	0.221696	-0.908721
C76	C	1.036513	0.222825	-0.986821
H77	H	1.027818	0.282046	-1.006944
H78	H	0.989691	0.186244	-1.008214
H79	H	1.091742	0.201097	-1.008460
O80	O	0.623935	0.457717	-0.457052
C81	C	0.597702	0.528905	-0.438387
H82	H	0.545355	0.523595	-0.403464
H83	H	0.584606	0.561004	-0.491164
H84	H	0.641933	0.559683	-0.405443
O85	O	1.172806	0.258009	-0.807433
C86	C	1.153458	0.186655	-0.832659
H87	H	1.091861	0.185237	-0.846529
H88	H	1.165861	0.144296	-0.787505
H89	H	1.187005	0.172732	-0.884340
O90	O	1.036591	0.807066	-0.221432
C91	C	1.036772	0.728959	-0.222252
H92	H	1.028468	0.708482	-0.281425
H93	H	0.989941	0.707452	-0.185766
H94	H	1.092053	0.707785	-0.200228
O95	O	0.624014	0.221831	-0.394503
C96	C	0.667473	0.227116	-0.459187
H97	H	0.651043	0.278901	-0.491370
H98	H	0.658016	0.176071	-0.495178
H99	H	0.728503	0.230647	-0.443321
H100	H	1.164758	0.903721	-0.265971
H101	H	1.198257	0.391276	-0.904276
H102	H	0.948138	0.324144	-0.811667
H103	H	0.527084	0.324587	-0.482669
H104	H	0.981511	0.449308	-0.904099
H105	H	1.106645	0.482806	-0.811441
