data_functionalizedCrystal
_audit_creation_method	'MofGen! by Chris Wilmer'
_symmetry_space_group_name_H-M	'P1'
_symmetry_Int_Tables_number	1
_symmetry_cell_setting	triclinic
loop_
_symmetry_equiv_pos_as_xyz
  x,y,z
_cell_length_a	14.519709
_cell_length_b	19.188930
_cell_length_c	13.596369
_cell_angle_alpha	89.988893
_cell_angle_beta	90.000291
_cell_angle_gamma	83.412464
loop_
_atom_site_label
_atom_site_type_symbol
_atom_site_fract_x
_atom_site_fract_y
_atom_site_fract_z
O1	O	1.223300	0.091524	-0.081675
O2	O	0.954756	0.102302	-0.081706
O3	O	1.096778	-0.004715	-0.081670
O4	O	1.081278	0.198542	-0.081711
O5	O	1.096763	-0.004720	0.081912
O6	O	0.954742	0.102297	0.081877
O7	O	1.223286	0.091519	0.081908
Zn8	Zn	1.089012	0.096907	0.107865
Zn9	Zn	1.089030	0.096914	-0.107663
O10	O	1.081264	0.198536	0.081872
C11	C	0.920392	0.101797	0.000081
C12	C	0.818020	0.100292	0.000070
C13	C	0.443159	0.094751	0.000116
C14	C	0.547457	0.096290	0.000103
C15	C	0.630586	0.097521	0.000092
C16	C	0.734891	0.099060	0.000081
C17	C	1.096269	-0.030730	0.000124
C18	C	1.094762	-0.108240	0.000132
C19	C	1.178095	-0.152867	0.000146
C20	C	1.176680	-0.225696	0.000131
C21	C	1.091926	-0.253895	0.000120
C22	C	1.008582	-0.209257	0.000100
C23	C	1.009999	-0.136430	0.000106
N24	N	1.027137	-0.362132	0.055783
N25	N	1.025796	-0.431316	0.055779
C26	C	1.087649	-0.473318	0.000100
N27	N	1.150908	-0.443526	-0.055564
N28	N	1.152252	-0.374336	-0.055556
C29	C	1.090379	-0.332863	0.000113
C30	C	1.169454	-0.596916	0.000095
C31	C	1.168035	-0.669745	0.000073
C32	C	0.999934	-0.653305	0.000053
C33	C	1.001355	-0.580477	0.000065
C34	C	1.086118	-0.552287	0.000091
C35	C	1.257649	0.092024	0.000118
C36	C	1.360021	0.093529	0.000123
C37	C	1.081773	0.224551	0.000076
C38	C	1.083280	0.302061	0.000061
N39	N	1.089006	0.096901	0.254956
N40	N	1.089043	0.096914	-0.254755
C41	C	1.089029	0.096915	0.656247
C42	C	1.089020	0.096914	0.544596
C43	C	1.089018	0.096909	0.455605
C44	C	1.089008	0.096906	0.343947
H45	H	1.244542	-0.262039	0.000138
C46	C	0.910975	-0.531903	0.000009
C47	C	0.930356	-0.462089	-0.000008
C48	C	0.847118	-0.417324	-0.000077
H49	H	0.876135	-0.540379	0.057033
H50	H	0.876209	-0.540411	-0.057065
H51	H	0.965108	-0.453585	0.057060
H52	H	0.965183	-0.453591	-0.057027
H53	H	0.812351	-0.425832	-0.057152
H54	H	0.812284	-0.425806	0.056947
H55	H	0.860256	-0.369951	-0.000098
H56	H	0.942137	-0.100094	0.000095
H57	H	0.939574	-0.232221	0.000089
C58	C	1.261571	-0.566438	0.000053
C59	C	1.334251	-0.621113	0.000023
C60	C	1.419123	-0.593067	-0.000034
H61	H	1.265752	-0.538390	0.057085
H62	H	1.265666	-0.538379	-0.057012
H63	H	1.330158	-0.649160	0.057082
H64	H	1.330101	-0.649165	-0.057005
H65	H	1.423218	-0.565008	-0.057099
H66	H	1.423294	-0.565019	0.056999
H67	H	1.468446	-0.630159	-0.000064
H68	H	0.930926	-0.676263	0.000039
H69	H	1.235898	-0.706081	0.000080
H70	H	1.247116	-0.129920	0.000164
