data_functionalizedCrystal
_audit_creation_method	'MofGen! by Chris Wilmer'
_symmetry_space_group_name_H-M	'P1'
_symmetry_Int_Tables_number	1
_symmetry_cell_setting	triclinic
loop_
_symmetry_equiv_pos_as_xyz
  x,y,z
_cell_length_a	14.044220
_cell_length_b	14.044202
_cell_length_c	9.730223
_cell_angle_alpha	90.013999
_cell_angle_beta	90.000816
_cell_angle_gamma	86.809210
loop_
_atom_site_label
_atom_site_type_symbol
_atom_site_fract_x
_atom_site_fract_y
_atom_site_fract_z
O1	O	1.277175	-0.230170	-0.114189
O2	O	1.777175	0.269830	0.385811
O3	O	1.000504	-0.221865	-0.114222
O4	O	1.500504	0.278135	0.385778
O5	O	1.134682	-0.087681	-0.114168
O6	O	1.634682	0.412319	0.385832
O7	O	1.142997	-0.364354	-0.114242
O8	O	1.642997	0.135646	0.385758
O9	O	1.134670	-0.087672	0.114411
O10	O	1.634670	0.412328	0.614411
O11	O	1.000491	-0.221855	0.114358
O12	O	1.500491	0.278145	0.614358
O13	O	1.277163	-0.230161	0.114391
O14	O	1.777163	0.269839	0.614391
Zn15	Zn	1.138825	-0.226006	0.150667
Zn16	Zn	1.638825	0.273994	0.650667
Zn17	Zn	1.138841	-0.226019	-0.150497
Zn18	Zn	1.638841	0.273981	0.349503
O19	O	1.142985	-0.364344	0.114338
O20	O	1.642985	0.135656	0.614338
C21	C	0.964875	-0.218224	0.000064
C22	C	1.464875	0.281776	0.500064
C23	C	0.858732	-0.207379	0.000053
C24	C	1.358732	0.292621	0.500053
C25	C	1.131039	-0.052054	0.000128
C26	C	1.631039	0.447946	0.500128
C27	C	1.120191	0.054089	0.000146
C28	C	1.620191	0.554089	0.500146
C29	C	1.177289	0.299547	0.000118
C30	C	1.677289	0.799547	0.500118
C31	C	1.100373	0.248422	0.000114
C32	C	1.600373	0.748422	0.500114
C33	C	1.111402	0.140285	0.000132
C34	C	1.611402	0.640285	0.500132
C35	C	1.166262	0.407694	0.000100
C36	C	1.666262	0.907694	0.500100
C37	C	0.664394	-0.187553	0.000086
C38	C	1.164394	0.312447	0.500086
C39	C	0.613267	-0.264468	0.000071
C40	C	1.113267	0.235532	0.500071
C41	C	0.505130	-0.253436	0.000089
C42	C	1.005130	0.246564	0.500089
C43	C	0.772540	-0.198583	0.000068
C44	C	1.272540	0.301417	0.500068
C45	C	1.312791	-0.233801	0.000102
C46	C	1.812791	0.266199	0.500102
C47	C	1.418934	-0.244646	0.000104
C48	C	1.918934	0.255354	0.500104
N49	N	1.138821	-0.225997	0.356203
N50	N	1.638821	0.274003	0.856203
C51	C	1.146626	0.600029	0.000057
C52	C	1.646626	1.100029	0.500057
C53	C	1.157468	0.493886	0.000086
C54	C	1.657468	0.993886	0.500086
N55	N	1.138852	-0.226021	-0.356034
N56	N	1.638852	0.273979	0.143966
C57	C	1.076047	-0.163182	0.572075
C58	C	1.576047	0.336818	1.072075
C59	C	1.076033	-0.163168	0.428192
C60	C	1.576033	0.336832	0.928192
C61	C	1.201633	-0.288839	0.428104
C62	C	1.701633	0.211161	0.928104
C63	C	1.201651	-0.288848	0.571985
C64	C	1.701651	0.211152	1.071985
H65	H	1.026241	0.285865	0.000100
H66	H	1.526241	0.785865	0.500100
H67	H	0.650708	-0.338601	0.000045
H68	H	1.150708	0.161399	0.500045
Br69	Br	1.300843	0.237142	0.000147
Br70	Br	1.800843	0.737142	0.500147
Br71	Br	0.990791	-0.077886	0.330630
Br72	Br	1.490791	0.422114	0.830630
H73	H	0.626955	-0.113425	0.000113
H74	H	1.126955	0.386575	0.500113
Br75	Br	0.990824	-0.077915	0.669760
Br76	Br	1.490824	0.422085	1.169760
Br77	Br	1.286853	-0.374103	0.330407
Br78	Br	1.786853	0.125897	0.830407
H79	H	1.252800	-0.340020	0.630520
H80	H	1.752800	0.159980	1.130520
