data_functionalizedCrystal
_audit_creation_method	'MofGen! by Chris Wilmer'
_symmetry_space_group_name_H-M	'P1'
_symmetry_Int_Tables_number	1
_symmetry_cell_setting	triclinic
loop_
_symmetry_equiv_pos_as_xyz
  x,y,z
_cell_length_a	16.625548
_cell_length_b	12.645330
_cell_length_c	12.645331
_cell_angle_alpha	90.010682
_cell_angle_beta	90.009786
_cell_angle_gamma	90.018760
loop_
_atom_site_label
_atom_site_type_symbol
_atom_site_fract_x
_atom_site_fract_y
_atom_site_fract_z
Zn1	Zn	1.232621	-0.422149	0.599440
Zn2	Zn	1.232561	-0.599393	0.422180
Zn3	Zn	1.097809	-0.422148	0.422185
Zn4	Zn	1.097765	-0.599374	0.599396
O5	O	1.165189	-0.510766	0.510800
O6	O	1.345446	-0.445670	0.575942
O7	O	1.214679	-0.575888	0.273833
O8	O	1.115735	-0.273801	0.445719
O9	O	1.345402	-0.575890	0.445710
O10	O	1.214782	-0.273802	0.575947
O11	O	1.115677	-0.445667	0.273837
O12	O	0.984970	-0.445649	0.445676
O13	O	1.115661	-0.575858	0.747749
O14	O	0.984938	-0.575856	0.575872
O15	O	1.214739	-0.445651	0.747781
O16	O	1.214637	-0.747738	0.445668
O17	O	1.115602	-0.747724	0.575867
C18	C	0.955698	-0.510751	0.510771
C19	C	0.866077	-0.510770	0.510783
C20	C	0.537901	-0.510777	0.510828
C21	C	0.629210	-0.510772	0.510812
C22	C	0.701986	-0.510774	0.510805
C23	C	0.793301	-0.510768	0.510791
C24	C	1.165130	-0.786196	0.510785
C25	C	1.165179	-0.904026	0.510815
C26	C	1.103133	-1.071625	0.592976
C27	C	1.102816	-0.949066	0.592712
C28	C	1.142193	-0.948593	0.399093
C29	C	1.141814	-1.071191	0.399591
C30	C	1.250590	-1.071120	0.539469
C31	C	1.250066	-0.948514	0.541912
C32	C	1.375498	-0.510782	0.510831
C33	C	1.465119	-0.510789	0.510844
C34	C	1.165202	-0.510753	0.787305
C35	C	1.165207	-0.510747	0.905136
C36	C	1.165270	-0.234261	0.510838
C37	C	1.165305	-0.116431	0.510855
C38	C	1.227751	-0.429133	1.072720
C39	C	1.227572	-0.428793	0.950160
C40	C	1.080255	-0.480407	0.949614
C41	C	1.080613	-0.479832	1.072212
C42	C	1.186861	-0.622959	1.072333
C43	C	1.188741	-0.622350	0.949728
C44	C	1.165179	-0.510796	1.235371
C45	C	1.165201	-0.510778	1.117540
H46	H	1.117195	-0.918932	0.675552
H47	H	1.039589	-0.919828	0.573754
Br48	Br	1.278962	-0.899966	0.678955
H49	H	1.296909	-1.100092	0.479657
H50	H	1.141307	-0.683793	1.101326
Br51	Br	1.332568	-0.460443	0.900033
Br52	Br	1.285545	-1.122560	0.672946
H53	H	1.251258	-0.645229	0.920656
H54	H	1.298825	-0.917849	0.486455
Br55	Br	1.333080	-0.460429	1.121879
H56	H	1.213594	-0.346490	1.103543
Br57	Br	1.049110	-0.345212	0.898466
H58	H	1.117380	-1.101057	0.676088
Br59	Br	1.203687	-0.290245	0.901293
Br60	Br	1.049971	-0.343170	1.119903
H61	H	1.032423	-0.536712	1.101860
H62	H	1.032392	-0.538024	0.920447
H63	H	1.079471	-1.099878	0.375351
Br64	Br	1.214005	-1.120601	0.294126
Br65	Br	1.288329	-0.668992	1.123885
Br66	Br	0.998411	-1.123150	0.561812
H67	H	1.146504	-0.686431	0.919075
Br68	Br	1.215274	-0.899973	0.294318
H69	H	1.080500	-0.917977	0.374414
