data_functionalizedCrystal
_audit_creation_method	'MofGen! by Chris Wilmer'
_symmetry_space_group_name_H-M	'P1'
_symmetry_Int_Tables_number	1
_symmetry_cell_setting	triclinic
loop_
_symmetry_equiv_pos_as_xyz
  x,y,z
_cell_length_a	12.784890
_cell_length_b	12.837942
_cell_length_c	9.730223
_cell_angle_alpha	89.998888
_cell_angle_beta	90.000977
_cell_angle_gamma	83.967749
loop_
_atom_site_label
_atom_site_type_symbol
_atom_site_fract_x
_atom_site_fract_y
_atom_site_fract_z
O1	O	1.410963	0.006423	-0.114248
O2	O	1.910963	0.506423	0.385752
O3	O	1.105963	0.050417	-0.114259
O4	O	1.605963	0.550417	0.385741
O5	O	1.251700	-0.121873	-0.114245
O6	O	1.751700	0.378127	0.385755
O7	O	1.265226	0.178713	-0.114262
O8	O	1.765226	0.678713	0.385738
O9	O	1.251698	-0.121869	0.114335
O10	O	1.751698	0.378131	0.614335
O11	O	1.105962	0.050421	0.114321
O12	O	1.605962	0.550421	0.614321
O13	O	1.410961	0.006427	0.114332
O14	O	1.910961	0.506427	0.614332
Zn15	Zn	1.258461	0.028425	0.150618
Zn16	Zn	1.758461	0.528425	0.650618
Zn17	Zn	1.258463	0.028419	-0.150545
Zn18	Zn	1.758463	0.528419	0.349455
O19	O	1.265224	0.178717	0.114318
O20	O	1.765224	0.678717	0.614318
C21	C	1.066653	0.053280	0.000029
C22	C	1.566653	0.553280	0.500029
C23	C	0.949521	0.061794	0.000025
C24	C	1.449521	0.561794	0.500025
C25	C	0.781351	0.168495	0.000017
C26	C	1.281351	0.668495	0.500017
C27	C	0.891407	0.160502	0.000018
C28	C	1.391407	0.660502	0.500018
C29	C	0.897572	-0.028928	0.000028
C30	C	1.397572	0.471072	0.500028
C31	C	0.787516	-0.020935	0.000027
C32	C	1.287516	0.479065	0.500027
C33	C	0.729410	0.077780	0.000024
C34	C	1.229410	0.577780	0.500024
C35	C	0.619353	0.085771	0.000033
C36	C	1.119353	0.585771	0.500033
C37	C	0.625519	-0.103657	0.000033
C38	C	1.125519	0.396343	0.500033
C39	C	0.735575	-0.111650	0.000034
C40	C	1.235575	0.388350	0.500034
C41	C	1.247130	-0.160080	0.000044
C42	C	1.747130	0.339920	0.500044
C43	C	1.233502	-0.273929	0.000041
C44	C	1.733502	0.226071	0.500041
C45	C	1.397334	-0.529655	0.000019
C46	C	1.897334	-0.029655	0.500019
C47	C	1.384534	-0.636627	0.000016
C48	C	1.884534	-0.136627	0.500016
C49	C	1.195104	-0.594847	0.000023
C50	C	1.695104	-0.094847	0.500023
C51	C	1.207904	-0.487875	0.000026
C52	C	1.707904	0.012125	0.500026
C53	C	1.309022	-0.455284	0.000026
C54	C	1.809022	0.044716	0.500026
C55	C	1.321821	-0.348309	0.000038
C56	C	1.821821	0.151691	0.500038
C57	C	1.132391	-0.306531	0.000035
C58	C	1.632391	0.193469	0.500035
C59	C	1.119592	-0.413503	0.000033
C60	C	1.619592	0.086497	0.500033
C61	C	1.450272	0.003563	0.000041
C62	C	1.950272	0.503563	0.500041
C63	C	1.567404	-0.004950	0.000036
C64	C	2.067404	0.495050	0.500036
C65	C	1.269795	0.216924	0.000026
C66	C	1.769795	0.716924	0.500026
C67	C	1.283422	0.330772	0.000020
C68	C	1.783422	0.830772	0.500020
N69	N	1.258468	0.028427	0.356155
N70	N	1.758468	0.528427	0.856155
N71	N	1.258464	0.028408	-0.356082
N72	N	1.758464	0.528408	0.143918
C73	C	1.323020	-0.047841	0.428087
C74	C	1.823020	0.452159	0.928087
C75	C	1.323016	-0.047853	0.571970
C76	C	1.823016	0.452147	1.071970
C77	C	1.193904	0.104680	0.571976
C78	C	1.693904	0.604680	1.071976
C79	C	1.193903	0.104687	0.428095
C80	C	1.693903	0.604687	0.928095
C81	C	1.397566	-0.135903	0.428085
C82	C	1.897566	0.364097	0.928085
C83	C	1.397562	-0.135915	0.571968
C84	C	1.897562	0.364085	1.071968
H85	H	0.572044	0.166150	0.000038
H86	H	1.072044	0.666150	0.500038
H87	H	1.480064	-0.126284	0.611021
H88	H	1.980064	0.373716	1.111021
H89	H	0.734040	0.248872	0.000031
H90	H	1.234040	0.748872	0.500031
F91	F	1.125193	0.185837	0.648551
F92	F	1.625193	0.685837	1.148551
H93	H	1.372304	-0.213154	0.389034
H94	H	1.872304	0.286846	0.889034
H95	H	0.933693	0.234372	0.000015
H96	H	1.433693	0.734372	0.500015
H97	H	1.476288	-0.118406	0.383460
H98	H	1.976288	0.381594	0.883460
H99	H	1.479668	-0.503120	0.000032
H100	H	1.979668	-0.003120	0.500032
F101	F	0.959430	-0.133978	0.000026
F102	F	1.459430	0.366022	0.500026
F103	F	0.797427	-0.216703	0.000037
F104	F	1.297427	0.283297	0.500037
F105	F	1.125186	0.185849	0.351540
F106	F	1.625186	0.685849	0.851540
H107	H	1.365101	-0.208069	0.616586
H108	H	1.865101	0.291931	1.116586
H109	H	0.583217	-0.177525	-0.000071
H110	H	1.083217	0.322475	0.499929
F111	F	1.478528	-0.715777	0.000004
F112	F	1.978528	-0.215777	0.500004
H113	H	1.404156	-0.321777	0.000043
H114	H	1.904156	0.178223	0.500043
H115	H	1.112778	-0.621402	0.000008
H116	H	1.612778	-0.121402	0.500008
H117	H	1.037264	-0.440054	0.000027
H118	H	1.537264	0.059946	0.500027
H119	H	1.060481	-0.245964	0.000052
H120	H	1.560481	0.254036	0.500052
