data_functionalizedCrystal
_audit_creation_method	'MofGen! by Chris Wilmer'
_symmetry_space_group_name_H-M	'P1'
_symmetry_Int_Tables_number	1
_symmetry_cell_setting	triclinic
loop_
_symmetry_equiv_pos_as_xyz
  x,y,z
_cell_length_a	15.455313
_cell_length_b	16.974867
_cell_length_c	16.992695
_cell_angle_alpha	87.022690
_cell_angle_beta	87.152573
_cell_angle_gamma	89.031804
loop_
_atom_site_label
_atom_site_type_symbol
_atom_site_fract_x
_atom_site_fract_y
_atom_site_fract_z
O1	O	0.001865	-1.055364	-0.099981
O2	O	-0.014171	-0.826687	-0.111954
O3	O	-0.006210	-0.940108	0.008177
O4	O	-0.006095	-0.941942	-0.220112
O5	O	0.137597	-0.933620	0.001335
O6	O	0.129636	-0.820199	-0.118795
O7	O	0.145672	-1.048876	-0.106822
Cu8	Cu	0.150785	-0.933945	-0.113434
Cu9	Cu	-0.019284	-0.941617	-0.105343
O10	O	0.137711	-0.935454	-0.226953
C11	C	0.055672	-0.794047	-0.114794
C12	C	0.049530	-0.706456	-0.113052
N13	N	0.270402	-0.928554	-0.119124
C14	C	0.006483	-0.213798	-0.102822
C15	C	0.012266	-0.296098	-0.104458
C16	C	0.093547	-0.333704	-0.109012
C17	C	0.169050	-0.289005	-0.111921
C18	C	0.163267	-0.206706	-0.110278
C19	C	0.119250	-0.579459	-0.114319
C20	C	0.125027	-0.661763	-0.115963
C21	C	-0.031758	-0.668851	-0.108500
C22	C	-0.037534	-0.586551	-0.106862
C23	C	0.037969	-0.541859	-0.109767
N24	N	0.099460	-0.417827	-0.110687
N25	N	0.032056	-0.457738	-0.108086
N26	N	-0.138900	-0.947014	-0.099647
C27	C	0.319179	-0.976759	-0.068107
C28	C	0.409701	-0.972690	-0.072417
C29	C	0.451445	-0.920420	-0.127749
C30	C	0.402661	-0.872210	-0.178768
C31	C	0.312140	-0.876275	-0.174453
C32	C	0.721795	-0.902870	-0.146351
C33	C	0.812322	-0.898810	-0.150664
C34	C	0.819357	-0.999289	-0.044311
C35	C	0.728834	-1.003353	-0.040005
C36	C	0.680058	-0.955140	-0.091021
N37	N	0.543973	-0.916261	-0.132158
N38	N	0.587531	-0.959296	-0.086608
C39	C	0.065528	-0.934506	0.033974
C40	C	0.065034	-0.927468	0.121034
C41	C	0.075832	-0.081515	-0.103985
C42	C	0.081981	-0.169105	-0.105733
C43	C	0.065972	-0.941057	-0.252750
C44	C	0.066460	-0.948094	-0.339810
C45	C	0.069796	-0.995368	0.171123
C46	C	0.069324	-0.988752	0.252925
C47	C	0.064096	-0.914234	0.284635
C48	C	0.059330	-0.846329	0.234539
C49	C	0.059797	-0.852947	0.152739
C50	C	0.062160	-0.886807	0.528294
C51	C	0.061697	-0.880194	0.610100
C52	C	0.071689	-1.022618	0.628481
C53	C	0.072160	-1.029229	0.546678
C54	C	0.067390	-0.961324	0.496590
N55	N	0.063616	-0.907469	0.368249
N56	N	0.067864	-0.968090	0.412978
H57	H	-0.059705	-0.183186	-0.099119
H58	H	0.058277	-0.831514	0.487521
H59	H	0.285198	-1.019326	-0.023053
C60	C	0.463351	-1.025699	-0.016275
N61	N	0.503759	-1.065620	0.026021
H62	H	0.436654	-0.829646	-0.223818
C63	C	0.054560	-0.778251	0.097640
N64	N	0.050613	-0.721987	0.056140
C65	C	0.053586	-0.764358	0.269423
N66	N	0.049266	-0.702616	0.295696
C67	C	0.075548	-1.077344	0.136251
N68	N	0.079876	-1.139091	0.109987
C69	C	0.258486	-0.823253	-0.230582
N70	N	0.218074	-0.783316	-0.272861
H71	H	-0.093228	-0.705248	-0.106134
H72	H	-0.103722	-0.555939	-0.103153
C73	C	0.214447	-0.703127	-0.120968
N74	N	0.281794	-0.734283	-0.124737
H75	H	0.057454	-0.819509	0.635914
H76	H	0.682088	-0.863615	-0.187892
C77	C	-0.070788	-0.345258	-0.101246
N78	N	-0.133349	-0.382285	-0.098821
H79	H	0.694848	-1.045915	0.005051
H80	H	0.859078	-1.038540	-0.002775
C81	C	0.074577	-1.063448	0.308020
N82	N	0.078538	-1.119712	0.349517
C83	C	0.858238	-0.841304	-0.211533
N84	N	0.892822	-0.797993	-0.257378
C85	C	0.202306	-0.530307	-0.117538
N86	N	0.264869	-0.493283	-0.119971
C87	C	0.077913	-1.111204	0.511804
N88	N	0.082249	-1.172949	0.485537
H89	H	0.075571	-1.077902	0.669271
C90	C	0.258461	-0.330371	-0.116962
N91	N	0.325806	-0.361526	-0.120775
H92	H	0.224745	-0.170317	-0.112657
