data_functionalizedCrystal
_audit_creation_method	'MofGen! by Chris Wilmer'
_symmetry_space_group_name_H-M	'P1'
_symmetry_Int_Tables_number	1
_symmetry_cell_setting	triclinic
loop_
_symmetry_equiv_pos_as_xyz
  x,y,z
_cell_length_a	14.809374
_cell_length_b	20.875621
_cell_length_c	20.875625
_cell_angle_alpha	89.999829
_cell_angle_beta	54.321208
_cell_angle_gamma	65.501704
loop_
_atom_site_label
_atom_site_type_symbol
_atom_site_fract_x
_atom_site_fract_y
_atom_site_fract_z
Zr1	Zr	1.000584	0.685867	-0.197993
O2	O	1.191292	0.592512	-0.310477
O3	O	0.809878	0.704712	-0.152667
O4	O	1.000587	0.711878	-0.301767
O5	O	1.000580	0.590812	-0.056100
O6	O	1.000588	0.817154	-0.307232
O7	O	1.000583	0.585346	-0.161377
O8	O	0.659444	0.804335	-0.040520
O9	O	1.341724	0.603630	-0.322812
O10	O	0.888319	0.803123	-0.150516
O11	O	0.888316	0.728636	-0.067871
O12	O	1.112851	0.737073	-0.243416
O13	O	1.112849	0.662586	-0.160771
Zr14	Zr	1.000581	0.862486	-0.038805
Zr15	Zr	1.000586	0.853770	-0.206710
Zr16	Zr	1.000580	0.694584	-0.030089
Zr17	Zr	1.240506	0.703599	-0.217667
Zr18	Zr	0.760660	0.844755	-0.019131
O19	O	1.191287	0.843642	-0.084132
O20	O	1.191293	0.831248	-0.322870
O21	O	1.191286	0.604906	-0.071738
O22	O	0.809874	0.955842	0.073678
O23	O	0.809880	0.943448	-0.165061
O24	O	0.809872	0.717106	0.086072
O25	O	1.000585	0.957542	-0.180699
O26	O	1.000578	0.836476	0.064968
O27	O	1.000578	0.731200	0.070433
O28	O	1.000583	0.963007	-0.075422
O29	O	1.341725	0.737090	-0.329741
O30	O	0.659441	0.811264	0.092942
O31	O	0.659442	0.944724	0.086014
O32	O	0.659445	0.937795	-0.047448
O33	O	1.341720	0.610559	-0.189351
O34	O	1.341721	0.744019	-0.196279
O35	O	0.888315	0.811281	0.006618
O36	O	0.888317	0.885768	-0.076028
O37	O	1.112850	0.819718	-0.168928
O38	O	1.112847	0.745230	-0.086282
C39	C	0.700478	0.751997	-0.093790
C40	C	0.598625	0.744470	-0.085438
C41	C	1.000581	0.564156	-0.107497
C42	C	1.000581	0.492877	-0.103796
C43	C	1.000586	0.456379	-0.160058
C44	C	1.000579	0.389407	-0.156577
C45	C	1.000576	0.358932	-0.096837
C46	C	1.000567	0.395436	-0.040570
C47	C	1.000565	0.462409	-0.044048
C48	C	1.000574	0.158954	-0.080213
C49	C	1.000580	0.091974	-0.076741
C50	C	1.000589	0.085951	-0.192747
C51	C	1.000595	0.152924	-0.196223
C52	C	1.000579	0.189424	-0.139953
N53	N	1.000573	0.290474	-0.093279
N54	N	1.000573	0.257883	-0.143507
C55	C	0.553217	0.778064	-0.122712
C56	C	0.447946	0.770285	-0.114081
C57	C	1.300688	0.796357	-0.143008
C58	C	1.402541	0.803884	-0.151360
C59	C	1.000588	0.763274	-0.328422
C60	C	1.000590	0.759573	-0.399702
C61	C	1.000584	0.984197	-0.129302
C62	C	1.000585	1.055476	-0.133002
C63	C	1.000593	0.815832	-0.436200
C64	C	1.000583	0.812356	-0.503171
C65	C	1.000580	0.752619	-0.533645
C66	C	1.000573	0.696357	-0.497140
C67	C	1.000574	0.699836	-0.430168
C68	C	1.000570	0.735998	-0.733619
C69	C	1.000573	0.732522	-0.800598
C70	C	1.000580	0.848522	-0.806623
C71	C	1.000588	0.851993	-0.739652
C72	C	1.000575	0.795734	-0.703150
N73	N	1.000574	0.749064	-0.602101
N74	N	1.000572	0.799292	-0.634691
C75	C	1.000578	0.785080	0.091624
C76	C	1.000576	0.788780	0.162904
C77	C	0.700479	0.962018	-0.104693
C78	C	0.598627	1.025769	-0.100041
C79	C	0.700472	0.762900	0.116233
C80	C	0.598618	0.759073	0.195865
C81	C	0.700474	0.972921	0.105330
C82	C	0.598620	1.040373	0.181262
C83	C	1.300692	0.575433	-0.342129
C84	C	1.402546	0.507981	-0.418060
C85	C	1.300687	0.586336	-0.132106
C86	C	1.402539	0.522585	-0.136757
C87	C	1.300693	0.785454	-0.353031
C88	C	1.402548	0.789281	-0.432663
C89	C	0.550796	1.012567	-0.136746
C90	C	0.455108	1.072462	-0.132392
C91	C	0.407246	1.145558	-0.091327
C92	C	0.455086	1.158759	-0.054622
C93	C	0.550778	1.098865	-0.058982
C94	C	0.550785	0.800416	0.272150
C95	C	0.455095	0.796818	0.346978
C96	C	0.407233	0.751881	0.345519
C97	C	0.455075	0.710534	0.269226
C98	C	0.550770	0.714128	0.194399
C99	C	0.550789	1.110937	0.173779
C100	C	0.455099	1.174323	0.245117
C101	C	0.407236	1.167141	0.323937
C102	C	0.455076	1.096569	0.331418
C103	C	0.550770	1.033186	0.260080
C104	C	1.450388	0.437417	-0.410579
C105	C	1.546108	0.374034	-0.481919
C106	C	1.593976	0.381216	-0.560740
C107	C	1.546130	0.451788	-0.568220
C108	C	1.450419	0.515170	-0.496881
C109	C	1.450379	0.535787	-0.100060
C110	C	1.546094	0.475893	-0.104436
C111	C	1.593959	0.402797	-0.145503
C112	C	1.546115	0.389596	-0.182204
C113	C	1.450409	0.449490	-0.177834
C114	C	1.450380	0.834225	-0.431177
C115	C	1.546070	0.837835	-0.505993
C116	C	1.593934	0.796498	-0.582295
C117	C	1.546093	0.751552	-0.583778
C118	C	1.450398	0.747946	-0.508963
H119	H	1.000596	0.481185	-0.208707
Cl120	Cl	0.286930	1.246831	0.413613
Cl121	Cl	1.606291	0.699581	-0.679708
H122	H	1.411460	0.438729	-0.207715
H123	H	0.441591	0.838411	-0.189661
Cl124	Cl	1.000552	0.508294	0.026687
H125	H	0.416091	1.090732	0.395602
H126	H	1.585102	0.330074	-0.215641
Cl127	Cl	1.000561	0.665271	-0.687739
Cl128	Cl	1.390226	0.886201	-0.335266
H129	H	0.329326	1.194321	-0.087782
Cl130	Cl	1.390231	0.627673	-0.048433
Cl131	Cl	0.394896	1.250656	-0.002996
H132	H	1.411464	0.711344	-0.510184
Cl133	Cl	0.538321	0.691175	-0.026296
H134	H	1.000563	0.647719	-0.521953
Cl135	Cl	0.610880	0.944478	0.269501
H136	H	1.000600	0.056227	-0.238559
Cl137	Cl	0.610883	0.662152	0.098502
H138	H	0.329312	0.748961	0.406454
H139	H	0.589710	1.109624	-0.029087
Cl140	Cl	1.390230	0.428369	-0.311499
Cl141	Cl	1.000583	0.343523	-0.227306
Cl142	Cl	1.390277	0.603876	-0.506299
Cl143	Cl	1.000555	0.357128	0.034536
H144	H	0.589743	0.837008	0.273353
H145	H	1.000564	0.188667	-0.034397
Cl146	Cl	0.394889	0.654047	0.267406
Cl147	Cl	1.000605	0.890932	-0.397901
Cl148	Cl	1.606232	0.285325	-0.472497
H149	H	0.592269	0.812589	-0.161011
Cl150	Cl	1.000584	0.883083	-0.549055
H151	H	0.589746	1.116799	0.109607
Cl152	Cl	1.714298	0.301528	-0.650416
H153	H	1.000591	0.900636	-0.714841
Cl154	Cl	1.606201	0.894337	-0.504109
H155	H	1.585032	0.486656	-0.074545
Cl156	Cl	1.714275	0.327509	-0.150987
H157	H	1.000597	0.177736	-0.244867
H158	H	1.585118	0.457627	-0.632404
Cl159	Cl	0.387646	0.716987	-0.054936
Cl160	Cl	0.394972	1.263032	0.235695
H161	H	1.000589	0.894327	-0.836348
H162	H	1.671856	0.799440	-0.643208
Cl163	Cl	1.000572	0.657415	-0.838906
Cl164	Cl	1.000564	0.629110	-0.384282
Cl165	Cl	1.000579	0.053666	-0.001634
H166	H	0.589765	0.953054	-0.170195
H167	H	0.416169	1.061699	-0.162282
H168	H	0.416153	0.830492	0.409092
