data_functionalizedCrystal
_audit_creation_method	'MofGen! by Chris Wilmer'
_symmetry_space_group_name_H-M	'P1'
_symmetry_Int_Tables_number	1
_symmetry_cell_setting	triclinic
loop_
_symmetry_equiv_pos_as_xyz
  x,y,z
_cell_length_a	12.645331
_cell_length_b	12.645330
_cell_length_c	19.076919
_cell_angle_alpha	92.276250
_cell_angle_beta	92.285419
_cell_angle_gamma	90.018103
loop_
_atom_site_label
_atom_site_type_symbol
_atom_site_fract_x
_atom_site_fract_y
_atom_site_fract_z
Zn1	Zn	1.596598	-0.446128	-0.397892
Zn2	Zn	2.096598	0.053872	0.102108
Zn3	Zn	1.603618	-0.616286	-0.280207
Zn4	Zn	2.103618	-0.116286	0.219793
Zn5	Zn	1.426450	-0.439039	-0.280220
Zn6	Zn	1.926450	0.060961	0.219780
Zn7	Zn	1.419296	-0.623350	-0.397872
Zn8	Zn	1.919296	-0.123350	0.102128
O9	O	1.511490	-0.531201	-0.339048
O10	O	2.011490	-0.031201	0.160952
O11	O	1.745876	-0.468710	-0.382284
O12	O	2.245876	0.031290	0.117716
O13	O	1.586048	-0.586850	-0.181719
O14	O	2.086048	-0.086850	0.318281
O15	O	1.449077	-0.291633	-0.295843
O16	O	1.949077	0.208367	0.204157
O17	O	1.751034	-0.593724	-0.295821
O18	O	2.251034	-0.093724	0.204179
O19	O	1.574084	-0.296841	-0.382296
O20	O	2.074084	0.203159	0.117704
O21	O	1.455883	-0.456627	-0.181728
O22	O	1.955883	0.043373	0.318272
O23	O	1.277154	-0.463477	-0.295823
O24	O	1.777154	0.036523	0.204177
O25	O	1.436883	-0.605765	-0.496365
O26	O	1.936883	-0.105765	0.003635
O27	O	1.271898	-0.598890	-0.382262
O28	O	1.771898	-0.098890	0.117738
O29	O	1.567147	-0.475561	-0.496379
O30	O	2.067147	0.024439	0.003621
O31	O	1.579111	-0.765569	-0.295802
O32	O	2.079111	-0.265569	0.204198
O33	O	1.443690	-0.770760	-0.382250
O34	O	1.943690	-0.270760	0.117750
C35	C	1.236061	-0.531182	-0.339042
C36	C	1.736061	-0.031182	0.160958
C37	C	1.118230	-0.531201	-0.339057
C38	C	1.618230	-0.031201	0.160943
C39	C	1.070082	-0.616524	-0.393356
C40	C	1.570082	-0.116524	0.106644
C41	C	0.947532	-0.616851	-0.393195
C42	C	1.447532	-0.116851	0.106805
C43	C	0.954781	-0.556539	-0.264794
C44	C	1.454781	-0.056539	0.235206
C45	C	1.077360	-0.557138	-0.265108
C46	C	1.577360	-0.057138	0.234892
C47	C	1.071912	-0.420325	-0.358372
C48	C	1.571912	0.079675	0.141628
C49	C	0.949208	-0.421043	-0.360007
C50	C	1.449208	0.078957	0.139993
C51	C	1.511414	-0.806630	-0.339038
C52	C	2.011414	-0.306630	0.160962
C53	C	1.511476	-0.924461	-0.339057
C54	C	2.011476	-0.424461	0.160943
C55	C	1.426611	-1.095345	-0.393609
C56	C	1.926611	-0.595345	0.106391
C57	C	1.426204	-0.972774	-0.393434
C58	C	1.926204	-0.472774	0.106566
C59	C	1.485730	-0.964561	-0.264885
C60	C	1.985730	-0.464561	0.235115
C61	C	1.485212	-1.087180	-0.265216
C62	C	1.985212	-0.587180	0.234784
C63	C	1.622624	-1.092702	-0.358076
C64	C	2.122624	-0.592702	0.141924
C65	C	1.621837	-0.970193	-0.359697
C66	C	2.121837	-0.470193	0.140303
C67	C	1.787995	-0.531220	-0.339054
C68	C	2.287995	-0.031220	0.160946
C69	C	1.905825	-0.531228	-0.339056
C70	C	2.405825	-0.031228	0.160944
C71	C	1.500434	-0.542242	-0.522623
C72	C	2.000434	-0.042242	-0.022623
C73	C	1.495723	-0.546947	-0.600852
C74	C	1.995723	-0.046947	-0.100852
C75	C	1.511595	-0.254697	-0.339073
C76	C	2.011595	0.245303	0.160927
C77	C	1.511640	-0.136867	-0.339084
C78	C	2.011640	0.363133	0.160916
C79	C	1.561327	-0.481370	-0.637613
C80	C	2.061327	0.018630	-0.137613
C81	C	1.556887	-0.485787	-0.711117
C82	C	2.056887	0.014213	-0.211117
C83	C	1.486847	-0.555787	-0.747859
C84	C	1.986847	-0.055787	-0.247859
C85	C	1.421236	-0.621366	-0.711093
C86	C	1.921236	-0.121366	-0.211093
C87	C	1.425671	-0.616943	-0.637590
C88	C	1.925671	-0.116943	-0.137590
C89	C	1.466305	-0.576279	-0.967689
C90	C	1.966305	-0.076279	-0.467689
C91	C	1.461877	-0.580699	-1.041197
C92	C	1.961877	-0.080699	-0.541197
C93	C	1.597527	-0.445118	-1.041216
C94	C	2.097527	0.054882	-0.541216
C95	C	1.601961	-0.440706	-0.967712
C96	C	2.101961	0.059294	-0.467712
C97	C	1.536345	-0.506281	-0.930952
C98	C	2.036345	-0.006281	-0.430952
N99	N	1.482310	-0.560306	-0.822993
N100	N	1.982310	-0.060306	-0.322993
N101	N	1.540878	-0.501756	-0.855820
N102	N	2.040878	-0.001756	-0.355820
C103	C	1.522564	-0.520126	-0.156187
C104	C	2.022564	-0.020126	0.343813
C105	C	1.527481	-0.515122	-0.077958
C106	C	2.027481	-0.015122	0.422042
H107	H	0.925058	-0.636533	-0.248191
H108	H	1.425058	-0.136533	0.251809
Cl109	Cl	1.680005	-0.362682	-1.087432
Cl110	Cl	2.180005	0.137318	-0.587432
H111	H	1.364205	-0.678358	-0.741015
H112	H	1.864205	-0.178358	-0.241015
H113	H	1.099639	-0.396313	-0.411611
H114	H	1.599639	0.103687	0.088389
Cl115	Cl	1.720349	-1.133763	-0.296773
Cl116	Cl	2.220349	-0.633763	0.203227
H117	H	0.918950	-0.699108	-0.380380
H118	H	1.418950	-0.199108	0.119620
H119	H	1.106914	-0.638038	-0.248783
H120	H	1.606914	-0.138038	0.251217
Cl121	Cl	1.651946	-0.930295	-0.443975
Cl122	Cl	2.151946	-0.430295	0.056025
H123	H	1.412892	-0.629691	-0.937768
H124	H	1.912892	-0.129691	-0.437768
Cl125	Cl	1.578619	-0.915641	-0.200445
Cl126	Cl	2.078619	-0.415641	0.299555
Cl127	Cl	1.300228	-1.141915	-0.374448
Cl128	Cl	1.800228	-0.641915	0.125552
Cl129	Cl	0.899243	-0.391430	-0.444387
Cl130	Cl	1.399243	0.108570	0.055613
H131	H	1.372239	-0.670332	-0.607661
H132	H	1.872239	-0.170332	-0.107661
Cl133	Cl	1.639412	-0.403390	-0.757328
Cl134	Cl	2.139412	0.096610	-0.257328
Cl135	Cl	1.110517	-0.593339	-0.478621
Cl136	Cl	1.610517	-0.093339	0.021379
Cl137	Cl	0.895972	-0.593296	-0.478197
Cl138	Cl	1.395972	-0.093296	0.021803
Cl139	Cl	0.905348	-0.318268	-0.303452
Cl140	Cl	1.405348	0.181732	0.196548
Cl141	Cl	1.118786	-0.742800	-0.373817
Cl142	Cl	1.618786	-0.242800	0.126183
Cl143	Cl	1.120396	-0.322272	-0.297317
Cl144	Cl	1.620396	0.177728	0.202683
H145	H	1.441792	-0.945953	-0.448432
H146	H	1.941792	-0.445953	0.051568
H147	H	1.442014	-1.128100	-0.448788
H148	H	1.942014	-0.628100	0.051212
Cl149	Cl	1.577043	-1.129042	-0.200350
Cl150	Cl	2.077043	-0.629042	0.299650
Cl151	Cl	1.299031	-0.926454	-0.374012
Cl152	Cl	1.799031	-0.426454	0.125988
Cl153	Cl	1.362021	-0.915778	-0.239595
Cl154	Cl	1.862021	-0.415778	0.260405
Cl155	Cl	1.724247	-0.919420	-0.302852
Cl156	Cl	2.224247	-0.419420	0.197148
Cl157	Cl	1.360160	-1.129978	-0.240377
Cl158	Cl	1.860160	-0.629978	0.259623
H159	H	1.646989	-1.126767	-0.411242
H160	H	2.146989	-0.626767	0.088758
Cl161	Cl	0.913682	-0.463238	-0.200612
Cl162	Cl	1.413682	0.036762	0.299388
Cl163	Cl	1.127094	-0.464955	-0.200483
Cl164	Cl	1.627094	0.035045	0.299517
H165	H	1.618364	-0.424372	-0.607703
H166	H	2.118364	0.075628	-0.107703
Cl167	Cl	1.373815	-0.668700	-1.087387
Cl168	Cl	1.873815	-0.168700	-0.587387
Cl169	Cl	1.690015	-0.352703	-0.921527
Cl170	Cl	2.190015	0.147297	-0.421527
