data_functionalizedCrystal
_audit_creation_method	'MofGen! by Chris Wilmer'
_symmetry_space_group_name_H-M	'P1'
_symmetry_Int_Tables_number	1
_symmetry_cell_setting	triclinic
loop_
_symmetry_equiv_pos_as_xyz
  x,y,z
_cell_length_a	15.538191
_cell_length_b	10.654550
_cell_length_c	9.130313
_cell_angle_alpha	90.000110
_cell_angle_beta	90.001032
_cell_angle_gamma	65.878498
loop_
_atom_site_label
_atom_site_type_symbol
_atom_site_fract_x
_atom_site_fract_y
_atom_site_fract_z
O1	O	-1.247250	0.406667	-0.121824
O2	O	-0.973935	0.262093	-0.121821
O3	O	-1.116877	0.520057	-0.121817
O4	O	-1.104309	0.148703	-0.121828
O5	O	-1.116875	0.520051	0.121782
O6	O	-0.973934	0.262087	0.121778
O7	O	-1.247248	0.406661	0.121774
Cu8	Cu	-1.110591	0.334374	0.144019
Cu9	Cu	-1.110593	0.334381	-0.144065
O10	O	-1.104307	0.148697	0.121771
C11	C	-0.938938	0.246964	-0.000021
C12	C	-0.834659	0.201908	-0.000019
C13	C	-1.115953	0.566421	-0.000019
C14	C	-1.113192	0.704573	-0.000025
C15	C	-1.282246	0.421790	-0.000029
C16	C	-1.386525	0.466847	-0.000040
C17	C	-0.543944	0.649529	-0.000029
C18	C	-0.445955	0.607160	-0.000031
C19	C	-0.425069	0.368846	-0.000038
C20	C	-0.523058	0.411195	-0.000028
C21	C	-0.582488	0.551538	-0.000026
C22	C	-0.561602	0.313204	-0.000025
C23	C	-0.659583	0.355550	-0.000023
C24	C	-0.719019	0.495887	-0.000025
C25	C	-0.680469	0.593884	-0.000024
C26	C	-0.502170	0.172861	-0.000038
C27	C	-0.540715	0.074870	-0.000035
C28	C	-0.638697	0.117216	-0.000023
C29	C	-0.698133	0.257553	-0.000024
C30	C	-0.677248	0.019219	-0.000024
C31	C	-0.775228	0.061564	-0.000022
C32	C	-0.796114	0.299898	-0.000023
C33	C	-1.105231	0.102334	-0.000030
C34	C	-1.107991	-0.035819	-0.000034
N35	N	-1.110596	0.334372	0.346642
C36	C	-1.197354	0.823402	-0.000021
C37	C	-1.194754	0.953208	-0.000031
C38	C	-1.023824	0.845338	-0.000042
C39	C	-1.026424	0.715536	-0.000042
C40	C	-1.296039	0.885681	-0.000009
C41	C	-1.293439	1.015486	-0.000019
N42	N	-1.110595	0.334395	-0.346688
C43	C	-1.173907	0.448578	0.423295
C44	C	-1.173904	0.448591	0.576632
C45	C	-1.047277	0.220183	0.576648
C46	C	-1.047276	0.220174	0.423314
C47	C	-1.247017	0.580445	0.423287
C48	C	-1.247014	0.580459	0.576624
H49	H	-0.844506	0.414180	-0.000012
H50	H	-1.327463	0.864742	0.105172
F51	F	-0.607200	0.798899	-0.000010
H52	H	-1.334639	0.874370	-0.101948
H53	H	-1.323264	1.075074	-0.105199
H54	H	-1.330622	1.074626	0.101924
H55	H	-1.230981	0.669482	0.381670
H56	H	-1.224196	0.661015	0.624174
H57	H	-0.492314	-0.039397	-0.000043
F58	F	-0.979883	0.098634	0.341734
H59	H	-1.319188	0.592680	0.618238
H60	H	-0.806611	-0.018230	-0.000006
F61	F	-0.361809	0.219487	-0.000050
H62	H	-0.628845	-0.095049	-0.000041
F63	F	-0.936848	0.589070	-0.000077
H64	H	-0.995723	0.127206	0.639092
F65	F	-0.743725	0.743254	-0.000004
F66	F	-0.823300	0.540955	-0.000032
H67	H	-0.414577	0.686967	-0.000037
F68	F	-0.397890	0.127796	-0.000042
H69	H	-1.315206	0.581734	0.375726
F70	F	-0.931484	0.857020	-0.000065
