data_functionalizedCrystal
_audit_creation_method	'MofGen! by Chris Wilmer'
_symmetry_space_group_name_H-M	'P1'
_symmetry_Int_Tables_number	1
_symmetry_cell_setting	triclinic
loop_
_symmetry_equiv_pos_as_xyz
  x,y,z
_cell_length_a	12.996460
_cell_length_b	17.699083
_cell_length_c	17.699083
_cell_angle_alpha	83.283015
_cell_angle_beta	89.998816
_cell_angle_gamma	89.999828
loop_
_atom_site_label
_atom_site_type_symbol
_atom_site_fract_x
_atom_site_fract_y
_atom_site_fract_z
O1	O	0.085425	-1.004078	-0.095706
O2	O	0.585425	-0.504078	0.404294
O3	O	0.085459	-0.783700	-0.108158
O4	O	0.585459	-0.283700	0.391842
O5	O	0.085432	-0.900115	0.008257
O6	O	0.585432	-0.400115	0.508257
O7	O	0.085452	-0.887663	-0.212121
O8	O	0.585452	-0.387663	0.287879
O9	O	-0.085702	-0.900100	0.008250
O10	O	0.414298	-0.400100	0.508250
O11	O	-0.085675	-0.783685	-0.108165
O12	O	0.414325	-0.283685	0.391835
O13	O	-0.085709	-1.004063	-0.095713
O14	O	0.414291	-0.504063	0.404287
Cu15	Cu	-0.101318	-0.893873	-0.101940
Cu16	Cu	0.398682	-0.393873	0.398060
Cu17	Cu	0.101067	-0.893890	-0.101932
Cu18	Cu	0.601067	-0.393890	0.398068
O19	O	-0.085682	-0.887648	-0.212128
O20	O	0.414318	-0.387648	0.287872
C21	C	-0.000104	-0.755495	-0.107716
C22	C	0.499896	-0.255495	0.392284
C23	C	-0.000091	-0.671477	-0.106377
C24	C	0.499909	-0.171477	0.393623
N25	N	-0.243665	-0.893866	-0.101945
N26	N	0.256335	-0.393866	0.398055
C27	C	-0.000135	-0.899662	0.036451
C28	C	0.499865	-0.399662	0.536451
C29	C	-0.000136	-0.898323	0.120469
C30	C	0.499864	-0.398323	0.620469
C31	C	-0.336771	-0.893869	-0.101947
C32	C	0.163229	-0.393869	0.398053
C33	C	-0.453576	-0.893876	-0.101942
C34	C	0.046424	-0.393876	0.398058
C35	C	-0.546675	-0.893886	-0.101933
C36	C	-0.046675	-0.393886	0.398067
C37	C	-0.663487	-0.893894	-0.101929
C38	C	-0.163487	-0.393894	0.398071
N39	N	0.243415	-0.893903	-0.101920
N40	N	0.743415	-0.393903	0.398080
C41	C	-0.000144	-1.032268	-0.096156
C42	C	0.499856	-0.532268	0.403844
C43	C	-0.000150	-1.116286	-0.097494
C44	C	0.499850	-0.616286	0.402506
C45	C	-0.000085	-0.622856	-0.174710
C46	C	0.499915	-0.122856	0.325290
C47	C	-0.000099	-0.543913	-0.173448
C48	C	0.499901	-0.043913	0.326552
C49	C	-0.000111	-0.513592	-0.103852
C50	C	0.499889	-0.013592	0.396148
C51	C	-0.000120	-0.562219	-0.035513
C52	C	0.499880	-0.062219	0.464487
C53	C	-0.000114	-0.641161	-0.036776
C54	C	0.499886	-0.141161	0.463224
C55	C	-0.000146	-0.243856	-0.030418
C56	C	0.499854	0.256144	0.469582
C57	C	-0.000149	-0.164908	-0.029160
C58	C	0.499851	0.335092	0.470840
C59	C	-0.000131	-0.146608	-0.167090
C60	C	0.499869	0.353392	0.332910
C61	C	-0.000125	-0.225550	-0.168353
C62	C	0.499875	0.274450	0.331647
C63	C	-0.000139	-0.274170	-0.100015
C64	C	0.499861	0.225830	0.399985
C65	C	-0.000127	-0.359769	-0.101384
C66	C	0.499873	0.140231	0.398616
C67	C	-0.000116	-0.427995	-0.102481
C68	C	0.499884	0.072005	0.397519
C69	C	-0.000113	-0.888102	-0.240322
C70	C	0.499887	-0.388102	0.259678
C71	C	-0.000106	-0.889440	-0.324340
C72	C	0.499894	-0.389440	0.175660
C73	C	-0.000148	-0.966656	0.169090
C74	C	0.499852	-0.466656	0.669090
C75	C	-0.000138	-0.965394	0.248033
C76	C	0.499862	-0.465394	0.748033
C77	C	-0.000124	-0.895798	0.278354
C78	C	0.499876	-0.395798	0.778354
C79	C	-0.000109	-0.827459	0.229727
C80	C	0.499891	-0.327459	0.729727
C81	C	-0.000111	-0.828722	0.150785
C82	C	0.499889	-0.328722	0.650785
C83	C	-0.000100	-0.822364	0.548090
C84	C	0.499900	-0.322364	1.048090
C85	C	-0.000101	-0.821106	0.627038
C86	C	0.499899	-0.321106	1.127038
C87	C	-0.000127	-0.959036	0.645338
C88	C	0.499873	-0.459036	1.145338
C89	C	-0.000129	-0.960299	0.566396
C90	C	0.499871	-0.460299	1.066396
C91	C	-0.000109	-0.891961	0.517776
C92	C	0.499891	-0.391961	1.017776
C93	C	-0.000117	-0.893330	0.432177
C94	C	0.499883	-0.393330	0.932177
C95	C	-0.000124	-0.894427	0.363951
C96	C	0.499876	-0.394427	0.863951
H97	H	-0.000075	-0.647537	-0.231384
H98	H	0.499925	-0.147537	0.268616
H99	H	-0.000092	-0.764429	0.651721
H100	H	0.499908	-0.264429	1.151721
H101	H	-0.000084	-0.766718	0.508512
H102	H	0.499916	-0.266718	1.008512
Br103	Br	-0.000087	-0.735980	0.084797
Br104	Br	0.499913	-0.235980	0.584797
Br105	Br	-0.000168	-0.309831	0.062327
Br106	Br	0.499832	0.190169	0.562327
Br107	Br	-0.000087	-0.477929	-0.266191
Br108	Br	0.499913	0.022071	0.233809
Br109	Br	-0.000099	-0.266696	-0.262808
Br110	Br	0.499901	0.233304	0.237192
H111	H	-0.000125	-0.107012	-0.222734
H112	H	0.499875	0.392988	0.277266
Br113	Br	-0.000073	-0.733005	0.270875
Br114	Br	0.499927	-0.233005	0.770875
H115	H	-0.000144	-0.537526	0.021154
H116	H	0.499856	-0.037526	0.521154
H117	H	-0.000160	-0.140225	0.027517
H118	H	0.499840	0.359775	0.527517
Br119	Br	-0.000155	-1.051783	0.711327
Br120	Br	0.499845	-0.551783	1.211327
H121	H	-0.000150	-1.021038	0.287618
H122	H	0.499850	-0.521038	0.787618
H123	H	-0.000118	-0.680748	0.018868
H124	H	0.499882	-0.180748	0.518868
Br125	Br	-0.000181	-1.061114	0.127948
Br126	Br	0.499819	-0.561114	0.627948
H127	H	-0.000146	-1.016971	0.541714
H128	H	0.499854	-0.516971	1.041714
