data_functionalizedCrystal
_audit_creation_method	'MofGen! by Chris Wilmer'
_symmetry_space_group_name_H-M	'P1'
_symmetry_Int_Tables_number	1
_symmetry_cell_setting	triclinic
loop_
_symmetry_equiv_pos_as_xyz
  x,y,z
_cell_length_a	18.101398
_cell_length_b	18.215405
_cell_length_c	18.215399
_cell_angle_alpha	89.969449
_cell_angle_beta	90.025014
_cell_angle_gamma	89.979849
loop_
_atom_site_label
_atom_site_type_symbol
_atom_site_fract_x
_atom_site_fract_y
_atom_site_fract_z
Zn1	Zn	1.132158	0.293085	0.416204
Zn2	Zn	1.132066	0.416156	0.293132
Zn3	Zn	1.008315	0.293098	0.293140
Zn4	Zn	1.008281	0.416104	0.416146
O5	O	1.070205	0.354611	0.354656
O6	O	1.235779	0.309427	0.399899
O7	O	1.115626	0.399859	0.190149
O8	O	1.024796	0.190112	0.309493
O9	O	1.235711	0.399847	0.309479
O10	O	1.115783	0.190102	0.399907
O11	O	1.024707	0.309449	0.190155
O12	O	0.904678	0.309398	0.309437
O13	O	1.024738	0.399758	0.519138
O14	O	0.904653	0.399770	0.399808
O15	O	1.115750	0.309376	0.519181
O16	O	1.115593	0.519133	0.309423
O17	O	1.024649	0.519095	0.399800
C18	C	1.070127	0.545817	0.354620
C19	C	1.070161	0.627616	0.354630
C20	C	0.877795	0.354581	0.354617
C21	C	0.795481	0.354586	0.354618
C22	C	1.070250	0.354560	0.546609
C23	C	1.070269	0.354538	0.628408
C24	C	0.496390	0.354632	0.354680
C25	C	0.527706	0.297488	0.298098
C26	C	0.613324	0.297641	0.297857
C27	C	0.644772	0.354608	0.354650
C28	C	0.613662	0.432131	0.333455
C29	C	0.528017	0.431814	0.333062
C30	C	0.528003	0.334926	0.432590
C31	C	0.613654	0.333200	0.432165
C32	C	0.728632	0.354600	0.354633
C33	C	0.412530	0.354645	0.354695
C34	C	1.263367	0.354641	0.354695
C35	C	1.345681	0.354654	0.354711
C36	C	1.070304	0.162658	0.354707
C37	C	1.070346	0.080859	0.354729
C38	C	1.117627	0.815805	0.307657
C39	C	1.117660	0.892664	0.307675
C40	C	1.022878	0.892664	0.401708
C41	C	1.022849	0.815807	0.401693
C42	C	1.070223	0.777379	0.354663
C43	C	1.070285	0.931095	0.354696
C44	C	1.070320	1.014429	0.354716
C45	C	1.070188	0.694040	0.354645
C46	C	1.070203	0.354608	0.163450
C47	C	1.070327	0.354422	0.081651
C48	C	1.117676	0.307432	0.816625
C49	C	1.117685	0.307411	0.893484
C50	C	1.022915	0.401530	0.893428
C51	C	1.022903	0.401547	0.816571
C52	C	1.070288	0.354500	0.778171
C53	C	1.070309	0.354461	0.931888
C54	C	1.070318	0.354438	1.015221
C55	C	1.070278	0.354521	0.694832
H56	H	0.507129	0.239825	0.311238
C57	C	0.499288	0.260892	0.458432
C58	C	0.528470	0.245089	0.527864
C59	C	0.502026	0.176897	0.551688
H60	H	0.513938	0.223891	0.424713
H61	H	0.446900	0.262361	0.461227
H62	H	0.580847	0.243614	0.525065
H63	H	0.513823	0.282072	0.561600
H64	H	0.449638	0.178366	0.554483
H65	H	0.516677	0.139902	0.517964
H66	H	0.521816	0.166169	0.598802
C67	C	1.169204	0.256469	0.774893
C68	C	1.216660	0.298149	0.730782
C69	C	1.264141	0.251223	0.692337
H70	H	1.140968	0.224394	0.744854
H71	H	1.197470	0.228445	0.808781
H72	H	1.188397	0.326160	0.696898
H73	H	1.244912	0.330221	0.760803
H74	H	1.292407	0.223199	0.726225
H75	H	1.235899	0.219151	0.662302
H76	H	1.296350	0.279496	0.662409
H77	H	0.984338	0.439836	0.924703
H78	H	0.633778	0.310668	0.240127
H79	H	0.984247	0.784518	0.439975
C80	C	1.169013	0.256215	0.935270
C81	C	1.127108	0.209014	0.979377
C82	C	1.174365	0.161832	1.017872
H83	H	1.201287	0.284274	0.965316
H84	H	1.197214	0.228157	0.901412
H85	H	1.098919	0.237070	1.013231
H86	H	1.094836	0.180939	0.949349
H87	H	1.202567	0.133773	0.984013
H88	H	1.206637	0.189897	1.047913
H89	H	1.145940	0.129796	1.047797
H90	H	0.984308	0.439874	0.785261
H91	H	0.635063	0.371787	0.476582
C92	C	0.641232	0.220923	0.315507
C93	C	0.580979	0.174016	0.326498
C94	C	0.606655	0.103329	0.342732
H95	H	0.670503	0.222396	0.358775
H96	H	0.670242	0.203314	0.275786
H97	H	0.551982	0.191621	0.366215
H98	H	0.551702	0.172520	0.283238
H99	H	0.635665	0.085719	0.303011
H100	H	0.635927	0.104810	0.385999
H101	H	0.565778	0.071492	0.350184
C102	C	0.499021	0.314510	0.221518
C103	C	0.527383	0.263150	0.171788
C104	C	0.500966	0.278805	0.101239
H105	H	0.514284	0.362398	0.207514
H106	H	0.446594	0.312068	0.221397
H107	H	0.579798	0.265599	0.171907
H108	H	0.512122	0.215258	0.185768
H109	H	0.448540	0.276362	0.101117
H110	H	0.516231	0.326693	0.087242
H111	H	0.520200	0.243956	0.067490
C112	C	0.501475	0.454069	0.257061
C113	C	0.562552	0.467680	0.211930
C114	C	0.538134	0.488172	0.141909
H115	H	0.472258	0.497248	0.260615
H116	H	0.472705	0.415548	0.236616
H117	H	0.591309	0.506198	0.232370
H118	H	0.591775	0.424511	0.208355
H119	H	0.509365	0.449651	0.121464
H120	H	0.508917	0.531349	0.145470
H121	H	0.579571	0.497403	0.111277
H122	H	0.507300	0.475832	0.372476
H123	H	0.634032	0.475849	0.373377
H124	H	0.635078	0.449132	0.277114
H125	H	0.507751	0.376548	0.474749
C126	C	0.640796	0.257182	0.453626
C127	C	0.681717	0.261858	0.518699
C128	C	0.706724	0.191843	0.538495
H129	H	0.671143	0.238051	0.415645
H130	H	0.599648	0.225649	0.460907
H131	H	0.722860	0.293380	0.511414
H132	H	0.651386	0.280977	0.556694
H133	H	0.665575	0.160310	0.545776
H134	H	0.737067	0.172717	0.500510
H135	H	0.734485	0.195005	0.582652
C136	C	1.169021	0.774176	0.256483
C137	C	1.152962	0.792952	0.183657
C138	C	1.200299	0.754628	0.136496
H139	H	1.162262	0.722888	0.263104
H140	H	1.218789	0.786744	0.267266
H141	H	1.103205	0.780380	0.172878
H142	H	1.159726	0.844234	0.177013
H143	H	1.250068	0.767196	0.147279
H144	H	1.193536	0.703341	0.143124
H145	H	1.189414	0.767367	0.087079
C146	C	1.169270	0.934263	0.256680
C147	C	1.242511	0.915453	0.272787
C148	C	1.290086	0.953739	0.225819
H149	H	1.162631	0.985556	0.263361
H150	H	1.158506	0.921687	0.207208
H151	H	1.253271	0.928033	0.322247
H152	H	1.249173	0.864166	0.266102
H153	H	1.279322	0.941163	0.176347
H154	H	1.283441	1.005031	0.232504
H155	H	1.339785	0.940977	0.236736
H156	H	0.984307	0.923961	0.439996
