data_functionalizedCrystal
_audit_creation_method	'MofGen! by Chris Wilmer'
_symmetry_space_group_name_H-M	'P1'
_symmetry_Int_Tables_number	1
_symmetry_cell_setting	triclinic
loop_
_symmetry_equiv_pos_as_xyz
  x,y,z
_cell_length_a	6.817900
_cell_length_b	19.453114
_cell_length_c	14.858565
_cell_angle_alpha	95.586354
_cell_angle_beta	104.523916
_cell_angle_gamma	101.709288
loop_
_atom_site_label
_atom_site_type_symbol
_atom_site_fract_x
_atom_site_fract_y
_atom_site_fract_z
V1	V	-4.012078	-0.219196	-0.129639
V2	V	-3.512078	0.280804	0.370361
O3	O	-3.994529	-0.214822	0.005233
O4	O	-3.494529	0.285178	0.505233
O5	O	-3.968832	-0.217891	-0.256094
O6	O	-3.468832	0.282109	0.243906
O7	O	-3.954929	-0.314707	-0.128082
O8	O	-3.454929	0.185293	0.371918
O9	O	-4.008528	-0.117336	-0.123665
O10	O	-3.508528	0.382664	0.376335
V11	V	-4.496171	-0.206989	-0.113455
V12	V	-3.996171	0.293011	0.386545
O13	O	-4.272084	-0.245973	-0.165140
O14	O	-3.772084	0.254027	0.334860
O15	O	-4.686362	-0.180213	-0.077954
O16	O	-4.186362	0.319787	0.422046
O17	O	-4.316211	-0.208295	0.013000
O18	O	-3.816211	0.291705	0.513000
O19	O	-4.631117	-0.211364	-0.248328
O20	O	-4.131117	0.288636	0.251672
O21	O	-4.617118	-0.308850	-0.119429
O22	O	-4.117118	0.191150	0.380571
O23	O	-4.330113	-0.111479	-0.115012
O24	O	-3.830113	0.388521	0.384988
C25	C	-3.815370	-0.214483	-0.286908
C26	C	-3.315370	0.285517	0.213092
C27	C	-3.861240	-0.214052	-0.390289
C28	C	-3.361240	0.285948	0.109711
C29	C	-4.029129	-0.212486	-0.768853
C30	C	-3.529129	0.287514	-0.268853
C31	C	-3.982409	-0.212921	-0.663525
C32	C	-3.482409	0.287079	-0.163525
C33	C	-3.945185	-0.213268	-0.579575
C34	C	-3.445185	0.286732	-0.079575
C35	C	-3.898463	-0.213705	-0.474240
C36	C	-3.398463	0.286295	0.025760
C37	C	-3.797635	-0.337981	-0.123614
C38	C	-3.297635	0.162019	0.376386
C39	C	-3.832227	-0.416062	-0.123178
C40	C	-3.332227	0.083938	0.376822
C41	C	-4.030451	-0.456326	-0.127641
C42	C	-3.530451	0.043674	0.372359
C43	C	-4.062955	-0.529692	-0.127231
C44	C	-3.562955	-0.029692	0.372769
C45	C	-3.897233	-0.562794	-0.122377
C46	C	-3.397233	-0.062794	0.377623
C47	C	-3.698978	-0.522520	-0.117908
C48	C	-3.198978	-0.022520	0.382092
C49	C	-3.666475	-0.449154	-0.118309
C50	C	-3.166475	0.050846	0.381691
N51	N	-3.839491	-0.681658	-0.171490
N52	N	-3.339491	-0.181658	0.328510
N53	N	-3.870381	-0.751353	-0.171112
N54	N	-3.370381	-0.251353	0.328888
C55	C	-3.995150	-0.783840	-0.121168
C56	C	-3.495150	-0.283840	0.378832
N57	N	-4.087898	-0.744002	-0.071629
N58	N	-3.587898	-0.244002	0.428371
N59	N	-4.057014	-0.674301	-0.072012
N60	N	-3.557014	-0.174301	0.427988
C61	C	-3.932456	-0.642346	-0.121942
C62	C	-3.432456	-0.142346	0.378058
C63	C	-4.228630	-0.903656	-0.125186
C64	C	-3.728630	-0.403656	0.374814
C65	C	-4.261124	-0.977023	-0.124770
C66	C	-3.761124	-0.477023	0.375230
C67	C	-3.897146	-0.969850	-0.115456
C68	C	-3.397146	-0.469850	0.384544
C69	C	-3.864653	-0.896484	-0.115863
C70	C	-3.364653	-0.396484	0.384137
C71	C	-4.030405	-0.863392	-0.120732
C72	C	-3.530405	-0.363392	0.379268
C73	C	-4.133015	-0.211701	0.043809
C74	C	-3.633015	0.288299	0.543809
C75	C	-4.066383	-0.212136	0.147189
C76	C	-3.566383	0.287864	0.647189
C77	C	-4.150751	-0.088201	-0.119483
C78	C	-3.650751	0.411799	0.380517
C79	C	-4.095396	-0.010119	-0.119914
C80	C	-3.595396	0.489881	0.380086
H81	H	-4.165421	-0.429387	-0.131603
H82	H	-3.665421	0.070613	0.368397
H83	H	-4.422541	-1.009804	-0.128398
H84	H	-3.922541	-0.509804	0.371602
C85	C	-4.281032	-0.573992	-0.132152
C86	C	-3.781032	-0.073992	0.367848
N87	N	-4.445290	-0.607358	-0.135862
N88	N	-3.945290	-0.107358	0.364138
H89	H	-3.564046	-0.549475	-0.113953
H90	H	-3.064046	-0.049475	0.386047
H91	H	-3.505052	-0.416370	-0.114667
H92	H	-3.005052	0.083630	0.385333
C93	C	-4.410951	-0.867251	-0.130530
C94	C	-3.910951	-0.367251	0.369470
N95	N	-4.548277	-0.839833	-0.134553
N96	N	-4.048277	-0.339833	0.365447
H97	H	-3.762206	-0.996800	-0.111496
H98	H	-3.262206	-0.496800	0.388504
H99	H	-3.703244	-0.863701	-0.112238
H100	H	-3.203244	-0.363701	0.387762
