data_functionalizedCrystal
_audit_creation_method	'MofGen! by Chris Wilmer'
_symmetry_space_group_name_H-M	'P1'
_symmetry_Int_Tables_number	1
_symmetry_cell_setting	triclinic
loop_
_symmetry_equiv_pos_as_xyz
  x,y,z
_cell_length_a	19.188930
_cell_length_b	19.188930
_cell_length_c	18.266242
_cell_angle_alpha	90.011475
_cell_angle_beta	89.977082
_cell_angle_gamma	96.855221
loop_
_atom_site_label
_atom_site_type_symbol
_atom_site_fract_x
_atom_site_fract_y
_atom_site_fract_z
O1	O	0.926149	-0.087169	-0.061124
O2	O	0.722838	-0.098903	-0.061075
O3	O	0.830361	0.008620	-0.061087
O4	O	0.818627	-0.194691	-0.061113
O5	O	0.830343	0.008625	0.060675
O6	O	0.722820	-0.098897	0.060687
O7	O	0.926131	-0.087163	0.060638
Zn8	Zn	0.824473	-0.093029	0.079994
Zn9	Zn	0.824497	-0.093037	-0.080432
O10	O	0.818608	-0.194686	0.060649
C11	C	0.696818	-0.098520	-0.000188
C12	C	0.619313	-0.097380	-0.000169
C13	C	0.574389	-0.160470	-0.000188
C14	C	0.501566	-0.159399	-0.000196
C15	C	0.473669	-0.095233	-0.000199
C16	C	0.518603	-0.032133	-0.000175
C17	C	0.591425	-0.033207	-0.000160
N18	N	0.365695	-0.046188	-0.041663
N19	N	0.296516	-0.045172	-0.041679
C20	C	0.254260	-0.091994	-0.000243
N21	N	0.283795	-0.139881	0.041200
N22	N	0.352980	-0.140899	0.041213
C23	C	0.394707	-0.094062	-0.000215
C24	C	0.130372	-0.153928	-0.000270
C25	C	0.057547	-0.152853	-0.000274
C26	C	0.074586	-0.025586	-0.000261
C27	C	0.147409	-0.026662	-0.000250
C28	C	0.175298	-0.090835	-0.000258
C29	C	0.829972	0.034634	-0.000204
C30	C	0.828831	0.112138	-0.000197
C31	C	0.952151	-0.087546	-0.000252
C32	C	1.029656	-0.088687	-0.000276
C33	C	0.818997	-0.220700	-0.000236
C34	C	0.820138	-0.298204	-0.000247
N35	N	0.824461	-0.093024	0.189481
C36	C	0.891922	0.157062	-0.000209
C37	C	0.890850	0.229886	-0.000220
C38	C	0.826684	0.257782	-0.000206
C39	C	0.763585	0.212849	-0.000198
C40	C	0.764658	0.140026	-0.000194
N41	N	0.777631	0.365789	0.041244
N42	N	0.776615	0.434968	0.041242
C43	C	0.823446	0.477191	-0.000220
N44	N	0.871341	0.447624	-0.041669
N45	N	0.872359	0.378439	-0.041664
C46	C	0.825513	0.336745	-0.000210
C47	C	0.885379	0.601079	-0.000245
C48	C	0.884305	0.673904	-0.000261
C49	C	0.757038	0.656865	-0.000231
C50	C	0.758114	0.584042	-0.000222
C51	C	0.822287	0.556154	-0.000226
N52	N	0.824513	-0.093037	-0.189919
C53	C	0.872088	-0.045436	0.227785
C54	C	0.872092	-0.045433	0.304430
C55	C	0.824477	-0.093030	0.342768
C56	C	0.776841	-0.140621	0.304455
C57	C	0.776834	-0.140618	0.227812
N58	N	0.815401	-0.154837	0.463094
N59	N	0.815413	-0.154838	0.535902
C60	C	0.824496	-0.093040	0.573691
N61	N	0.833582	-0.031239	0.535920
N62	N	0.833574	-0.031240	0.463106
C63	C	0.824480	-0.093038	0.425875
C64	C	0.872131	-0.045444	0.695101
C65	C	0.872130	-0.045440	0.771748
C66	C	0.776882	-0.140634	0.771772
C67	C	0.776879	-0.140632	0.695127
C68	C	0.824507	-0.093038	0.656796
H69	H	0.183988	0.024713	-0.000238
H70	H	0.738100	-0.179386	0.663938
H71	H	0.944176	0.134360	-0.000214
H72	H	0.597091	-0.212725	-0.000196
H73	H	0.020970	-0.204232	-0.000285
O74	O	0.491474	0.030180	-0.000310
C75	C	0.449884	0.034598	-0.063373
H76	H	0.467023	-0.001836	-0.107449
H77	H	0.392397	0.018317	-0.049132
C78	C	0.437909	0.155384	-0.037824
C79	C	0.458963	0.110639	-0.091961
H80	H	0.443506	0.202290	-0.055457
H81	H	0.465926	0.152407	0.004664
H82	H	0.390004	0.141807	-0.025961
H83	H	0.506869	0.124211	-0.103816
H84	H	0.430954	0.113621	-0.134452
H85	H	0.738071	-0.179374	0.335674
H86	H	0.910911	-0.006685	0.802935
H87	H	0.711340	0.235567	-0.000187
O88	O	0.458016	-0.220752	-0.000254
C89	C	0.498247	-0.277621	-0.000239
H90	H	0.552670	-0.259733	-0.023270
H91	H	0.503332	-0.297308	0.058173
C92	C	0.394962	-0.359283	-0.019727
C93	C	0.461804	-0.337314	-0.048021
H94	H	0.372481	-0.396106	-0.049198
H95	H	0.367857	-0.320970	-0.019734
H96	H	0.399209	-0.375684	0.028949
H97	H	0.457555	-0.320905	-0.096692
H98	H	0.488907	-0.375626	-0.048022
H99	H	0.738110	-0.179386	0.802986
H100	H	0.628003	0.018171	-0.000145
O101	O	0.696873	0.540327	-0.000106
C102	C	0.693669	0.497721	0.062968
H103	H	0.749074	0.494213	0.083981
H104	H	0.661846	0.521591	0.107132
C105	C	0.590266	0.427979	0.018015
C106	C	0.658316	0.423667	0.043820
H107	H	0.568456	0.382300	0.006206
H108	H	0.592423	0.456685	-0.024478
H109	H	0.563756	0.447874	0.054823
H110	H	0.684827	0.403781	0.007010
H111	H	0.656163	0.394955	0.086307
O112	O	0.918277	0.000989	0.190696
C113	C	0.907033	0.070004	0.209626
H114	H	0.851099	0.070078	0.230654
H115	H	0.945712	0.090543	0.254200
C116	C	0.986756	0.117455	0.115856
C117	C	0.918056	0.117547	0.141678
H118	H	0.993558	0.146784	0.073944
H119	H	0.994334	0.070959	0.103104
H120	H	1.018981	0.134570	0.153008
H121	H	0.885832	0.100425	0.104529
H122	H	0.910473	0.164042	0.154422
H123	H	0.704792	0.679578	-0.000222
H124	H	0.051874	0.026659	-0.000309
H125	H	0.738049	-0.179371	0.196624
O126	O	0.918391	0.000700	0.341726
C127	C	0.961359	-0.036593	0.386011
H128	H	0.933379	-0.091295	0.397494
H129	H	1.012939	-0.041213	0.356443
C130	C	1.010782	0.069993	0.444713
C131	C	0.976414	0.002808	0.458822
H132	H	1.020072	0.094298	0.489625
H133	H	0.981836	0.095119	0.414875
H134	H	1.053761	0.066133	0.420071
H135	H	0.933432	0.006669	0.483455
H136	H	1.005354	-0.022316	0.488665
O137	O	0.157352	-0.216323	-0.000238
C138	C	0.102081	-0.271781	-0.000268
H139	H	0.052656	-0.252360	0.022778
H140	H	0.091746	-0.291236	-0.058686
C141	C	0.183134	-0.356167	0.019176
C142	C	0.122431	-0.332315	0.047487
H143	H	0.195688	-0.393509	0.048630
H144	H	0.220372	-0.318804	0.019193
H145	H	0.174514	-0.372375	-0.029506
H146	H	0.131055	-0.316100	0.096164
H147	H	0.085195	-0.369677	0.047479
H148	H	0.910910	-0.006688	0.663892
H149	H	0.942228	0.266470	-0.000233
H150	H	0.937632	0.578372	-0.000251
H151	H	0.713281	0.103448	-0.000184
H152	H	0.935683	0.710481	-0.000274
