data_functionalizedCrystal
_audit_creation_method	'MofGen! by Chris Wilmer'
_symmetry_space_group_name_H-M	'P1'
_symmetry_Int_Tables_number	1
_symmetry_cell_setting	triclinic
loop_
_symmetry_equiv_pos_as_xyz
  x,y,z
_cell_length_a	15.995350
_cell_length_b	19.188930
_cell_length_c	14.472310
_cell_angle_alpha	89.993787
_cell_angle_beta	89.990621
_cell_angle_gamma	83.318578
loop_
_atom_site_label
_atom_site_type_symbol
_atom_site_fract_x
_atom_site_fract_y
_atom_site_fract_z
O1	O	1.110667	0.089991	-0.076773
O2	O	1.360667	0.339991	0.173227
O3	O	1.610667	0.589991	0.423227
O4	O	1.860667	0.839991	0.673227
O5	O	0.866851	0.101105	-0.076794
O6	O	1.116851	0.351105	0.173206
O7	O	1.366851	0.601105	0.423206
O8	O	1.616851	0.851105	0.673206
O9	O	0.995795	-0.006090	-0.076765
O10	O	1.245795	0.243910	0.173235
O11	O	1.495795	0.493910	0.423235
O12	O	1.745795	0.743910	0.673235
O13	O	0.981723	0.197186	-0.076802
O14	O	1.231723	0.447186	0.173198
O15	O	1.481723	0.697186	0.423198
O16	O	1.731723	0.947186	0.673198
O17	O	0.995762	-0.006083	0.076917
O18	O	1.245762	0.243917	0.326917
O19	O	1.495762	0.493917	0.576917
O20	O	1.745762	0.743917	0.826917
O21	O	0.866818	0.101111	0.076888
O22	O	1.116818	0.351111	0.326888
O23	O	1.366818	0.601111	0.576888
O24	O	1.616818	0.851111	0.826888
O25	O	1.110634	0.089998	0.076909
O26	O	1.360634	0.339998	0.326909
O27	O	1.610634	0.589998	0.576909
O28	O	1.860634	0.839998	0.826909
Cu29	Cu	0.988723	0.095555	0.090931
Cu30	Cu	1.238723	0.345555	0.340931
Cu31	Cu	1.488723	0.595555	0.590931
Cu32	Cu	1.738723	0.845555	0.840931
Cu33	Cu	0.988762	0.095547	-0.090816
Cu34	Cu	1.238762	0.345547	0.159184
Cu35	Cu	1.488762	0.595547	0.409184
Cu36	Cu	1.738762	0.845547	0.659184
O37	O	0.981690	0.197192	0.076880
O38	O	1.231690	0.447192	0.326880
O39	O	1.481690	0.697192	0.576880
O40	O	1.731690	0.947192	0.826880
C41	C	0.835641	0.100648	0.000045
C42	C	1.085641	0.350648	0.250045
C43	C	1.335641	0.600648	0.500045
C44	C	1.585641	0.850648	0.750045
C45	C	0.742696	0.099271	0.000038
C46	C	0.992696	0.349271	0.250038
C47	C	1.242696	0.599271	0.500038
C48	C	1.492696	0.849271	0.750038
C49	C	0.995323	-0.032099	0.000079
C50	C	1.245323	0.217901	0.250079
C51	C	1.495323	0.467901	0.500079
C52	C	1.745323	0.717901	0.750079
C53	C	0.993955	-0.109607	0.000087
C54	C	1.243955	0.140393	0.250087
C55	C	1.493955	0.390393	0.500087
C56	C	1.743955	0.640393	0.750087
C57	C	0.404967	0.094324	0.000058
C58	C	0.654967	0.344324	0.250058
C59	C	0.904967	0.594324	0.500058
C60	C	1.154967	0.844324	0.750058
C61	C	0.452680	0.017982	0.000415
C62	C	0.702680	0.267982	0.250415
C63	C	0.952680	0.517982	0.500415
C64	C	1.202680	0.767982	0.750415
C65	C	0.549365	0.019360	0.000062
C66	C	0.799365	0.269360	0.250062
C67	C	1.049365	0.519360	0.500062
C68	C	1.299365	0.769360	0.750062
C69	C	0.572518	0.096778	0.000049
C70	C	0.822518	0.346778	0.250049
C71	C	1.072518	0.596778	0.500049
C72	C	1.322518	0.846778	0.750049
C73	C	0.531312	0.134429	-0.087714
C74	C	0.781312	0.384429	0.162286
C75	C	1.031312	0.634429	0.412286
C76	C	1.281312	0.884429	0.662286
C77	C	0.434683	0.132511	-0.087781
C78	C	0.684683	0.382511	0.162219
C79	C	0.934683	0.632511	0.412219
C80	C	1.184683	0.882511	0.662219
C81	C	0.434301	0.134095	0.086984
C82	C	0.684301	0.384095	0.336984
C83	C	0.934301	0.634095	0.586984
C84	C	1.184301	0.884095	0.836984
C85	C	0.531246	0.134077	0.088137
C86	C	0.781246	0.384077	0.338137
C87	C	1.031246	0.634077	0.588137
C88	C	1.281246	0.884077	0.838137
C89	C	0.667211	0.098169	0.000040
C90	C	0.917211	0.348169	0.250040
C91	C	1.167211	0.598169	0.500040
C92	C	1.417211	0.848169	0.750040
C93	C	0.310274	0.092936	0.000060
C94	C	0.560274	0.342936	0.250060
C95	C	0.810274	0.592936	0.500060
C96	C	1.060274	0.842936	0.750060
C97	C	1.069615	-0.154338	0.000097
C98	C	1.319615	0.095662	0.250097
C99	C	1.569615	0.345662	0.500097
C100	C	1.819615	0.595662	0.750097
C101	C	1.068330	-0.227165	0.000082
C102	C	1.318330	0.022835	0.250082
C103	C	1.568330	0.272835	0.500082
C104	C	1.818330	0.522835	0.750082
C105	C	0.991380	-0.255258	0.000075
C106	C	1.241380	-0.005258	0.250075
C107	C	1.491380	0.244742	0.500075
C108	C	1.741380	0.494742	0.750075
C109	C	0.915710	-0.210517	0.000059
C110	C	1.165710	0.039483	0.250059
C111	C	1.415710	0.289483	0.500059
C112	C	1.665710	0.539483	0.750059
C113	C	0.916997	-0.137691	0.000065
C114	C	1.166997	0.112309	0.250065
C115	C	1.416997	0.362309	0.500065
C116	C	1.666997	0.612309	0.750065
N117	N	0.932550	-0.363410	0.052371
N118	N	1.182550	-0.113410	0.302371
N119	N	1.432550	0.136590	0.552371
N120	N	1.682550	0.386590	0.802371
N121	N	0.931332	-0.432592	0.052368
N122	N	1.181332	-0.182592	0.302368
N123	N	1.431332	0.067408	0.552368
N124	N	1.681332	0.317408	0.802368
C125	C	0.987497	-0.474676	0.000056
C126	C	1.237497	-0.224676	0.250056
C127	C	1.487497	0.025324	0.500056
C128	C	1.737497	0.275324	0.750056
N129	N	1.044938	-0.444967	-0.052240
N130	N	1.294938	-0.194967	0.197760
N131	N	1.544938	0.055033	0.447760
N132	N	1.794938	0.305033	0.697760
N133	N	1.046158	-0.375779	-0.052233
N134	N	1.296158	-0.125779	0.197767
N135	N	1.546158	0.124221	0.447767
N136	N	1.796158	0.374221	0.697767
C137	C	0.989976	-0.334224	0.000069
C138	C	1.239976	-0.084224	0.250069
C139	C	1.489976	0.165776	0.500069
C140	C	1.739976	0.415776	0.750069
C141	C	1.061769	-0.598375	0.000050
C142	C	1.311769	-0.348375	0.250050
C143	C	1.561769	-0.098375	0.500050
C144	C	1.811769	0.151625	0.750050
C145	C	1.060480	-0.671204	0.000029
C146	C	1.310480	-0.421204	0.250029
C147	C	1.560480	-0.171204	0.500029
C148	C	1.810480	0.078796	0.750029
C149	C	0.907859	-0.654553	0.000015
C150	C	1.157859	-0.404553	0.250015
C151	C	1.407859	-0.154553	0.500015
C152	C	1.657859	0.095447	0.750015
C153	C	0.909149	-0.581727	0.000027
C154	C	1.159149	-0.331727	0.250027
C155	C	1.409149	-0.081727	0.500027
C156	C	1.659149	0.168273	0.750027
C157	C	0.986106	-0.553643	0.000048
C158	C	1.236106	-0.303643	0.250048
C159	C	1.486106	-0.053643	0.500048
C160	C	1.736106	0.196357	0.750048
C161	C	1.141843	0.090454	0.000068
C162	C	1.391843	0.340454	0.250068
C163	C	1.641843	0.590454	0.500068
C164	C	1.891843	0.840454	0.750068
C165	C	1.234789	0.091831	0.000069
C166	C	1.484789	0.341831	0.250069
C167	C	1.734789	0.591831	0.500069
C168	C	1.984789	0.841831	0.750069
C169	C	0.982162	0.223201	0.000034
C170	C	1.232162	0.473201	0.250034
C171	C	1.482162	0.723201	0.500034
C172	C	1.732162	0.973201	0.750034
C173	C	0.983530	0.300709	0.000020
C174	C	1.233530	0.550709	0.250020
C175	C	1.483530	0.800709	0.500020
C176	C	1.733530	1.050709	0.750020
N177	N	0.988701	0.095560	0.218762
N178	N	1.238701	0.345560	0.468762
N179	N	1.488701	0.595560	0.718762
N180	N	1.738701	0.845560	0.968762
N181	N	0.988790	0.095537	-0.218647
N182	N	1.238790	0.345537	0.031353
N183	N	1.488790	0.595537	0.281353
N184	N	1.738790	0.845537	0.531353
C185	C	0.988761	0.095545	0.592853
C186	C	1.238761	0.345545	0.842853
C187	C	1.488761	0.595545	1.092853
C188	C	1.738761	0.845545	1.342853
C189	C	0.919535	0.152710	0.553672
C190	C	1.169535	0.402710	0.803672
C191	C	1.419535	0.652710	1.053672
C192	C	1.669535	0.902710	1.303672
C193	C	0.919694	0.152918	0.446584
C194	C	1.169694	0.402918	0.696584
C195	C	1.419694	0.652918	0.946584
C196	C	1.669694	0.902918	1.196584
C197	C	0.988731	0.095552	0.407262
C198	C	1.238731	0.345552	0.657262
C199	C	1.488731	0.595552	0.907262
C200	C	1.738731	0.845552	1.157262
C201	C	1.076037	0.111464	0.446103
C202	C	1.326037	0.361464	0.696103
C203	C	1.576037	0.611464	0.946103
C204	C	1.826037	0.861464	1.196103
C205	C	1.075648	0.111870	0.553224
C206	C	1.325648	0.361870	0.803224
C207	C	1.575648	0.611870	1.053224
C208	C	1.825648	0.861870	1.303224
C209	C	0.971460	0.022298	0.553394
C210	C	1.221460	0.272298	0.803394
C211	C	1.471460	0.522298	1.053394
C212	C	1.721460	0.772298	1.303394
C213	C	0.969454	0.022787	0.446266
C214	C	1.219454	0.272787	0.696266
C215	C	1.469454	0.522787	0.946266
C216	C	1.719454	0.772787	1.196266
C217	C	0.988719	0.095555	0.302374
C218	C	1.238719	0.345555	0.552374
C219	C	1.488719	0.595555	0.802374
C220	C	1.738719	0.845555	1.052374
C221	C	0.988778	0.095543	0.697741
C222	C	1.238778	0.345543	0.947741
C223	C	1.488778	0.595543	1.197741
C224	C	1.738778	0.845543	1.447741
H225	H	0.577889	-0.010236	0.062975
H226	H	0.827889	0.239764	0.312975
H227	H	1.077889	0.489764	0.562975
H228	H	1.327889	0.739764	0.812975
Br229	Br	0.867660	-0.003190	0.598472
Br230	Br	1.117660	0.246810	0.848472
Br231	Br	1.367660	0.496810	1.098472
Br232	Br	1.617660	0.746810	1.348472
Br233	Br	1.174056	-0.116226	0.000101
Br234	Br	1.424056	0.133774	0.250101
Br235	Br	1.674056	0.383774	0.500101
Br236	Br	1.924056	0.633774	0.750101
H237	H	0.853057	-0.233394	0.000052
H238	H	1.103057	0.016606	0.250052
H239	H	1.353057	0.266606	0.500052
H240	H	1.603057	0.516606	0.750052
Br241	Br	0.421969	-0.032877	0.105320
Br242	Br	0.671969	0.217123	0.355320
Br243	Br	0.921969	0.467123	0.605320
Br244	Br	1.171969	0.717123	0.855320
H245	H	0.930402	0.206759	0.580572
H246	H	1.180402	0.456759	0.830572
H247	H	1.430402	0.706759	1.080572
H248	H	1.680402	0.956759	1.330572
H249	H	0.854420	0.143386	0.579456
H250	H	1.104420	0.393386	0.829456
H251	H	1.354420	0.643386	1.079456
H252	H	1.604420	0.893386	1.329456
H253	H	1.021946	-0.020242	0.578732
H254	H	1.271946	0.229758	0.828732
H255	H	1.521946	0.479758	1.078732
H256	H	1.771946	0.729758	1.328732
Br257	Br	0.554532	0.229221	-0.093195
Br258	Br	0.804532	0.479221	0.156805
Br259	Br	1.054532	0.729221	0.406805
Br260	Br	1.304532	0.979221	0.656805
H261	H	0.413843	0.109140	0.153506
H262	H	0.663843	0.359140	0.403506
H263	H	0.913843	0.609140	0.653506
H264	H	1.163843	0.859140	0.903506
H265	H	0.905232	0.010711	0.420881
H266	H	1.155232	0.260711	0.670881
H267	H	1.405232	0.510711	0.920881
H268	H	1.655232	0.760711	1.170881
H269	H	1.129943	-0.263592	0.000087
H270	H	1.379943	-0.013592	0.250087
H271	H	1.629943	0.236408	0.500087
H272	H	1.879943	0.486408	0.750087
H273	H	0.433211	-0.012395	-0.062166
H274	H	0.683211	0.237605	0.187834
H275	H	0.933211	0.487605	0.437834
H276	H	1.183211	0.737605	0.687834
H277	H	1.090934	0.165288	0.578192
H278	H	1.340934	0.415288	0.828192
H279	H	1.590934	0.665288	1.078192
H280	H	1.840934	0.915288	1.328192
Br281	Br	0.806462	-0.521016	0.000013
Br282	Br	1.056462	-0.271016	0.250013
Br283	Br	1.306462	-0.021016	0.500013
Br284	Br	1.556462	0.228984	0.750013
Br285	Br	1.048076	-0.051441	0.401675
Br286	Br	1.298076	0.198559	0.651675
Br287	Br	1.548076	0.448559	0.901675
Br288	Br	1.798076	0.698559	1.151675
H289	H	0.559796	0.108273	-0.153020
H290	H	0.809796	0.358273	0.096980
H291	H	1.059796	0.608273	0.346980
H292	H	1.309796	0.858273	0.596980
H293	H	0.845205	-0.677425	0.000005
H294	H	1.095205	-0.427425	0.250005
H295	H	1.345205	-0.177425	0.500005
H296	H	1.595205	0.072575	0.750005
H297	H	0.855384	-0.101270	0.000057
H298	H	1.105384	0.148730	0.250057
H299	H	1.355384	0.398730	0.500057
H300	H	1.605384	0.648730	0.750057
H301	H	1.128755	0.071875	0.579141
H302	H	1.378755	0.321875	0.829141
H303	H	1.628755	0.571875	1.079141
H304	H	1.878755	0.821875	1.329141
Br305	Br	0.576803	0.088189	0.196354
Br306	Br	0.826803	0.338189	0.446354
Br307	Br	1.076803	0.588189	0.696354
Br308	Br	1.326803	0.838189	0.946354
H309	H	0.854789	0.143438	0.420324
H310	H	1.104789	0.393438	0.670324
H311	H	1.354789	0.643438	0.920324
H312	H	1.604789	0.893438	1.170324
H313	H	1.124432	-0.575508	0.000063
H314	H	1.374432	-0.325508	0.250063
H315	H	1.624432	-0.075508	0.500063
H316	H	1.874432	0.174492	0.750063
Br317	Br	0.938022	0.243523	0.403835
Br318	Br	1.188022	0.493523	0.653835
Br319	Br	1.438022	0.743523	0.903835
Br320	Br	1.688022	0.993523	1.153835
H321	H	1.128770	0.070935	0.420631
H322	H	1.378770	0.320935	0.670631
H323	H	1.628770	0.570935	0.920631
H324	H	1.878770	0.820935	1.170631
Br325	Br	1.102142	0.199481	0.401361
Br326	Br	1.352142	0.449481	0.651361
Br327	Br	1.602142	0.699481	0.901361
Br328	Br	1.852142	0.949481	1.151361
Br329	Br	0.595973	-0.030088	-0.105146
Br330	Br	0.845973	0.219912	0.144854
Br331	Br	1.095973	0.469912	0.394854
Br332	Br	1.345973	0.719912	0.644854
H333	H	0.546404	0.190533	0.093428
H334	H	0.796404	0.440533	0.343428
H335	H	1.046404	0.690533	0.593428
H336	H	1.296404	0.940533	0.843428
H337	H	1.122095	-0.707624	0.000033
H338	H	1.372095	-0.457624	0.250033
H339	H	1.622095	-0.207624	0.500033
H340	H	1.872095	0.042376	0.750033
H341	H	0.416490	0.105049	-0.153377
H342	H	0.666490	0.355049	0.096623
H343	H	0.916490	0.605049	0.346623
H344	H	1.166490	0.855049	0.596623
H345	H	0.402333	0.190382	0.087568
H346	H	0.652333	0.440382	0.337568
H347	H	0.902333	0.690382	0.587568
H348	H	1.152333	0.940382	0.837568
Br349	Br	0.380588	0.225926	-0.094435
Br350	Br	0.630588	0.475926	0.155565
Br351	Br	0.880588	0.725926	0.405565
Br352	Br	1.130588	0.975926	0.655565
