data_functionalizedCrystal
_audit_creation_method	'MofGen! by Chris Wilmer'
_symmetry_space_group_name_H-M	'P1'
_symmetry_Int_Tables_number	1
_symmetry_cell_setting	triclinic
loop_
_symmetry_equiv_pos_as_xyz
  x,y,z
_cell_length_a	14.044220
_cell_length_b	14.044191
_cell_length_c	12.503572
_cell_angle_alpha	86.162165
_cell_angle_beta	93.843168
_cell_angle_gamma	93.190327
loop_
_atom_site_label
_atom_site_type_symbol
_atom_site_fract_x
_atom_site_fract_y
_atom_site_fract_z
O1	O	0.225145	1.282208	-0.089273
O2	O	0.558478	1.615542	0.244060
O3	O	0.891812	1.948875	0.577394
O4	O	0.216832	1.005536	-0.089287
O5	O	0.550165	1.338870	0.244047
O6	O	0.883498	1.672203	0.577380
O7	O	0.082653	1.139719	-0.089269
O8	O	0.415986	1.473052	0.244064
O9	O	0.749320	1.806386	0.577397
O10	O	0.359324	1.148026	-0.089290
O11	O	0.692657	1.481359	0.244043
O12	O	1.025990	1.814692	0.577376
O13	O	0.092762	1.129629	0.089371
O14	O	0.426096	1.462962	0.422705
O15	O	0.759429	1.796296	0.756038
O16	O	0.226941	0.995447	0.089354
O17	O	0.560274	1.328780	0.422687
O18	O	0.893608	1.662113	0.756021
O19	O	0.235254	1.272118	0.089368
O20	O	0.568588	1.605452	0.422701
O21	O	0.901921	1.938785	0.756034
Cu22	Cu	0.232021	1.132861	0.105672
Cu23	Cu	0.565354	1.466195	0.439005
Cu24	Cu	0.898687	1.799528	0.772339
Cu25	Cu	0.220065	1.144794	-0.105591
Cu26	Cu	0.553399	1.478127	0.227742
Cu27	Cu	0.886732	1.811460	0.561076
O28	O	0.369433	1.137936	0.089350
O29	O	0.702766	1.471269	0.422684
O30	O	1.036100	1.804603	0.756017
C31	C	0.218250	0.964870	0.000032
C32	C	0.551583	1.298203	0.333366
C33	C	0.884916	1.631536	0.666699
C34	C	0.207402	0.858727	0.000027
C35	C	0.540735	1.192060	0.333361
C36	C	0.874069	1.525394	0.666694
C37	C	0.264503	0.613268	0.000034
C38	C	0.597836	0.946601	0.333367
C39	C	0.931170	1.279935	0.666700
C40	C	0.187587	0.664393	0.000038
C41	C	0.520920	0.997727	0.333371
C42	C	0.854254	1.331060	0.666704
C43	C	0.198615	0.772531	0.000032
C44	C	0.531948	1.105864	0.333365
C45	C	0.865281	1.439197	0.666699
C46	C	0.253477	0.505121	0.000040
C47	C	0.586810	0.838454	0.333373
C48	C	0.920143	1.171788	0.666706
C49	C	0.052086	1.131038	0.000051
C50	C	0.385419	1.464372	0.333385
C51	C	0.718753	1.797705	0.666718
C52	C	-0.054057	1.120194	0.000052
C53	C	0.279276	1.453527	0.333385
C54	C	0.612610	1.786860	0.666719
C55	C	-0.248396	1.100368	0.000036
C56	C	0.084937	1.433702	0.333369
C57	C	0.418270	1.767035	0.666702
C58	C	-0.299524	1.177283	0.000036
C59	C	0.033809	1.510616	0.333369
C60	C	0.367142	1.843950	0.666703
C61	C	-0.407661	1.166252	0.000027
C62	C	-0.074328	1.499585	0.333360
C63	C	0.259006	1.832918	0.666694
C64	C	-0.140249	1.111398	0.000045
C65	C	0.193084	1.444731	0.333378
C66	C	0.526417	1.778065	0.666711
C67	C	0.400000	1.146617	0.000027
C68	C	0.733333	1.479950	0.333361
C69	C	1.066667	1.813283	0.666694
C70	C	0.506143	1.157462	0.000020
C71	C	0.839476	1.490795	0.333353
C72	C	1.172809	1.824128	0.666686
C73	C	0.233836	1.312785	0.000046
C74	C	0.567170	1.646119	0.333380
C75	C	0.900503	1.979452	0.666713
C76	C	0.244683	1.418929	0.000044
C77	C	0.578017	1.752262	0.333378
C78	C	0.911350	2.085595	0.666711
N79	N	0.240429	1.124476	0.254263
N80	N	0.573763	1.457809	0.587597
N81	N	0.907096	1.791142	0.920930
N82	N	0.211650	1.153186	-0.254182
N83	N	0.544983	1.486520	0.079151
N84	N	0.878316	1.819853	0.412484
C85	C	0.252807	1.112141	0.473377
C86	C	0.586141	1.445474	0.806710
C87	C	0.919474	1.778807	1.140044
C88	C	0.199275	1.165518	0.526711
C89	C	0.532608	1.498852	0.860044
C90	C	0.865941	1.832185	1.193378
C91	C	0.206162	1.158655	0.648633
C92	C	0.539495	1.491988	0.981967
C93	C	0.872829	1.825322	1.315300
C94	C	0.245921	1.119003	0.351444
C95	C	0.579254	1.452336	0.684777
C96	C	0.912588	1.785670	1.018110
H97	H	0.338629	0.650710	0.000025
H98	H	0.671962	0.984043	0.333358
H99	H	1.005296	1.317376	0.666692
O100	O	0.313672	1.051399	0.527966
O101	O	0.647005	1.384732	0.861299
O102	O	0.980339	1.718065	1.194633
C103	C	0.362118	1.003132	0.454372
C104	C	0.695451	1.336466	0.787705
C105	C	1.028784	1.669799	1.121039
H106	H	0.318430	1.003118	0.374172
H107	H	0.651764	1.336452	0.707505
H108	H	0.985097	1.669785	1.040839
H109	H	0.372136	0.926336	0.486979
H110	H	0.705469	1.259669	0.820312
H111	H	1.038803	1.593003	1.153646
H112	H	0.434960	1.040911	0.442455
H113	H	0.768293	1.374245	0.775789
H114	H	1.101626	1.707578	1.109122
O115	O	0.099212	0.619583	-0.000014
O116	O	0.432545	0.952916	0.333320
O117	O	0.765878	1.286250	0.666653
C118	C	0.107729	0.520023	0.000012
C119	C	0.441062	0.853357	0.333346
C120	C	0.774395	1.186690	0.666679
H121	H	0.178382	0.504971	-0.033800
H122	H	0.511715	0.838304	0.299534
H123	H	0.845048	1.171637	0.632867
H124	H	0.046049	0.487528	-0.051860
H125	H	0.379383	0.820861	0.281474
H126	H	0.712716	1.154195	0.614807
H127	H	0.105641	0.487065	0.085714
H128	H	0.438974	0.820398	0.419047
H129	H	0.772308	1.153731	0.752381
O130	O	0.138200	1.225954	0.471947
O131	O	0.471533	1.559288	0.805281
O132	O	0.804867	1.892621	1.138614
C133	C	0.071413	1.173188	0.407079
C134	C	0.404747	1.506522	0.740412
C135	C	0.738080	1.839855	1.073745
H136	H	0.102425	1.102786	0.390260
H137	H	0.435758	1.436120	0.723593
H138	H	0.769091	1.769453	1.056926
H139	H	0.054963	1.216094	0.327984
H140	H	0.388297	1.549427	0.661317
H141	H	0.721630	1.882761	0.994651
H142	H	0.002849	1.158018	0.450535
H143	H	0.336182	1.491351	0.783868
H144	H	0.669515	1.824685	1.117202
O145	O	-0.254710	1.265653	0.000099
O146	O	0.078623	1.598986	0.333432
O147	O	0.411956	1.932320	0.666765
C148	C	-0.155153	1.257142	0.000080
C149	C	0.178181	1.590475	0.333414
C150	C	0.511514	1.923809	0.666747
H151	H	-0.136280	1.182668	0.033890
H152	H	0.197053	1.516002	0.367224
H153	H	0.530387	1.849335	0.700557
H154	H	-0.116802	1.312960	0.051957
H155	H	0.216531	1.646293	0.385291
H156	H	0.549865	1.979627	0.718624
H157	H	-0.131871	1.268916	-0.085619
H158	H	0.201462	1.602249	0.247714
H159	H	0.534796	1.935582	0.581048
H160	H	-0.285835	1.026241	0.000029
H161	H	0.047498	1.359574	0.333363
H162	H	0.380831	1.692908	0.666696
