data_functionalizedCrystal
_audit_creation_method	'MofGen! by Chris Wilmer'
_symmetry_space_group_name_H-M	'P1'
_symmetry_Int_Tables_number	1
_symmetry_cell_setting	triclinic
loop_
_symmetry_equiv_pos_as_xyz
  x,y,z
_cell_length_a	21.295417
_cell_length_b	16.959455
_cell_length_c	16.959455
_cell_angle_alpha	89.989109
_cell_angle_beta	90.019041
_cell_angle_gamma	89.974501
loop_
_atom_site_label
_atom_site_type_symbol
_atom_site_fract_x
_atom_site_fract_y
_atom_site_fract_z
Zn1	Zn	-0.250781	-1.208227	0.447078
Zn2	Zn	-0.356028	-1.208155	0.314888
Zn3	Zn	-0.250768	-1.076085	0.314894
Zn4	Zn	-0.356007	-1.075996	0.447005
O5	O	-0.303396	-1.142116	0.380967
O6	O	-0.264757	-1.318828	0.429571
O7	O	-0.342068	-1.190642	0.204278
O8	O	-0.162680	-1.093681	0.332462
O9	O	-0.342081	-1.318775	0.332452
O10	O	-0.162690	-1.190765	0.429577
O11	O	-0.264734	-1.093611	0.204283
O12	O	-0.264714	-0.965462	0.332391
O13	O	-0.342046	-1.093530	0.557626
O14	O	-0.342033	-0.965397	0.429453
O15	O	-0.264737	-1.190679	0.557679
O16	O	-0.444115	-1.190556	0.332381
O17	O	-0.444099	-1.093460	0.429447
C18	C	-0.303370	-0.936749	0.380915
C19	C	-0.303374	-0.848893	0.380912
C20	C	-0.343600	-0.477379	0.330333
C21	C	-0.263207	-0.477455	0.431621
C22	C	-0.263199	-0.560001	0.431606
C23	C	-0.303393	-0.601240	0.380955
C24	C	-0.343595	-0.559933	0.330319
C25	C	-0.223002	-0.601315	0.482247
C26	C	-0.222993	-0.683866	0.482236
C27	C	-0.263184	-0.725106	0.431580
C28	C	-0.303387	-0.683793	0.380941
C29	C	-0.343581	-0.725032	0.330290
C30	C	-0.383782	-0.683721	0.279646
C31	C	-0.383786	-0.601173	0.279663
C32	C	-0.263180	-0.807654	0.431563
C33	C	-0.343576	-0.807585	0.330275
C34	C	-0.466948	-1.142012	0.380923
C35	C	-0.536916	-1.142040	0.380931
C36	C	-0.569770	-1.192643	0.330440
C37	C	-0.635512	-1.192680	0.330458
C38	C	-0.668398	-1.142100	0.380958
C39	C	-0.635537	-1.091493	0.431458
C40	C	-0.569795	-1.091463	0.431444
N41	N	-0.771660	-1.072952	0.386966
N42	N	-0.834112	-1.072983	0.386975
C43	C	-0.866473	-1.142189	0.381003
N44	N	-0.834024	-1.211364	0.375008
N45	N	-0.771566	-1.211332	0.374995
C46	C	-0.739684	-1.142127	0.380979
C47	C	-0.970612	-1.192836	0.330529
C48	C	-1.036356	-1.192874	0.330553
C49	C	-1.036379	-1.091681	0.431549
C50	C	-0.970637	-1.091649	0.431529
C51	C	-0.937757	-1.142226	0.381016
C52	C	-0.139206	-1.142241	0.381028
C53	C	-0.069238	-1.142295	0.381054
C54	C	-0.303390	-1.142103	0.587135
C55	C	-0.303388	-1.142097	0.674991
C56	C	-0.303416	-0.348284	0.381004
C57	C	-0.303406	-0.436140	0.380984
C58	C	-0.343656	-1.091527	1.046442
C59	C	-0.263154	-1.192690	1.046492
C60	C	-0.263148	-1.192688	0.963946
C61	C	-0.303398	-1.142105	0.922644
C62	C	-0.343654	-1.091525	0.963888
C63	C	-0.222898	-1.243272	0.922697
C64	C	-0.222892	-1.243272	0.840146
C65	C	-0.263139	-1.192685	0.798842
C66	C	-0.303396	-1.142102	0.840091
C67	C	-0.343646	-1.091520	0.798789
C68	C	-0.383899	-1.040932	0.840036
C69	C	-0.383901	-1.040938	0.922584
C70	C	-0.263138	-1.192680	0.716294
C71	C	-0.343643	-1.091517	0.716235
C72	C	-0.303413	-1.142118	1.175600
C73	C	-0.303406	-1.142110	1.087744
H74	H	-0.230450	-0.841286	0.472798
F75	F	-0.180208	-0.727824	0.536134
H76	H	-0.376305	-0.841156	0.289026
F77	F	-0.935617	-1.246663	0.276769
H78	H	-1.063155	-1.050501	0.472670
H79	H	-0.230366	-1.233869	0.682714
H80	H	-0.376329	-0.443740	0.289098
H81	H	-0.376428	-1.050338	1.080029
H82	H	-0.416511	-0.717308	0.238410
F83	F	-0.534781	-1.246480	0.276687
F84	F	-0.670485	-1.246540	0.276716
H85	H	-0.416515	-0.567530	0.238431
H86	H	-0.190115	-1.284463	0.806569
H87	H	-0.416674	-0.999752	0.806397
H88	H	-0.230486	-0.443874	0.472863
H89	H	-0.190282	-0.567732	0.523490
H90	H	-0.662317	-1.050312	0.472577
F91	F	-0.426740	-0.987107	0.966488
F92	F	-1.071321	-1.246741	0.276816
F93	F	-0.534829	-1.037602	0.485186
F94	F	-0.935670	-1.037787	0.485266
F95	F	-0.386480	-1.037675	0.672285
F96	F	-0.220324	-1.246526	1.090451
H97	H	-0.190133	-1.284459	0.956331
