data_functionalizedCrystal
_audit_creation_method	'MofGen! by Chris Wilmer'
_symmetry_space_group_name_H-M	'P1'
_symmetry_Int_Tables_number	1
_symmetry_cell_setting	triclinic
loop_
_symmetry_equiv_pos_as_xyz
  x,y,z
_cell_length_a	19.288857
_cell_length_b	14.853569
_cell_length_c	17.766277
_cell_angle_alpha	89.992614
_cell_angle_beta	89.991474
_cell_angle_gamma	83.384337
loop_
_atom_site_label
_atom_site_type_symbol
_atom_site_fract_x
_atom_site_fract_y
_atom_site_fract_z
O1	O	0.090691	1.195851	-0.062563
O2	O	0.590691	1.695851	0.437437
O3	O	0.101492	0.933330	-0.062573
O4	O	0.601492	1.433330	0.437427
O5	O	-0.005014	1.072180	-0.062559
O6	O	0.494986	1.572180	0.437441
O7	O	0.197196	1.057001	-0.062578
O8	O	0.697196	1.557001	0.437422
O9	O	-0.005019	1.072155	0.062630
O10	O	0.494981	1.572155	0.562630
O11	O	0.101487	0.933306	0.062616
O12	O	0.601487	1.433306	0.562616
O13	O	0.090685	1.195827	0.062625
O14	O	0.590685	1.695827	0.562625
Cu15	Cu	0.096085	1.064564	0.074051
Cu16	Cu	0.596085	1.564564	0.574051
Cu17	Cu	0.096092	1.064593	-0.073999
Cu18	Cu	0.596092	1.564593	0.426001
O19	O	0.197191	1.056977	0.062611
O20	O	0.697191	1.556977	0.562611
C21	C	0.101000	0.899732	0.000020
C22	C	0.601000	1.399732	0.500020
C23	C	0.099533	0.799657	0.000017
C24	C	0.599533	1.299657	0.500017
C25	C	0.035577	0.763646	0.000020
C26	C	0.535577	1.263646	0.500020
C27	C	0.162109	0.741633	0.000017
C28	C	0.662109	1.241633	0.500017
C29	C	0.160733	0.647606	0.000018
C30	C	0.660733	1.147606	0.500018
C31	C	0.096778	0.611596	0.000021
C32	C	0.596778	1.111596	0.500021
C33	C	0.034199	0.669611	0.000023
C34	C	0.534199	1.169611	0.500023
C35	C	0.223311	0.589584	0.000023
C36	C	0.723311	1.089584	0.500023
C37	C	0.221937	0.495551	0.000025
C38	C	0.721937	0.995551	0.500025
C39	C	0.157981	0.459539	0.000023
C40	C	0.657981	0.959539	0.500023
C41	C	0.095399	0.517561	0.000024
C42	C	0.595399	1.017561	0.500024
C43	C	0.031444	0.481550	0.000028
C44	C	0.531444	0.981550	0.500028
C45	C	-0.031138	0.539571	0.000024
C46	C	0.468862	1.039571	0.500024
C47	C	-0.029757	0.633599	0.000021
C48	C	0.470243	1.133599	0.500021
C49	C	0.156600	0.365511	0.000025
C50	C	0.656600	0.865511	0.500025
C51	C	0.030066	0.387516	0.000031
C52	C	0.530066	0.887516	0.500031
C53	C	-0.030895	1.071680	0.000036
C54	C	0.469105	1.571680	0.500036
C55	C	-0.108003	1.070218	0.000038
C56	C	0.391997	1.570218	0.500038
C57	C	-0.144213	1.069548	-0.068202
C58	C	0.355787	1.569548	0.431798
C59	C	-0.216664	1.068161	-0.068208
C60	C	0.283336	1.568161	0.431792
C61	C	-0.252904	1.067462	0.000031
C62	C	0.247096	1.567462	0.500031
C63	C	-0.216685	1.068126	0.068280
C64	C	0.283315	1.568126	0.568280
C65	C	-0.144234	1.069504	0.068284
C66	C	0.355766	1.569504	0.568284
C67	C	-0.372966	1.118073	0.052308
C68	C	0.127034	1.618073	0.552308
C69	C	-0.445416	1.116701	0.052301
C70	C	0.054584	1.616701	0.552301
C71	C	-0.476364	1.063207	0.000022
C72	C	0.023636	1.563207	0.500022
C73	C	-0.434855	1.011098	-0.052263
C74	C	0.065145	1.511098	0.447737
C75	C	-0.362405	1.012477	-0.052259
C76	C	0.137595	1.512477	0.447741
C77	C	-0.331464	1.065967	0.000034
C78	C	0.168536	1.565967	0.500034
C79	C	-0.591133	1.061033	-0.068229
C80	C	-0.091133	1.561033	0.431771
C81	C	-0.663585	1.059640	-0.068232
C82	C	-0.163585	1.559640	0.431768
C83	C	-0.663605	1.059614	0.068258
C84	C	-0.163605	1.559614	0.568258
C85	C	-0.591154	1.060998	0.068259
C86	C	-0.091154	1.560998	0.568259
C87	C	-0.554923	1.061711	0.000013
C88	C	-0.054923	1.561711	0.500013
C89	C	0.223072	1.057476	0.000014
C90	C	0.723072	1.557476	0.500014
C91	C	0.300181	1.058939	0.000007
C92	C	0.800181	1.558939	0.500007
C93	C	0.091177	1.229425	0.000030
C94	C	0.591177	1.729425	0.500030
C95	C	0.092645	1.329500	0.000029
C96	C	0.592645	1.829500	0.500029
N97	N	0.096080	1.064550	0.178181
N98	N	0.596080	1.564550	0.678181
N99	N	0.096091	1.064614	-0.178129
N100	N	0.596091	1.564614	0.321871
C101	C	0.048943	1.126053	0.217574
C102	C	0.548943	1.626053	0.717574
C103	C	0.048940	1.126058	0.296376
C104	C	0.548940	1.626058	0.796376
C105	C	0.096086	1.064569	0.335782
C106	C	0.596086	1.564569	0.835782
C107	C	0.143227	1.003055	0.296379
C108	C	0.643227	1.503055	0.796379
C109	C	0.143224	1.003046	0.217579
C110	C	0.643224	1.503046	0.717579
C111	C	0.159333	1.052498	0.460614
C112	C	0.659333	1.552498	0.960614
C113	C	0.159337	1.052514	0.539413
C114	C	0.659337	1.552514	1.039413
C115	C	0.096094	1.064593	0.578828
C116	C	0.596094	1.564593	1.078828
C117	C	0.032846	1.076677	0.539435
C118	C	0.532846	1.576677	1.039435
C119	C	0.032843	1.076667	0.460635
C120	C	0.532843	1.576667	0.960635
C121	C	0.096094	1.064572	0.421228
C122	C	0.596094	1.564572	0.921228
C123	C	0.048949	1.126105	0.703667
C124	C	0.548949	1.626105	1.203667
C125	C	0.048945	1.126104	0.782471
C126	C	0.548945	1.626104	1.282471
C127	C	0.143239	1.003106	0.782472
C128	C	0.643239	1.503106	1.282472
C129	C	0.143237	1.003102	0.703670
C130	C	0.643237	1.503102	1.203670
C131	C	0.096093	1.064607	0.664273
C132	C	0.596093	1.564607	1.164273
H133	H	-0.022015	0.358204	0.000029
H134	H	0.477985	0.858204	0.500029
H135	H	-0.114718	1.070127	-0.123773
H136	H	0.385282	1.570127	0.376227
H137	H	0.181624	0.953037	0.814555
H138	H	0.681624	1.453037	1.314555
H139	H	0.010560	1.176183	0.671588
H140	H	0.510560	1.676183	1.171588
H141	H	-0.693110	1.059037	0.123819
H142	H	-0.193110	1.559037	0.623819
H143	H	-0.246195	1.067554	0.123840
H144	H	0.253805	1.567554	0.623840
H145	H	0.272895	0.448318	0.000027
H146	H	0.772895	0.948318	0.500027
H147	H	-0.083210	0.510239	0.000021
H148	H	0.416790	1.010239	0.500021
H149	H	-0.015375	0.810890	0.000014
H150	H	0.484625	1.310890	0.500014
H151	H	-0.246151	1.067611	-0.123779
H152	H	0.253849	1.567611	0.376221
H153	H	-0.561672	1.061550	0.123828
H154	H	-0.061672	1.561550	0.623828
H155	H	0.207553	0.318275	0.000035
H156	H	0.707553	0.818275	0.500035
H157	H	0.010557	1.176184	0.814545
H158	H	0.510557	1.676184	1.314545
H159	H	-0.080708	0.680847	0.000020
H160	H	0.419292	1.180847	0.500020
H161	H	-0.479208	1.159134	0.094872
H162	H	0.020792	1.659134	0.594872
H163	H	0.275379	0.618911	0.000026
H164	H	0.775379	1.118911	0.500026
H165	H	-0.347775	1.161633	0.094885
H166	H	0.152225	1.661633	0.594885
H167	H	0.214179	0.770959	0.000019
H168	H	0.714179	1.270959	0.500019
H169	H	-0.328611	0.970046	-0.094830
H170	H	0.171389	1.470046	0.405170
H171	H	0.181610	0.952962	0.185504
H172	H	0.681610	1.452962	0.685504
H173	H	-0.460051	0.967539	-0.094833
H174	H	0.039949	1.467539	0.405167
H175	H	0.181613	0.952989	0.328467
H176	H	0.681613	1.452989	0.828467
H177	H	-0.114752	1.070045	0.123855
H178	H	0.385248	1.570045	0.623855
H179	H	-0.561632	1.061609	-0.123799
H180	H	-0.061632	1.561609	0.376201
H181	H	0.010554	1.176131	0.185499
H182	H	0.510554	1.676131	0.685499
H183	H	0.010553	1.176142	0.328456
H184	H	0.510553	1.676142	0.828456
H185	H	-0.693065	1.059091	-0.123804
H186	H	-0.193065	1.559091	0.376196
H187	H	-0.018656	1.086503	0.428565
H188	H	0.481344	1.586503	0.928565
H189	H	-0.018652	1.086513	0.571526
H190	H	0.481348	1.586513	1.071526
H191	H	0.181624	0.953025	0.671594
H192	H	0.681624	1.453025	1.171594
H193	H	0.210838	1.042681	0.571480
H194	H	0.710838	1.542681	1.071480
H195	H	0.210836	1.042645	0.428528
H196	H	0.710836	1.542645	0.928528
