data_functionalizedCrystal
_audit_creation_method	'MofGen! by Chris Wilmer'
_symmetry_space_group_name_H-M	'P1'
_symmetry_Int_Tables_number	1
_symmetry_cell_setting	triclinic
loop_
_symmetry_equiv_pos_as_xyz
  x,y,z
_cell_length_a	12.759401
_cell_length_b	18.215405
_cell_length_c	12.759393
_cell_angle_alpha	89.962431
_cell_angle_beta	89.981504
_cell_angle_gamma	90.025046
loop_
_atom_site_label
_atom_site_type_symbol
_atom_site_fract_x
_atom_site_fract_y
_atom_site_fract_z
Zn1	Zn	1.606181	-0.292938	-0.593937
Zn2	Zn	1.939514	0.040396	-0.260604
Zn3	Zn	2.272848	0.373729	0.072729
Zn4	Zn	1.606044	-0.416024	-0.418239
Zn5	Zn	1.939377	-0.082691	-0.084906
Zn6	Zn	2.272711	0.250643	0.248427
Zn7	Zn	1.430483	-0.292976	-0.418277
Zn8	Zn	1.763816	0.040357	-0.084944
Zn9	Zn	2.097150	0.373690	0.248390
Zn10	Zn	1.430440	-0.415967	-0.593881
Zn11	Zn	1.763774	-0.082634	-0.260547
Zn12	Zn	2.097107	0.250699	0.072786
O13	O	1.518287	-0.354476	-0.506084
O14	O	1.851620	-0.021143	-0.172750
O15	O	2.184954	0.312190	0.160583
O16	O	1.753184	-0.309273	-0.570639
O17	O	2.086517	0.024060	-0.237305
O18	O	2.419851	0.357394	0.096028
O19	O	1.582716	-0.399741	-0.271223
O20	O	1.916049	-0.066408	0.062110
O21	O	2.249383	0.266925	0.395444
O22	O	1.453865	-0.189987	-0.441618
O23	O	1.787198	0.143346	-0.108285
O24	O	2.120531	0.476680	0.225048
O25	O	1.753083	-0.399704	-0.441554
O26	O	2.086417	-0.066371	-0.108221
O27	O	2.419750	0.266963	0.225113
O28	O	1.582949	-0.189959	-0.570675
O29	O	1.916283	0.143375	-0.237342
O30	O	2.249616	0.476708	0.095991
O31	O	1.453732	-0.309339	-0.271251
O32	O	1.787065	0.023995	0.062083
O33	O	2.120399	0.357328	0.395416
O34	O	1.283456	-0.309284	-0.441563
O35	O	1.616790	0.024050	-0.108230
O36	O	1.950123	0.357383	0.225104
O37	O	1.453792	-0.399607	-0.740909
O38	O	1.787126	-0.066274	-0.407576
O39	O	2.120459	0.267059	-0.074243
O40	O	1.283425	-0.399645	-0.570578
O41	O	1.616758	-0.066311	-0.237245
O42	O	1.950092	0.267022	0.096088
O43	O	1.582908	-0.309218	-0.740951
O44	O	1.916241	0.024115	-0.407618
O45	O	2.249575	0.357449	-0.074284
O46	O	1.582675	-0.519001	-0.441499
O47	O	1.916008	-0.185668	-0.108166
O48	O	2.249341	0.147666	0.225168
O49	O	1.453660	-0.518959	-0.570542
O50	O	1.786993	-0.185626	-0.237209
O51	O	2.120326	0.147707	0.096125
C52	C	1.245320	-0.354463	-0.506069
C53	C	1.578653	-0.021129	-0.172736
C54	C	1.911986	0.312204	0.160597
C55	C	1.128543	-0.354475	-0.506088
C56	C	1.461876	-0.021141	-0.172755
C57	C	1.795210	0.312192	0.160579
C58	C	1.073692	-0.401601	-0.573155
C59	C	1.407026	-0.068268	-0.239822
C60	C	1.740359	0.265066	0.093511
C61	C	0.963968	-0.401610	-0.573167
C62	C	1.297302	-0.068277	-0.239833
C63	C	1.630635	0.265056	0.093500
C64	C	0.963956	-0.307365	-0.439035
C65	C	1.297289	0.025968	-0.105701
C66	C	1.630622	0.359302	0.227632
C67	C	1.073678	-0.307353	-0.439029
C68	C	1.407011	0.025981	-0.105696
C69	C	1.740344	0.359314	0.227637
C70	C	1.073699	-0.456015	-0.650592
C71	C	1.407032	-0.122682	-0.317259
C72	C	1.740365	0.210651	0.016074
C73	C	0.963975	-0.456025	-0.650604
C74	C	1.297308	-0.122691	-0.317270
C75	C	1.630641	0.210642	0.016063
C76	C	1.518176	-0.545683	-0.506033
C77	C	1.851510	-0.212349	-0.172700
C78	C	2.184843	0.120984	0.160634
C79	C	1.518225	-0.627482	-0.506047
C80	C	1.851558	-0.294148	-0.172713
C81	C	2.184892	0.039185	0.160620
C82	C	1.585561	-0.815673	-0.438977
C83	C	1.918894	-0.482339	-0.105644
C84	C	2.252228	-0.149006	0.227689
C85	C	1.585608	-0.892531	-0.439003
C86	C	1.918941	-0.559198	-0.105670
C87	C	2.252274	-0.225865	0.227664
C88	C	1.451148	-0.892528	-0.573265
C89	C	1.784481	-0.559195	-0.239932
C90	C	2.117814	-0.225861	0.093401
C91	C	1.451107	-0.815671	-0.573244
C92	C	1.784440	-0.482337	-0.239911
C93	C	2.117774	-0.149004	0.093422
C94	C	1.518312	-0.777245	-0.506094
C95	C	1.851645	-0.443912	-0.172761
C96	C	2.184979	-0.110578	0.160572
C97	C	1.518400	-0.930961	-0.506141
C98	C	1.851733	-0.597628	-0.172807
C99	C	2.185066	-0.264294	0.160526
C100	C	1.518450	-1.014295	-0.506169
C101	C	1.851784	-0.680961	-0.172836
C102	C	2.185117	-0.347628	0.160498
C103	C	1.518263	-0.693906	-0.506067
C104	C	1.851596	-0.360573	-0.172734
C105	C	2.184930	-0.027239	0.160599
C106	C	1.792320	-0.354491	-0.506098
C107	C	2.125654	-0.021157	-0.172765
C108	C	2.458987	0.312176	0.160568
C109	C	1.909097	-0.354497	-0.506105
C110	C	2.242430	-0.021163	-0.172772
C111	C	2.575764	0.312170	0.160562
C112	C	1.518361	-0.354402	-0.780117
C113	C	1.851694	-0.021069	-0.446784
C114	C	2.185027	0.312265	-0.113450
C115	C	1.518392	-0.354370	-0.896894
C116	C	1.851725	-0.021037	-0.563560
C117	C	2.185059	0.312296	-0.230227
C118	C	1.518427	-0.162523	-0.506157
C119	C	1.851760	0.170810	-0.172824
C120	C	2.185094	0.504143	0.160509
C121	C	1.518487	-0.080724	-0.506189
C122	C	1.851820	0.252609	-0.172855
C123	C	2.185153	0.585942	0.160478
C124	C	1.585632	-0.307300	-0.951779
C125	C	1.918965	0.026033	-0.618446
C126	C	2.252299	0.359366	-0.285113
C127	C	1.585657	-0.307274	-1.061503
C128	C	1.918990	0.026060	-0.728170
C129	C	2.252324	0.359393	-0.394837
C130	C	1.451199	-0.401394	-1.061447
C131	C	1.784533	-0.068061	-0.728114
C132	C	2.117866	0.265273	-0.394780
C133	C	1.451170	-0.401416	-0.951725
C134	C	1.784503	-0.068083	-0.618391
C135	C	2.117836	0.265250	-0.285058
C136	C	1.663263	-0.252963	-0.951813
C137	C	1.996597	0.080370	-0.618479
C138	C	2.329930	0.413704	-0.285146
C139	C	1.663288	-0.252936	-1.061537
C140	C	1.996622	0.080397	-0.728204
C141	C	2.329955	0.413730	-0.394870
C142	C	1.518274	-0.354497	-0.233116
C143	C	1.851608	-0.021164	0.100217
C144	C	2.184941	0.312169	0.433550
C145	C	1.518447	-0.354322	-0.116340
C146	C	1.851780	-0.020988	0.216993
C147	C	2.185113	0.312345	0.550327
H148	H	1.107699	-0.510128	-0.621300
H149	H	1.441033	-0.176795	-0.287966
H150	H	1.774366	0.156538	0.045367
F151	F	1.379590	-0.451504	-0.893315
F152	F	1.712923	-0.118171	-0.559982
F153	F	2.046256	0.215162	-0.226649
F154	F	1.634829	-0.178470	-0.912926
F155	F	1.968162	0.154863	-0.579592
F156	F	2.301496	0.488196	-0.246259
F157	F	1.764256	-0.279665	-0.907316
F158	F	2.097589	0.053668	-0.573983
F159	F	2.430923	0.387001	-0.240649
F160	F	1.625135	-0.182188	-1.106056
F161	F	1.958468	0.151145	-0.772723
F162	F	2.291802	0.484479	-0.439390
F163	F	1.379626	-0.933430	-0.644725
F164	F	1.712959	-0.600096	-0.311391
F165	F	2.046292	-0.266763	0.021942
H166	H	1.744655	-0.268201	-1.091313
H167	H	2.077988	0.065132	-0.757980
H168	H	2.411322	0.398465	-0.424646
F169	F	1.657186	-0.933426	-0.367570
F170	F	1.990519	-0.600092	-0.034237
F171	F	2.323853	-0.266759	0.299096
F172	F	0.919538	-0.429433	-0.751709
F173	F	1.252872	-0.096100	-0.418376
F174	F	1.586205	0.237234	-0.085042
F175	F	1.379532	-0.774771	-0.644688
F176	F	1.712866	-0.441437	-0.311355
F177	F	2.046199	-0.108104	0.021979
F178	F	1.379660	-0.451460	-1.119811
F179	F	1.712993	-0.118127	-0.786478
F180	F	2.046327	0.215206	-0.453144
H181	H	1.118333	-0.268973	-0.384424
H182	H	1.451666	0.064360	-0.051091
H183	H	1.785000	0.397694	0.282243
H184	H	0.919271	-0.268999	-0.384439
H185	H	1.252604	0.064334	-0.051106
H186	H	1.585937	0.397668	0.282228
H187	H	1.103511	-0.440815	-0.732001
H188	H	1.436844	-0.107482	-0.398668
H189	H	1.770178	0.225851	-0.065335
H190	H	0.934165	-0.513008	-0.628663
H191	H	1.267498	-0.179674	-0.295329
H192	H	1.600831	0.153659	0.038004
F193	F	1.657088	-0.774780	-0.367512
F194	F	1.990421	-0.441446	-0.034179
F195	F	2.323754	-0.108113	0.299154
