data_functionalizedCrystal
_audit_creation_method	'MofGen! by Chris Wilmer'
_symmetry_space_group_name_H-M	'P1'
_symmetry_Int_Tables_number	1
_symmetry_cell_setting	triclinic
loop_
_symmetry_equiv_pos_as_xyz
  x,y,z
_cell_length_a	16.109301
_cell_length_b	10.654550
_cell_length_c	14.586319
_cell_angle_alpha	89.995807
_cell_angle_beta	90.001418
_cell_angle_gamma	96.026794
loop_
_atom_site_label
_atom_site_type_symbol
_atom_site_fract_x
_atom_site_fract_y
_atom_site_fract_z
O1	O	1.104091	-0.161420	0.076182
O2	O	0.862149	-0.181508	0.076197
O3	O	0.988683	0.011351	0.076183
O4	O	0.977557	-0.354279	0.076195
O5	O	0.988672	0.011355	-0.076298
O6	O	0.862138	-0.181504	-0.076284
O7	O	1.104081	-0.161415	-0.076299
Cu8	Cu	0.983109	-0.171459	-0.090214
Cu9	Cu	0.983121	-0.171464	0.090112
O10	O	0.977547	-0.354274	-0.076285
C11	C	0.831164	-0.180692	-0.000042
C12	C	0.738854	-0.178253	-0.000037
N13	N	0.983106	-0.171454	-0.217046
C14	C	0.987861	0.058140	-0.000057
C15	C	0.985417	0.197550	-0.000055
C16	C	0.517228	-0.287019	-0.000044
C17	C	0.430494	-0.284717	-0.000049
C18	C	0.449008	-0.055896	-0.000053
C19	C	0.535741	-0.058199	-0.000054
C20	C	0.569848	-0.173764	-0.000044
C21	C	0.396382	-0.169159	-0.000050
C22	C	0.302341	-0.166662	-0.000056
C23	C	0.663895	-0.176262	-0.000040
C24	C	1.135066	-0.162231	-0.000058
C25	C	1.227376	-0.164671	-0.000058
C26	C	0.978369	-0.401063	-0.000043
C27	C	0.980813	-0.540473	-0.000039
C28	C	1.059918	0.278046	-0.000059
C29	C	1.057616	0.409036	-0.000048
C30	C	0.906306	0.379020	-0.000032
C31	C	0.908608	0.248033	-0.000037
C32	C	1.039158	-0.086084	-0.548046
C33	C	1.039156	-0.086085	-0.452064
C34	C	0.927076	-0.256838	-0.452063
C35	C	0.927083	-0.256843	-0.548043
C36	C	0.983122	-0.171459	-0.596031
C37	C	0.983114	-0.171455	-0.404071
C38	C	0.983111	-0.171456	-0.300004
C39	C	0.983126	-0.171459	-0.700105
N40	N	0.983130	-0.171459	0.216944
H41	H	0.544996	-0.381119	-0.000043
O42	O	1.093674	-0.003101	-0.594521
C43	C	1.143116	0.072274	-0.531580
H44	H	1.144350	0.020784	-0.463160
H45	H	1.115579	0.165573	-0.521379
C46	C	1.231137	0.161373	-0.653066
C47	C	1.232659	0.098127	-0.569034
H48	H	1.286371	0.177327	-0.676170
H49	H	1.197826	0.110596	-0.695472
H50	H	1.208186	0.239115	-0.644554
H51	H	1.255601	0.020381	-0.577550
H52	H	1.265977	0.148893	-0.526631
H53	H	0.387654	-0.376940	-0.000051
O54	O	0.415736	0.056248	-0.000014
C55	C	0.327900	0.033999	-0.000034
H56	H	0.308100	-0.064013	0.028834
H57	H	0.303723	0.040083	-0.073186
C58	C	0.315679	0.254256	0.024308
C59	C	0.291359	0.133880	0.059772
H60	H	0.293137	0.315870	0.061195
H61	H	0.374855	0.269248	0.024318
H62	H	0.295529	0.259308	-0.036652
H63	H	0.311518	0.128825	0.120725
H64	H	0.232185	0.118890	0.059773
H65	H	0.578586	0.034032	-0.000057
H66	H	1.122460	0.236948	-0.000072
H67	H	1.084786	-0.016567	-0.412997
H68	H	1.118283	0.474572	-0.000049
O69	O	0.872666	-0.339646	-0.405303
C70	C	0.884686	-0.321355	-0.310298
H71	H	0.915184	-0.221523	-0.297195
H72	H	0.926790	-0.392453	-0.283048
C73	C	0.762288	-0.462804	-0.277126
C74	C	0.799739	-0.340185	-0.261032
H75	H	0.709889	-0.474424	-0.246735
H76	H	0.754191	-0.475131	-0.341132
H77	H	0.797382	-0.522038	-0.254417
H78	H	0.764649	-0.280953	-0.283751
H79	H	0.807828	-0.327848	-0.197028
H80	H	0.847937	0.182489	-0.000031
O81	O	0.872530	-0.339654	-0.594621
C82	C	0.790111	-0.319230	-0.571166
H83	H	0.789120	-0.218685	-0.544788
H84	H	0.766088	-0.388829	-0.515454
C85	C	0.735088	-0.462217	-0.688834
C86	C	0.733869	-0.338721	-0.656443
H87	H	0.700393	-0.474245	-0.741435
H88	H	0.790614	-0.475981	-0.704634
H89	H	0.715070	-0.520202	-0.642399
H90	H	0.753896	-0.280740	-0.702874
H91	H	0.678344	-0.324947	-0.640653
O92	O	0.831770	0.428271	-0.000064
C93	C	0.845711	0.561145	-0.000041
H94	H	0.910413	0.591937	-0.028912
H95	H	0.841477	0.597598	0.073113
C96	C	0.699791	0.577636	-0.024372
C97	C	0.779256	0.615455	-0.059841
H98	H	0.658797	0.611138	-0.061256
H99	H	0.690397	0.488116	-0.024385
H100	H	0.696274	0.608015	0.036588
H101	H	0.782775	0.585062	-0.120795
H102	H	0.788649	0.704971	-0.059840
