data_functionalizedCrystal
_audit_creation_method	'MofGen! by Chris Wilmer'
_symmetry_space_group_name_H-M	'P1'
_symmetry_Int_Tables_number	1
_symmetry_cell_setting	triclinic
loop_
_symmetry_equiv_pos_as_xyz
  x,y,z
_cell_length_a	8.559649
_cell_length_b	8.597249
_cell_length_c	7.088929
_cell_angle_alpha	91.318776
_cell_angle_beta	84.675669
_cell_angle_gamma	102.374876
loop_
_atom_site_label
_atom_site_type_symbol
_atom_site_fract_x
_atom_site_fract_y
_atom_site_fract_z
O1	O	-2.102603	-0.034421	-0.164659
O2	O	-1.639988	0.044992	-0.151578
O3	O	-1.876664	-0.220062	-0.195236
O4	O	-1.865927	0.230632	-0.121002
O5	O	-1.908291	-0.255555	0.116894
O6	O	-1.671615	0.009499	0.160551
O7	O	-2.134230	-0.069914	0.147470
Cu8	Cu	-1.905810	-0.033449	0.182510
Cu9	Cu	-1.868408	0.008526	-0.186618
O10	O	-1.897554	0.195139	0.191127
C11	C	-1.596468	0.033263	0.005477
C12	C	-1.419672	0.051177	0.008428
C13	C	-1.889562	-0.294972	-0.048591
C14	C	-1.880854	-0.465301	-0.076658
C15	C	-1.177750	-0.058186	-0.009586
C16	C	-1.354546	-0.076099	-0.012538
C17	C	-1.884656	0.270050	0.044478
C18	C	-1.893362	0.440380	0.072533
N19	N	-1.932129	-0.062974	0.442135
N20	N	-1.842101	0.038037	-0.446246
H21	H	-1.434041	-0.198770	-0.032753
O22	O	-1.916359	-0.493994	0.270165
H23	H	-1.919798	-0.366017	0.261927
H24	H	-1.863500	-0.514868	-0.225857
H25	H	-2.025450	-0.167649	0.506550
O26	O	-1.718480	0.176672	0.468437
H27	H	-1.778998	0.253491	0.389851
O28	O	-1.314381	0.213688	0.035210
H29	H	-1.187383	0.202734	0.033422
