data_functionalizedCrystal
_audit_creation_method	'MofGen! by Chris Wilmer'
_symmetry_space_group_name_H-M	'P1'
_symmetry_Int_Tables_number	1
_symmetry_cell_setting	triclinic
loop_
_symmetry_equiv_pos_as_xyz
  x,y,z
_cell_length_a	23.532407
_cell_length_b	23.532407
_cell_length_c	22.010155
_cell_angle_alpha	89.999577
_cell_angle_beta	89.996931
_cell_angle_gamma	82.848678
loop_
_atom_site_label
_atom_site_type_symbol
_atom_site_fract_x
_atom_site_fract_y
_atom_site_fract_z
O1	O	0.755264	0.069127	-0.050455
O2	O	0.589400	0.079130	-0.050474
O3	O	0.677334	-0.008803	-0.050453
O4	O	0.667330	0.157060	-0.050476
O5	O	0.677318	-0.008790	0.050597
O6	O	0.589384	0.079143	0.050576
O7	O	0.755248	0.069140	0.050595
Cu8	Cu	0.672315	0.074143	0.059812
Cu9	Cu	0.672333	0.074127	-0.059691
O10	O	0.667314	0.157073	0.050574
C11	C	0.568176	0.078882	0.000049
C12	C	0.504959	0.078116	0.000042
C13	C	0.105856	0.125350	0.000063
C14	C	0.046456	0.124638	0.000067
O15	O	0.009711	0.168424	0.000083
N16	N	0.023830	0.072362	0.000073
C17	C	0.060607	0.020794	0.000082
O18	O	0.035908	-0.023737	0.000088
C19	C	0.120006	0.021506	0.000082
C20	C	0.142629	0.073785	0.000070
C21	C	0.128479	0.177625	0.000051
C22	C	0.187876	0.178336	0.000046
C23	C	0.224649	0.126772	0.000053
C24	C	0.202025	0.074497	0.000065
C25	C	0.156783	-0.030062	0.000096
C26	C	0.216185	-0.029345	0.000097
C27	C	0.238808	0.022934	0.000084
C28	C	0.298194	0.023643	0.000067
N29	N	0.320820	0.075920	0.000061
C30	C	0.284048	0.127484	0.000054
C31	C	-0.064135	0.019302	0.000082
C32	C	-0.123533	0.018589	0.000077
C33	C	-0.137680	0.122434	0.000063
C34	C	-0.078281	0.123146	0.000064
C35	C	-0.041509	0.071578	0.000076
C36	C	0.408784	0.128974	0.000043
C37	C	0.468186	0.129680	0.000035
C38	C	0.482329	0.025836	0.000052
C39	C	0.422932	0.025129	0.000057
C40	C	0.386160	0.076702	0.000054
O41	O	0.334974	-0.020119	0.000054
O42	O	0.308755	0.172007	0.000055
C43	C	0.677071	-0.030013	0.000074
C44	C	0.676305	-0.093230	0.000078
C45	C	0.723539	-0.492333	0.000050
C46	C	0.722827	-0.551733	0.000046
O47	O	0.766613	-0.588478	0.000028
N48	N	0.670551	-0.574359	0.000040
C49	C	0.618983	-0.537582	0.000033
O50	O	0.574452	-0.562281	0.000027
C51	C	0.619695	-0.478182	0.000033
C52	C	0.671974	-0.455560	0.000045
C53	C	0.775814	-0.469710	0.000061
C54	C	0.776525	-0.410313	0.000067
C55	C	0.724961	-0.373540	0.000062
C56	C	0.672685	-0.396164	0.000051
C57	C	0.568127	-0.441406	0.000022
C58	C	0.568844	-0.382004	0.000022
C59	C	0.621123	-0.359381	0.000034
C60	C	0.621832	-0.299995	0.000052
N61	N	0.674109	-0.277368	0.000057
C62	C	0.725673	-0.314141	0.000062
C63	C	0.617491	-0.662324	0.000031
C64	C	0.616778	-0.721722	0.000035
C65	C	0.720623	-0.735869	0.000047
C66	C	0.721335	-0.676470	0.000047
C67	C	0.669767	-0.639698	0.000037
C68	C	0.727163	-0.189405	0.000075
C69	C	0.727869	-0.130003	0.000083
C70	C	0.624025	-0.115860	0.000069
C71	C	0.623318	-0.175257	0.000064
C72	C	0.674891	-0.212029	0.000065
O73	O	0.578070	-0.263215	0.000067
O74	O	0.770196	-0.289433	0.000060
C75	C	0.776472	0.069388	0.000071
C76	C	0.839689	0.070154	0.000073
C77	C	0.667577	0.178283	0.000046
C78	C	0.668343	0.241500	0.000037
N79	N	0.672305	0.074153	0.143865
N80	N	0.672347	0.074112	-0.143744
C81	C	0.711273	0.035196	0.563653
C82	C	0.711275	0.035192	0.627261
O83	O	0.744384	0.002076	0.660160
N84	N	0.672333	0.074115	0.659072
C85	C	0.633382	0.113041	0.627272
O86	O	0.600259	0.146148	0.660170
C87	C	0.633377	0.113042	0.563665
C88	C	0.672326	0.074120	0.531858
C89	C	0.750217	-0.003723	0.531846
C90	C	0.750215	-0.003719	0.468243
C91	C	0.711268	0.035205	0.436447
C92	C	0.672324	0.074125	0.468255
C93	C	0.594424	0.151965	0.531866
C94	C	0.594422	0.151962	0.468256
C95	C	0.633370	0.113040	0.436448
C96	C	0.633374	0.113054	0.372856
N97	N	0.672317	0.074130	0.341045
C98	C	0.711263	0.035206	0.372841
C99	C	0.633395	0.113036	0.760850
C100	C	0.633402	0.113039	0.824455
C101	C	0.711294	0.035188	0.824440
C102	C	0.711290	0.035189	0.760833
C103	C	0.672337	0.074113	0.729039
C104	C	0.711256	0.035220	0.239269
C105	C	0.711252	0.035229	0.175660
C106	C	0.633358	0.113077	0.175681
C107	C	0.633364	0.113070	0.239284
C108	C	0.672315	0.074136	0.271077
O109	O	0.600282	0.146151	0.339916
O110	O	0.744376	0.002100	0.339935
H111	H	-0.059867	0.165717	0.000057
Cl112	Cl	0.557594	-0.203698	0.000061
H113	H	0.770443	-0.111587	0.000094
Cl114	Cl	0.502400	-0.469831	0.000004
H115	H	0.601692	0.144738	0.850348
Cl116	Cl	-0.183920	0.187258	0.000058
H117	H	0.769159	-0.219337	0.000073
H118	H	0.763906	-0.658056	0.000056
H119	H	0.575496	-0.632386	0.000028
Cl120	Cl	0.216306	0.244063	0.000035
Cl121	Cl	0.082260	0.242458	0.000041
Cl122	Cl	0.584425	0.161978	0.720885
H123	H	0.781933	-0.035423	0.557728
Cl124	Cl	0.545457	0.200896	0.571840
Cl125	Cl	0.842252	-0.381883	0.000064
H126	H	-0.141947	-0.023982	0.000078
Cl127	Cl	0.504011	-0.335779	0.000009
H128	H	-0.034198	-0.022693	0.000086
Cl129	Cl	0.528568	-0.038984	0.000064
H130	H	0.817806	-0.499645	0.000063
Cl131	Cl	0.760221	-0.013704	0.135677
Cl132	Cl	0.551053	-0.750154	0.000032
H133	H	0.562700	0.183658	0.442372
H134	H	0.601650	0.144771	0.149783
H135	H	0.582043	-0.085909	0.000067
Cl136	Cl	0.760226	-0.013726	0.279227
Cl137	Cl	0.799177	-0.052655	0.428263
H138	H	0.762610	-0.765821	0.000048
Cl139	Cl	0.584404	0.162008	0.279269
H140	H	0.743006	0.003493	0.850339
Cl141	Cl	0.760254	-0.013745	0.720854
Cl142	Cl	0.128358	-0.095789	0.000101
H143	H	0.486602	0.172255	0.000025
Cl144	Cl	0.394491	-0.040595	0.000075
Cl145	Cl	0.262410	-0.094178	0.000113
Cl146	Cl	0.362567	0.193810	0.000038
