data_functionalizedCrystal
_audit_creation_method	'MofGen! by Chris Wilmer'
_symmetry_space_group_name_H-M	'P1'
_symmetry_Int_Tables_number	1
_symmetry_cell_setting	triclinic
loop_
_symmetry_equiv_pos_as_xyz
  x,y,z
_cell_length_a	14.519709
_cell_length_b	13.596369
_cell_length_c	14.519731
_cell_angle_alpha	90.006971
_cell_angle_beta	83.684499
_cell_angle_gamma	89.999709
loop_
_atom_site_label
_atom_site_type_symbol
_atom_site_fract_x
_atom_site_fract_y
_atom_site_fract_z
O1	O	-1.223878	-0.081666	-0.120892
O2	O	-0.973878	0.168334	0.129108
O3	O	-0.723878	0.418334	0.379108
O4	O	-0.473878	0.668334	0.629108
O5	O	-0.955402	-0.081696	-0.135128
O6	O	-0.705402	0.168304	0.114872
O7	O	-0.455402	0.418304	0.364872
O8	O	-0.205402	0.668304	0.614872
O9	O	-1.096748	-0.081671	0.006227
O10	O	-0.846748	0.168329	0.256227
O11	O	-0.596748	0.418329	0.506227
O12	O	-0.346748	0.668329	0.756227
O13	O	-1.082532	-0.081690	-0.262247
O14	O	-0.832532	0.168310	-0.012247
O15	O	-0.582532	0.418310	0.237753
O16	O	-0.332532	0.668310	0.487753
O17	O	-1.096734	0.081912	0.006235
O18	O	-0.846734	0.331912	0.256235
O19	O	-0.596734	0.581912	0.506235
O20	O	-0.346734	0.831912	0.756235
O21	O	-0.955388	0.081887	-0.135120
O22	O	-0.705388	0.331887	0.114880
O23	O	-0.455388	0.581887	0.364880
O24	O	-0.205388	0.831887	0.614880
O25	O	-1.223864	0.081917	-0.120884
O26	O	-0.973864	0.331917	0.129116
O27	O	-0.723864	0.581917	0.379116
O28	O	-0.473864	0.831917	0.629116
Zn29	Zn	-1.089623	0.107874	-0.128001
Zn30	Zn	-0.839623	0.357874	0.121999
Zn31	Zn	-0.589623	0.607874	0.371999
Zn32	Zn	-0.339623	0.857874	0.621999
Zn33	Zn	-1.089642	-0.107653	-0.128011
Zn34	Zn	-0.839642	0.142347	0.121989
Zn35	Zn	-0.589642	0.392347	0.371989
Zn36	Zn	-0.339642	0.642347	0.621989
O37	O	-1.082518	0.081892	-0.262239
O38	O	-0.832518	0.331892	-0.012239
O39	O	-0.582518	0.581892	0.237761
O40	O	-0.332518	0.831892	0.487761
C41	C	-0.921035	0.000092	-0.134461
C42	C	-0.671035	0.250092	0.115539
C43	C	-0.421035	0.500092	0.365539
C44	C	-0.171035	0.750092	0.615539
C45	C	-0.818654	0.000080	-0.132473
C46	C	-0.568654	0.250080	0.117527
C47	C	-0.318654	0.500080	0.367527
C48	C	-0.068654	0.750080	0.617527
N49	N	-1.089617	0.254966	-0.127994
N50	N	-0.839617	0.504966	0.122006
N51	N	-0.589617	0.754966	0.372006
N52	N	-0.339617	1.004966	0.622006
C53	C	-1.096075	0.000121	0.040591
C54	C	-0.846075	0.250121	0.290591
C55	C	-0.596075	0.500121	0.540591
C56	C	-0.346075	0.750121	0.790591
C57	C	-1.094079	0.000121	0.142971
C58	C	-0.844079	0.250121	0.392971
C59	C	-0.594079	0.500121	0.642971
C60	C	-0.344079	0.750121	0.892971
C61	C	-1.258230	0.000128	-0.121551
C62	C	-1.008230	0.250128	0.128449
C63	C	-0.758230	0.500128	0.378449
C64	C	-0.508230	0.750128	0.628449
C65	C	-1.360612	0.000132	-0.123539
C66	C	-1.110612	0.250132	0.126461
C67	C	-0.860612	0.500132	0.376461
C68	C	-0.610612	0.750132	0.626461
C69	C	-0.443757	0.000126	-0.125153
C70	C	-0.193757	0.250126	0.124847
C71	C	0.056243	0.500126	0.374847
C72	C	0.306243	0.750126	0.624847
C73	C	-0.548065	0.000113	-0.127186
C74	C	-0.298065	0.250113	0.122814
C75	C	-0.048065	0.500113	0.372814
C76	C	0.201935	0.750113	0.622814
C77	C	-0.631202	0.000102	-0.128813
C78	C	-0.381202	0.250102	0.121187
C79	C	-0.131202	0.500102	0.371187
C80	C	0.118798	0.750102	0.621187
C81	C	-0.735517	0.000091	-0.130846
C82	C	-0.485517	0.250091	0.119154
C83	C	-0.235517	0.500091	0.369154
C84	C	0.014483	0.750091	0.619154
N85	N	-1.089655	-0.254745	-0.128011
N86	N	-0.839655	-0.004745	0.121989
N87	N	-0.589655	0.245255	0.371989
N88	N	-0.339655	0.495255	0.621989
C89	C	-1.089641	0.656257	-0.128012
C90	C	-0.839641	0.906257	0.121988
C91	C	-0.589641	1.156257	0.371988
C92	C	-0.339641	1.406257	0.621988
C93	C	-1.089632	0.544606	-0.128010
C94	C	-0.839632	0.794606	0.121990
C95	C	-0.589632	1.044606	0.371990
C96	C	-0.339632	1.294606	0.621990
C97	C	-1.089630	0.455615	-0.128004
C98	C	-0.839630	0.705615	0.121996
C99	C	-0.589630	0.955615	0.371996
C100	C	-0.339630	1.205615	0.621996
C101	C	-1.089619	0.343957	-0.128000
C102	C	-0.839619	0.593957	0.122000
C103	C	-0.589619	0.843957	0.372000
C104	C	-0.339619	1.093957	0.622000
C105	C	-1.083191	0.000099	-0.296603
C106	C	-0.833191	0.250099	-0.046603
C107	C	-0.583191	0.500099	0.203397
C108	C	-0.333191	0.750099	0.453397
C109	C	-1.085187	0.000092	-0.398983
C110	C	-0.835187	0.250092	-0.148983
C111	C	-0.585187	0.500092	0.101017
C112	C	-0.335187	0.750092	0.351017
C113	C	-1.092457	0.000119	0.226115
C114	C	-0.842457	0.250119	0.476115
C115	C	-0.592457	0.500119	0.726115
C116	C	-0.342457	0.750119	0.976115
C117	C	-1.090430	0.000111	0.330424
C118	C	-0.840430	0.250111	0.580424
C119	C	-0.590430	0.500111	0.830424
C120	C	-0.340430	0.750111	1.080424
C121	C	-1.088822	0.000104	0.413563
C122	C	-0.838822	0.250104	0.663563
C123	C	-0.588822	0.500104	0.913563
C124	C	-0.338822	0.750104	1.163563
C125	C	-1.086795	0.000098	0.517878
C126	C	-0.836795	0.250098	0.767878
C127	C	-0.586795	0.500098	1.017878
C128	C	-0.336795	0.750098	1.267878
