data_functionalizedCrystal
_audit_creation_method	'MofGen! by Chris Wilmer'
_symmetry_space_group_name_H-M	'P1'
_symmetry_Int_Tables_number	1
_symmetry_cell_setting	triclinic
loop_
_symmetry_equiv_pos_as_xyz
  x,y,z
_cell_length_a	16.992695
_cell_length_b	16.109301
_cell_length_c	16.053802
_cell_angle_alpha	87.422229
_cell_angle_beta	87.258926
_cell_angle_gamma	92.935148
loop_
_atom_site_label
_atom_site_type_symbol
_atom_site_fract_x
_atom_site_fract_y
_atom_site_fract_z
O1	O	0.097485	-1.113143	0.069377
O2	O	0.430818	-0.779809	0.402710
O3	O	0.764152	-0.446476	0.736044
O4	O	0.110027	-0.871918	0.069390
O5	O	0.443360	-0.538585	0.402724
O6	O	0.776693	-0.205252	0.736057
O7	O	-0.010386	-0.991563	0.069377
O8	O	0.322947	-0.658230	0.402710
O9	O	0.656280	-0.324897	0.736044
O10	O	0.217898	-0.993498	0.069390
O11	O	0.551231	-0.660165	0.402723
O12	O	0.884565	-0.326831	0.736057
O13	O	-0.003786	-0.984976	-0.069481
O14	O	0.329548	-0.651643	0.263852
O15	O	0.662881	-0.318309	0.597185
O16	O	0.116627	-0.865331	-0.069468
O17	O	0.449961	-0.531998	0.263865
O18	O	0.783294	-0.198664	0.597199
O19	O	0.104086	-1.106555	-0.069481
O20	O	0.437419	-0.773222	0.263852
O21	O	0.770752	-0.439889	0.597185
Zn22	Zn	0.111404	-0.984897	-0.091521
Zn23	Zn	0.444738	-0.651564	0.241812
Zn24	Zn	0.778071	-0.318231	0.575145
Zn25	Zn	0.102708	-0.993576	0.091430
Zn26	Zn	0.436041	-0.660243	0.424764
Zn27	Zn	0.769375	-0.326910	0.758097
O28	O	0.224499	-0.986911	-0.069468
O29	O	0.557832	-0.653577	0.263865
O30	O	0.891165	-0.320244	0.597199
C31	C	0.112819	-0.837616	-0.000037
C32	C	0.446152	-0.504283	0.333296
C33	C	0.779486	-0.170949	0.666629
C34	C	0.111296	-0.745219	-0.000032
C35	C	0.444629	-0.411886	0.333301
C36	C	0.777962	-0.078553	0.666634
C37	C	-0.036298	-0.985782	-0.000052
C38	C	0.297035	-0.652448	0.333281
C39	C	0.630369	-0.319115	0.666615
C40	C	-0.123340	-0.978358	-0.000051
C41	C	0.209993	-0.645025	0.333282
C42	C	0.543327	-0.311691	0.666615
C43	C	0.101293	-1.140858	-0.000052
C44	C	0.434627	-0.807525	0.333281
C45	C	0.767960	-0.474191	0.666615
C46	C	0.102817	-1.233255	-0.000051
C47	C	0.436150	-0.899922	0.333282
C48	C	0.769483	-0.566588	0.666615
C49	C	-0.173599	-1.049984	-0.000056
C50	C	0.159735	-0.716651	0.333277
C51	C	0.493068	-0.383317	0.666611
C52	C	-0.255384	-1.043004	-0.000048
C53	C	0.077949	-0.709671	0.333286
C54	C	0.411283	-0.376338	0.666619
C55	C	-0.286909	-0.964398	-0.000041
C56	C	0.046425	-0.631064	0.333293
C57	C	0.379758	-0.297731	0.666626
C58	C	-0.236644	-0.892767	-0.000033
C59	C	0.096690	-0.559433	0.333300
C60	C	0.430023	-0.226100	0.666633
C61	C	-0.154860	-0.899747	-0.000036
C62	C	0.178473	-0.566414	0.333298
C63	C	0.511806	-0.233081	0.666631
C64	C	-0.530500	-0.935466	-0.000028
C65	C	-0.197166	-0.602132	0.333306
C66	C	0.136167	-0.268799	0.666639
C67	C	-0.612289	-0.928490	-0.000028
C68	C	-0.278956	-0.595157	0.333306
C69	C	0.054377	-0.261824	0.666639
C70	C	-0.631024	-1.078729	-0.000041
C71	C	-0.297691	-0.745395	0.333293
C72	C	0.035643	-0.412062	0.666626
C73	C	-0.549238	-1.085702	-0.000048
C74	C	-0.215905	-0.752369	0.333285
C75	C	0.117429	-0.419036	0.666619
C76	C	-0.498980	-1.014071	-0.000036
C77	C	-0.165647	-0.680738	0.333297
C78	C	0.167686	-0.347405	0.666630
N79	N	-0.370506	-0.957261	-0.000035
N80	N	-0.037173	-0.623928	0.333299
N81	N	0.296161	-0.290595	0.666632
N82	N	-0.415385	-1.021209	-0.000036
N83	N	-0.082052	-0.687875	0.333297
N84	N	0.251282	-0.354542	0.666631
C85	C	0.250410	-0.992692	-0.000037
C86	C	0.583743	-0.659359	0.333296
C87	C	0.917077	-0.326026	0.666629
C88	C	0.337452	-1.000116	-0.000033
C89	C	0.670785	-0.666783	0.333301
C90	C	1.004119	-0.333449	0.666634
N91	N	0.117339	-0.978980	-0.216381
N92	N	0.450672	-0.645647	0.116952
N93	N	0.784006	-0.312313	0.450286
C94	C	0.179205	-0.527478	-0.000038
C95	C	0.512538	-0.194145	0.333295
C96	C	0.845872	0.139188	0.666629
C97	C	0.177768	-0.440662	-0.000043
C98	C	0.511101	-0.107328	0.333290
C99	C	0.844435	0.226005	0.666623
C100	C	0.034902	-0.451002	-0.000048
C101	C	0.368235	-0.117669	0.333285
C102	C	0.701568	0.215664	0.666618
C103	C	0.036340	-0.537817	-0.000049
C104	C	0.369673	-0.204484	0.333285
C105	C	0.703006	0.128850	0.666618
C106	C	0.108494	-0.576053	-0.000039
C107	C	0.441827	-0.242719	0.333294
C108	C	0.775160	0.090614	0.666627
C109	C	0.105618	-0.402421	-0.000044
C110	C	0.438952	-0.069088	0.333289
C111	C	0.772285	0.264245	0.666622
C112	C	0.104060	-0.308291	-0.000050
C113	C	0.437393	0.025042	0.333283
C114	C	0.770726	0.358376	0.666616
C115	C	0.110053	-0.670189	-0.000035
C116	C	0.443386	-0.336856	0.333298
C117	C	0.776719	-0.003522	0.666632
C118	C	0.066121	-1.029910	-0.260081
C119	C	0.399455	-0.696577	0.073253
C120	C	0.732788	-0.363243	0.406586
C121	C	0.070280	-1.025779	-0.347487
C122	C	0.403614	-0.692446	-0.014154
C123	C	0.736947	-0.359113	0.319180
C124	C	0.125661	-0.970722	-0.391192
C125	C	0.458994	-0.637388	-0.057859
C126	C	0.792328	-0.304055	0.275475
C127	C	0.176881	-0.919786	-0.347486
C128	C	0.510214	-0.586453	-0.014153
C129	C	0.843548	-0.253119	0.319180
C130	C	0.172718	-0.923913	-0.260082
C131	C	0.506051	-0.590580	0.073252
C132	C	0.839385	-0.257247	0.406585
C133	C	0.143824	-0.952692	-0.652600
C134	C	0.477157	-0.619358	-0.319266
C135	C	0.810491	-0.286025	0.014067
C136	C	0.147985	-0.948570	-0.740011
C137	C	0.481318	-0.615237	-0.406677
C138	C	0.814651	-0.281903	-0.073344
C139	C	0.041382	-1.054562	-0.740005
C140	C	0.374716	-0.721229	-0.406672
C141	C	0.708049	-0.387896	-0.073338
C142	C	0.037227	-1.058688	-0.652599
C143	C	0.370561	-0.725355	-0.319265
C144	C	0.703894	-0.392022	0.014068
C145	C	0.088445	-1.007750	-0.608901
C146	C	0.421778	-0.674416	-0.275567
C147	C	0.755111	-0.341083	0.057766
N148	N	0.129915	-0.966500	-0.480535
N149	N	0.463248	-0.633166	-0.147202
N150	N	0.796582	-0.299833	0.186131
N151	N	0.084186	-1.011968	-0.519559
N152	N	0.417520	-0.678634	-0.186226
N153	N	0.750853	-0.345301	0.147108
N154	N	0.096767	-0.999500	0.216290
N155	N	0.430100	-0.666167	0.549623
N156	N	0.763434	-0.332833	0.882957
H157	H	-0.147938	-1.113994	-0.000067
H158	H	0.185395	-0.780660	0.333266
H159	H	0.518729	-0.447327	0.666600
H160	H	0.235349	-0.401116	-0.000044
H161	H	0.568682	-0.067782	0.333289
H162	H	0.902015	0.265551	0.666623
H163	H	-0.296302	-1.101330	-0.000054
H164	H	0.037032	-0.767996	0.333280
H165	H	0.370365	-0.434663	0.666613
H166	H	-0.637952	-0.864476	-0.000035
H167	H	-0.304619	-0.531142	0.333298
H168	H	0.028714	-0.197809	0.666631
H169	H	0.028574	-1.067250	-0.383067
H170	H	0.361908	-0.733916	-0.049733
H171	H	0.695241	-0.400583	0.283600
H172	H	-0.113940	-0.841422	-0.000031
H173	H	0.219393	-0.508089	0.333302
H174	H	0.552727	-0.174755	0.666635
C175	C	-0.686305	-1.157518	-0.000045
C176	C	-0.352971	-0.824184	0.333289
C177	C	-0.019638	-0.490851	0.666622
H178	H	-0.655815	-1.205331	-0.000054
H179	H	-0.322482	-0.871998	0.333279
H180	H	0.010851	-0.538665	0.666613
H181	H	-0.720896	-1.160215	0.048379
H182	H	-0.387563	-0.826882	0.381712
H183	H	-0.054230	-0.493549	0.715045
H184	H	-0.716298	-1.155622	-0.048473
H185	H	-0.382965	-0.822288	0.284860
H186	H	-0.049631	-0.488955	0.618193
C187	C	-0.044463	-0.408944	-0.000048
C188	C	0.288870	-0.075611	0.333285
C189	C	0.622203	0.257722	0.666618
H190	H	-0.086371	-0.450310	-0.000056
H191	H	0.246963	-0.116976	0.333277
H192	H	0.580296	0.216357	0.666610
H193	H	-0.050294	-0.377589	0.048376
H194	H	0.283040	-0.044256	0.381709
H195	H	0.616373	0.289078	0.715042
H196	H	-0.045695	-0.372998	-0.048476
H197	H	0.287639	-0.039664	0.284857
H198	H	0.620972	0.293669	0.618190
H199	H	0.193086	-0.903733	-0.775591
H200	H	0.526419	-0.570400	-0.442258
H201	H	0.859752	-0.237067	-0.108925
C202	C	-0.514567	-1.172170	-0.000045
C203	C	-0.181233	-0.838836	0.333288
C204	C	0.152100	-0.505503	0.666622
H205	H	-0.556214	-1.213830	-0.000038
H206	H	-0.222880	-0.880496	0.333295
H207	H	0.110453	-0.547163	0.666629
H208	H	-0.480752	-1.175722	-0.048466
H209	H	-0.147418	-0.842389	0.284867
H210	H	0.185915	-0.509056	0.618200
H211	H	-0.485354	-1.180307	0.048385
H212	H	-0.152021	-0.846974	0.381719
H213	H	0.181313	-0.513641	0.715052
H214	H	-0.021245	-0.577368	-0.000052
H215	H	0.312088	-0.244035	0.333281
H216	H	0.645421	0.089299	0.666614
C217	C	0.229057	-0.867894	-0.212008
C218	C	0.562390	-0.534561	0.121325
C219	C	0.895724	-0.201227	0.454658
H220	H	0.218641	-0.878231	-0.153694
H221	H	0.551975	-0.544898	0.179639
H222	H	0.885308	-0.211565	0.512972
H223	H	0.282073	-0.879718	-0.226319
H224	H	0.615406	-0.546385	0.107014
H225	H	0.948740	-0.213051	0.440347
H226	H	0.221201	-0.811163	-0.226345
H227	H	0.554534	-0.477830	0.106988
H228	H	0.887868	-0.144497	0.440322
H229	H	0.021028	-1.074747	-0.224502
H230	H	0.354361	-0.741414	0.108832
H231	H	0.687694	-0.408081	0.442165
C232	C	0.200167	-0.896669	-0.604543
C233	C	0.533501	-0.563335	-0.271209
C234	C	0.866834	-0.230002	0.062124
H235	H	0.233751	-0.863296	-0.643093
H236	H	0.567084	-0.529963	-0.309759
H237	H	0.900418	-0.196630	0.023574
H238	H	0.170332	-0.861795	-0.570457
H239	H	0.503665	-0.528461	-0.237124
H240	H	0.836998	-0.195128	0.096209
H241	H	0.231195	-0.930358	-0.570436
H242	H	0.564528	-0.597024	-0.237103
H243	H	0.897861	-0.263691	0.096231
H244	H	-0.007868	-1.103520	-0.617016
H245	H	0.325465	-0.770187	-0.283682
H246	H	0.658799	-0.436854	0.049651
H247	H	-0.000317	-1.096033	-0.775592
H248	H	0.333016	-0.762700	-0.442259
H249	H	0.666350	-0.429367	-0.108925
H250	H	0.221971	-0.874953	-0.383076
H251	H	0.555304	-0.541619	-0.049743
H252	H	0.888637	-0.208286	0.283591
H253	H	-0.489589	-0.877138	-0.000018
H254	H	-0.156256	-0.543805	0.333315
H255	H	0.177077	-0.210472	0.666648
H256	H	-0.262318	-0.828764	-0.000022
H257	H	0.071015	-0.495430	0.333311
H258	H	0.404349	-0.162097	0.666644
C259	C	0.258571	-0.569535	-0.000037
C260	C	0.591904	-0.236202	0.333297
C261	C	0.925237	0.097132	0.666630
H262	H	0.300478	-0.528168	-0.000044
H263	H	0.633811	-0.194835	0.333289
H264	H	0.967144	0.138499	0.666623
H265	H	0.259805	-0.605482	0.048386
H266	H	0.593138	-0.272148	0.381719
H267	H	0.926471	0.061185	0.715052
H268	H	0.264400	-0.600890	-0.048466
H269	H	0.597733	-0.267556	0.284867
H270	H	0.931067	0.065777	0.618200
