data_functionalizedCrystal
_audit_creation_method	'MofGen! by Chris Wilmer'
_symmetry_space_group_name_H-M	'P1'
_symmetry_Int_Tables_number	1
_symmetry_cell_setting	triclinic
loop_
_symmetry_equiv_pos_as_xyz
  x,y,z
_cell_length_a	14.519709
_cell_length_b	10.489741
_cell_length_c	13.596369
_cell_angle_alpha	89.994306
_cell_angle_beta	90.000291
_cell_angle_gamma	84.109659
loop_
_atom_site_label
_atom_site_type_symbol
_atom_site_fract_x
_atom_site_fract_y
_atom_site_fract_z
O1	O	1.224779	0.167203	-0.081663
O2	O	1.724779	0.667203	0.418337
O3	O	0.956410	0.186894	-0.081693
O4	O	1.456410	0.686894	0.418307
O5	O	1.096701	-0.008613	-0.081671
O6	O	1.596701	0.491387	0.418329
O7	O	1.084488	0.362710	-0.081684
O8	O	1.584488	0.862710	0.418316
O9	O	1.096687	-0.008623	0.081912
O10	O	1.596687	0.491377	0.581912
O11	O	0.956396	0.186883	0.081890
O12	O	1.456396	0.686883	0.581890
O13	O	1.224765	0.167193	0.081920
O14	O	1.724765	0.667193	0.581920
Zn15	Zn	1.090578	0.177037	0.107878
Zn16	Zn	1.590578	0.677037	0.607878
Zn17	Zn	1.090597	0.177050	-0.107650
Zn18	Zn	1.590597	0.677050	0.392350
O19	O	1.084474	0.362700	0.081899
O20	O	1.584474	0.862700	0.581899
C21	C	0.922038	0.185971	0.000095
C22	C	1.422038	0.685971	0.500095
C23	C	0.819642	0.183221	0.000084
C24	C	1.319642	0.683221	0.500084
C25	C	0.444691	0.173098	0.000129
C26	C	0.944691	0.673098	0.500129
C27	C	0.549014	0.175909	0.000116
C28	C	1.049014	0.675909	0.500116
C29	C	0.632163	0.178159	0.000105
C30	C	1.132163	0.678159	0.500105
C31	C	0.736493	0.180971	0.000094
C32	C	1.236493	0.680971	0.500094
C33	C	1.095772	-0.056140	0.000120
C34	C	1.595772	0.443860	0.500120
C35	C	1.093012	-0.197741	0.000118
C36	C	1.593012	0.302259	0.500118
C37	C	1.003749	-0.264951	0.000100
C38	C	1.503749	0.235049	0.500100
C39	C	1.045909	-0.357518	0.080760
C40	C	1.545909	0.142482	0.580760
C41	C	1.045944	-0.357482	-0.080520
C42	C	1.545944	0.142518	0.419480
C43	C	1.135209	-0.288443	0.080844
C44	C	1.635209	0.211557	0.580844
C45	C	1.135232	-0.288398	-0.080509
C46	C	1.635232	0.211602	0.419491
C47	C	1.177457	-0.380938	0.000171
C48	C	1.677457	0.119062	0.500171
C49	C	1.259137	0.168116	0.000130
C50	C	1.759137	0.668116	0.500130
C51	C	1.361533	0.170866	0.000135
C52	C	1.861533	0.670866	0.500135
C53	C	1.085403	0.410227	0.000106
C54	C	1.585403	0.910227	0.500106
C55	C	1.088163	0.551828	0.000101
C56	C	1.588163	1.051828	0.500101
N57	N	1.090572	0.177026	0.254969
N58	N	1.590572	0.677026	0.754969
N59	N	1.090610	0.177050	-0.254742
N60	N	1.590610	0.677050	0.245258
C61	C	1.090596	0.177052	0.656260
C62	C	1.590596	0.677052	1.156260
C63	C	1.090586	0.177049	0.544609
C64	C	1.590586	0.677049	1.044609
C65	C	1.090584	0.177040	0.455618
C66	C	1.590584	0.677040	0.955618
C67	C	1.090574	0.177035	0.343960
C68	C	1.590574	0.677035	0.843960
H69	H	0.930357	-0.214534	0.000173
H70	H	1.430357	0.285466	0.500173
N71	N	1.185227	-0.247791	-0.170830
N72	N	1.685227	0.252209	0.329170
H73	H	1.142311	-0.185741	-0.210537
H74	H	1.642311	0.314259	0.289463
H75	H	1.241326	-0.204881	-0.150201
H76	H	1.741326	0.295119	0.349799
N77	N	0.995910	-0.397984	-0.170851
N78	N	1.495910	0.102016	0.329149
H79	H	1.039170	-0.458703	-0.211264
H80	H	1.539170	0.041297	0.288736
H81	H	0.940496	-0.442388	-0.150203
H82	H	1.440496	0.057612	0.349797
N83	N	0.995872	-0.398068	0.171079
N84	N	1.495872	0.101932	0.671079
H85	H	0.940460	-0.442524	0.150501
H86	H	1.440460	0.057476	0.650501
H87	H	1.039198	-0.458753	0.211452
H88	H	1.539198	0.041247	0.711452
H89	H	1.172940	-0.258009	0.149112
H90	H	1.672940	0.241991	0.649112
H91	H	1.250914	-0.431128	0.000224
H92	H	1.750914	0.068872	0.500224
