data_functionalizedCrystal
_audit_creation_method	'MofGen! by Chris Wilmer'
_symmetry_space_group_name_H-M	'P1'
_symmetry_Int_Tables_number	1
_symmetry_cell_setting	triclinic
loop_
_symmetry_equiv_pos_as_xyz
  x,y,z
_cell_length_a	10.654550
_cell_length_b	14.586319
_cell_length_c	10.654551
_cell_angle_alpha	90.002027
_cell_angle_beta	84.485180
_cell_angle_gamma	90.000265
loop_
_atom_site_label
_atom_site_type_symbol
_atom_site_fract_x
_atom_site_fract_y
_atom_site_fract_z
O1	O	1.667840	0.076168	0.176397
O2	O	1.302362	0.076184	0.193203
O3	O	1.493503	0.076174	0.002061
O4	O	1.476699	0.076179	0.367540
O5	O	1.493490	-0.076307	0.002058
O6	O	1.302349	-0.076296	0.193200
O7	O	1.667827	-0.076313	0.176394
Cu8	Cu	1.485086	-0.090227	0.184797
Cu9	Cu	1.485102	0.090099	0.184801
O10	O	1.476685	-0.076302	0.367537
C11	C	1.255557	-0.000054	0.191968
C12	C	1.116114	-0.000047	0.188276
N13	N	1.485084	-0.217059	0.184794
C14	C	1.036629	-0.000049	0.300818
C15	C	0.905608	-0.000065	0.297341
C16	C	0.933570	-0.000074	0.068772
C17	C	1.064589	-0.000065	0.072249
C18	C	1.569750	-0.452070	0.100185
C19	C	1.569754	-0.548051	0.100182
C20	C	1.400439	-0.548051	0.269407
C21	C	1.400431	-0.452072	0.269403
C22	C	1.485093	-0.404084	0.184793
C23	C	1.485105	-0.596045	0.184794
C24	C	1.485109	-0.700112	0.184792
C25	C	1.485089	-0.300010	0.184794
C26	C	1.714632	-0.000072	0.177630
C27	C	1.854075	-0.000073	0.181322
C28	C	1.492262	-0.000065	-0.044738
C29	C	1.488570	-0.000061	-0.184181
N30	N	1.485114	0.216931	0.184794
C31	C	1.486844	0.083058	-0.249684
C32	C	1.483364	0.083059	-0.380704
C33	C	1.483341	-0.083184	-0.380709
C34	C	1.486812	-0.083184	-0.249690
C35	C	1.477926	-0.000061	0.414336
C36	C	1.481619	-0.000060	0.553779
H37	H	1.078576	-0.000041	0.395294
Cl38	Cl	0.868785	-0.000091	-0.077082
H39	H	1.129309	-0.000067	-0.019401
H40	H	0.840896	-0.000067	0.388984
H41	H	1.638686	-0.413000	0.031289
H42	H	1.331486	-0.412999	0.338302
Cl43	Cl	1.676182	-0.608375	-0.006190
H44	H	1.331510	-0.587133	0.338296
Cl45	Cl	1.489047	0.187556	-0.167333
Cl46	Cl	1.481192	0.187555	-0.463044
Cl47	Cl	1.481132	-0.187677	-0.463072
Cl48	Cl	1.488967	-0.187685	-0.167336
