data_functionalizedCrystal
_audit_creation_method	'MofGen! by Chris Wilmer'
_symmetry_space_group_name_H-M	'P1'
_symmetry_Int_Tables_number	1
_symmetry_cell_setting	triclinic
loop_
_symmetry_equiv_pos_as_xyz
  x,y,z
_cell_length_a	13.897449
_cell_length_b	13.897448
_cell_length_c	12.759393
_cell_angle_alpha	89.966654
_cell_angle_beta	89.976808
_cell_angle_gamma	90.018519
loop_
_atom_site_label
_atom_site_type_symbol
_atom_site_fract_x
_atom_site_fract_y
_atom_site_fract_z
Zn1	Zn	1.474701	-0.383937	-0.594100
Zn2	Zn	1.474595	-0.545266	-0.418415
Zn3	Zn	1.313390	-0.383989	-0.418425
Zn4	Zn	1.313372	-0.545194	-0.594042
O5	O	1.394015	-0.464596	-0.506245
O6	O	1.609668	-0.405346	-0.570815
O7	O	1.453175	-0.523925	-0.271395
O8	O	1.334841	-0.249000	-0.441757
O9	O	1.609591	-0.523874	-0.441740
O10	O	1.453355	-0.248962	-0.570825
O11	O	1.334738	-0.405435	-0.271402
O12	O	1.178406	-0.405365	-0.441701
O13	O	1.334808	-0.523750	-0.741071
O14	O	1.178392	-0.523801	-0.570726
O15	O	1.453336	-0.405276	-0.741113
O16	O	1.453157	-0.680238	-0.441683
O17	O	1.334706	-0.680185	-0.570716
C18	C	1.143400	-0.464582	-0.506209
C19	C	1.036186	-0.464598	-0.506218
C20	C	0.949116	-0.464602	-0.506235
C21	C	0.839884	-0.464608	-0.506267
C22	C	1.393944	-0.715211	-0.506215
C23	C	1.394002	-0.822425	-0.506237
C24	C	1.394104	-1.018720	-0.506303
C25	C	1.394044	-0.909487	-0.506269
C26	C	1.645607	-0.464612	-0.506283
C27	C	1.752821	-0.464619	-0.506299
C28	C	1.394082	-0.464499	-0.780279
C29	C	1.394111	-0.464458	-0.897056
C30	C	1.394111	-0.213003	-0.506299
C31	C	1.394153	-0.105789	-0.506322
C32	C	1.455837	-0.402762	-0.951942
C33	C	1.455860	-0.402727	-1.061666
C34	C	1.332428	-0.526092	-1.061608
C35	C	1.332401	-0.526121	-0.951886
C36	C	1.517547	-0.341098	-0.897111
C37	C	1.579278	-0.279398	-0.951997
C38	C	1.579301	-0.279363	-1.061721
C39	C	1.517592	-0.341029	-1.116559
C40	C	1.394003	-0.464624	-0.233278
C41	C	1.394161	-0.464393	-0.116502
H42	H	1.629513	-0.229187	-0.907341
H43	H	1.517605	-0.340984	-1.205904
H44	H	1.282187	-0.576296	-1.106266
H45	H	1.282123	-0.576344	-0.907197
H46	H	1.517537	-0.341122	-0.807768
H47	H	1.629559	-0.229117	-1.106407
