data_functionalizedCrystal
_audit_creation_method	'MofGen! by Chris Wilmer'
_symmetry_space_group_name_H-M	'P1'
_symmetry_Int_Tables_number	1
_symmetry_cell_setting	triclinic
loop_
_symmetry_equiv_pos_as_xyz
  x,y,z
_cell_length_a	23.532407
_cell_length_b	14.519709
_cell_length_c	12.996460
_cell_angle_alpha	90.000052
_cell_angle_beta	90.000251
_cell_angle_gamma	96.735589
loop_
_atom_site_label
_atom_site_type_symbol
_atom_site_fract_x
_atom_site_fract_y
_atom_site_fract_z
O1	O	-0.755765	0.111951	-0.085425
O2	O	-0.255765	0.611951	0.414575
O3	O	-0.589975	0.128149	-0.085453
O4	O	-0.089975	0.628149	0.414547
O5	O	-0.677266	-0.014240	-0.085448
O6	O	-0.177266	0.485760	0.414552
O7	O	-0.668475	0.254341	-0.085431
O8	O	-0.168475	0.754341	0.414569
O9	O	-0.677257	-0.014248	0.085686
O10	O	-0.177257	0.485752	0.585686
O11	O	-0.589966	0.128141	0.085680
O12	O	-0.089966	0.628141	0.585680
O13	O	-0.755756	0.111943	0.085709
O14	O	-0.255756	0.611943	0.585709
Cu15	Cu	-0.672860	0.120042	0.101320
Cu16	Cu	-0.172860	0.620042	0.601320
Cu17	Cu	-0.672871	0.120051	-0.101065
Cu18	Cu	-0.172871	0.620051	0.398935
O19	O	-0.668465	0.254333	0.085703
O20	O	-0.168465	0.754333	0.585703
C21	C	-0.568753	0.127733	0.000110
C22	C	-0.068753	0.627733	0.500110
C23	C	-0.505530	0.126493	0.000098
C24	C	-0.005530	0.626493	0.500098
C25	C	-0.776979	0.112360	0.000143
C26	C	-0.276979	0.612360	0.500143
C27	C	-0.840201	0.113600	0.000148
C28	C	-0.340201	0.613600	0.500148
C29	C	-0.106772	0.202977	0.000150
C30	C	0.393228	0.702977	0.500150
C31	C	-0.047367	0.201825	0.000156
C32	C	0.452633	0.701825	0.500156
O33	O	-0.010942	0.272727	0.000198
O34	O	0.489058	0.772727	0.500198
N35	N	-0.024358	0.117175	0.000149
N36	N	0.475642	0.617175	0.500149
C37	C	-0.060759	0.033671	0.000146
C38	C	0.439241	0.533671	0.500146
O39	O	-0.035734	-0.038437	0.000141
O40	O	0.464266	0.461563	0.500141
C41	C	-0.120164	0.034824	0.000147
C42	C	0.379836	0.534824	0.500147
C43	C	-0.143168	0.119480	0.000144
C44	C	0.356832	0.619480	0.500144
C45	C	-0.129777	0.287626	0.000148
C46	C	0.370223	0.787626	0.500148
C47	C	-0.189179	0.288778	0.000139
C48	C	0.310821	0.788778	0.500139
C49	C	-0.225575	0.205281	0.000133
C50	C	0.274425	0.705281	0.500133
C51	C	-0.202570	0.120631	0.000136
C52	C	0.297430	0.620631	0.500136
C53	C	-0.156563	-0.048679	0.000151
C54	C	0.343437	0.451321	0.500151
C55	C	-0.215971	-0.047519	0.000153
C56	C	0.284029	0.452481	0.500153
C57	C	-0.238976	0.037137	0.000150
C58	C	0.261024	0.537137	0.500150
C59	C	-0.298367	0.038286	0.000121
C60	C	0.201633	0.538286	0.500121
N61	N	-0.321375	0.122936	0.000129
N62	N	0.178625	0.622936	0.500129
C63	C	-0.284979	0.206434	0.000135
C64	C	0.215021	0.706434	0.500135
C65	C	0.063994	0.031256	0.000145
C66	C	0.563994	0.531256	0.500145
C67	C	0.123397	0.030102	0.000137
C68	C	0.623397	0.530102	0.500137
C69	C	0.136786	0.198257	0.000149
C70	C	0.636786	0.698257	0.500149
C71	C	0.077382	0.199410	0.000150
C72	C	0.577382	0.699410	0.500150
C73	C	0.040986	0.115906	0.000152
C74	C	0.540986	0.615906	0.500152
C75	C	-0.409727	0.208846	0.000117
C76	C	0.090273	0.708846	0.500117
C77	C	-0.469134	0.209990	0.000104
C78	C	0.030866	0.709990	0.500104
C79	C	-0.482517	0.041836	0.000098
C80	C	0.017483	0.541836	0.500098
C81	C	-0.423115	0.040691	0.000105
C82	C	0.076885	0.540691	0.500105
C83	C	-0.386721	0.124204	0.000118
C84	C	0.113279	0.624204	0.500118
O85	O	-0.334827	-0.032579	0.000084
O86	O	0.165173	0.467421	0.500084
O87	O	-0.310012	0.278529	0.000153
O88	O	0.189988	0.778529	0.500153
C89	C	-0.676852	-0.048599	0.000114
C90	C	-0.176852	0.451401	0.500114
C91	C	-0.675624	-0.150966	0.000100
C92	C	-0.175624	0.349034	0.500100
C93	C	-0.668880	0.288692	0.000139
C94	C	-0.168880	0.788692	0.500139
C95	C	-0.670107	0.391058	0.000146
C96	C	-0.170107	0.891058	0.500146
N97	N	-0.672857	0.120035	0.243668
N98	N	-0.172857	0.620035	0.743668
C99	C	-0.674627	0.765901	0.000106
C100	C	-0.174627	1.265901	0.500106
C101	C	-0.673372	0.661608	0.000117
C102	C	-0.173372	1.161608	0.500117
C103	C	-0.672368	0.578483	0.000127
C104	C	-0.172368	1.078483	0.500127
C105	C	-0.671112	0.474183	0.000136
C106	C	-0.171112	0.974183	0.500136
N107	N	-0.672879	0.120050	-0.243412
N108	N	-0.172879	0.620050	0.256588
C109	C	-0.672870	0.120052	0.663482
C110	C	-0.172870	0.620052	1.163482
C111	C	-0.672865	0.120050	0.546677
C112	C	-0.172865	0.620050	1.046677
C113	C	-0.672864	0.120044	0.453578
C114	C	-0.172864	0.620044	0.953578
C115	C	-0.672858	0.120041	0.336766
C116	C	-0.172858	0.620041	0.836766
H117	H	-0.487860	0.278930	0.000101
H118	H	0.012140	0.778930	0.500101
H119	H	-0.137844	-0.117615	0.000155
H120	H	0.362156	0.382385	0.500155
N121	N	0.052578	0.290721	0.000156
N122	N	0.552578	0.790721	0.500156
H123	H	0.028231	0.294951	0.063597
H124	H	0.528231	0.794951	0.563597
H125	H	0.028257	0.294902	-0.063323
H126	H	0.528257	0.794902	0.436677
H127	H	0.166431	0.266245	0.000158
H128	H	0.666431	0.766245	0.500158
N129	N	0.148206	-0.061205	0.000122
N130	N	0.648206	0.438795	0.500122
H131	H	0.116130	-0.113920	0.000116
H132	H	0.616130	0.386080	0.500116
H133	H	0.172559	-0.065354	0.063566
H134	H	0.672559	0.434646	0.563566
H135	H	-0.404384	-0.028243	0.000092
H136	H	0.095616	0.471757	0.500092
H137	H	-0.380101	0.276850	0.000130
H138	H	0.119899	0.776850	0.500130
H139	H	-0.100149	0.355624	0.000156
H140	H	0.399851	0.855624	0.500156
H141	H	-0.512162	-0.026146	0.000089
H142	H	-0.012162	0.473854	0.500089
N143	N	-0.213986	0.380086	0.000131
N144	N	0.286014	0.880086	0.500131
H145	H	-0.181909	0.432799	0.000135
H146	H	0.318091	0.932799	0.500135
H147	H	-0.238343	0.384234	0.063570
H148	H	0.261657	0.884234	0.563570
N149	N	0.024740	-0.058814	0.000143
N150	N	0.524740	0.441186	0.500143
H151	H	0.048334	-0.112608	0.000138
H152	H	0.548334	0.387392	0.500138
H153	H	-0.000199	-0.062001	-0.063298
H154	H	0.499801	0.437999	0.436702
N155	N	-0.255226	-0.137585	0.000163
N156	N	0.244774	0.362415	0.500163
H157	H	-0.231634	-0.191383	0.000166
H158	H	0.268366	0.308617	0.500166
H159	H	-0.280164	-0.140775	-0.063280
H160	H	0.219836	0.359225	0.436720
