data_functionalizedCrystal
_audit_creation_method	'MofGen! by Chris Wilmer'
_symmetry_space_group_name_H-M	'P1'
_symmetry_Int_Tables_number	1
_symmetry_cell_setting	triclinic
loop_
_symmetry_equiv_pos_as_xyz
  x,y,z
_cell_length_a	15.297475
_cell_length_b	18.050589
_cell_length_c	15.299448
_cell_angle_alpha	80.303230
_cell_angle_beta	69.206248
_cell_angle_gamma	80.331321
loop_
_atom_site_label
_atom_site_type_symbol
_atom_site_fract_x
_atom_site_fract_y
_atom_site_fract_z
Zn1	Zn	1.512797	-0.401579	-0.771514
Zn2	Zn	1.485738	-0.544075	-0.615983
Zn3	Zn	1.330345	-0.401557	-0.589141
Zn4	Zn	1.357220	-0.507370	-0.744596
O5	O	1.421525	-0.463645	-0.680308
O6	O	1.639350	-0.435852	-0.773382
O7	O	1.442554	-0.540522	-0.482274
O8	O	1.354625	-0.297642	-0.613365
O9	O	1.619470	-0.540544	-0.659114
O10	O	1.488672	-0.297658	-0.747354
O11	O	1.328387	-0.435815	-0.462553
O12	O	1.203768	-0.400222	-0.587263
O13	O	1.400429	-0.477984	-0.878315
O14	O	1.223513	-0.477962	-0.701475
O15	O	1.514731	-0.400260	-0.898092
O16	O	1.468612	-0.643124	-0.633012
O17	O	1.374191	-0.616157	-0.727503
C18	C	1.179896	-0.435107	-0.638536
C19	C	1.076530	-0.422914	-0.620687
C20	C	0.826316	-0.550798	-0.807876
C21	C	0.923433	-0.562260	-0.824643
C22	C	0.961712	-0.527424	-0.773656
C23	C	0.902864	-0.481125	-0.705898
C24	C	0.805737	-0.469666	-0.689125
C25	C	0.941133	-0.446293	-0.654904
C26	C	0.882285	-0.399994	-0.587147
C27	C	0.785168	-0.388537	-0.570377
C28	C	0.746889	-0.423372	-0.621364
C29	C	1.038261	-0.457751	-0.671678
C30	C	1.017682	-0.376620	-0.552927
C31	C	0.920565	-0.365158	-0.536160
C32	C	1.421410	-0.656586	-0.680274
C33	C	1.421451	-0.739133	-0.680305
C34	C	1.370162	-0.923956	-0.731678
C35	C	1.332793	-0.980715	-0.642897
C36	C	1.421545	-0.890273	-0.680332
C37	C	1.458961	-0.980600	-0.769131
C38	C	1.421635	-1.036266	-0.680367
C39	C	1.384124	-0.945945	-0.591499
C40	C	1.510341	-0.945823	-0.717797
C41	C	1.472994	-1.002571	-0.628963
C42	C	1.421491	-0.806170	-0.680314
C43	C	1.421687	-1.120369	-0.680376
C44	C	1.664098	-0.492295	-0.722245
C45	C	1.767468	-0.504504	-0.740115
C46	C	1.463596	-0.435030	-0.922893
C47	C	1.481524	-0.422836	-1.026268
C48	C	1.421669	-0.269952	-0.680368
C49	C	1.421731	-0.187411	-0.680394
C50	C	1.549458	-0.376639	-1.085128
C51	C	1.566295	-0.365171	-1.182253
C52	C	1.515204	-0.399904	-1.220528
C53	C	1.447273	-0.446107	-1.161668
C54	C	1.430429	-0.457571	-1.064533
C55	C	1.396175	-0.480837	-1.199933
C56	C	1.328244	-0.527039	-1.141074
C57	C	1.311404	-0.538502	-1.043949
C58	C	1.362495	-0.503768	-1.005673
C59	C	1.413018	-0.469373	-1.297068
C60	C	1.293989	-0.550305	-1.276474
C61	C	1.277153	-0.561773	-1.179349
C62	C	1.379671	-0.492102	-0.438677
C63	C	1.361924	-0.504108	-0.335333
H64	H	0.971340	-0.599959	-0.879809
H65	H	0.667809	-0.414041	-0.607718
O66	O	1.609827	-0.925359	-0.759694
H67	H	1.640737	-0.939032	-0.833397
H68	H	1.621606	-0.327554	-1.230170
O69	O	1.604550	-0.339178	-1.043840
H70	H	1.654615	-0.305122	-1.101083
O71	O	1.342138	-0.925587	-0.491993
H72	H	1.279204	-0.883295	-0.485980
H73	H	0.872637	-0.327461	-0.480991
O74	O	0.721691	-0.338611	-0.497285
H75	H	0.684691	-0.290747	-0.531353
H76	H	1.048847	-0.348255	-0.511407
O77	O	1.312493	-0.878854	-0.789077
H78	H	1.238835	-0.892652	-0.757772
O79	O	1.238877	-0.587767	-1.317748
H80	H	1.188799	-0.621809	-1.260501
H81	H	1.348793	-0.513105	-0.926588
H82	H	0.795138	-0.579161	-0.849377
H83	H	1.257745	-0.996300	-0.611235
H84	H	1.256087	-0.576121	-0.996026
H85	H	1.221842	-0.599391	-1.131412
H86	H	1.490570	-0.996061	-0.844214
H87	H	1.040790	-0.536759	-0.787312
H88	H	1.516475	-1.036482	-0.585497
H89	H	1.528915	-0.390564	-1.299612
O90	O	1.101734	-0.507671	-0.744767
H91	H	1.080279	-0.565632	-0.725480
O92	O	1.486279	-0.419545	-1.360557
H93	H	1.556032	-0.443104	-1.354544
