data_functionalizedCrystal
_audit_creation_method	'MofGen! by Chris Wilmer'
_symmetry_space_group_name_H-M	'P1'
_symmetry_Int_Tables_number	1
_symmetry_cell_setting	triclinic
loop_
_symmetry_equiv_pos_as_xyz
  x,y,z
_cell_length_a	21.395362
_cell_length_b	11.169416
_cell_length_c	21.395355
_cell_angle_alpha	90.011418
_cell_angle_beta	90.043940
_cell_angle_gamma	90.026029
loop_
_atom_site_label
_atom_site_type_symbol
_atom_site_fract_x
_atom_site_fract_y
_atom_site_fract_z
Zn1	Zn	0.957949	-0.477437	0.354617
Zn2	Zn	1.457949	0.022563	0.854617
Zn3	Zn	0.957889	-0.678108	0.249852
Zn4	Zn	1.457889	-0.178108	0.749852
Zn5	Zn	0.853164	-0.477493	0.249818
Zn6	Zn	1.353164	0.022507	0.749818
Zn7	Zn	0.853171	-0.678133	0.354557
Zn8	Zn	1.353171	-0.178133	0.854557
O9	O	0.905543	-0.577793	0.302211
O10	O	1.405543	-0.077793	0.802211
O11	O	1.045619	-0.504023	0.340759
O12	O	1.545619	-0.004023	0.840759
O13	O	0.943969	-0.651509	0.162170
O14	O	1.443969	-0.151509	0.662170
O15	O	0.867086	-0.309536	0.263730
O16	O	1.367086	0.190464	0.763730
O17	O	1.045575	-0.651455	0.263789
O18	O	1.545575	-0.151455	0.763789
O19	O	0.944071	-0.309495	0.340725
O20	O	1.444071	0.190505	0.840725
O21	O	0.867028	-0.504118	0.162144
O22	O	1.367028	-0.004118	0.662144
O23	O	0.765487	-0.504142	0.263672
O24	O	1.265487	-0.004142	0.763672
O25	O	0.867098	-0.651497	0.442243
O26	O	1.367098	-0.151497	0.942243
O27	O	0.765492	-0.651551	0.340624
O28	O	1.265492	-0.151551	0.840624
O29	O	0.944078	-0.504047	0.442287
O30	O	1.444078	-0.004047	0.942287
O31	O	0.943976	-0.846061	0.263731
O32	O	1.443976	-0.346061	0.763731
O33	O	0.867040	-0.846079	0.340657
O34	O	1.367040	-0.346079	0.840657
C35	C	0.742755	-0.577856	0.302138
C36	C	1.242755	-0.077856	0.802138
C37	C	0.673114	-0.577912	0.302122
C38	C	1.173114	-0.077912	0.802122
C39	C	0.640420	-0.654770	0.342130
C40	C	1.140420	-0.154770	0.842130
C41	C	0.574985	-0.654741	0.342158
C42	C	1.074985	-0.154741	0.842158
C43	C	0.542246	-0.577866	0.302167
C44	C	1.042246	-0.077866	0.802167
C45	C	0.574948	-0.500994	0.262155
C46	C	1.074948	-0.000994	0.762155
C47	C	0.640382	-0.501017	0.262133
C48	C	1.140382	-0.001017	0.762133
C49	C	0.438519	-0.568198	0.245761
C50	C	0.938519	-0.068198	0.745761
C51	C	0.373086	-0.568183	0.245782
C52	C	0.873086	-0.068183	0.745782
C53	C	0.340425	-0.577788	0.302236
C54	C	0.840425	-0.077788	0.802236
C55	C	0.373205	-0.587433	0.358670
C56	C	0.873205	-0.087433	0.858670
C57	C	0.438639	-0.587456	0.358648
C58	C	0.938639	-0.087456	0.858648
C59	C	0.471294	-0.577832	0.302187
C60	C	0.971294	-0.077832	0.802187
C61	C	0.236779	-0.654618	0.342278
C62	C	0.736779	-0.154618	0.842278
C63	C	0.171342	-0.654580	0.342307
C64	C	0.671342	-0.154580	0.842307
C65	C	0.171306	-0.500839	0.262298
C66	C	0.671306	-0.000839	0.762298
C67	C	0.236742	-0.500871	0.262275
C68	C	0.736742	-0.000871	0.762275
C69	C	0.269474	-0.577766	0.302264
C70	C	0.769474	-0.077766	0.802264
C71	C	0.905519	-0.889618	0.302205
C72	C	1.405519	-0.389618	0.802205
C73	C	0.905566	-1.023018	0.302223
C74	C	1.405566	-0.523018	0.802223
C75	C	1.068966	-0.577730	0.302284
C76	C	1.568966	-0.077730	0.802284
C77	C	1.138608	-0.577703	0.302315
C78	C	1.638608	-0.077703	0.802315
C79	C	0.905595	-0.577769	0.465634
C80	C	1.405595	-0.077769	0.965634
C81	C	0.905617	-0.577758	0.535275
C82	C	1.405617	-0.077758	1.035275
C83	C	0.905585	-0.264751	0.302231
C84	C	1.405585	0.235249	0.802231
C85	C	0.905602	-0.131351	0.302239
C86	C	1.405602	0.368649	0.802239
C87	C	0.905527	-0.577731	0.139423
C88	C	1.405527	-0.077731	0.639423
C89	C	0.905627	-0.577403	0.069782
C90	C	1.405627	-0.077403	0.569782
C91	C	0.945699	-0.500978	0.568012
C92	C	1.445699	-0.000978	1.068012
C93	C	0.945698	-0.500926	0.633448
C94	C	1.445698	-0.000926	1.133448
C95	C	0.905622	-0.577676	0.666144
C96	C	1.405622	-0.077676	1.166144
C97	C	0.865533	-0.654462	0.633399
C98	C	1.365533	-0.154462	1.133399
C99	C	0.865530	-0.654503	0.567965
C100	C	1.365530	-0.154503	1.067965
C101	C	0.900666	-0.685744	0.769815
C102	C	1.400666	-0.185744	1.269815
C103	C	0.900673	-0.685705	0.835248
C104	C	1.400673	-0.185705	1.335248
C105	C	0.905626	-0.577550	0.867965
C106	C	1.405626	-0.077550	1.367965
C107	C	0.910585	-0.469429	0.835241
C108	C	1.410585	0.030571	1.335241
C109	C	0.910583	-0.469470	0.769806
C110	C	1.410583	0.030530	1.269806
C111	C	0.905620	-0.577640	0.737096
C112	C	1.405620	-0.077640	1.237096
C113	C	0.945709	-0.500707	0.971654
C114	C	1.445709	-0.000707	1.471654
C115	C	0.945704	-0.500653	1.037091
C116	C	1.445704	-0.000653	1.537091
C117	C	0.865541	-0.654200	1.037041
C118	C	1.365541	-0.154200	1.537041
C119	C	0.865543	-0.654243	0.971605
C120	C	1.365543	-0.154243	1.471605
C121	C	0.905631	-0.577498	0.938916
C122	C	1.405631	-0.077498	1.438916
H123	H	0.144651	-0.438241	0.229739
H124	H	0.644651	0.061759	0.729739
H125	H	0.832904	-0.716679	1.063661
H126	H	1.332904	-0.216679	1.563661
H127	H	0.832908	-0.716773	0.944951
H128	H	1.332908	-0.216773	1.444951
H129	H	0.263362	-0.438291	0.229692
H130	H	0.763362	0.061709	0.729692
Br131	Br	0.811128	-0.758712	0.523533
Br132	Br	1.311128	-0.258712	1.023533
H133	H	0.914619	-0.381359	0.861877
H134	H	1.414619	0.118641	1.361877
Br135	Br	0.893952	-0.832438	0.879652
Br136	Br	1.393952	-0.332438	1.379652
Br137	Br	0.126970	-0.758886	0.396615
Br138	Br	0.626970	-0.258886	0.896615
Br139	Br	0.893963	-0.832544	0.725420
Br140	Br	1.393963	-0.332544	1.225420
Br141	Br	0.482839	-0.555163	0.169138
Br142	Br	0.982839	-0.055163	0.669138
H143	H	0.978342	-0.438122	1.063744
H144	H	1.478342	0.061878	1.563744
Br145	Br	0.328606	-0.555096	0.169194
Br146	Br	0.828606	-0.055096	0.669194
H147	H	0.548288	-0.438400	0.229595
H148	H	1.048288	0.061600	0.729595
Br149	Br	1.000100	-0.396820	0.523651
Br150	Br	1.500100	0.103180	1.023651
H151	H	0.667001	-0.438427	0.229553
H152	H	1.167001	0.061573	0.729553
Br153	Br	1.000083	-0.396687	0.677887
Br154	Br	1.500083	0.103313	1.177887
Br155	Br	0.328888	-0.600465	0.435292
Br156	Br	0.828888	-0.100465	0.935292
H157	H	0.667067	-0.717383	0.374694
H158	H	1.167067	-0.217383	0.874694
Br159	Br	0.811139	-0.758616	0.677770
Br160	Br	1.311139	-0.258616	1.177770
H161	H	0.548360	-0.717327	0.374740
H162	H	1.048360	-0.217327	0.874740
H163	H	0.914619	-0.381435	0.743165
H164	H	1.414619	0.118565	1.243165
Br165	Br	0.483125	-0.600540	0.435233
Br166	Br	0.983125	-0.100540	0.935233
Br167	Br	0.281205	-0.758968	0.396550
Br168	Br	0.781205	-0.258968	0.896550
Br169	Br	1.000109	-0.396552	0.927286
Br170	Br	1.500109	0.103448	1.427286
