data_functionalizedCrystal
_audit_creation_method	'MofGen! by Chris Wilmer'
_symmetry_space_group_name_H-M	'P1'
_symmetry_Int_Tables_number	1
_symmetry_cell_setting	triclinic
loop_
_symmetry_equiv_pos_as_xyz
  x,y,z
_cell_length_a	12.594517
_cell_length_b	13.032721
_cell_length_c	13.032268
_cell_angle_alpha	76.710373
_cell_angle_beta	97.162024
_cell_angle_gamma	82.795614
loop_
_atom_site_label
_atom_site_type_symbol
_atom_site_fract_x
_atom_site_fract_y
_atom_site_fract_z
Zn1	Zn	1.477991	0.499091	-0.654228
Zn2	Zn	1.477874	0.654176	-0.499176
Zn3	Zn	1.325891	0.476585	-0.476645
Zn4	Zn	1.274083	0.676648	-0.676714
O5	O	1.388960	0.576625	-0.576691
O6	O	1.626917	0.519678	-0.633679
O7	O	1.479347	0.611794	-0.347567
O8	O	1.367798	0.330940	-0.481362
O9	O	1.626831	0.633617	-0.519762
O10	O	1.479545	0.347475	-0.611831
O11	O	1.367685	0.481319	-0.331014
O12	O	1.170077	0.503110	-0.503166
O13	O	1.279498	0.671918	-0.822351
O14	O	1.132014	0.650095	-0.650156
O15	O	1.429308	0.541468	-0.805830
O16	O	1.429110	0.805787	-0.541566
O17	O	1.279386	0.822297	-0.672003
C18	C	1.112426	0.576600	-0.576657
C19	C	0.994117	0.576618	-0.576671
C20	C	1.348639	0.852583	-0.611693
C21	C	1.331482	0.970644	-0.626702
C22	C	1.348637	0.611711	-0.853703
C23	C	1.331454	0.626662	-0.971750
C24	C	0.945530	0.496593	-0.496846
C25	C	0.864397	0.590160	-0.483018
C26	C	0.864441	0.483100	-0.590523
C27	C	0.914542	0.670230	-0.562798
C28	C	0.914596	0.563110	-0.670340
C29	C	0.833480	0.656749	-0.656557
C30	C	1.666573	0.576651	-0.576726
C31	C	1.784875	0.576662	-0.576740
C32	C	1.429463	0.299592	-0.541575
C33	C	1.446724	0.181537	-0.526611
C34	C	1.397964	1.015082	-0.568905
C35	C	1.380233	1.137103	-0.584417
C36	C	1.397917	0.568784	-1.016204
C37	C	1.380159	0.584235	-1.138211
C38	C	1.429198	0.541599	-0.300746
C39	C	1.446630	0.526349	-0.182662
H40	H	0.994050	0.428967	-0.429274
O41	O	1.247794	1.032894	-0.699371
C42	C	1.054270	1.073734	-0.755051
C43	C	1.148947	1.003149	-0.672691
H44	H	0.974328	1.049725	-0.733497
H45	H	1.063481	1.062767	-0.837968
H46	H	1.054913	1.161028	-0.754621
H47	H	1.148362	0.915828	-0.673025
H48	H	1.139701	1.014207	-0.589812
H49	H	1.261401	0.687646	-1.024015
H50	H	1.310101	0.645223	-1.190473
H51	H	1.467961	0.507789	-0.963938
O52	O	1.530248	1.119268	-0.453738
C53	C	1.613241	1.062225	-0.268814
C54	C	1.518608	1.132812	-0.351231
H55	H	1.603851	1.073134	-0.185915
H56	H	1.693224	1.086278	-0.290195
H57	H	1.612666	0.974939	-0.269316
H58	H	1.519080	1.220118	-0.350772
H59	H	1.438668	1.108669	-0.329820
O60	O	1.530073	0.453496	-1.120209
C61	C	1.583440	0.294267	-0.976754
C62	C	1.488851	0.376720	-1.047384
H63	H	1.550146	0.232160	-0.917873
H64	H	1.639489	0.336411	-0.930921
H65	H	1.630717	0.253149	-1.029240
H66	H	1.441491	0.417864	-0.994977
H67	H	1.432879	0.334517	-1.093226
O68	O	0.837756	0.603643	-0.388470
C69	C	0.865345	0.534572	-0.197405
C70	C	0.895586	0.519170	-0.304409
H71	H	0.912102	0.466300	-0.129412
H72	H	0.774604	0.535186	-0.198569
H73	H	0.886995	0.613687	-0.185016
H74	H	0.874005	0.440058	-0.316865
H75	H	0.986323	0.518622	-0.303195
H76	H	1.310187	1.189392	-0.645391
H77	H	1.468012	0.962793	-0.507942
H78	H	0.785141	0.724512	-0.724101
O79	O	0.941240	0.764538	-0.548703
C80	C	1.083386	0.870343	-0.532924
C81	C	1.053301	0.763487	-0.548872
H82	H	1.173984	0.869538	-0.533077
H83	H	1.062390	0.882073	-0.453355
H84	H	1.036030	0.938563	-0.600615
H85	H	1.100641	0.695203	-0.481243
H86	H	1.074272	0.751851	-0.628478
H87	H	0.842045	0.404001	-0.602176
O88	O	0.941340	0.549222	-0.764716
C89	C	0.946570	0.434915	-0.886013
C90	C	0.916251	0.450511	-0.779098
H91	H	0.926277	0.355121	-0.897686
H92	H	1.037056	0.435750	-0.885369
H93	H	0.898750	0.502380	-0.954179
H94	H	0.963997	0.383068	-0.710874
H95	H	0.825749	0.449721	-0.779835
