data_functionalizedCrystal
_audit_creation_method	'MofGen! by Chris Wilmer'
_symmetry_space_group_name_H-M	'P1'
_symmetry_Int_Tables_number	1
_symmetry_cell_setting	triclinic
loop_
_symmetry_equiv_pos_as_xyz
  x,y,z
_cell_length_a	15.538191
_cell_length_b	17.699097
_cell_length_c	16.776229
_cell_angle_alpha	89.996625
_cell_angle_beta	89.998535
_cell_angle_gamma	65.280263
loop_
_atom_site_label
_atom_site_type_symbol
_atom_site_fract_x
_atom_site_fract_y
_atom_site_fract_z
O1	O	0.119259	0.971470	0.066344
O2	O	0.619259	1.471470	0.566344
O3	O	0.134754	0.746859	0.066330
O4	O	0.634754	1.246859	0.566330
O5	O	-0.010221	0.902887	0.066344
O6	O	0.489779	1.402887	0.566344
O7	O	0.264233	0.815442	0.066331
O8	O	0.764233	1.315442	0.566331
O9	O	-0.010230	0.902905	-0.066233
O10	O	0.489770	1.402905	0.433767
O11	O	0.134744	0.746877	-0.066246
O12	O	0.634744	1.246877	0.433754
O13	O	0.119249	0.971488	-0.066232
O14	O	0.619249	1.471488	0.433768
Zn15	Zn	0.126995	0.859186	-0.087288
Zn16	Zn	0.626995	1.359186	0.412712
Zn17	Zn	0.127008	0.859162	0.087387
Zn18	Zn	0.627008	1.359162	0.587387
O19	O	0.264224	0.815460	-0.066246
O20	O	0.764224	1.315460	0.433754
C21	C	0.134192	0.718824	0.000040
C22	C	0.634192	1.218824	0.500040
C23	C	0.132520	0.635263	0.000035
C24	C	0.632520	1.135263	0.500035
C25	C	0.122276	0.122335	0.072336
C26	C	0.622276	0.622335	0.572336
C27	C	0.123841	0.200852	0.072332
C28	C	0.623841	0.700852	0.572332
C29	C	0.124619	0.240114	0.000061
C30	C	0.624619	0.740114	0.500061
C31	C	0.123824	0.200858	-0.072211
C32	C	0.623824	0.700858	0.427789
C33	C	0.122252	0.122346	-0.072206
C34	C	0.622252	0.622346	0.427794
C35	C	0.130159	0.517491	-0.072232
C36	C	0.630159	1.017491	0.427768
C37	C	0.131734	0.596008	-0.072231
C38	C	0.631734	1.096008	0.427769
C39	C	0.131748	0.595997	0.072305
C40	C	0.631748	1.095997	0.572305
C41	C	0.130176	0.517485	0.072310
C42	C	0.630176	1.017485	0.572310
C43	C	0.129376	0.478238	0.000039
C44	C	0.629376	0.978238	0.500039
C45	C	0.127678	0.393102	0.000045
C46	C	0.627678	0.893102	0.500045
C47	C	0.126324	0.325246	0.000055
C48	C	0.626324	0.825246	0.500055
C49	C	-0.045341	0.912045	0.000059
C50	C	0.454659	1.412045	0.500059
C51	C	-0.149976	0.939297	0.000069
C52	C	0.350024	1.439297	0.500069
C53	C	-0.437163	0.668556	0.000034
C54	C	0.062837	1.168556	0.500034
C55	C	-0.535486	0.694183	0.000034
C56	C	-0.035486	1.194183	0.500034
C57	C	-0.558250	0.838325	0.000044
C58	C	-0.058250	1.338325	0.500044
C59	C	-0.459927	0.812711	0.000048
C60	C	0.040073	1.312711	0.500048
C61	C	-0.399391	0.727826	0.000042
C62	C	0.100609	1.227826	0.500042
C63	C	-0.422155	0.871980	0.000056
C64	C	0.077845	1.371980	0.500056
C65	C	-0.323840	0.846368	0.000055
C66	C	0.176160	1.346368	0.500055
C67	C	-0.263298	0.761486	0.000047
C68	C	0.236702	1.261486	0.500047
C69	C	-0.301076	0.702213	0.000042
C70	C	0.198924	1.202213	0.500042
C71	C	-0.482693	0.956865	0.000055
C72	C	0.017307	1.456865	0.500055
C73	C	-0.444921	1.016135	0.000063
C74	C	0.055079	1.516135	0.500063
C75	C	-0.346605	0.990522	0.000069
C76	C	0.153395	1.490522	0.500069
C77	C	-0.286062	0.905641	0.000061
C78	C	0.213938	1.405641	0.500061
C79	C	-0.308827	1.049795	0.000074
C80	C	0.191173	1.549795	0.500074
C81	C	-0.210512	1.024183	0.000074
C82	C	0.289488	1.524183	0.500074
C83	C	-0.187748	0.880028	0.000061
C84	C	0.312252	1.380028	0.500061
C85	C	0.299344	0.806302	0.000041
C86	C	0.799344	1.306302	0.500041
C87	C	0.403979	0.779050	0.000037
C88	C	0.903979	1.279050	0.500037
C89	C	0.119811	0.999524	0.000060
C90	C	0.619811	1.499524	0.500060
C91	C	0.121483	1.083084	0.000070
C92	C	0.621483	1.583084	0.500070
N93	N	0.126986	0.859208	-0.206500
N94	N	0.626986	1.359208	0.293500
N95	N	0.127009	0.859148	0.206598
N96	N	0.627009	1.359148	0.706598
C97	C	0.062926	0.928355	0.751769
C98	C	0.562926	1.428355	1.251769
C99	C	0.062925	0.928346	0.668317
C100	C	0.562925	1.428346	1.168317
C101	C	0.126990	0.859191	0.626597
C102	C	0.626990	1.359191	1.126597
C103	C	0.191054	0.790037	0.668335
C104	C	0.691054	1.290037	1.168335
C105	C	0.191050	0.790045	0.751785
C106	C	0.691050	1.290045	1.251785
C107	C	0.191074	0.790004	0.331788
C108	C	0.691074	1.290004	0.831788
C109	C	0.191075	0.790002	0.248331
C110	C	0.691075	1.290002	0.748331
C111	C	0.062949	0.928305	0.248319
C112	C	0.562949	1.428305	0.748319
C113	C	0.062944	0.928312	0.331769
C114	C	0.562944	1.428312	0.831769
C115	C	0.127004	0.859157	0.373499
C116	C	0.627004	1.359157	0.873499
C117	C	0.127003	0.859168	0.463988
C118	C	0.627003	1.359168	0.963988
C119	C	0.126997	0.859182	0.536111
C120	C	0.626997	1.359182	1.036111
H121	H	0.121617	0.090385	-0.131052
H122	H	0.621617	0.590385	0.368948
N123	N	0.132576	0.638357	-0.150184
N124	N	0.632576	1.138357	0.349816
H125	H	0.131829	0.601582	-0.195967
H126	H	0.631829	1.101582	0.304033
H127	H	0.074821	0.693116	-0.153325
H128	H	0.574821	1.193116	0.346675
H129	H	-0.183245	0.740634	0.000043
H130	H	0.316755	1.240634	0.500043
N131	N	0.121442	0.079989	0.150286
N132	N	0.621442	0.579989	0.650286
H133	H	0.122180	0.116773	0.196065
H134	H	0.622180	0.616773	0.696065
H135	H	0.062381	0.069595	0.153439
H136	H	0.562381	0.569595	0.653439
H137	H	0.124480	0.232809	0.131178
H138	H	0.624480	0.732809	0.631178
H139	H	-0.562746	0.977716	0.000063
H140	H	-0.062746	1.477716	0.500063
H141	H	-0.358130	1.118909	0.000071
H142	H	0.141870	1.618909	0.500071
N143	N	-0.122431	0.788476	0.000057
N144	N	0.377569	1.288476	0.500057
H145	H	-0.134551	0.761409	0.049201
H146	H	0.365449	1.261409	0.549201
H147	H	-0.134586	0.761491	-0.049123
H148	H	0.365414	1.261491	0.450877
H149	H	0.129547	0.485520	0.131161
H150	H	0.629547	0.985520	0.631161
N151	N	-0.371847	0.577004	0.000013
N152	N	0.128153	1.077004	0.500013
H153	H	-0.330539	0.563156	0.049153
H154	H	0.169461	1.063156	0.549153
H155	H	-0.410745	0.543390	-0.000024
H156	H	0.089255	1.043390	0.499976
H157	H	0.129494	0.485551	-0.131079
H158	H	0.629494	0.985551	0.368921
H159	H	0.243235	0.733696	0.365758
H160	H	0.743235	1.233696	0.865758
N161	N	-0.169765	1.088105	0.000075
N162	N	0.330235	1.588105	0.500075
H163	H	-0.129473	1.080685	0.049216
H164	H	0.370527	1.580685	0.549216
H165	H	-0.129534	1.080656	-0.049109
H166	H	0.370466	1.580656	0.450891
N167	N	0.124661	0.243202	-0.150162
N168	N	0.624661	0.743202	0.349838
H169	H	0.125781	0.298894	-0.139201
H170	H	0.625781	0.798894	0.360799
H171	H	0.182793	0.207294	-0.181721
H172	H	0.682793	0.707294	0.318279
N173	N	-0.623554	0.929875	0.000054
N174	N	-0.123554	1.429875	0.500054
H175	H	-0.611421	0.956919	0.049205
H176	H	-0.111421	1.456919	0.549205
H177	H	-0.611393	0.956871	-0.049120
H178	H	-0.111393	1.456871	0.450880
N179	N	-0.235773	0.610658	0.000049
N180	N	0.264227	1.110658	0.500049
H181	H	-0.274617	0.576993	0.000049
H182	H	0.225383	1.076993	0.500049
H183	H	-0.194485	0.596895	-0.049098
H184	H	0.305515	1.096895	0.450902
N185	N	-0.576227	0.630252	0.000024
N186	N	-0.076227	1.130252	0.500024
H187	H	-0.522956	0.572594	0.000021
H188	H	-0.022956	1.072594	0.500021
H189	H	-0.616521	0.637732	0.049172
H190	H	-0.116521	1.137732	0.549172
N191	N	0.260149	0.715443	0.623342
N192	N	0.760149	1.215443	1.123342
H193	H	0.250434	0.725930	0.564144
H194	H	0.750434	1.225930	1.064144
H195	H	0.327039	0.705702	0.637930
H196	H	0.827039	1.205702	1.137930
N197	N	-0.510215	1.107686	0.000061
N198	N	-0.010215	1.607686	0.500061
H199	H	-0.578229	1.114920	0.000058
H200	H	-0.078229	1.614920	0.500058
H201	H	-0.498003	1.134678	0.049213
H202	H	0.001997	1.634678	0.549213
N203	N	-0.006169	1.002947	0.796763
N204	N	0.493831	1.502947	1.296763
H205	H	-0.046752	1.046749	0.757660
H206	H	0.453248	1.546749	1.257660
H207	H	-0.047876	0.985507	0.831391
H208	H	0.452124	1.485507	1.331391
H209	H	0.010761	0.984650	0.634339
H210	H	0.510761	1.484650	1.134339
N211	N	0.132600	0.638327	0.150261
N212	N	0.632600	1.138327	0.650261
H213	H	0.191657	0.648725	0.153478
H214	H	0.691657	1.148725	0.653478
H215	H	0.074802	0.693052	0.153442
H216	H	0.574802	1.193052	0.653442
N217	N	-0.006150	1.002902	0.376767
N218	N	0.493850	1.502902	0.876767
H219	H	-0.046735	1.046706	0.337666
H220	H	0.453265	1.546706	0.837666
H221	H	-0.047856	0.985458	0.411394
H222	H	0.452144	1.485458	0.911394
N223	N	-0.006149	1.002896	0.203310
N224	N	0.493851	1.502896	0.703310
H225	H	0.003569	0.992400	0.144114
H226	H	0.503569	1.492400	0.644114
H227	H	-0.073041	1.012641	0.217899
H228	H	0.426959	1.512641	0.717899
H229	H	0.243247	0.733684	0.214365
H230	H	0.743247	1.233684	0.714365
H231	H	0.243213	0.733737	0.785762
H232	H	0.743213	1.233737	1.285762
