data_functionalizedCrystal
_audit_creation_method	'MofGen! by Chris Wilmer'
_symmetry_space_group_name_H-M	'P1'
_symmetry_Int_Tables_number	1
_symmetry_cell_setting	triclinic
loop_
_symmetry_equiv_pos_as_xyz
  x,y,z
_cell_length_a	18.215407
_cell_length_b	18.215405
_cell_length_c	18.215399
_cell_angle_alpha	89.970050
_cell_angle_beta	89.985195
_cell_angle_gamma	90.017245
loop_
_atom_site_label
_atom_site_type_symbol
_atom_site_fract_x
_atom_site_fract_y
_atom_site_fract_z
Zn1	Zn	1.125061	-0.293082	-0.416078
Zn2	Zn	1.124981	-0.416159	-0.293013
Zn3	Zn	1.002000	-0.293099	-0.293030
Zn4	Zn	1.001964	-0.416100	-0.416042
O5	O	1.063501	-0.354610	-0.354541
O6	O	1.228035	-0.309426	-0.399761
O7	O	1.108648	-0.399866	-0.190031
O8	O	1.018373	-0.190112	-0.309375
O9	O	1.227975	-0.399850	-0.309346
O10	O	1.108786	-0.190100	-0.399778
O11	O	1.018295	-0.309454	-0.190043
O12	O	0.899011	-0.309397	-0.309340
O13	O	1.018312	-0.399750	-0.519031
O14	O	0.898985	-0.399766	-0.399716
O15	O	1.108751	-0.309369	-0.519058
O16	O	1.108613	-0.519135	-0.309311
O17	O	1.018234	-0.519092	-0.399700
C18	C	0.872295	-0.354577	-0.354526
C19	C	0.790496	-0.354581	-0.354538
C20	C	0.525464	-0.307617	-0.401695
C21	C	0.602323	-0.307605	-0.401693
C22	C	0.602280	-0.401626	-0.307402
C23	C	0.525423	-0.401642	-0.307409
C24	C	0.487017	-0.354632	-0.354554
C25	C	0.640733	-0.354606	-0.354545
C26	C	0.724066	-0.354593	-0.354543
C27	C	0.403678	-0.354646	-0.354558
C28	C	1.063431	-0.545816	-0.354515
C29	C	1.063468	-0.627615	-0.354529
C30	C	1.110568	-0.815741	-0.401666
C31	C	1.110595	-0.892600	-0.401680
C32	C	1.016526	-0.892726	-0.307461
C33	C	1.016496	-0.815869	-0.307452
C34	C	1.063521	-0.777378	-0.354553
C35	C	1.063578	-0.931094	-0.354576
C36	C	1.063606	-1.014428	-0.354591
C37	C	1.063492	-0.694039	-0.354540
C38	C	1.255454	-0.354643	-0.354556
C39	C	1.337253	-0.354657	-0.354562
C40	C	1.063536	-0.354551	-0.546494
C41	C	1.063551	-0.354526	-0.628293
C42	C	1.063592	-0.162657	-0.354582
C43	C	1.063631	-0.080858	-0.354600
C44	C	1.016544	-0.307417	-0.816494
C45	C	1.016557	-0.307402	-0.893353
C46	C	1.110646	-0.401547	-0.893329
C47	C	1.110629	-0.401565	-0.816472
C48	C	1.063579	-0.354496	-0.778056
C49	C	1.063609	-0.354463	-0.931772
C50	C	1.063623	-0.354447	-1.015106
C51	C	1.063564	-0.354512	-0.694717
C52	C	1.063509	-0.354615	-0.163335
C53	C	1.063637	-0.354433	-0.081536
H54	H	0.633560	-0.439898	-0.269017
O55	O	0.488184	-0.447339	-0.261543
C56	C	0.538561	-0.488835	-0.219939
H57	H	0.593351	-0.458680	-0.217433
H58	H	0.546739	-0.544758	-0.246794
C59	C	0.441239	-0.536395	-0.144678
C60	C	0.508531	-0.499354	-0.141595
H61	H	0.422714	-0.542887	-0.096353
H62	H	0.407298	-0.508440	-0.172710
H63	H	0.448063	-0.582993	-0.167061
H64	H	0.501704	-0.452754	-0.119222
H65	H	0.542470	-0.527302	-0.113559
H66	H	1.148953	-0.439869	-0.924616
O67	O	1.156218	-0.778238	-0.447354
C68	C	1.146093	-0.702174	-0.437258
H69	H	1.122028	-0.691729	-0.380439
H70	H	1.106862	-0.680363	-0.480869
C71	C	1.250092	-0.675490	-0.513857
C72	C	1.220541	-0.662660	-0.444069
H73	H	1.296014	-0.651114	-0.518062
H74	H	1.256912	-0.726735	-0.520662
H75	H	1.217393	-0.657313	-0.550192
H76	H	1.253235	-0.680844	-0.407736
H77	H	1.213728	-0.611416	-0.437258
H78	H	1.148933	-0.439905	-0.785175
H79	H	0.633623	-0.269321	-0.440080
O80	O	0.488269	-0.261937	-0.447565
C81	C	0.538689	-0.220426	-0.489160
H82	H	0.593473	-0.250562	-0.491649
H83	H	0.546859	-0.164498	-0.462308
C84	C	0.441437	-0.172908	-0.564451
C85	C	0.508722	-0.209925	-0.567513
H86	H	0.422951	-0.166427	-0.612781
H87	H	0.407467	-0.200872	-0.536426
H88	H	0.448255	-0.126305	-0.542071
H89	H	0.501902	-0.256529	-0.589884
H90	H	0.542690	-0.181968	-0.595543
O91	O	0.970730	-0.261781	-0.779209
C92	C	0.897382	-0.277843	-0.797997
H93	H	0.893650	-0.336630	-0.819109
H94	H	0.878170	-0.238375	-0.842621
C95	C	0.852837	-0.197089	-0.703795
C96	C	0.848253	-0.269294	-0.729718
H97	H	0.822531	-0.191813	-0.661679
H98	H	0.902253	-0.186265	-0.691138
H99	H	0.836829	-0.164207	-0.740988
H100	H	0.864270	-0.302173	-0.692530
H101	H	0.798838	-0.280123	-0.742367
O102	O	0.970768	-0.778712	-0.261614
C103	C	0.929260	-0.829163	-0.220052
H104	H	0.959425	-0.883931	-0.217534
H105	H	0.873353	-0.837358	-0.246952
C106	C	0.881643	-0.731953	-0.144808
C107	C	0.918696	-0.799218	-0.141710
H108	H	0.875123	-0.713481	-0.096484
H109	H	0.909606	-0.697962	-0.172810
H110	H	0.835058	-0.738791	-0.167228
H111	H	0.965283	-0.792377	-0.119299
H112	H	0.890741	-0.833207	-0.113702
H113	H	1.148904	-0.923832	-0.440045
H114	H	0.978241	-0.924074	-0.269112
H115	H	0.978255	-0.269066	-0.924646
