data_functionalizedCrystal
_audit_creation_method	'MofGen! by Chris Wilmer'
_symmetry_space_group_name_H-M	'P1'
_symmetry_Int_Tables_number	1
_symmetry_cell_setting	triclinic
loop_
_symmetry_equiv_pos_as_xyz
  x,y,z
_cell_length_a	29.839134
_cell_length_b	29.839126
_cell_length_c	15.297327
_cell_angle_alpha	99.654969
_cell_angle_beta	99.703525
_cell_angle_gamma	89.970362
loop_
_atom_site_label
_atom_site_type_symbol
_atom_site_fract_x
_atom_site_fract_y
_atom_site_fract_z
Zn1	Zn	0.655831	-0.285083	-0.359361
Zn2	Zn	0.642772	-0.222948	-0.510216
Zn3	Zn	0.580704	-0.209952	-0.359358
Zn4	Zn	0.567685	-0.298032	-0.510169
O5	O	0.611748	-0.254004	-0.434776
O6	O	0.716964	-0.276860	-0.379394
O7	O	0.634522	-0.158359	-0.490223
O8	O	0.601583	-0.209060	-0.233111
O9	O	0.707370	-0.231210	-0.490226
O10	O	0.656779	-0.264258	-0.233113
O11	O	0.588921	-0.148810	-0.379389
O12	O	0.516112	-0.221617	-0.379343
O13	O	0.579394	-0.359180	-0.490146
O14	O	0.506546	-0.286329	-0.490143
O15	O	0.644155	-0.349666	-0.379348
O16	O	0.621898	-0.243767	-0.636458
O17	O	0.566731	-0.298931	-0.636424
C18	C	0.495029	-0.253968	-0.434738
C19	C	0.445094	-0.253965	-0.434743
C20	C	0.130469	-0.287672	-0.492555
C21	C	-0.057206	-0.287694	-0.492581
O22	O	-0.085703	-0.316329	-0.541692
N23	N	-0.075697	-0.254040	-0.434809
C24	C	-0.047265	-0.220381	-0.377024
O25	O	-0.067299	-0.191760	-0.327880
C26	C	0.140409	-0.220361	-0.376994
C27	C	0.158897	-0.254014	-0.434776
C28	C	0.148957	-0.321322	-0.550331
C29	C	0.195873	-0.321315	-0.550328
C30	C	0.224301	-0.287657	-0.492548
C31	C	0.205813	-0.254007	-0.434772
C32	C	0.168840	-0.186704	-0.319205
C33	C	0.215762	-0.186702	-0.319201
C34	C	0.234249	-0.220355	-0.376982
C35	C	0.281156	-0.220341	-0.376989
N36	N	0.299647	-0.253995	-0.434761
C37	C	0.271219	-0.287653	-0.492540
C38	C	-0.145798	-0.220393	-0.377044
C39	C	-0.192716	-0.220398	-0.377053
C40	C	-0.202654	-0.287711	-0.492609
C41	C	-0.155735	-0.287704	-0.492604
C42	C	-0.127307	-0.254046	-0.434816
C43	C	0.369746	-0.287634	-0.492529
C44	C	0.416666	-0.287623	-0.492523
C45	C	0.426600	-0.220311	-0.376964
C46	C	0.379683	-0.220321	-0.376973
C47	C	0.351257	-0.253986	-0.434758
O48	O	0.309680	-0.191724	-0.327897
O49	O	0.291262	-0.316275	-0.541662
C50	C	0.083553	-0.287679	-0.492559
C51	C	0.065065	-0.254028	-0.434783
C52	C	0.093493	-0.220371	-0.377003
C53	C	0.018147	-0.254033	-0.434791
C54	C	-0.010281	-0.287691	-0.492570
C55	C	0.008210	-0.321344	-0.550342
C56	C	0.055125	-0.321337	-0.550338
C57	C	0.075002	-0.186717	-0.319232
C58	C	0.028086	-0.186727	-0.319241
C59	C	-0.000342	-0.220385	-0.377020
C60	C	0.611779	-0.371179	-0.434742
C61	C	0.611792	-0.421112	-0.434727
C62	C	0.588064	-0.725779	-0.376925
C63	C	0.588082	-0.913447	-0.376863
O64	O	0.567878	-0.933488	-0.327807
N65	N	0.611828	-0.941883	-0.434558
C66	C	0.635568	-0.923400	-0.492277
O67	O	0.655762	-0.951893	-0.541355
C68	C	0.635547	-0.735734	-0.492343
C69	C	0.611804	-0.707299	-0.434638
C70	C	0.564322	-0.697345	-0.319225
C71	C	0.564320	-0.650431	-0.319238
C72	C	0.588059	-0.631950	-0.376951
C73	C	0.611801	-0.660385	-0.434651
C74	C	0.659284	-0.717252	-0.550067
C75	C	0.659276	-0.670332	-0.550080
C76	C	0.635533	-0.641897	-0.492374
C77	C	0.635539	-0.594990	-0.492376
N78	N	0.611793	-0.566554	-0.434681
C79	C	0.588053	-0.585034	-0.376968
C80	C	0.635578	-1.021927	-0.492237
C81	C	0.635584	-1.068844	-0.492219
C82	C	0.588097	-1.058887	-0.376806
C83	C	0.588094	-1.011970	-0.376819
C84	C	0.611832	-0.993491	-0.434542
C85	C	0.588051	-0.486511	-0.376999
C86	C	0.588052	-0.439593	-0.377014
C87	C	0.635537	-0.449553	-0.492431
C88	C	0.635538	-0.496467	-0.492412
C89	C	0.611791	-0.514945	-0.434694
O90	O	0.655728	-0.574918	-0.541413
O91	O	0.567855	-0.556534	-0.327911
C92	C	0.588066	-0.772694	-0.376912
C93	C	0.611808	-0.801128	-0.434612
C94	C	0.635548	-0.782647	-0.492325
C95	C	0.611814	-0.848044	-0.434595
C96	C	0.588074	-0.866524	-0.376882
C97	C	0.564329	-0.838088	-0.319187
C98	C	0.564327	-0.791174	-0.319200
C99	C	0.659293	-0.811084	-0.550020
C100	C	0.659294	-0.857998	-0.550002
C101	C	0.635554	-0.876478	-0.492289
C102	C	0.728923	-0.254040	-0.434815
C103	C	0.778856	-0.254055	-0.434832
C104	C	0.591497	-0.274174	-0.669176
C105	C	0.582875	-0.282818	-0.769453
C106	C	0.611749	-0.137279	-0.434746
C107	C	0.611844	-0.087324	-0.434506
C108	C	0.673558	-0.192377	-1.052064
C109	C	0.681659	-0.184254	-0.957849
C110	C	0.656964	-0.208894	-0.910745
C111	C	0.624166	-0.241659	-0.957866
C112	C	0.616062	-0.249782	-1.052090
C113	C	0.599467	-0.266298	-0.910771
C114	C	0.566670	-0.299064	-0.957892
C115	C	0.558567	-0.307184	-1.052108
C116	C	0.583262	-0.282544	-1.099211
C117	C	0.607572	-0.258176	-0.816547
C118	C	0.550075	-0.315580	-0.816574
C119	C	0.541974	-0.323704	-0.910789
C120	C	0.632090	-0.233765	-0.199462
C121	C	0.640759	-0.225140	-0.099185
H122	H	0.070173	-0.348741	-0.597389
C123	C	0.685071	-0.888939	-0.612553
C124	C	0.680006	-0.933982	-0.600182
C125	C	0.703748	-0.962495	-0.657779
H126	H	0.673282	-0.886515	-0.673206
H127	H	0.716406	-0.880152	-0.599349
H128	H	0.648678	-0.942767	-0.613392
H129	H	0.691798	-0.936420	-0.539541
H130	H	0.735083	-0.953708	-0.644575
H131	H	0.691957	-0.960068	-0.718428
H132	H	0.700318	-0.993060	-0.649387
H133	H	0.238906	-0.159295	-0.272136
C134	C	-0.022733	-0.357863	-0.612975
C135	C	-0.067775	-0.350667	-0.600586
C136	C	-0.096293	-0.384302	-0.658251
H137	H	-0.020341	-0.356487	-0.673612
H138	H	-0.013919	-0.386938	-0.599844
H139	H	-0.076587	-0.321600	-0.613723
H140	H	-0.070181	-0.352047	-0.539960
H141	H	-0.087479	-0.413377	-0.645120
H142	H	-0.093897	-0.382924	-0.718885
H143	H	-0.126857	-0.379427	-0.649847
H144	H	-0.207765	-0.192990	-0.330010
H145	H	0.364630	-0.192917	-0.329924
C146	C	0.148750	-0.150107	-0.256634
C147	C	0.117412	-0.125649	-0.307650
C148	C	0.098905	-0.091919	-0.250046
H149	H	0.133808	-0.163873	-0.217337
H150	H	0.172398	-0.130043	-0.222260
H151	H	0.093767	-0.145709	-0.342009
H152	H	0.132343	-0.111872	-0.346945
H153	H	0.122553	-0.071856	-0.215671
H154	H	0.083966	-0.105690	-0.210751
H155	H	0.077644	-0.075318	-0.284651
H156	H	-0.122656	-0.192983	-0.329985
C157	C	0.008076	-0.150113	-0.256554
C158	C	0.017791	-0.107327	-0.276060
C159	C	-0.000625	-0.073589	-0.218319
H160	H	-0.023941	-0.154863	-0.264758
H161	H	0.021018	-0.151496	-0.195944
H162	H	0.004847	-0.105945	-0.336655
H163	H	0.049804	-0.102563	-0.267850
H164	H	0.012317	-0.074973	-0.157709
H165	H	-0.032641	-0.078344	-0.226528
H166	H	0.005968	-0.044555	-0.231541
H167	H	0.544992	-0.768026	-0.272210
H168	H	0.545001	-0.853142	-0.272191
H169	H	0.678623	-0.796043	-0.597022
C170	C	0.562224	-0.408799	-0.314328
C171	C	0.541424	-0.435031	-0.263804
C172	C	0.517623	-0.406683	-0.206061
H173	H	0.582761	-0.387116	-0.274947
H174	H	0.539643	-0.393464	-0.348818
H175	H	0.564003	-0.450359	-0.229317
H176	H	0.520880	-0.456713	-0.303161
H177	H	0.495041	-0.391347	-0.240551
H178	H	0.538163	-0.385001	-0.166687
H179	H	0.503504	-0.424478	-0.171780
C180	C	0.574371	-0.291366	-1.201506
C181	C	0.528916	-0.282566	-1.232766
C182	C	0.520709	-0.290696	-1.326995
H183	H	0.593733	-0.272014	-1.222929
H184	H	0.580268	-0.322208	-1.222800
H185	H	0.523024	-0.251729	-1.211481
H186	H	0.509544	-0.301917	-1.211368
H187	H	0.526606	-0.321537	-1.348289
H188	H	0.540074	-0.271343	-1.348409
H189	H	0.489867	-0.284730	-1.348217
C190	C	0.523340	-0.342388	-0.765395
C191	C	0.553420	-0.366551	-0.711256
C192	C	0.528809	-0.391253	-0.664102
H193	H	0.506931	-0.322064	-0.728611
H194	H	0.502655	-0.363087	-0.806923
H195	H	0.574097	-0.345855	-0.669733
H196	H	0.569830	-0.386884	-0.748018
H197	H	0.508123	-0.411952	-0.705630
H198	H	0.512400	-0.370925	-0.627323
H199	H	0.549213	-0.407654	-0.627369
H200	H	0.531856	-0.333859	-1.090471
C201	C	0.506367	-0.359240	-0.962117
C202	C	0.504550	-0.361069	-1.054709
C203	C	0.471750	-0.393794	-1.102021
H204	H	0.514218	-0.388125	-0.946745
H205	H	0.477494	-0.351306	-0.946782
H206	H	0.533417	-0.369005	-1.070038
H207	H	0.496694	-0.332191	-1.070108
H208	H	0.442877	-0.385861	-1.086686
H209	H	0.479604	-0.422677	-1.086642
H210	H	0.470510	-0.395036	-1.164849
H211	H	0.654866	-0.434498	-0.539416
C212	C	0.700319	-0.165674	-1.103367
C213	C	0.686201	-0.179801	-1.195964
C214	C	0.710842	-0.155207	-1.243253
H215	H	0.695091	-0.134150	-1.088060
H216	H	0.731843	-0.170941	-1.087949
H217	H	0.654685	-0.174530	-1.211376
H218	H	0.691430	-0.211321	-1.211298
H219	H	0.742365	-0.160473	-1.227835
H220	H	0.705612	-0.123683	-1.227938
H221	H	0.701269	-0.164791	-1.306085
H222	H	0.431716	-0.315028	-0.539579
H223	H	0.449754	-0.192907	-0.329924
H224	H	0.346607	-0.315049	-0.539581
C225	C	0.562202	-0.506603	-0.314480
C226	C	0.528982	-0.537907	-0.365535
C227	C	0.505161	-0.556420	-0.307971
H228	H	0.582735	-0.521568	-0.275150
H229	H	0.548037	-0.482960	-0.280138
H230	H	0.543147	-0.561547	-0.399862
H231	H	0.508440	-0.522954	-0.404862
H232	H	0.490996	-0.532777	-0.273628
H233	H	0.525697	-0.571382	-0.268644
H234	H	0.482616	-0.577659	-0.342603
C235	C	0.643144	-0.222543	-0.765509
C236	C	0.631415	-0.180067	-0.788508
C237	C	0.664180	-0.147231	-0.741519
H238	H	0.644465	-0.221171	-0.702635
H239	H	0.672008	-0.230452	-0.780921
H240	H	0.602560	-0.172160	-0.773090
H241	H	0.630098	-0.181424	-0.851374
H242	H	0.693043	-0.155139	-0.756931
H243	H	0.665498	-0.145863	-0.678648
H244	H	0.656228	-0.118408	-0.757124
C245	C	0.215858	-0.357908	-0.613090
C246	C	0.180914	-0.387389	-0.663666
C247	C	0.199304	-0.421111	-0.721484
H248	H	0.230755	-0.344129	-0.652434
H249	H	0.237134	-0.374571	-0.578652
H250	H	0.159645	-0.370729	-0.698102
H251	H	0.166013	-0.401180	-0.624346
H252	H	0.220581	-0.437774	-0.687045
H253	H	0.214201	-0.407328	-0.760822
H254	H	0.175598	-0.441120	-0.755801
H255	H	-0.225808	-0.315117	-0.539655
C256	C	0.118035	-0.357799	-0.613125
C257	C	0.086093	-0.337287	-0.670873
C258	C	0.057599	-0.370875	-0.728732
H259	H	0.135713	-0.377854	-0.647613
H260	H	0.102688	-0.374438	-0.578707
H261	H	0.101438	-0.320656	-0.705287
H262	H	0.068404	-0.317235	-0.636409
H263	H	0.042252	-0.387514	-0.694314
H264	H	0.075281	-0.390928	-0.763214
H265	H	0.035921	-0.356962	-0.767915
C266	C	0.538491	-0.619641	-0.256557
C267	C	0.517694	-0.645877	-0.206037
C268	C	0.493888	-0.617534	-0.148294
H269	H	0.559025	-0.597956	-0.217174
H270	H	0.515907	-0.604307	-0.291047
H271	H	0.540274	-0.661204	-0.171550
H272	H	0.497152	-0.667561	-0.245396
H273	H	0.471305	-0.602200	-0.182784
H274	H	0.514426	-0.595850	-0.108917
H275	H	0.479771	-0.635331	-0.114015
C276	C	0.717304	-0.148683	-0.906854
C277	C	0.737207	-0.128852	-0.968268
C278	C	0.770052	-0.096086	-0.921324
H279	H	0.703339	-0.125885	-0.870140
H280	H	0.740056	-0.162710	-0.870073
H281	H	0.714459	-0.114824	-1.005033
H282	H	0.751181	-0.151638	-1.004984
H283	H	0.792804	-0.110113	-0.884543
H284	H	0.756083	-0.073291	-0.884611
H285	H	0.783563	-0.082629	-0.962985
C286	C	0.538475	-0.717438	-0.256710
C287	C	0.505255	-0.748744	-0.307761
C288	C	0.481432	-0.767253	-0.250196
H289	H	0.559006	-0.732400	-0.217374
H290	H	0.524308	-0.693793	-0.222373
H291	H	0.519421	-0.772386	-0.342082
H292	H	0.484714	-0.733793	-0.347095
H293	H	0.467266	-0.743607	-0.215859
H294	H	0.501967	-0.782213	-0.210863
H295	H	0.458887	-0.788493	-0.284826
C296	C	0.562241	-1.078902	-0.314202
C297	C	0.516095	-1.069151	-0.333834
C298	C	0.492261	-1.087578	-0.276183
H299	H	0.565589	-1.110918	-0.322402
H300	H	0.574024	-1.065993	-0.253571
H301	H	0.504316	-1.082062	-0.394451
H302	H	0.512733	-1.037139	-0.325629
H303	H	0.504044	-1.074669	-0.215552
H304	H	0.495613	-1.119593	-0.284388
H305	H	0.460949	-1.080961	-0.289491
C306	C	0.661328	-0.527269	-0.555155
C307	C	0.682110	-0.501041	-0.605711
C308	C	0.705864	-0.529397	-0.663534
H309	H	0.683916	-0.542626	-0.520749
H310	H	0.640750	-0.548935	-0.594505
H311	H	0.702686	-0.479383	-0.566366
H312	H	0.659532	-0.485684	-0.640135
H313	H	0.685286	-0.551064	-0.702884
H314	H	0.728450	-0.544753	-0.629121
H315	H	0.719964	-0.511606	-0.697849
C316	C	0.562273	-0.981055	-0.314321
C317	C	0.529065	-0.958496	-0.365401
C318	C	0.505272	-0.930012	-0.307858
H319	H	0.548097	-0.998731	-0.279927
H320	H	0.582839	-0.959353	-0.275037
H321	H	0.508503	-0.980195	-0.404669
H322	H	0.543230	-0.940811	-0.399793
H323	H	0.525838	-0.908310	-0.268574
H324	H	0.491098	-0.947691	-0.273467
H325	H	0.482741	-0.914698	-0.342507
H326	H	-0.140686	-0.315108	-0.539654
H327	H	0.098144	-0.159309	-0.272180
H328	H	0.654924	-1.091991	-0.539199
C329	C	0.685069	-0.748044	-0.612825
C330	C	0.705841	-0.721810	-0.663385
C331	C	0.729593	-0.750160	-0.721222
H332	H	0.707662	-0.763400	-0.578429
H333	H	0.664491	-0.769711	-0.652172
H334	H	0.726417	-0.700150	-0.624043
H335	H	0.683258	-0.706454	-0.697799
H336	H	0.709015	-0.771827	-0.760569
H337	H	0.752184	-0.765514	-0.686819
H338	H	0.743686	-0.732365	-0.755539
H339	H	0.654908	-1.006887	-0.539246
H340	H	0.678610	-0.655289	-0.597079
H341	H	0.663561	-0.202277	-0.834031
