data_functionalizedCrystal
_audit_creation_method	'MofGen! by Chris Wilmer'
_symmetry_space_group_name_H-M	'P1'
_symmetry_Int_Tables_number	1
_symmetry_cell_setting	triclinic
loop_
_symmetry_equiv_pos_as_xyz
  x,y,z
_cell_length_a	6.817900
_cell_length_b	14.125286
_cell_length_c	11.168138
_cell_angle_alpha	94.674692
_cell_angle_beta	108.508793
_cell_angle_gamma	100.396688
loop_
_atom_site_label
_atom_site_type_symbol
_atom_site_fract_x
_atom_site_fract_y
_atom_site_fract_z
V1	V	-4.016801	-0.299998	-0.173730
O2	O	-3.978159	-0.294279	0.009352
O3	O	-3.993724	-0.297955	-0.345442
O4	O	-3.952496	-0.430835	-0.170617
O5	O	-4.019672	-0.160480	-0.166683
V6	V	-4.499209	-0.283310	-0.151883
O7	O	-4.280506	-0.336606	-0.221652
O8	O	-4.685701	-0.246702	-0.103961
O9	O	-4.299079	-0.285354	0.019829
O10	O	-4.655248	-0.289029	-0.334964
O11	O	-4.613735	-0.422829	-0.158930
O12	O	-4.340307	-0.152474	-0.154996
C13	C	-3.792809	-0.462724	-0.164307
C14	C	-3.821684	-0.569684	-0.162899
C15	C	-3.845400	-0.293224	-0.387315
C16	C	-3.907713	-0.292425	-0.527689
C17	C	-4.060830	-0.817806	-0.165458
C18	C	-3.874560	-0.765491	-0.160153
C19	C	-3.845140	-0.656534	-0.161681
C20	C	-4.090258	-0.926773	-0.163930
C21	C	-3.762071	-0.287506	-0.584176
C22	C	-3.826471	-0.286680	-0.729260
C23	C	-4.163338	-0.120579	-0.161309
C24	C	-4.113701	-0.013619	-0.162712
C25	C	-4.110746	-0.290082	0.061696
C26	C	-4.027671	-0.290887	0.202068
H27	H	-3.737183	-0.802532	-0.154460
H28	H	-4.198195	-0.780766	-0.171148
C29	C	-3.510622	-0.284410	-0.376178
C30	C	-3.529376	-0.282649	-0.504476
H31	H	-3.366964	-0.281418	-0.326981
H32	H	-3.555310	-0.230140	-0.345916
H33	H	-3.596851	-0.342878	-0.368627
H34	H	-3.443159	-0.224177	-0.512028
H35	H	-3.484663	-0.336924	-0.534747
H36	H	-3.701890	-0.282472	-0.777862
C37	C	-4.142609	-0.214196	-0.640151
C38	C	-4.195884	-0.296572	-0.732342
H39	H	-4.246462	-0.217705	-0.599659
H40	H	-4.008052	-0.211674	-0.578270
H41	H	-4.137218	-0.157344	-0.680010
H42	H	-4.201259	-0.353423	-0.692482
H43	H	-4.330477	-0.299104	-0.794233
H44	H	-4.080076	-0.296016	-0.586736
