data_functionalizedCrystal
_audit_creation_method	'MofGen! by Chris Wilmer'
_symmetry_space_group_name_H-M	'P1'
_symmetry_Int_Tables_number	1
_symmetry_cell_setting	triclinic
loop_
_symmetry_equiv_pos_as_xyz
  x,y,z
_cell_length_a	21.395364
_cell_length_b	12.759400
_cell_length_c	12.759387
_cell_angle_alpha	89.938992
_cell_angle_beta	89.957084
_cell_angle_gamma	90.028117
loop_
_atom_site_label
_atom_site_type_symbol
_atom_site_fract_x
_atom_site_fract_y
_atom_site_fract_z
Zn1	Zn	0.958049	-0.417468	-0.594080
Zn2	Zn	0.957950	-0.593281	-0.418403
Zn3	Zn	0.853231	-0.417662	-0.418409
Zn4	Zn	0.853265	-0.593151	-0.594035
O5	O	0.905624	-0.505391	-0.506232
O6	O	1.045714	-0.440763	-0.570792
O7	O	0.944003	-0.570120	-0.271383
O8	O	0.867162	-0.270615	-0.441734
O9	O	1.045641	-0.569932	-0.441723
O10	O	0.944172	-0.270473	-0.570798
O11	O	0.867066	-0.441094	-0.271387
O12	O	0.765557	-0.440968	-0.441690
O13	O	0.867221	-0.569711	-0.741062
O14	O	0.765583	-0.569900	-0.570722
O15	O	0.944205	-0.440638	-0.741095
O16	O	0.944037	-0.740285	-0.441680
O17	O	0.867125	-0.740190	-0.570716
C18	C	0.742836	-0.505442	-0.506202
C19	C	0.673195	-0.505489	-0.506215
C20	C	0.640542	-0.438341	-0.573525
C21	C	0.575107	-0.438313	-0.573529
C22	C	0.542327	-0.505452	-0.506234
C23	C	0.574987	-0.572605	-0.438911
C24	C	0.640422	-0.572623	-0.438901
C25	C	0.438618	-0.600074	-0.497796
C26	C	0.373185	-0.600057	-0.497813
C27	C	0.340506	-0.505394	-0.506257
C28	C	0.373268	-0.410745	-0.514706
C29	C	0.438702	-0.410764	-0.514697
C30	C	0.471374	-0.505439	-0.506236
C31	C	0.236901	-0.438210	-0.573575
C32	C	0.171464	-0.438180	-0.573572
C33	C	0.171346	-0.572481	-0.438959
C34	C	0.236781	-0.572502	-0.438957
C35	C	0.269555	-0.505367	-0.506271
C36	C	0.905591	-0.778358	-0.506215
C37	C	0.905634	-0.895135	-0.506243
C38	C	0.945713	-0.949843	-0.573502
C39	C	0.945742	-1.059567	-0.573528
C40	C	0.865612	-1.059865	-0.439027
C41	C	0.865580	-0.950143	-0.439007
C42	C	0.985767	-0.894834	-0.640738
C43	C	1.025850	-0.949542	-0.708002
C44	C	1.025879	-1.059266	-0.708028
C45	C	0.985826	-1.114282	-0.640790
C46	C	1.069047	-0.505340	-0.506262
C47	C	1.138688	-0.505319	-0.506275
C48	C	0.905728	-0.505138	-0.780266
C49	C	0.905773	-0.505031	-0.897043
C50	C	0.905674	-0.231357	-0.506272
C51	C	0.905695	-0.114581	-0.506288
C52	C	0.905556	-0.505566	-0.233264
C53	C	0.905633	-0.505378	-0.116488
C54	C	0.865947	-0.572802	0.048400
C55	C	0.865879	-0.572979	-0.061323
C56	C	0.945463	-0.437603	-0.061923
C57	C	0.945534	-0.437433	0.047799
C58	C	0.826186	-0.640400	0.103559
C59	C	0.786357	-0.708176	0.049002
C60	C	0.786288	-0.708353	-0.060722
C61	C	0.826049	-0.640753	-0.115888
H62	H	0.144879	-0.383494	-0.628382
H63	H	0.346515	-0.677126	-0.490938
C64	C	0.135296	-0.646338	-0.364941
H65	H	0.091648	-0.636716	-0.374591
H66	H	0.145990	-0.630928	-0.294373
H67	H	0.146000	-0.716944	-0.380209
C68	C	0.821562	-1.120380	-0.365064
H69	H	0.827326	-1.193562	-0.374702
H70	H	0.779457	-1.102451	-0.380368
H71	H	0.830739	-1.102470	-0.294481
C72	C	1.069897	-0.889035	-0.781975
H73	H	1.093763	-0.937335	-0.822048
H74	H	1.097191	-0.846233	-0.741832
H75	H	1.045902	-0.846220	-0.827707
H76	H	0.465374	-0.333697	-0.521573
C77	C	0.742625	-0.782531	0.109680
H78	H	0.748365	-0.772715	0.182840
H79	H	0.752074	-0.853034	0.091858
H80	H	0.700452	-0.767700	0.091784
H81	H	0.263367	-0.627186	-0.384150
H82	H	0.826237	-0.640263	0.192902
C83	C	0.985734	-0.774142	-0.640711
H84	H	0.956130	-0.749438	-0.591019
H85	H	0.974891	-0.749248	-0.708488
H86	H	1.026163	-0.749283	-0.622585
C87	C	1.069967	-1.119443	-0.782013
H88	H	1.093818	-1.070964	-0.822045
H89	H	1.046011	-1.162228	-0.827766
H90	H	1.097283	-1.162250	-0.741863
H91	H	0.346662	-0.333661	-0.521582
C92	C	0.676344	-0.646493	-0.364864
H93	H	0.720008	-0.636885	-0.374495
H94	H	0.665599	-0.717090	-0.380118
H95	H	0.665594	-0.631060	-0.294297
C96	C	0.985831	-1.234976	-0.640864
H97	H	1.015431	-1.259682	-0.690563
H98	H	0.945396	-1.259795	-0.658987
H99	H	0.996676	-1.259911	-0.573097
H100	H	0.832943	-0.905599	-0.384240
H101	H	0.263586	-0.383538	-0.628379
C102	C	0.742480	-0.782902	-0.120733
H103	H	0.718808	-0.823128	-0.072164
H104	H	0.766606	-0.828450	-0.163490
H105	H	0.714986	-0.743112	-0.163554
C106	C	0.538935	-0.646459	-0.364888
H107	H	0.567756	-0.686449	-0.324792
H108	H	0.513412	-0.692255	-0.405002
H109	H	0.513402	-0.606226	-0.319180
C110	C	0.989193	-0.363244	-0.122599
H111	H	1.012926	-0.322862	-0.074390
H112	H	0.965008	-0.317835	-0.165446
H113	H	1.016632	-0.403165	-0.165380
C114	C	0.676592	-0.364495	-0.647562
H115	H	0.720240	-0.374128	-0.637925
H116	H	0.665889	-0.293891	-0.632316
H117	H	0.665896	-0.379928	-0.718129
C118	C	0.825976	-0.640953	-0.236582
H119	H	0.796561	-0.690996	-0.261176
H120	H	0.866467	-0.658653	-0.261478
H121	H	0.814840	-0.573328	-0.261550
H122	H	0.977963	-0.382246	0.092220
H123	H	0.548516	-0.383627	-0.628339
H124	H	0.465220	-0.677165	-0.490919
