data_functionalizedCrystal
_audit_creation_method	'MofGen! by Chris Wilmer'
_symmetry_space_group_name_H-M	'P1'
_symmetry_Int_Tables_number	1
_symmetry_cell_setting	triclinic
loop_
_symmetry_equiv_pos_as_xyz
  x,y,z
_cell_length_a	16.625548
_cell_length_b	16.625545
_cell_length_c	16.625539
_cell_angle_alpha	90.028107
_cell_angle_beta	90.020568
_cell_angle_gamma	90.026626
loop_
_atom_site_label
_atom_site_type_symbol
_atom_site_fract_x
_atom_site_fract_y
_atom_site_fract_z
Zn1	Zn	1.232663	-0.320977	0.455910
Zn2	Zn	1.732663	0.179023	0.955910
Zn3	Zn	1.232559	-0.455820	0.321078
Zn4	Zn	1.732559	0.044180	0.821078
Zn5	Zn	1.097825	-0.321008	0.321091
Zn6	Zn	1.597825	0.178992	0.821091
Zn7	Zn	1.097788	-0.455774	0.455868
Zn8	Zn	1.597788	0.044226	0.955868
O9	O	1.165209	-0.388395	0.388487
O10	O	1.665209	0.111605	0.888487
O11	O	1.345482	-0.338871	0.438037
O12	O	1.845482	0.161129	0.938037
O13	O	1.214658	-0.437969	0.208247
O14	O	1.714658	0.062031	0.708247
O15	O	1.115771	-0.208171	0.338998
O16	O	1.615771	0.291829	0.838998
O17	O	1.345405	-0.437940	0.338976
O18	O	1.845405	0.062060	0.838976
O19	O	1.214836	-0.208149	0.438050
O20	O	1.714836	0.291851	0.938050
O21	O	1.115670	-0.338923	0.208257
O22	O	1.615670	0.161077	0.708257
O23	O	0.984988	-0.338878	0.338957
O24	O	1.484988	0.161122	0.838957
O25	O	1.115708	-0.437861	0.568706
O26	O	1.615708	0.062139	1.068706
O27	O	0.984961	-0.437891	0.437977
O28	O	1.484961	0.062109	0.937977
O29	O	1.214800	-0.338826	0.568737
O30	O	1.714800	0.161174	1.068737
O31	O	1.214622	-0.568647	0.338935
O32	O	1.714622	-0.068647	0.838935
O33	O	1.115607	-0.568613	0.437965
O34	O	1.615607	-0.068613	0.937965
C35	C	0.955718	-0.388383	0.388464
C36	C	1.455718	0.111617	0.888464
C37	C	0.866097	-0.388398	0.388474
C38	C	1.366097	0.111602	0.888474
C39	C	0.537921	-0.388403	0.388508
C40	C	1.037921	0.111597	0.888508
C41	C	0.629230	-0.388399	0.388496
C42	C	1.129230	0.111601	0.888496
C43	C	0.702006	-0.388401	0.388490
C44	C	1.202006	0.111599	0.888490
C45	C	0.793320	-0.388396	0.388480
C46	C	1.293320	0.111604	0.888480
C47	C	1.165121	-0.597886	0.388462
C48	C	1.665121	-0.097886	0.888462
C49	C	1.165158	-0.687507	0.388478
C50	C	1.665158	-0.187507	0.888478
C51	C	1.165189	-0.760289	0.388494
C52	C	1.665189	-0.260289	0.888494
C53	C	1.165236	-0.851598	0.388511
C54	C	1.665236	-0.351598	0.888511
C55	C	1.165278	-0.924374	0.388522
C56	C	1.665278	-0.424374	0.888522
C57	C	1.165324	-1.015688	0.388538
C58	C	1.665324	-0.515688	0.888538
C59	C	1.375518	-0.388407	0.388510
C60	C	1.875518	0.111593	0.888510
C61	C	1.465139	-0.388412	0.388520
C62	C	1.965139	0.111588	0.888520
C63	C	1.165261	-0.388335	0.598796
C64	C	1.665261	0.111665	1.098796
C65	C	1.165284	-0.388309	0.688417
C66	C	1.665284	0.111691	1.188417
C67	C	1.165319	-0.178086	0.388530
C68	C	1.665319	0.321914	0.888530
C69	C	1.165366	-0.088465	0.388548
C70	C	1.665366	0.411535	0.888548
C71	C	1.165203	-0.388397	0.178996
C72	C	1.665203	0.111603	0.678996
C73	C	1.165337	-0.388195	0.089375
C74	C	1.665337	0.111805	0.589375
C75	C	1.165321	-0.388219	1.016593
C76	C	1.665321	0.111781	1.516593
C77	C	1.165308	-0.388247	0.925284
C78	C	1.665308	0.111753	1.425284
C79	C	1.165303	-0.388265	0.852508
C80	C	1.665303	0.111735	1.352508
C81	C	1.165289	-0.388291	0.761194
C82	C	1.665289	0.111709	1.261194
