data_functionalizedCrystal
_audit_creation_method	'MofGen! by Chris Wilmer'
_symmetry_space_group_name_H-M	'P1'
_symmetry_Int_Tables_number	1
_symmetry_cell_setting	triclinic
loop_
_symmetry_equiv_pos_as_xyz
  x,y,z
_cell_length_a	10.654550
_cell_length_b	9.130313
_cell_length_c	10.654551
_cell_angle_alpha	89.998448
_cell_angle_beta	84.485132
_cell_angle_gamma	90.003780
loop_
_atom_site_label
_atom_site_type_symbol
_atom_site_fract_x
_atom_site_fract_y
_atom_site_fract_z
O1	O	1.667835	0.121910	0.176393
O2	O	1.302356	0.121885	0.193199
O3	O	1.493498	0.121899	0.002057
O4	O	1.476693	0.121896	0.367535
O5	O	1.493496	-0.121700	0.002062
O6	O	1.302354	-0.121713	0.193204
O7	O	1.667832	-0.121689	0.176398
Cu8	Cu	1.485093	-0.143944	0.184802
Cu9	Cu	1.485096	0.144140	0.184796
O10	O	1.476691	-0.121703	0.367540
C11	C	1.255557	0.000083	0.191968
C12	C	1.116114	0.000074	0.188276
N13	N	1.485100	-0.346566	0.184805
C14	C	1.036629	0.000095	0.300817
C15	C	0.905608	0.000120	0.297341
C16	C	0.933570	0.000110	0.068771
C17	C	1.064589	0.000074	0.072249
C18	C	1.088154	0.000094	0.416844
C19	C	1.008667	0.000116	0.529395
C20	C	0.877647	0.000142	0.525918
C21	C	0.826112	0.000145	0.409891
C22	C	1.569760	-0.423212	0.100196
C23	C	1.569756	-0.576549	0.100181
C24	C	1.400430	-0.576581	0.269395
C25	C	1.400428	-0.423246	0.269403
C26	C	1.654431	-0.346532	0.015599
C27	C	1.739099	-0.423178	-0.069016
C28	C	1.739095	-0.576515	-0.069031
C29	C	1.654425	-0.653206	0.015569
C30	C	1.714632	0.000117	0.177629
C31	C	1.854075	0.000135	0.181321
C32	C	1.492263	0.000103	-0.044739
C33	C	1.488570	0.000112	-0.184182
N34	N	1.485098	0.346763	0.184782
C35	C	1.486839	0.132895	-0.249696
C36	C	1.483359	0.132888	-0.380717
C37	C	1.483346	-0.132696	-0.380697
C38	C	1.486817	-0.132688	-0.249678
C39	C	1.488592	0.265696	-0.184201
C40	C	1.486863	0.398490	-0.249716
C41	C	1.483382	0.398483	-0.380736
C42	C	1.481632	0.265682	-0.446241
C43	C	1.477926	0.000097	0.414336
C44	C	1.481619	0.000097	0.553779
H45	H	1.050636	0.000101	0.623860
O46	O	0.698831	0.000425	0.406575
C47	C	0.647413	0.126578	0.468125
H48	H	0.723182	0.214741	0.468115
H49	H	0.565795	0.168947	0.416556
H50	H	0.611683	0.098057	0.569473
O51	O	0.883305	0.000191	-0.043822
C52	C	0.750620	0.000194	-0.022758
H53	H	0.720726	0.046315	0.074984
H54	H	0.709773	0.070935	-0.097065
H55	H	0.714069	-0.116661	-0.029160
O56	O	1.488328	0.527528	-0.186126
C57	C	1.378914	0.608310	-0.204900
H58	H	1.302070	0.530598	-0.231620
H59	H	1.344753	0.668559	-0.114290
H60	H	1.401443	0.691095	-0.283968
H61	H	0.812931	0.000145	0.617562
O62	O	1.141628	0.000132	-0.037189
C63	C	1.068059	0.000121	-0.140343
H64	H	0.970576	0.046261	-0.109324
H65	H	1.115714	0.070838	-0.219264
H66	H	1.058399	-0.116741	-0.175854
O67	O	1.481481	-0.261598	-0.444441
C68	C	1.370880	-0.269569	-0.506925
H69	H	1.334164	-0.154279	-0.522135
H70	H	1.392858	-0.325775	-0.602040
H71	H	1.296184	-0.335099	-0.447129
H72	H	1.478779	0.265687	-0.552925
O73	O	1.821145	-0.348555	-0.151291
C74	C	1.753183	-0.259918	-0.229410
H75	H	1.655366	-0.236930	-0.180264
H76	H	1.805431	-0.152100	-0.248849
H77	H	1.743797	-0.319047	-0.322286
O78	O	1.821278	-0.650810	-0.151397
C79	C	1.799776	-0.613350	-0.275913
H80	H	1.751368	-0.502023	-0.276202
H81	H	1.893643	-0.608088	-0.336880
H82	H	1.736931	-0.699647	-0.315347
H83	H	1.194836	0.000080	0.419687
O84	O	1.318141	-0.651237	0.351402
C85	C	1.240065	-0.739907	0.283414
H86	H	1.289234	-0.762858	0.185599
H87	H	1.220658	-0.847741	0.335643
H88	H	1.147171	-0.680825	0.274023
H89	H	1.481961	0.506609	-0.434073
H90	H	1.654444	-0.221678	0.015606
H91	H	1.654420	-0.778063	0.015541
H92	H	1.331490	-0.360841	0.338298
H93	H	1.491429	0.265716	-0.077518
H94	H	1.488200	-0.240812	-0.196331
