data_functionalizedCrystal
_audit_creation_method	'MofGen! by Chris Wilmer'
_symmetry_space_group_name_H-M	'P1'
_symmetry_Int_Tables_number	1
_symmetry_cell_setting	triclinic
loop_
_symmetry_equiv_pos_as_xyz
  x,y,z
_cell_length_a	12.759401
_cell_length_b	12.759394
_cell_length_c	12.759393
_cell_angle_alpha	90.031574
_cell_angle_beta	89.980324
_cell_angle_gamma	89.977086
loop_
_atom_site_label
_atom_site_type_symbol
_atom_site_fract_x
_atom_site_fract_y
_atom_site_fract_z
Zn1	Zn	1.606209	0.418204	-0.593977
Zn2	Zn	2.106209	0.918204	-0.093977
Zn3	Zn	1.606077	0.593919	-0.418294
Zn4	Zn	2.106077	1.093919	0.081706
Zn5	Zn	1.430508	0.418256	-0.418316
Zn6	Zn	1.930508	0.918256	0.081684
Zn7	Zn	1.430476	0.593843	-0.593935
Zn8	Zn	1.930476	1.093843	-0.093935
O9	O	1.518318	0.506056	-0.506130
O10	O	2.018318	1.006056	-0.006130
O11	O	1.753213	0.441523	-0.570680
O12	O	2.253213	0.941523	-0.070680
O13	O	1.582745	0.570671	-0.271275
O14	O	2.082745	1.070671	0.228725
O15	O	1.453884	0.271228	-0.441645
O16	O	1.953884	0.771228	0.058355
O17	O	1.753115	0.570620	-0.441607
O18	O	2.253115	1.070620	0.058393
O19	O	1.582971	0.271190	-0.570702
O20	O	2.082971	0.771190	-0.070702
O21	O	1.453756	0.441612	-0.271292
O22	O	1.953756	0.941612	0.228708
O23	O	1.283483	0.441538	-0.441604
O24	O	1.783483	0.941538	0.058396
O25	O	1.453830	0.570490	-0.740961
O26	O	1.953830	1.070490	-0.240961
O27	O	1.283459	0.570541	-0.570630
O28	O	1.783459	1.070541	-0.070630
O29	O	1.582940	0.441449	-0.740992
O30	O	2.082940	0.941449	-0.240992
O31	O	1.582714	0.740930	-0.441566
O32	O	2.082714	1.240930	0.058434
O33	O	1.453701	0.740874	-0.570609
O34	O	1.953701	1.240874	-0.070609
C35	C	1.245350	0.506037	-0.506115
C36	C	1.745350	1.006037	-0.006115
C37	C	1.128574	0.506055	-0.506134
C38	C	1.628574	1.006055	-0.006134
C39	C	1.073763	0.438955	-0.573446
C40	C	1.573763	0.938955	-0.073446
C41	C	0.964039	0.438966	-0.573453
C42	C	1.464039	0.938966	-0.073453
C43	C	0.963946	0.573185	-0.438833
C44	C	1.463946	1.073185	0.061167
C45	C	1.073668	0.573168	-0.438821
C46	C	1.573668	1.073168	0.061179
C47	C	1.518218	0.779023	-0.506103
C48	C	2.018218	1.279023	-0.006103
C49	C	1.518272	0.895800	-0.506127
C50	C	2.018272	1.395800	-0.006127
C51	C	1.652589	0.895601	-0.640615
C52	C	2.152589	1.395601	-0.140615
C53	C	1.719773	0.950363	-0.707865
C54	C	2.219773	1.450363	-0.207865
C55	C	1.719819	1.060085	-0.707884
C56	C	2.219819	1.560085	-0.207884
C57	C	1.652672	1.115047	-0.640647
C58	C	2.152672	1.615047	-0.140647
C59	C	1.585488	1.060285	-0.573397
C60	C	2.085488	1.560285	-0.073397
C61	C	1.585452	0.950561	-0.573384
C62	C	2.085452	1.450561	-0.073384
C63	C	1.451167	1.060484	-0.438916
C64	C	1.951167	1.560484	0.061084
C65	C	1.451124	0.950762	-0.438890
C66	C	1.951124	1.450762	0.061110
C67	C	1.384019	1.115446	-0.371680
C68	C	1.884019	1.615446	0.128320
C69	C	1.316839	1.060685	-0.304423
C70	C	1.816839	1.560685	0.195577
C71	C	1.316797	0.950956	-0.304406
C72	C	1.816797	1.450956	0.195594
C73	C	1.383941	0.896001	-0.371640
C74	C	1.883941	1.396001	0.128360
C75	C	1.792351	0.506074	-0.506146
C76	C	2.292351	1.006074	-0.006146
C77	C	1.909128	0.506082	-0.506152
C78	C	2.409128	1.006082	-0.006152
C79	C	1.518408	1.232022	-0.506171
C80	C	2.018408	1.732022	-0.006171
C81	C	1.518350	1.115245	-0.506166
C82	C	2.018350	1.615245	-0.006166
C83	C	1.518396	0.505955	-0.780164
C84	C	2.018396	1.005955	-0.280164
C85	C	1.518430	0.505912	-0.896940
C86	C	2.018430	1.005912	-0.396940
C87	C	1.585663	0.438709	-0.951820
C88	C	2.085663	0.938709	-0.451820
C89	C	1.585680	0.438664	-1.061544
C90	C	2.085680	0.938664	-0.561544
C91	C	1.451230	0.573033	-1.061499
C92	C	1.951230	1.073033	-0.561499
C93	C	1.451207	0.573072	-0.951777
C94	C	1.951207	1.073072	-0.451777
C95	C	1.518300	0.506080	-0.233163
C96	C	2.018300	1.006080	0.266837
C97	C	1.518470	0.505827	-0.116387
C98	C	2.018470	1.005827	0.383613
H99	H	1.652569	0.806260	-0.640597
H100	H	2.152569	1.306260	-0.140597
H101	H	1.396451	0.627795	-0.907093
H102	H	1.896451	1.127795	-0.407093
Br103	Br	1.148061	0.664224	-0.347447
Br104	Br	1.648061	1.164224	0.152553
Br105	Br	1.810884	0.875768	-0.799123
Br106	Br	2.310884	1.375768	-0.299123
H107	H	0.919228	0.627827	-0.384030
H108	H	1.419228	1.127827	0.115970
Br109	Br	1.810991	1.134409	-0.799157
Br110	Br	2.310991	1.634409	-0.299157
Br111	Br	1.148275	0.347871	-0.664796
Br112	Br	1.648275	0.847871	-0.164796
H113	H	0.919417	0.384325	-0.628264
H114	H	1.419417	0.884325	-0.128264
Br115	Br	1.652900	1.263956	-0.640510
Br116	Br	2.152900	1.763956	-0.140510
H117	H	1.640397	0.384020	-0.907175
H118	H	2.140397	0.884020	-0.407175
Br119	Br	1.384238	1.264355	-0.371546
Br120	Br	1.884238	1.764355	0.128454
H121	H	1.262169	1.105444	-0.249690
H122	H	1.762169	1.605444	0.250310
Br123	Br	1.225606	0.876646	-0.213141
Br124	Br	1.725606	1.376646	0.286859
Br125	Br	1.383873	0.747092	-0.371639
Br126	Br	1.883873	1.247092	0.128361
H127	H	1.396502	0.627714	-1.106161
H128	H	1.896502	1.127714	-0.606161
H129	H	1.640426	0.383939	-1.106223
H130	H	2.140426	0.883939	-0.606223
