data_functionalizedCrystal
_audit_creation_method	'MofGen! by Chris Wilmer'
_symmetry_space_group_name_H-M	'P1'
_symmetry_Int_Tables_number	1
_symmetry_cell_setting	triclinic
loop_
_symmetry_equiv_pos_as_xyz
  x,y,z
_cell_length_a	19.288864
_cell_length_b	15.538191
_cell_length_c	18.366186
_cell_angle_alpha	89.995484
_cell_angle_beta	89.977106
_cell_angle_gamma	65.204172
loop_
_atom_site_label
_atom_site_type_symbol
_atom_site_fract_x
_atom_site_fract_y
_atom_site_fract_z
O1	O	0.891965	0.117639	-0.060769
O2	O	0.685740	0.133508	-0.060717
O3	O	0.828996	-0.011726	-0.060756
O4	O	0.748709	0.262873	-0.060729
O5	O	0.828980	-0.011734	0.060343
O6	O	0.685724	0.133501	0.060382
O7	O	0.891949	0.117632	0.060331
Zn8	Zn	0.788834	0.125565	0.079584
Zn9	Zn	0.788855	0.125574	-0.079970
O10	O	0.748693	0.262866	0.060370
C11	C	0.659983	0.132994	-0.000161
C12	C	0.583263	0.131461	-0.000142
C13	C	0.837388	-0.046861	-0.000211
C14	C	0.862409	-0.151541	-0.000225
C15	C	0.517278	0.216678	-0.000145
C16	C	0.445191	0.215238	-0.000153
C17	C	0.439092	0.128576	-0.000173
C18	C	0.505089	0.043348	-0.000166
C19	C	0.577175	0.044790	-0.000150
C20	C	0.347855	0.060453	-0.042631
C21	C	0.275770	0.059014	-0.042651
C22	C	0.216759	0.124123	-0.000218
C23	C	0.229837	0.190688	0.042226
C24	C	0.301922	0.192131	0.042242
C25	C	0.360931	0.127002	-0.000189
C26	C	0.072607	0.207785	-0.000228
C27	C	0.000520	0.206341	-0.000232
C28	C	0.060421	0.034449	-0.000252
C29	C	0.132506	0.035895	-0.000241
C30	C	0.138594	0.122565	-0.000233
C31	C	0.613831	-0.438277	-0.000147
C32	C	0.637359	-0.536642	-0.000151
C33	C	0.769703	-0.559647	-0.000185
C34	C	0.746185	-0.461281	-0.000184
C35	C	0.668248	-0.400603	-0.000164
C36	C	0.800603	-0.423608	-0.000201
C37	C	0.777087	-0.325251	-0.000197
C38	C	0.699153	-0.264567	-0.000175
C39	C	0.644732	-0.302246	-0.000160
C40	C	0.878540	-0.484287	-0.000216
C41	C	0.932957	-0.446614	-0.000233
C42	C	0.909441	-0.348255	-0.000234
C43	C	0.831508	-0.287571	-0.000212
C44	C	0.963863	-0.310576	-0.000249
C45	C	0.940346	-0.212219	-0.000244
C46	C	0.807992	-0.189214	-0.000207
C47	C	0.917706	0.118146	-0.000227
C48	C	0.994427	0.119679	-0.000251
C49	C	0.740301	0.298001	-0.000177
C50	C	0.715280	0.402681	-0.000168
N51	N	0.788824	0.125558	0.188475
N52	N	0.788872	0.125574	-0.188861
C53	C	0.852266	0.061280	0.226558
C54	C	0.852271	0.061276	0.302786
C55	C	0.788838	0.125566	0.340928
C56	C	0.725386	0.189849	0.302835
C57	C	0.725380	0.189845	0.226609
C58	C	0.758075	0.211489	0.461698
C59	C	0.758086	0.211494	0.537923
C60	C	0.788855	0.125578	0.576035
C61	C	0.819627	0.039653	0.537913
C62	C	0.819621	0.039649	0.461687
C63	C	0.788838	0.125577	0.423582
C64	C	0.852306	0.061290	0.696773
C65	C	0.852307	0.061284	0.773002
C66	C	0.725423	0.189866	0.773051
C67	C	0.725421	0.189863	0.696823
C68	C	0.788866	0.125576	0.658689
H69	H	0.522228	0.287252	-0.000140
Br70	Br	0.938406	-0.025959	0.645017
H71	H	0.395899	0.007431	-0.077189
H72	H	0.903934	0.008930	0.333798
H73	H	0.500120	-0.027213	-0.000192
Br74	Br	0.875471	-0.642003	-0.000203
Br75	Br	0.639320	0.277105	0.645133
Br76	Br	0.861374	-0.076957	0.409952
Br77	Br	0.639274	0.277086	0.174920
H78	H	0.733007	0.281457	0.430673
Br79	Br	0.667235	-0.131080	-0.000159
Br80	Br	0.861396	-0.076957	0.589627
H81	H	0.984659	-0.181545	-0.000258
Br82	Br	0.319672	0.282460	0.099843
Br83	Br	0.080875	0.325406	-0.000212
H84	H	0.897684	-0.564375	-0.000226
Br85	Br	0.639294	0.277095	0.354596
H86	H	0.903925	0.008931	0.195511
Br87	Br	0.052153	-0.083166	-0.000267
H88	H	0.181790	0.243706	0.076780
H89	H	0.903967	0.008936	0.804010
Br90	Br	0.639330	0.277108	0.824808
H91	H	0.391456	0.284634	-0.000154
H92	H	0.186234	-0.033498	-0.000242
Br93	Br	0.538959	-0.219889	-0.000143
H94	H	0.733034	0.281459	0.568956
Br95	Br	0.508057	-0.355919	-0.000131
H96	H	-0.053208	0.275738	-0.000230
Br97	Br	0.563498	-0.587767	-0.000120
Br98	Br	1.038725	-0.528970	-0.000251
H99	H	0.265127	0.004817	-0.077214
H100	H	0.630903	-0.024606	-0.000148
H101	H	0.744528	-0.139806	-0.000197
Br102	Br	1.069630	-0.392934	-0.000258
