data_functionalizedCrystal
_audit_creation_method	'MofGen! by Chris Wilmer'
_symmetry_space_group_name_H-M	'P1'
_symmetry_Int_Tables_number	1
_symmetry_cell_setting	triclinic
loop_
_symmetry_equiv_pos_as_xyz
  x,y,z
_cell_length_a	6.817900
_cell_length_b	12.200863
_cell_length_c	14.858340
_cell_angle_alpha	93.924527
_cell_angle_beta	104.519754
_cell_angle_gamma	107.143441
loop_
_atom_site_label
_atom_site_type_symbol
_atom_site_fract_x
_atom_site_fract_y
_atom_site_fract_z
V1	V	-4.056885	-0.159444	-0.290055
V2	V	-3.556885	0.340556	0.209945
O3	O	-4.024763	0.006909	-0.284437
O4	O	-3.524763	0.506909	0.215563
O5	O	-4.026528	-0.315427	-0.288165
O6	O	-3.526528	0.184573	0.211835
O7	O	-4.013258	-0.157322	-0.416516
O8	O	-3.513258	0.342678	0.083484
O9	O	-4.038125	-0.152291	-0.155197
O10	O	-3.538125	0.347709	0.344803
V11	V	-4.537556	-0.139507	-0.273914
V12	V	-4.037556	0.360493	0.226086
O13	O	-4.324398	-0.203177	-0.325463
O14	O	-3.824398	0.296823	0.174537
O15	O	-4.720240	-0.095774	-0.238506
O16	O	-4.220240	0.404226	0.261494
O17	O	-4.344706	0.016475	-0.275804
O18	O	-3.844706	0.516475	0.224196
O19	O	-4.687075	-0.305861	-0.279533
O20	O	-4.187075	0.194139	0.220467
O21	O	-4.673712	-0.146661	-0.408772
O22	O	-4.173712	0.353339	0.091228
O23	O	-4.357976	-0.141630	-0.147453
O24	O	-3.857976	0.358370	0.352547
C25	C	-3.875764	-0.353442	-0.283613
C26	C	-3.375764	0.146558	0.216387
C27	C	-3.932263	-0.480962	-0.282911
C28	C	-3.432263	0.019038	0.217089
C29	C	-4.035667	-0.714436	-0.281632
C30	C	-3.535667	-0.214436	0.218368
C31	C	-3.978118	-0.584514	-0.282344
C32	C	-3.478118	-0.084514	0.217656
C33	C	-3.858835	-0.151762	-0.447336
C34	C	-3.358835	0.348238	0.052664
C35	C	-3.904568	-0.151059	-0.550719
C36	C	-3.404568	0.348941	-0.050719
C37	C	-3.941706	-0.150486	-0.634677
C38	C	-3.441706	0.349514	-0.134677
C39	C	-3.988312	-0.149764	-0.740006
C40	C	-3.488312	0.350236	-0.240006
C41	C	-4.025474	-0.149188	-0.823957
C42	C	-3.525474	0.350812	-0.323957
C43	C	-4.072085	-0.148467	-0.929293
C44	C	-3.572085	0.351533	-0.429293
C45	C	-4.158813	0.054484	-0.280353
C46	C	-3.658813	0.554484	0.219647
C47	C	-4.081553	0.182003	-0.281062
C48	C	-3.581553	0.682003	0.218938
C49	C	-4.175741	-0.147194	-0.116628
C50	C	-3.675741	0.352806	0.383372
C51	C	-4.109246	-0.147891	-0.013244
C52	C	-3.609246	0.352109	0.486756
