data_functionalizedCrystal
_audit_creation_method	'MofGen! by Chris Wilmer'
_symmetry_space_group_name_H-M	'P1'
_symmetry_Int_Tables_number	1
_symmetry_cell_setting	triclinic
loop_
_symmetry_equiv_pos_as_xyz
  x,y,z
_cell_length_a	19.077105
_cell_length_b	21.295417
_cell_length_c	21.295420
_cell_angle_alpha	90.017552
_cell_angle_beta	92.311980
_cell_angle_gamma	87.726672
loop_
_atom_site_label
_atom_site_type_symbol
_atom_site_fract_x
_atom_site_fract_y
_atom_site_fract_z
Zn1	Zn	1.075919	-0.289439	0.394522
Zn2	Zn	1.575919	0.210561	0.894522
Zn3	Zn	1.075829	-0.394680	0.289244
Zn4	Zn	1.575829	0.105320	0.789244
Zn5	Zn	0.958231	-0.285195	0.285043
Zn6	Zn	1.458231	0.214805	0.785043
Zn7	Zn	0.958178	-0.390436	0.390253
Zn8	Zn	1.458178	0.109564	0.890253
O9	O	1.017039	-0.339938	0.339766
O10	O	1.517039	0.160062	0.839766
O11	O	1.174397	-0.306952	0.384100
O12	O	1.674397	0.193048	0.884100
O13	O	1.060213	-0.380157	0.200597
O14	O	1.560213	0.119843	0.700597
O15	O	0.973902	-0.197671	0.299594
O16	O	1.473902	0.302329	0.799594
O17	O	1.174331	-0.384272	0.306753
O18	O	1.674331	0.115728	0.806753
O19	O	1.060367	-0.200789	0.380027
O20	O	1.560367	0.299211	0.880027
O21	O	0.973815	-0.299719	0.197511
O22	O	1.473815	0.200281	0.697511
O23	O	0.859733	-0.295603	0.295456
O24	O	1.359733	0.204397	0.795456
O25	O	0.973812	-0.377038	0.478910
O26	O	1.473812	0.122962	0.978910
O27	O	0.859695	-0.372923	0.372753
O28	O	1.359695	0.127077	0.872753
O29	O	1.060316	-0.302836	0.482045
O30	O	1.560316	0.197164	0.982045
O31	O	1.060162	-0.482205	0.302615
O32	O	1.560162	0.017795	0.802615
O33	O	0.973724	-0.479086	0.376826
O34	O	1.473724	0.020914	0.876826
C35	C	0.834177	-0.333343	0.333186
C36	C	1.334177	0.166657	0.833186
C37	C	0.755947	-0.330536	0.330386
C38	C	1.255947	0.169464	0.830386
C39	C	0.719193	-0.369535	0.369252
C40	C	1.219193	0.130465	0.869252
C41	C	0.645688	-0.366890	0.366624
C42	C	1.145688	0.133110	0.866624
C43	C	0.608939	-0.325249	0.325126
C44	C	1.108939	0.174751	0.825126
C45	C	0.645698	-0.286246	0.286259
C46	C	1.145698	0.213754	0.786259
C47	C	0.719202	-0.288889	0.288890
C48	C	1.219202	0.211111	0.788890
C49	C	0.389108	-0.313020	0.312951
C50	C	0.889108	0.186980	0.812951
C51	C	0.315599	-0.310382	0.310321
C52	C	0.815599	0.189618	0.810321
C53	C	0.315594	-0.391025	0.390687
C54	C	0.815594	0.108975	0.890687
C55	C	0.389099	-0.393667	0.393312
C56	C	0.889099	0.106333	0.893312
C57	C	0.425852	-0.354661	0.354447
C58	C	0.925852	0.145339	0.854447
N59	N	0.533805	-0.322546	0.322438
N60	N	1.033805	0.177454	0.822438
N61	N	0.500984	-0.357362	0.357139
N62	N	1.000984	0.142638	0.857139
C63	C	1.016947	-0.503486	0.339727
C64	C	1.516947	-0.003486	0.839727
C65	C	1.016972	-0.573455	0.339734
C66	C	1.516972	-0.073455	0.839734
C67	C	1.062020	-0.607926	0.301135
C68	C	1.562020	-0.107926	0.801135
C69	C	1.062053	-0.673670	0.301151
C70	C	1.562053	-0.173670	0.801151
C71	C	1.017025	-0.704939	0.339758
C72	C	1.517025	-0.204939	0.839758
C73	C	0.971974	-0.670461	0.378365
C74	C	1.471974	-0.170461	0.878365
C75	C	0.971947	-0.604718	0.378353
C76	C	1.471947	-0.104718	0.878353
N77	N	0.955455	-0.805990	0.342341
N78	N	1.455455	-0.305990	0.842341
N79	N	0.955483	-0.868442	0.342349
N80	N	1.455483	-0.368442	0.842349
C81	C	1.017104	-0.903017	0.339797
C82	C	1.517104	-0.403017	0.839797
N83	N	1.078698	-0.872780	0.337225
N84	N	1.578698	-0.372780	0.837225
N85	N	1.078670	-0.810322	0.337214
N86	N	1.578670	-0.310322	0.837214
C87	C	1.017049	-0.776226	0.339775
C88	C	1.517049	-0.276226	0.839775
C89	C	1.062191	-1.008775	0.301212
C90	C	1.562191	-0.508775	0.801212
C91	C	1.062226	-1.074520	0.301232
C92	C	1.562226	-0.574520	0.801232
C93	C	0.972141	-1.071309	0.378443
C94	C	1.472141	-0.571309	0.878443
C95	C	0.972113	-1.005566	0.378427
C96	C	1.472113	-0.505566	0.878427
C97	C	1.017137	-0.974302	0.339808
C98	C	1.517137	-0.474302	0.839808
C99	C	1.200615	-0.346559	0.346371
C100	C	1.700615	0.153441	0.846371
C101	C	1.278845	-0.349381	0.349187
C102	C	1.778845	0.150619	0.849187
C103	C	1.017068	-0.339937	0.503957
C104	C	1.517068	0.160063	1.003957
C105	C	1.017081	-0.339937	0.573925
C106	C	1.517081	0.160063	1.073925
C107	C	1.017151	-0.175752	0.339818
C108	C	1.517151	0.324248	0.839818
C109	C	1.017198	-0.105785	0.339841
C110	C	1.517198	0.394215	0.839841
C111	C	0.972100	-0.298056	0.605175
C112	C	1.472100	0.201944	1.105175
C113	C	0.972087	-0.298059	0.670917
C114	C	1.472087	0.201941	1.170917
C115	C	1.017068	-0.339937	0.705407
C116	C	1.517068	0.160063	1.205407
C117	C	1.062052	-0.381825	0.674150
C118	C	1.562052	0.118175	1.174150
C119	C	1.062058	-0.381826	0.608409
C120	C	1.562058	0.118174	1.108409
N121	N	1.078662	-0.346985	0.810856
N122	N	1.578662	0.153015	1.310856
N123	N	1.078654	-0.346981	0.873307
N124	N	1.578654	0.153019	1.373307
C125	C	1.017050	-0.339939	0.903481
C126	C	1.517050	0.160061	1.403481
N127	N	0.955452	-0.332889	0.868845
N128	N	1.455452	0.167111	1.368845
N129	N	0.955461	-0.332890	0.806389
N130	N	1.455461	0.167110	1.306389
C131	C	1.017065	-0.339941	0.776693
C132	C	1.517065	0.160059	1.276693
C133	C	0.972051	-0.298059	1.006016
C134	C	1.472051	0.201941	1.506016
C135	C	0.972037	-0.298067	1.071760
C136	C	1.472037	0.201933	1.571760
C137	C	1.062008	-0.381830	1.074991
C138	C	1.562008	0.118170	1.574991
C139	C	1.062016	-0.381826	1.009249
C140	C	1.562016	0.118174	1.509249
C141	C	1.017038	-0.339937	0.974765
C142	C	1.517038	0.160063	1.474765
C143	C	1.017011	-0.339950	1.176213
C144	C	1.517011	0.160050	1.676213
C145	C	1.017017	-0.339945	1.106245
C146	C	1.517017	0.160055	1.606245
H147	H	0.285662	-0.422780	0.422329
H148	H	0.785662	0.077220	0.922329
N149	N	1.107995	-0.575991	0.261676
N150	N	1.607995	-0.075991	0.761676
N151	N	1.083231	-0.538465	0.220645
N152	N	1.583231	-0.038465	0.720645
H153	H	1.115698	-0.515912	0.192771
H154	H	1.615698	-0.015912	0.692771
H155	H	0.935427	-0.263952	0.977939
H156	H	1.435427	0.236048	1.477939
N157	N	0.278070	-0.267841	0.267926
N158	N	0.778070	0.232159	0.767926
N159	N	0.310892	-0.233018	0.233229
N160	N	0.810892	0.266982	0.733229
H161	H	0.284388	-0.202975	0.203289
H162	H	0.784388	0.297025	0.703289
H163	H	0.615766	-0.398647	0.398272
H164	H	1.115766	0.101353	0.898272
H165	H	1.098646	-0.415928	0.983805
H166	H	1.598646	0.084072	1.483805
N167	N	1.108070	-0.708881	0.261713
N168	N	1.608070	-0.208881	0.761713
N169	N	1.148263	-0.680959	0.227234
N170	N	1.648263	-0.180959	0.727234
H171	H	1.180760	-0.705825	0.199378
H172	H	1.680760	-0.205825	0.699378
H173	H	0.935473	-0.263949	0.577103
H174	H	1.435473	0.236051	1.077103
N175	N	0.926090	-0.255291	1.103695
N176	N	1.426090	0.244709	1.603695
N177	N	0.881220	-0.275818	1.138748
N178	N	1.381220	0.224182	1.638748
H179	H	0.848771	-0.245607	1.161306
H180	H	1.348771	0.254393	1.661306
N181	N	0.426646	-0.436200	0.435696
N182	N	0.926646	0.063800	0.935696
N183	N	0.492273	-0.438557	0.438035
N184	N	0.992273	0.061443	0.938035
H185	H	0.518792	-0.468601	0.467964
H186	H	1.018792	0.031399	0.967964
N187	N	0.925988	-0.702409	0.417802
N188	N	1.425988	-0.202409	0.917802
N189	N	0.926017	-0.761106	0.417807
N190	N	1.426017	-0.261106	0.917807
H191	H	0.893540	-0.783671	0.445663
H192	H	1.393540	-0.283671	0.945663
H193	H	1.098634	-0.415926	1.103072
H194	H	1.598634	0.084074	1.603072
N195	N	0.926102	-0.970343	0.417855
N196	N	1.426102	-0.470343	0.917855
N197	N	0.950826	-0.934513	0.458869
N198	N	1.450826	-0.434513	0.958869
H199	H	0.918333	-0.909637	0.486720
H200	H	1.418333	-0.409637	0.986720
H201	H	1.098914	-1.102585	0.269802
H202	H	1.598914	-0.602585	0.769802
H203	H	0.935459	-0.263952	0.696366
H204	H	1.435459	0.236048	1.196366
H205	H	0.749109	-0.403446	0.403041
H206	H	1.249109	0.096554	0.903041
N207	N	0.426632	-0.273178	0.273244
N208	N	0.926632	0.226822	0.773244
N209	N	0.393810	-0.236007	0.236193
N210	N	0.893810	0.263993	0.736193
H211	H	0.420313	-0.207868	0.208146
H212	H	0.920313	0.292132	0.708146
N213	N	1.108193	-0.976826	0.261786
N214	N	1.608193	-0.476826	0.761786
N215	N	1.108166	-0.918128	0.261783
N216	N	1.608166	-0.418128	0.761783
H217	H	1.140657	-0.895565	0.233941
H218	H	1.640657	-0.395565	0.733941
N219	N	1.107990	-0.424602	0.709386
N220	N	1.607990	0.075398	1.209386
N221	N	1.107979	-0.424597	0.768083
N222	N	1.607979	0.075403	1.268083
H223	H	1.140421	-0.454811	0.792969
H224	H	1.640421	0.045189	1.292969
H225	H	1.098690	-0.415930	0.582965
H226	H	1.598690	0.084070	1.082965
N227	N	0.925937	-0.569505	0.417791
N228	N	1.425937	-0.069505	0.917791
N229	N	0.930571	-0.576981	0.476048
N230	N	1.430571	-0.076981	0.976048
H231	H	0.898075	-0.552110	0.503902
H232	H	1.398075	-0.052110	1.003902
N233	N	0.608151	-0.243710	0.243878
N234	N	1.108151	0.256290	0.743878
N235	N	0.542524	-0.241355	0.241533
N236	N	1.042524	0.258645	0.741533
H237	H	0.516006	-0.211314	0.211600
H238	H	1.016006	0.288686	0.711600
H239	H	0.749126	-0.257129	0.257245
H240	H	1.249126	0.242871	0.757245
H241	H	0.935481	-1.096768	0.409881
H242	H	1.435481	-0.596768	0.909881
