data_functionalizedCrystal
_audit_creation_method	'MofGen! by Chris Wilmer'
_symmetry_space_group_name_H-M	'P1'
_symmetry_Int_Tables_number	1
_symmetry_cell_setting	triclinic
loop_
_symmetry_equiv_pos_as_xyz
  x,y,z
_cell_length_a	18.215407
_cell_length_b	19.076808
_cell_length_c	18.215399
_cell_angle_alpha	92.328322
_cell_angle_beta	90.019833
_cell_angle_gamma	92.323864
loop_
_atom_site_label
_atom_site_type_symbol
_atom_site_fract_x
_atom_site_fract_y
_atom_site_fract_z
Zn1	Zn	1.113298	-0.280216	0.404332
Zn2	Zn	1.446631	0.053118	0.737666
Zn3	Zn	1.779965	0.386451	1.070999
Zn4	Zn	1.108261	-0.397924	0.276316
Zn5	Zn	1.441594	-0.064590	0.609650
Zn6	Zn	1.774927	0.268743	0.942983
Zn7	Zn	0.990230	-0.280239	0.281279
Zn8	Zn	1.323563	0.053095	0.614612
Zn9	Zn	1.656896	0.386428	0.947945
Zn10	Zn	0.985252	-0.397885	0.399343
Zn11	Zn	1.318586	-0.064551	0.732676
Zn12	Zn	1.651919	0.268782	1.066010
O13	O	1.049260	-0.339066	0.340318
O14	O	1.382593	-0.005732	0.673651
O15	O	1.715927	0.327601	1.006984
O16	O	1.215614	-0.295837	0.387362
O17	O	1.548947	0.037497	0.720695
O18	O	1.882280	0.370830	1.054029
O19	O	1.092578	-0.382339	0.173989
O20	O	1.425912	-0.049005	0.507323
O21	O	1.759245	0.284328	0.840656
O22	O	1.010746	-0.181739	0.301767
O23	O	1.344079	0.151594	0.635100
O24	O	1.677413	0.484928	0.968434
O25	O	1.211913	-0.382316	0.293309
O26	O	1.545246	-0.048983	0.626643
O27	O	1.878579	0.284350	0.959976
O28	O	1.101164	-0.181722	0.392174
O29	O	1.434497	0.151611	0.725507
O30	O	1.767831	0.484945	1.058841
O31	O	1.005861	-0.295876	0.177635
O32	O	1.339195	0.037457	0.510968
O33	O	1.672528	0.370791	0.844302
O34	O	0.886585	-0.295838	0.296929
O35	O	1.219919	0.037495	0.630262
O36	O	1.553252	0.370829	0.963596
O37	O	1.002263	-0.382250	0.502990
O38	O	1.335596	-0.048916	0.836323
O39	O	1.668930	0.284417	1.169657
O40	O	0.882928	-0.382272	0.383670
O41	O	1.216262	-0.048938	0.717003
O42	O	1.549595	0.284395	1.050337
O43	O	1.096338	-0.295799	0.506656
O44	O	1.429671	0.037535	0.839989
O45	O	1.763004	0.370868	1.173323
O46	O	1.087752	-0.496415	0.288471
O47	O	1.421085	-0.163082	0.621804
O48	O	1.754419	0.170252	0.955138
O49	O	0.997378	-0.496386	0.378858
O50	O	1.330712	-0.163053	0.712192
O51	O	1.664045	0.170280	1.045525
C52	C	0.858054	-0.339054	0.340297
C53	C	1.191388	-0.005720	0.673630
C54	C	1.524721	0.327613	1.006964
C55	C	0.776255	-0.339065	0.340305
C56	C	1.109588	-0.005732	0.673638
C57	C	1.442922	0.327601	1.006972
C58	C	0.586173	-0.384142	0.385409
C59	C	0.919506	-0.050809	0.718742
C60	C	1.252840	0.282524	1.052076
C61	C	0.509314	-0.384145	0.385418
C62	C	0.842648	-0.050811	0.718751
C63	C	1.175981	0.282522	1.052085
C64	C	0.513098	-0.294002	0.295242
C65	C	0.846432	0.039332	0.628575
C66	C	1.179765	0.372665	0.961908
C67	C	0.589956	-0.293996	0.295237
C68	C	0.923289	0.039337	0.628570
C69	C	1.256623	0.372670	0.961904
C70	C	0.626491	-0.339071	0.340319
C71	C	0.959825	-0.005737	0.673653
C72	C	1.293158	0.327596	1.006986
C73	C	0.472775	-0.339078	0.340333
C74	C	0.806108	-0.005745	0.673667
C75	C	1.139441	0.327588	1.007000
C76	C	0.389441	-0.339080	0.340343
C77	C	0.722774	-0.005747	0.673676
C78	C	1.056108	0.327586	1.007009
C79	C	0.709830	-0.339068	0.340311
C80	C	1.043164	-0.005735	0.673644
C81	C	1.376497	0.327599	1.006978
C82	C	1.041498	-0.521940	0.332601
C83	C	1.374832	-0.188606	0.665934
C84	C	1.708165	0.144727	0.999267
C85	C	1.038245	-0.600174	0.329324
C86	C	1.371579	-0.266841	0.662657
C87	C	1.704912	0.066493	0.995991
C88	C	1.083757	-0.636859	0.374893
C89	C	1.417091	-0.303526	0.708226
C90	C	1.750424	0.029807	1.041559
C91	C	1.080698	-0.710369	0.371815
C92	C	1.414031	-0.377035	0.705149
C93	C	1.747364	-0.043702	1.038482
C94	C	1.032129	-0.747192	0.323165
C95	C	1.365462	-0.413858	0.656498
C96	C	1.698796	-0.080525	0.989832
C97	C	0.986612	-0.710501	0.277594
C98	C	1.319945	-0.377168	0.610928
C99	C	1.653279	-0.043834	0.944261
C100	C	0.989668	-0.636993	0.280676
C101	C	1.323002	-0.303660	0.614009
C102	C	1.656335	0.029674	0.947343
C103	C	1.017940	-0.967045	0.308900
C104	C	1.351274	-0.633711	0.642233
C105	C	1.684607	-0.300378	0.975567
C106	C	1.014889	-1.040558	0.305820
C107	C	1.348222	-0.707225	0.639153
C108	C	1.681556	-0.373891	0.972487
C109	C	1.108974	-1.040420	0.400043
C110	C	1.442307	-0.707087	0.733376
C111	C	1.775641	-0.373754	1.066709
C112	C	1.112029	-0.966911	0.403117
C113	C	1.445363	-0.633578	0.736450
C114	C	1.778696	-0.300244	1.069783
C115	C	1.066510	-0.930227	0.357549
C116	C	1.399843	-0.596894	0.690882
C117	C	1.733176	-0.263560	1.024216
N118	N	1.029002	-0.822330	0.320016
N119	N	1.362335	-0.488997	0.653350
N120	N	1.695669	-0.155663	0.986683
N121	N	1.069633	-0.855090	0.360702
N122	N	1.402967	-0.521756	0.694035
N123	N	1.736300	-0.188423	1.027368
C124	C	1.241212	-0.339078	0.340339
C125	C	1.574546	-0.005745	0.673672
C126	C	1.907879	0.327588	1.007005
C127	C	1.323011	-0.339084	0.340348
C128	C	1.656344	-0.005750	0.673681
C129	C	1.989678	0.327583	1.007014
C130	C	1.049307	-0.339017	0.532273
C131	C	1.382640	-0.005684	0.865606
C132	C	1.715974	0.327650	1.198939
C133	C	1.049327	-0.338996	0.614072
C134	C	1.382660	-0.005663	0.947406
C135	C	1.715994	0.327670	1.280739
C136	C	1.057072	-0.155477	0.348081
C137	C	1.390405	0.177856	0.681414
C138	C	1.723739	0.511189	1.014747
C139	C	1.060401	-0.077243	0.351389
C140	C	1.393734	0.256090	0.684722
C141	C	1.727068	0.589424	1.018055
C142	C	1.049258	-0.339063	0.149111
C143	C	1.382591	-0.005730	0.482445
C144	C	1.715924	0.327603	0.815778
C145	C	1.049389	-0.338886	0.067320
C146	C	1.382722	-0.005552	0.400654
C147	C	1.716055	0.327781	0.733987
C148	C	1.098330	-0.293939	0.804178
C149	C	1.431664	0.039394	1.137512
C150	C	1.764997	0.372727	1.470845
C151	C	1.098340	-0.293919	0.881038
C152	C	1.431673	0.039414	1.214371
C153	C	1.765007	0.372748	1.547705
C154	C	1.000380	-0.383945	0.877209
C155	C	1.333713	-0.050611	1.210543
C156	C	1.667047	0.282722	1.543876
C157	C	1.000368	-0.383961	0.800351
C158	C	1.333701	-0.050628	1.133684
C159	C	1.667034	0.282706	1.467018
C160	C	1.049347	-0.338959	0.763838
C161	C	1.382680	-0.005626	1.097171
C162	C	1.716013	0.327707	1.430504
C163	C	1.049369	-0.338923	0.917555
C164	C	1.382702	-0.005589	1.250889
C165	C	1.716036	0.327744	1.584222
C166	C	1.049379	-0.338901	1.000890
C167	C	1.382712	-0.005567	1.334223
C168	C	1.716046	0.327766	1.667557
C169	C	1.049336	-0.338980	0.680498
C170	C	1.382669	-0.005647	1.013831
C171	C	1.716003	0.327686	1.347164
H172	H	0.615918	-0.420843	0.422120
H173	H	0.949251	-0.087510	0.755453
H174	H	1.282584	0.245824	1.088787
H175	H	0.476491	-0.420845	0.422136
H176	H	0.809824	-0.087512	0.755469
H177	H	1.143157	0.245821	1.088802
N178	N	0.473692	-0.245406	0.246599
N179	N	0.807025	0.087927	0.579932
N180	N	1.140358	0.421260	0.913266
H181	H	0.418884	-0.252255	0.253435
H182	H	0.752217	0.081078	0.586768
H183	H	1.085551	0.414412	0.920102
H184	H	0.486654	-0.256316	0.193567
H185	H	0.819987	0.077018	0.526900
H186	H	1.153320	0.410351	0.860234
H187	H	0.622784	-0.257289	0.258520
H188	H	0.956118	0.076044	0.591853
H189	H	1.289451	0.409377	0.925186
N190	N	1.136146	-0.597146	0.427362
N191	N	1.469480	-0.263812	0.760696
N192	N	1.802813	0.069521	1.094029
H193	H	1.164512	-0.631543	0.455764
H194	H	1.497846	-0.298210	0.789097
H195	H	1.831179	0.035124	1.122430
H196	H	1.107438	-0.566651	0.462670
H197	H	1.440772	-0.233318	0.796004
H198	H	1.774105	0.100016	1.129337
H199	H	1.138226	-0.257258	0.913880
H200	H	1.471559	0.076076	1.247213
H201	H	1.804893	0.409409	1.580547
H202	H	0.960505	-0.420585	0.906948
H203	H	1.293838	-0.087252	1.240281
H204	H	1.627171	0.246082	1.573615
H205	H	1.117764	-0.740235	0.408917
H206	H	1.451098	-0.406901	0.742250
H207	H	1.784431	-0.073568	1.075583
H208	H	1.151578	-0.936931	0.442732
H209	H	1.484911	-0.603598	0.776065
H210	H	1.818244	-0.270265	1.109399
N211	N	1.151158	-0.245404	0.764798
N212	N	1.484491	0.087929	1.098131
N213	N	1.817824	0.421263	1.431465
H214	H	1.184042	-0.274021	0.731712
H215	H	1.517375	0.059312	1.065045
H216	H	1.850709	0.392646	1.398378
H217	H	1.182139	-0.216895	0.802069
H218	H	1.515472	0.116439	1.135402
H219	H	1.848805	0.449772	1.468736
H220	H	0.960474	-0.420621	0.767505
H221	H	1.293807	-0.087288	1.100838
H222	H	1.627141	0.246045	1.434171
N223	N	1.158067	-1.079986	0.449189
N224	N	1.491400	-0.746652	0.782523
N225	N	1.824734	-0.413319	1.115856
H226	H	1.148763	-1.132140	0.439858
H227	H	1.482096	-0.798807	0.773191
H228	H	1.815430	-0.465474	1.106524
H229	H	1.147116	-1.067114	0.502277
H230	H	1.480449	-0.733781	0.835611
H231	H	1.813783	-0.400448	1.168944
H232	H	0.975335	-1.070537	0.266202
H233	H	1.308668	-0.737204	0.599536
H234	H	1.642002	-0.403870	0.932869
H235	H	0.980878	-0.937182	0.271795
H236	H	1.314211	-0.603849	0.605129
H237	H	1.647544	-0.270516	0.938462
H238	H	0.947063	-0.740488	0.237985
H239	H	1.280397	-0.407155	0.571318
H240	H	1.613730	-0.073821	0.904652
H241	H	0.952607	-0.607124	0.243570
H242	H	1.285940	-0.273791	0.576903
H243	H	1.619273	0.059542	0.910237
