data_functionalizedCrystal
_audit_creation_method	'MofGen! by Chris Wilmer'
_symmetry_space_group_name_H-M	'P1'
_symmetry_Int_Tables_number	1
_symmetry_cell_setting	triclinic
loop_
_symmetry_equiv_pos_as_xyz
  x,y,z
_cell_length_a	16.959455
_cell_length_b	21.295417
_cell_length_c	16.959447
_cell_angle_alpha	90.034146
_cell_angle_beta	90.014322
_cell_angle_gamma	90.026649
loop_
_atom_site_label
_atom_site_type_symbol
_atom_site_fract_x
_atom_site_fract_y
_atom_site_fract_z
Zn1	Zn	1.208331	-0.250648	0.446888
Zn2	Zn	1.208231	-0.355925	0.314700
Zn3	Zn	1.076159	-0.250668	0.314725
Zn4	Zn	1.076102	-0.355878	0.446839
O5	O	1.142206	-0.303280	0.380788
O6	O	1.318929	-0.264625	0.429363
O7	O	1.190694	-0.341990	0.204093
O8	O	1.093758	-0.162576	0.332288
O9	O	1.318855	-0.341971	0.332245
O10	O	1.190864	-0.162561	0.429387
O11	O	1.093661	-0.264658	0.204111
O12	O	0.965541	-0.264613	0.332240
O13	O	1.093660	-0.341891	0.557456
O14	O	0.965499	-0.341910	0.429304
O15	O	1.190808	-0.264579	0.557492
O16	O	1.190638	-0.444008	0.332198
O17	O	1.093563	-0.443973	0.429280
C18	C	0.936840	-0.303259	0.380770
C19	C	0.848983	-0.303265	0.380781
C20	C	0.477505	-0.262998	0.330353
C21	C	0.477510	-0.343613	0.431269
C22	C	0.560056	-0.343604	0.431264
C23	C	0.601330	-0.303292	0.380802
C24	C	0.560058	-0.262989	0.330345
C25	C	0.601333	-0.383911	0.481714
C26	C	0.683884	-0.383904	0.481711
C27	C	0.725160	-0.343588	0.431252
C28	C	0.683884	-0.303283	0.380794
C29	C	0.725158	-0.262971	0.330332
C30	C	0.683883	-0.222662	0.279877
C31	C	0.601334	-0.222673	0.279886
C32	C	0.807709	-0.343577	0.431243
C33	C	0.807711	-0.262962	0.330324
C34	C	1.142105	-0.466831	0.380748
C35	C	1.142134	-0.536799	0.380757
C36	C	1.192668	-0.569601	0.431353
C37	C	1.192696	-0.635344	0.431372
C38	C	1.142198	-0.668282	0.380782
C39	C	1.091654	-0.635472	0.330183
C40	C	1.091622	-0.569731	0.330170
N41	N	1.136233	-0.771547	0.311606
N42	N	1.136268	-0.833998	0.311620
C43	C	1.142291	-0.866356	0.380818
N44	N	1.148292	-0.833904	0.450002
N45	N	1.148261	-0.771447	0.449987
C46	C	1.142227	-0.739567	0.380790
C47	C	1.192858	-0.970444	0.431439
C48	C	1.192880	-1.036188	0.431460
C49	C	1.091842	-1.036315	0.330263
C50	C	1.091816	-0.970572	0.330249
C51	C	1.142328	-0.937641	0.380836
C52	C	1.348374	-0.303301	0.380807
C53	C	1.436231	-0.303310	0.380815
C54	C	1.142239	-0.303228	0.586956
C55	C	1.142253	-0.303205	0.674813
C56	C	1.142328	-0.139089	0.380845
C57	C	1.142381	-0.069121	0.380870
C58	C	1.142219	-0.303286	0.175422
C59	C	1.142358	-0.303131	0.087566
C60	C	1.091767	-0.343392	1.046273
C61	C	1.192928	-0.262886	1.046305
C62	C	1.192907	-0.262900	0.963759
C63	C	1.142316	-0.303160	0.922466
C64	C	1.091746	-0.343407	0.963719
C65	C	1.243482	-0.222658	0.922500
C66	C	1.243463	-0.222670	0.839949
C67	C	1.192867	-0.262928	0.798654
C68	C	1.142295	-0.303176	0.839912
C69	C	1.091704	-0.343437	0.798619
C70	C	1.041126	-0.383682	0.839876
C71	C	1.041150	-0.383665	0.922425
C72	C	1.192844	-0.262945	0.716106
C73	C	1.091683	-0.343453	0.716066
H74	H	0.567722	-0.416735	0.522792
N75	N	1.247403	-0.219551	0.671615
H76	H	1.284001	-0.245153	0.637361
H77	H	1.279405	-0.194062	0.710357
N78	N	0.852228	-0.387051	0.485649
H79	H	0.813554	-0.412593	0.517613
H80	H	0.886500	-0.361463	0.522288
H81	H	0.717499	-0.189843	0.238787
H82	H	0.717483	-0.416725	0.522795
H83	H	1.050670	-0.943863	0.289046
H84	H	1.284675	-0.189883	0.956127
H85	H	0.999975	-0.416433	0.956023
H86	H	0.841311	-0.230131	0.289236
N87	N	1.247320	-0.934921	0.486014
H88	H	1.239634	-0.888297	0.478326
H89	H	1.303787	-0.946382	0.473772
N90	N	0.986553	-0.427103	0.795341
H91	H	0.998793	-0.472079	0.809686
H92	H	0.994241	-0.420953	0.736801
N93	N	1.247391	-1.071554	0.486047
H94	H	1.284058	-1.098829	0.453973
H95	H	1.215205	-1.098788	0.522653
N96	N	0.556818	-0.179220	0.225446
H97	H	0.498261	-0.185353	0.233099
H98	H	0.571239	-0.188981	0.168979
H99	H	0.443899	-0.376437	0.472348
H100	H	1.050721	-1.063132	0.289077
N101	N	1.037202	-0.386786	1.090763
H102	H	1.044882	-0.380664	1.149324
H103	H	1.049454	-0.431751	1.076322
H104	H	0.443895	-0.230178	0.289275
N105	N	1.037102	-0.386873	0.671540
H106	H	1.049341	-0.431849	0.685889
H107	H	1.044780	-0.380728	0.612998
N108	N	1.247141	-0.534082	0.485917
H109	H	1.279157	-0.564842	0.517975
H110	H	1.214926	-0.506809	0.522463
N111	N	1.247203	-0.670734	0.485945
H112	H	1.279196	-0.639896	0.517989
H113	H	1.283812	-0.698003	0.453800
N114	N	1.037189	-0.670993	0.275616
H115	H	1.044880	-0.717618	0.283298
H116	H	1.049525	-0.659524	0.219175
N117	N	1.247497	-0.219468	1.090837
H118	H	1.239838	-0.225567	1.149392
H119	H	1.235222	-0.174512	1.076432
N120	N	1.037117	-0.534347	0.275596
H121	H	1.005128	-0.565186	0.243549
H122	H	1.069306	-0.507073	0.239040
N123	N	1.298010	-0.179265	0.795454
H124	H	1.330063	-0.153759	0.834140
H125	H	1.265847	-0.150135	0.761219
