data_functionalizedCrystal
_audit_creation_method	'MofGen! by Chris Wilmer'
_symmetry_space_group_name_H-M	'P1'
_symmetry_Int_Tables_number	1
_symmetry_cell_setting	triclinic
loop_
_symmetry_equiv_pos_as_xyz
  x,y,z
_cell_length_a	29.839134
_cell_length_b	29.839133
_cell_length_c	21.295411
_cell_angle_alpha	89.989633
_cell_angle_beta	90.034268
_cell_angle_gamma	89.971624
loop_
_atom_site_label
_atom_site_type_symbol
_atom_site_fract_x
_atom_site_fract_y
_atom_site_fract_z
Zn1	Zn	0.686799	0.178966	0.356124
Zn2	Zn	1.186799	0.678966	0.856124
Zn3	Zn	0.686725	0.254082	0.250870
Zn4	Zn	1.186725	0.754082	0.750870
Zn5	Zn	0.611665	0.178960	0.250851
Zn6	Zn	1.111665	0.678960	0.750851
Zn7	Zn	0.611640	0.254063	0.356084
Zn8	Zn	1.111640	0.754063	0.856084
O9	O	0.649207	0.216518	0.303482
O10	O	1.149207	0.716518	0.803482
O11	O	0.749656	0.188941	0.342186
O12	O	1.249656	0.688941	0.842186
O13	O	0.676748	0.244122	0.162778
O14	O	1.176748	0.744122	0.662778
O15	O	0.621674	0.116093	0.264824
O16	O	1.121674	0.616093	0.764824
O17	O	0.749602	0.244128	0.264857
O18	O	1.249602	0.744128	0.764857
O19	O	0.676874	0.116098	0.342168
O20	O	1.176874	0.616098	0.842168
O21	O	0.621602	0.188930	0.162764
O22	O	1.121602	0.688930	0.662764
O23	O	0.548795	0.188912	0.264786
O24	O	1.048795	0.688912	0.764786
O25	O	0.621630	0.244096	0.444178
O26	O	1.121630	0.744096	0.944178
O27	O	0.548776	0.244090	0.342100
O28	O	1.048776	0.744090	0.842100
O29	O	0.676849	0.188923	0.444208
O30	O	1.176849	0.688923	0.944208
O31	O	0.676723	0.316946	0.264818
O32	O	1.176723	0.816946	0.764818
O33	O	0.621558	0.316933	0.342118
O34	O	1.121558	0.816933	0.842118
C35	C	0.532485	0.216499	0.303437
C36	C	1.032485	0.716499	0.803437
C37	C	0.482550	0.216501	0.303432
C38	C	0.982550	0.716501	0.803432
C39	C	0.172907	0.245291	0.343690
C40	C	0.672907	0.745291	0.843690
C41	C	-0.014767	0.245304	0.343718
C42	C	0.485233	0.745304	0.843718
O43	O	-0.039032	0.269761	0.377920
O44	O	0.460968	0.769761	0.877920
N45	N	-0.038235	0.216534	0.303529
N46	N	0.461765	0.716534	0.803529
C47	C	-0.014782	0.187757	0.263334
C48	C	0.485218	0.687757	0.763334
O49	O	-0.039049	0.163283	0.229156
O50	O	0.460951	0.663283	0.729156
C51	C	0.172890	0.187742	0.263309
C52	C	0.672890	0.687742	0.763309
C53	C	0.196356	0.216517	0.303496
C54	C	0.696356	0.716517	0.803496
C55	C	0.196372	0.274064	0.383874
C56	C	0.696372	0.774064	0.883874
C57	C	0.243288	0.274062	0.383864
C58	C	0.743288	0.774062	0.883864
C59	C	0.266737	0.245288	0.343671
C60	C	0.766737	0.745288	0.843671
C61	C	0.243272	0.216516	0.303486
C62	C	0.743272	0.716516	0.803486
C63	C	0.196342	0.158963	0.223117
C64	C	0.696342	0.658963	0.723117
C65	C	0.243263	0.158961	0.223116
C66	C	0.743263	0.658961	0.723116
C67	C	0.266729	0.187736	0.263303
C68	C	0.766729	0.687736	0.763303
C69	C	0.313637	0.187740	0.263283
C70	C	0.813637	0.687740	0.763283
N71	N	0.337105	0.216510	0.303471
N72	N	0.837105	0.716510	0.803471
C73	C	0.313655	0.245284	0.343665
C74	C	0.813655	0.745284	0.843665
C75	C	-0.113312	0.187767	0.263349
C76	C	0.386688	0.687767	0.763349
C77	C	-0.160230	0.187771	0.263354
C78	C	0.339770	0.687771	0.763354
C79	C	-0.160212	0.245318	0.343739
C80	C	0.339788	0.745318	0.843739
C81	C	-0.113293	0.245316	0.343730
C82	C	0.386707	0.745316	0.843730
C83	C	-0.089844	0.216537	0.303537
C84	C	0.410156	0.716537	0.803537
C85	C	0.412181	0.245278	0.343641
C86	C	0.912181	0.745278	0.843641
C87	C	0.459101	0.245275	0.343626
C88	C	0.959101	0.745275	0.843626
C89	C	0.459078	0.187727	0.263243
C90	C	0.959078	0.687727	0.763243
C91	C	0.412163	0.187732	0.263256
C92	C	0.912163	0.687732	0.763256
C93	C	0.388715	0.216509	0.303460
C94	C	0.888715	0.716509	0.803460
O95	O	0.337931	0.163292	0.229104
O96	O	0.837931	0.663292	0.729104
O97	O	0.337931	0.269747	0.377848
O98	O	0.837931	0.769747	0.877848
C99	C	0.125991	0.245293	0.343700
C100	C	0.625991	0.745293	0.843700
C101	C	0.102525	0.216521	0.303516
C102	C	0.602525	0.716521	0.803516
C103	C	0.125975	0.187747	0.263322
C104	C	0.625975	0.687747	0.763322
C105	C	0.055607	0.216525	0.303521
C106	C	0.555607	0.716525	0.803521
C107	C	0.032158	0.245299	0.343715
C108	C	0.532158	0.745299	0.843715
C109	C	0.055626	0.274069	0.383904
C110	C	0.555626	0.774069	0.883904
C111	C	0.102541	0.274067	0.383894
C112	C	0.602541	0.774067	0.883894
C113	C	0.102507	0.158977	0.223133
C114	C	0.602507	0.658977	0.723133
C115	C	0.055591	0.158981	0.223146
C116	C	0.555591	0.658981	0.723146
C117	C	0.032141	0.187755	0.263340
C118	C	0.532141	0.687755	0.763340
C119	C	0.649142	0.333240	0.303479
C120	C	1.149142	0.833240	0.803479
C121	C	0.649156	0.383175	0.303499
C122	C	1.149156	0.883175	0.803499
C123	C	0.677931	0.739729	0.343797
C124	C	1.177931	1.239729	0.843797
C125	C	0.677901	0.552056	0.343798
C126	C	1.177901	1.052056	0.843798
O127	O	0.702331	0.527764	0.378054
O128	O	1.202331	1.027764	0.878054
N129	N	0.649181	0.528620	0.303497
N130	N	1.149181	1.028620	0.803497
C131	C	0.620469	0.552104	0.263190
C132	C	1.120469	1.052104	0.763190
O133	O	0.596043	0.527864	0.228907
O134	O	1.096043	1.027864	0.728907
C135	C	0.620501	0.739777	0.263186
C136	C	1.120501	1.239777	0.763186
C137	C	0.649220	0.763211	0.303495
C138	C	1.149220	1.263211	0.803495
C139	C	0.706647	0.763163	0.384102
C140	C	1.206647	1.263163	0.884102
C141	C	0.706653	0.810079	0.384103
C142	C	1.206653	1.310079	0.884103
C143	C	0.677942	0.833560	0.343801
C144	C	1.177942	1.333560	0.843801
C145	C	0.649225	0.810126	0.303497
C146	C	1.149225	1.310126	0.803497
C147	C	0.591791	0.763260	0.222877
C148	C	1.091791	1.263260	0.722877
C149	C	0.591803	0.810181	0.222878
C150	C	1.091803	1.310181	0.722878
C151	C	0.620521	0.833615	0.263187
C152	C	1.120521	1.333615	0.763187
C153	C	0.620519	0.880523	0.263196
C154	C	1.120519	1.380523	0.763196
N155	N	0.649239	0.903959	0.303497
N156	N	1.149239	1.403959	0.803497
C157	C	0.677950	0.880478	0.343799
C158	C	1.177950	1.380478	0.843799
C159	C	0.620453	0.453574	0.263195
C160	C	1.120453	0.953574	0.763195
C161	C	0.620444	0.406656	0.263197
C162	C	1.120444	0.906656	0.763197
C163	C	0.677878	0.406611	0.343804
C164	C	1.177878	0.906611	0.843804
C165	C	0.677884	0.453530	0.343805
C166	C	1.177884	0.953530	0.843805
C167	C	0.649173	0.477010	0.303496
C168	C	1.149173	0.977010	0.803496
C169	C	0.677959	0.979004	0.343801
C170	C	1.177959	1.479004	0.843801
C171	C	0.677961	1.025923	0.343801
C172	C	1.177961	1.525923	0.843801
C173	C	0.620530	1.025964	0.263191
C174	C	1.120530	1.525964	0.763191
C175	C	0.620526	0.979049	0.263193
C176	C	1.120526	1.479049	0.763193
C177	C	0.649245	0.955570	0.303500
C178	C	1.149245	1.455570	0.803500
O179	O	0.596106	0.904844	0.228953
O180	O	1.096106	1.404844	0.728953
O181	O	0.702379	0.904726	0.378067
O182	O	1.202379	1.404726	0.878067
C183	C	0.677925	0.692814	0.343795
C184	C	1.177925	1.192814	0.843795
C185	C	0.649209	0.669380	0.303491
C186	C	1.149209	1.169380	0.803491
C187	C	0.620498	0.692861	0.263188
C188	C	1.120498	1.192861	0.763188
C189	C	0.649200	0.622462	0.303492
C190	C	1.149200	1.122462	0.803492
C191	C	0.677911	0.598980	0.343795
C192	C	1.177911	1.098980	0.843795
C193	C	0.706631	0.622417	0.384096
C194	C	1.206631	1.122417	0.884096
C195	C	0.706637	0.669332	0.384098
C196	C	1.206637	1.169332	0.884098
C197	C	0.591778	0.669425	0.222887
C198	C	1.091778	1.169425	0.722887
C199	C	0.591774	0.622509	0.222889
C200	C	1.091774	1.122509	0.722889
C201	C	0.620485	0.599028	0.263192
C202	C	1.120485	1.099028	0.763192
C203	C	0.766386	0.216537	0.303528
C204	C	1.266386	0.716537	0.803528
C205	C	0.816320	0.216545	0.303548
C206	C	1.316320	0.716545	0.803548
C207	C	0.649245	0.216508	0.467672
C208	C	1.149245	0.716508	0.967672
C209	C	0.649260	0.216504	0.537641
C210	C	1.149260	0.716504	1.037641
C211	C	0.649268	1.099339	0.303497
C212	C	1.149268	1.599339	0.803497
C213	C	0.649250	1.049405	0.303498
C214	C	1.149250	1.549405	0.803498
C215	C	0.649196	0.216495	0.139931
C216	C	1.149196	0.716495	0.639931
C217	C	0.649267	0.216372	0.069963
C218	C	1.149267	0.716372	0.569963
C219	C	0.678012	0.187774	0.570524
C220	C	1.178012	0.687774	1.070524
C221	C	0.678011	0.187754	0.636266
C222	C	1.178011	0.687754	1.136266
C223	C	0.649264	0.216473	0.669123
C224	C	1.149264	0.716473	1.169123
C225	C	0.620507	0.245205	0.636232
C226	C	1.120507	0.745205	1.136232
C227	C	0.620505	0.245221	0.570491
C228	C	1.120505	0.745221	1.070491
N229	N	0.645796	0.255773	0.772349
N230	N	1.145796	0.755773	1.272349
N231	N	0.645800	0.255757	0.834800
N232	N	1.145800	0.755757	1.334800
C233	C	0.649267	0.216428	0.867198
C234	C	1.149267	0.716428	1.367198
N235	N	0.652738	0.177114	0.834785
N236	N	1.152738	0.677114	1.334785
N237	N	0.652736	0.177130	0.772328
N238	N	1.152736	0.677130	1.272328
C239	C	0.649262	0.216459	0.740409
C240	C	1.149262	0.716459	1.240409
C241	C	0.678019	0.187674	0.971366
C242	C	1.178019	0.687674	1.471366
C243	C	0.678015	0.187654	1.037110
C244	C	1.178015	0.687654	1.537110
C245	C	0.620513	0.245108	1.037075
C246	C	1.120513	0.745108	1.537075
C247	C	0.620515	0.245125	0.971333
C248	C	1.120515	0.745125	1.471333
C249	C	0.649270	0.216408	0.938482
C250	C	1.149270	0.716408	1.438482
H251	H	0.478204	0.268709	0.376352
H252	H	0.978204	0.768709	0.876352
Br253	Br	0.164557	0.313119	0.438431
Br254	Br	0.664557	0.813119	0.938431
Br255	Br	0.581549	0.947244	0.208491
Br256	Br	1.081549	1.447244	0.708491
Br257	Br	0.717022	0.148750	0.680903
Br258	Br	1.217022	0.648750	1.180903
Br259	Br	0.581482	0.284214	0.525861
Br260	Br	1.081482	0.784214	1.025861
H261	H	0.701426	0.164390	0.543781
H262	H	1.201426	0.664390	1.043781
Br263	Br	0.023792	0.313122	0.438448
Br264	Br	0.523792	0.813122	0.938448
Br265	Br	-0.081496	0.148706	0.208797
Br266	Br	0.418504	0.648706	0.708797
Br267	Br	0.717041	0.148701	0.926780
Br268	Br	1.217041	0.648701	1.426780
H269	H	-0.094190	0.268746	0.376455
H270	H	0.405810	0.768746	0.876455
H271	H	0.478179	0.164301	0.230517
H272	H	0.978179	0.664301	0.730517
Br273	Br	0.023751	0.119928	0.168598
Br274	Br	0.523751	0.619928	0.668598
H275	H	0.701427	0.164256	1.063882
H276	H	1.201427	0.664256	1.563882
H277	H	0.177245	0.135533	0.190391
H278	H	0.677245	0.635533	0.690391
H279	H	0.121595	0.135545	0.190402
H280	H	0.621595	0.635545	0.690402
H281	H	0.568423	0.829297	0.190053
H282	H	1.068423	1.329297	0.690053
H283	H	0.393096	0.268710	0.376381
H284	H	0.893096	0.768710	0.876381
H285	H	0.701346	1.045001	0.376628
H286	H	1.201346	1.545001	0.876628
H287	H	0.262353	0.135523	0.190389
H288	H	0.762353	0.635523	0.690389
Br289	Br	0.380315	0.148688	0.208704
Br290	Br	0.880315	0.648688	0.708704
H291	H	0.730022	0.688408	0.416921
H292	H	1.230022	1.188408	0.916921
Br293	Br	0.581493	0.284079	1.081660
Br294	Br	1.081493	0.784079	1.581660
H295	H	0.597105	0.268523	0.944559
H296	H	1.097105	0.768523	1.444559
Br297	Br	0.716935	0.947147	0.398503
Br298	Br	1.216935	1.447147	0.898503
H299	H	0.262390	0.297493	0.416590
H300	H	0.762390	0.797493	0.916590
Br301	Br	0.745628	0.841875	0.438813
Br302	Br	1.245628	1.341875	0.938813
H303	H	0.730030	0.744049	0.416920
H304	H	1.230030	1.244049	0.916920
H305	H	0.568384	0.603432	0.190067
H306	H	1.068384	1.103432	0.690067
H307	H	-0.179312	0.268747	0.376467
H308	H	0.320688	0.768747	0.876467
H309	H	0.701267	0.472607	0.376631
H310	H	1.201267	0.972607	0.876631
H311	H	0.701255	0.387485	0.376621
H312	H	1.201255	0.887485	0.876621
Br313	Br	0.581562	1.057841	0.208504
Br314	Br	1.081562	1.557841	0.708504
H315	H	-0.179332	0.164344	0.230623
H316	H	0.320668	0.664344	0.730623
H317	H	0.121643	0.297498	0.416618
H318	H	0.621643	0.797498	0.916618
H319	H	0.597054	0.387579	0.230381
H320	H	1.097054	0.887579	0.730381
Br321	Br	0.581483	0.485434	0.208486
Br322	Br	1.081483	0.985434	0.708486
H323	H	0.568406	0.744187	0.190054
H324	H	1.068406	1.244187	0.690054
H325	H	0.730007	0.603291	0.416914
H326	H	1.230007	1.103291	0.916914
Br327	Br	0.552808	0.701285	0.168186
Br328	Br	1.052808	1.201285	0.668186
Br329	Br	0.581489	0.284178	0.680822
Br330	Br	1.081489	0.784178	1.180822
