data_functionalizedCrystal
_audit_creation_method	'MofGen! by Chris Wilmer'
_symmetry_space_group_name_H-M	'P1'
_symmetry_Int_Tables_number	1
_symmetry_cell_setting	triclinic
loop_
_symmetry_equiv_pos_as_xyz
  x,y,z
_cell_length_a	15.944551
_cell_length_b	23.532407
_cell_length_c	15.021413
_cell_angle_alpha	89.999348
_cell_angle_beta	89.997174
_cell_angle_gamma	83.173708
loop_
_atom_site_label
_atom_site_type_symbol
_atom_site_fract_x
_atom_site_fract_y
_atom_site_fract_z
O1	O	1.113910	0.073442	-0.073949
O2	O	1.613910	0.573442	0.426051
O3	O	0.869284	0.082498	-0.073972
O4	O	1.369284	0.582498	0.426028
O5	O	0.998974	-0.004933	-0.073943
O6	O	1.498974	0.495067	0.426057
O7	O	0.984220	0.160873	-0.073977
O8	O	1.484220	0.660873	0.426023
O9	O	0.998953	-0.004921	0.074121
O10	O	1.498953	0.495079	0.574121
O11	O	0.869263	0.082510	0.074092
O12	O	1.369263	0.582510	0.574092
O13	O	1.113889	0.073455	0.074116
O14	O	1.613889	0.573455	0.574116
Zn15	Zn	0.991573	0.077985	0.097612
Zn16	Zn	1.491573	0.577985	0.597612
Zn17	Zn	0.991600	0.077968	-0.097469
Zn18	Zn	1.491600	0.577968	0.402531
O19	O	0.984200	0.160886	0.074087
O20	O	1.484200	0.660886	0.574087
C21	C	0.837983	0.082128	0.000057
C22	C	1.337983	0.582128	0.500057
C23	C	0.744746	0.081001	0.000049
C24	C	1.244746	0.581001	0.500049
C25	C	0.530369	0.024113	0.000078
C26	C	1.030369	0.524113	0.500078
C27	C	0.469137	0.050524	-0.072931
C28	C	0.969137	0.550524	0.427069
C29	C	0.574038	0.078962	0.000060
C30	C	1.074038	0.578962	0.500060
C31	C	0.469138	0.050549	0.073049
C32	C	0.969138	0.550549	0.573049
C33	C	0.409142	0.076989	0.000075
C34	C	0.909142	0.576989	0.500075
C35	C	0.514033	0.105388	-0.073009
C36	C	1.014033	0.605388	0.426991
C37	C	0.514041	0.105405	0.073036
C38	C	1.014041	0.605405	0.573036
C39	C	0.452826	0.131856	0.000010
C40	C	0.952826	0.631856	0.500010
C41	C	0.669030	0.080097	0.000051
C42	C	1.169030	0.580097	0.500051
C43	C	0.314150	0.075858	0.000077
C44	C	0.814150	0.575858	0.500077
C45	C	0.998588	-0.026144	0.000091
C46	C	1.498588	0.473856	0.500091
C47	C	0.997458	-0.089366	0.000098
C48	C	1.497458	0.410634	0.500098
C49	C	1.067121	-0.488199	0.000056
C50	C	1.567121	0.011801	0.500056
C51	C	1.066072	-0.547603	0.000049
C52	C	1.566072	-0.047603	0.500049
O53	O	1.130650	-0.584098	0.000022
O54	O	1.630650	-0.084098	0.500022
N55	N	0.988971	-0.570528	0.000042
N56	N	1.488971	-0.070528	0.500042
C57	C	0.912915	-0.534045	0.000033
C58	C	1.412915	-0.034045	0.500033
O59	O	0.847239	-0.558999	0.000026
O60	O	1.347239	-0.058999	0.500026
C61	C	0.913965	-0.474642	0.000034
C62	C	1.413965	0.025358	0.500034
C63	C	0.991071	-0.451721	0.000049
C64	C	1.491071	0.048279	0.500049
C65	C	1.144220	-0.465277	0.000070
C66	C	1.644220	0.034723	0.500070
C67	C	1.145269	-0.405877	0.000079
C68	C	1.645269	0.094123	0.500079
C69	C	1.069219	-0.369399	0.000073
C70	C	1.569219	0.130601	0.500073
C71	C	0.992120	-0.392320	0.000058
C72	C	1.492120	0.107680	0.500058
C73	C	0.837910	-0.438160	0.000018
C74	C	1.337910	0.061840	0.500018
C75	C	0.838967	-0.378754	0.000018
C76	C	1.338967	0.121246	0.500018
C77	C	0.916072	-0.355832	0.000034
C78	C	1.416072	0.144168	0.500034
C79	C	0.917118	-0.296442	0.000060
C80	C	1.417118	0.203558	0.500060
N81	N	0.994219	-0.273517	0.000067
N82	N	1.494219	0.226483	0.500067
C83	C	1.070269	-0.309995	0.000073
C84	C	1.570269	0.190005	0.500073
C85	C	0.910716	-0.658796	0.000031
C86	C	1.410716	-0.158796	0.500031
C87	C	0.909664	-0.718198	0.000037
C88	C	1.409664	-0.218198	0.500037
C89	C	1.062821	-0.731752	0.000050
C90	C	1.562821	-0.231752	0.500050
C91	C	1.063872	-0.672349	0.000051
C92	C	1.563872	-0.172349	0.500051
C93	C	0.987816	-0.635871	0.000037
C94	C	1.487816	-0.135871	0.500037
C95	C	1.072466	-0.185250	0.000092
C96	C	1.572466	0.314750	0.500092
C97	C	1.073508	-0.125844	0.000104
C98	C	1.573508	0.374156	0.500104
C99	C	0.920352	-0.112295	0.000085
C100	C	1.420352	0.387705	0.500085
C101	C	0.919309	-0.171696	0.000078
C102	C	1.419309	0.328304	0.500078
C103	C	0.995373	-0.208173	0.000078
C104	C	1.495373	0.291827	0.500078
O105	O	0.852574	-0.259913	0.000083
O106	O	1.352574	0.240087	0.500083
O107	O	1.135935	-0.285033	0.000069
O108	O	1.635935	0.214967	0.500069
C109	C	1.145190	0.073824	0.000084
C110	C	1.645190	0.573824	0.500084
C111	C	1.238427	0.074951	0.000087
C112	C	1.738427	0.574951	0.500087
C113	C	0.984586	0.182097	0.000051
C114	C	1.484586	0.682097	0.500051
C115	C	0.985715	0.245318	0.000038
C116	C	1.485715	0.745318	0.500038
N117	N	0.991561	0.077995	0.230750
N118	N	1.491561	0.577995	0.730750
N119	N	0.991619	0.077953	-0.230606
N120	N	1.491619	0.577953	0.269394
C121	C	0.931583	0.118404	0.470420
C122	C	1.431583	0.618404	0.970420
C123	C	1.007390	0.129461	0.529759
C124	C	1.507390	0.629461	1.029759
C125	C	0.991582	0.077981	0.412357
C126	C	1.491582	0.577981	0.912357
C127	C	0.915796	0.066938	0.529760
C128	C	1.415796	0.566938	1.029760
C129	C	0.991596	0.077969	0.587781
C130	C	1.491596	0.577969	1.087781
C131	C	1.067428	0.089063	0.470389
C132	C	1.567428	0.589063	0.970389
C133	C	0.975783	0.026518	0.470385
C134	C	1.475783	0.526518	0.970385
C135	C	1.051645	0.037552	0.529697
C136	C	1.551645	0.537552	1.029697
C137	C	0.991573	0.077990	0.311300
C138	C	1.491573	0.577990	0.811300
C139	C	0.991614	0.077960	0.688836
C140	C	1.491614	0.577960	1.188836
H141	H	0.449230	0.027320	-0.134645
H142	H	0.949230	0.527320	0.365355
Br143	Br	1.136311	-0.019437	0.572812
Br144	Br	1.636311	0.480563	1.072812
Br145	Br	0.547029	0.144018	-0.175999
Br146	Br	1.047029	0.644018	0.324001
H147	H	1.131539	0.098450	0.444420
H148	H	1.631539	0.598450	0.944420
H149	H	0.851698	0.057603	0.555841
H150	H	1.351698	0.557603	1.055841
Br151	Br	0.396916	0.207802	-0.000068
Br152	Br	0.896916	0.707802	0.499932
Br153	Br	0.847098	0.175424	0.427034
Br154	Br	1.347098	0.675424	0.927034
H155	H	0.564086	-0.021407	-0.000003
H156	H	1.064086	0.478593	0.499997
H157	H	1.126658	-0.653691	0.000063
H158	H	1.626658	-0.153691	0.500063
Br159	Br	0.547258	0.144050	0.175904
Br160	Br	1.047258	0.644050	0.675904
Br161	Br	0.817146	-0.062778	0.000077
Br162	Br	1.317146	0.437222	0.500077
H163	H	0.449239	0.027346	0.134770
H164	H	0.949239	0.527346	0.634770
H165	H	1.136300	-0.107185	0.000119
H166	H	1.636300	0.392815	0.500119
Br167	Br	0.953451	-0.045991	0.426879
Br168	Br	1.453451	0.454009	0.926879
Br169	Br	1.175697	-0.234745	0.000091
Br170	Br	1.675697	0.265255	0.500091
H171	H	1.208056	-0.387220	0.000088
H172	H	1.708056	0.112780	0.500088
H173	H	1.206153	-0.494973	0.000072
H174	H	1.706153	0.005027	0.500072
H175	H	1.124746	-0.761464	0.000052
H176	H	1.624746	-0.261464	0.500052
Br177	Br	0.805017	-0.749298	0.000036
Br178	Br	1.305017	-0.249298	0.500036
Br179	Br	1.029688	0.201989	0.573227
Br180	Br	1.529688	0.701989	1.073227
H181	H	0.848778	-0.629098	0.000027
H182	H	1.348778	-0.129098	0.500027
H183	H	0.775123	-0.456812	0.000000
H184	H	1.275123	0.043188	0.500000
H185	H	0.777032	-0.349056	0.000006
H186	H	1.277032	0.150944	0.500006
H187	H	0.856524	-0.190359	0.000090
H188	H	1.356524	0.309641	0.500090
