data_functionalizedCrystal
_audit_creation_method	'MofGen! by Chris Wilmer'
_symmetry_space_group_name_H-M	'P1'
_symmetry_Int_Tables_number	1
_symmetry_cell_setting	triclinic
loop_
_symmetry_equiv_pos_as_xyz
  x,y,z
_cell_length_a	18.215407
_cell_length_b	19.077068
_cell_length_c	18.215399
_cell_angle_alpha	92.268164
_cell_angle_beta	89.982632
_cell_angle_gamma	92.324400
loop_
_atom_site_label
_atom_site_type_symbol
_atom_site_fract_x
_atom_site_fract_y
_atom_site_fract_z
Zn1	Zn	1.113286	-0.280256	-0.427823
Zn2	Zn	1.108244	-0.397958	-0.309694
Zn3	Zn	0.990217	-0.280273	-0.304776
Zn4	Zn	0.985236	-0.397912	-0.432722
O5	O	1.049246	-0.339100	-0.368754
O6	O	1.215601	-0.295882	-0.412161
O7	O	1.092562	-0.382373	-0.206058
O8	O	1.010737	-0.181780	-0.316991
O9	O	1.211896	-0.382356	-0.325372
O10	O	1.101155	-0.181768	-0.407392
O11	O	1.005849	-0.295910	-0.202446
O12	O	0.886573	-0.295866	-0.321741
O13	O	1.002247	-0.382279	-0.535056
O14	O	0.882913	-0.382295	-0.415742
O15	O	1.096325	-0.295838	-0.531456
O16	O	1.087732	-0.496443	-0.330122
O17	O	0.997358	-0.496409	-0.420511
C18	C	0.858040	-0.339078	-0.368740
C19	C	0.776241	-0.339086	-0.368752
C20	C	0.589971	-0.294151	-0.414022
C21	C	0.513112	-0.294157	-0.414024
C22	C	0.509272	-0.384068	-0.323500
C23	C	0.586129	-0.384058	-0.323494
C24	C	0.626477	-0.339101	-0.368759
C25	C	0.472760	-0.339117	-0.368768
C26	C	0.389426	-0.339124	-0.368770
C27	C	0.709816	-0.339093	-0.368756
C28	C	1.041478	-0.521964	-0.376398
C29	C	1.038222	-0.600193	-0.379692
C30	C	1.083781	-0.636940	-0.334219
C31	C	1.080723	-0.710445	-0.337322
C32	C	1.032101	-0.747203	-0.385895
C33	C	0.986540	-0.710451	-0.431374
C34	C	0.989602	-0.636947	-0.428274
C35	C	1.017897	-0.967037	-0.400212
C36	C	1.014837	-1.040546	-0.403307
C37	C	1.109021	-1.040535	-0.309256
C38	C	1.112076	-0.967030	-0.306157
C39	C	1.066517	-0.930284	-0.351638
N40	N	1.028973	-0.822337	-0.389067
N41	N	1.069650	-0.855151	-0.348470
C42	C	1.241198	-0.339122	-0.368768
C43	C	1.322996	-0.339132	-0.368774
C44	C	1.049293	-0.339051	-0.560705
C45	C	1.049313	-0.339031	-0.642503
C46	C	1.057064	-0.155522	-0.361096
C47	C	1.060396	-0.077292	-0.357833
C48	C	1.098317	-0.293978	-0.828822
C49	C	1.098327	-0.293958	-0.905680
C50	C	1.000364	-0.383974	-0.909417
C51	C	1.000352	-0.383990	-0.832560
C52	C	1.049332	-0.338994	-0.792265
C53	C	1.049355	-0.338957	-0.945980
C54	C	1.049365	-0.338935	-1.029312
C55	C	1.049322	-0.339014	-0.708927
C56	C	1.049244	-0.339097	-0.177548
C57	C	1.049374	-0.338920	-0.095742
H58	H	0.615853	-0.420662	-0.286632
O59	O	0.633489	-0.245652	-0.462830
H60	H	0.618242	-0.257784	-0.521078
O61	O	0.473741	-0.245675	-0.462847
H62	H	0.440238	-0.209825	-0.428471
O63	O	0.465750	-0.432560	-0.274686
H64	H	0.480989	-0.420412	-0.216439
H65	H	0.975252	-1.070471	-0.442874
H66	H	0.960457	-0.420647	-0.802795
H67	H	0.960488	-0.420610	-0.942235
O68	O	1.136227	-0.597295	-0.281832
H69	H	1.167399	-0.635199	-0.250739
H70	H	1.151667	-0.937103	-0.266605
O71	O	1.129857	-0.750082	-0.288272
H72	H	1.164173	-0.712173	-0.253967
O73	O	1.158179	-1.080165	-0.260223
H74	H	1.147894	-1.137452	-0.270547
H75	H	0.980800	-0.937124	-0.437243
O76	O	0.934088	-0.750091	-0.483757
H77	H	0.939602	-0.807377	-0.478266
H78	H	1.138199	-0.257337	-0.796016
O79	O	0.940455	-0.597307	-0.477311
H80	H	0.906124	-0.635214	-0.511601
H81	H	1.138214	-0.257301	-0.935441
