data_functionalizedCrystal
_audit_creation_method	'MofGen! by Chris Wilmer'
_symmetry_space_group_name_H-M	'P1'
_symmetry_Int_Tables_number	1
_symmetry_cell_setting	triclinic
loop_
_symmetry_equiv_pos_as_xyz
  x,y,z
_cell_length_a	12.759401
_cell_length_b	25.639240
_cell_length_c	12.759393
_cell_angle_alpha	90.039325
_cell_angle_beta	89.982549
_cell_angle_gamma	89.957793
loop_
_atom_site_label
_atom_site_type_symbol
_atom_site_fract_x
_atom_site_fract_y
_atom_site_fract_z
Zn1	Zn	1.606036	0.208132	-0.593928
Zn2	Zn	1.605846	0.295579	-0.418225
Zn3	Zn	1.430341	0.208158	-0.418267
Zn4	Zn	1.430239	0.295537	-0.593866
O5	O	1.518116	0.251852	-0.506072
O6	O	1.753032	0.219739	-0.570629
O7	O	1.582529	0.284011	-0.271210
O8	O	1.453770	0.134990	-0.441613
O9	O	1.752893	0.283986	-0.441541
O10	O	1.582852	0.134970	-0.570670
O11	O	1.453586	0.219783	-0.271241
O12	O	1.283307	0.219742	-0.441553
O13	O	1.453596	0.283914	-0.740896
O14	O	1.283232	0.283939	-0.570565
O15	O	1.582753	0.219698	-0.740941
O16	O	1.582430	0.368739	-0.441481
O17	O	1.453412	0.368708	-0.570524
C18	C	1.245148	0.251839	-0.506057
C19	C	1.128372	0.251847	-0.506076
C20	C	1.073575	0.218457	-0.573396
C21	C	0.963851	0.218467	-0.573403
C22	C	0.963730	0.285262	-0.438766
C23	C	1.073452	0.285249	-0.438755
C24	C	1.128495	0.185055	-0.640717
C25	C	1.073699	0.151662	-0.708044
C26	C	0.963974	0.151672	-0.708051
C27	C	0.909047	0.185075	-0.640731
C28	C	1.517918	0.387694	-0.506014
C29	C	1.517929	0.445808	-0.506024
C30	C	1.585384	0.806175	-0.438953
C31	C	1.585416	0.860779	-0.438963
O32	O	1.642628	0.889019	-0.381905
N33	N	1.518201	0.888091	-0.506095
C34	C	1.450956	0.860795	-0.573229
O35	O	1.393788	0.889040	-0.630331
C36	C	1.450930	0.806192	-0.573223
C37	C	1.518142	0.778883	-0.506079
C38	C	1.652591	0.778866	-0.371816
C39	C	1.652557	0.724266	-0.371805
C40	C	1.585316	0.696974	-0.438931
C41	C	1.518109	0.724283	-0.506068
C42	C	1.383692	0.778897	-0.640361
C43	C	1.383672	0.724290	-0.640350
C44	C	1.450885	0.696981	-0.573207
C45	C	1.450834	0.642390	-0.573183
N46	N	1.518049	0.615079	-0.506051
C47	C	1.585290	0.642371	-0.438925
C48	C	1.451018	0.975466	-0.573237
C49	C	1.451037	1.030068	-0.573238
C50	C	1.585499	1.030048	-0.438973
C51	C	1.585473	0.975445	-0.438968
C52	C	1.518233	0.948154	-0.506105
C53	C	1.585213	0.527706	-0.438906
C54	C	1.585170	0.473100	-0.438898
C55	C	1.450714	0.473125	-0.573165
C56	C	1.450752	0.527725	-0.573170
C57	C	1.518010	0.555014	-0.506037
O58	O	1.393653	0.614116	-0.630216
O59	O	1.642458	0.614119	-0.381842
C60	C	1.792149	0.251864	-0.506087
C61	C	1.908926	0.251870	-0.506093
C62	C	1.518184	0.251798	-0.780105
C63	C	1.518213	0.251776	-0.896882
C64	C	1.518304	1.115479	-0.506135
C65	C	1.518283	1.057365	-0.506115
C66	C	1.451101	0.218326	-0.951766
C67	C	1.451133	0.218311	-1.061490
C68	C	1.585398	0.285196	-1.061436
C69	C	1.585360	0.285214	-0.951714
C70	C	1.383954	0.184888	-0.896934
C71	C	1.316838	0.151436	-0.951818
C72	C	1.316869	0.151420	-1.061542
C73	C	1.384018	0.184857	-1.116382
C74	C	1.518108	0.251867	-0.233104
C75	C	1.518283	0.251742	-0.116328
H76	H	1.118068	0.312438	-0.383936
H77	H	1.707290	0.702034	-0.317134
H78	H	1.640023	0.312444	-0.907026
Cl79	Cl	1.366235	0.562057	-0.657559
H80	H	1.118428	0.124464	-0.762847
H81	H	1.640254	1.052279	-0.384319
Cl82	Cl	1.384051	0.184838	-1.254323
Cl83	Cl	1.366192	0.438805	-0.657554
Cl84	Cl	1.232425	0.109404	-0.882879
Cl85	Cl	0.894677	0.327252	-0.354145
H86	H	1.396297	1.052298	-0.627903
H87	H	0.819702	0.185069	-0.640719
Cl88	Cl	1.299138	0.689985	-0.724758
H89	H	1.383923	0.184896	-0.807591
Cl90	Cl	0.895090	0.109690	-0.792680
H91	H	1.707353	0.801081	-0.317153
H92	H	1.217838	0.185043	-0.640719
Cl93	Cl	1.669672	0.438773	-0.354483
Cl94	Cl	1.669766	0.562003	-0.354507
Cl95	Cl	1.232476	0.109376	-1.130537
Cl96	Cl	1.366470	0.941163	-0.657637
H97	H	1.328956	0.801123	-0.695032
H98	H	1.640203	0.953214	-0.384294
H99	H	1.640069	0.312417	-1.106096
