data_functionalizedCrystal
_audit_creation_method	'MofGen! by Chris Wilmer'
_symmetry_space_group_name_H-M	'P1'
_symmetry_Int_Tables_number	1
_symmetry_cell_setting	triclinic
loop_
_symmetry_equiv_pos_as_xyz
  x,y,z
_cell_length_a	19.188930
_cell_length_b	19.188928
_cell_length_c	8.965430
_cell_angle_alpha	89.986605
_cell_angle_beta	90.011458
_cell_angle_gamma	96.855705
loop_
_atom_site_label
_atom_site_type_symbol
_atom_site_fract_x
_atom_site_fract_y
_atom_site_fract_z
O1	O	0.926137	-0.087170	0.124543
O2	O	1.426137	0.412830	0.624543
O3	O	0.722825	-0.098904	0.124444
O4	O	1.222825	0.401096	0.624444
O5	O	0.830349	0.008619	0.124458
O6	O	1.330349	0.508619	0.624458
O7	O	0.818613	-0.194693	0.124528
O8	O	1.318613	0.305307	0.624528
O9	O	0.830354	0.008626	-0.123620
O10	O	1.330354	0.508626	0.376380
O11	O	0.722831	-0.098897	-0.123635
O12	O	1.222831	0.401103	0.376365
O13	O	0.926142	-0.087162	-0.123536
O14	O	1.426142	0.412838	0.376464
Cu15	Cu	0.824487	-0.093029	-0.146237
Cu16	Cu	1.324487	0.406971	0.353763
Cu17	Cu	0.824481	-0.093038	0.147145
Cu18	Cu	1.324481	0.406962	0.647145
O19	O	0.818618	-0.194685	-0.123551
O20	O	1.318618	0.305315	0.376449
C21	C	0.696817	-0.098520	0.000391
C22	C	1.196817	0.401480	0.500391
C23	C	0.619313	-0.097380	0.000352
C24	C	1.119313	0.402620	0.500352
C25	C	0.574388	-0.160471	0.000397
C26	C	1.074388	0.339529	0.500397
C27	C	0.501564	-0.159399	0.000413
C28	C	1.001564	0.340601	0.500413
C29	C	0.473668	-0.095233	0.000414
C30	C	0.973668	0.404767	0.500414
C31	C	0.518603	-0.032134	0.000360
C32	C	1.018603	0.467866	0.500360
C33	C	0.591425	-0.033207	0.000329
C34	C	1.091425	0.466793	0.500329
N35	N	0.365687	-0.046188	0.084889
N36	N	0.865687	0.453812	0.584889
N37	N	0.296508	-0.045173	0.084922
N38	N	0.796508	0.454827	0.584922
C39	C	0.254260	-0.091995	0.000504
C40	C	0.754260	0.408005	0.500504
N41	N	0.283802	-0.139881	-0.083929
N42	N	0.783802	0.360119	0.416071
N43	N	0.352986	-0.140898	-0.083955
N44	N	0.852986	0.359102	0.416045
C45	C	0.394706	-0.094062	0.000446
C46	C	0.894706	0.405938	0.500446
C47	C	0.130371	-0.153928	0.000564
C48	C	0.630371	0.346072	0.500564
C49	C	0.057546	-0.152854	0.000571
C50	C	0.557546	0.347146	0.500571
C51	C	0.074586	-0.025586	0.000533
C52	C	0.574586	0.474414	0.500533
C53	C	0.147409	-0.026662	0.000512
C54	C	0.647409	0.473338	0.500512
C55	C	0.175297	-0.090835	0.000534
C56	C	0.675297	0.409165	0.500534
C57	C	0.829972	0.034634	0.000412
C58	C	1.329972	0.534634	0.500412
C59	C	0.828832	0.112138	0.000392
C60	C	1.328832	0.612138	0.500392
C61	C	0.891923	0.157062	0.000412
C62	C	1.391923	0.657062	0.500412
C63	C	0.890852	0.229886	0.000430
C64	C	1.390852	0.729886	0.500430
C65	C	0.826686	0.257783	0.000397
C66	C	1.326686	0.757783	0.500397
C67	C	0.763587	0.212849	0.000385
C68	C	1.263587	0.712849	0.500385
C69	C	0.764660	0.140027	0.000383
C70	C	1.264660	0.640027	0.500383
N71	N	0.777642	0.365790	-0.084062
N72	N	1.277642	0.865790	0.415938
N73	N	0.776627	0.434969	-0.084064
N74	N	1.276627	0.934969	0.415936
C75	C	0.823450	0.477192	0.000407
C76	C	1.323450	0.977192	0.500407
N77	N	0.871337	0.447623	0.084859
N78	N	1.371337	0.947623	0.584859
N79	N	0.872354	0.378439	0.084854
N80	N	1.372354	0.878439	0.584854
C81	C	0.825516	0.336745	0.000400
C82	C	1.325516	0.836745	0.500400
C83	C	0.885384	0.601080	0.000448
C84	C	1.385384	1.101080	0.500448
C85	C	0.884311	0.673905	0.000474
C86	C	1.384311	1.173905	0.500474
C87	C	0.757043	0.656866	0.000414
C88	C	1.257043	1.156866	0.500414
C89	C	0.758119	0.584043	0.000403
C90	C	1.258119	1.084043	0.500403
C91	C	0.822291	0.556155	0.000413
C92	C	1.322291	1.056155	0.500413
C93	C	0.952150	-0.087546	0.000520
C94	C	1.452150	0.412454	0.500520
C95	C	1.029655	-0.088687	0.000569
C96	C	1.529655	0.411313	0.500569
C97	C	0.818998	0.779300	0.000477
C98	C	1.318998	1.279300	0.500477
C99	C	0.820144	0.701797	0.000444
C100	C	1.320144	1.201797	0.500444
N101	N	0.824477	-0.093039	0.353494
N102	N	1.324477	0.406961	0.853494
N103	N	0.824496	-0.093022	-0.352586
N104	N	1.324496	0.406978	0.147414
C105	C	0.774654	-0.142670	0.450784
C106	C	1.274654	0.357330	0.950784
C107	C	0.761461	-0.079567	0.550171
C108	C	1.261461	0.420433	1.050171
C109	C	0.837658	-0.156120	0.550234
C110	C	1.337658	0.343880	1.050234
C111	C	0.811253	-0.029904	0.450692
C112	C	1.311253	0.470096	0.950692
C113	C	0.887477	-0.106498	0.450747
C114	C	1.387477	0.393502	0.950747
C115	C	0.874311	-0.043350	0.550089
C116	C	1.374311	0.456650	1.050089
H117	H	0.183988	0.024713	0.000483
H118	H	0.683988	0.524713	0.500483
H119	H	0.708193	-0.068173	0.593854
H120	H	1.208193	0.431827	1.093854
H121	H	0.628003	0.018171	0.000293
H122	H	1.128003	0.518171	0.500293
H123	H	0.800050	0.023461	0.407152
H124	H	1.300050	0.523461	0.907152
H125	H	0.935689	0.710482	0.000499
H126	H	1.435689	1.210482	0.500499
H127	H	0.153078	-0.206181	0.000560
H128	H	0.653078	0.293819	0.500560
H129	H	0.916456	-0.001325	0.593418
H130	H	1.416456	0.498675	1.093418
H131	H	0.020968	-0.204232	0.000599
H132	H	0.520968	0.295768	0.500599
H133	H	0.597089	-0.212725	0.000418
H134	H	1.097089	0.287275	0.500418
H135	H	0.937637	0.578372	0.000462
H136	H	1.437637	1.078372	0.500462
H137	H	0.848808	-0.209475	0.593931
H138	H	1.348808	0.290525	1.093931
H139	H	0.711342	0.235567	0.000362
H140	H	1.211342	0.735567	0.500362
H141	H	0.944177	0.134361	0.000425
H142	H	1.444177	0.634361	0.500425
H143	H	0.940728	-0.117916	0.407038
H144	H	1.440728	0.382084	0.907038
H145	H	0.713281	0.103449	0.000366
H146	H	1.213281	0.603449	0.500366
H147	H	0.464980	-0.210777	0.000445
H148	H	0.964980	0.289223	0.500445
H149	H	0.051874	0.026659	0.000627
H150	H	0.551874	0.526659	0.500627
H151	H	0.495885	0.020111	0.000381
H152	H	0.995885	0.520111	0.500381
H153	H	0.942230	0.266470	0.000452
H154	H	1.442230	0.766470	0.500452
H155	H	0.704798	0.679579	0.000395
H156	H	1.204798	1.179579	0.500395
H157	H	0.706743	0.547464	0.000378
H158	H	1.206743	1.047464	0.500378
H159	H	0.732484	-0.184600	0.407179
H160	H	1.232484	0.315400	0.907179
