data_functionalizedCrystal
_audit_creation_method	'MofGen! by Chris Wilmer'
_symmetry_space_group_name_H-M	'P1'
_symmetry_Int_Tables_number	1
_symmetry_cell_setting	triclinic
loop_
_symmetry_equiv_pos_as_xyz
  x,y,z
_cell_length_a	12.811453
_cell_length_b	11.295483
_cell_length_c	16.992695
_cell_angle_alpha	94.374931
_cell_angle_beta	87.341904
_cell_angle_gamma	80.460400
loop_
_atom_site_label
_atom_site_type_symbol
_atom_site_fract_x
_atom_site_fract_y
_atom_site_fract_z
O1	O	-1.418420	0.252200	-0.092273
O2	O	-1.111581	0.219067	-0.105514
O3	O	-1.263770	0.235491	0.015246
O4	O	-1.266231	0.235776	-0.213032
O5	O	-1.250401	0.035998	0.004656
O6	O	-1.098212	0.019574	-0.116104
O7	O	-1.405051	0.052707	-0.102863
Cu8	Cu	-1.250411	0.017925	-0.110450
Cu9	Cu	-1.266221	0.253849	-0.097926
O10	O	-1.252863	0.036283	-0.223623
C11	C	-1.065453	0.115062	-0.110391
C12	C	-0.947924	0.102370	-0.109135
N13	N	-1.239299	-0.148011	-0.119259
C14	C	-0.741646	0.296032	-0.095244
C15	C	-0.631217	0.284113	-0.094064
C16	C	-0.616635	0.066614	-0.105601
C17	C	-0.727064	0.078533	-0.106781
C18	C	-0.789566	0.193246	-0.101601
C19	C	-0.899997	0.205164	-0.102775
C20	C	-0.885413	-0.012334	-0.114318
C21	C	-0.774984	-0.024254	-0.113138
C22	C	-1.357328	-0.384563	-0.025660
C23	C	-1.348938	-0.510132	-0.032322
C24	C	-1.214126	-0.524720	-0.139241
C25	C	-1.222515	-0.399151	-0.132579
C26	C	-1.294120	-0.329076	-0.075787
C27	C	-1.302514	-0.203505	-0.069129
C28	C	-1.167697	-0.218096	-0.176044
C29	C	-1.159307	-0.343665	-0.182706
C30	C	-0.451179	0.156714	-0.097986
C31	C	-0.568708	0.169407	-0.099241
C32	C	-1.253921	0.135403	0.039156
C33	C	-1.244478	0.134384	0.126176
N34	N	-1.277341	0.419785	-0.089112
C35	C	-1.262712	0.136374	-0.247532
C36	C	-1.272155	0.137401	-0.334552
C37	C	-1.335586	0.144221	0.176642
C38	C	-1.326709	0.143273	0.258408
C39	C	-1.226721	0.132480	0.289705
C40	C	-1.135606	0.122647	0.239232
C41	C	-1.144485	0.123603	0.157469
C42	C	-1.189919	0.128523	0.533212
C43	C	-1.181046	0.127564	0.614982
C44	C	-1.372150	0.148193	0.634151
C45	C	-1.381021	0.149141	0.552385
C46	C	-1.289906	0.139313	0.501921
N47	N	-1.217643	0.131508	0.373281
N48	N	-1.298985	0.140294	0.418346
H49	H	-0.950885	0.298570	-0.098556
H50	H	-0.565727	-0.026781	-0.109826
H51	H	-0.792537	0.389436	-0.091022
H52	H	-0.592206	0.367813	-0.088889
H53	H	-1.415638	-0.327505	0.020577
Br54	Br	-1.020834	0.110262	0.088978
Br55	Br	-0.950453	-0.151839	-0.122929
Br56	Br	-1.081921	-0.142782	-0.244084
H57	H	-0.724079	-0.117650	-0.117359
H58	H	-1.462441	0.157929	0.526910
Br59	Br	-1.399695	-0.108404	0.007940
Br60	Br	-1.066263	0.115193	0.464735
Br61	Br	-1.116939	-0.619835	-0.216300
Br62	Br	-1.434719	-0.585432	0.035714
H63	H	-1.101005	-0.400735	-0.228943
Br64	Br	-1.495799	0.161530	0.702643
Br65	Br	-1.471290	0.158851	0.134176
Br66	Br	-1.045339	0.112903	0.657455
Br67	Br	-0.999907	0.108019	0.281707
Br68	Br	-1.450362	0.156624	0.326895
