data_functionalizedCrystal
_audit_creation_method	'MofGen! by Chris Wilmer'
_symmetry_space_group_name_H-M	'P1'
_symmetry_Int_Tables_number	1
_symmetry_cell_setting	triclinic
loop_
_symmetry_equiv_pos_as_xyz
  x,y,z
_cell_length_a	12.759399
_cell_length_b	12.759401
_cell_length_c	12.759393
_cell_angle_alpha	89.977351
_cell_angle_beta	90.030045
_cell_angle_gamma	89.986824
loop_
_atom_site_label
_atom_site_type_symbol
_atom_site_fract_x
_atom_site_fract_y
_atom_site_fract_z
Zn1	Zn	-0.418278	-1.606247	0.594109
Zn2	Zn	-0.593997	-1.606138	0.418434
Zn3	Zn	-0.418324	-1.430549	0.418435
Zn4	Zn	-0.593907	-1.430535	0.594062
O5	O	-0.506127	-1.518367	0.506260
O6	O	-0.441605	-1.753254	0.570824
O7	O	-0.570750	-1.582807	0.271413
O8	O	-0.271297	-1.453908	0.441759
O9	O	-0.570705	-1.753174	0.441756
O10	O	-0.271263	-1.582992	0.570826
O11	O	-0.441685	-1.453802	0.271414
O12	O	-0.441598	-1.283526	0.441714
O13	O	-0.570553	-1.453883	0.741090
O14	O	-0.570598	-1.283516	0.570746
O15	O	-0.441519	-1.582978	0.741124
O16	O	-0.741006	-1.582792	0.441711
O17	O	-0.740940	-1.453777	0.570745
C18	C	-0.506094	-1.245400	0.506226
C19	C	-0.506105	-1.128623	0.506236
C20	C	-0.438845	-1.073736	0.439170
C21	C	-0.438867	-0.964012	0.439178
C22	C	-0.573412	-0.964072	0.573327
C23	C	-0.573395	-1.073794	0.573313
C24	C	-0.361163	-1.073701	0.361723
C25	C	-0.361184	-0.963977	0.361731
C26	C	-0.779094	-1.518300	0.506245
C27	C	-0.895871	-1.518367	0.506274
C28	C	-0.950833	-1.451246	0.439036
C29	C	-1.060557	-1.451318	0.439052
C30	C	-1.060346	-1.585633	0.573556
C31	C	-0.950624	-1.585566	0.573533
C32	C	-0.896080	-1.384047	0.371777
C33	C	-0.951043	-1.316920	0.304534
C34	C	-1.060767	-1.316991	0.304550
C35	C	-1.115528	-1.384190	0.371811
C36	C	-0.232093	-1.518464	0.506298
C37	C	-0.115317	-1.518505	0.506314
C38	C	-0.506021	-1.518441	0.780294
C39	C	-0.505975	-1.518472	0.897070
C40	C	-0.506152	-0.792401	0.506282
C41	C	-0.506144	-0.909177	0.506258
C42	C	-0.506156	-1.518355	0.233293
C43	C	-0.505906	-1.518527	0.116517
C44	C	-0.438781	-1.585702	0.951952
C45	C	-0.438743	-1.585727	1.061676
C46	C	-0.573103	-1.451290	1.061627
C47	C	-0.573135	-1.451261	0.951905
C48	C	-0.361212	-1.663321	0.951981
C49	C	-0.361174	-1.663346	1.061705
H50	H	-0.628197	-0.919417	0.627939
C51	C	-1.236228	-1.384267	0.371822
N52	N	-1.327139	-1.384321	0.371834
C53	C	-0.390630	-1.773267	1.101948
N54	N	-0.412819	-1.856057	1.132258
H55	H	-1.104941	-1.640342	0.628317
C56	C	-0.890162	-1.659395	0.647506
N57	N	-0.844621	-1.715005	0.703225
C58	C	-0.647400	-1.134166	0.647078
N59	N	-0.703145	-1.179638	0.702639
H60	H	-0.390385	-1.740592	0.917951
C61	C	-0.251303	-0.923764	0.391374
N62	N	-0.168545	-0.893477	0.413704
C63	C	-0.890804	-1.243009	0.230549
N64	N	-0.845433	-1.187337	0.174823
H65	H	-0.627847	-1.396512	0.907225
H66	H	-0.627780	-1.396566	1.106287
C67	C	-1.121223	-1.243154	0.230580
N68	N	-1.166756	-1.187533	0.174867
C69	C	-0.251296	-1.633906	0.911772
N70	N	-0.168510	-1.611749	0.881487
H71	H	-0.382852	-1.103432	0.280311
C72	C	-0.256783	-1.119711	0.401266
N73	N	-0.178163	-1.154366	0.431051
H74	H	-0.283864	-1.634233	1.095749
H75	H	-0.806737	-1.383980	0.371757
H76	H	-0.390241	-0.929905	0.284386
