data_functionalizedCrystal
_audit_creation_method	'MofGen! by Chris Wilmer'
_symmetry_space_group_name_H-M	'P1'
_symmetry_Int_Tables_number	1
_symmetry_cell_setting	triclinic
loop_
_symmetry_equiv_pos_as_xyz
  x,y,z
_cell_length_a	23.532407
_cell_length_b	12.837943
_cell_length_c	11.892113
_cell_angle_alpha	86.040150
_cell_angle_beta	94.394077
_cell_angle_gamma	91.161191
loop_
_atom_site_label
_atom_site_type_symbol
_atom_site_fract_x
_atom_site_fract_y
_atom_site_fract_z
O1	O	0.151535	-1.379806	0.094008
O2	O	0.144226	-1.078076	0.094014
O3	O	0.065470	-1.238039	0.093990
O4	O	0.230291	-1.219844	0.094032
O5	O	0.058332	-1.226273	-0.094019
O6	O	0.137088	-1.066311	-0.093995
O7	O	0.144397	-1.368041	-0.094000
Zn8	Zn	0.139610	-1.215308	-0.123848
Zn9	Zn	0.149013	-1.230809	0.123862
O10	O	0.223153	-1.208078	-0.093977
C11	C	0.138188	-1.033598	0.000010
C12	C	0.130823	-0.918597	0.000011
C13	C	0.040658	-1.231692	-0.000017
C14	C	-0.022639	-1.230299	-0.000026
N15	N	0.133192	-1.204736	-0.292904
C16	C	-0.416810	-1.316227	0.000035
C17	C	-0.476284	-1.314933	0.000043
O18	O	-0.508456	-1.394589	0.000084
N19	N	-0.504366	-1.219835	0.000044
C20	C	-0.472971	-1.126025	0.000048
O21	O	-0.502319	-1.045018	0.000051
C22	C	-0.413498	-1.127320	0.000047
C23	C	-0.385419	-1.222424	0.000035
C24	C	-0.388730	-1.411323	0.000024
C25	C	-0.329260	-1.412616	0.000013
C26	C	-0.297870	-1.318813	0.000013
C27	C	-0.325949	-1.223717	0.000024
C28	C	-0.382103	-1.033512	0.000059
C29	C	-0.322626	-1.034815	0.000060
C30	C	-0.294547	-1.129919	0.000047
C31	C	-0.235088	-1.131207	0.000014
N32	N	-0.207005	-1.226306	0.000013
C33	C	-0.238396	-1.320109	0.000013
C34	C	-0.597869	-1.123312	0.000051
C35	C	-0.657342	-1.122015	0.000043
C36	C	-0.660650	-1.310924	0.000041
C37	C	-0.601177	-1.312220	0.000040
C38	C	-0.569787	-1.218410	0.000050
C39	C	-0.113505	-1.322817	-0.000011
C40	C	-0.054030	-1.324102	-0.000026
C41	C	-0.050726	-1.135194	-0.000018
C42	C	-0.110197	-1.133908	-0.000008
C43	C	-0.141584	-1.227729	-0.000001
O44	O	-0.202878	-1.051594	-0.000022
O45	O	-0.209041	-1.401104	0.000025
C46	C	0.247965	-1.214425	0.000033
C47	C	0.311262	-1.215819	0.000049
C48	C	0.150435	-1.412519	0.000006
C49	C	0.157800	-1.527520	0.000012
C50	C	0.219357	-0.676728	0.000017
C51	C	0.212440	-0.568673	0.000017
C52	C	0.110073	-0.594431	0.000004
C53	C	0.116990	-0.702485	0.000003
C54	C	0.171634	-0.743630	0.000012
C55	C	0.178550	-0.851687	0.000020
C56	C	0.076184	-0.877442	-0.000002
C57	C	0.069267	-0.769387	-0.000002
C58	C	0.200113	-1.314942	-0.529538
C59	C	0.195622	-1.307561	-0.647881
C60	C	0.119719	-1.182598	-0.647934
C61	C	0.124209	-1.189979	-0.529591
C62	C	0.164408	-1.256152	-0.470398
C63	C	0.168901	-1.263528	-0.352053
C64	C	0.092994	-1.138571	-0.352108
C65	C	0.088504	-1.131189	-0.470450
N66	N	0.155427	-1.241390	0.292917
H67	H	-0.031171	-1.401550	-0.000039
H68	H	0.086985	-1.128734	-0.696150
O69	O	-0.298982	-1.515198	0.000010
H70	H	-0.252352	-1.500356	-0.000001
H71	H	-0.686219	-1.387304	0.000045
H72	H	0.055774	-1.077316	-0.518662
O73	O	0.237486	-0.896060	0.000019
H74	H	0.246005	-0.949460	0.076652
O75	O	-0.147356	-1.424005	-0.000019
H76	H	-0.117832	-1.490339	-0.000043
O77	O	-0.422584	-1.512504	0.000007
H78	H	-0.393058	-1.578836	-0.000012
H79	H	-0.572315	-1.046916	0.000049
H80	H	0.251302	-0.514204	0.000019
O81	O	-0.570891	-1.414795	0.000048
H82	H	-0.602716	-1.479799	0.000057
O83	O	0.054473	-1.075167	-0.288324
H84	H	0.064344	-1.091422	-0.196087
H85	H	-0.404955	-0.956069	0.000076
H86	H	-0.297071	-0.958423	0.000069
O87	O	-0.687626	-1.019439	0.000042
H88	H	-0.655800	-0.954436	0.000047
H89	H	0.065581	-0.560906	-0.000097
O90	O	-0.140488	-1.031336	0.000001
H91	H	-0.108665	-0.966327	0.000005
H92	H	0.024777	-0.735872	-0.000022
O93	O	0.278290	-0.721117	0.000025
H94	H	0.310314	-0.656441	0.000023
H95	H	0.037324	-0.931927	0.000001
H96	H	0.201635	-1.317405	-0.303859
H97	H	-0.025157	-1.058821	-0.000021
O98	O	0.243469	-1.386305	-0.465681
H99	H	0.267542	-1.425949	-0.526689
H100	H	0.224697	-1.355434	-0.696029
