data_functionalizedCrystal
_audit_creation_method	'MofGen! by Chris Wilmer'
_symmetry_space_group_name_H-M	'P1'
_symmetry_Int_Tables_number	1
_symmetry_cell_setting	triclinic
loop_
_symmetry_equiv_pos_as_xyz
  x,y,z
_cell_length_a	10.908878
_cell_length_b	13.262508
_cell_length_c	10.065875
_cell_angle_alpha	114.496368
_cell_angle_beta	83.443480
_cell_angle_gamma	72.748119
loop_
_atom_site_label
_atom_site_type_symbol
_atom_site_fract_x
_atom_site_fract_y
_atom_site_fract_z
O1	O	1.733438	-0.192405	-0.184891
O2	O	1.354680	-0.105189	-0.152523
O3	O	1.563510	-0.313279	-0.229758
O4	O	1.524608	0.015685	-0.107657
O5	O	1.523682	-0.273468	0.012007
O6	O	1.314851	-0.065378	0.089242
O7	O	1.693610	-0.152594	0.056874
Zn8	Zn	1.497907	-0.102665	0.111443
Zn9	Zn	1.550383	-0.155118	-0.207092
O10	O	1.484779	0.055496	0.134108
C11	C	1.286467	-0.077133	-0.028616
C12	C	1.142552	-0.052860	-0.019608
C13	C	1.098514	-0.141429	-0.052483
C14	C	0.949772	-0.116344	-0.043174
C15	C	1.545078	-0.334827	-0.124264
C16	C	1.549478	-0.458343	-0.170118
C17	C	1.475031	-0.719718	0.227788
C18	C	1.470886	-0.603666	0.270873
C19	C	1.490534	-0.567329	0.160629
C20	C	1.514327	-0.647057	0.007293
C21	C	1.518462	-0.763118	-0.035795
C22	C	1.533965	-0.610729	-0.102955
C23	C	1.557758	-0.690456	-0.256291
C24	C	1.561893	-0.806505	-0.299371
C25	C	1.542245	-0.842842	-0.189127
C26	C	1.529830	-0.494668	-0.059867
C27	C	1.573261	-0.538067	-0.323450
C28	C	1.577406	-0.654119	-0.366535
C29	C	1.761823	-0.180651	-0.067036
C30	C	1.905740	-0.204925	-0.076054
C31	C	1.503212	0.077043	0.028612
C32	C	1.498814	0.200557	0.074456
N33	N	1.462103	-0.066870	0.328835
N34	N	1.586197	-0.190924	-0.424488
C35	C	1.537918	-0.142669	0.368480
C36	C	1.510372	-0.115114	0.535875
H37	H	1.510446	-0.429761	0.064982
Br38	Br	1.484902	-0.409825	0.219104
H39	H	0.877360	-0.021940	-0.008141
Br40	Br	1.021868	0.104481	0.038774
H41	H	1.671499	-0.276228	0.485530
H42	H	1.459026	-0.749314	0.317533
H43	H	1.451527	-0.538764	0.395718
H44	H	0.978153	-0.299333	-0.111104
Br45	Br	1.679784	-0.285058	0.218430
H46	H	1.545625	-0.937342	-0.224200
Br47	Br	1.219203	-0.298775	-0.110893
H48	H	1.581255	-0.871415	-0.424226
H49	H	1.425061	-0.029816	0.625855
H50	H	1.376798	0.018422	0.418818
Br51	Br	1.609703	-0.762335	-0.574629
H52	H	1.589251	-0.508481	-0.413220
