data_functionalizedCrystal
_audit_creation_method	'MofGen! by Chris Wilmer'
_symmetry_space_group_name_H-M	'P1'
_symmetry_Int_Tables_number	1
_symmetry_cell_setting	triclinic
loop_
_symmetry_equiv_pos_as_xyz
  x,y,z
_cell_length_a	11.792241
_cell_length_b	10.654541
_cell_length_c	9.130307
_cell_angle_alpha	89.996917
_cell_angle_beta	90.002681
_cell_angle_gamma	84.338672
loop_
_atom_site_label
_atom_site_type_symbol
_atom_site_fract_x
_atom_site_fract_y
_atom_site_fract_z
O1	O	1.507300	0.172134	-0.121656
O2	O	1.177000	0.189874	-0.121691
O3	O	1.349746	-0.001757	-0.121664
O4	O	1.334555	0.363765	-0.121683
O5	O	1.349740	-0.001759	0.121935
O6	O	1.176994	0.189872	0.121908
O7	O	1.507295	0.172132	0.121943
Cu8	Cu	1.342144	0.181002	0.144168
Cu9	Cu	1.342151	0.181004	-0.143916
O10	O	1.334549	0.363763	0.121916
C11	C	1.348628	-0.048553	0.000135
C12	C	1.345293	-0.187987	0.000132
C13	C	1.134704	0.188759	0.000105
C14	C	1.008682	0.185423	0.000092
C15	C	1.551857	-0.216542	0.000172
C16	C	1.653568	-0.296324	0.000195
C17	C	1.650427	-0.427333	0.000190
C18	C	1.545564	-0.478562	0.000158
C19	C	1.443854	-0.398780	0.000135
C20	C	1.447006	-0.267770	0.000144
C21	C	1.237292	-0.370225	0.000085
C22	C	1.240430	-0.239216	0.000100
C23	C	1.132429	-0.421454	0.000053
C24	C	1.030716	-0.341672	0.000040
C25	C	1.033861	-0.210655	0.000047
C26	C	1.138720	-0.159434	0.000077
C27	C	0.777956	0.179290	0.000134
C28	C	0.906349	0.182698	0.000111
C29	C	1.549591	0.173247	0.000144
C30	C	1.675612	0.176582	0.000147
C31	C	1.335667	0.410559	0.000114
C32	C	1.339002	0.549993	0.000107
N33	N	1.342148	0.180999	0.346791
N34	N	1.342156	0.180996	-0.346539
C35	C	1.495177	0.011360	0.346805
C36	C	1.571699	-0.073457	0.423478
C37	C	1.571711	-0.073458	0.576812
C38	C	1.495189	0.011365	0.653475
C39	C	1.418667	0.096181	0.576801
C40	C	1.418666	0.096175	0.423464
C41	C	1.265634	0.265813	0.576788
C42	C	1.265626	0.265822	0.423454
C43	C	1.189113	0.350635	0.653451
C44	C	1.112594	0.435459	0.576777
C45	C	1.112587	0.435457	0.423435
C46	C	1.189104	0.350638	0.346781
H47	H	1.554425	-0.109869	0.000196
C48	C	1.047613	0.652376	0.376215
C49	C	1.028472	0.528694	0.339158
H50	H	0.995687	0.709935	0.324182
H51	H	1.036663	0.664500	0.478495
H52	H	1.123467	0.666575	0.351076
H53	H	0.952620	0.514492	0.364307
H54	H	1.039413	0.516564	0.236855
H55	H	0.951036	-0.145703	0.000022
C56	C	1.086988	0.036004	0.125303
C57	C	1.142183	-0.015428	0.000090
H58	H	1.089137	0.124906	0.125310
H59	H	1.009991	0.016923	0.125267
H60	H	1.124418	0.001075	0.210250
H61	H	1.104747	0.019494	-0.084858
H62	H	1.219194	0.003664	0.000112
H63	H	1.495185	0.011362	0.221952
H64	H	0.945345	-0.383393	0.000005
C65	C	1.081997	0.324479	0.873108
C66	C	1.189122	0.350631	0.821998
H67	H	1.082008	0.324473	0.977162
H68	H	1.025485	0.387129	0.838421
H69	H	1.065859	0.244086	0.838419
H70	H	1.205257	0.431029	0.856678
H71	H	1.245652	0.287978	0.856699
C72	C	0.916683	0.507710	0.623989
C73	C	1.028485	0.528679	0.661051
H74	H	0.864759	0.565256	0.676030
H75	H	0.905736	0.519866	0.521711
H76	H	0.903728	0.423788	0.649118
H77	H	1.041443	0.612598	0.635912
H78	H	1.039438	0.516533	0.763352
C79	C	1.830614	-0.280304	-0.124993
C80	C	1.768827	-0.240006	0.000223
H81	H	1.901766	-0.245530	-0.124982
H82	H	1.843298	-0.369734	-0.124981
H83	H	1.788685	-0.252956	-0.209939
H84	H	1.810752	-0.267362	0.085169
H85	H	1.756147	-0.150557	0.000224
C86	C	1.071662	-0.601353	0.125245
C87	C	1.128965	-0.565460	0.000041
H88	H	1.069516	-0.690256	0.125232
H89	H	1.110515	-0.577003	0.210189
H90	H	0.996085	-0.561156	0.125210
H91	H	1.204546	-0.605650	0.000082
H92	H	1.090115	-0.589823	-0.084925
H93	H	1.733248	-0.492293	0.000197
C94	C	1.639741	-0.148680	0.188429
C95	C	1.655873	-0.166620	0.339207
H96	H	1.691729	-0.206173	0.136412
H97	H	1.563922	-0.162968	0.163267
H98	H	1.652651	-0.064735	0.163352
H99	H	1.642955	-0.250564	0.364286
H100	H	1.731710	-0.152342	0.364380
C101	C	1.722977	-0.241149	0.561440
C102	C	1.655818	-0.166694	0.661100
H103	H	1.774902	-0.298705	0.613480
H104	H	1.675381	-0.286679	0.501640
H105	H	1.764209	-0.188556	0.501628
H106	H	1.614579	-0.219287	0.720906
H107	H	1.703420	-0.121161	0.720925
H108	H	1.495194	0.011348	0.778327
H109	H	1.189109	0.350633	0.221928
H110	H	1.543016	-0.585238	0.000136
