data_functionalizedCrystal
_audit_creation_method	'MofGen! by Chris Wilmer'
_symmetry_space_group_name_H-M	'P1'
_symmetry_Int_Tables_number	1
_symmetry_cell_setting	triclinic
loop_
_symmetry_equiv_pos_as_xyz
  x,y,z
_cell_length_a	13.930277
_cell_length_b	17.699083
_cell_length_c	14.853554
_cell_angle_alpha	83.456229
_cell_angle_beta	89.998857
_cell_angle_gamma	89.998900
loop_
_atom_site_label
_atom_site_type_symbol
_atom_site_fract_x
_atom_site_fract_y
_atom_site_fract_z
O1	O	-0.079691	-1.004368	-0.114002
O2	O	-0.079722	-0.784027	-0.128835
O3	O	-0.079705	-0.900089	0.009834
O4	O	-0.079708	-0.888307	-0.252671
O5	O	0.079957	-0.900077	0.009829
O6	O	0.079940	-0.784016	-0.128840
O7	O	0.079970	-1.004356	-0.114007
Zn8	Zn	0.105305	-0.894184	-0.121425
Zn9	Zn	-0.105057	-0.894200	-0.121417
O10	O	0.079953	-0.888295	-0.252676
C11	C	0.000105	-0.755823	-0.128306
C12	C	0.000093	-0.671801	-0.126711
N13	N	0.248871	-0.894179	-0.121429
C14	C	0.000124	-0.899551	0.043418
C15	C	0.000118	-0.897956	0.143497
C16	C	0.299127	-0.842780	-0.182813
C17	C	0.299120	-0.945582	-0.060042
C18	C	0.399616	-0.945590	-0.060039
C19	C	0.449872	-0.894191	-0.121423
C20	C	0.399632	-0.842784	-0.182810
C21	C	0.449863	-0.996991	0.001353
C22	C	0.550365	-0.997000	0.001359
C23	C	0.600623	-0.945604	-0.060031
C24	C	0.550377	-0.894196	-0.121421
C25	C	0.600632	-0.842797	-0.182805
C26	C	0.550388	-0.791392	-0.244200
C27	C	0.449889	-0.791388	-0.244200
C28	C	0.701122	-0.945607	-0.060031
C29	C	0.701137	-0.842801	-0.182802
N30	N	0.751377	-0.894208	-0.121415
C31	C	0.000141	-1.032560	-0.114536
C32	C	0.000147	-1.116583	-0.116131
C33	C	0.000092	-0.623388	-0.208107
C34	C	0.000104	-0.544441	-0.206603
C35	C	0.000111	-0.513908	-0.123703
C36	C	0.000114	-0.562327	-0.042302
C37	C	0.000109	-0.641273	-0.043806
C38	C	0.000138	-0.243949	-0.036232
C39	C	0.000141	-0.164997	-0.034734
C40	C	0.000134	-0.147117	-0.199030
C41	C	0.000128	-0.226062	-0.200534
C42	C	0.000137	-0.274475	-0.119133
C43	C	0.000125	-0.360078	-0.120764
C44	C	0.000116	-0.428306	-0.122071
C45	C	-0.086916	-0.891199	0.566651
C46	C	0.087154	-0.891186	0.566640
C47	C	0.087155	-0.892691	0.472612
C48	C	0.000120	-0.893448	0.425599
C49	C	-0.086917	-0.892702	0.472614
C50	C	0.174190	-0.893430	0.425588
C51	C	0.174195	-0.894933	0.331554
C52	C	0.087158	-0.895696	0.284541
C53	C	0.000118	-0.894950	0.331562
C54	C	-0.086917	-0.895708	0.284549
C55	C	-0.173959	-0.894967	0.331569
C56	C	-0.173954	-0.893465	0.425600
C57	C	0.087153	-0.897199	0.190510
C58	C	-0.086919	-0.897210	0.190512
C59	C	0.000122	-0.888837	0.713740
C60	C	0.000120	-0.890442	0.613664
H61	H	0.742050	-0.800949	-0.232792
O62	O	0.258804	-0.895559	0.285970
C63	C	0.311739	-0.829683	0.298564
H64	H	0.286988	-0.806750	0.363380
H65	H	0.299675	-0.784669	0.238383
C66	C	0.449693	-0.877675	0.226451
C67	C	0.419299	-0.849512	0.306063
H68	H	0.516042	-0.889905	0.231073
H69	H	0.414029	-0.922056	0.217962
H70	H	0.439632	-0.840160	0.176308
H71	H	0.429350	-0.887031	0.356202
H72	H	0.454967	-0.805138	0.314560
H73	H	0.742026	-0.987457	-0.010040
O74	O	0.171717	-0.890317	0.612247
C75	C	0.224675	-0.825196	0.578899
H76	H	0.173751	-0.779832	0.545805
H77	H	0.278950	-0.840876	0.526663
C78	C	0.340542	-0.849878	0.698383
C79	C	0.277995	-0.794158	0.657743
H80	H	0.373436	-0.830733	0.747016
H81	H	0.304866	-0.893753	0.720848
H82	H	0.385762	-0.862940	0.654845
H83	H	0.232768	-0.781104	0.701278
H84	H	0.313664	-0.750280	0.635286
O85	O	-0.171435	-0.898058	0.144811
C86	C	-0.176640	-0.964401	0.100732
H87	H	-0.127273	-1.009745	0.136305
H88	H	-0.153235	-0.950718	0.027133
C89	C	-0.341265	-0.938407	0.060256
C90	C	-0.280638	-0.994102	0.103953
H91	H	-0.405416	-0.956727	0.062239
H92	H	-0.337758	-0.893709	0.089950
H93	H	-0.321749	-0.927010	-0.001072
H94	H	-0.300147	-1.005491	0.165283
H95	H	-0.284151	-1.038803	0.074269
H96	H	-0.244818	-0.892861	0.463892
H97	H	0.000086	-0.648241	-0.275614
O98	O	-0.171432	-0.890338	0.612348
C99	C	-0.176621	-0.823980	0.656402
H100	H	-0.127238	-0.778654	0.620816
H101	H	-0.153225	-0.837650	0.730005
C102	C	-0.341257	-0.849929	0.696876
C103	C	-0.280609	-0.794256	0.653165
H104	H	-0.405402	-0.831594	0.694884
H105	H	-0.337761	-0.894636	0.667200
H106	H	-0.321748	-0.861315	0.758208
H107	H	-0.300111	-0.782877	0.591832
H108	H	-0.284111	-0.749545	0.682831
O109	O	-0.000056	-0.255753	-0.281043
C110	C	-0.082742	-0.300890	-0.286813
H111	H	-0.140528	-0.282171	-0.239733
H112	H	-0.064053	-0.363126	-0.265890
C113	C	-0.049275	-0.314399	-0.442802
C114	C	-0.120252	-0.291405	-0.384982
H115	H	-0.072411	-0.308552	-0.503357
H116	H	0.006434	-0.283992	-0.438914
H117	H	-0.033707	-0.366262	-0.425355
H118	H	-0.135810	-0.239541	-0.402422
H119	H	-0.175965	-0.321803	-0.388875
H120	H	0.000103	-0.505026	-0.272884
O121	O	-0.000066	-0.688274	0.035285
C122	C	-0.082741	-0.674407	0.085643
H123	H	-0.140537	-0.647469	0.037993
H124	H	-0.064042	-0.634161	0.137739
C125	C	-0.049252	-0.783102	0.193169
C126	C	-0.120241	-0.750022	0.134643
H127	H	-0.072382	-0.829744	0.223398
H128	H	0.006450	-0.792443	0.159244
H129	H	-0.033676	-0.749556	0.236574
H130	H	-0.135808	-0.783564	0.091232
H131	H	-0.175947	-0.740689	0.168562
H132	H	0.000132	-0.107689	-0.265311
H133	H	0.000147	-0.140141	0.032777
H134	H	-0.244823	-0.895579	0.293278
H135	H	0.591318	-0.749539	-0.294176
H136	H	0.408942	-1.038835	0.051334
O137	O	0.000100	-0.290862	0.042921
C138	C	0.000128	-0.246980	0.116409
H139	H	-0.030101	-0.188084	0.093395
H140	H	0.076727	-0.241333	0.141822
C141	C	-0.025352	-0.358573	0.221709
C142	C	-0.062488	-0.286237	0.193445
H143	H	-0.063973	-0.382789	0.269230
H144	H	-0.025367	-0.388137	0.172199
H145	H	0.038480	-0.353856	0.242880
H146	H	-0.126314	-0.290955	0.172264
H147	H	-0.062485	-0.256675	0.242953
O148	O	0.250154	-0.995437	-0.000456
C149	C	0.191976	-0.954906	0.055125
H150	H	0.176973	-0.895686	0.019198
H151	H	0.230626	-0.949780	0.121809
C152	C	0.114908	-1.070287	0.118416
C153	C	0.096475	-0.997554	0.074287
H154	H	0.056000	-1.096596	0.130240
H155	H	0.154106	-1.097595	0.080973
H156	H	0.147119	-1.066006	0.173981
H157	H	0.064276	-1.001837	0.018718
H158	H	0.057269	-0.970248	0.111721
O159	O	0.401190	-0.741349	-0.303793
C160	C	0.425737	-0.666417	-0.289237
H161	H	0.498707	-0.666481	-0.254488
H162	H	0.369177	-0.642965	-0.244394
C163	C	0.340759	-0.616081	-0.423534
C164	C	0.430386	-0.616158	-0.380861
H165	H	0.343623	-0.585077	-0.480050
H166	H	0.324218	-0.666563	-0.433339
H167	H	0.293636	-0.596539	-0.386156
H168	H	0.477506	-0.635708	-0.418234
H169	H	0.446935	-0.565677	-0.371064
O170	O	0.000289	-0.532708	0.038252
C171	C	0.082966	-0.557457	0.087869
H172	H	0.140763	-0.573927	0.039388
H173	H	0.064270	-0.608859	0.138217
C174	C	0.049473	-0.472582	0.199091
C175	C	0.120463	-0.492804	0.139545
H176	H	0.072602	-0.432703	0.230971
H177	H	-0.006230	-0.455910	0.165666
H178	H	0.033900	-0.515423	0.241039
H179	H	0.136027	-0.449967	0.097591
H180	H	0.176170	-0.509468	0.172964
H181	H	0.258215	-0.800928	-0.232803
O182	O	0.599019	-1.047011	0.061022
C183	C	0.533110	-1.092361	0.115215
H184	H	0.461469	-1.093244	0.078254
H185	H	0.522427	-1.067722	0.182152
C186	C	0.660310	-1.172908	0.179312
C187	C	0.572322	-1.173997	0.133913
H188	H	0.684499	-1.223264	0.190850
H189	H	0.704716	-1.142353	0.142804
H190	H	0.651396	-1.152372	0.235088
H191	H	0.581240	-1.194524	0.078133
H192	H	0.527919	-1.204557	0.170412
O193	O	0.171751	-0.897804	0.144910
C194	C	0.224662	-0.831917	0.157506
H195	H	0.199914	-0.809000	0.222334
H196	H	0.212567	-0.786899	0.097337
C197	C	0.362621	-0.879861	0.085353
C198	C	0.332231	-0.851718	0.164980
H199	H	0.428976	-0.892073	0.089959
H200	H	0.326974	-0.924249	0.076863
H201	H	0.352534	-0.842341	0.035220
H202	H	0.342307	-0.889241	0.215109
H203	H	0.367883	-0.807336	0.173478
H204	H	0.245050	-0.892809	0.463872
