data_functionalizedCrystal
_audit_creation_method	'MofGen! by Chris Wilmer'
_symmetry_space_group_name_H-M	'P1'
_symmetry_Int_Tables_number	1
_symmetry_cell_setting	triclinic
loop_
_symmetry_equiv_pos_as_xyz
  x,y,z
_cell_length_a	17.038272
_cell_length_b	15.995350
_cell_length_c	16.098662
_cell_angle_alpha	86.950232
_cell_angle_beta	87.129654
_cell_angle_gamma	87.301965
loop_
_atom_site_label
_atom_site_type_symbol
_atom_site_fract_x
_atom_site_fract_y
_atom_site_fract_z
O1	O	-1.040528	-0.185367	0.069144
O2	O	-0.540528	0.314633	0.569144
O3	O	-0.812897	-0.182481	0.069169
O4	O	-0.312897	0.317519	0.569169
O5	O	-0.932935	-0.062479	0.069155
O6	O	-0.432935	0.437521	0.569155
O7	O	-0.920490	-0.305368	0.069158
O8	O	-0.420490	0.194632	0.569158
O9	O	-0.926682	-0.055377	-0.069355
O10	O	-0.426682	0.444623	0.430645
O11	O	-0.806644	-0.175378	-0.069341
O12	O	-0.306644	0.324622	0.430659
O13	O	-1.034275	-0.178264	-0.069366
O14	O	-0.534275	0.321736	0.430634
Zn15	Zn	-0.919467	-0.175694	-0.091345
Zn16	Zn	-0.419467	0.324306	0.408655
Zn17	Zn	-0.927705	-0.185051	0.091148
Zn18	Zn	-0.427705	0.314949	0.591148
O19	O	-0.914237	-0.298266	-0.069352
O20	O	-0.414237	0.201734	0.430648
C21	C	-0.780642	-0.176304	-0.000083
C22	C	-0.280642	0.323696	0.499917
C23	C	-0.693848	-0.168470	-0.000074
C24	C	-0.193848	0.331530	0.499926
C25	C	-1.066530	-0.184441	-0.000112
C26	C	-0.566530	0.315559	0.499888
C27	C	-1.153325	-0.192275	-0.000116
C28	C	-0.653325	0.307725	0.499884
C29	C	-0.929294	-0.027697	-0.000099
C30	C	-0.429294	0.472303	0.499901
C31	C	-0.927752	0.065363	-0.000094
C32	C	-0.427752	0.565363	0.499906
C33	C	-0.643751	-0.240398	-0.000073
C34	C	-0.143751	0.259602	0.499927
C35	C	-0.562198	-0.233032	-0.000085
C36	C	-0.062198	0.266968	0.499915
C37	C	-0.530744	-0.153736	-0.000091
C38	C	-0.030744	0.346264	0.499909
C39	C	-0.580847	-0.081802	-0.000094
C40	C	-0.080847	0.418198	0.499906
C41	C	-0.662398	-0.089169	-0.000088
C42	C	-0.162398	0.410831	0.499912
C43	C	-0.284979	-0.127709	-0.000113
C44	C	0.215021	0.372291	0.499887
C45	C	-0.203421	-0.120347	-0.000117
C46	C	0.296579	0.379653	0.499883
C47	C	-0.184778	-0.271577	-0.000110
C48	C	0.315222	0.228423	0.499890
C49	C	-0.266332	-0.278938	-0.000099
C50	C	0.233668	0.221062	0.499901
C51	C	-0.316427	-0.207004	-0.000106
C52	C	0.183573	0.292996	0.499894
C53	C	-0.447384	-0.146204	-0.000100
C54	C	0.052616	0.353796	0.499900
C55	C	-0.399785	-0.214536	-0.000103
C56	C	0.100215	0.285464	0.499897
C57	C	-0.917878	-0.333048	-0.000097
C58	C	-0.417878	0.166952	0.499903
C59	C	-0.919421	-0.426109	-0.000096
C60	C	-0.419421	0.073891	0.499904
N61	N	-0.913850	-0.169307	-0.215892
N62	N	-0.413850	0.330693	0.284108
C63	C	-0.922212	0.403506	-0.000096
C64	C	-0.422212	0.903506	0.499904
C65	C	-0.836738	0.362145	0.000224
C66	C	-0.336738	0.862145	0.500224
C67	C	-0.838266	0.265361	-0.000088
C68	C	-0.338266	0.765361	0.499912
C69	C	-0.924960	0.235749	-0.000094
C70	C	-0.424960	0.735749	0.499906
C71	C	-0.963555	0.277879	-0.079193
C72	C	-0.463555	0.777879	0.420807
C73	C	-0.961405	0.374671	-0.079259
C74	C	-0.461405	0.874671	0.420741
C75	C	-0.970282	0.366827	0.078252
C76	C	-0.470282	0.866827	0.578252
C77	C	-0.970308	0.269829	0.079298
C78	C	-0.470308	0.769829	0.579298
C79	C	-0.926517	0.140941	-0.000096
C80	C	-0.426517	0.640941	0.499904
C81	C	-0.920657	0.498314	-0.000100
C82	C	-0.420657	0.998314	0.499900
C83	C	-0.887878	-0.139492	-0.740699
C84	C	-0.387878	0.360508	-0.240699
C85	C	-0.891802	-0.143992	-0.653512
C86	C	-0.391802	0.356008	-0.153512
C87	C	-0.941173	-0.200436	-0.609933
C88	C	-0.441173	0.299564	-0.109933
C89	C	-0.986629	-0.252378	-0.653546
C90	C	-0.486629	0.247622	-0.153546
C91	C	-0.982708	-0.247874	-0.740731
C92	C	-0.482708	0.252126	-0.240731
C93	C	-0.955386	-0.216745	-0.346690
C94	C	-0.455386	0.283255	0.153310
C95	C	-0.959301	-0.221247	-0.259498
C96	C	-0.459301	0.278753	0.240502
C97	C	-0.864474	-0.112859	-0.259471
C98	C	-0.364474	0.387141	0.240529
C99	C	-0.860555	-0.108363	-0.346658
C100	C	-0.360555	0.391637	0.153342
C101	C	-0.906014	-0.160302	-0.390263
C102	C	-0.406014	0.339698	0.109737
C103	C	-0.945183	-0.205039	-0.520814
C104	C	-0.445183	0.294961	-0.020814
C105	C	-0.902007	-0.155694	-0.479380
C106	C	-0.402007	0.344306	0.020620
N107	N	-0.933328	-0.191432	0.215694
N108	N	-0.433328	0.308568	0.715694
H109	H	-0.669354	-0.304970	-0.000068
H110	H	-0.169354	0.195030	0.499932
Br111	Br	-0.778372	0.227724	-0.094741
Br112	Br	-0.278372	0.727724	0.405259
H113	H	-0.847670	-0.093533	-0.776175
H114	H	-0.347670	0.406467	-0.276175
H115	H	-1.019720	-0.290168	-0.776234
H116	H	-0.519720	0.209832	-0.276234
Br117	Br	-0.802785	-0.042373	-0.200289
Br118	Br	-0.302785	0.457627	0.299711
H119	H	-0.854793	-0.101694	-0.618012
H120	H	-0.354793	0.398306	-0.118012
Br121	Br	-0.494212	-0.330654	-0.000082
Br122	Br	0.005788	0.169346	0.499918
H123	H	-0.927988	0.398195	-0.138383
H124	H	-0.427988	0.898195	0.361617
H125	H	-1.026832	-0.298333	-0.618057
H126	H	-0.526832	0.201667	-0.118057
H127	H	-0.999503	-0.267217	-0.224018
H128	H	-0.499503	0.232783	0.275982
Br129	Br	-0.116788	-0.369197	-0.000101
Br130	Br	0.383212	0.130803	0.499899
Br131	Br	-0.835009	-0.079089	-0.538525
Br132	Br	-0.335009	0.420911	-0.038525
H133	H	-0.291936	-0.343509	-0.000085
H134	H	0.208064	0.156491	0.499915
Br135	Br	-1.012185	-0.281641	-0.461664
Br136	Br	-0.512185	0.218359	0.038336
H137	H	-0.177815	-0.055771	-0.000120
H138	H	0.322185	0.444229	0.499880
Br139	Br	-1.065742	0.421281	-0.085259
Br140	Br	-0.565742	0.921281	0.414741
Br141	Br	-0.730387	0.008453	-0.000096
Br142	Br	-0.230387	0.508453	0.499904
Br143	Br	-1.076040	0.236306	0.087259
Br144	Br	-0.576040	0.736306	0.587259
H145	H	-0.805129	0.380202	0.056948
H146	H	-0.305129	0.880202	0.556948
Br147	Br	-0.352955	-0.030082	-0.000125
Br148	Br	0.147045	0.469918	0.499875
Br149	Br	-0.910317	0.239086	-0.177298
Br150	Br	-0.410317	0.739086	0.322702
Br151	Br	-0.538159	0.025816	-0.000110
Br152	Br	-0.038159	0.525816	0.499890
H153	H	-0.992401	-0.259038	-0.382182
H154	H	-0.492401	0.240962	0.117818
Br155	Br	-0.793541	-0.031763	-0.405795
Br156	Br	-0.293541	0.468237	0.094205
H157	H	-0.425399	-0.279098	-0.000103
H158	H	0.074601	0.220902	0.499897
Br159	Br	-1.075376	0.412234	0.079133
Br160	Br	-0.575376	0.912234	0.579133
H161	H	-0.800174	0.387054	-0.056177
H162	H	-0.300174	0.887054	0.443823
H163	H	-0.807681	0.236392	0.056613
H164	H	-0.307681	0.736392	0.556613
Br165	Br	-1.069492	0.247031	-0.084108
Br166	Br	-0.569492	0.747031	0.415892
Br167	Br	-0.928200	0.399243	0.178178
Br168	Br	-0.428200	0.899243	0.678178
Br169	Br	-0.923760	0.222502	0.176844
Br170	Br	-0.423760	0.722502	0.676844
H171	H	-0.421764	-0.081640	-0.000128
H172	H	0.078236	0.418360	0.499872
