data_functionalizedCrystal
_audit_creation_method	'MofGen! by Chris Wilmer'
_symmetry_space_group_name_H-M	'P1'
_symmetry_Int_Tables_number	1
_symmetry_cell_setting	triclinic
loop_
_symmetry_equiv_pos_as_xyz
  x,y,z
_cell_length_a	15.995292
_cell_length_b	15.995362
_cell_length_c	10.065875
_cell_angle_alpha	81.204905
_cell_angle_beta	81.253693
_cell_angle_gamma	96.517002
loop_
_atom_site_label
_atom_site_type_symbol
_atom_site_fract_x
_atom_site_fract_y
_atom_site_fract_z
O1	O	1.123274	-0.095382	-0.113516
O2	O	0.879492	-0.108761	-0.113509
O3	O	1.008042	0.019818	-0.113522
O4	O	0.994723	-0.223961	-0.113502
O5	O	0.983529	-0.004798	0.113469
O6	O	0.854979	-0.133377	0.113483
O7	O	1.098761	-0.119998	0.113475
Zn8	Zn	0.972978	-0.130596	0.149519
Zn9	Zn	1.005275	-0.098163	-0.149552
O10	O	0.970210	-0.248577	0.113489
C11	C	0.836039	-0.120525	-0.000012
C12	C	0.743086	-0.118892	-0.000010
C13	C	0.995234	0.038705	-0.000032
C14	C	0.993580	0.131656	-0.000048
C15	C	0.405349	-0.112890	-0.000026
C16	C	0.428720	-0.205639	-0.000525
C17	C	0.525339	-0.207459	-0.000008
C18	C	0.572904	-0.115868	-0.000019
C19	C	0.529803	-0.083527	0.129596
C20	C	0.433002	-0.082421	0.129698
C21	C	0.461022	-0.052532	-0.128433
C22	C	0.557699	-0.055786	-0.130140
C23	C	0.667600	-0.117547	-0.000010
C24	C	0.310653	-0.111209	-0.000026
C25	C	0.987635	0.469403	-0.000074
C26	C	0.896137	0.422005	-0.000576
C27	C	0.897738	0.325259	-0.000056
C28	C	0.990584	0.301843	-0.000062
C29	C	1.021743	0.328873	0.129554
C30	C	1.019428	0.425497	0.129654
C31	C	1.049195	0.453849	-0.128477
C32	C	1.049362	0.357089	-0.130182
C33	C	0.992255	0.207145	-0.000050
C34	C	0.985966	0.564100	-0.000076
C35	C	1.142213	-0.108234	-0.000024
C36	C	1.235167	-0.109865	-0.000035
N37	N	0.950942	-0.152731	0.353627
C38	C	0.983010	0.732537	-0.000027
C39	C	0.984640	0.639590	-0.000087
N40	N	1.027317	-0.076022	-0.353660
C41	C	0.997602	-0.105859	0.421401
C42	C	0.980650	-0.122900	0.578570
H43	H	0.554401	-0.233715	-0.092924
H44	H	0.389720	-0.251236	0.091911
Cl45	Cl	1.126253	0.306281	0.136998
Cl46	Cl	0.869882	-0.234164	0.443677
Cl47	Cl	0.952427	0.437522	0.279250
Cl48	Cl	1.155203	0.334703	-0.142282
H49	H	0.851951	0.287293	0.093023
H50	H	0.849723	0.431567	0.091859
H51	H	0.928145	-0.175646	0.636896
Cl52	Cl	0.400996	-0.245309	-0.144038
H53	H	1.050098	-0.053110	0.363071
Cl54	Cl	0.544686	-0.149424	0.278538
H55	H	0.443305	-0.070885	-0.226675
Cl56	Cl	0.609896	0.048744	-0.142238
H57	H	0.533693	-0.254109	0.093069
Cl58	Cl	0.439566	0.053081	-0.129797
Cl59	Cl	0.957237	0.268897	0.278495
H60	H	1.079815	-0.023270	0.588014
H61	H	0.395722	-0.125062	0.226596
H62	H	0.417813	-0.015015	0.135578
H63	H	0.869581	0.450610	-0.093530
H64	H	0.872276	0.306906	-0.092969
Cl65	Cl	0.578189	0.019729	0.137024
H66	H	1.029870	0.485037	-0.226723
H67	H	1.086010	0.457122	0.135527
H68	H	0.586625	-0.079170	-0.226029
H69	H	1.026701	0.340233	-0.226068
H70	H	1.116791	0.485719	-0.129357
