data_functionalizedCrystal
_audit_creation_method	'MofGen! by Chris Wilmer'
_symmetry_space_group_name_H-M	'P1'
_symmetry_Int_Tables_number	1
_symmetry_cell_setting	triclinic
loop_
_symmetry_equiv_pos_as_xyz
  x,y,z
_cell_length_a	14.519709
_cell_length_b	10.540539
_cell_length_c	12.996460
_cell_angle_alpha	89.996006
_cell_angle_beta	90.000034
_cell_angle_gamma	84.102818
loop_
_atom_site_label
_atom_site_type_symbol
_atom_site_fract_x
_atom_site_fract_y
_atom_site_fract_z
O1	O	1.224765	0.166400	-0.085428
O2	O	1.724765	0.666400	0.414572
O3	O	0.956394	0.185995	-0.085459
O4	O	1.456394	0.685995	0.414541
O5	O	1.096702	-0.008571	-0.085441
O6	O	1.596702	0.491429	0.414559
O7	O	1.084457	0.360967	-0.085445
O8	O	1.584457	0.860967	0.414555
O9	O	1.096688	-0.008582	0.085693
O10	O	1.596688	0.491418	0.585693
O11	O	0.956379	0.185985	0.085675
O12	O	1.456379	0.685985	0.585675
O13	O	1.224751	0.166389	0.085706
O14	O	1.724751	0.666389	0.585706
Cu15	Cu	1.090563	0.176186	0.101316
Cu16	Cu	1.590563	0.676186	0.601316
Cu17	Cu	1.090581	0.176199	-0.101069
Cu18	Cu	1.590581	0.676199	0.398931
O19	O	1.084442	0.360956	0.085689
O20	O	1.584442	0.860956	0.585689
C21	C	0.922022	0.185077	0.000104
C22	C	1.422022	0.685077	0.500104
C23	C	0.819626	0.182340	0.000092
C24	C	1.319626	0.682340	0.500092
C25	C	0.444676	0.172265	0.000139
C26	C	0.944676	0.672265	0.500139
C27	C	0.548999	0.175063	0.000126
C28	C	1.048999	0.675063	0.500126
C29	C	0.632148	0.177303	0.000115
C30	C	1.132148	0.677303	0.500115
C31	C	0.736477	0.180101	0.000103
C32	C	1.236477	0.680101	0.500103
C33	C	1.095777	-0.055870	0.000124
C34	C	1.595777	0.444130	0.500124
C35	C	1.093029	-0.196790	0.000118
C36	C	1.593029	0.303210	0.500118
C37	C	0.987750	-0.379142	-0.000278
C38	C	1.487750	0.120858	0.499722
C39	C	0.990535	-0.232553	0.000107
C40	C	1.490535	0.267447	0.500107
C41	C	1.142346	-0.258958	0.097849
C42	C	1.642346	0.241042	0.597849
C43	C	1.138848	-0.405467	0.097931
C44	C	1.638848	0.094533	0.597931
C45	C	1.140949	-0.405994	-0.096680
C46	C	1.640949	0.094006	0.403320
C47	C	1.141893	-0.259021	-0.097972
C48	C	1.641893	0.240979	0.402028
C49	C	1.259123	0.167308	0.000141
C50	C	1.759123	0.667308	0.500141
C51	C	1.361519	0.170044	0.000146
C52	C	1.861519	0.670044	0.500146
C53	C	1.085368	0.408255	0.000121
C54	C	1.585368	0.908255	0.500121
C55	C	1.088115	0.549175	0.000120
C56	C	1.588115	1.049175	0.500120
N57	N	1.090558	0.176176	0.243664
N58	N	1.590558	0.676176	0.743664
N59	N	1.090594	0.176198	-0.243416
N60	N	1.590594	0.676198	0.256584
C61	C	1.090580	0.176200	0.663478
C62	C	1.590580	0.676200	1.163478
C63	C	1.090571	0.176198	0.546673
C64	C	1.590571	0.676198	1.046673
C65	C	1.090569	0.176189	0.453574
C66	C	1.590569	0.676189	0.953574
C67	C	1.090560	0.176185	0.336762
C68	C	1.590560	0.676185	0.836762
H69	H	0.947268	-0.407325	-0.070364
H70	H	1.447268	0.092675	0.429636
H71	H	1.108076	-0.216013	0.170570
H72	H	1.608076	0.283987	0.670570
H73	H	0.951445	-0.190402	0.070273
H74	H	1.451445	0.309598	0.570273
H75	H	1.102388	-0.433299	0.170979
H76	H	1.602388	0.066701	0.670979
C77	C	0.927452	-0.551065	0.090397
C78	C	1.427452	-0.051065	0.590397
C79	C	0.933308	-0.419359	0.093797
C80	C	1.433308	0.080641	0.593797
H81	H	0.893850	-0.575893	0.148481
H82	H	1.393850	-0.075893	0.648481
H83	H	0.896529	-0.571831	0.029207
H84	H	1.396529	-0.071831	0.529207
H85	H	0.988010	-0.594791	0.091216
H86	H	1.488010	-0.094791	0.591216
H87	H	0.872750	-0.375633	0.092970
H88	H	1.372750	0.124367	0.592970
H89	H	0.964229	-0.398581	0.155003
H90	H	1.464229	0.101419	0.655003
H91	H	1.105809	-0.217790	-0.170271
H92	H	1.605809	0.282210	0.329729
H93	H	1.212560	-0.454188	0.102373
H94	H	1.712560	0.045812	0.602373
C95	C	1.003935	-0.394528	-0.201099
C96	C	1.503935	0.105472	0.298901
C97	C	1.096178	-0.448111	-0.196682
C98	C	1.596178	0.051889	0.303318
H99	H	0.976293	-0.420524	-0.262836
H100	H	1.476293	0.079476	0.237164
H101	H	0.971030	-0.422541	-0.143635
H102	H	1.471030	0.077459	0.356365
H103	H	1.001928	-0.304177	-0.199837
H104	H	1.501928	0.195823	0.300163
H105	H	1.098185	-0.538463	-0.197936
H106	H	1.598185	-0.038463	0.302064
H107	H	1.129092	-0.420105	-0.254161
H108	H	1.629092	0.079895	0.245839
C109	C	1.255711	-0.543186	-0.187474
C110	C	1.755711	-0.043186	0.312526
C111	C	1.240888	-0.470766	-0.097569
C112	C	1.740888	0.029234	0.402431
H113	H	1.317408	-0.583169	-0.188019
H114	H	1.817408	-0.083169	0.311981
H115	H	1.213641	-0.606442	-0.189614
H116	H	1.713641	-0.106442	0.310386
H117	H	1.246151	-0.489053	-0.245764
H118	H	1.746151	0.010947	0.254236
H119	H	1.250441	-0.524901	-0.039280
H120	H	1.750441	-0.024901	0.460720
H121	H	1.282970	-0.407502	-0.095420
H122	H	1.782970	0.092498	0.404580
H123	H	0.951730	-0.189549	-0.069951
H124	H	1.451730	0.310451	0.430049
C125	C	1.263565	-0.155429	0.017824
C126	C	1.763565	0.344571	0.517824
C127	C	1.243954	-0.229814	0.102780
C128	C	1.743954	0.270186	0.602780
H129	H	1.326292	-0.137431	0.020873
H130	H	1.826292	0.362569	0.520873
H131	H	1.253626	-0.200628	-0.043739
H132	H	1.753626	0.299372	0.456261
H133	H	1.224084	-0.077769	0.018735
H134	H	1.724084	0.422231	0.518735
H135	H	1.283431	-0.307479	0.101865
H136	H	1.783431	0.192521	0.601865
H137	H	1.253902	-0.184616	0.164359
H138	H	1.753902	0.315384	0.664359
H139	H	1.216620	-0.235562	-0.103864
H140	H	1.716620	0.264438	0.396136
