data_functionalizedCrystal
_audit_creation_method	'MofGen! by Chris Wilmer'
_symmetry_space_group_name_H-M	'P1'
_symmetry_Int_Tables_number	1
_symmetry_cell_setting	triclinic
loop_
_symmetry_equiv_pos_as_xyz
  x,y,z
_cell_length_a	17.038272
_cell_length_b	14.519709
_cell_length_c	12.996460
_cell_angle_alpha	89.999398
_cell_angle_beta	90.000375
_cell_angle_gamma	92.604149
loop_
_atom_site_label
_atom_site_type_symbol
_atom_site_fract_x
_atom_site_fract_y
_atom_site_fract_z
O1	O	0.102496	-1.231713	0.085433
O2	O	0.114567	-0.964159	0.085465
O3	O	-0.005287	-1.096346	0.085441
O4	O	0.222349	-1.099526	0.085457
O5	O	-0.005280	-1.096328	-0.085693
O6	O	0.114574	-0.964142	-0.085669
O7	O	0.102503	-1.231695	-0.085701
Cu8	Cu	0.108539	-1.097917	-0.101311
Cu9	Cu	0.108531	-1.097938	0.101075
O10	O	0.222356	-1.099508	-0.085677
C11	C	0.114008	-0.929748	-0.000098
C12	C	0.112322	-0.827237	-0.000086
C13	C	-0.034416	-1.093444	-0.000125
C14	C	-0.121223	-1.084814	-0.000124
C15	C	0.103062	-1.266107	-0.000135
C16	C	0.104748	-1.368617	-0.000141
C17	C	-0.171209	-1.164047	-0.000135
C18	C	-0.252773	-1.155933	-0.000124
C19	C	-0.284349	-1.068585	-0.000110
C20	C	-0.234357	-0.989347	-0.000097
C21	C	-0.152795	-0.997462	-0.000100
C22	C	-0.530153	-1.039916	-0.000093
C23	C	-0.611722	-1.031807	-0.000092
C24	C	-0.630132	-1.198394	-0.000118
C25	C	-0.548568	-1.206502	-0.000127
C26	C	-0.498583	-1.127263	-0.000108
C27	C	-0.367720	-1.060289	-0.000102
C28	C	-0.415213	-1.135560	-0.000109
C29	C	0.251486	-1.102410	-0.000108
C30	C	0.338292	-1.111040	-0.000103
N31	N	0.108544	-1.097909	-0.243658
C32	C	0.106116	-0.451867	-0.000134
C33	C	0.107839	-0.556307	-0.000120
C34	C	0.109219	-0.639549	-0.000109
C35	C	0.110942	-0.743995	-0.000098
C36	C	0.108546	-1.097913	-0.336764
C37	C	0.108541	-1.097921	-0.453569
C38	C	0.108532	-1.097932	-0.546667
C39	C	0.108528	-1.097941	-0.663480
N40	N	0.108519	-1.097952	0.243422
H41	H	-0.145506	-1.235175	-0.000152
H42	H	-0.293468	-1.220453	-0.000135
H43	H	-0.489465	-0.975394	-0.000078
H44	H	-0.522865	-1.277629	-0.000139
H45	H	-0.670838	-1.262906	-0.000131
C46	C	-0.402462	-0.964208	-0.000109
N47	N	-0.428633	-0.891840	-0.000118
C48	C	-0.269093	-0.893263	-0.000090
N49	N	-0.295256	-0.820890	-0.000093
H50	H	-0.389500	-1.206678	-0.000097
H51	H	-0.637427	-0.960675	-0.000098
H52	H	-0.112096	-0.932942	-0.000091
