data_functionalizedCrystal
_audit_creation_method	'MofGen! by Chris Wilmer'
_symmetry_space_group_name_H-M	'P1'
_symmetry_Int_Tables_number	1
_symmetry_cell_setting	triclinic
loop_
_symmetry_equiv_pos_as_xyz
  x,y,z
_cell_length_a	19.288864
_cell_length_b	8.634740
_cell_length_c	18.366186
_cell_angle_alpha	89.996787
_cell_angle_beta	89.977106
_cell_angle_gamma	91.853277
loop_
_atom_site_label
_atom_site_type_symbol
_atom_site_fract_x
_atom_site_fract_y
_atom_site_fract_z
O1	O	0.934492	0.192275	-0.060784
O2	O	0.734003	0.218212	-0.060734
O3	O	0.824757	-0.019166	-0.060755
O4	O	0.843738	0.429654	-0.060763
O5	O	0.824738	-0.019178	0.060345
O6	O	0.733984	0.218201	0.060365
O7	O	0.934473	0.192263	0.060316
Zn8	Zn	0.834226	0.205230	0.079568
Zn9	Zn	0.834251	0.205246	-0.079986
O10	O	0.843719	0.429642	0.060336
C11	C	0.708060	0.217372	-0.000178
C12	C	0.630786	0.214867	-0.000159
C13	C	0.820448	-0.076592	-0.000205
C14	C	0.807627	-0.247687	-0.000205
C15	C	0.595607	0.354150	-0.000173
C16	C	0.522999	0.351796	-0.000181
C17	C	0.485573	0.210151	-0.000190
C18	C	0.520760	0.070850	-0.000171
C19	C	0.593366	0.073208	-0.000156
C20	C	0.369708	0.098807	-0.042638
C21	C	0.297103	0.096455	-0.042658
C22	C	0.261630	0.202874	-0.000233
C23	C	0.298771	0.311671	0.042202
C24	C	0.371377	0.314028	0.042217
C25	C	0.406843	0.207579	-0.000206
C26	C	0.147721	0.339615	-0.000255
C27	C	0.075112	0.337255	-0.000259
C28	C	0.072874	0.056305	-0.000256
C29	C	0.145482	0.058668	-0.000246
C30	C	0.182901	0.200327	-0.000248
C31	C	0.960416	0.193104	-0.000242
C32	C	1.037690	0.195609	-0.000266
C33	C	0.848028	0.487068	-0.000215
C34	C	0.860849	0.658162	-0.000220
N35	N	0.834214	0.205219	0.188459
N36	N	0.834267	0.205245	-0.188877
C37	C	0.874418	0.100159	0.226550
C38	C	0.874422	0.100152	0.302778
C39	C	0.834230	0.205232	0.340911
C40	C	0.794017	0.310299	0.302811
C41	C	0.794009	0.310293	0.226585
C42	C	0.834528	0.345668	0.461671
C43	C	0.834541	0.345677	0.537896
C44	C	0.834251	0.205251	0.576019
C45	C	0.833962	0.064810	0.537908
C46	C	0.833954	0.064804	0.461682
C47	C	0.834234	0.205250	0.423566
C48	C	0.874462	0.100175	0.696765
C49	C	0.874461	0.100166	0.772994
C50	C	0.794060	0.310327	0.773026
C51	C	0.794057	0.310322	0.696798
C52	C	0.834261	0.205248	0.658672
H53	H	0.626070	0.469500	-0.000177
H54	H	0.494351	0.465221	-0.000190
O55	O	0.411439	0.431305	0.088013
H56	H	0.374580	0.504892	0.117526
O57	O	0.032520	-0.096479	-0.000261
H58	H	-0.000582	-0.104284	-0.049627
O59	O	0.734271	-0.314287	-0.000190
H60	H	0.706814	-0.274488	0.049174
O61	O	0.917795	-0.013150	0.343877
H62	H	0.945755	-0.086205	0.304559
H63	H	0.907154	0.014598	0.195510
O64	O	0.260523	0.426457	0.087970
H65	H	0.203796	0.406531	0.080841
H66	H	0.916222	-0.291552	-0.000258
O67	O	0.833630	-0.086656	0.420573
H68	H	0.833423	-0.184310	0.459882
O69	O	0.833642	-0.086668	0.579013
H70	H	0.833686	-0.063078	0.638420
H71	H	0.622008	-0.040217	-0.000145
H72	H	0.907197	0.014612	0.665722
H73	H	0.907198	0.014605	0.804009
O74	O	0.750729	0.423685	0.814159
H75	H	0.767625	0.543778	0.799508
H76	H	0.398585	0.012145	-0.077190
O77	O	0.750702	0.423655	0.655706
H78	H	0.722758	0.496734	0.695027
O79	O	0.834867	0.497142	0.579000
H80	H	0.835059	0.594787	0.539686
O81	O	0.834847	0.497137	0.420553
H82	H	0.835062	0.594790	0.459857
H83	H	0.761290	0.395854	0.333863
H84	H	0.761268	0.395847	0.195570
H85	H	0.046471	0.450681	-0.000266
O86	O	0.188086	0.492397	-0.000241
H87	H	0.174711	0.559323	-0.049597
O88	O	0.183432	-0.091558	-0.000237
H89	H	0.145211	-0.190452	-0.000249
H90	H	0.490282	-0.044478	-0.000188
O91	O	0.257045	-0.020898	-0.088415
H92	H	0.293908	-0.094528	-0.117898
