data_functionalizedCrystal
_audit_creation_method	'MofGen! by Chris Wilmer'
_symmetry_space_group_name_H-M	'P1'
_symmetry_Int_Tables_number	1
_symmetry_cell_setting	triclinic
loop_
_symmetry_equiv_pos_as_xyz
  x,y,z
_cell_length_a	10.723023
_cell_length_b	15.995292
_cell_length_c	9.198806
_cell_angle_alpha	90.000009
_cell_angle_beta	89.996513
_cell_angle_gamma	83.968082
loop_
_atom_site_label
_atom_site_type_symbol
_atom_site_fract_x
_atom_site_fract_y
_atom_site_fract_z
O1	O	1.655654	0.117435	-0.120866
O2	O	1.292354	0.128676	-0.120871
O3	O	1.483973	0.001222	-0.120871
O4	O	1.464035	0.244889	-0.120867
O5	O	1.483958	0.001221	0.120914
O6	O	1.292339	0.128676	0.120914
O7	O	1.655639	0.117434	0.120919
Cu8	Cu	1.473987	0.123055	0.142993
Cu9	Cu	1.474005	0.123055	-0.142946
O10	O	1.464020	0.244889	0.120918
C11	C	1.245858	0.127858	0.000020
C12	C	1.107335	0.125411	0.000018
C13	C	1.045570	0.124320	0.125269
C14	C	0.902400	0.121790	0.125269
C15	C	1.483154	-0.029979	0.000018
C16	C	1.480721	-0.122946	0.000007
C17	C	1.471778	-0.460735	0.000020
C18	C	1.610083	-0.436629	0.000562
C19	C	1.612711	-0.339938	0.000012
C20	C	1.476215	-0.293154	0.000014
C21	C	1.407078	-0.322652	-0.138053
C22	C	1.405413	-0.419452	-0.138164
C23	C	1.402572	-0.419326	0.136791
C24	C	1.407697	-0.322804	0.138611
C25	C	1.478716	-0.198444	0.000006
C26	C	1.469273	-0.555446	0.000018
C27	C	1.702135	0.118252	0.000024
C28	C	1.840657	0.120700	0.000017
C29	C	1.464839	0.276089	0.000026
C30	C	1.467272	0.369056	0.000028
N31	N	1.473984	0.123054	0.344107
N32	N	1.474019	0.123050	-0.344060
C33	C	1.554442	0.069304	0.416304
C34	C	1.554462	0.069301	0.583717
H35	H	0.849282	0.120857	0.232501
H36	H	1.306635	-0.291361	-0.143185
C37	C	1.035597	0.124144	-0.144855
C38	C	1.067569	0.051876	-0.253618
C39	C	0.995834	0.050609	-0.398496
C40	C	0.892127	0.121609	-0.434610
C41	C	0.860150	0.193882	-0.325844
C42	C	0.931885	0.195149	-0.180967
H43	H	1.144344	-0.000687	-0.226886
H44	H	1.019507	-0.002893	-0.479011
H45	H	0.839025	0.120671	-0.541858
H46	H	0.783376	0.246445	-0.352576
H47	H	0.908213	0.248651	-0.100451
C48	C	1.685876	-0.313811	0.133699
C49	C	1.742314	-0.380988	0.241708
C50	C	1.815493	-0.354866	0.375392
C51	C	1.832236	-0.261568	0.401066
C52	C	1.775798	-0.194385	0.293053
C53	C	1.702618	-0.220506	0.159370
H54	H	1.729921	-0.450058	0.222705
H55	H	1.857273	-0.404600	0.455349
H56	H	1.886408	-0.242231	0.500026
H57	H	1.788191	-0.125314	0.312056
H58	H	1.660838	-0.170772	0.079412
H59	H	1.663386	-0.464320	0.099577
H60	H	1.623350	0.023286	0.645803
C61	C	1.380952	0.185223	0.572086
C62	C	1.286112	0.152065	0.466555
C63	C	1.193046	0.214239	0.382688
C64	C	1.194819	0.309571	0.404354
C65	C	1.289662	0.342734	0.509890
C66	C	1.382728	0.280560	0.593756
H67	H	1.284797	0.081490	0.450513
H68	H	1.122836	0.189688	0.304563
H69	H	1.125925	0.355595	0.342271
H70	H	1.290977	0.413309	0.525932
H71	H	1.452938	0.305111	0.671882
H72	H	1.405110	0.169067	0.406235
C73	C	1.681714	-0.475405	-0.132454
C74	C	1.615179	-0.528808	-0.241411
C75	C	1.686805	-0.567583	-0.374431
C76	C	1.824966	-0.552956	-0.398493
C77	C	1.891508	-0.499551	-0.289532
C78	C	1.819882	-0.460776	-0.156512
H79	H	1.512897	-0.539638	-0.223602
H80	H	1.637545	-0.607117	-0.455091
H81	H	1.877988	-0.581660	-0.496962
H82	H	1.993790	-0.488721	-0.307341
H83	H	1.869142	-0.421242	-0.075852
H84	H	1.098684	0.125253	0.232500
H85	H	0.893765	0.121643	-0.107221
H86	H	1.667190	-0.321221	-0.099132
H87	H	1.308068	-0.290406	0.146951
C88	C	1.470124	-0.455315	-0.277583
C89	C	1.607902	-0.441996	-0.307791
C90	C	1.672618	-0.477854	-0.447212
C91	C	1.599556	-0.527030	-0.556425
C92	C	1.461771	-0.540351	-0.526220
C93	C	1.397055	-0.504493	-0.386799
H94	H	1.661994	-0.405591	-0.226943
H95	H	1.774616	-0.467993	-0.469571
H96	H	1.647463	-0.553574	-0.659633
H97	H	1.407679	-0.576756	-0.607068
H98	H	1.295056	-0.514355	-0.364440
H99	H	1.304007	-0.434585	-0.144417
H100	H	1.455101	-0.302316	-0.240804
C101	C	1.475700	-0.297313	0.276589
C102	C	1.488520	-0.203938	0.307072
C103	C	1.556529	-0.178433	0.445039
C104	C	1.611718	-0.246303	0.552524
C105	C	1.598899	-0.339684	0.522045
C106	C	1.530890	-0.365189	0.384077
H107	H	1.447665	-0.153691	0.227502
H108	H	1.566018	-0.109306	0.467601
H109	H	1.662062	-0.227423	0.654656
H110	H	1.639755	-0.389931	0.601615
H111	H	1.521401	-0.434316	0.361515
C112	C	1.265046	-0.439020	0.138068
C113	C	1.215724	-0.492403	0.015674
C114	C	1.078205	-0.512104	0.016939
C115	C	0.990008	-0.478422	0.140597
C116	C	1.039328	-0.425036	0.263000
C117	C	1.176847	-0.405335	0.261736
H118	H	1.281014	-0.517339	-0.075873
H119	H	1.041695	-0.551624	-0.073673
H120	H	0.888208	-0.493006	0.141534
H121	H	0.974038	-0.400100	0.354548
H122	H	1.213357	-0.365815	0.352347
H123	H	1.446120	-0.447164	0.241446
H124	H	1.623308	0.023284	0.354178
