data_functionalizedCrystal
_audit_creation_method	'MofGen! by Chris Wilmer'
_symmetry_space_group_name_H-M	'P1'
_symmetry_Int_Tables_number	1
_symmetry_cell_setting	triclinic
loop_
_symmetry_equiv_pos_as_xyz
  x,y,z
_cell_length_a	10.654550
_cell_length_b	13.101039
_cell_length_c	14.044202
_cell_angle_alpha	93.660779
_cell_angle_beta	91.161198
_cell_angle_gamma	93.393769
loop_
_atom_site_label
_atom_site_type_symbol
_atom_site_fract_x
_atom_site_fract_y
_atom_site_fract_z
O1	O	1.687570	0.085319	-0.128035
O2	O	1.323367	0.085305	-0.140730
O3	O	1.499994	0.085284	0.003637
O4	O	1.510943	0.085340	-0.272401
O5	O	1.487323	-0.085144	-0.006739
O6	O	1.310696	-0.085123	-0.151105
O7	O	1.674899	-0.085109	-0.138411
Zn8	Zn	1.490786	-0.112175	-0.146405
Zn9	Zn	1.507480	0.112371	-0.132735
O10	O	1.498273	-0.085088	-0.282777
C11	C	1.270140	0.000089	-0.144985
C12	C	1.130415	0.000082	-0.142197
N13	N	1.479402	-0.265422	-0.155734
C14	C	1.059478	0.000114	-0.227197
C15	C	0.928194	0.000131	-0.224570
C16	C	0.938799	0.000088	-0.051937
C17	C	1.070079	0.000064	-0.054565
C18	C	1.053355	0.000143	-0.326865
C19	C	0.922071	0.000160	-0.324238
C20	C	1.463914	-0.474463	-0.168435
C21	C	1.534358	-0.525347	-0.110701
C22	C	1.525740	-0.641665	-0.117768
C23	C	1.472530	-0.358135	-0.161369
C24	C	1.728127	0.000110	-0.134155
C25	C	1.867851	0.000123	-0.136942
C26	C	1.488870	0.000065	0.033794
C27	C	1.474589	0.000049	0.139113
N28	N	1.518874	0.265619	-0.123399
C29	C	1.549754	0.000079	0.388907
C30	C	1.448504	0.000071	0.331943
C31	C	1.463021	0.000059	0.224643
C32	C	1.535239	0.000091	0.496218
C33	C	1.509392	0.000120	0.687064
C34	C	1.523663	0.000100	0.581743
H35	H	0.889658	0.000089	0.019412
H36	H	1.350917	0.000071	0.363760
C37	C	1.624583	-0.466197	-0.036761
H38	H	1.667645	-0.513422	-0.001464
H39	H	1.683848	-0.424329	-0.068679
H40	H	1.577909	-0.424357	0.005485
H41	H	1.647332	0.000074	0.357092
C42	C	1.148106	0.000017	0.038933
H43	H	1.093367	0.000018	0.091497
H44	H	1.195099	-0.059426	0.037871
H45	H	1.203978	0.059446	0.045122
C46	C	1.091120	-0.096192	-0.385397
H47	H	1.017564	-0.135802	-0.407677
H48	H	1.138819	-0.076368	-0.438314
H49	H	1.140261	-0.135847	-0.346301
C50	C	1.373674	-0.533613	-0.242355
H51	H	1.330591	-0.486394	-0.277643
H52	H	1.420322	-0.575468	-0.284600
H53	H	1.314412	-0.575467	-0.210413
C54	C	1.113232	0.099544	-0.363694
H55	H	1.049052	0.143824	-0.378281
H56	H	1.168710	0.132552	-0.315966
H57	H	1.158861	0.083577	-0.419573
H58	H	0.873958	-0.073412	-0.358838
H59	H	0.889418	0.071497	-0.357449
