data_functionalizedCrystal
_audit_creation_method	'MofGen! by Chris Wilmer'
_symmetry_space_group_name_H-M	'P1'
_symmetry_Int_Tables_number	1
_symmetry_cell_setting	triclinic
loop_
_symmetry_equiv_pos_as_xyz
  x,y,z
_cell_length_a	25.639239
_cell_length_b	19.077241
_cell_length_c	19.076919
_cell_angle_alpha	90.113904
_cell_angle_beta	92.268407
_cell_angle_gamma	87.669529
loop_
_atom_site_label
_atom_site_type_symbol
_atom_site_fract_x
_atom_site_fract_y
_atom_site_fract_z
Zn1	Zn	-0.189807	-1.058228	-0.440551
Zn2	Zn	0.310193	-0.558228	0.059449
Zn3	Zn	-0.273597	-1.062840	-0.323038
Zn4	Zn	0.226403	-0.562840	0.176962
Zn5	Zn	-0.189532	-0.945443	-0.318329
Zn6	Zn	0.310468	-0.445443	0.181671
Zn7	Zn	-0.280571	-0.940657	-0.435773
Zn8	Zn	0.219429	-0.440657	0.064227
O9	O	-0.233377	-1.001792	-0.379423
O10	O	0.266623	-0.501792	0.120577
O11	O	-0.198119	-1.157174	-0.428933
O12	O	0.301881	-0.657174	0.071067
O13	O	-0.259412	-1.051200	-0.224083
O14	O	0.240588	-0.551200	0.275917
O15	O	-0.116402	-0.960477	-0.334570
O16	O	0.383598	-0.460477	0.165430
O17	O	-0.259679	-1.160563	-0.342597
O18	O	0.240321	-0.660563	0.157403
O19	O	-0.116604	-1.043339	-0.424366
O20	O	0.383396	-0.543339	0.075634
O21	O	-0.197649	-0.964950	-0.220623
O22	O	0.302351	-0.464950	0.279377
O23	O	-0.204412	-0.846474	-0.329937
O24	O	0.295588	-0.346474	0.170063
O25	O	-0.271565	-0.952319	-0.534737
O26	O	0.228435	-0.452319	-0.034737
O27	O	-0.271298	-0.842957	-0.416223
O28	O	0.228702	-0.342957	0.083777
O29	O	-0.204881	-1.038698	-0.538248
O30	O	0.295119	-0.538698	-0.038248
O31	O	-0.347689	-1.046559	-0.337964
O32	O	0.152311	-0.546559	0.162036
O33	O	-0.352812	-0.956792	-0.420790
O34	O	0.147188	-0.456792	0.079210
C35	C	-0.238582	-0.819218	-0.372051
C36	C	0.261418	-0.319218	0.127949
C37	C	-0.240822	-0.741112	-0.368914
C38	C	0.259178	-0.241112	0.131086
C39	C	-0.209878	-0.702651	-0.412460
C40	C	0.290122	-0.202651	0.087540
C41	C	-0.211980	-0.629262	-0.409506
C42	C	0.288020	-0.129262	0.090494
C43	C	-0.245029	-0.594335	-0.363010
C44	C	0.254971	-0.094335	0.136990
C45	C	-0.275973	-0.632802	-0.319460
C46	C	0.224027	-0.132802	0.180540
C47	C	-0.273868	-0.706189	-0.322411
C48	C	0.226132	-0.206189	0.177589
C49	C	-0.254753	-0.375039	-0.349355
C50	C	0.245247	0.124961	0.150645
C51	C	-0.256857	-0.301646	-0.346410
C52	C	0.243143	0.198354	0.153590
C53	C	-0.192862	-0.298111	-0.436455
C54	C	0.307138	0.201889	0.063545
C55	C	-0.190763	-0.371501	-0.439405
C56	C	0.309237	0.128499	0.060595
C57	C	-0.221705	-0.409961	-0.395852
C58	C	0.278295	0.090039	0.104148
N59	N	-0.247179	-0.519320	-0.359992
N60	N	0.252821	-0.019320	0.140008
N61	N	-0.219552	-0.484975	-0.398867
N62	N	0.280448	0.015025	0.101133
C63	C	-0.369222	-1.001675	-0.379386
C64	C	0.130778	-0.501675	0.120614
C65	C	-0.427336	-1.001688	-0.379396
C66	C	0.072664	-0.501688	0.120604
C67	C	-0.785015	-1.048648	-0.336377
C68	C	-0.285015	-0.548648	0.163623
C69	C	-0.839619	-1.048675	-0.336387
C70	C	-0.339619	-0.548675	0.163613
O71	O	-0.865576	-1.088480	-0.299770
O72	O	-0.365576	-0.588480	0.200230
N73	N	-0.869614	-1.001913	-0.379474
N74	N	-0.369614	-0.501913	0.120526
C75	C	-0.845002	-0.955127	-0.422559
C76	C	-0.345002	-0.455127	0.077441
O77	O	-0.875529	-0.915356	-0.459209
O78	O	-0.375529	-0.415356	0.040791
C79	C	-0.790399	-0.955104	-0.422552
C80	C	-0.290399	-0.455104	0.077448
C81	C	-0.760407	-1.001864	-0.379456
C82	C	-0.260407	-0.501864	0.120544
C83	C	-0.755023	-1.095404	-0.293285
C84	C	-0.255023	-0.595404	0.206715
C85	C	-0.700423	-1.095376	-0.293274
C86	C	-0.200423	-0.595376	0.206726
C87	C	-0.675815	-1.048592	-0.336354
C88	C	-0.175815	-0.548592	0.163646
C89	C	-0.705807	-1.001836	-0.379445
C90	C	-0.205807	-0.501836	0.120555
C91	C	-0.765789	-0.908322	-0.465640
C92	C	-0.265789	-0.408322	0.034360
C93	C	-0.711182	-0.908303	-0.465629
C94	C	-0.211182	-0.408303	0.034371
C95	C	-0.681190	-0.955063	-0.422534
C96	C	-0.181190	-0.455063	0.077466
C97	C	-0.626599	-0.955024	-0.422514
C98	C	-0.126599	-0.455024	0.077486
N99	N	-0.596604	-1.001785	-0.379427
N100	N	-0.096604	-0.501785	0.120573
C101	C	-0.621212	-1.048569	-0.336347
C102	C	-0.121212	-0.548569	0.163653
C103	C	-0.959672	-0.955180	-0.422572
C104	C	-0.459672	-0.455180	0.077428
C105	C	-1.014274	-0.955199	-0.422576
C106	C	-0.514274	-0.455199	0.077424
C107	C	-1.008886	-1.048747	-0.336405
C108	C	-0.508886	-0.548747	0.163595
C109	C	-0.954284	-1.048724	-0.336398
C110	C	-0.454284	-0.548724	0.163602
C111	C	-0.929677	-1.001941	-0.379485
C112	C	-0.429677	-0.501941	0.120515
C113	C	-0.506548	-1.048506	-0.336326
C114	C	-0.006548	-0.548506	0.163674
C115	C	-0.451944	-1.048472	-0.336316
C116	C	0.048056	-0.548472	0.163684
C117	C	-0.457336	-0.954927	-0.422490
C118	C	0.042664	-0.454927	0.077510
C119	C	-0.511935	-0.954958	-0.422497
C120	C	-0.011935	-0.454958	0.077503
C121	C	-0.536540	-1.001754	-0.379413
C122	C	-0.036540	-0.501754	0.120587
O123	O	-0.600606	-0.915241	-0.459114
O124	O	-0.100606	-0.415241	0.040886
O125	O	-0.590679	-1.088340	-0.299709
O126	O	-0.090679	-0.588340	0.200291
C127	C	-0.097001	-1.001928	-0.379476
C128	C	0.402999	-0.501928	0.120524
C129	C	-0.038886	-1.001986	-0.379499
C130	C	0.461114	-0.501986	0.120501
C131	C	-0.239032	-0.994460	-0.562701
C132	C	0.260968	-0.494460	-0.062701
C133	C	-0.241441	-0.991336	-0.640804
C134	C	0.258559	-0.491336	-0.140804
C135	C	-0.228149	-0.185078	-0.386818
C136	C	0.271851	0.314922	0.113182
C137	C	-0.225913	-0.263185	-0.389955
C138	C	0.274087	0.236815	0.110045
C139	C	-0.207857	-1.034839	-0.679325
C140	C	0.292143	-0.534839	-0.179325
C141	C	-0.210119	-1.031895	-0.752710
C142	C	0.289881	-0.531895	-0.252710
C143	C	-0.245969	-0.985451	-0.787573
C144	C	0.254031	-0.485451	-0.287573
C145	C	-0.279556	-0.941944	-0.749046
C146	C	0.220444	-0.441944	-0.249046
C147	C	-0.277290	-0.944885	-0.675662
C148	C	0.222710	-0.444885	-0.175662
C149	C	-0.256465	-0.971829	-1.006851
C150	C	0.243535	-0.471829	-0.506851
C151	C	-0.258729	-0.968893	-1.080241
C152	C	0.241271	-0.468893	-0.580241
C153	C	-0.189291	-1.058844	-1.083900
C154	C	0.310709	-0.558844	-0.583900
C155	C	-0.187031	-1.061783	-1.010514
C156	C	0.312969	-0.561783	-0.510514
C157	C	-0.220616	-1.018274	-0.971994
C158	C	0.279384	-0.518274	-0.471994
N159	N	-0.248284	-0.982442	-0.862585
N160	N	0.251716	-0.482442	-0.362585
N161	N	-0.218298	-1.021279	-0.896984
N162	N	0.281702	-0.521279	-0.396984
C163	C	-0.227705	-1.009135	-0.196859
C164	C	0.272295	-0.509135	0.303141
C165	C	-0.225144	-1.012396	-0.118762
C166	C	0.274856	-0.512396	0.381238
H167	H	-0.163853	-0.399933	-0.477269
H168	H	0.336147	0.100067	0.022731
N169	N	-0.309725	-0.597116	-0.271964
N170	N	0.190275	-0.097116	0.228036
N171	N	-0.311601	-0.531592	-0.269335
N172	N	0.188399	-0.031592	0.230665
H173	H	-0.335440	-0.506389	-0.235791
H174	H	0.164560	-0.006389	0.264209
H175	H	-0.283771	-0.273211	-0.308547
H176	H	0.216229	0.226789	0.191453
H177	H	-0.308744	-0.904126	-0.777437
H178	H	0.191256	-0.404126	-0.277437
N179	N	-0.175822	-1.076343	-0.792061
N180	N	0.324178	-0.576343	-0.292061
N181	N	-0.194209	-1.119459	-0.834814
N182	N	0.305791	-0.619459	-0.334814
H183	H	-0.169986	-1.150853	-0.862607
H184	H	0.330014	-0.650853	-0.362607
N185	N	-0.171228	-1.082279	-0.643728
N186	N	0.328772	-0.582279	-0.143728
N187	N	-0.123369	-1.077335	-0.651759
N188	N	0.376631	-0.577335	-0.151759
H189	H	-0.097498	-1.110839	-0.626621
H190	H	0.402502	-0.610839	-0.126621
N191	N	-0.150412	-1.109235	-0.974917
N192	N	0.349588	-0.609235	-0.474917
N193	N	-0.120430	-1.148077	-1.009320
N194	N	0.379570	-0.648077	-0.509320
H195	H	-0.094569	-1.181595	-0.984180
H196	H	0.405431	-0.681595	-0.484180
N197	N	-0.295343	-0.921445	-1.115864
N198	N	0.204657	-0.421445	-0.615864
N199	N	-0.297359	-0.918830	-1.181385
N200	N	0.202641	-0.418830	-0.681385
H201	H	-0.323216	-0.885323	-1.206546
H202	H	0.176784	-0.385323	-0.706546
N203	N	-0.176118	-0.738336	-0.459945
N204	N	0.323882	-0.238336	0.040055
N205	N	-0.174240	-0.803860	-0.462574
N206	N	0.325760	-0.303860	0.037426
H207	H	-0.150395	-0.829062	-0.496109
H208	H	0.349605	-0.329062	0.003891
N209	N	-0.161261	-0.258815	-0.480936
N210	N	0.338739	0.241185	0.019064
N211	N	-0.163144	-0.193290	-0.478299
N212	N	0.336856	0.306710	0.021701
H213	H	-0.140824	-0.165536	-0.509715
H214	H	0.359176	0.334464	-0.009715
H215	H	-0.299066	-0.737503	-0.286951
H216	H	0.200934	-0.237503	0.213049
H217	H	-0.161948	-1.094266	-1.115271
H218	H	0.338052	-0.594266	-0.615271
N219	N	-0.286363	-0.414308	-0.304866
N220	N	0.213637	0.085692	0.195134
N221	N	-0.315870	-0.383112	-0.263359
N222	N	0.184130	0.116888	0.236641
H223	H	-0.338198	-0.410847	-0.231936
H224	H	0.161802	0.089153	0.268064
N225	N	-1.034019	-1.096543	-0.292394
N226	N	-0.534019	-0.596543	0.207606
N227	N	-1.026076	-1.094532	-0.227363
N228	N	-0.526076	-0.594532	0.272637
H229	H	-1.043827	-1.128286	-0.196281
H230	H	-0.543827	-0.628286	0.303719
H231	H	-0.186784	-0.597950	-0.444967
H232	H	0.313216	-0.097950	0.055033
N233	N	-0.421316	-1.096239	-0.292285
N234	N	0.078684	-0.596239	0.207715
N235	N	-0.443298	-1.138007	-0.253826
N236	N	0.056702	-0.638007	0.246174
H237	H	-0.421669	-1.171742	-0.222729
H238	H	0.078331	-0.671742	0.277271
H239	H	-0.676006	-1.133454	-0.258185
H240	H	-0.176006	-0.633454	0.241815
H241	H	-0.283819	-0.936411	-0.975497
H242	H	0.216181	-0.436411	-0.475497
H243	H	-0.526575	-1.086613	-0.301244
H244	H	-0.026575	-0.586613	0.198756
N245	N	-0.934538	-0.907373	-0.466570
N246	N	-0.434538	-0.407373	0.033430
N247	N	-0.904627	-0.863588	-0.440000
N248	N	-0.404627	-0.363588	0.060000
H249	H	-0.886878	-0.829825	-0.471074
H250	H	-0.386878	-0.329825	0.028926
N251	N	-0.780145	-1.143205	-0.249276
N252	N	-0.280145	-0.643205	0.250724
N253	N	-0.753350	-1.184946	-0.210811
N254	N	-0.253350	-0.684946	0.289189
H255	H	-0.771088	-1.218706	-0.179723
H256	H	-0.271088	-0.718706	0.320277
N257	N	-0.311598	-0.900459	-0.636301
N258	N	0.188402	-0.400459	-0.136301
N259	N	-0.309571	-0.903091	-0.570780
N260	N	0.190429	-0.403091	-0.070780
H261	H	-0.333800	-0.871713	-0.542981
H262	H	0.166200	-0.371713	-0.042981
H263	H	-0.929867	-1.086800	-0.301306
H264	H	-0.429867	-0.586800	0.198694
H265	H	-0.790200	-0.870242	-0.500729
H266	H	-0.290200	-0.370242	-0.000729
H267	H	-1.038689	-0.917116	-0.457662
H268	H	-0.538689	-0.417116	0.042338
H269	H	-0.691150	-0.870207	-0.500718
H270	H	-0.191150	-0.370207	-0.000718
N271	N	-0.542567	-0.907180	-0.466508
N272	N	-0.042567	-0.407180	0.033492
N273	N	-0.520586	-0.865407	-0.504963
N274	N	-0.020586	-0.365407	-0.004963
H275	H	-0.542216	-0.831664	-0.536050
H276	H	-0.042216	-0.331664	-0.036050
N277	N	-0.432185	-0.907139	-0.466482
N278	N	0.067815	-0.407139	0.033518
N279	N	-0.383432	-0.907127	-0.466461
N280	N	0.116568	-0.407127	0.033539
H281	H	-0.365667	-0.873378	-0.497533
H282	H	0.134333	-0.373378	0.002467
