data_functionalizedCrystal
_audit_creation_method	'MofGen! by Chris Wilmer'
_symmetry_space_group_name_H-M	'P1'
_symmetry_Int_Tables_number	1
_symmetry_cell_setting	triclinic
loop_
_symmetry_equiv_pos_as_xyz
  x,y,z
_cell_length_a	16.625548
_cell_length_b	11.169416
_cell_length_c	11.169409
_cell_angle_alpha	90.029517
_cell_angle_beta	90.023153
_cell_angle_gamma	90.005306
loop_
_atom_site_label
_atom_site_type_symbol
_atom_site_fract_x
_atom_site_fract_y
_atom_site_fract_z
Zn1	Zn	1.232803	-0.477676	0.678673
Zn2	Zn	1.566137	-0.144342	1.012006
Zn3	Zn	1.899470	0.188991	1.345340
Zn4	Zn	1.232743	-0.678416	0.478000
Zn5	Zn	1.566077	-0.345083	0.811333
Zn6	Zn	1.899410	-0.011749	1.144666
Zn7	Zn	1.097959	-0.477749	0.477996
Zn8	Zn	1.431292	-0.144416	0.811329
Zn9	Zn	1.764626	0.188917	1.144662
Zn10	Zn	1.097978	-0.678319	0.678633
Zn11	Zn	1.431312	-0.344986	1.011966
Zn12	Zn	1.764645	-0.011652	1.345300
O13	O	1.165371	-0.578040	0.578325
O14	O	1.498704	-0.244707	0.911659
O15	O	1.832038	0.088627	1.244992
O16	O	1.345628	-0.504314	0.652072
O17	O	1.678961	-0.170981	0.985405
O18	O	2.012294	0.162353	1.318738
O19	O	1.214831	-0.651869	0.310049
O20	O	1.548164	-0.318535	0.643383
O21	O	1.881497	0.014798	0.976716
O22	O	1.115863	-0.309790	0.504631
O23	O	1.449197	0.023543	0.837964
O24	O	1.782530	0.356877	1.171298
O25	O	1.345584	-0.651797	0.504638
O26	O	1.678917	-0.318464	0.837971
O27	O	2.012250	0.014869	1.171305
O28	O	1.214933	-0.309736	0.652068
O29	O	1.548266	0.023598	0.985401
O30	O	1.881599	0.356931	1.318734
O31	O	1.115805	-0.504440	0.310046
O32	O	1.449138	-0.171107	0.643380
O33	O	1.782472	0.162227	0.976713
O34	O	0.985129	-0.504346	0.504592
O35	O	1.318462	-0.171012	0.837925
O36	O	1.651796	0.162321	1.171259
O37	O	1.115896	-0.651632	0.846588
O38	O	1.449230	-0.318299	1.179921
O39	O	1.782563	0.015035	1.513255
O40	O	0.985143	-0.651703	0.651999
O41	O	1.318477	-0.318370	0.985333
O42	O	1.651810	0.014963	1.318666
O43	O	1.214952	-0.504220	0.846617
O44	O	1.548285	-0.170887	1.179951
O45	O	1.881618	0.162447	1.513284
O46	O	1.214849	-0.846353	0.504599
O47	O	1.548183	-0.513020	0.837932
O48	O	1.881516	-0.179686	1.171266
O49	O	1.115838	-0.846282	0.652003
O50	O	1.449172	-0.512948	0.985337
O51	O	1.782505	-0.179615	1.318670
C52	C	1.165361	-0.889865	0.578324
C53	C	1.498695	-0.556531	0.911657
C54	C	1.832028	-0.223198	1.244990
C55	C	1.165431	-1.023265	0.578363
C56	C	1.498764	-0.689931	0.911696
C57	C	1.832098	-0.356598	1.245030
C58	C	0.955880	-0.578023	0.578292
C59	C	1.289213	-0.244690	0.911625
C60	C	1.622547	0.088644	1.244958
C61	C	0.866259	-0.578045	0.578306
C62	C	1.199592	-0.244711	0.911639
C63	C	1.532926	0.088622	1.244972
C64	C	1.165433	-0.577907	0.891368
C65	C	1.498766	-0.244574	1.224701
C66	C	1.832099	0.088760	1.558035
C67	C	1.165459	-0.577850	1.024768
C68	C	1.498792	-0.244517	1.358101
C69	C	1.832126	0.088817	1.691435
C70	C	0.538083	-0.578052	0.578357
C71	C	0.871417	-0.244719	0.911690
C72	C	1.204750	0.088614	1.245024
C73	C	0.629392	-0.578047	0.578339
C74	C	0.962725	-0.244714	0.911672
C75	C	1.296058	0.088620	1.245006
C76	C	0.702168	-0.578049	0.578331
C77	C	1.035502	-0.244716	0.911664
C78	C	1.368835	0.088618	1.244997
C79	C	0.793482	-0.578042	0.578314
C80	C	1.126816	-0.244709	0.911648
C81	C	1.460149	0.088624	1.244981
C82	C	1.375680	-0.578058	0.578360
C83	C	1.709013	-0.244725	0.911693
C84	C	2.042346	0.088608	1.245026
C85	C	1.465301	-0.578066	0.578374
C86	C	1.798634	-0.244733	0.911708
C87	C	2.131968	0.088601	1.245041
C88	C	1.165403	-0.264998	0.578353
C89	C	1.498736	0.068336	0.911687
C90	C	1.832069	0.401669	1.245020
C91	C	1.165416	-0.131598	0.578365
C92	C	1.498749	0.201736	0.911699
C93	C	1.832083	0.535069	1.245032
C94	C	1.165356	-0.578086	0.266501
C95	C	1.498689	-0.244753	0.599834
C96	C	1.832022	0.088580	0.933167
C97	C	1.165485	-0.577805	0.133101
C98	C	1.498819	-0.244472	0.466434
C99	C	1.832152	0.088862	0.799768
