data_functionalizedCrystal
_audit_creation_method	'MofGen! by Chris Wilmer'
_symmetry_space_group_name_H-M	'P1'
_symmetry_Int_Tables_number	1
_symmetry_cell_setting	triclinic
loop_
_symmetry_equiv_pos_as_xyz
  x,y,z
_cell_length_a	14.519731
_cell_length_b	10.489716
_cell_length_c	12.996460
_cell_angle_alpha	90.002092
_cell_angle_beta	90.005673
_cell_angle_gamma	84.108994
loop_
_atom_site_label
_atom_site_type_symbol
_atom_site_fract_x
_atom_site_fract_y
_atom_site_fract_z
O1	O	1.224758	0.167335	0.085560
O2	O	1.558091	0.500668	0.418893
O3	O	1.891424	0.834002	0.752226
O4	O	0.956389	0.186997	0.085560
O5	O	1.289723	0.520330	0.418893
O6	O	1.623056	0.853664	0.752227
O7	O	1.096692	-0.008497	0.085564
O8	O	1.430025	0.324836	0.418897
O9	O	1.763359	0.658170	0.752230
O10	O	1.084455	0.362829	0.085556
O11	O	1.417789	0.696162	0.418890
O12	O	1.751122	1.029496	0.752223
O13	O	1.096677	-0.008508	-0.085570
O14	O	1.430011	0.324826	0.247763
O15	O	1.763344	0.658159	0.581096
O16	O	0.956375	0.186986	-0.085574
O17	O	1.289708	0.520320	0.247760
O18	O	1.623041	0.853653	0.581093
O19	O	1.224743	0.167324	-0.085574
O20	O	1.558076	0.500658	0.247759
O21	O	1.891410	0.833991	0.581092
Cu22	Cu	1.090557	0.177154	-0.101200
Cu23	Cu	1.423891	0.510488	0.232133
Cu24	Cu	1.757224	0.843821	0.565467
Cu25	Cu	1.090575	0.177167	0.101186
Cu26	Cu	1.423908	0.510500	0.434519
Cu27	Cu	1.757242	0.843834	0.767852
O28	O	1.084440	0.362818	-0.085578
O29	O	1.417774	0.696152	0.247756
O30	O	1.751107	1.029485	0.581089
C31	C	0.922018	0.186070	-0.000007
C32	C	1.255351	0.519404	0.333327
C33	C	1.588684	0.852737	0.666660
C34	C	0.819623	0.183310	-0.000006
C35	C	1.152956	0.516643	0.333327
C36	C	1.486289	0.849976	0.666661
C37	C	0.736466	0.181066	-0.000002
C38	C	1.069800	0.514400	0.333332
C39	C	1.403133	0.847733	0.666665
C40	C	0.632142	0.178264	-0.000001
C41	C	0.965476	0.511597	0.333332
C42	C	1.298809	0.844930	0.666665
C43	C	0.548991	0.176039	-0.000001
C44	C	0.882325	0.509372	0.333332
C45	C	1.215658	0.842706	0.666665
C46	C	0.444661	0.173236	0.000001
C47	C	0.777994	0.506570	0.333334
C48	C	1.111328	0.839903	0.666668
C49	C	1.095765	-0.056025	-0.000000
C50	C	1.429098	0.277308	0.333333
C51	C	1.762432	0.610642	0.666666
C52	C	1.093014	-0.197628	0.000009
C53	C	1.426348	0.135706	0.333342
C54	C	1.759681	0.469039	0.666676
C55	C	1.179052	-0.296189	-0.000000
C56	C	1.512386	0.037144	0.333333
C57	C	1.845719	0.370477	0.666666
C58	C	1.133595	-0.373075	0.084375
C59	C	1.466929	-0.039742	0.417708
C60	C	1.800262	0.293591	0.751042
C61	C	1.133561	-0.373050	-0.084350
C62	C	1.466894	-0.039717	0.248984
C63	C	1.800227	0.293617	0.582317
C64	C	1.047593	-0.272649	0.084454
C65	C	1.380927	0.060685	0.417787
C66	C	1.714260	0.394018	0.751121
C67	C	1.047571	-0.272618	-0.084346
C68	C	1.380905	0.060715	0.248987
C69	C	1.714238	0.394049	0.582320
C70	C	1.002051	-0.349454	0.000050
C71	C	1.335384	-0.016121	0.333383
C72	C	1.668718	0.317212	0.666716
C73	C	1.259115	0.168251	-0.000005
C74	C	1.592448	0.501584	0.333328
C75	C	1.925781	0.834918	0.666661
C76	C	1.361510	0.171012	0.000001
C77	C	1.694843	0.504345	0.333334
C78	C	2.028177	0.837678	0.666668
C79	C	1.085367	0.410346	-0.000012
C80	C	1.418701	0.743680	0.333322
C81	C	1.752034	1.077013	0.666655
C82	C	1.088118	0.551949	-0.000014
C83	C	1.421451	0.885282	0.333319
C84	C	1.754785	1.218616	0.666652
N85	N	1.090552	0.177144	-0.243547
N86	N	1.423885	0.510478	0.089786
N87	N	1.757219	0.843811	0.423120
C88	C	1.090574	0.177168	-0.663361
C89	C	1.423907	0.510502	-0.330028
C90	C	1.757240	0.843835	0.003305
C91	C	1.090565	0.177166	-0.546556
C92	C	1.423898	0.510499	-0.213223
C93	C	1.757232	0.843833	0.120111
C94	C	1.090563	0.177157	-0.453458
C95	C	1.423897	0.510491	-0.120124
C96	C	1.757230	0.843824	0.213209
C97	C	1.090554	0.177153	-0.336645
C98	C	1.423887	0.510486	-0.003312
C99	C	1.757220	0.843820	0.330021
N100	N	1.090588	0.177167	0.243533
N101	N	1.423921	0.510500	0.576866
N102	N	1.757254	0.843833	0.910199
H103	H	1.253891	-0.272285	0.000085
H104	H	1.587224	0.061048	0.333418
H105	H	1.920557	0.394382	0.666752
H106	H	1.169921	-0.416941	0.155710
H107	H	1.503255	-0.083607	0.489043
H108	H	1.836588	0.249726	0.822376
H109	H	1.011277	-0.228730	-0.155683
H110	H	1.344610	0.104603	0.177650
H111	H	1.677944	0.437937	0.510983
H112	H	1.011299	-0.228966	0.155866
H113	H	1.344632	0.104368	0.489199
H114	H	1.677966	0.437701	0.822533
H115	H	1.169893	-0.416902	-0.155681
H116	H	1.503226	-0.083568	0.177653
H117	H	1.836560	0.249765	0.510986
H118	H	0.927156	-0.373112	0.000095
H119	H	1.260490	-0.039779	0.333429
H120	H	1.593823	0.293554	0.666762
