data_functionalizedCrystal
_audit_creation_method	'MofGen! by Chris Wilmer'
_symmetry_space_group_name_H-M	'P1'
_symmetry_Int_Tables_number	1
_symmetry_cell_setting	triclinic
loop_
_symmetry_equiv_pos_as_xyz
  x,y,z
_cell_length_a	17.052862
_cell_length_b	12.970454
_cell_length_c	12.970454
_cell_angle_alpha	59.999776
_cell_angle_beta	89.999706
_cell_angle_gamma	50.259530
loop_
_atom_site_label
_atom_site_type_symbol
_atom_site_fract_x
_atom_site_fract_y
_atom_site_fract_z
Zr1	Zr	0.914391	0.765897	0.046006
O2	O	0.762834	1.041091	-0.148671
O3	O	0.960852	0.532382	0.105685
O4	O	0.960853	0.747471	-0.109405
O5	O	0.762831	0.826003	0.236086
O6	O	1.117054	0.685526	-0.078433
O7	O	0.762833	0.826002	0.066420
O8	O	1.117052	0.300770	0.306325
O9	O	0.762834	1.210758	-0.148672
O10	O	1.097238	0.566765	0.154251
O11	O	0.980666	0.612995	0.257757
O12	O	0.980668	0.866234	0.004516
O13	O	0.864096	0.912464	0.108021
Zr14	Zr	1.163512	0.667104	0.366002
Zr15	Zr	1.163514	0.667102	0.095403
Zr16	Zr	0.914390	0.765899	0.316604
Zr17	Zr	0.914391	1.036497	0.046004
Zr18	Zr	1.163512	0.396504	0.366003
O19	O	1.117052	0.900620	0.306322
O20	O	1.117054	0.900616	-0.078434
O21	O	0.762831	1.041094	0.236085
O22	O	1.315070	0.391910	0.560678
O23	O	1.315072	0.391907	0.175922
O24	O	0.960849	0.532385	0.490441
O25	O	1.315072	0.606998	0.175921
O26	O	1.117051	0.685530	0.521413
O27	O	0.960849	0.747476	0.490440
O28	O	1.315071	0.607000	0.345587
O29	O	0.960853	1.132229	-0.109407
O30	O	1.117050	0.300772	0.521414
O31	O	1.315070	0.222243	0.560679
O32	O	1.315071	0.222241	0.345589
O33	O	0.762833	1.210760	0.066418
O34	O	0.960852	1.132231	0.105682
O35	O	1.097236	0.566767	0.407492
O36	O	1.213808	0.520537	0.303986
O37	O	1.097238	0.820006	0.154250
O38	O	0.980666	0.866236	0.257756
C39	C	1.038952	0.378021	0.206005
C40	C	1.038952	0.263145	0.206006
C41	C	0.727337	0.840079	0.144215
C42	C	0.621578	0.882020	0.123244
C43	C	0.566860	0.374949	0.376776
C44	C	0.666229	0.335538	0.396474
C45	C	0.655072	0.472155	0.328169
C46	C	0.544535	0.648190	0.240161
C47	C	0.445157	0.687606	0.220453
C48	C	0.533369	0.784811	0.171846
C49	C	0.422832	0.960847	0.083839
C50	C	0.323466	1.000254	0.064135
C51	C	0.334623	0.863638	0.132440
C52	C	0.632746	0.745395	0.191554
C53	C	0.511043	1.058052	0.035231
C54	C	0.411675	1.097463	0.015534
C55	C	1.350566	0.592923	0.267792
C56	C	1.456326	0.550981	0.288763
C57	C	1.038954	0.716498	-0.132473
C58	C	1.038955	0.716497	-0.247349
C59	C	1.038952	1.054980	0.206002
C60	C	1.038952	1.169857	0.206001
C61	C	1.038950	0.716503	0.544481
C62	C	1.038949	0.716504	0.659357
C63	C	1.350566	0.254443	0.267794
C64	C	1.456326	0.097625	0.288765
C65	C	1.038950	0.378024	0.544482
C66	C	1.038949	0.263148	0.659359
C67	C	1.350564	0.254446	0.606271
C68	C	1.456323	0.097629	0.742118
C69	C	0.727340	1.178555	-0.194264
C70	C	0.621581	1.335372	-0.330111
C71	C	0.727337	1.178558	0.144213
C72	C	0.621578	1.335376	0.123242
C73	C	1.038954	1.054977	-0.132475
C74	C	1.038955	1.169853	-0.247352
C75	C	1.445143	0.048113	0.220442
C76	C	1.544505	-0.099216	0.240120
C77	C	1.655049	-0.197036	0.328128
C78	C	1.666230	-0.147512	0.396452
C79	C	1.566869	-0.000179	0.376767
C80	C	1.566848	-0.000150	0.751887
C81	C	1.666228	-0.147485	0.879521
C82	C	1.655082	-0.197045	0.997385
C83	C	1.544545	-0.099252	0.987612
C84	C	1.445167	0.048088	0.859979
C85	C	0.511056	1.433164	-0.339879
C86	C	0.411675	1.580533	-0.467514
C87	C	0.422822	1.630099	-0.585378
C88	C	0.533359	1.532298	-0.575605
C89	C	0.632737	1.384940	-0.447972
C90	C	0.632761	1.384900	0.191554
C91	C	0.533399	1.532258	0.171847
C92	C	0.422855	1.630082	0.083834
C93	C	0.411674	1.580553	0.015515
C94	C	0.511035	1.433204	0.035215
H95	H	0.722738	0.602065	0.263220
C96	C	0.754308	1.277365	-0.437244
H97	H	0.746703	1.327990	-0.525723
H98	H	0.795627	1.278650	-0.389697
H99	H	0.795590	1.159088	-0.389715
C100	C	0.313500	1.792173	-0.725764
H101	H	0.246082	1.843292	-0.714689
H102	H	0.313472	1.876414	-0.774615
H103	H	0.313489	1.756782	-0.774586
H104	H	1.756248	-0.227178	0.468109
C105	C	0.764373	0.428804	0.349849
H106	H	0.831802	0.304400	0.412056
H107	H	0.764385	0.477630	0.265646
H108	H	0.764378	0.477613	0.385257
C109	C	1.579132	0.054343	0.622255
H110	H	1.659197	-0.024995	0.646372
H111	H	1.542906	0.051015	0.570213
H112	H	1.542894	0.170626	0.570219
C113	C	1.787806	-0.255080	0.890254
H114	H	1.845404	-0.349931	0.983143
H115	H	1.796488	-0.300632	0.847135
H116	H	1.796534	-0.181060	0.847118
C117	C	0.313564	1.792155	0.062177
H118	H	0.246121	1.843338	-0.000029
H119	H	0.313571	1.756766	0.146391
H120	H	0.313571	1.876365	0.026785
C121	C	0.787808	0.141920	0.493280
H122	H	0.845393	0.138012	0.495226
H123	H	0.796525	0.084146	0.581964
H124	H	0.796523	0.084151	0.462359
H125	H	0.501955	1.169296	-0.020391
H126	H	0.321656	1.660223	-0.056145
H127	H	0.722763	1.305261	0.263229
H128	H	1.736011	-0.317023	1.101304
C129	C	0.290098	1.688086	-0.478246
H130	H	0.232500	1.782963	-0.571135
H131	H	0.281388	1.614046	-0.435131
H132	H	0.281398	1.733628	-0.435106
C133	C	1.323595	0.155614	0.849251
H134	H	1.331201	0.104973	0.937731
H135	H	1.282279	0.273904	0.801706
H136	H	1.282312	0.154266	0.801721
C137	C	1.764340	-0.359109	0.349786
H138	H	1.831783	-0.410281	0.411980
H139	H	1.764329	-0.443308	0.385164
H140	H	1.764336	-0.323711	0.265565
C141	C	1.323557	0.155699	0.123622
H142	H	1.331144	0.105103	0.085747
H143	H	1.282255	0.154386	0.172474
H144	H	1.282270	0.273983	0.052887
H145	H	0.321664	1.240793	-0.056124
C146	C	1.579178	0.054275	0.451928
H147	H	1.504176	0.156039	0.427600
H148	H	1.620477	-0.039601	0.547068
H149	H	1.620467	0.080012	0.427458
H150	H	0.542421	1.572675	-0.671585
C151	C	0.498720	1.378727	-0.039917
H152	H	0.418651	1.458087	-0.095139
H153	H	0.534949	1.382033	-0.095286
H154	H	0.534941	1.262455	0.024331
H155	H	0.542525	1.572558	0.227489
C156	C	0.498778	1.378668	-0.210244
H157	H	0.573787	1.276893	-0.132820
H158	H	0.457497	1.472528	-0.208962
H159	H	0.457482	1.352940	-0.208967
H160	H	1.535486	-0.139627	1.083595
H161	H	0.233464	1.143595	-0.007538
H162	H	0.575929	0.263735	0.432375
H163	H	1.535379	-0.139516	0.184478
C164	C	0.225315	0.906995	0.110779
H165	H	0.157884	1.031399	0.048588
H166	H	0.225298	0.858177	0.075397
H167	H	0.225319	0.858176	0.195001
