data_functionalizedCrystal
_audit_creation_method	'MofGen! by Chris Wilmer'
_symmetry_space_group_name_H-M	'P1'
_symmetry_Int_Tables_number	1
_symmetry_cell_setting	triclinic
loop_
_symmetry_equiv_pos_as_xyz
  x,y,z
_cell_length_a	11.792254
_cell_length_b	11.792241
_cell_length_c	14.586319
_cell_angle_alpha	90.000319
_cell_angle_beta	90.005826
_cell_angle_gamma	84.196007
loop_
_atom_site_label
_atom_site_type_symbol
_atom_site_fract_x
_atom_site_fract_y
_atom_site_fract_z
O1	O	1.506903	0.155628	0.076240
O2	O	1.840237	0.488962	0.409573
O3	O	2.173570	0.822295	0.742907
O4	O	1.176564	0.171646	0.076242
O5	O	1.509897	0.504980	0.409575
O6	O	1.843231	0.838313	0.742909
O7	O	1.349750	-0.001533	0.076235
O8	O	1.683083	0.331801	0.409568
O9	O	2.016417	0.665134	0.742901
O10	O	1.333717	0.328808	0.076247
O11	O	1.667051	0.662141	0.409581
O12	O	2.000384	0.995474	0.742914
O13	O	1.349729	-0.001523	-0.076246
O14	O	1.683062	0.331811	0.257087
O15	O	2.016396	0.665144	0.590420
O16	O	1.176543	0.171657	-0.076239
O17	O	1.509876	0.504990	0.257095
O18	O	1.843210	0.838323	0.590428
O19	O	1.506882	0.155639	-0.076241
O20	O	1.840215	0.488972	0.257092
O21	O	2.173549	0.822305	0.590426
Cu22	Cu	1.341711	0.163649	-0.090163
Cu23	Cu	1.675044	0.496982	0.243171
Cu24	Cu	2.008377	0.830315	0.576504
Cu25	Cu	1.341736	0.163636	0.090164
Cu26	Cu	1.675069	0.496970	0.423497
Cu27	Cu	2.008402	0.830303	0.756830
O28	O	1.333696	0.328818	-0.076233
O29	O	1.667029	0.662151	0.257100
O30	O	2.000363	0.995484	0.590433
C31	C	1.134263	0.170642	0.000002
C32	C	1.467596	0.503976	0.333335
C33	C	1.800929	0.837309	0.666668
C34	C	1.008250	0.167622	0.000002
C35	C	1.341583	0.500956	0.333336
C36	C	1.674916	0.834289	0.666669
C37	C	0.905913	0.165168	0.000006
C38	C	1.239247	0.498502	0.333340
C39	C	1.572580	0.831835	0.666673
C40	C	0.777527	0.162100	0.000007
C41	C	1.110860	0.495433	0.333340
C42	C	1.444193	0.828767	0.666673
C43	C	1.348732	-0.043819	-0.000006
C44	C	1.682066	0.289515	0.333328
C45	C	2.015399	0.622848	0.666661
C46	C	1.345718	-0.169832	-0.000005
C47	C	1.679051	0.163501	0.333329
C48	C	2.012385	0.496834	0.666662
C49	C	1.340175	-0.400545	0.000011
C50	C	1.673508	-0.067212	0.333344
C51	C	2.006842	0.266122	0.666677
C52	C	1.343255	-0.272160	0.000002
C53	C	1.676588	0.061174	0.333336
C54	C	2.009921	0.394507	0.666669
C55	C	1.549183	0.156643	0.000001
C56	C	1.882517	0.489976	0.333335
C57	C	2.215850	0.823309	0.666668
C58	C	1.675196	0.159663	0.000007
C59	C	2.008530	0.492996	0.333340
C60	C	2.341863	0.826329	0.666673
C61	C	1.334714	0.371104	0.000009
C62	C	1.668047	0.704437	0.333342
C63	C	2.001380	1.037770	0.666675
C64	C	1.337728	0.497118	0.000014
C65	C	1.671061	0.830451	0.333347
C66	C	2.004395	1.163784	0.666681
N67	N	1.341701	0.163656	-0.216994
N68	N	1.675034	0.496990	0.116339
N69	N	2.008368	0.830323	0.449672
C70	C	1.410979	0.232946	-0.451998
C71	C	1.744313	0.566279	-0.118665
C72	C	2.077646	0.899612	0.214668
C73	C	1.410991	0.232938	-0.547979
C74	C	1.744324	0.566271	-0.214646
C75	C	2.077658	0.899605	0.118687
C76	C	1.272473	0.094322	-0.547994
C77	C	1.605806	0.427656	-0.214661
C78	C	1.939140	0.760989	0.118673
C79	C	1.272468	0.094325	-0.452014
C80	C	1.605801	0.427658	-0.118681
C81	C	1.939135	0.760992	0.214652
C82	C	1.341719	0.163643	-0.404019
C83	C	1.675052	0.496977	-0.070686
C84	C	2.008386	0.830310	0.262648
C85	C	1.341736	0.163633	-0.595980
C86	C	1.675069	0.496966	-0.262646
C87	C	2.008403	0.830300	0.070687
C88	C	1.341748	0.163624	-0.700047
C89	C	1.675082	0.496957	-0.366714
C90	C	2.008415	0.830291	-0.033380
C91	C	1.341709	0.163651	-0.299945
C92	C	1.675042	0.496984	0.033388
C93	C	2.008375	0.830318	0.366721
N94	N	1.341754	0.163620	0.216995
N95	N	1.675087	0.496953	0.550329
N96	N	2.008421	0.830286	0.883662
H97	H	1.467368	0.289389	-0.412923
H98	H	1.800701	0.622722	-0.079590
H99	H	2.134035	0.956056	0.253743
C100	C	1.196275	0.018104	-0.600787
C101	C	1.529608	0.351437	-0.267454
C102	C	1.862941	0.684770	0.065879
H103	H	1.155027	-0.023172	-0.558463
H104	H	1.488360	0.310161	-0.225130
H105	H	1.821694	0.643494	0.108203
H106	H	1.144334	0.064278	-0.638228
H107	H	1.477667	0.397612	-0.304894
H108	H	1.811000	0.730945	0.028439
H109	H	1.242455	-0.033830	-0.638230
H110	H	1.575789	0.299503	-0.304897
H111	H	1.909122	0.632836	0.028437
C112	C	1.487169	0.309175	-0.600757
C113	C	1.820502	0.642508	-0.267424
C114	C	2.153836	0.975841	0.065910
H115	H	1.477265	0.299240	-0.664793
H116	H	1.810598	0.632574	-0.331460
H117	H	2.143932	0.965907	0.001873
H118	H	1.466553	0.386692	-0.585031
H119	H	1.799886	0.720025	-0.251698
H120	H	2.133219	1.053359	0.081636
H121	H	1.564699	0.288607	-0.585016
H122	H	1.898032	0.621941	-0.251683
H123	H	2.231365	0.955274	0.081651
H124	H	1.216067	0.037885	-0.412949
H125	H	1.549401	0.371218	-0.079615
H126	H	1.882734	0.704551	0.253718
