data_functionalizedCrystal
_audit_creation_method	'MofGen! by Chris Wilmer'
_symmetry_space_group_name_H-M	'P1'
_symmetry_Int_Tables_number	1
_symmetry_cell_setting	triclinic
loop_
_symmetry_equiv_pos_as_xyz
  x,y,z
_cell_length_a	12.759401
_cell_length_b	17.640280
_cell_length_c	12.759401
_cell_angle_alpha	101.206122
_cell_angle_beta	90.006940
_cell_angle_gamma	78.802151
loop_
_atom_site_label
_atom_site_type_symbol
_atom_site_fract_x
_atom_site_fract_y
_atom_site_fract_z
Zn1	Zn	1.690734	-0.314748	0.509521
Zn2	Zn	1.726189	-0.446879	0.298369
Zn3	Zn	1.515073	-0.314738	0.333859
Zn4	Zn	1.550545	-0.446876	0.474007
O5	O	1.620635	-0.380810	0.403939
O6	O	1.842460	-0.332281	0.481521
O7	O	1.698177	-0.429347	0.156057
O8	O	1.508692	-0.204142	0.386877
O9	O	1.868508	-0.429357	0.326389
O10	O	1.637750	-0.204150	0.515935
O11	O	1.543071	-0.332264	0.182131
O12	O	1.372756	-0.332261	0.352440
O13	O	1.569148	-0.429352	0.625738
O14	O	1.398817	-0.429342	0.455406
O15	O	1.672145	-0.332278	0.651830
O16	O	1.732572	-0.557476	0.291952
O17	O	1.603527	-0.557473	0.420993
C18	C	1.347665	-0.380801	0.403921
C19	C	1.230893	-0.380816	0.403933
C20	C	1.189649	-0.431442	0.457421
C21	C	1.079925	-0.431445	0.457441
C22	C	1.052699	-0.330193	0.350476
C23	C	1.162420	-0.330186	0.350463
C24	C	1.675774	-0.586151	0.348790
C25	C	1.699459	-0.673997	0.325233
C26	C	1.441135	-0.963042	0.583286
C27	C	1.463393	-1.045586	0.561117
C28	C	1.597851	-1.045523	0.426883
C29	C	1.575608	-0.962977	0.449044
C30	C	1.497249	-0.921743	0.527246
C31	C	1.631722	-0.921678	0.393005
C32	C	1.609476	-0.839139	0.415161
C33	C	1.531118	-0.797899	0.493357
C34	C	1.475003	-0.839204	0.549403
C35	C	1.710076	-0.962914	0.314798
C36	C	1.766189	-0.921615	0.258758
C37	C	1.743949	-0.839075	0.280920
C38	C	1.665591	-0.797835	0.359116
C39	C	1.800064	-0.797770	0.224874
C40	C	1.777819	-0.715231	0.247031
C41	C	1.643346	-0.715296	0.381272
C42	C	1.894671	-0.380821	0.403958
C43	C	2.011449	-0.380825	0.403966
C44	C	1.620648	-0.380816	0.677971
C45	C	1.620654	-0.380818	0.794747
C46	C	1.565310	-0.174668	0.459326
C47	C	1.541733	-0.086822	0.482929
C48	C	1.674278	-0.330280	0.863194
C49	C	1.674269	-0.330279	0.972919
C50	C	1.567010	-0.431360	0.945737
C51	C	1.567013	-0.431357	0.836015
C52	C	1.620626	-0.380822	1.130968
C53	C	1.620641	-0.380820	1.014193
H54	H	1.245397	-0.472666	0.500962
H55	H	1.195999	-0.288955	0.306908
H56	H	1.523340	-0.472508	0.979351
H57	H	1.579545	-0.681721	0.444960
H58	H	1.661648	-1.079107	0.363208
H59	H	1.513000	-0.730691	0.511388
H60	H	1.523339	-0.472510	0.780283
H61	H	1.717952	-0.289126	0.829598
H62	H	1.046351	-0.472670	0.500998
H63	H	1.829986	-0.955199	0.195083
H64	H	0.996936	-0.288973	0.306941
H65	H	1.717933	-0.289124	1.028646
H66	H	1.411203	-0.805629	0.613091
H67	H	1.377335	-0.929467	0.646974
H68	H	1.417705	-1.079209	0.606769
H69	H	1.728187	-1.030122	0.296764
H70	H	1.823511	-0.681605	0.201396
H71	H	1.863857	-0.831355	0.161195
