data_functionalizedCrystal
_audit_creation_method	'MofGen! by Chris Wilmer'
_symmetry_space_group_name_H-M	'P1'
_symmetry_Int_Tables_number	1
_symmetry_cell_setting	triclinic
loop_
_symmetry_equiv_pos_as_xyz
  x,y,z
_cell_length_a	17.699083
_cell_length_b	10.489741
_cell_length_c	16.176319
_cell_angle_alpha	89.993511
_cell_angle_beta	89.998611
_cell_angle_gamma	83.911094
loop_
_atom_site_label
_atom_site_type_symbol
_atom_site_fract_x
_atom_site_fract_y
_atom_site_fract_z
O1	O	1.005134	0.161296	-0.068630
O2	O	0.784893	0.182281	-0.068657
O3	O	0.900025	-0.013903	-0.068638
O4	O	0.890002	0.357479	-0.068649
O5	O	0.900009	-0.013915	0.068855
O6	O	0.784877	0.182268	0.068836
O7	O	1.005118	0.161283	0.068863
Cu8	Cu	0.894996	0.171775	0.081404
Cu9	Cu	0.895015	0.171789	-0.081198
O10	O	0.889986	0.357467	0.068844
C11	C	0.756683	0.181523	0.000086
C12	C	0.672650	0.179267	0.000076
C13	C	0.624782	0.294422	0.000073
C14	C	0.545825	0.292295	0.000083
C15	C	0.514737	0.175011	0.000091
C16	C	0.562611	0.059847	0.000097
C17	C	0.641567	0.061975	0.000092
C18	C	0.244192	0.051260	0.000118
C19	C	0.165230	0.049140	0.000120
C20	C	0.148450	0.281580	0.000109
C21	C	0.227406	0.283709	0.000104
C22	C	0.275273	0.168545	0.000114
C23	C	0.360887	0.170853	0.000104
C24	C	0.429124	0.172702	0.000096
C25	C	0.899260	-0.061427	0.000108
C26	C	0.896995	-0.203014	0.000106
C27	C	0.823740	-0.269793	0.000091
C28	C	0.858337	-0.362565	0.067887
C29	C	0.858370	-0.362527	-0.067671
C30	C	0.931622	-0.293921	0.067958
C31	C	0.931645	-0.293874	-0.067661
C32	C	0.966296	-0.386619	0.000151
C33	C	1.033328	0.162042	0.000118
C34	C	1.117361	0.164297	0.000123
C35	C	0.890751	0.404991	0.000096
C36	C	0.893016	0.546578	0.000093
N37	N	0.894988	0.171764	0.195769
N38	N	0.895029	0.171790	-0.195563
C39	C	0.945984	0.084929	0.239042
C40	C	0.945988	0.084928	0.325589
C41	C	0.894999	0.171768	0.368862
C42	C	0.843997	0.258607	0.325583
C43	C	0.843990	0.258601	0.239037
C44	C	0.844023	0.258631	0.674611
C45	C	0.844036	0.258632	0.761163
C46	C	0.946021	0.084957	0.761162
C47	C	0.946014	0.084951	0.674617
C48	C	0.895010	0.171785	0.631346
C49	C	0.895006	0.171784	0.537502
C50	C	0.895006	0.171776	0.462704
H51	H	0.650088	0.389929	0.000065
O52	O	0.968499	-0.257329	-0.136052
C53	C	0.961041	-0.129252	-0.260035
C54	C	0.919229	-0.170514	-0.182597
H55	H	0.921219	-0.059077	-0.297697
H56	H	1.012980	-0.080978	-0.240545
H57	H	0.979868	-0.217241	-0.299223
H58	H	0.900352	-0.082591	-0.143375
H59	H	0.867324	-0.218833	-0.202144
O60	O	0.794456	0.343107	0.632713
C61	C	0.693270	0.515327	0.641854
C62	C	0.749378	0.419742	0.689411
H63	H	0.656798	0.577294	0.687674
H64	H	0.726244	0.579065	0.601346
H65	H	0.655191	0.460313	0.601327
H66	H	0.787469	0.474652	0.729984
H67	H	0.716356	0.356005	0.729867
H68	H	0.827372	-0.392910	-0.124992
H69	H	0.987509	0.014219	0.203815
H70	H	0.802477	0.329310	0.360821
O71	O	0.794427	0.343079	0.197128
C72	C	0.693237	0.515296	0.206256
C73	C	0.749343	0.419717	0.253820
H74	H	0.656762	0.577265	0.252071
H75	H	0.726214	0.579033	0.165748
H76	H	0.655163	0.460277	0.165727
H77	H	0.787431	0.474632	0.294394
H78	H	0.716319	0.355982	0.294276
O79	O	0.968632	-0.257706	0.136329
C80	C	1.074407	-0.156244	0.189720
C81	C	1.032563	-0.197164	0.112223
H82	H	1.126112	-0.107312	0.170259
H83	H	1.034506	-0.086735	0.227751
H84	H	1.093609	-0.244488	0.228532
H85	H	1.013357	-0.108997	0.073348
H86	H	1.072491	-0.266718	0.074254
O87	O	0.135119	-0.064876	0.000023
C88	C	0.125262	-0.264168	-0.071212
C89	C	0.159427	-0.135114	-0.071194
H90	H	0.144888	-0.320981	-0.128794
H91	H	0.144942	-0.321149	-0.013705
H92	H	0.060609	-0.245871	-0.071174
H93	H	0.224081	-0.153295	-0.071262
H94	H	0.139687	-0.078174	-0.128696
O95	O	0.687959	-0.050005	0.000054
C96	C	0.696275	-0.280786	0.000112
C97	C	0.643650	-0.154061	0.000132
H98	H	0.660473	-0.364949	0.000193
H99	H	0.733644	-0.285684	-0.057444
H100	H	0.733677	-0.285535	0.057638
H101	H	0.606201	-0.149228	-0.057354
H102	H	0.606333	-0.149216	0.057726
O103	O	0.995607	0.000543	0.367495
C104	C	1.096755	-0.171744	0.358362
C105	C	1.040608	-0.076229	0.310801
H106	H	1.133142	-0.233856	0.312545
H107	H	1.134910	-0.116800	0.398843
H108	H	1.063736	-0.235348	0.398917
H109	H	1.073565	-0.012601	0.270201
H110	H	1.002454	-0.131252	0.270372
H111	H	1.026580	-0.437163	0.000196
H112	H	0.987537	0.014242	0.639387
H113	H	0.506854	0.386067	0.000080
H114	H	0.252713	0.379213	0.000094
H115	H	0.109467	0.375352	0.000105
H116	H	0.283156	-0.042514	0.000127
H117	H	0.987549	0.014248	0.796403
H118	H	0.537293	-0.035648	0.000115
H119	H	0.763510	-0.219023	0.000152
H120	H	0.827334	-0.393005	0.125195
H121	H	0.802511	0.329350	0.796394
