data_functionalizedCrystal
_audit_creation_method	'MofGen! by Chris Wilmer'
_symmetry_space_group_name_H-M	'P1'
_symmetry_Int_Tables_number	1
_symmetry_cell_setting	triclinic
loop_
_symmetry_equiv_pos_as_xyz
  x,y,z
_cell_length_a	13.032831
_cell_length_b	12.759400
_cell_length_c	13.032268
_cell_angle_alpha	82.848512
_cell_angle_beta	89.113023
_cell_angle_gamma	82.818273
loop_
_atom_site_label
_atom_site_type_symbol
_atom_site_fract_x
_atom_site_fract_y
_atom_site_fract_z
Zn1	Zn	1.498533	-0.709536	0.780860
Zn2	Zn	1.998533	-0.209536	1.280860
Zn3	Zn	1.520287	-0.866072	0.608886
Zn4	Zn	2.020287	-0.366072	1.108886
Zn5	Zn	1.348388	-0.665647	0.587100
Zn6	Zn	1.848388	-0.165647	1.087100
Zn7	Zn	1.326535	-0.860392	0.759011
Zn8	Zn	1.826535	-0.360392	1.259011
O9	O	1.423436	-0.775412	0.683964
O10	O	1.923436	-0.275412	1.183964
O11	O	1.645341	-0.751047	0.776309
O12	O	2.145341	-0.251047	1.276309
O13	O	1.515734	-0.823495	0.462079
O14	O	2.015734	-0.323495	0.962079
O15	O	1.368347	-0.524456	0.612829
O16	O	1.868347	-0.024456	1.112829
O17	O	1.661324	-0.866053	0.649961
O18	O	2.161324	-0.366053	1.149961
O19	O	1.478658	-0.556702	0.755184
O20	O	1.978658	-0.056702	1.255184
O21	O	1.389441	-0.676243	0.446073
O22	O	1.889441	-0.176243	0.946073
O23	O	1.201567	-0.670734	0.591643
O24	O	1.701567	-0.170734	1.091643
O25	O	1.331101	-0.856371	0.905827
O26	O	1.831101	-0.356371	1.405827
O27	O	1.185512	-0.813813	0.717945
O28	O	1.685512	-0.313813	1.217945
O29	O	1.457467	-0.745538	0.921879
O30	O	1.957467	-0.245538	1.421879
O31	O	1.494544	-1.012331	0.628774
O32	O	1.994544	-0.512331	1.128774
O33	O	1.352195	-1.008158	0.739070
O34	O	1.852195	-0.508158	1.239070
C35	C	1.156222	-0.736896	0.650059
C36	C	1.656222	-0.236896	1.150059
C37	C	1.041904	-0.720446	0.635579
C38	C	1.541904	-0.220446	1.135579
C39	C	1.423384	-1.048369	0.683941
C40	C	1.923384	-0.548369	1.183941
C41	C	1.423452	-1.165159	0.683978
C42	C	1.923452	-0.665159	1.183978
C43	C	0.983032	-0.783997	0.691522
C44	C	1.483032	-0.283997	1.191522
C45	C	0.864878	-0.766997	0.676557
C46	C	1.364878	-0.266997	1.176557
C47	C	1.480851	-1.236733	0.758152
C48	C	1.980851	-0.736733	1.258152
C49	C	1.480895	-1.346467	0.758183
C50	C	1.980895	-0.846467	1.258183
C51	C	1.366140	-1.313042	0.609857
C52	C	1.866140	-0.813042	1.109857
C53	C	1.366090	-1.203310	0.609831
C54	C	1.866090	-0.703310	1.109831
C55	C	1.538212	-1.198582	0.832298
C56	C	2.038212	-0.698582	1.332298
C57	C	1.595617	-1.270158	0.906478
C58	C	2.095617	-0.770158	1.406478
C59	C	1.595661	-1.379892	0.906509
C60	C	2.095661	-0.879892	1.406509
C61	C	1.538301	-1.418050	0.832361
C62	C	2.038301	-0.918050	1.332361
C63	C	1.691693	-0.814079	0.718002
C64	C	2.191693	-0.314079	1.218002
C65	C	1.806009	-0.830557	0.732507
C66	C	2.306009	-0.330557	1.232507
C67	C	1.389420	-0.805217	0.952213
C68	C	1.889420	-0.305217	1.452213
C69	C	1.374924	-0.817918	1.066524
C70	C	1.874924	-0.317918	1.566524
C71	C	1.423513	-0.501395	0.684014
C72	C	1.923513	-0.001395	1.184014
C73	C	1.423546	-0.384625	0.684035
C74	C	1.923546	0.115375	1.184035
C75	C	1.457379	-0.745655	0.416767
C76	C	1.957379	-0.245655	0.916767
C77	C	1.472074	-0.732687	0.302482
C78	C	1.972074	-0.232687	0.802482
C79	C	1.430985	-0.768743	1.125430
C80	C	1.930985	-0.268743	1.625430
C81	C	1.416005	-0.781869	1.243577
C82	C	1.916005	-0.281869	1.743577
H83	H	0.827811	-0.699995	0.617584
H84	H	1.327811	-0.199995	1.117584
H85	H	1.531159	-0.680858	1.265451
H86	H	2.031159	-0.180858	1.765451
C87	C	1.303060	-1.355016	0.528295
C88	C	1.803060	-0.855016	1.028295
H89	H	1.311319	-1.430619	0.538928
H90	H	1.811319	-0.930619	1.038928
H91	H	1.232034	-1.328790	0.534513
H92	H	1.732034	-0.828790	1.034513
H93	H	1.326929	-1.331544	0.461118
H94	H	1.826929	-0.831544	0.961118
C95	C	1.295100	-0.887922	1.116541
C96	C	1.795100	-0.387922	1.616541
H97	H	1.261865	-0.917066	1.064262
H98	H	1.761865	-0.417066	1.564262
H99	H	1.329151	-0.943987	1.163436
H100	H	1.829151	-0.443987	1.663436
H101	H	1.245020	-0.845888	1.152766
H102	H	1.745020	-0.345888	1.652766
C103	C	1.033102	-0.874500	0.771192
C104	C	1.533102	-0.374500	1.271192
H105	H	1.105947	-0.874057	0.770794
H106	H	1.605947	-0.374057	1.270794
H107	H	1.006795	-0.864411	0.838112
H108	H	1.506795	-0.364411	1.338112
H109	H	1.017463	-0.940876	0.753808
H110	H	1.517463	-0.440876	1.253808
H111	H	1.490068	-0.716920	1.088394
H112	H	1.990068	-0.216920	1.588394
H113	H	0.843073	-0.897550	0.791491
H114	H	1.343073	-0.397550	1.291491
C115	C	1.538301	-1.538753	0.832435
C116	C	2.038301	-1.038753	1.332435
H117	H	1.580689	-1.575918	0.887240
H118	H	2.080689	-1.075918	1.387240
H119	H	1.469665	-1.555979	0.841759
H120	H	1.969665	-1.055979	1.341759
H121	H	1.564558	-1.558830	0.768361
H122	H	2.064558	-1.058830	1.268361
C123	C	0.991839	-0.629939	0.555910
C124	C	1.491839	-0.129939	1.055910
H125	H	1.044095	-0.592267	0.522758
H126	H	1.544095	-0.092267	1.022758
H127	H	0.955601	-0.659079	0.505762
H128	H	1.455601	-0.159079	1.005762
H129	H	0.944945	-0.582616	0.590069
H130	H	1.444945	-0.082616	1.090069
C131	C	1.336176	-0.851876	1.293590
C132	C	1.836176	-0.351876	1.793590
H133	H	1.302942	-0.881020	1.241311
H134	H	1.802942	-0.381020	1.741311
H135	H	1.370228	-0.907942	1.340485
H136	H	1.870228	-0.407942	1.840485
H137	H	1.286096	-0.809842	1.329815
H138	H	1.786096	-0.309842	1.829815
H139	H	1.538185	-1.109234	0.832280
H140	H	2.038185	-0.609234	1.332280
H141	H	1.642311	-1.239083	0.966852
H142	H	2.142311	-0.739083	1.466852
H143	H	1.319350	-1.145033	0.549433
H144	H	1.819350	-0.645033	1.049433
C145	C	1.658801	-1.458621	0.988101
C146	C	2.158801	-0.958621	1.488101
H147	H	1.692960	-1.420180	1.032248
H148	H	2.192960	-0.920180	1.532248
H149	H	1.613769	-1.500745	1.027899
H150	H	2.113769	-1.000745	1.527899
H151	H	1.708650	-1.503499	0.954486
H152	H	2.208650	-1.003499	1.454486
