data_functionalizedCrystal
_audit_creation_method	'MofGen! by Chris Wilmer'
_symmetry_space_group_name_H-M	'P1'
_symmetry_Int_Tables_number	1
_symmetry_cell_setting	triclinic
loop_
_symmetry_equiv_pos_as_xyz
  x,y,z
_cell_length_a	11.026607
_cell_length_b	14.519731
_cell_length_c	9.482900
_cell_angle_alpha	99.351580
_cell_angle_beta	78.636152
_cell_angle_gamma	96.137435
loop_
_atom_site_label
_atom_site_type_symbol
_atom_site_fract_x
_atom_site_fract_y
_atom_site_fract_z
O1	O	1.629932	0.375019	-0.120915
O2	O	1.879932	0.625019	0.129085
O3	O	2.129932	0.875019	0.379085
O4	O	2.379932	1.125019	0.629085
O5	O	1.276526	0.331028	-0.120915
O6	O	1.526526	0.581028	0.129085
O7	O	1.776526	0.831028	0.379085
O8	O	2.026526	1.081028	0.629085
O9	O	1.462583	0.220329	-0.120902
O10	O	1.712583	0.470329	0.129098
O11	O	1.962583	0.720329	0.379098
O12	O	2.212583	0.970329	0.629098
O13	O	1.443874	0.485718	-0.120928
O14	O	1.693874	0.735718	0.129072
O15	O	1.943874	0.985718	0.379072
O16	O	2.193874	1.235718	0.629072
O17	O	1.424791	0.242930	0.120888
O18	O	1.674791	0.492930	0.370888
O19	O	1.924791	0.742930	0.620888
O20	O	2.174791	0.992930	0.870888
O21	O	1.238733	0.353629	0.120875
O22	O	1.488733	0.603629	0.370875
O23	O	1.738733	0.853629	0.620875
O24	O	1.988733	1.103629	0.870875
O25	O	1.592139	0.397620	0.120875
O26	O	1.842139	0.647620	0.370875
O27	O	2.092139	0.897620	0.620875
O28	O	2.342139	1.147620	0.870875
Cu29	Cu	1.411986	0.377688	0.142952
Cu30	Cu	1.661986	0.627688	0.392952
Cu31	Cu	1.911986	0.877688	0.642952
Cu32	Cu	2.161986	1.127688	0.892952
Cu33	Cu	1.456679	0.350960	-0.142992
Cu34	Cu	1.706679	0.600960	0.107008
Cu35	Cu	1.956679	0.850960	0.357008
Cu36	Cu	2.206679	1.100960	0.607008
O37	O	1.406082	0.508319	0.120862
O38	O	1.656082	0.758319	0.370862
O39	O	1.906082	1.008319	0.620862
O40	O	2.156082	1.258319	0.870862
C41	C	1.212400	0.334213	-0.000019
C42	C	1.462400	0.584213	0.249981
C43	C	1.712400	0.834213	0.499981
C44	C	1.962400	1.084213	0.749981
C45	C	1.077631	0.310021	-0.000019
C46	C	1.327631	0.560021	0.249981
C47	C	1.577631	0.810021	0.499981
C48	C	1.827631	1.060021	0.749981
C49	C	1.003978	0.376820	-0.000026
C50	C	1.253978	0.626820	0.249974
C51	C	1.503978	0.876820	0.499974
C52	C	1.753978	1.126820	0.749974
C53	C	0.864687	0.351817	-0.000026
C54	C	1.114687	0.601817	0.249974
C55	C	1.364687	0.851817	0.499974
C56	C	1.614687	1.101817	0.749974
C57	C	1.442810	0.197126	-0.000006
C58	C	1.692810	0.447126	0.249994
C59	C	1.942810	0.697126	0.499994
C60	C	2.192810	0.947126	0.749994
C61	C	1.440183	0.094313	-0.000005
C62	C	1.690183	0.344313	0.249995
C63	C	1.940183	0.594313	0.499995
C64	C	2.190183	0.844313	0.749995
C65	C	1.438048	0.010817	-0.000009
C66	C	1.688048	0.260817	0.249991
C67	C	1.938048	0.510817	0.499991
C68	C	2.188048	0.760817	0.749991
C69	C	1.435382	-0.093933	-0.000020
C70	C	1.685382	0.156067	0.249980
C71	C	1.935382	0.406067	0.499980
C72	C	2.185382	0.656067	0.749980
C73	C	1.433266	-0.177421	-0.000029
C74	C	1.683266	0.072579	0.249971
C75	C	1.933266	0.322579	0.499971
C76	C	2.183266	0.572579	0.749971
C77	C	1.430600	-0.282177	-0.000038
C78	C	1.680600	-0.032177	0.249962
C79	C	1.930600	0.217823	0.499962
C80	C	2.180600	0.467823	0.749962
C81	C	1.656265	0.394435	-0.000023
C82	C	1.906265	0.644435	0.249977
C83	C	2.156265	0.894435	0.499977
C84	C	2.406265	1.144435	0.749977
C85	C	1.791036	0.418626	-0.000033
C86	C	2.041036	0.668626	0.249967
C87	C	2.291036	0.918626	0.499967
C88	C	2.541036	1.168626	0.749967
C89	C	1.425855	0.531522	-0.000037
C90	C	1.675855	0.781522	0.249963
C91	C	1.925855	1.031522	0.499963
C92	C	2.175855	1.281522	0.749963
C93	C	1.428485	0.634334	-0.000047
C94	C	1.678485	0.884334	0.249953
C95	C	1.928485	1.134334	0.499953
C96	C	2.178485	1.384334	0.749953
N97	N	1.380559	0.396488	0.344070
N98	N	1.630559	0.646488	0.594070
N99	N	1.880559	0.896488	0.844070
N100	N	2.130559	1.146488	1.094070
N101	N	1.488115	0.332154	-0.344110
N102	N	1.738115	0.582154	-0.094110
N103	N	1.988115	0.832154	0.155890
N104	N	2.238115	1.082154	0.405890
C105	C	1.447402	0.356499	0.416274
C106	C	1.697402	0.606499	0.666274
C107	C	1.947402	0.856499	0.916274
C108	C	2.197402	1.106499	1.166274
C109	C	1.421263	0.372149	0.583690
C110	C	1.671263	0.622149	0.833690
C111	C	1.921263	0.872149	1.083690
C112	C	2.171263	1.122149	1.333690
H113	H	0.824634	0.276110	-0.000056
H114	H	1.074634	0.526110	0.249944
H115	H	1.324634	0.776110	0.499944
H116	H	1.574634	1.026110	0.749944
H117	H	1.344677	0.417971	0.645809
H118	H	1.594677	0.667971	0.895809
H119	H	1.844677	0.917971	1.145809
H120	H	2.094677	1.167971	1.395809
H121	H	1.044042	0.452520	-0.000026
H122	H	1.294042	0.702520	0.249974
H123	H	1.544042	0.952520	0.499974
H124	H	1.794042	1.202520	0.749974
H125	H	1.564693	0.286324	0.593771
H126	H	1.814693	0.536324	0.843771
H127	H	2.064693	0.786324	1.093771
H128	H	2.314693	1.036324	1.343771
H129	H	1.303978	0.442307	0.406195
H130	H	1.553978	0.692307	0.656195
H131	H	1.803978	0.942307	0.906195
H132	H	2.053978	1.192307	1.156195
H133	H	0.831092	0.494332	-0.000031
H134	H	1.081092	0.744332	0.249969
H135	H	1.331092	0.994332	0.499969
H136	H	1.581092	1.244332	0.749969
H137	H	1.037572	0.234318	-0.000049
H138	H	1.287572	0.484318	0.249951
H139	H	1.537572	0.734318	0.499951
H140	H	1.787572	0.984318	0.749951
H141	H	1.523975	0.310672	0.354152
H142	H	1.773975	0.560672	0.604152
H143	H	2.023975	0.810672	0.854152
H144	H	2.273975	1.060672	1.104152
