data_functionalizedCrystal
_audit_creation_method	'MofGen! by Chris Wilmer'
_symmetry_space_group_name_H-M	'P1'
_symmetry_Int_Tables_number	1
_symmetry_cell_setting	triclinic
loop_
_symmetry_equiv_pos_as_xyz
  x,y,z
_cell_length_a	12.759401
_cell_length_b	18.215405
_cell_length_c	18.215407
_cell_angle_alpha	90.011538
_cell_angle_beta	90.006460
_cell_angle_gamma	90.025046
loop_
_atom_site_label
_atom_site_type_symbol
_atom_site_fract_x
_atom_site_fract_y
_atom_site_fract_z
Zn1	Zn	1.606056	-0.293127	0.416037
Zn2	Zn	2.106056	0.206873	0.916037
Zn3	Zn	1.605956	-0.416157	0.292965
Zn4	Zn	2.105956	0.083843	0.792965
Zn5	Zn	1.430395	-0.293109	0.292991
Zn6	Zn	1.930395	0.206891	0.792991
Zn7	Zn	1.430316	-0.416156	0.415997
Zn8	Zn	1.930316	0.083844	0.915997
O9	O	1.518181	-0.354637	0.354498
O10	O	2.018181	0.145363	0.854498
O11	O	1.753064	-0.309455	0.399717
O12	O	2.253064	0.190545	0.899717
O13	O	1.582659	-0.399828	0.189984
O14	O	2.082659	0.100172	0.689984
O15	O	1.453772	-0.190127	0.309341
O16	O	1.953772	0.309873	0.809341
O17	O	1.752990	-0.399845	0.309296
O18	O	2.252990	0.100155	0.809296
O19	O	1.582829	-0.190140	0.399742
O20	O	2.082829	0.309860	0.899742
O21	O	1.453675	-0.309425	0.190004
O22	O	1.953675	0.190575	0.690004
O23	O	1.283363	-0.309424	0.309303
O24	O	1.783363	0.190576	0.809303
O25	O	1.453636	-0.399843	0.518987
O26	O	1.953636	0.100157	1.018987
O27	O	1.283305	-0.399826	0.399674
O28	O	1.783305	0.100174	0.899674
O29	O	1.582752	-0.309454	0.519016
O30	O	2.082752	0.190546	1.019016
O31	O	1.582582	-0.519141	0.309258
O32	O	2.082582	-0.019141	0.809258
O33	O	1.453540	-0.519141	0.399649
O34	O	1.953540	-0.019141	0.899649
C35	C	1.245213	-0.354624	0.354488
C36	C	1.745213	0.145376	0.854488
C37	C	1.128437	-0.354636	0.354501
C38	C	1.628437	0.145364	0.854501
C39	C	1.073572	-0.401784	0.401479
C40	C	1.573572	0.098216	0.901479
C41	C	0.963848	-0.401793	0.401487
C42	C	1.463848	0.098207	0.901487
C43	C	0.963863	-0.307505	0.307532
C44	C	1.463863	0.192495	0.807532
C45	C	1.073585	-0.307492	0.307528
C46	C	1.573585	0.192508	0.807528
C47	C	1.073562	-0.456222	0.455722
C48	C	1.573562	0.043778	0.955722
C49	C	0.963838	-0.456232	0.455730
C50	C	1.463838	0.043768	0.955730
C51	C	1.518070	-0.545844	0.354462
C52	C	2.018070	-0.045844	0.854462
C53	C	1.518118	-0.627643	0.354472
C54	C	2.018118	-0.127643	0.854472
C55	C	1.585469	-0.815812	0.307492
C56	C	2.085469	-0.315812	0.807492
C57	C	1.585516	-0.892671	0.307509
C58	C	2.085516	-0.392671	0.807509
C59	C	1.451027	-0.892710	0.401556
C60	C	1.951027	-0.392710	0.901556
C61	C	1.450986	-0.815853	0.401542
C62	C	1.950986	-0.315853	0.901542
C63	C	1.518205	-0.777406	0.354505
C64	C	2.018205	-0.277406	0.854505
C65	C	1.518293	-0.931122	0.354538
C66	C	2.018293	-0.431122	0.854538
C67	C	1.518344	-1.014456	0.354557
C68	C	2.018344	-0.514456	0.854557
C69	C	1.518157	-0.694067	0.354486
C70	C	2.018157	-0.194067	0.854486
C71	C	1.792214	-0.354652	0.354508
C72	C	2.292214	0.145348	0.854508
C73	C	1.908991	-0.354658	0.354512
C74	C	2.408991	0.145342	0.854512
C75	C	1.518197	-0.354650	0.546450
C76	C	2.018197	0.145350	1.046450
C77	C	1.518203	-0.354656	0.628249
C78	C	2.018203	0.145344	1.128249
C79	C	1.518321	-0.162685	0.354549
C80	C	2.018321	0.337315	0.854549
C81	C	1.518380	-0.080886	0.354571
C82	C	2.018380	0.419114	0.854571
C83	C	1.585350	-0.401714	0.893301
C84	C	2.085350	0.098286	1.393301
C85	C	1.585352	-0.401717	0.816442
C86	C	2.085352	0.098283	1.316442
C87	C	1.451028	-0.307586	0.816446
C88	C	1.951028	0.192414	1.316446
C89	C	1.451020	-0.307587	0.893303
C90	C	1.951020	0.192413	1.393303
C91	C	1.518187	-0.354650	0.931729
C92	C	2.018187	0.145350	1.431729
C93	C	1.518197	-0.354652	0.778013
C94	C	2.018197	0.145348	1.278013
C95	C	1.518199	-0.354656	0.694679
C96	C	2.018199	0.145344	1.194679
C97	C	1.518184	-0.354648	1.015068
C98	C	2.018184	0.145352	1.515068
C99	C	1.518165	-0.354644	1.163291
C100	C	2.018165	0.145356	1.663291
C101	C	1.518181	-0.354646	1.081492
C102	C	2.018181	0.145354	1.581492
H103	H	1.103357	-0.441048	0.512747
H104	H	1.603357	0.058952	1.012747
H105	H	1.640204	-0.784511	0.269193
H106	H	2.140204	-0.284511	0.769193
Br107	Br	1.130253	-0.546425	0.421599
Br108	Br	1.630253	-0.046425	0.921599
H109	H	1.396344	-0.269268	0.785150
H110	H	1.896344	0.230732	1.285150
H111	H	1.640042	-0.440042	0.785158
H112	H	2.140042	0.059958	1.285158
Br113	Br	1.359845	-0.243724	0.945460
Br114	Br	1.859845	0.256276	1.445460
H115	H	0.934032	-0.513208	0.440361
H116	H	1.434032	-0.013208	0.940361
H117	H	0.929829	-0.435912	0.509915
H118	H	1.429829	0.064088	1.009915
H119	H	1.396213	-0.784581	0.439829
H120	H	1.896213	-0.284581	0.939829
H121	H	1.640289	-0.923938	0.269227
H122	H	2.140289	-0.423938	0.769227
Br123	Br	1.359805	-0.944893	0.465388
Br124	Br	1.859805	-0.444893	0.965388
H125	H	1.640040	-0.440036	0.924585
H126	H	2.140040	0.059964	1.424585
Br127	Br	0.889416	-0.243525	0.243789
Br128	Br	1.389416	0.256475	0.743789
Br129	Br	1.148043	-0.243487	0.243785
Br130	Br	1.648043	0.256513	0.743785
