data_functionalizedCrystal
_audit_creation_method	'MofGen! by Chris Wilmer'
_symmetry_space_group_name_H-M	'P1'
_symmetry_Int_Tables_number	1
_symmetry_cell_setting	triclinic
loop_
_symmetry_equiv_pos_as_xyz
  x,y,z
_cell_length_a	12.759401
_cell_length_b	25.639240
_cell_length_c	12.759393
_cell_angle_alpha	89.961955
_cell_angle_beta	90.020938
_cell_angle_gamma	89.955312
loop_
_atom_site_label
_atom_site_type_symbol
_atom_site_fract_x
_atom_site_fract_y
_atom_site_fract_z
Zn1	Zn	1.606059	0.208104	0.593965
Zn2	Zn	1.605862	0.295549	0.418262
Zn3	Zn	1.430357	0.208132	0.418300
Zn4	Zn	1.430262	0.295513	0.593899
O5	O	1.518135	0.251825	0.506107
O6	O	1.753054	0.219708	0.570669
O7	O	1.582539	0.283980	0.271246
O8	O	1.453786	0.134963	0.441646
O9	O	1.752909	0.283953	0.441581
O10	O	1.582873	0.134943	0.570706
O11	O	1.453596	0.219755	0.271274
O12	O	1.283324	0.219720	0.441582
O13	O	1.453624	0.283891	0.740929
O14	O	1.283254	0.283918	0.570594
O15	O	1.582781	0.219672	0.740977
O16	O	1.582447	0.368710	0.441517
O17	O	1.453434	0.368683	0.570557
C18	C	1.245168	0.251818	0.506086
C19	C	1.128391	0.251828	0.506102
C20	C	1.073520	0.285307	0.573172
C21	C	0.963796	0.285309	0.573193
C22	C	0.963824	0.218352	0.439064
C23	C	1.073546	0.218347	0.439049
C24	C	0.813881	0.304070	0.697049
C25	C	0.759007	0.337557	0.764110
C26	C	0.794553	0.388581	0.780044
C27	C	0.884973	0.406129	0.728902
C28	C	0.939842	0.372645	0.661833
C29	C	0.904297	0.321613	0.645918
C30	C	1.223462	0.199592	0.315192
C31	C	1.278333	0.166110	0.248117
C32	C	1.242789	0.115085	0.232171
C33	C	1.152366	0.097539	0.283295
C34	C	1.097494	0.131021	0.350371
C35	C	1.133047	0.182046	0.366318
C36	C	1.517937	0.387667	0.506049
C37	C	1.517948	0.445781	0.506059
C38	C	1.585400	0.806146	0.438990
C39	C	1.585432	0.860750	0.439000
O40	O	1.642643	0.888988	0.381943
N41	N	1.518220	0.888064	0.506130
C42	C	1.450978	0.860770	0.573262
O43	O	1.393812	0.889017	0.630363
C44	C	1.450952	0.806167	0.573256
C45	C	1.518162	0.778856	0.506114
C46	C	1.652605	0.778835	0.371854
C47	C	1.652571	0.724234	0.371843
C48	C	1.585333	0.696945	0.438967
C49	C	1.518128	0.724256	0.506103
C50	C	1.383716	0.778874	0.640393
C51	C	1.383697	0.724267	0.640382
C52	C	1.450906	0.696957	0.573240
C53	C	1.450855	0.642365	0.573216
N54	N	1.518068	0.615052	0.506086
C55	C	1.585307	0.642341	0.438962
C56	C	1.451039	0.975441	0.573270
C57	C	1.451059	1.030043	0.573271
C58	C	1.585515	1.030019	0.439010
C59	C	1.585489	0.975416	0.439004
C60	C	1.518252	0.948127	0.506140
C61	C	1.585230	0.527676	0.438943
C62	C	1.585187	0.473071	0.438934
C63	C	1.450736	0.473100	0.573199
C64	C	1.450774	0.527700	0.573204
C65	C	1.518030	0.554987	0.506072
O66	O	1.393677	0.614093	0.630248
O67	O	1.642473	0.614088	0.381880
C68	C	1.792168	0.251831	0.506128
C69	C	1.908945	0.251834	0.506137
C70	C	1.518214	0.251774	0.780140
C71	C	1.518247	0.251753	0.896917
C72	C	1.518323	1.115452	0.506169
C73	C	1.518302	1.057338	0.506150
C74	C	1.518117	0.251837	0.233139
C75	C	1.518287	0.251711	0.116363
C76	C	1.585504	0.218309	0.951806
C77	C	1.585522	0.218286	1.061530
C78	C	1.451023	0.285156	1.061467
C79	C	1.451001	0.285176	0.951744
C80	C	1.623196	0.156599	1.211524
C81	C	1.690469	0.123160	1.266417
C82	C	1.792990	0.115142	1.230828
C83	C	1.828258	0.140572	1.140347
C84	C	1.760990	0.174015	1.085460
C85	C	1.658455	0.182023	1.121048
C86	C	1.413338	0.346864	0.801748
C87	C	1.346074	0.380310	0.746859
C88	C	1.243552	0.388333	0.782446
C89	C	1.208287	0.362913	0.872930
C90	C	1.275551	0.329466	0.927819
C91	C	1.378072	0.321443	0.892224
H92	H	0.685387	0.323264	0.805751
H93	H	1.640258	0.191092	0.907168
H94	H	1.789707	0.194722	1.011796
Cl95	Cl	0.929645	0.470282	0.748923
Cl96	Cl	1.079399	0.372999	0.917675
Cl97	Cl	1.391999	0.188172	0.183830
H98	H	1.396050	0.549938	0.627879
H99	H	1.639998	0.549887	0.384280
H100	H	1.328945	0.702052	0.695055
Cl101	Cl	1.957156	0.130498	1.095622
Cl102	Cl	0.725571	0.430677	0.864358
H103	H	0.784937	0.262520	0.684092
Cl104	Cl	1.646132	0.091193	1.380159
H105	H	1.395987	0.450872	0.627848
Cl106	Cl	1.494302	0.166669	1.256263
Cl107	Cl	1.877560	0.073105	1.299839
Cl108	Cl	1.366495	0.941141	0.657669
H109	H	1.396275	0.312369	1.106121
H110	H	1.023872	0.116729	0.392006
H111	H	1.639917	0.450836	0.384255
H112	H	1.246830	0.308768	1.001496
Cl113	Cl	1.159001	0.430391	0.713454
Cl114	Cl	1.299231	0.813195	0.724818
H115	H	1.118172	0.312568	0.627774
Cl116	Cl	0.894868	0.176265	0.354771
Cl117	Cl	1.366551	1.064370	0.657669
H118	H	1.374800	0.401014	0.673189
H119	H	1.496818	0.340330	0.772758
H120	H	1.707302	0.702001	0.317173
H121	H	1.287470	0.087826	0.177544
Cl122	Cl	1.107669	0.033392	0.263244
Cl123	Cl	1.268058	0.263769	0.335101
Cl124	Cl	1.053504	0.394701	0.597541
H125	H	1.640218	0.953182	0.384332
H126	H	1.707365	0.801048	0.317193
H127	H	1.640268	1.052248	0.384357
