data_functionalizedCrystal
_audit_creation_method	'MofGen! by Chris Wilmer'
_symmetry_space_group_name_H-M	'P1'
_symmetry_Int_Tables_number	1
_symmetry_cell_setting	triclinic
loop_
_symmetry_equiv_pos_as_xyz
  x,y,z
_cell_length_a	17.637015
_cell_length_b	16.625548
_cell_length_c	17.640968
_cell_angle_alpha	78.773498
_cell_angle_beta	109.664735
_cell_angle_gamma	78.774635
loop_
_atom_site_label
_atom_site_type_symbol
_atom_site_fract_x
_atom_site_fract_y
_atom_site_fract_z
Zn1	Zn	-0.233959	-1.266869	0.399638
Zn2	Zn	0.266041	-0.766869	0.899638
Zn3	Zn	-0.399710	-1.198411	0.233904
Zn4	Zn	0.100290	-0.698411	0.733904
Zn5	Zn	-0.261861	-1.097850	0.261815
Zn6	Zn	0.238139	-0.597850	0.761815
Zn7	Zn	-0.371793	-1.097817	0.371693
Zn8	Zn	0.128207	-0.597817	0.871693
O9	O	-0.316831	-1.165237	0.316762
O10	O	0.183169	-0.665237	0.816762
O11	O	-0.255952	-1.370622	0.377668
O12	O	0.244048	-0.870622	0.877668
O13	O	-0.404784	-1.156435	0.122261
O14	O	0.095216	-0.656435	0.622261
O15	O	-0.142785	-1.148935	0.303473
O16	O	0.357215	-0.648935	0.803473
O17	O	-0.377728	-1.320326	0.255903
O18	O	0.122272	-0.820326	0.755903
O19	O	-0.122285	-1.273113	0.404732
O20	O	0.377715	-0.773113	0.904732
O21	O	-0.303507	-1.082554	0.142767
O22	O	0.196493	-0.582554	0.642767
O23	O	-0.276438	-0.985012	0.276376
O24	O	0.223562	-0.485012	0.776376
O25	O	-0.330149	-1.148878	0.490745
O26	O	0.169851	-0.648878	0.990745
O27	O	-0.357205	-0.984987	0.357103
O28	O	0.142795	-0.484987	0.857103
O29	O	-0.228883	-1.273080	0.511276
O30	O	0.271117	-0.773080	1.011276
O31	O	-0.511381	-1.156403	0.228806
O32	O	-0.011381	-0.656403	0.728806
O33	O	-0.490871	-1.082497	0.330039
O34	O	0.009129	-0.582497	0.830039
C35	C	-0.531038	-1.112044	0.273379
C36	C	-0.031038	-0.612044	0.773379
C37	C	-0.622671	-1.089368	0.254847
C38	C	-0.122671	-0.589368	0.754847
C39	C	-0.316820	-0.955743	0.316736
C40	C	0.183180	-0.455743	0.816736
C41	C	-0.316832	-0.866120	0.316740
C42	C	0.183168	-0.366120	0.816740
C43	C	-0.762575	-0.992776	0.175955
C44	C	-0.262575	-0.492776	0.675955
C45	C	-0.676471	-1.014090	0.193375
C46	C	-0.176471	-0.514090	0.693375
C47	C	-0.654962	-1.143364	0.298922
C48	C	-0.154962	-0.643364	0.798922
C49	C	-0.741067	-1.122062	0.281508
C50	C	-0.241067	-0.622062	0.781508
C51	C	-0.794867	-1.046767	0.220024
C52	C	-0.294867	-0.546767	0.720024
C53	C	-0.773360	-1.176053	0.325577
C54	C	-0.273360	-0.676053	0.825577
C55	C	-0.859457	-1.154750	0.308167
C56	C	-0.359457	-0.654750	0.808167
C57	C	-0.913261	-1.079457	0.246688
C58	C	-0.413261	-0.579457	0.746688
C59	C	-0.880964	-1.025464	0.202614
C60	C	-0.380964	-0.525464	0.702614
C61	C	-0.719557	-1.251345	0.387064
C62	C	-0.219557	-0.751345	0.887064
C63	C	-0.751849	-1.305335	0.431134
C64	C	-0.251849	-0.805335	0.931134
C65	C	-0.837949	-1.284036	0.413720
C66	C	-0.337949	-0.784036	0.913720
C67	C	-0.891754	-1.208743	0.352241
C68	C	-0.391754	-0.708743	0.852241
C69	C	-0.870246	-1.338029	0.457794
C70	C	-0.370246	-0.838029	0.957794
C71	C	-0.956343	-1.316727	0.440384
C72	C	-0.456343	-0.816727	0.940384
C73	C	-0.977851	-1.187441	0.334831
C74	C	-0.477851	-0.687441	0.834831
C75	C	-0.316825	-0.537951	0.316766
C76	C	0.183175	-0.037951	0.816766
C77	C	-0.316825	-0.629257	0.316756
C78	C	0.183175	-0.129257	0.816756
C79	C	-0.316829	-0.702032	0.316752
C80	C	0.183171	-0.202032	0.816752
C81	C	-0.316828	-0.793345	0.316745
C82	C	0.183172	-0.293345	0.816745
C83	C	-0.101783	-1.218664	0.360333
C84	C	0.398217	-0.718664	0.860333
C85	C	-0.010143	-1.241431	0.378900
C86	C	0.489857	-0.741431	0.878900
C87	C	-0.273290	-1.218612	0.531755
C88	C	0.226710	-0.718612	1.031755
C89	C	-0.254735	-1.241357	0.623371
C90	C	0.245265	-0.741357	1.123371
C91	C	-0.316838	-0.375548	0.316782
C92	C	0.183162	0.124452	0.816782
C93	C	-0.316831	-0.465169	0.316773
C94	C	0.183169	0.034831	0.816773
C95	C	-0.360143	-1.112131	0.102619
C96	C	0.139857	-0.612131	0.602619
C97	C	-0.378465	-1.089599	0.011050
C98	C	0.121535	-0.589599	0.511050
C99	C	-0.457339	-0.992865	0.871238
C100	C	0.042661	-0.492865	1.371238
C101	C	-0.439894	-1.014257	0.957329
C102	C	0.060106	-0.514257	1.457329
C103	C	-0.334454	-1.143578	0.978695
C104	C	0.165546	-0.643578	1.478695
C105	C	-0.351887	-1.122194	0.892606
C106	C	0.148113	-0.622194	1.392606
C107	C	-0.413332	-1.046837	0.838884
C108	C	0.086668	-0.546837	1.338884
C109	C	-0.307880	-1.176167	0.860251
C110	C	0.192120	-0.676167	1.360251
C111	C	-0.325316	-1.154787	0.774169
C112	C	0.174684	-0.654787	1.274169
C113	C	-0.386759	-1.079435	0.720441
C114	C	0.113241	-0.579435	1.220441
C115	C	-0.430767	-1.025457	0.752801
C116	C	0.069233	-0.525457	1.252801
C117	C	-0.246440	-1.251526	0.913974
C118	C	0.253560	-0.751526	1.413974
C119	C	-0.202433	-1.305499	0.881620
C120	C	0.297567	-0.805499	1.381620
C121	C	-0.219864	-1.284117	0.795537
C122	C	0.280136	-0.784117	1.295537
C123	C	-0.281307	-1.208764	0.741809
C124	C	0.218693	-0.708764	1.241809
C125	C	-0.175855	-1.338094	0.763176
C126	C	0.324145	-0.838094	1.263176
C127	C	-0.193291	-1.316714	0.677094
C128	C	0.306709	-0.816714	1.177094
C129	C	-0.298742	-1.187384	0.655726
C130	C	0.201258	-0.687384	1.155726
H131	H	-1.021659	-1.126131	0.284761
H132	H	-0.521659	-0.626131	0.784761
C133	C	-0.108268	-1.420983	0.822282
C134	C	0.391732	-0.920983	1.322282
N135	N	-0.057358	-1.483415	0.866801
N136	N	0.442642	-0.983415	1.366801
C137	C	-0.134839	-1.388384	0.940725
C138	C	0.365161	-0.888384	1.440725
N139	N	-0.083921	-1.450812	0.985243
N140	N	0.416079	-0.950812	1.485243
H141	H	-0.157454	-1.360663	0.650751
H142	H	0.342546	-0.860663	1.150751
H143	H	-0.650184	-0.970118	0.157484
H144	H	-0.150184	-0.470118	0.657484
H145	H	-0.826430	-1.399331	0.507859
H146	H	-0.326430	-0.899331	1.007859
H147	H	-0.806384	-0.931466	0.125884
H148	H	-0.306384	-0.431466	0.625884
C149	C	-0.498359	-0.942560	0.693701
C150	C	0.001641	-0.442560	1.193701
N151	N	-0.549268	-0.880126	0.649187
N152	N	-0.049268	-0.380126	1.149187
C153	C	-1.007972	-1.056024	0.227536
C154	C	-0.507972	-0.556024	0.727536
N155	N	-1.079308	-1.038376	0.213110
N156	N	-0.579308	-0.538376	0.713110
C157	C	-0.692661	-1.388160	0.498761
C158	C	-0.192661	-0.888160	0.998761
N159	N	-0.648081	-1.450547	0.549696
N160	N	-0.148081	-0.950547	1.049696
C161	C	-0.624848	-1.274778	0.406211
C162	C	-0.124848	-0.774778	0.906211
N163	N	-0.553514	-1.292428	0.420630
N164	N	-0.053514	-0.792428	0.920630
H165	H	-0.982633	-1.360685	0.476279
H166	H	-0.482633	-0.860685	0.976279
H167	H	-0.924773	-0.964154	0.152544
H168	H	-0.424773	-0.464154	0.652544
H169	H	-0.611148	-1.204668	0.348984
H170	H	-0.111148	-0.704668	0.848984
H171	H	-0.400957	-1.062031	0.650347
H172	H	0.099043	-0.562031	1.150347
C173	C	-0.366334	-1.104487	0.596626
C174	C	0.133666	-0.604487	1.096626
N175	N	-0.417243	-1.042053	0.552112
N176	N	0.082757	-0.542053	1.052112
H177	H	-0.507353	-0.931487	0.827498
H178	H	-0.007353	-0.431487	1.327498
H179	H	-0.475735	-0.970300	0.983667
H180	H	0.024265	-0.470300	1.483667
C181	C	-0.266860	-1.226463	1.037800
C182	C	0.233140	-0.726463	1.537800
N183	N	-0.215943	-1.288890	1.082319
N184	N	0.284057	-0.788890	1.582319
H185	H	-0.232248	-1.268933	0.984067
H186	H	0.267752	-0.768933	1.484067
