data_functionalizedCrystal
_audit_creation_method	'MofGen! by Chris Wilmer'
_symmetry_space_group_name_H-M	'P1'
_symmetry_Int_Tables_number	1
_symmetry_cell_setting	triclinic
loop_
_symmetry_equiv_pos_as_xyz
  x,y,z
_cell_length_a	14.472310
_cell_length_b	16.109301
_cell_length_c	16.109301
_cell_angle_alpha	96.538519
_cell_angle_beta	90.002494
_cell_angle_gamma	89.989694
loop_
_atom_site_label
_atom_site_type_symbol
_atom_site_fract_x
_atom_site_fract_y
_atom_site_fract_z
O1	O	0.076785	-1.103143	0.106861
O2	O	0.576785	-0.603143	0.606861
O3	O	0.076801	-0.861081	0.120161
O4	O	0.576801	-0.361081	0.620161
O5	O	0.076783	-0.988761	-0.007520
O6	O	0.576783	-0.488761	0.492480
O7	O	0.076803	-0.975462	0.234542
O8	O	0.576803	-0.475462	0.734542
O9	O	-0.076899	-0.988729	-0.007512
O10	O	0.423101	-0.488729	0.492488
O11	O	-0.076881	-0.861048	0.120168
O12	O	0.423119	-0.361048	0.620168
O13	O	-0.076897	-1.103110	0.106869
O14	O	0.423103	-0.603110	0.606869
Cu15	Cu	-0.090921	-0.982076	0.113519
Cu16	Cu	0.409079	-0.482076	0.613519
Cu17	Cu	0.090825	-0.982115	0.113510
Cu18	Cu	0.590825	-0.482115	0.613510
O19	O	-0.076879	-0.975429	0.234550
O20	O	0.423121	-0.475429	0.734550
C21	C	-0.000039	-0.830090	0.119626
C22	C	0.499961	-0.330090	0.619626
C23	C	-0.000033	-0.737794	0.118011
C24	C	0.499967	-0.237794	0.618011
N25	N	-0.218752	-0.982055	0.113525
N26	N	0.281248	-0.482055	0.613525
C27	C	-0.000058	-0.988206	-0.038491
C28	C	0.499942	-0.488206	0.461509
C29	C	-0.000059	-0.986591	-0.130786
C30	C	0.499941	-0.486591	0.369214
C31	C	-0.592844	-0.982114	0.113507
C32	C	-0.092844	-0.482114	0.613507
C33	C	-0.553668	-0.913565	0.181597
C34	C	-0.053668	-0.413565	0.681597
C35	C	-0.446580	-0.913723	0.181846
C36	C	0.053420	-0.413723	0.681846
C37	C	-0.407252	-0.982084	0.113516
C38	C	0.092748	-0.482084	0.613516
C39	C	-0.446093	-1.068828	0.132440
C40	C	0.053907	-0.568828	0.632440
C41	C	-0.553215	-1.068443	0.132924
C42	C	-0.053215	-0.568443	0.632924
C43	C	-0.553379	-0.964692	0.026291
C44	C	-0.053379	-0.464692	0.526291
C45	C	-0.446251	-0.962702	0.026873
C46	C	0.053749	-0.462702	0.526873
C47	C	-0.302364	-0.982072	0.113519
C48	C	0.197636	-0.482072	0.613519
C49	C	-0.697732	-0.982131	0.113506
C50	C	-0.197732	-0.482131	0.613506
N51	N	0.218656	-0.982143	0.113498
N52	N	0.718656	-0.482143	0.613498
C53	C	-0.000055	-1.134101	0.107404
C54	C	0.499945	-0.634101	0.607404
C55	C	-0.000055	-1.226397	0.109019
C56	C	0.499945	-0.726397	0.609019
C57	C	-0.000038	-0.515522	0.190018
C58	C	0.499962	-0.015522	0.690018
C59	C	-0.000044	-0.428801	0.188494
C60	C	0.499956	0.071199	0.688494
C61	C	-0.000053	-0.448676	0.037006
C62	C	0.499947	0.051324	0.537006
C63	C	-0.000053	-0.535394	0.038530
C64	C	0.499947	-0.035394	0.538530
C65	C	-0.000041	-0.568815	0.115039
C66	C	0.499959	-0.068815	0.615039
C67	C	-0.000047	-0.395376	0.111990
C68	C	0.499953	0.104624	0.611990
C69	C	-0.000053	-0.301350	0.110337
C70	C	0.499947	0.198650	0.610337
C71	C	-0.000036	-0.662847	0.116693
C72	C	0.499964	-0.162847	0.616693
C73	C	-0.000049	-1.058599	-0.353059
C74	C	0.499951	-0.558599	0.146941
C75	C	-0.000042	-1.057075	-0.439779
C76	C	0.499958	-0.557075	0.060221
C77	C	-0.000036	-0.905586	-0.419905
C78	C	0.499964	-0.405586	0.080095
C79	C	-0.000037	-0.907111	-0.333186
C80	C	0.499963	-0.407111	0.166814
C81	C	-0.000048	-0.983620	-0.299766
C82	C	0.499952	-0.483620	0.200234
C83	C	-0.000040	-0.980571	-0.473205
C84	C	0.499960	-0.480571	0.026795
C85	C	-0.000031	-0.978918	-0.567231
C86	C	0.499969	-0.478918	-0.067231
C87	C	-0.000055	-0.985273	-0.205734
C88	C	0.499945	-0.485273	0.294266
C89	C	-0.000036	-0.975984	0.265521
C90	C	0.499964	-0.475984	0.765521
C91	C	-0.000028	-0.977600	0.357816
C92	C	0.499972	-0.477600	0.857816
H93	H	-0.420321	-0.849244	0.170574
H94	H	0.079679	-0.349244	0.670574
Cl95	Cl	-0.000022	-0.809409	-0.461926
Cl96	Cl	0.499978	-0.309409	0.038074
H97	H	-0.000035	-0.542730	0.252317
H98	H	0.499965	-0.042730	0.752317
Cl99	Cl	-0.000028	-0.812844	-0.266184
Cl100	Cl	0.499972	-0.312844	0.233816
H101	H	-0.000043	-0.385413	0.249550
H102	H	0.499957	0.114587	0.749550
H103	H	-0.000058	-0.578788	-0.022530
H104	H	0.499942	-0.078788	0.477470
Cl105	Cl	-0.593456	-0.813684	0.164472
Cl106	Cl	-0.093456	-0.313684	0.664472
Cl107	Cl	-0.595186	-0.930509	0.280966
Cl108	Cl	-0.095186	-0.430509	0.780966
H109	H	-0.000057	-1.120897	-0.325851
H110	H	0.499943	-0.620897	0.174149
Cl111	Cl	-0.000041	-1.151339	-0.506773
Cl112	Cl	0.499959	-0.651339	-0.006773
Cl113	Cl	-0.000062	-0.406655	-0.059172
Cl114	Cl	0.499938	0.093345	0.440828
Cl115	Cl	-0.406765	-1.149466	0.057907
Cl116	Cl	0.093235	-0.649466	0.557907
Cl117	Cl	-0.591773	-1.092149	0.231126
Cl118	Cl	-0.091773	-0.592149	0.731126
Cl119	Cl	-0.406989	-0.930863	0.281781
Cl120	Cl	0.093011	-0.430863	0.781781
Cl121	Cl	-0.592491	-1.041869	-0.051941
Cl122	Cl	-0.092491	-0.541869	0.448059
H123	H	-0.419252	-1.084551	0.195320
H124	H	0.080748	-0.584551	0.695320
Cl125	Cl	-0.593227	-1.149484	0.059185
Cl126	Cl	-0.093227	-0.649484	0.559185
H127	H	-0.580444	-0.902813	0.008088
H128	H	-0.080444	-0.402813	0.508088
H129	H	-0.420866	-0.898892	0.012511
H130	H	0.079134	-0.398892	0.512511
Cl131	Cl	-0.404940	-1.034791	-0.055022
Cl132	Cl	0.095060	-0.534791	0.444978
