data_functionalizedCrystal
_audit_creation_method	'MofGen! by Chris Wilmer'
_symmetry_space_group_name_H-M	'P1'
_symmetry_Int_Tables_number	1
_symmetry_cell_setting	triclinic
loop_
_symmetry_equiv_pos_as_xyz
  x,y,z
_cell_length_a	15.944551
_cell_length_b	18.266242
_cell_length_c	15.944551
_cell_angle_alpha	89.992703
_cell_angle_beta	96.501262
_cell_angle_gamma	90.004545
loop_
_atom_site_label
_atom_site_type_symbol
_atom_site_fract_x
_atom_site_fract_y
_atom_site_fract_z
O1	O	1.114530	0.060806	-0.108333
O2	O	1.614530	0.560806	0.391667
O3	O	0.869980	0.060825	-0.121690
O4	O	1.369980	0.560825	0.378310
O5	O	0.998933	0.060808	0.007263
O6	O	1.498933	0.560808	0.507263
O7	O	0.985577	0.060822	-0.237286
O8	O	1.485577	0.560822	0.262714
O9	O	0.998911	-0.060954	0.007270
O10	O	1.498911	0.439046	0.507270
O11	O	0.869958	-0.060937	-0.121683
O12	O	1.369958	0.439063	0.378317
O13	O	1.114508	-0.060956	-0.108327
O14	O	1.614508	0.439044	0.391673
Zn15	Zn	0.992229	-0.080279	-0.115004
Zn16	Zn	1.492229	0.419721	0.384996
Zn17	Zn	0.992258	0.080148	-0.115013
Zn18	Zn	1.492258	0.580148	0.384987
O19	O	0.985555	-0.060940	-0.237280
O20	O	1.485555	0.439060	0.262720
C21	C	0.838675	-0.000054	-0.121132
C22	C	1.338675	0.499946	0.378868
C23	C	0.745429	-0.000047	-0.119470
C24	C	1.245429	0.499953	0.380530
N25	N	0.992216	-0.189766	-0.114997
N26	N	1.492216	0.310234	0.385003
C27	C	0.530572	-0.000066	-0.035565
C28	C	1.030572	0.499934	0.464435
C29	C	0.469563	0.059971	-0.074531
C30	C	0.969563	0.559971	0.425469
C31	C	0.574703	-0.000056	-0.116462
C32	C	1.074703	0.499944	0.383538
C33	C	0.469564	-0.060077	-0.074543
C34	C	0.969564	0.439923	0.425457
C35	C	0.409790	-0.000068	-0.113551
C36	C	0.909790	0.499932	0.386449
C37	C	0.514922	0.060031	-0.155450
C38	C	1.014922	0.560031	0.344550
C39	C	0.514929	-0.060071	-0.155451
C40	C	1.014929	0.439929	0.344549
C41	C	0.453937	-0.000019	-0.194476
C42	C	0.953937	0.499981	0.305524
C43	C	0.669705	-0.000049	-0.118137
C44	C	1.169705	0.499951	0.381863
C45	C	0.314789	-0.000070	-0.111883
C46	C	0.814789	0.499930	0.388117
C47	C	1.049335	-0.228082	-0.057925
C48	C	1.549335	0.271918	0.442075
C49	C	1.049340	-0.304727	-0.057921
C50	C	1.549340	0.195273	0.442079
C51	C	0.992235	-0.343053	-0.115004
C52	C	1.492235	0.156947	0.384996
C53	C	0.935105	-0.304727	-0.172081
C54	C	1.435105	0.195273	0.327919
C55	C	0.935095	-0.228084	-0.172077
C56	C	1.435095	0.271916	0.327923
N57	N	0.981547	-0.463380	-0.189328
N58	N	1.481547	0.036620	0.310672
N59	N	0.981561	-0.536188	-0.189328
N60	N	1.481561	-0.036188	0.310672
C61	C	0.992258	-0.573975	-0.115016
C62	C	1.492258	-0.073975	0.384984
N63	N	1.002957	-0.536203	-0.040701
N64	N	1.502957	-0.036203	0.459299
N65	N	1.002947	-0.463389	-0.040702
N66	N	1.502947	0.036611	0.459298
C67	C	0.992238	-0.426160	-0.115014
C68	C	1.492238	0.073840	0.384986
C69	C	1.049386	-0.695398	-0.057935
C70	C	1.549386	-0.195398	0.442065
C71	C	1.049386	-0.772045	-0.057930
C72	C	1.549386	-0.272045	0.442070
C73	C	0.935154	-0.772044	-0.172097
C74	C	1.435154	-0.272044	0.327903
C75	C	0.935151	-0.695399	-0.172094
C76	C	1.435151	-0.195399	0.327906
C77	C	0.992271	-0.657081	-0.115014
C78	C	1.492271	-0.157081	0.384986
C79	C	1.145813	-0.000075	-0.108885
C80	C	1.645813	0.499925	0.391115
C81	C	1.239059	-0.000078	-0.110547
C82	C	1.739059	0.499922	0.389453
C83	C	0.998367	-0.000073	0.038561
C84	C	1.498367	0.499927	0.538561
C85	C	0.996705	-0.000073	0.131807
C86	C	1.496705	0.499927	0.631807
N87	N	0.992278	0.189635	-0.115012
N88	N	1.492278	0.689635	0.384988
C89	C	0.986120	-0.000057	-0.268577
C90	C	1.486120	0.499943	0.231423
C91	C	0.987782	-0.000052	-0.361823
C92	C	1.487782	0.499948	0.138177
C93	C	0.912801	-0.000057	0.346663
C94	C	1.412801	0.499943	0.846663
C95	C	0.951752	-0.060096	0.407684
C96	C	1.451752	0.439904	0.907684
C97	C	0.993698	-0.000067	0.302533
C98	C	1.493698	0.499933	0.802533
C99	C	0.951793	0.059952	0.407661
C100	C	1.451793	0.559952	0.907661
C101	C	0.990787	-0.000058	0.467445
C102	C	1.490787	0.499942	0.967445
C103	C	1.032672	-0.060156	0.362325
C104	C	1.532672	0.439844	0.862325
C105	C	1.032701	0.059946	0.362295
C106	C	1.532701	0.559946	0.862295
C107	C	1.071711	-0.000108	0.423298
C108	C	1.571711	0.499892	0.923298
C109	C	0.995372	-0.000073	0.207530
C110	C	1.495372	0.499927	0.707530
C111	C	0.989119	-0.000058	0.562446
C112	C	1.489119	0.499942	1.062446
H113	H	0.563905	0.000004	0.031573
H114	H	1.063905	0.500004	0.531573
H115	H	1.095844	-0.196886	-0.011445
H116	H	1.595844	0.303114	0.488555
O117	O	0.879592	-0.658140	-0.227429
O118	O	1.379592	-0.158140	0.272571
C119	C	0.827783	-0.613804	-0.182414
C120	C	1.327783	-0.113804	0.317586
H121	H	0.826359	-0.636911	-0.116171
H122	H	1.326359	-0.136911	0.383829
H123	H	0.761025	-0.612935	-0.216648
H124	H	1.261025	-0.112935	0.283352
H125	H	0.854068	-0.555715	-0.178024
H126	H	1.354068	-0.055715	0.321976
H127	H	0.888654	-0.803248	-0.218571
H128	H	1.388654	-0.303248	0.281429
H129	H	0.917575	0.110714	0.427735
H130	H	1.417575	0.610714	0.927735
O131	O	0.445525	0.120576	-0.033858
O132	O	0.945525	0.620576	0.466142
C133	C	0.389611	0.162432	-0.089526
C134	C	0.889611	0.662432	0.410474
H135	H	0.399822	0.149013	-0.157452
H136	H	0.899822	0.649013	0.342548
H137	H	0.402031	0.223153	-0.077132
H138	H	0.902031	0.723153	0.422868
H139	H	0.321767	0.148977	-0.079010
H140	H	0.821767	0.648977	0.420990
O141	O	0.539062	-0.120639	-0.196120
O142	O	1.039062	0.379361	0.303880
C143	C	0.596154	-0.161784	-0.140871
C144	C	1.096154	0.338216	0.359129
H145	H	0.627417	-0.124574	-0.089066
H146	H	1.127417	0.375426	0.410934
H147	H	0.646530	-0.186564	-0.177598
H148	H	1.146530	0.313436	0.322402
H149	H	0.560684	-0.207485	-0.111272
H150	H	1.060684	0.292515	0.388728
O151	O	1.104790	-0.341881	-0.002364
O152	O	1.604790	0.158119	0.497636
C153	C	1.091125	-0.323186	0.080800
C154	C	1.591125	0.176814	0.580800
H155	H	1.058751	-0.267540	0.080727
H156	H	1.558751	0.232460	0.580727
H157	H	1.154260	-0.320570	0.122125
H158	H	1.654260	0.179430	0.622125
H159	H	1.049316	-0.366331	0.106796
H160	H	1.549316	0.133669	0.606796
O161	O	0.879599	-0.342035	-0.227416
O162	O	1.379599	0.157965	0.272584
C163	C	0.827777	-0.386373	-0.182398
C164	C	1.327777	0.113627	0.317602
H165	H	0.861233	-0.397859	-0.116692
H166	H	1.361233	0.102141	0.383308
H167	H	0.814498	-0.440266	-0.217452
H168	H	1.314498	0.059734	0.282548
H169	H	0.765696	-0.356849	-0.176648
H170	H	1.265696	0.143151	0.323352
H171	H	0.917527	-0.110849	0.427795
H172	H	1.417527	0.389151	0.927795
H173	H	0.845652	-0.000112	0.313356
H174	H	1.345652	0.499888	0.813356
O175	O	0.414333	-0.000107	-0.274634
O176	O	0.914333	0.499893	0.225366
C177	C	0.363975	-0.063449	-0.287447
C178	C	0.863975	0.436551	0.212553
H179	H	0.389011	-0.107542	-0.240546
H180	H	0.889011	0.392458	0.259454
H181	H	0.366159	-0.084342	-0.354535
H182	H	0.866159	0.415658	0.145465
H183	H	0.296035	-0.049686	-0.277623
H184	H	0.796035	0.450314	0.222377
H185	H	1.095896	-0.803242	-0.011450
H186	H	1.595896	-0.303242	0.488550
O187	O	0.445561	-0.120554	-0.033589
O188	O	0.945561	0.379446	0.466411
C189	C	0.404809	-0.099006	0.036429
C190	C	0.904809	0.400994	0.536429
H191	H	0.425619	-0.041265	0.056347
H192	H	0.925619	0.458735	0.556347
H193	H	0.422318	-0.138436	0.091037
H194	H	0.922318	0.361564	0.591037
H195	H	0.333537	-0.099895	0.018524
H196	H	0.833537	0.400105	0.518524
H197	H	0.534919	0.110843	-0.189643
H198	H	1.034919	0.610843	0.310357
O199	O	0.879579	-0.190974	-0.227605
O200	O	1.379579	0.309026	0.272395
C201	C	0.829157	-0.241232	-0.277972
C202	C	1.329157	0.258768	0.222028
H203	H	0.863596	-0.295862	-0.278945
H204	H	1.363596	0.204138	0.221055
H205	H	0.816342	-0.219080	-0.345045
H206	H	1.316342	0.280920	0.154955
H207	H	0.766764	-0.249393	-0.250657
H208	H	1.266764	0.250607	0.249343
O209	O	1.104895	-0.658284	-0.002403
O210	O	1.604895	-0.158284	0.497597
C211	C	1.155321	-0.708543	0.047965
C212	C	1.655321	-0.208543	0.547965
H213	H	1.120889	-0.763182	0.048936
H214	H	1.620889	-0.263182	0.548936
H215	H	1.168131	-0.686404	0.115039
H216	H	1.668131	-0.186404	0.615039
H217	H	1.217717	-0.716683	0.020653
H218	H	1.717717	-0.216683	0.520653
H219	H	1.066850	-0.110970	0.342337
H220	H	1.566850	0.389030	0.842337
O221	O	1.151900	-0.000280	0.462827
O222	O	1.651900	0.499720	0.962827
C223	C	1.194220	-0.063654	0.439699
C224	C	1.694220	0.436346	0.939699
H225	H	1.145989	-0.107692	0.417796
H226	H	1.645989	0.392308	0.917796
H227	H	1.237557	-0.084611	0.496391
H228	H	1.737557	0.415389	0.996391
H229	H	1.233333	-0.049907	0.386211
H230	H	1.733333	0.450093	0.886211
H231	H	1.066897	0.110702	0.342162
H232	H	1.566897	0.610702	0.842162
