data_functionalizedCrystal
_audit_creation_method	'MofGen! by Chris Wilmer'
_symmetry_space_group_name_H-M	'P1'
_symmetry_Int_Tables_number	1
_symmetry_cell_setting	triclinic
loop_
_symmetry_equiv_pos_as_xyz
  x,y,z
_cell_length_a	14.044220
_cell_length_b	11.792241
_cell_length_c	10.868271
_cell_angle_alpha	90.005281
_cell_angle_beta	89.996185
_cell_angle_gamma	91.308854
loop_
_atom_site_label
_atom_site_type_symbol
_atom_site_fract_x
_atom_site_fract_y
_atom_site_fract_z
O1	O	1.259113	-0.273771	-0.102320
O2	O	1.592447	0.059563	0.231013
O3	O	1.925780	0.392896	0.564346
O4	O	0.983093	-0.263891	-0.102323
O5	O	1.316427	0.069442	0.231010
O6	O	1.649760	0.402775	0.564343
O7	O	1.127802	-0.104289	-0.102313
O8	O	1.461135	0.229044	0.231020
O9	O	1.794468	0.562377	0.564353
O10	O	1.114405	-0.433373	-0.102331
O11	O	1.447738	-0.100039	0.231003
O12	O	1.781072	0.233294	0.564336
O13	O	1.127790	-0.104281	0.102331
O14	O	1.461123	0.229052	0.435665
O15	O	1.794456	0.562385	0.768998
O16	O	0.983081	-0.263883	0.102321
O17	O	1.316415	0.069450	0.435655
O18	O	1.649748	0.402783	0.768988
O19	O	1.259101	-0.273763	0.102324
O20	O	1.592435	0.059571	0.435658
O21	O	1.925768	0.392904	0.768991
Zn22	Zn	1.121089	-0.268822	0.134815
Zn23	Zn	1.454423	0.064512	0.468148
Zn24	Zn	1.787756	0.397845	0.801481
Zn25	Zn	1.121105	-0.268832	-0.134814
Zn26	Zn	1.454439	0.064501	0.198520
Zn27	Zn	1.787772	0.397834	0.531853
O28	O	1.114393	-0.433365	0.102314
O29	O	1.447726	-0.100031	0.435647
O30	O	1.781060	0.233302	0.768981
C31	C	0.947751	-0.259563	-0.000001
C32	C	1.281084	0.073770	0.333332
C33	C	1.614417	0.407104	0.666665
C34	C	0.842459	-0.246664	-0.000002
C35	C	1.175792	0.086669	0.333331
C36	C	1.509125	0.420003	0.666664
C37	C	1.294444	-0.278091	-0.000000
C38	C	1.627777	0.055242	0.333333
C39	C	1.961111	0.388576	0.666666
C40	C	1.399736	-0.290990	-0.000008
C41	C	1.733069	0.042343	0.333326
C42	C	2.066403	0.375677	0.666659
C43	C	1.126954	-0.061915	0.000009
C44	C	1.460287	0.271418	0.333342
C45	C	1.793621	0.604751	0.666675
C46	C	1.124435	0.064335	0.000008
C47	C	1.457769	0.397668	0.333341
C48	C	1.791102	0.731001	0.666674
C49	C	1.592519	-0.314572	-0.000008
C50	C	1.925852	0.018761	0.333326
C51	C	2.259185	0.352095	0.666659
C52	C	1.649682	-0.223087	-0.000002
C53	C	1.983015	0.110246	0.333331
C54	C	2.316348	0.443580	0.666664
C55	C	1.756953	-0.236209	-0.000002
C56	C	2.090286	0.097125	0.333331
C57	C	2.423619	0.430458	0.666664
C58	C	1.485238	-0.301452	-0.000008
C59	C	1.818571	0.031881	0.333326
C60	C	2.151904	0.365214	0.666659
C61	C	1.115241	-0.475739	-0.000011
C62	C	1.448574	-0.142405	0.333323
C63	C	1.781907	0.190928	0.666656
C64	C	1.117759	-0.601989	-0.000017
C65	C	1.451093	-0.268655	0.333316
C66	C	1.784426	0.064678	0.666649
N67	N	1.121086	-0.268815	0.318829
N68	N	1.454419	0.064519	0.652162
N69	N	1.787752	0.397852	0.985495
C70	C	1.119804	0.295482	-0.000013
C71	C	1.453137	0.628815	0.333320
C72	C	1.786471	0.962148	0.666654
C73	C	1.122377	0.166855	-0.000002
C74	C	1.455711	0.500188	0.333331
C75	C	1.789044	0.833522	0.666665
N76	N	1.121117	-0.268831	-0.318828
N77	N	1.454450	0.064502	0.014506
N78	N	1.787783	0.397836	0.347839
C79	C	1.121100	-0.268829	0.569835
C80	C	1.454434	0.064504	0.903168
C81	C	1.787767	0.397837	1.236501
C82	C	1.121089	-0.268824	0.430157
C83	C	1.454422	0.064509	0.763490
C84	C	1.787756	0.397842	1.096824
H85	H	1.624141	-0.402742	-0.000013
H86	H	1.957474	-0.069409	0.333320
H87	H	2.290808	0.263925	0.666653
H88	H	1.618057	-0.134910	-0.000087
H89	H	1.951391	0.198423	0.333246
H90	H	2.284724	0.531757	0.666580
