data_functionalizedCrystal
_audit_creation_method	'MofGen! by Chris Wilmer'
_symmetry_space_group_name_H-M	'P1'
_symmetry_Int_Tables_number	1
_symmetry_cell_setting	triclinic
loop_
_symmetry_equiv_pos_as_xyz
  x,y,z
_cell_length_a	14.044191
_cell_length_b	14.044220
_cell_length_c	12.503572
_cell_angle_alpha	93.843168
_cell_angle_beta	86.162165
_cell_angle_gamma	93.190327
loop_
_atom_site_label
_atom_site_type_symbol
_atom_site_fract_x
_atom_site_fract_y
_atom_site_fract_z
O1	O	1.282208	0.225145	-0.089273
O2	O	1.782208	0.725145	0.410727
O3	O	1.005536	0.216832	-0.089287
O4	O	1.505536	0.716832	0.410713
O5	O	1.139719	0.082653	-0.089269
O6	O	1.639719	0.582653	0.410731
O7	O	1.148026	0.359324	-0.089290
O8	O	1.648026	0.859324	0.410710
O9	O	1.129629	0.092762	0.089371
O10	O	1.629629	0.592762	0.589371
O11	O	0.995447	0.226941	0.089354
O12	O	1.495447	0.726941	0.589354
O13	O	1.272118	0.235254	0.089368
O14	O	1.772118	0.735254	0.589368
Cu15	Cu	1.132861	0.232021	0.105672
Cu16	Cu	1.632861	0.732021	0.605672
Cu17	Cu	1.144794	0.220065	-0.105591
Cu18	Cu	1.644794	0.720065	0.394409
O19	O	1.137936	0.369433	0.089350
O20	O	1.637936	0.869433	0.589350
C21	C	0.964870	0.218250	0.000032
C22	C	1.464870	0.718250	0.500032
C23	C	0.858727	0.207402	0.000027
C24	C	1.358727	0.707402	0.500027
C25	C	1.131038	0.052086	0.000051
C26	C	1.631038	0.552086	0.500051
C27	C	1.120194	-0.054057	0.000052
C28	C	1.620194	0.445943	0.500052
C29	C	1.100368	-0.248396	0.000036
C30	C	1.600368	0.251604	0.500036
C31	C	1.177283	-0.299524	0.000036
C32	C	1.677283	0.200476	0.500036
C33	C	1.166252	-0.407661	0.000027
C34	C	1.666252	0.092339	0.500027
C35	C	1.111398	-0.140249	0.000045
C36	C	1.611398	0.359751	0.500045
C37	C	0.613268	0.264503	0.000034
C38	C	1.113268	0.764503	0.500034
C39	C	0.664393	0.187587	0.000038
C40	C	1.164393	0.687587	0.500038
C41	C	0.772531	0.198615	0.000032
C42	C	1.272531	0.698615	0.500032
C43	C	0.505121	0.253477	0.000040
C44	C	1.005121	0.753477	0.500040
C45	C	1.312785	0.233836	0.000046
C46	C	1.812785	0.733836	0.500046
C47	C	1.418929	0.244683	0.000044
C48	C	1.918929	0.744683	0.500044
C49	C	1.146617	0.400000	0.000027
C50	C	1.646617	0.900000	0.500027
C51	C	1.157462	0.506143	0.000020
C52	C	1.657462	1.006143	0.500020
N53	N	1.124476	0.240429	0.254263
N54	N	1.624476	0.740429	0.754263
N55	N	1.153186	0.211650	-0.254182
N56	N	1.653186	0.711650	0.245818
C57	C	1.112141	0.252807	0.473377
C58	C	1.612141	0.752807	0.973377
C59	C	1.165518	0.199275	0.526711
C60	C	1.665518	0.699275	1.026711
C61	C	1.158655	0.206162	0.648633
C62	C	1.658655	0.706162	1.148633
C63	C	1.119003	0.245921	0.351444
C64	C	1.619003	0.745921	0.851444
H65	H	1.026241	-0.285835	0.000029
H66	H	1.526241	0.214165	0.500029
H67	H	0.626954	0.113450	-0.000032
H68	H	1.126954	0.613450	0.499968
H69	H	0.650710	0.338629	0.000025
H70	H	1.150710	0.838629	0.500025
N71	N	1.232881	0.131718	0.465907
N72	N	1.732881	0.631718	0.965907
H73	H	1.280883	0.169138	0.419244
H74	H	1.780883	0.669138	0.919244
H75	H	1.267484	0.096967	0.518555
H76	H	1.767484	0.596967	1.018555
N77	N	1.275484	-0.249939	0.000046
N78	N	1.775484	0.250061	0.500046
H79	H	1.269550	-0.178598	0.000054
H80	H	1.769550	0.321402	0.500054
H81	H	1.307549	-0.265333	0.066275
H82	H	1.807549	0.234667	0.566275
N83	N	1.044783	0.320363	0.534173
N84	N	1.544783	0.820363	1.034173
H85	H	1.049369	0.315768	0.613913
H86	H	1.549369	0.815768	1.113913
H87	H	1.062741	0.387919	0.514581
H88	H	1.562741	0.887919	1.014581
