data_functionalizedCrystal
_audit_creation_method	'MofGen! by Chris Wilmer'
_symmetry_space_group_name_H-M	'P1'
_symmetry_Int_Tables_number	1
_symmetry_cell_setting	triclinic
loop_
_symmetry_equiv_pos_as_xyz
  x,y,z
_cell_length_a	10.868271
_cell_length_b	19.288864
_cell_length_c	19.288865
_cell_angle_alpha	83.136245
_cell_angle_beta	89.989638
_cell_angle_gamma	89.981837
loop_
_atom_site_label
_atom_site_type_symbol
_atom_site_fract_x
_atom_site_fract_y
_atom_site_fract_z
O1	O	0.102731	-0.921348	-0.086648
O2	O	0.602731	-0.421348	0.413352
O3	O	0.102649	-0.719087	-0.098337
O4	O	0.602649	-0.219087	0.401663
O5	O	0.102668	-0.826062	0.008638
O6	O	0.602668	-0.326062	0.508638
O7	O	0.102712	-0.814373	-0.193623
O8	O	0.602712	-0.314373	0.306377
O9	O	-0.101977	-0.826053	0.008642
O10	O	0.398023	-0.326053	0.508642
O11	O	-0.101996	-0.719079	-0.098333
O12	O	0.398004	-0.219079	0.401667
O13	O	-0.101914	-0.921339	-0.086644
O14	O	0.398086	-0.421339	0.413356
Zn15	Zn	-0.134447	-0.820208	-0.092488
Zn16	Zn	0.365553	-0.320208	0.407512
Zn17	Zn	0.135181	-0.820219	-0.092493
Zn18	Zn	0.635181	-0.320219	0.407507
O19	O	-0.101933	-0.814365	-0.193619
O20	O	0.398067	-0.314365	0.306381
C21	C	0.000315	-0.693207	-0.097959
C22	C	0.500315	-0.193207	0.402041
C23	C	0.000283	-0.616103	-0.096830
C24	C	0.500283	-0.116103	0.403170
N25	N	-0.318461	-0.820205	-0.092484
N26	N	0.181539	-0.320205	0.407516
C27	C	0.000342	-0.825682	0.034516
C28	C	0.500342	-0.325682	0.534516
C29	C	0.000330	-0.824553	0.111620
C30	C	0.500330	-0.324553	0.611620
C31	C	-0.569467	-0.820216	-0.092492
C32	C	-0.069467	-0.320216	0.407508
C33	C	-0.429789	-0.820207	-0.092489
C34	C	0.070211	-0.320207	0.407511
N35	N	0.319196	-0.820227	-0.092492
N36	N	0.819196	-0.320227	0.407508
C37	C	0.000422	-0.947220	-0.087022
C38	C	0.500422	-0.447220	0.412978
C39	C	0.000463	-1.024324	-0.088151
C40	C	0.500463	-0.524324	0.411849
C41	C	0.000316	-0.571407	-0.159598
C42	C	0.500316	-0.071407	0.340402
C43	C	0.000329	-0.498960	-0.158537
C44	C	0.500329	0.001040	0.341463
C45	C	0.000334	-0.471212	-0.094705
C46	C	0.500334	0.028788	0.405295
C47	C	0.000294	-0.515918	-0.031929
C48	C	0.500294	-0.015918	0.468071
C49	C	0.000269	-0.588364	-0.032991
C50	C	0.500269	-0.088364	0.467009
C51	C	0.072061	-0.362953	-0.044527
C52	C	0.572061	0.137047	0.455473
C53	C	0.072094	-0.290509	-0.043467
C54	C	0.572094	0.209491	0.456533
C55	C	0.000408	-0.247767	-0.091425
C56	C	0.500408	0.252233	0.408575
C57	C	-0.071295	-0.277476	-0.140455
C58	C	0.428705	0.222524	0.359545
C59	C	-0.071321	-0.349922	-0.141517
C60	C	0.428679	0.150078	0.358483
C61	C	0.000361	-0.392658	-0.093546
C62	C	0.500361	0.107342	0.406454
C63	C	0.000454	-0.124514	-0.153047
C64	C	0.500454	0.375486	0.346953
C65	C	0.000460	-0.052066	-0.151984
C66	C	0.500460	0.447934	0.348016
C67	C	0.000437	-0.069026	-0.025374
C68	C	0.500437	0.430974	0.474626
C69	C	0.000419	-0.141473	-0.026439
C70	C	0.500419	0.358527	0.473561
C71	C	0.000433	-0.169212	-0.090278
C72	C	0.500433	0.330788	0.409722
C73	C	0.000396	-0.814745	-0.219497
C74	C	0.500396	-0.314745	0.280503
C75	C	0.000415	-0.815874	-0.296601
C76	C	0.500415	-0.315874	0.203399
C77	C	0.000350	-0.887321	0.156316
C78	C	0.500350	-0.387321	0.656316
C79	C	0.000369	-0.886260	0.228763
C80	C	0.500369	-0.386260	0.728763
C81	C	0.000344	-0.822428	0.256511
C82	C	0.500344	-0.322428	0.756511
C83	C	0.000331	-0.759652	0.211805
C84	C	0.500331	-0.259652	0.711805
C85	C	0.000324	-0.760714	0.139359
C86	C	0.500324	-0.260714	0.639359
C87	C	-0.071359	-0.772245	0.364800
C88	C	0.428641	-0.272245	0.864800
C89	C	-0.071360	-0.771185	0.437244
C90	C	0.428640	-0.271185	0.937244
C91	C	0.000370	-0.819148	0.479956
C92	C	0.500370	-0.319148	0.979956
C93	C	0.072085	-0.868183	0.450217
C94	C	0.572085	-0.368183	0.950217
C95	C	0.072078	-0.869245	0.377771
C96	C	0.572078	-0.369245	0.877771
C97	C	0.000352	-0.821269	0.335065
C98	C	0.500352	-0.321269	0.835065
C99	C	0.000412	-0.880770	0.603209
C100	C	0.500412	-0.380770	1.103209
C101	C	0.000438	-0.879707	0.675657
C102	C	0.500438	-0.379707	1.175657
C103	C	0.000388	-0.753097	0.658697
C104	C	0.500388	-0.253097	1.158697
C105	C	0.000374	-0.754162	0.586250
C106	C	0.500374	-0.254162	1.086250
C107	C	0.000380	-0.818000	0.558511
C108	C	0.500380	-0.318000	1.058511
H109	H	0.000330	-0.593987	-0.211580
H110	H	0.500330	-0.093987	0.288420
O111	O	0.000616	-0.151385	-0.215099
O112	O	0.500616	0.348615	0.284901
C113	C	0.106677	-0.159125	-0.323621
C114	C	0.606677	0.340875	0.176379
C115	C	0.106635	-0.128636	-0.253381
C116	C	0.606635	0.371364	0.246619
H117	H	0.192397	-0.140756	-0.354586
H118	H	0.692397	0.359244	0.145414
H119	H	0.021098	-0.140659	-0.354673
H120	H	0.521098	0.359341	0.145327
H121	H	0.106602	-0.218581	-0.313580
H122	H	0.606602	0.281419	0.186420
H123	H	0.106753	-0.069180	-0.263359
H124	H	0.606753	0.430820	0.236641
H125	H	0.192206	-0.147156	-0.222351
H126	H	0.692206	0.352844	0.277649
H127	H	0.000461	-0.930822	0.712049
H128	H	0.500461	-0.430822	1.212049
H129	H	-0.129708	-0.374108	-0.181437
H130	H	0.370292	0.125892	0.318563
H131	H	0.000353	-0.462561	-0.209652
H132	H	0.500353	0.037439	0.290348
H133	H	-0.129670	-0.242677	-0.179506
H134	H	0.370330	0.257323	0.320494
H135	H	0.000479	-0.015674	-0.203099
H136	H	0.500479	0.484326	0.296901
H137	H	0.000518	-0.046435	0.026600
H138	H	0.500518	0.453565	0.526600
H139	H	0.000315	-0.493322	0.020044
H140	H	0.500315	0.006678	0.520044
H141	H	0.000359	-0.939303	0.133736
H142	H	0.500359	-0.439303	0.633736
H143	H	0.000422	-0.932751	0.580622
H144	H	0.500422	-0.432751	1.080622
H145	H	-0.129777	-0.733186	0.330028
H146	H	0.370223	-0.233186	0.830028
H147	H	0.000399	-0.177866	0.024674
H148	H	0.500399	0.322134	0.524674
H149	H	0.130484	-0.266325	-0.003547
H150	H	0.630484	0.233675	0.496453
H151	H	0.000313	-0.707679	0.234401
H152	H	0.500313	-0.207679	0.734401
O153	O	0.141824	-0.404366	0.002088
O154	O	0.641824	0.095634	0.502088
C155	C	0.284022	-0.409648	0.098412
C156	C	0.784022	0.090352	0.598412
C157	C	0.205096	-0.362668	0.045654
C158	C	0.705096	0.137332	0.545654
H159	H	0.335178	-0.375956	0.133658
H160	H	0.835178	0.124044	0.633658
H161	H	0.353273	-0.439706	0.069122
H162	H	0.853273	0.060294	0.569122
H163	H	0.221965	-0.448074	0.131545
H164	H	0.721965	0.051926	0.631545
H165	H	0.267056	-0.324202	0.012507
H166	H	0.767056	0.175798	0.512507
H167	H	0.135834	-0.332659	0.074987
H168	H	0.635834	0.167341	0.574987
O169	O	0.000300	-0.631687	0.028049
O170	O	0.500300	-0.131687	0.528049
C171	C	0.000203	-0.640864	0.153738
C172	C	0.500203	-0.140864	0.653738
C173	C	0.000193	-0.591720	0.084663
C174	C	0.500193	-0.091720	0.584663
H175	H	0.000091	-0.608570	0.199529
H176	H	0.500091	-0.108570	0.699529
H177	H	0.085858	-0.675213	0.156452
H178	H	0.585858	-0.175213	0.656452
H179	H	-0.085429	-0.675197	0.156368
H180	H	0.414571	-0.175197	0.656368
H181	H	0.085767	-0.557342	0.081987
H182	H	0.585767	-0.057342	0.581987
H183	H	-0.085519	-0.557417	0.081978
H184	H	0.414481	-0.057417	0.581978
H185	H	0.000390	-0.937375	0.265162
H186	H	0.500390	-0.437375	0.765162
H187	H	0.130474	-0.909169	0.353560
H188	H	0.630474	-0.409169	0.853560
O189	O	0.141922	-0.914683	0.491714
O190	O	0.641922	-0.414683	0.991714
C191	C	0.306352	-0.931106	0.575867
C192	C	0.806352	-0.431106	1.075867
C193	C	0.227377	-0.878370	0.528890
C194	C	0.727377	-0.378370	1.028890
H195	H	0.375444	-0.901768	0.605946
H196	H	0.875444	-0.401768	1.105946
H197	H	0.357695	-0.966322	0.542195
H198	H	0.857695	-0.466322	1.042195
H199	H	0.244313	-0.964277	0.614275
H200	H	0.744313	-0.464277	1.114275
H201	H	0.289327	-0.845153	0.490474
H202	H	0.789327	-0.345153	0.990474
H203	H	0.176022	-0.843203	0.562605
H204	H	0.676022	-0.343203	1.062605
H205	H	0.000374	-0.701123	0.681288
H206	H	0.500374	-0.201123	1.181288
O207	O	0.000285	-0.693124	0.542927
O208	O	0.500285	-0.193124	1.042927
C209	C	0.000305	-0.567435	0.533753
C210	C	0.500305	-0.067435	1.033753
C211	C	0.000374	-0.636511	0.582895
C212	C	0.500374	-0.136511	1.082895
H213	H	0.000404	-0.521645	0.566047
H214	H	0.500404	-0.021645	1.066047
H215	H	-0.085364	-0.564716	0.499436
H216	H	0.414636	-0.064716	0.999436
H217	H	0.085923	-0.564809	0.499386
H218	H	0.585923	-0.064809	0.999386
H219	H	-0.085186	-0.639183	0.617306
H220	H	0.414814	-0.139183	1.117306
H221	H	0.086100	-0.639201	0.617164
H222	H	0.586100	-0.139201	1.117164
O223	O	-0.141052	-0.723491	0.466014
O224	O	0.358948	-0.223491	0.966014
C225	C	-0.283376	-0.627417	0.445503
C226	C	0.216624	-0.127417	0.945503
C227	C	-0.204483	-0.681383	0.412831
C228	C	0.295517	-0.181383	0.912831
H229	H	-0.334701	-0.593368	0.402521
H230	H	0.165299	-0.093368	0.902521
H231	H	-0.221400	-0.593220	0.474881
H232	H	0.278600	-0.093220	0.974881
H233	H	-0.352503	-0.655749	0.483307
H234	H	0.147497	-0.155749	0.983307
H235	H	-0.135348	-0.653109	0.374996
H236	H	0.364652	-0.153109	0.874996
H237	H	-0.266536	-0.715578	0.383496
H238	H	0.233464	-0.215578	0.883496
H239	H	0.000308	-0.709599	0.102967
H240	H	0.500308	-0.209599	0.602967
