data_functionalizedCrystal
_audit_creation_method	'MofGen! by Chris Wilmer'
_symmetry_space_group_name_H-M	'P1'
_symmetry_Int_Tables_number	1
_symmetry_cell_setting	triclinic
loop_
_symmetry_equiv_pos_as_xyz
  x,y,z
_cell_length_a	29.839131
_cell_length_b	21.395364
_cell_length_c	21.395355
_cell_angle_alpha	90.024552
_cell_angle_beta	90.020172
_cell_angle_gamma	90.056371
loop_
_atom_site_label
_atom_site_type_symbol
_atom_site_fract_x
_atom_site_fract_y
_atom_site_fract_z
Zn1	Zn	-0.178726	0.957813	0.354254
Zn2	Zn	0.321274	1.457813	0.854254
Zn3	Zn	-0.253841	0.957696	0.249474
Zn4	Zn	0.246159	1.457696	0.749474
Zn5	Zn	-0.178746	0.853028	0.249491
Zn6	Zn	0.321254	1.353028	0.749491
Zn7	Zn	-0.253849	0.852977	0.354214
Zn8	Zn	0.246151	1.352977	0.854214
O9	O	-0.216291	0.905378	0.301858
O10	O	0.283709	1.405378	0.801858
O11	O	-0.188679	1.045475	0.340365
O12	O	0.311321	1.545475	0.840365
O13	O	-0.243885	0.943783	0.161798
O14	O	0.256115	1.443783	0.661798
O15	O	-0.115876	0.866998	0.263412
O16	O	0.384124	1.366998	0.763412
O17	O	-0.243866	1.045389	0.263383
O18	O	0.256134	1.545389	0.763383
O19	O	-0.115862	0.943983	0.340381
O20	O	0.384138	1.443983	0.840381
O21	O	-0.188712	0.866884	0.161811
O22	O	0.311288	1.366884	0.661811
O23	O	-0.188720	0.765343	0.263373
O24	O	0.311280	1.265343	0.763373
O25	O	-0.243879	0.866912	0.441897
O26	O	0.256121	1.366912	0.941897
O27	O	-0.243898	0.765306	0.340313
O28	O	0.256102	1.265306	0.840313
O29	O	-0.188687	0.943934	0.441927
O30	O	0.311313	1.443934	0.941927
O31	O	-0.316710	0.943734	0.263344
O32	O	0.183290	1.443734	0.763344
O33	O	-0.316716	0.866798	0.340296
O34	O	0.183284	1.366798	0.840296
C35	C	-0.216313	0.742591	0.301841
C36	C	0.283687	1.242591	0.801841
C37	C	-0.216333	0.672949	0.301848
C38	C	0.283667	1.172949	0.801848
C39	C	-0.187644	0.640303	0.341994
C40	C	0.312356	1.140303	0.841994
C41	C	-0.187632	0.574868	0.341997
C42	C	0.312368	1.074868	0.841997
C43	C	-0.216317	0.542081	0.301859
C44	C	0.283683	1.042081	0.801859
C45	C	-0.245008	0.574735	0.261705
C46	C	0.254992	1.074735	0.761705
C47	C	-0.245016	0.640169	0.261699
C48	C	0.254984	1.140169	0.761699
C49	C	-0.256775	0.438346	0.296820
C50	C	0.243225	0.938346	0.796820
C51	C	-0.256768	0.372913	0.296830
C52	C	0.243232	0.872913	0.796830
C53	C	-0.216292	0.340260	0.301873
C54	C	0.283708	0.840260	0.801873
C55	C	-0.175823	0.373048	0.306919
C56	C	0.324177	0.873048	0.806919
C57	C	-0.175831	0.438483	0.306914
C58	C	0.324169	0.938483	0.806914
C59	C	-0.216311	0.471129	0.301861
C60	C	0.283689	0.971129	0.801861
C61	C	-0.187588	0.236662	0.342024
C62	C	0.312412	0.736662	0.842024
C63	C	-0.187575	0.171225	0.342022
C64	C	0.312425	0.671225	0.842022
C65	C	-0.244955	0.171093	0.261734
C66	C	0.255045	0.671093	0.761734
C67	C	-0.244964	0.236529	0.261733
C68	C	0.255036	0.736529	0.761733
C69	C	-0.216281	0.269309	0.301881
C70	C	0.283719	0.769309	0.801881
C71	C	-0.333013	0.905265	0.301827
C72	C	0.166987	1.405265	0.801827
C73	C	-0.382948	0.905274	0.301835
C74	C	0.117052	1.405274	0.801835
C75	C	-0.692575	0.945512	0.261848
C76	C	-0.192575	1.445512	0.761848
C77	C	-0.880248	0.945589	0.261872
C78	C	-0.380248	1.445589	0.761872
O79	O	-0.904500	0.979711	0.227850
O80	O	-0.404500	1.479711	0.727850
N81	N	-0.903733	0.905508	0.301905
N82	N	-0.403733	1.405508	0.801905
C83	C	-0.880296	0.865408	0.341939
C84	C	-0.380296	1.365408	0.841939
O85	O	-0.904577	0.831323	0.375994
O86	O	-0.404577	1.331323	0.875994
C87	C	-0.692624	0.865334	0.341917
C88	C	-0.192624	1.365334	0.841917
C89	C	-0.669142	0.905413	0.301876
C90	C	-0.169142	1.405413	0.801876
C91	C	-0.669093	0.985588	0.221811
C92	C	-0.169093	1.485588	0.721811
C93	C	-0.622178	0.985566	0.221803
C94	C	-0.122178	1.485566	0.721803
C95	C	-0.598744	0.945467	0.261832
C96	C	-0.098744	1.445467	0.761832
C97	C	-0.622226	0.905391	0.301868
C98	C	-0.122226	1.405391	0.801868
C99	C	-0.669188	0.825238	0.381953
C100	C	-0.169188	1.325238	0.881953
C101	C	-0.622267	0.825224	0.381945
C102	C	-0.122267	1.325224	0.881945
C103	C	-0.598785	0.865303	0.341904
C104	C	-0.098785	1.365303	0.841904
C105	C	-0.551878	0.865271	0.341889
C106	C	-0.051878	1.365271	0.841889
N107	N	-0.528393	0.905351	0.301856
N108	N	-0.028393	1.405351	0.801856
C109	C	-0.551827	0.945450	0.261827
C110	C	-0.051827	1.445450	0.761827
C111	C	-0.978827	0.865449	0.341946
C112	C	-0.478827	1.365449	0.841946
C113	C	-1.025744	0.865466	0.341951
C114	C	-0.525744	1.365466	0.841951
C115	C	-1.025694	0.945648	0.261885
C116	C	-0.525694	1.445648	0.761885
C117	C	-0.978775	0.945627	0.261878
C118	C	-0.478775	1.445627	0.761878
C119	C	-0.955342	0.905530	0.301913
C120	C	-0.455342	1.405530	0.801913
C121	C	-0.453301	0.945400	0.261813
C122	C	0.046699	1.445400	0.761813
C123	C	-0.406381	0.945372	0.261806
C124	C	0.093619	1.445372	0.761806
C125	C	-0.406436	0.865193	0.341874
C126	C	0.093564	1.365193	0.841874
C127	C	-0.453352	0.865218	0.341878
C128	C	0.046648	1.365218	0.841878
C129	C	-0.476783	0.905326	0.301845
C130	C	0.023217	1.405326	0.801845
O131	O	-0.527597	0.831172	0.375898
O132	O	-0.027597	1.331172	0.875898
O133	O	-0.527537	0.979540	0.227786
O134	O	-0.027537	1.479540	0.727786
C135	C	-0.739491	0.945534	0.261856
C136	C	-0.239491	1.445534	0.761856
C137	C	-0.762973	0.905458	0.301893
C138	C	-0.262973	1.405458	0.801893
C139	C	-0.739539	0.865359	0.341921
C140	C	-0.239539	1.365359	0.841921
C141	C	-0.809891	0.905475	0.301897
C142	C	-0.309891	1.405475	0.801897
C143	C	-0.833324	0.945574	0.261869
C144	C	-0.333324	1.445574	0.761869
C145	C	-0.809840	0.985654	0.221835
C146	C	-0.309840	1.485654	0.721835
C147	C	-0.762924	0.985632	0.221827
C148	C	-0.262924	1.485632	0.721827
C149	C	-0.763024	0.825278	0.381955
C150	C	-0.263024	1.325278	0.881955
C151	C	-0.809939	0.825303	0.381959
C152	C	-0.309939	1.325303	0.881959
C153	C	-0.833373	0.865402	0.341930
C154	C	-0.333373	1.365402	0.841930
C155	C	-0.099112	0.905509	0.301903
C156	C	0.400888	1.405509	0.801903
C157	C	-0.049178	0.905565	0.301922
C158	C	0.450822	1.405565	0.801922
C159	C	-0.216269	1.068802	0.301876
C160	C	0.283731	1.568802	0.801876
C161	C	-0.216260	1.138443	0.301884
C162	C	0.283740	1.638443	0.801884
C163	C	-0.216282	0.905430	0.465282
C164	C	0.283718	1.405430	0.965282
C165	C	-0.216278	0.905452	0.534923
C166	C	0.283722	1.405452	1.034923
C167	C	-0.216267	0.905362	0.139071
C168	C	0.283733	1.405362	0.639071
C169	C	-0.216145	0.905462	0.069430
C170	C	0.283855	1.405462	0.569430
C171	C	-0.187538	0.945556	0.567652
C172	C	0.312462	1.445556	1.067652
C173	C	-0.187518	0.945555	0.633088
C174	C	0.312482	1.445555	1.133088
C175	C	-0.216247	0.905457	0.665791
C176	C	0.283753	1.405457	1.165791
C177	C	-0.244989	0.865346	0.633054
C178	C	0.255011	1.365346	1.133054
C179	C	-0.245005	0.865343	0.567620
C180	C	0.254995	1.365343	1.067620
C181	C	-0.256699	0.900471	0.769455
C182	C	0.243301	1.400471	1.269455
C183	C	-0.256685	0.900478	0.834888
C184	C	0.243315	1.400478	1.334888
C185	C	-0.216200	0.905461	0.867612
C186	C	0.283800	1.405461	1.367612
C187	C	-0.175728	0.910451	0.834895
C188	C	0.324272	1.410451	1.334895
C189	C	-0.175743	0.910449	0.769461
C190	C	0.324257	1.410449	1.269461
C191	C	-0.216234	0.905455	0.736744
C192	C	0.283766	1.405455	1.236744
C193	C	-0.187436	0.945566	0.971294
C194	C	0.312564	1.445566	1.471294
C195	C	-0.187416	0.945561	1.036731
C196	C	0.312584	1.445561	1.536731
C197	C	-0.244891	0.865355	1.036696
C198	C	0.255109	1.365355	1.536696
C199	C	-0.244907	0.865357	0.971260
C200	C	0.255093	1.365357	1.471260
C201	C	-0.216180	0.905466	0.938563
C202	C	0.283820	1.405466	1.438563
H203	H	-0.289720	0.346222	0.292724
H204	H	0.210280	0.846222	0.792724
F205	F	-0.157116	0.675187	0.384723
F206	F	0.342884	1.175187	0.884723
H207	H	-0.164211	0.144646	0.374713
H208	H	0.335789	0.644646	0.874713
F209	F	-0.156962	0.988241	0.532858
F210	F	0.343038	1.488241	1.032858
H211	H	-0.268408	0.832683	0.540972
H212	H	0.231592	1.332683	1.040972
H213	H	-0.603190	0.792572	0.414548
H214	H	-0.103190	1.292572	0.914548
F215	F	-0.275498	0.822674	0.936426
F216	F	0.224502	1.322674	1.436426
F217	F	-0.478344	0.822550	0.384482
F218	F	0.021656	1.322550	0.884482
H219	H	-0.603062	1.018203	0.189201
H220	H	-0.103062	1.518203	0.689201
F221	F	-0.275481	0.136203	0.219013
F222	F	0.224519	0.636203	0.719013
F223	F	-0.299793	0.895181	0.734634
F224	F	0.200207	1.395181	1.234634
H225	H	-0.268327	0.263109	0.229044
H226	H	0.231673	0.763109	0.729044
F227	F	-0.275463	0.822674	1.071497
F228	F	0.224537	1.322674	1.571497
H229	H	-0.289737	0.464927	0.292713
H230	H	0.210263	0.964927	0.792713
F231	F	-0.737939	1.028292	0.179212
F232	F	-0.237939	1.528292	0.679212
H233	H	-0.268363	0.548036	0.229025
H234	H	0.231637	1.048036	0.729025
H235	H	-0.164230	0.263353	0.374712
H236	H	0.335770	0.763353	0.874712
H237	H	-0.289639	0.896418	0.861521
H238	H	0.210361	1.396418	1.361521
H239	H	-0.164043	0.978222	0.944671
H240	H	0.335957	1.478222	1.444671
H241	H	-0.142761	0.914510	0.861537
H242	H	0.357239	1.414510	1.361537
F243	F	-0.275550	0.674914	0.218967
F244	F	0.224450	1.174914	0.718967
F245	F	-0.381393	0.988032	0.219187
F246	F	0.118607	1.488032	0.719187
F247	F	-0.275563	0.822669	0.667860
F248	F	0.224437	1.322669	1.167860
F249	F	-0.156921	0.988231	0.667928
F250	F	0.343079	1.488231	1.167928
H251	H	-0.164268	0.548282	0.374688
H252	H	0.335732	1.048282	0.874688
H253	H	-0.142864	0.346464	0.311026
H254	H	0.357136	0.846464	0.811026
F255	F	-0.132761	0.473376	0.312282
F256	F	0.367239	0.973376	0.812282
F257	F	-0.694169	0.782585	0.424575
F258	F	-0.194169	1.282585	0.924575
H259	H	-0.828928	1.018302	0.189241
H260	H	-0.328928	1.518302	0.689241
H261	H	-1.044781	0.978298	0.229292
H262	H	-0.544781	1.478298	0.729292
F263	F	-0.381488	0.822521	0.384475
F264	F	0.118512	1.322521	0.884475
F265	F	-1.050731	0.822801	0.384560
F266	F	-0.550731	1.322801	0.884560
F267	F	-0.478232	0.988088	0.219205
F268	F	0.021768	1.488088	0.719205
H269	H	-0.688168	1.018244	0.189215
H270	H	-0.188168	1.518244	0.689215
H271	H	-0.829054	0.792660	0.414564
H272	H	-0.329054	1.292660	0.914564
H273	H	-0.959659	0.978263	0.229274
H274	H	-0.459659	1.478263	0.729274
H275	H	-0.959751	0.832795	0.374548
H276	H	-0.459751	1.332795	0.874548
F277	F	-0.738090	0.782598	0.424562
F278	F	-0.238090	1.282598	0.924562
H279	H	-0.142790	0.914510	0.742825
H280	H	0.357210	1.414510	1.242825
F281	F	-0.156830	0.988254	1.071564
F282	F	0.343170	1.488254	1.571564
