data_functionalizedCrystal
_audit_creation_method	'MofGen! by Chris Wilmer'
_symmetry_space_group_name_H-M	'P1'
_symmetry_Int_Tables_number	1
_symmetry_cell_setting	triclinic
loop_
_symmetry_equiv_pos_as_xyz
  x,y,z
_cell_length_a	12.594517
_cell_length_b	12.594516
_cell_length_c	16.120297
_cell_angle_alpha	87.123207
_cell_angle_beta	87.112004
_cell_angle_gamma	90.014059
loop_
_atom_site_label
_atom_site_type_symbol
_atom_site_fract_x
_atom_site_fract_y
_atom_site_fract_z
Zn1	Zn	1.596736	-0.454388	0.471204
Zn2	Zn	1.930069	-0.121055	0.804538
Zn3	Zn	2.263403	0.212279	1.137871
Zn4	Zn	1.605648	-0.623357	0.331803
Zn5	Zn	1.938981	-0.290024	0.665136
Zn6	Zn	2.272315	0.043310	0.998469
Zn7	Zn	1.427766	-0.445382	0.331829
Zn8	Zn	1.761099	-0.112049	0.665163
Zn9	Zn	2.094432	0.221285	0.998496
Zn10	Zn	1.418716	-0.632311	0.471193
Zn11	Zn	1.752050	-0.298978	0.804526
Zn12	Zn	2.085383	0.034355	1.137860
O13	O	1.512216	-0.538860	0.401507
O14	O	1.845550	-0.205526	0.734841
O15	O	2.178883	0.127807	1.068174
O16	O	1.746864	-0.476824	0.452706
O17	O	2.080198	-0.143491	0.786039
O18	O	2.413531	0.189843	1.119372
O19	O	1.589568	-0.592232	0.215142
O20	O	1.922902	-0.258898	0.548475
O21	O	2.256235	0.074435	0.881808
O22	O	1.450238	-0.297632	0.350334
O23	O	1.783571	0.035701	0.683667
O24	O	2.116904	0.369035	1.017000
O25	O	1.753412	-0.600965	0.350288
O26	O	2.086745	-0.267631	0.683621
O27	O	2.420079	0.065702	1.016955
O28	O	1.574379	-0.304249	0.452732
O29	O	1.907713	0.029085	0.786065
O30	O	2.241046	0.362418	1.119398
O31	O	1.458879	-0.461474	0.215162
O32	O	1.792213	-0.128141	0.548495
O33	O	2.125546	0.205192	0.881828
O34	O	1.277619	-0.470157	0.350323
O35	O	1.610952	-0.136824	0.683656
O36	O	1.944286	0.196510	1.016990
O37	O	1.434814	-0.616226	0.587859
O38	O	1.768147	-0.282893	0.921192
O39	O	2.101481	0.050441	1.254525
O40	O	1.270970	-0.607493	0.452713
O41	O	1.604304	-0.274160	0.786046
O42	O	1.937637	0.059173	1.119379
O43	O	1.565604	-0.485507	0.587867
O44	O	1.898938	-0.152173	0.921200
O45	O	2.232271	0.181160	1.254534
O46	O	1.580793	-0.773490	0.350277
O47	O	1.914127	-0.440156	0.683610
O48	O	2.247460	-0.106823	1.016944
O49	O	1.443456	-0.780068	0.452687
O50	O	1.776789	-0.446735	0.786020
O51	O	2.110122	-0.113402	1.119353
C52	C	1.235675	-0.538820	0.401520
C53	C	1.569008	-0.205487	0.734853
C54	C	1.902341	0.127846	1.068187
C55	C	1.117368	-0.538830	0.401545
C56	C	1.450701	-0.205497	0.734879
C57	C	1.784034	0.127836	1.068212
C58	C	1.044536	-0.613660	0.457127
C59	C	1.377869	-0.280326	0.790461
C60	C	1.711203	0.053007	1.123794
C61	C	0.972403	-0.517944	0.477630
C62	C	1.305737	-0.184610	0.810964
C63	C	1.639070	0.148723	1.144297
C64	C	0.978703	-0.634625	0.381024
C65	C	1.312036	-0.301292	0.714357
C66	C	1.645369	0.032041	1.047690
C67	C	1.046791	-0.443065	0.422088
C68	C	1.380124	-0.109732	0.755421
C69	C	1.713457	0.223602	1.088755
C70	C	1.053098	-0.559810	0.325446
C71	C	1.386432	-0.226477	0.658779
C72	C	1.719765	0.106857	0.992113
C73	C	0.980999	-0.464025	0.345920
C74	C	1.314333	-0.130692	0.679253
C75	C	1.647666	0.202642	1.012587
C76	C	1.512137	-0.815400	0.401496
C77	C	1.845471	-0.482067	0.734829
C78	C	2.178804	-0.148733	1.068163
C79	C	1.512199	-0.933707	0.401519
C80	C	1.845532	-0.600374	0.734852
C81	C	2.178866	-0.267040	1.068186
C82	C	1.437561	-1.077339	0.457191
C83	C	1.770894	-0.744005	0.790525
C84	C	2.104227	-0.410672	1.123858
C85	C	1.533272	-1.007760	0.477633
C86	C	1.866605	-0.674427	0.810966
C87	C	2.199938	-0.341093	1.144299
C88	C	1.416495	-1.001716	0.381114
C89	C	1.749828	-0.668383	0.714448
C90	C	2.083162	-0.335049	1.047781
C91	C	1.608131	-1.074918	0.422031
C92	C	1.941464	-0.741585	0.755364
C93	C	2.274797	-0.408252	1.088697
C94	C	1.491291	-1.068878	0.325477
C95	C	1.824624	-0.735545	0.658811
C96	C	2.157958	-0.402212	0.992144
C97	C	1.587071	-0.999330	0.345890
C98	C	1.920404	-0.665997	0.679223
C99	C	2.253738	-0.332663	1.012556
C100	C	1.789838	-0.538900	0.401495
C101	C	2.123171	-0.205567	0.734828
C102	C	2.456505	0.127767	1.068162
C103	C	1.908144	-0.538917	0.401490
C104	C	2.241477	-0.205584	0.734823
C105	C	2.574811	0.127749	1.068157
C106	C	1.498206	-0.552870	0.618958
C107	C	1.831539	-0.219536	0.952292
C108	C	2.164872	0.113797	1.285625
C109	C	1.492235	-0.558840	0.711623
C110	C	1.825568	-0.225507	1.044957
C111	C	2.158902	0.107827	1.378290
C112	C	1.512324	-0.261241	0.401537
C113	C	1.845657	0.072093	0.734870
C114	C	2.178991	0.405426	1.068204
C115	C	1.512370	-0.142936	0.401550
C116	C	1.845703	0.190397	0.734883
C117	C	2.179036	0.523731	1.068216
C118	C	1.526234	-0.524827	0.184902
C119	C	1.859567	-0.191494	0.518235
C120	C	2.192901	0.141839	0.851569
C121	C	1.532411	-0.518557	0.092238
C122	C	1.865744	-0.185224	0.425571
C123	C	2.199078	0.148109	0.758904
C124	C	1.481295	-0.569717	0.881283
C125	C	1.814628	-0.236383	1.214616
C126	C	2.147962	0.096950	1.547949
C127	C	1.543348	-0.507684	0.922584
C128	C	1.876681	-0.174351	1.255917
C129	C	2.210014	0.158983	1.589250
C130	C	1.537261	-0.513736	1.016988
C131	C	1.870594	-0.180402	1.350321
C132	C	2.203927	0.152931	1.683655
C133	C	1.487381	-0.563666	0.786870
C134	C	1.820714	-0.230333	1.120203
C135	C	2.154047	0.103000	1.453536
H136	H	0.937121	-0.500228	0.541962
H137	H	1.270454	-0.166895	0.875296
H138	H	1.603788	0.166438	1.208629
H139	H	1.650331	-0.965392	0.298822
H140	H	1.983664	-0.632059	0.632156
H141	H	2.316998	-0.298725	0.965489
H142	H	1.689158	-1.106906	0.439376
H143	H	2.022491	-0.773572	0.772709
H144	H	2.355824	-0.440239	1.106043
H145	H	1.601043	-0.450030	0.887042
H146	H	1.934376	-0.116696	1.220376
H147	H	2.267709	0.216637	1.553709
Br148	Br	1.332358	-1.134239	0.535695
Br149	Br	1.665691	-0.800906	0.869028
Br150	Br	1.999025	-0.467572	1.202361
H151	H	1.423604	-0.627366	0.916822
H152	H	1.756938	-0.294033	1.250155
H153	H	2.090271	0.039301	1.583488
Br154	Br	1.461637	-1.113936	0.218302
Br155	Br	1.794970	-0.780602	0.551635
Br156	Br	2.128303	-0.447269	0.884968
Br157	Br	1.091229	-0.718951	0.535565
Br158	Br	1.424562	-0.385618	0.868898
Br159	Br	1.757895	-0.052285	1.202231
H160	H	0.953181	-0.400712	0.298893
H161	H	1.286514	-0.067379	0.632226
H162	H	1.619848	0.265955	0.965559
Br163	Br	1.096483	-0.308065	0.451100
Br164	Br	1.429816	0.025269	0.784433
Br165	Br	1.763150	0.358602	1.117767
Br166	Br	1.111902	-0.589362	0.218233
Br167	Br	1.445236	-0.256029	0.551566
Br168	Br	1.778569	0.077304	0.884900
H169	H	1.551035	-0.980754	0.541953
H170	H	1.884368	-0.647420	0.875286
H171	H	2.217702	-0.314087	1.208619
Br172	Br	1.281479	-0.948186	0.352328
Br173	Br	1.614812	-0.614852	0.685661
Br174	Br	1.948146	-0.281519	1.018994
Br175	Br	0.928771	-0.769588	0.352132
Br176	Br	1.262104	-0.436255	0.685465
Br177	Br	1.595438	-0.102922	1.018799
