data_functionalizedCrystal
_audit_creation_method	'MofGen! by Chris Wilmer'
_symmetry_space_group_name_H-M	'P1'
_symmetry_Int_Tables_number	1
_symmetry_cell_setting	triclinic
loop_
_symmetry_equiv_pos_as_xyz
  x,y,z
_cell_length_a	11.792241
_cell_length_b	10.654550
_cell_length_c	9.730223
_cell_angle_alpha	89.999807
_cell_angle_beta	90.003985
_cell_angle_gamma	84.339159
loop_
_atom_site_label
_atom_site_type_symbol
_atom_site_fract_x
_atom_site_fract_y
_atom_site_fract_z
O1	O	1.507300	0.172130	-0.114153
O2	O	1.177000	0.189870	-0.114184
O3	O	1.349744	-0.001761	-0.114163
O4	O	1.334556	0.363761	-0.114174
O5	O	1.349742	-0.001756	0.114417
O6	O	1.176998	0.189875	0.114396
O7	O	1.507298	0.172135	0.114427
Zn8	Zn	1.342148	0.181006	0.150703
Zn9	Zn	1.342150	0.180999	-0.150460
O10	O	1.334554	0.363766	0.114406
C11	C	1.348628	-0.048553	0.000126
C12	C	1.345291	-0.187987	0.000120
C13	C	1.134705	0.188758	0.000102
C14	C	1.008684	0.185423	0.000090
C15	C	1.447000	-0.267760	0.000134
C16	C	1.443858	-0.398772	0.000124
C17	C	1.237290	-0.370224	0.000092
C18	C	1.240433	-0.239215	0.000093
C19	C	1.566261	-0.284243	0.000159
C20	C	1.563120	-0.415255	0.000149
C21	C	0.777958	0.179290	0.000129
C22	C	0.906351	0.182697	0.000107
C23	C	1.549592	0.173247	0.000138
C24	C	1.675614	0.176582	0.000141
C25	C	1.335670	0.410558	0.000114
C26	C	1.339006	0.549992	0.000111
N27	N	1.342154	0.181009	0.356240
N28	N	1.342153	0.180986	-0.355997
C29	C	1.418665	0.096184	0.428175
C30	C	1.418662	0.096169	0.572058
C31	C	1.265633	0.265815	0.572057
C32	C	1.265632	0.265823	0.428177
C33	C	1.507018	-0.001756	0.428177
C34	C	1.507015	-0.001772	0.572060
H35	H	1.151917	-0.411951	0.000069
C36	C	1.547013	-0.534238	0.207594
C37	C	1.623755	-0.471803	0.129301
H38	H	1.584445	-0.569151	0.287322
H39	H	1.484626	-0.476066	0.234136
H40	H	1.519938	-0.599857	0.154424
H41	H	1.650823	-0.406178	0.182468
H42	H	1.686163	-0.529981	0.102761
H43	H	1.599163	-0.461002	-0.098542
H44	H	1.203321	0.334884	0.369608
C45	C	1.111385	0.291892	0.733856
C46	C	1.181529	0.359042	0.651141
H47	H	1.059468	0.349451	0.782683
H48	H	1.070154	0.239327	0.677715
H49	H	1.156965	0.241374	0.797285
H50	H	1.135949	0.409554	0.587705
H51	H	1.222763	0.411630	0.707287
H52	H	1.589425	0.028599	0.383558
C53	C	1.664260	-0.351877	-0.207289
C54	C	1.629222	-0.244777	-0.128966
H55	H	1.703120	-0.327508	-0.287006
H56	H	1.713928	-0.408280	-0.154139
H57	H	1.599487	-0.392465	-0.233858
H58	H	1.693996	-0.204193	-0.102388
H59	H	1.579551	-0.188353	-0.182126
H60	H	1.487639	-0.098234	0.389124
C61	C	1.445418	-0.205632	0.525120
C62	C	1.469840	-0.124831	0.632304
H63	H	1.422486	-0.281608	0.562317
H64	H	1.385693	-0.165874	0.470196
H65	H	1.511523	-0.224230	0.470168
H66	H	1.403732	-0.106225	0.687250
H67	H	1.529569	-0.164597	0.687250
H68	H	1.594237	0.019500	0.611119
H69	H	1.157611	-0.174267	0.000062
H70	H	1.604238	-0.248722	0.098859
