data_functionalizedCrystal
_audit_creation_method	'MofGen! by Chris Wilmer'
_symmetry_space_group_name_H-M	'P1'
_symmetry_Int_Tables_number	1
_symmetry_cell_setting	triclinic
loop_
_symmetry_equiv_pos_as_xyz
  x,y,z
_cell_length_a	21.295417
_cell_length_b	21.395362
_cell_length_c	21.395355
_cell_angle_alpha	90.048039
_cell_angle_beta	89.978549
_cell_angle_gamma	89.951233
loop_
_atom_site_label
_atom_site_type_symbol
_atom_site_fract_x
_atom_site_fract_y
_atom_site_fract_z
Zn1	Zn	-0.250375	-0.957860	-0.354641
Zn2	Zn	0.082958	-0.624527	-0.021308
Zn3	Zn	0.416291	-0.291194	0.312025
Zn4	Zn	-0.355627	-0.957763	-0.249859
Zn5	Zn	-0.022293	-0.624430	0.083475
Zn6	Zn	0.311040	-0.291097	0.416808
Zn7	Zn	-0.250409	-0.853075	-0.249835
Zn8	Zn	0.082924	-0.519742	0.083498
Zn9	Zn	0.416258	-0.186409	0.416832
Zn10	Zn	-0.355644	-0.853045	-0.354556
Zn11	Zn	-0.022311	-0.519712	-0.021222
Zn12	Zn	0.311023	-0.186378	0.312111
O13	O	-0.303014	-0.905436	-0.302223
O14	O	0.030320	-0.572103	0.031111
O15	O	0.363653	-0.238769	0.364444
O16	O	-0.264316	-1.045525	-0.340787
O17	O	0.069018	-0.712192	-0.007454
O18	O	0.402351	-0.378859	0.325879
O19	O	-0.341676	-0.943848	-0.162177
O20	O	-0.008343	-0.610515	0.171156
O21	O	0.324990	-0.277182	0.504489
O22	O	-0.162315	-0.867029	-0.263764
O23	O	0.171018	-0.533695	0.069569
O24	O	0.504352	-0.200362	0.402903
O25	O	-0.341644	-1.045454	-0.263804
O26	O	-0.008310	-0.712121	0.069530
O27	O	0.325023	-0.378787	0.402863
O28	O	-0.162290	-0.944014	-0.340765
O29	O	0.171043	-0.610681	-0.007431
O30	O	0.504376	-0.277347	0.325902
O31	O	-0.264373	-0.866935	-0.162160
O32	O	0.068960	-0.533601	0.171173
O33	O	0.402293	-0.200268	0.504506
O34	O	-0.264390	-0.765393	-0.263681
O35	O	0.068943	-0.432060	0.069652
O36	O	0.402277	-0.098727	0.402986
O37	O	-0.341673	-0.866977	-0.442245
O38	O	-0.008340	-0.533644	-0.108912
O39	O	0.324994	-0.200310	0.224422
O40	O	-0.341706	-0.765371	-0.340619
O41	O	-0.008372	-0.432038	-0.007285
O42	O	0.324961	-0.098704	0.326048
O43	O	-0.264333	-0.943984	-0.442308
O44	O	0.069001	-0.610651	-0.108975
O45	O	0.402334	-0.277318	0.224359
O46	O	-0.443718	-0.943819	-0.263721
O47	O	-0.110385	-0.610485	0.069613
O48	O	0.222948	-0.277152	0.402946
O49	O	-0.443731	-0.866883	-0.340641
O50	O	-0.110398	-0.533549	-0.007308
O51	O	0.222935	-0.200216	0.326025
C52	C	-0.303054	-0.742648	-0.302138
C53	C	0.030279	-0.409315	0.031195
C54	C	0.363613	-0.075982	0.364528
C55	C	-0.303086	-0.673007	-0.302117
C56	C	0.030247	-0.339674	0.031216
C57	C	0.363580	-0.006340	0.364550
C58	C	-0.466565	-0.905354	-0.302188
C59	C	-0.133232	-0.572021	0.031145
C60	C	0.200101	-0.238687	0.364479
C61	C	-0.536534	-0.905376	-0.302194
C62	C	-0.203200	-0.572043	0.031139
C63	C	0.130133	-0.238709	0.364473
C64	C	-0.343399	-0.640299	-0.342116
C65	C	-0.010066	-0.306965	-0.008783
C66	C	0.323267	0.026368	0.324550
C67	C	-0.343387	-0.574863	-0.342140
C68	C	-0.010053	-0.241530	-0.008806
C69	C	0.323280	0.091803	0.324527
C70	C	-0.303067	-0.542139	-0.302152
C71	C	0.030266	-0.208805	0.031181
C72	C	0.363599	0.124528	0.364514
C73	C	-0.262747	-0.574855	-0.262150
C74	C	0.070587	-0.241522	0.071183
C75	C	0.403920	0.091812	0.404516
C76	C	-0.262756	-0.640289	-0.262133
C77	C	0.070577	-0.306956	0.071201
C78	C	0.403911	0.026377	0.404534
C79	C	-0.298001	-0.438414	-0.245740
C80	C	0.035333	-0.105081	0.087593
C81	C	0.368666	0.228253	0.420927
C82	C	-0.297996	-0.372981	-0.245757
C83	C	0.035338	-0.039648	0.087577
C84	C	0.368671	0.293686	0.420910
C85	C	-0.303035	-0.340318	-0.302207
C86	C	0.030299	-0.006985	0.031126
C87	C	0.363632	0.326349	0.364460
C88	C	-0.308092	-0.373096	-0.358643
C89	C	0.025241	-0.039763	-0.025310
C90	C	0.358575	0.293571	0.308024
C91	C	-0.308102	-0.438530	-0.358625
C92	C	0.025232	-0.105197	-0.025292
C93	C	0.358565	0.228136	0.308041
C94	C	-0.303052	-0.471186	-0.302167
C95	C	0.030281	-0.137853	0.031166
C96	C	0.363614	0.195480	0.364499
C97	C	-0.343336	-0.236657	-0.342235
C98	C	-0.010003	0.096676	-0.008902
C99	C	0.323330	0.430010	0.324432
C100	C	-0.343319	-0.171221	-0.342259
C101	C	-0.009986	0.162113	-0.008926
C102	C	0.323348	0.495446	0.324408
C103	C	-0.262682	-0.171214	-0.262265
C104	C	0.070651	0.162120	0.071069
C105	C	0.403984	0.495453	0.404402
C106	C	-0.262696	-0.236649	-0.262246
C107	C	0.070637	0.096684	0.071088
C108	C	0.403970	0.430018	0.404421
C109	C	-0.303026	-0.269367	-0.302230
C110	C	0.030307	0.063967	0.031103
C111	C	0.363640	0.397300	0.364437
C112	C	-0.569373	-0.945472	-0.262183
C113	C	-0.236039	-0.612139	0.071151
C114	C	0.097294	-0.278806	0.404484
C115	C	-0.635115	-0.945502	-0.262197
C116	C	-0.301782	-0.612168	0.071137
C117	C	0.031552	-0.278835	0.404470
C118	C	-0.668016	-0.905424	-0.302216
C119	C	-0.334683	-0.572090	0.031118
C120	C	-0.001349	-0.238757	0.364451
C121	C	-0.635169	-0.865325	-0.342235
C122	C	-0.301836	-0.531991	-0.008902
C123	C	0.031498	-0.198658	0.324432
C124	C	-0.569428	-0.865301	-0.342224
C125	C	-0.236094	-0.531967	-0.008891
C126	C	0.097239	-0.198634	0.324443
N127	N	-0.771300	-0.850614	-0.306964
N128	N	-0.437967	-0.517280	0.026370
N129	N	-0.104634	-0.183947	0.359703
N130	N	-0.833752	-0.850638	-0.306970
N131	N	-0.500418	-0.517305	0.026363
N132	N	-0.167085	-0.183971	0.359696
C133	C	-0.866091	-0.905494	-0.302252
C134	C	-0.532757	-0.572160	0.031082
C135	C	-0.199424	-0.238827	0.364415
N136	N	-0.833619	-0.960325	-0.297514
N137	N	-0.500286	-0.626992	0.035820
N138	N	-0.166952	-0.293659	0.369153
N139	N	-0.771162	-0.960300	-0.297504
N140	N	-0.437829	-0.626967	0.035829
N141	N	-0.104495	-0.293634	0.369163
C142	C	-0.739301	-0.905445	-0.302232
C143	C	-0.405968	-0.572112	0.031101
C144	C	-0.072635	-0.238779	0.364435
C145	C	-0.970215	-0.945625	-0.262253
C146	C	-0.636882	-0.612292	0.071080
C147	C	-0.303549	-0.278959	0.404413
C148	C	-1.035959	-0.945656	-0.262272
C149	C	-0.702626	-0.612322	0.071062
C150	C	-0.369292	-0.278989	0.404395
C151	C	-1.036012	-0.865473	-0.342307
C152	C	-0.702678	-0.532140	-0.008973
C153	C	-0.369345	-0.198806	0.324360
C154	C	-0.970269	-0.865448	-0.342292
C155	C	-0.636936	-0.532115	-0.008958
C156	C	-0.303602	-0.198781	0.324375
C157	C	-0.937375	-0.905523	-0.302262
C158	C	-0.604042	-0.572190	0.031072
C159	C	-0.270708	-0.238857	0.364405
C160	C	-0.138823	-0.905536	-0.302271
C161	C	0.194510	-0.572202	0.031062
C162	C	0.527843	-0.238869	0.364395
C163	C	-0.068855	-0.905578	-0.302292
C164	C	0.264478	-0.572245	0.031041
C165	C	0.597811	-0.238911	0.364375
C166	C	-0.303001	-0.905488	-0.465646
C167	C	0.030332	-0.572155	-0.132313
C168	C	0.363666	-0.238821	0.201021
C169	C	-0.302996	-0.905510	-0.535287
C170	C	0.030338	-0.572177	-0.201954
C171	C	0.363671	-0.238844	0.131379
C172	C	-0.302984	-0.068859	-0.302290
C173	C	0.030349	0.264474	0.031044
C174	C	0.363682	0.597807	0.364377
C175	C	-0.302999	-0.138501	-0.302272
C176	C	0.030334	0.194833	0.031061
C177	C	0.363668	0.528166	0.364394
C178	C	-0.262723	-0.945606	-0.568034
C179	C	0.070611	-0.612273	-0.234701
C180	C	0.403944	-0.278940	0.098632
C181	C	-0.262696	-0.945605	-0.633470
C182	C	0.070638	-0.612272	-0.300136
C183	C	0.403971	-0.278939	0.033197
C184	C	-0.302953	-0.905515	-0.666156
C185	C	0.030381	-0.572182	-0.332822
C186	C	0.363714	-0.238848	0.000511
C187	C	-0.343228	-0.865411	-0.633401
C188	C	-0.009895	-0.532078	-0.300068
C189	C	0.323438	-0.198745	0.033266
C190	C	-0.343250	-0.865409	-0.567967
C191	C	-0.009917	-0.532075	-0.234633
C192	C	0.323417	-0.198742	0.098700
C193	C	-0.359634	-0.900539	-0.769816
C194	C	-0.026301	-0.567206	-0.436483
C195	C	0.307032	-0.233873	-0.103150
C196	C	-0.359614	-0.900546	-0.835249
C197	C	-0.026281	-0.567213	-0.501916
C198	C	0.307053	-0.233879	-0.168583
C199	C	-0.302886	-0.905519	-0.867977
C200	C	0.030447	-0.572186	-0.534643
C201	C	0.363780	-0.238852	-0.201310
C202	C	-0.246177	-0.910498	-0.835263
C203	C	0.087156	-0.577165	-0.501929
C204	C	0.420490	-0.243831	-0.168596
C205	C	-0.246198	-0.910496	-0.769829
C206	C	0.087135	-0.577162	-0.436495
C207	C	0.420468	-0.243829	-0.103162
C208	C	-0.302934	-0.905513	-0.737108
C209	C	0.030400	-0.572180	-0.403775
C210	C	0.363733	-0.238846	-0.070441
C211	C	-0.262580	-0.945616	-0.971676
C212	C	0.070753	-0.612283	-0.638343
C213	C	0.404086	-0.278950	-0.305009
C214	C	-0.262552	-0.945611	-1.037113
C215	C	0.070781	-0.612278	-0.703779
C216	C	0.404114	-0.278944	-0.370446
C217	C	-0.343091	-0.865420	-1.037043
C218	C	-0.009758	-0.532087	-0.703709
C219	C	0.323576	-0.198753	-0.370376
C220	C	-0.343113	-0.865422	-0.971607
C221	C	-0.009780	-0.532089	-0.638274
C222	C	0.323553	-0.198755	-0.304941
C223	C	-0.302859	-0.905523	-0.938928
C224	C	0.030474	-0.572190	-0.605595
C225	C	0.363808	-0.238857	-0.272261
C226	C	-0.302981	-0.905420	-0.139435
C227	C	0.030352	-0.572087	0.193898
C228	C	0.363686	-0.238754	0.527232
C229	C	-0.302809	-0.905520	-0.069794
C230	C	0.030524	-0.572186	0.263539
C231	C	0.363858	-0.238853	0.596872
H232	H	-0.376238	-0.666933	-0.374676
H233	H	-0.042905	-0.333600	-0.041342
H234	H	0.290428	-0.000267	0.291991
H235	H	-0.542690	-0.832649	-0.374807
H236	H	-0.209356	-0.499316	-0.041474
H237	H	0.123977	-0.165982	0.291860
Br238	Br	-0.925698	-0.811027	-0.396595
Br239	Br	-0.592365	-0.477694	-0.063261
Br240	Br	-0.259032	-0.144361	0.270072
H241	H	-0.542592	-0.978105	-0.229589
H242	H	-0.209259	-0.644772	0.103744
H243	H	0.124075	-0.311439	0.437077
H244	H	-0.661858	-0.978155	-0.229615
H245	H	-0.328525	-0.644822	0.103719
H246	H	0.004809	-0.311488	0.437052
H247	H	-0.661961	-0.832694	-0.374820
H248	H	-0.328628	-0.499360	-0.041486
H249	H	0.004706	-0.166027	0.291847
H250	H	-0.405817	-0.896322	-0.743175
H251	H	-0.072484	-0.562989	-0.409842
H252	H	0.260849	-0.229656	-0.076509
Br253	Br	-0.925569	-1.000009	-0.207926
Br254	Br	-0.592236	-0.666676	0.125407
Br255	Br	-0.258903	-0.333343	0.458740
Br256	Br	-0.169240	-0.917249	-0.725433
Br257	Br	0.164093	-0.583916	-0.392099
Br258	Br	0.497426	-0.250583	-0.058766
Br259	Br	-0.208022	-0.530445	-0.207887
Br260	Br	0.125311	-0.197112	0.125447
Br261	Br	0.458645	0.136222	0.458780
Br262	Br	-0.314930	-0.328777	-0.435260
Br263	Br	0.018404	0.004557	-0.101927
Br264	Br	0.351737	0.337890	0.231406
H265	H	-0.229754	-0.978261	-1.063774
H266	H	0.103580	-0.644928	-0.730441
H267	H	0.436913	-0.311594	-0.397108
Br268	Br	-1.080528	-1.000084	-0.207972
Br269	Br	-0.747195	-0.666750	0.125361
Br270	Br	-0.413861	-0.333417	0.458695
Br271	Br	-0.397719	-0.811003	-1.081395
Br272	Br	-0.064385	-0.477669	-0.748062
Br273	Br	0.268948	-0.144336	-0.414729
Br274	Br	-0.436576	-0.893798	-0.879640
Br275	Br	-0.103242	-0.560464	-0.546307
Br276	Br	0.230091	-0.227131	-0.212973
H277	H	-0.376214	-0.548227	-0.374714
H278	H	-0.042881	-0.214894	-0.041381
H279	H	0.290453	0.118440	0.291953
H280	H	-0.312218	-0.465215	-0.404577
H281	H	0.021116	-0.131882	-0.071244
H282	H	0.354449	0.201451	0.262090
Br283	Br	-0.398066	-0.281064	-0.396500
Br284	Br	-0.064733	0.052270	-0.063167
Br285	Br	0.268601	0.385603	0.270166
Br286	Br	-0.169184	-0.917253	-0.879670
Br287	Br	0.164150	-0.583919	-0.546336
Br288	Br	0.497483	-0.250586	-0.213003
H289	H	-0.376146	-0.144590	-0.374835
H290	H	-0.042812	0.188743	-0.041502
H291	H	0.290521	0.522076	0.291832
Br292	Br	-0.207949	-1.000036	-0.927322
Br293	Br	0.125384	-0.666703	-0.593988
Br294	Br	0.458717	-0.333369	-0.260655
Br295	Br	-1.080656	-0.811087	-0.396626
Br296	Br	-0.747322	-0.477753	-0.063293
Br297	Br	-0.413989	-0.144420	0.270041
H298	H	-0.229944	-0.978259	-0.541431
H299	H	0.103390	-0.644926	-0.208097
H300	H	0.436723	-0.311593	0.125236
H301	H	-0.229851	-0.144570	-0.229709
H302	H	0.103483	0.188763	0.103624
H303	H	0.436816	0.522097	0.436958
H304	H	-0.293882	-0.346298	-0.199803
H305	H	0.039452	-0.012965	0.133530
H306	H	0.372785	0.320368	0.466864
H307	H	-0.229872	-0.263280	-0.229671
H308	H	0.103461	0.070053	0.103662
H309	H	0.436795	0.403386	0.436996
H310	H	-0.293894	-0.465003	-0.199768
H311	H	0.039439	-0.131669	0.133565
H312	H	0.372772	0.201664	0.466899
H313	H	-0.229897	-0.978255	-0.660137
H314	H	0.103436	-0.644922	-0.326804
H315	H	0.436770	-0.311588	0.006529
Br316	Br	-0.397774	-0.811004	-0.927162
Br317	Br	-0.064440	-0.477671	-0.593828
Br318	Br	0.268893	-0.144337	-0.260495
H319	H	-0.376044	-0.832755	-0.541305
H320	H	-0.042711	-0.499421	-0.207971
H321	H	0.290623	-0.166088	0.125362
Br322	Br	-0.208040	-0.684682	-0.207845
Br323	Br	0.125294	-0.351349	0.125488
Br324	Br	0.458627	-0.018016	0.458821
Br325	Br	-0.397859	-0.810998	-0.677759
Br326	Br	-0.064526	-0.477665	-0.344425
Br327	Br	0.268807	-0.144331	-0.011092
