data_functionalizedCrystal
_audit_creation_method	'MofGen! by Chris Wilmer'
_symmetry_space_group_name_H-M	'P1'
_symmetry_Int_Tables_number	1
_symmetry_cell_setting	triclinic
loop_
_symmetry_equiv_pos_as_xyz
  x,y,z
_cell_length_a	17.639617
_cell_length_b	13.897448
_cell_length_c	17.640968
_cell_angle_alpha	101.231639
_cell_angle_beta	109.666032
_cell_angle_gamma	101.203073
loop_
_atom_site_label
_atom_site_type_symbol
_atom_site_fract_x
_atom_site_fract_y
_atom_site_fract_z
Zn1	Zn	1.354378	0.127585	0.721244
Zn2	Zn	1.326422	-0.074626	0.583401
Zn3	Zn	1.188672	0.045839	0.555515
Zn4	Zn	1.216511	-0.074532	0.693283
O5	O	1.271496	0.006067	0.638361
O6	O	1.466016	0.134932	0.726331
O7	O	1.284799	-0.092896	0.464357
O8	O	1.210703	0.191685	0.577531
O9	O	1.445477	-0.013631	0.625058
O10	O	1.332446	0.251742	0.699292
O11	O	1.183595	-0.004390	0.443870
O12	O	1.077019	-0.004299	0.550418
O13	O	1.258150	-0.013471	0.812337
O14	O	1.097472	-0.092735	0.651636
O15	O	1.359440	0.135023	0.832880
O16	O	1.311793	-0.209615	0.597945
O17	O	1.231042	-0.209546	0.678676
C18	C	1.057338	-0.057378	0.594968
C19	C	0.965724	-0.084538	0.576423
C20	C	0.717932	0.212475	0.779444
C21	C	0.631844	0.186925	0.762002
C22	C	0.610448	0.032386	0.656395
C23	C	0.696537	0.057920	0.673831
C24	C	0.750272	0.147966	0.735355
C25	C	0.728877	-0.006588	0.629742
C26	C	0.814958	0.018947	0.647174
C27	C	0.868698	0.108990	0.708694
C28	C	0.836353	0.173501	0.752787
C29	C	0.675138	-0.096630	0.568213
C30	C	0.707479	-0.161139	0.524124
C31	C	0.793562	-0.135608	0.541560
C32	C	0.847303	-0.045564	0.603080
C33	C	0.825907	-0.200119	0.497467
C34	C	0.911988	-0.174584	0.514898
C35	C	0.933384	-0.020029	0.620512
C36	C	1.271431	-0.244573	0.638325
C37	C	1.271484	-0.351767	0.638352
C38	C	1.271581	-0.548021	0.638422
C39	C	1.271525	-0.438811	0.638385
C40	C	1.486490	0.069759	0.681924
C41	C	1.578108	0.096900	0.700488
C42	C	1.315019	0.069905	0.853352
C43	C	1.333566	0.097110	0.944969
C44	C	1.271587	0.257697	0.638420
C45	C	1.271626	0.364926	0.638445
C46	C	1.228190	-0.057440	0.424216
C47	C	1.209803	-0.084325	0.332632
C48	C	1.130914	-0.199982	1.192813
C49	C	1.148359	-0.174403	1.278904
C50	C	1.253823	-0.019789	1.300283
C51	C	1.236384	-0.045353	1.214191
C52	C	1.174929	-0.135452	1.160462
C53	C	1.280400	0.019177	1.181841
C54	C	1.262965	-0.006388	1.095757
C55	C	1.201515	-0.096484	1.042024
C56	C	1.157495	-0.161018	1.074379
C57	C	1.341858	0.109272	1.235572
C58	C	1.385874	0.173802	1.203222
C59	C	1.368435	0.148241	1.117136
C60	C	1.306985	0.058145	1.063403
C61	C	1.412455	0.212774	1.084781
C62	C	1.395020	0.187208	0.998697
C63	C	1.289550	0.032579	0.977319
H64	H	0.977140	0.053293	0.670615
H65	H	1.112512	-0.226958	1.305238
H66	H	0.605043	-0.117402	0.554004
F67	F	1.182963	-0.123697	0.950406
F68	F	0.960313	0.136172	0.727241
F69	F	0.946410	-0.243246	0.467980
F70	F	1.451279	0.269686	1.260412
F71	F	0.597428	0.255595	0.808929
F72	F	1.092080	-0.256906	1.017190
F73	F	0.650280	-0.256967	0.458645
H74	H	1.239488	-0.040771	0.933565
F75	F	1.065500	-0.295870	1.135624
F76	F	1.319228	0.076095	1.357473
H77	H	1.430861	0.239757	0.972358
H78	H	1.356053	0.130082	1.305666
H79	H	1.462497	0.286127	1.128540
H80	H	0.761688	0.285797	0.829547
F81	F	0.893550	0.269334	0.818276
H82	H	0.782142	-0.273429	0.447367
H83	H	0.566684	-0.040927	0.606299
