data_functionalizedCrystal
_audit_creation_method	'MofGen! by Chris Wilmer'
_symmetry_space_group_name_H-M	'P1'
_symmetry_Int_Tables_number	1
_symmetry_cell_setting	triclinic
loop_
_symmetry_equiv_pos_as_xyz
  x,y,z
_cell_length_a	12.827893
_cell_length_b	12.759400
_cell_length_c	12.827885
_cell_angle_alpha	89.970623
_cell_angle_beta	89.980728
_cell_angle_gamma	90.013136
loop_
_atom_site_label
_atom_site_type_symbol
_atom_site_fract_x
_atom_site_fract_y
_atom_site_fract_z
Zn1	Zn	1.597686	-0.418216	-0.590852
Zn2	Zn	1.597587	-0.593932	-0.416113
Zn3	Zn	1.422927	-0.418267	-0.416125
Zn4	Zn	1.422919	-0.593854	-0.590813
O5	O	1.510280	-0.506067	-0.503476
O6	O	1.743909	-0.441537	-0.567683
O7	O	1.574380	-0.570684	-0.269879
O8	O	1.446154	-0.271240	-0.439324
O9	O	1.743836	-0.570634	-0.439304
O10	O	1.574548	-0.271202	-0.567695
O11	O	1.446058	-0.441624	-0.269888
O12	O	1.276690	-0.441548	-0.439287
O13	O	1.446141	-0.570501	-0.737054
O14	O	1.276684	-0.570550	-0.567629
O15	O	1.574541	-0.441461	-0.737083
O16	O	1.574372	-0.740942	-0.439266
O17	O	1.446044	-0.740885	-0.567618
C18	C	1.238770	-0.506047	-0.503456
C19	C	1.122617	-0.506064	-0.503472
C20	C	1.070857	-0.569998	-0.566882
C21	C	0.950806	-0.570017	-0.566900
C22	C	1.510225	-0.779035	-0.503459
C23	C	1.510297	-0.895811	-0.503487
C24	C	1.577119	-0.950574	-0.570385
C25	C	1.577167	-1.060298	-0.570410
C26	C	1.443570	-1.060487	-0.436632
C27	C	1.443517	-0.950765	-0.436612
C28	C	1.643899	-0.895620	-0.637259
C29	C	1.710727	-0.950383	-0.704161
C30	C	1.710775	-1.060107	-0.704187
C31	C	1.643996	-1.115068	-0.637310
C32	C	1.782850	-0.506088	-0.503496
C33	C	1.899003	-0.506097	-0.503505
C34	C	1.510351	-0.505966	-0.776046
C35	C	1.510381	-0.505923	-0.892199
C36	C	1.510363	-0.232034	-0.503515
C37	C	1.510399	-0.115257	-0.503532
C38	C	1.573925	-0.442058	-0.943998
C39	C	1.573957	-0.442012	-1.064049
C40	C	1.510269	-0.506092	-0.231966
C41	C	1.510441	-0.505839	-0.115813
H42	H	0.906294	-0.624756	-0.621185
C43	C	1.647452	-0.368139	-1.124225
N44	N	1.702808	-0.312493	-1.169552
H45	H	1.115420	-0.624717	-0.621160
H46	H	1.078054	-0.451337	-0.449202
C47	C	1.436913	-0.579744	-0.952352
N48	N	1.381574	-0.635347	-0.997658
H49	H	1.389104	-0.906177	-0.382139
H50	H	0.943509	-0.451362	-0.449211
H51	H	1.456040	-0.560523	-1.071274
C52	C	1.643848	-0.774922	-0.637241
N53	N	1.643808	-0.684012	-0.637227
H54	H	1.765090	-0.905628	-0.758616
H55	H	1.765181	-1.104692	-0.758670
C56	C	1.370166	-1.120949	-0.363025
N57	N	1.314895	-1.166488	-0.307565
C58	C	1.647386	-0.368231	-0.883845
N59	N	1.702720	-0.312622	-0.838539
C60	C	1.644048	-1.235769	-0.637348
N61	N	1.644090	-1.326679	-0.637375
