data_functionalizedCrystal
_audit_creation_method	'MofGen! by Chris Wilmer'
_symmetry_space_group_name_H-M	'P1'
_symmetry_Int_Tables_number	1
_symmetry_cell_setting	triclinic
loop_
_symmetry_equiv_pos_as_xyz
  x,y,z
_cell_length_a	16.959455
_cell_length_b	16.959454
_cell_length_c	21.395355
_cell_angle_alpha	90.012996
_cell_angle_beta	90.029472
_cell_angle_gamma	90.017095
loop_
_atom_site_label
_atom_site_type_symbol
_atom_site_fract_x
_atom_site_fract_y
_atom_site_fract_z
Zn1	Zn	1.208455	-0.314836	0.354368
Zn2	Zn	1.208356	-0.446997	0.249600
Zn3	Zn	1.076262	-0.314829	0.249595
Zn4	Zn	1.076248	-0.446969	0.354332
O5	O	1.142330	-0.380908	0.301974
O6	O	1.319053	-0.332382	0.340487
O7	O	1.190799	-0.429473	0.161922
O8	O	1.093845	-0.204219	0.263507
O9	O	1.318980	-0.429479	0.263515
O10	O	1.190966	-0.204224	0.340483
O11	O	1.093750	-0.332370	0.161918
O12	O	0.965649	-0.332344	0.263472
O13	O	1.093821	-0.429433	0.442014
O14	O	0.965639	-0.429427	0.340421
O15	O	1.190952	-0.332355	0.442041
O16	O	1.190785	-0.557604	0.263480
O17	O	1.093725	-0.557584	0.340426
C18	C	0.936964	-0.380882	0.301942
C19	C	0.849107	-0.380890	0.301944
C20	C	0.477584	-0.431417	0.261874
C21	C	0.477680	-0.330465	0.342150
C22	C	0.560226	-0.330452	0.342135
C23	C	0.601454	-0.380923	0.301989
C24	C	0.560137	-0.431407	0.261859
C25	C	0.601550	-0.279974	0.382269
C26	C	0.684101	-0.279960	0.382256
C27	C	0.725331	-0.330427	0.342106
C28	C	0.684008	-0.380913	0.301974
C29	C	0.725236	-0.431384	0.261828
C30	C	0.683915	-0.481866	0.221692
C31	C	0.601367	-0.481874	0.221710
C32	C	0.807879	-0.330419	0.342089
C33	C	0.807790	-0.431374	0.261813
C34	C	1.142264	-0.586274	0.301963
C35	C	1.142308	-0.674131	0.301979
C36	C	1.091865	-1.045626	0.342035
C37	C	1.193016	-1.045587	0.261976
C38	C	1.192988	-0.963041	0.261971
C39	C	1.142397	-0.921784	0.301997
C40	C	1.091834	-0.963072	0.342029
C41	C	1.243545	-0.921746	0.221935
C42	C	1.243519	-0.839195	0.221927
C43	C	1.192931	-0.797936	0.261957
C44	C	1.142367	-0.839230	0.301991
C45	C	1.091775	-0.797973	0.342018
C46	C	1.041214	-0.839265	0.382055
C47	C	1.041246	-0.921814	0.382059
C48	C	1.192899	-0.715388	0.261953
C49	C	1.091745	-0.715419	0.342012
C50	C	1.348498	-0.380934	0.302006
C51	C	1.436355	-0.380946	0.302019
C52	C	1.142396	-0.380892	0.465397
C53	C	1.142424	-0.380885	0.535038
C54	C	1.142418	-0.174740	0.301998
C55	C	1.142456	-0.086883	0.302009
C56	C	1.142310	-0.380867	0.139186
C57	C	1.142436	-0.380651	0.069545
C58	C	1.192998	-0.330334	0.567766
C59	C	1.192997	-0.330300	0.633202
C60	C	1.142430	-0.380831	0.665907
C61	C	1.091846	-0.431385	0.633171
C62	C	1.091843	-0.431412	0.567737
C63	C	1.136166	-0.452002	0.769577
C64	C	1.136174	-0.451976	0.835010
C65	C	1.142435	-0.380748	0.867728
C66	C	1.148703	-0.309542	0.835004
C67	C	1.148700	-0.309569	0.769570
C68	C	1.142427	-0.380807	0.736859
C69	C	1.193011	-0.330156	0.971408
C70	C	1.193004	-0.330121	1.036845
C71	C	1.091857	-0.431212	1.036813
C72	C	1.091859	-0.431241	0.971377
C73	C	1.142441	-0.380714	0.938679
H74	H	1.050550	-0.681833	0.374609
H75	H	0.567716	-0.522974	0.189033
H76	H	0.444107	-0.289378	0.374838
H77	H	1.000019	-0.805664	0.414642
H78	H	0.841519	-0.289319	0.374768
O79	O	0.433025	-0.485864	0.218584
H80	H	0.368696	-0.477396	0.225337
O81	O	1.298107	-0.966262	0.178777
H82	H	1.284578	-0.950472	0.129585
O83	O	0.557087	-0.225533	0.425562
H84	H	0.492744	-0.234012	0.418821
O85	O	0.728668	-0.225503	0.425532
H86	H	0.686130	-0.190404	0.453445
O87	O	0.728391	-0.536297	0.178392
H88	H	0.712554	-0.598358	0.189055
H89	H	1.000081	-0.955441	0.414655
O90	O	1.247533	-0.275757	0.668509
H91	H	1.239026	-0.284218	0.719502
H92	H	1.153802	-0.251591	0.742929
H93	H	1.050701	-1.079250	0.374635
H94	H	1.050655	-0.472576	0.541090
O95	O	1.155435	-0.232705	0.870280
H96	H	1.154367	-0.244644	0.921278
O97	O	1.247602	-1.090079	0.218823
H98	H	1.239139	-1.154418	0.225561
O99	O	1.298058	-0.794659	0.178754
H100	H	1.333247	-0.837217	0.150926
O101	O	1.037313	-0.485771	0.936076
H102	H	1.045801	-0.477296	0.885082
O103	O	1.247551	-0.275836	0.532502
H104	H	1.212194	-0.235629	0.502670
O105	O	1.247561	-0.275661	0.936134
H106	H	1.212202	-0.235461	0.906297
H107	H	1.234187	-0.288952	1.063491
O108	O	1.037313	-0.485716	1.072076
H109	H	1.045813	-0.477208	1.123076
O110	O	1.247428	-0.670848	0.218778
H111	H	1.282613	-0.713405	0.190947
O112	O	1.129405	-0.528770	0.870304
H113	H	1.125032	-0.578303	0.836563
O114	O	1.129408	-0.528831	0.734289
H115	H	1.073160	-0.558307	0.746834
O116	O	0.852258	-0.485809	0.218511
H117	H	0.809655	-0.520914	0.190610
O118	O	1.037302	-0.485886	0.668440
H119	H	1.045804	-0.477380	0.719439
