data_functionalizedCrystal
_audit_creation_method	'MofGen! by Chris Wilmer'
_symmetry_space_group_name_H-M	'P1'
_symmetry_Int_Tables_number	1
_symmetry_cell_setting	triclinic
loop_
_symmetry_equiv_pos_as_xyz
  x,y,z
_cell_length_a	19.077105
_cell_length_b	19.077585
_cell_length_c	19.076919
_cell_angle_alpha	94.658660
_cell_angle_beta	89.923776
_cell_angle_gamma	94.467729
loop_
_atom_site_label
_atom_site_type_symbol
_atom_site_fract_x
_atom_site_fract_y
_atom_site_fract_z
Zn1	Zn	1.071340	0.341572	0.454668
Zn2	Zn	1.080324	0.455094	0.341897
Zn3	Zn	0.958196	0.332113	0.332067
Zn4	Zn	0.958130	0.454668	0.454632
O5	O	1.016998	0.395862	0.395816
O6	O	1.171022	0.360767	0.443838
O7	O	1.067911	0.435000	0.242104
O8	O	0.969473	0.234569	0.344231
O9	O	1.177622	0.444171	0.360986
O10	O	1.052600	0.241518	0.434306
O11	O	0.978184	0.344647	0.234882
O12	O	0.859697	0.344234	0.344196
O13	O	0.969360	0.443446	0.553126
O14	O	0.859648	0.434274	0.434245
O15	O	1.052535	0.360354	0.553152
O16	O	1.067847	0.553836	0.360951
O17	O	0.978071	0.553524	0.443777
C18	C	0.834135	0.388182	0.388150
C19	C	0.755906	0.384914	0.384888
C20	C	0.719152	0.430324	0.430171
C21	C	0.645647	0.427244	0.427109
C22	C	0.608898	0.378758	0.378760
C23	C	0.645657	0.333344	0.333475
C24	C	0.719160	0.336421	0.336541
C25	C	0.389065	0.364520	0.364573
C26	C	0.315557	0.361448	0.361509
C27	C	0.315552	0.455348	0.455144
C28	C	0.389058	0.458423	0.458203
C29	C	0.425810	0.413006	0.412921
N30	N	0.533764	0.375611	0.375627
N31	N	0.500942	0.416151	0.416057
C32	C	1.023945	0.579299	0.403443
C33	C	1.026980	0.657778	0.406732
C34	C	0.985169	0.691093	0.361352
C35	C	0.988028	0.764832	0.364446
C36	C	1.032695	0.805256	0.412923
C37	C	1.074512	0.771936	0.458305
C38	C	1.071656	0.698198	0.455207
C39	C	1.045877	1.026171	0.427216
C40	C	1.048728	1.099914	0.430312
C41	C	0.962245	1.092806	0.336452
C42	C	0.959390	1.019066	0.333362
C43	C	1.001209	0.985753	0.378741
N44	N	1.035617	0.880629	0.416088
N45	N	0.998290	0.910380	0.375572
C46	C	1.200574	0.403572	0.403512
C47	C	1.278803	0.406857	0.406792
C48	C	1.009938	0.402907	0.579390
C49	C	1.006929	0.405910	0.657619
C50	C	1.010001	1.211708	0.388179
C51	C	1.006917	1.133229	0.384933
C52	C	1.024068	0.388794	0.212956
C53	C	1.027206	0.385598	0.134725
C54	C	1.048819	0.364061	0.694385
C55	C	1.045983	0.366879	0.767889
C56	C	1.001262	0.411550	0.804624
C57	C	0.959367	0.453401	0.767852
C58	C	0.962200	0.450578	0.694350
C59	C	0.988144	0.424627	1.024451
C60	C	0.985316	0.427447	1.097959
C61	C	1.071931	0.340924	1.097990
C62	C	1.074763	0.338109	1.024486
C63	C	1.032866	0.379957	0.987720
N64	N	0.998364	0.414434	0.879757
N65	N	1.035761	0.377069	0.912589
H66	H	0.615729	0.293863	0.294111
C67	C	0.910172	0.502540	0.808259
C68	C	0.907057	0.505650	0.889109
C69	C	0.857863	0.554793	0.929514
C70	C	0.811784	0.600825	0.889070
C71	C	0.814897	0.597716	0.808215
C72	C	0.864091	0.548574	0.767810
H73	H	0.941170	0.471573	0.919053
H74	H	0.855559	0.557094	0.989368
H75	H	0.775367	0.637203	0.918980
H76	H	0.780785	0.631793	0.778271
H77	H	0.866396	0.546272	0.707956
C78	C	1.091868	0.989527	0.477136
C79	C	1.057235	0.939672	0.528954
C80	C	1.103225	0.903023	0.578876
C81	C	1.183849	0.916229	0.576982
C82	C	1.218486	0.966086	0.525163
C83	C	1.172496	1.002735	0.475240
H84	H	0.997548	0.929894	0.530358
H85	H	1.077584	0.866115	0.617236
H86	H	1.217894	0.889099	0.613938
H87	H	1.278173	0.975864	0.523758
H88	H	1.198137	1.039643	0.436880
H89	H	0.418974	0.497907	0.497572
C90	C	0.429480	0.314575	0.314744
C91	C	0.416101	0.234122	0.316838
C92	C	0.456516	0.184178	0.266999
C93	C	0.510310	0.214688	0.215065
C94	C	0.523691	0.295145	0.212969
C95	C	0.483276	0.345088	0.262808
H96	H	0.376278	0.211533	0.355285
H97	H	0.446610	0.124619	0.268551
H98	H	0.540227	0.177717	0.178170
H99	H	0.563515	0.317733	0.174522
H100	H	0.493182	0.404648	0.261256
H101	H	0.923018	0.986155	0.293888
H102	H	1.111182	0.301735	0.994581
H103	H	1.105704	0.671073	0.492159
H104	H	0.928081	0.484649	0.664415
H105	H	1.085092	1.132825	0.469801
H106	H	0.615725	0.464222	0.463982
C107	C	0.759574	0.483660	0.483356
C108	C	0.752732	0.563265	0.480400
C109	C	0.793151	0.616601	0.533588
C110	C	0.840412	0.590332	0.589733
C111	C	0.847256	0.510723	0.592691
C112	C	0.806837	0.457387	0.539503
H113	H	0.717744	0.582714	0.438836
H114	H	0.788084	0.675533	0.531398
H115	H	0.870333	0.629814	0.629106
H116	H	0.882244	0.491273	0.634255
H117	H	0.811904	0.398455	0.541693
H118	H	0.285621	0.492322	0.492011
C119	C	1.098014	0.314922	0.653979
C120	C	1.088847	0.234807	0.660515
C121	C	1.138041	0.185664	0.620110
C122	C	1.196402	0.216636	0.573170
C123	C	1.205572	0.296755	0.566633
C124	C	1.156378	0.345898	0.607037
H125	H	1.045642	0.211876	0.695264
H126	H	1.131253	0.126354	0.624950
H127	H	1.232819	0.180257	0.543261
H128	H	1.248777	0.319686	0.531883
H129	H	1.163166	0.405207	0.602197
C130	C	1.118010	0.294888	1.138432
C131	C	1.114897	0.297986	1.219282
C132	C	1.160974	0.251944	1.259724
C133	C	1.210165	0.202806	1.219316
C134	C	1.213280	0.199706	1.138462
C135	C	1.167202	0.245748	1.098020
H136	H	1.078481	0.334363	1.249198
H137	H	1.158668	0.254239	1.319577
H138	H	1.244275	0.168723	1.249254
H139	H	1.249696	0.163329	1.108546
H140	H	1.169508	0.243453	1.038167
C141	C	0.759594	0.286470	0.286731
C142	C	0.746219	0.206019	0.288850
C143	C	0.786652	0.156064	0.239042
C144	C	0.840461	0.186558	0.187114
C145	C	0.853839	0.267013	0.184992
C146	C	0.813405	0.316968	0.234801
H147	H	0.706384	0.183442	0.327292
H148	H	0.776749	0.096506	0.240613
H149	H	0.870392	0.149578	0.150243
H150	H	0.893673	0.289590	0.146550
H151	H	0.823309	0.376526	0.233230
H152	H	0.928199	1.119937	0.299507
C153	C	1.092064	0.320843	0.808329
C154	C	1.172681	0.329581	0.801823
C155	C	1.218763	0.283540	0.842260
C156	C	1.184227	0.228761	0.889204
C157	C	1.103605	0.220021	0.895712
C158	C	1.057523	0.266062	0.855275
H159	H	1.198251	0.370133	0.767070
H160	H	1.278445	0.290010	0.837442
H161	H	1.218339	0.194679	0.919139
H162	H	1.078036	0.179468	0.930465
H163	H	0.997842	0.259592	0.860093
H164	H	0.948896	0.463825	1.127867
C165	C	0.936033	0.646630	0.308026
C166	C	0.890045	0.683280	0.258106
C167	C	0.840910	0.638819	0.204776
C168	C	0.837764	0.557710	0.201366
C169	C	0.883753	0.521056	0.251287
C170	C	0.932888	0.565516	0.304617
H171	H	0.892373	0.743326	0.260629
H172	H	0.806866	0.665953	0.167821
H173	H	0.801391	0.524798	0.161888
H174	H	0.881426	0.461010	0.248764
H175	H	0.966933	0.538382	0.341572
H176	H	0.285637	0.321957	0.322142
H177	H	0.953982	0.791954	0.327492
H178	H	1.110884	0.804854	0.497773
H179	H	0.954039	0.458713	0.994526
