data_functionalizedCrystal
_audit_creation_method	'MofGen! by Chris Wilmer'
_symmetry_space_group_name_H-M	'P1'
_symmetry_Int_Tables_number	1
_symmetry_cell_setting	triclinic
loop_
_symmetry_equiv_pos_as_xyz
  x,y,z
_cell_length_a	16.625548
_cell_length_b	29.839131
_cell_length_c	16.625539
_cell_angle_alpha	89.962116
_cell_angle_beta	89.982945
_cell_angle_gamma	90.036296
loop_
_atom_site_label
_atom_site_type_symbol
_atom_site_fract_x
_atom_site_fract_y
_atom_site_fract_z
Zn1	Zn	1.232581	-0.178848	-0.455845
Zn2	Zn	1.482581	0.071152	-0.205845
Zn3	Zn	1.732581	0.321152	0.044155
Zn4	Zn	1.982581	0.571152	0.294155
Zn5	Zn	1.232462	-0.253976	-0.320985
Zn6	Zn	1.482462	-0.003976	-0.070985
Zn7	Zn	1.732462	0.246024	0.179015
Zn8	Zn	1.982462	0.496024	0.429015
Zn9	Zn	1.097751	-0.178863	-0.321026
Zn10	Zn	1.347751	0.071137	-0.071026
Zn11	Zn	1.597751	0.321137	0.178974
Zn12	Zn	1.847751	0.571137	0.428974
Zn13	Zn	1.097683	-0.253953	-0.455775
Zn14	Zn	1.347683	-0.003953	-0.205775
Zn15	Zn	1.597683	0.246047	0.044225
Zn16	Zn	1.847683	0.496047	0.294225
O17	O	1.165119	-0.216410	-0.388408
O18	O	1.415119	0.033590	-0.138408
O19	O	1.665119	0.283590	0.111592
O20	O	1.915119	0.533590	0.361592
O21	O	1.345398	-0.188818	-0.437968
O22	O	1.595398	0.061182	-0.187968
O23	O	1.845398	0.311182	0.062032
O24	O	2.095398	0.561182	0.312032
O25	O	1.214571	-0.244028	-0.208158
O26	O	1.464571	0.005972	0.041842
O27	O	1.714571	0.255972	0.291842
O28	O	1.964571	0.505972	0.541842
O29	O	1.115715	-0.115994	-0.338956
O30	O	1.365715	0.134006	-0.088956
O31	O	1.615715	0.384006	0.161044
O32	O	1.865715	0.634006	0.411044
O33	O	1.345311	-0.244014	-0.338887
O34	O	1.595311	0.005986	-0.088887
O35	O	1.845311	0.255986	0.161113
O36	O	2.095311	0.505986	0.411113
O37	O	1.214774	-0.115983	-0.438007
O38	O	1.464774	0.134017	-0.188007
O39	O	1.714774	0.384017	0.061993
O40	O	1.964774	0.634017	0.311993
O41	O	1.115600	-0.188843	-0.208188
O42	O	1.365600	0.061157	0.041812
O43	O	1.615600	0.311157	0.291812
O44	O	1.865600	0.561157	0.541812
O45	O	0.984910	-0.188820	-0.338888
O46	O	1.234910	0.061180	-0.088888
O47	O	1.484910	0.311180	0.161112
O48	O	1.734910	0.561180	0.411112
O49	O	1.115599	-0.243974	-0.568617
O50	O	1.365599	0.006026	-0.318617
O51	O	1.615599	0.256026	-0.068617
O52	O	1.865599	0.506026	0.181383
O53	O	0.984860	-0.243989	-0.437888
O54	O	1.234860	0.006011	-0.187888
O55	O	1.484860	0.256011	0.062112
O56	O	1.734860	0.506011	0.312112
O57	O	1.214708	-0.188795	-0.568668
O58	O	1.464708	0.061205	-0.318668
O59	O	1.714708	0.311205	-0.068668
O60	O	1.964708	0.561205	0.181332
O61	O	1.214506	-0.316841	-0.338820
O62	O	1.464506	-0.066841	-0.088820
O63	O	1.714506	0.183159	0.161180
O64	O	1.964506	0.433159	0.411180
O65	O	1.115484	-0.316823	-0.437849
O66	O	1.365484	-0.066823	-0.187849
O67	O	1.615484	0.183177	0.062151
O68	O	1.865484	0.433177	0.312151
C69	C	0.955629	-0.216404	-0.388385
C70	C	1.205629	0.033596	-0.138385
C71	C	1.455629	0.283596	0.111615
C72	C	1.705629	0.533596	0.361615
C73	C	0.866007	-0.216412	-0.388395
C74	C	1.116007	0.033588	-0.138395
C75	C	1.366007	0.283588	0.111605
C76	C	1.616007	0.533588	0.361605
C77	C	0.537832	-0.216415	-0.388429
C78	C	0.787832	0.033585	-0.138429
C79	C	1.037832	0.283585	0.111571
C80	C	1.287832	0.533585	0.361571
C81	C	0.629140	-0.216413	-0.388417
C82	C	0.879140	0.033587	-0.138417
C83	C	1.129140	0.283587	0.111583
C84	C	1.379140	0.533587	0.361583
C85	C	0.701917	-0.216413	-0.388411
C86	C	0.951917	0.033587	-0.138411
C87	C	1.201917	0.283587	0.111589
C88	C	1.451917	0.533587	0.361589
C89	C	0.793231	-0.216411	-0.388401
C90	C	1.043231	0.033589	-0.138401
C91	C	1.293231	0.283589	0.111599
C92	C	1.543231	0.533589	0.361599
C93	C	1.164996	-0.333133	-0.388340
C94	C	1.414996	-0.083133	-0.138340
C95	C	1.664996	0.166867	0.111660
C96	C	1.914996	0.416867	0.361660
C97	C	1.165018	-0.383067	-0.388338
C98	C	1.415018	-0.133067	-0.138338
C99	C	1.665018	0.116933	0.111662
C100	C	1.915018	0.366933	0.361662
C101	C	1.216688	-0.692670	-0.440057
C102	C	1.466688	-0.442670	-0.190057
C103	C	1.716688	-0.192670	0.059943
C104	C	1.966688	0.057330	0.309943
C105	C	1.216776	-0.880343	-0.440106
C106	C	1.466776	-0.630343	-0.190106
C107	C	1.716776	-0.380343	0.059894
C108	C	1.966776	-0.130343	0.309894
O109	O	1.260587	-0.904573	-0.484029
O110	O	1.510587	-0.654573	-0.234029
O111	O	1.760587	-0.404573	0.015971
O112	O	2.010587	-0.154573	0.265971
N113	N	1.165256	-0.903852	-0.388497
N114	N	1.415256	-0.653852	-0.138497
N115	N	1.665256	-0.403852	0.111503
N116	N	1.915256	-0.153852	0.361503
C117	C	1.113708	-0.880440	-0.336877
C118	C	1.363708	-0.630440	-0.086877
C119	C	1.613708	-0.380440	0.163123
C120	C	1.863708	-0.130440	0.413123
O121	O	1.069884	-0.904742	-0.292988
O122	O	1.319884	-0.654742	-0.042988
O123	O	1.569884	-0.404742	0.207012
O124	O	1.819884	-0.154742	0.457012
C125	C	1.113617	-0.692768	-0.336833
C126	C	1.363617	-0.442768	-0.086833
C127	C	1.613617	-0.192768	0.163167
C128	C	1.863617	0.057232	0.413167
C129	C	1.165145	-0.669261	-0.388439
C130	C	1.415145	-0.419261	-0.138439
C131	C	1.665145	-0.169261	0.111561
C132	C	1.915145	0.080739	0.361561
C133	C	1.268212	-0.669163	-0.491660
C134	C	1.518212	-0.419163	-0.241660
C135	C	1.768212	-0.169163	0.008340
C136	C	2.018212	0.080837	0.258340
C137	C	1.268193	-0.622248	-0.491644
C138	C	1.518193	-0.372248	-0.241644
C139	C	1.768193	-0.122248	0.008356
C140	C	2.018193	0.127752	0.258356
C141	C	1.216650	-0.598839	-0.440026
C142	C	1.466650	-0.348839	-0.190026
C143	C	1.716650	-0.098839	0.059974
C144	C	1.966650	0.151161	0.309974
C145	C	1.165126	-0.622346	-0.388423
C146	C	1.415126	-0.372346	-0.138423
C147	C	1.665126	-0.122346	0.111577
C148	C	1.915126	0.127654	0.361577
C149	C	1.062065	-0.669357	-0.285217
C150	C	1.312065	-0.419357	-0.035217
C151	C	1.562065	-0.169357	0.214783
C152	C	1.812065	0.080643	0.464783
C153	C	1.062045	-0.622436	-0.285212
C154	C	1.312045	-0.372436	-0.035212
C155	C	1.562045	-0.122436	0.214788
C156	C	1.812045	0.127564	0.464788
C157	C	1.113574	-0.598929	-0.336818
C158	C	1.363574	-0.348929	-0.086818
C159	C	1.613574	-0.098929	0.163182
C160	C	1.863574	0.151071	0.413182
C161	C	1.113564	-0.552022	-0.336790
C162	C	1.363564	-0.302022	-0.086790
C163	C	1.613564	-0.052022	0.163210
C164	C	1.863564	0.197978	0.413210
N165	N	1.165083	-0.528512	-0.388398
N166	N	1.415083	-0.278512	-0.138398
N167	N	1.665083	-0.028512	0.111602
N168	N	1.915083	0.221488	0.361602
C169	C	1.216626	-0.551921	-0.440016
C170	C	1.466626	-0.301921	-0.190016
C171	C	1.716626	-0.051921	0.059984
C172	C	1.966626	0.198079	0.309984
C173	C	1.113760	-0.978971	-0.336902
C174	C	1.363760	-0.728971	-0.086902
C175	C	1.613760	-0.478971	0.163098
C176	C	1.863760	-0.228971	0.413098
C177	C	1.113784	-1.025889	-0.336912
C178	C	1.363784	-0.775889	-0.086912
C179	C	1.613784	-0.525889	0.163088
C180	C	1.863784	-0.275889	0.413088
C181	C	1.216851	-1.025788	-0.440142
C182	C	1.466851	-0.775788	-0.190142
C183	C	1.716851	-0.525788	0.059858
C184	C	1.966851	-0.275788	0.309858
C185	C	1.216831	-0.978869	-0.440128
C186	C	1.466831	-0.728869	-0.190128
C187	C	1.716831	-0.478869	0.059872
C188	C	1.966831	-0.228869	0.309872
C189	C	1.165280	-0.955462	-0.388511
C190	C	1.415280	-0.705462	-0.138511
C191	C	1.665280	-0.455462	0.111489
C192	C	1.915280	-0.205462	0.361489
C193	C	1.216582	-0.453395	-0.439979
C194	C	1.466582	-0.203395	-0.189979
C195	C	1.716582	0.046605	0.060021
C196	C	1.966582	0.296605	0.310021
C197	C	1.216561	-0.406476	-0.439956
C198	C	1.466561	-0.156476	-0.189956
C199	C	1.716561	0.093524	0.060044
C200	C	1.966561	0.343524	0.310044
C201	C	1.113491	-0.406580	-0.336729
C202	C	1.363491	-0.156580	-0.086729
C203	C	1.613491	0.093420	0.163271
C204	C	1.863491	0.343420	0.413271
C205	C	1.113515	-0.453496	-0.336749
C206	C	1.363515	-0.203496	-0.086749
C207	C	1.613515	0.046504	0.163251
C208	C	1.863515	0.296504	0.413251
C209	C	1.165063	-0.476902	-0.388380
C210	C	1.415063	-0.226902	-0.138380
C211	C	1.665063	0.023098	0.111620
C212	C	1.915063	0.273098	0.361620
O213	O	1.069769	-0.527762	-0.292896
O214	O	1.319769	-0.277762	-0.042896
O215	O	1.569769	-0.027762	0.207104
O216	O	1.819769	0.222238	0.457104
O217	O	1.260431	-0.527611	-0.483911
O218	O	1.510431	-0.277611	-0.233911
O219	O	1.760431	-0.027611	0.016089
O220	O	2.010431	0.222389	0.266089
C221	C	1.216707	-0.739585	-0.440073
C222	C	1.466707	-0.489585	-0.190073
C223	C	1.716707	-0.239585	0.059927
C224	C	1.966707	0.010415	0.309927
C225	C	1.165184	-0.763092	-0.388471
C226	C	1.415184	-0.513092	-0.138471
C227	C	1.665184	-0.263092	0.111529
C228	C	1.915184	-0.013092	0.361529
C229	C	1.113641	-0.739683	-0.336852
C230	C	1.363641	-0.489683	-0.086852
C231	C	1.613641	-0.239683	0.163148
C232	C	1.863641	0.010317	0.413148
C233	C	1.165207	-0.810010	-0.388480
C234	C	1.415207	-0.560010	-0.138480
C235	C	1.665207	-0.310010	0.111520
C236	C	1.915207	-0.060010	0.361520
C237	C	1.216750	-0.833419	-0.440099
C238	C	1.466750	-0.583419	-0.190099
C239	C	1.716750	-0.333419	0.059901
C240	C	1.966750	-0.083419	0.309901
C241	C	1.268270	-0.809910	-0.491707
C242	C	1.518270	-0.559910	-0.241707
C243	C	1.768270	-0.309910	0.008293
C244	C	2.018270	-0.059910	0.258293
C245	C	1.268250	-0.762994	-0.491691
C246	C	1.518250	-0.512994	-0.241691
C247	C	1.768250	-0.262994	0.008309
C248	C	2.018250	-0.012994	0.258309
C249	C	1.062122	-0.763193	-0.285244
C250	C	1.312122	-0.513193	-0.035244
C251	C	1.562122	-0.263193	0.214756
C252	C	1.812122	-0.013193	0.464756
C253	C	1.062146	-0.810108	-0.285263
C254	C	1.312146	-0.560108	-0.035263
C255	C	1.562146	-0.310108	0.214737
C256	C	1.812146	-0.060108	0.464737
C257	C	1.113689	-0.833517	-0.336882
C258	C	1.363689	-0.583517	-0.086882
C259	C	1.613689	-0.333517	0.163118
C260	C	1.863689	-0.083517	0.413118
C261	C	1.375428	-0.216417	-0.388431
C262	C	1.625428	0.033583	-0.138431
C263	C	1.875428	0.283583	0.111569
C264	C	2.125428	0.533583	0.361569
C265	C	1.465049	-0.216420	-0.388441
C266	C	1.715049	0.033580	-0.138441
C267	C	1.965049	0.283580	0.111559
C268	C	2.215049	0.533580	0.361559
C269	C	1.165159	-0.216380	-0.598717
C270	C	1.415159	0.033620	-0.348717
C271	C	1.665159	0.283620	-0.098717
C272	C	1.915159	0.533620	0.151283
C273	C	1.165176	-0.216368	-0.688338
C274	C	1.415176	0.033632	-0.438338
C275	C	1.665176	0.283632	-0.188338
C276	C	1.915176	0.533632	0.061662
C277	C	1.165265	-0.099232	-0.388494
C278	C	1.415265	0.150768	-0.138494
C279	C	1.665265	0.400768	0.111506
C280	C	1.915265	0.650768	0.361506
C281	C	1.165327	-0.049297	-0.388530
C282	C	1.415327	0.200703	-0.138530
C283	C	1.665327	0.450703	0.111470
C284	C	1.915327	0.700703	0.361470
C285	C	1.165189	-0.216358	-0.761121
C286	C	1.415189	0.033642	-0.511121
C287	C	1.665189	0.283642	-0.261121
C288	C	1.915189	0.533642	-0.011121
C289	C	1.165208	-0.216341	-0.852429
C290	C	1.415208	0.033659	-0.602429
C291	C	1.665208	0.283659	-0.352429
C292	C	1.915208	0.533659	-0.102429
C293	C	1.165227	-0.216325	-0.925206
C294	C	1.415227	0.033675	-0.675206
C295	C	1.665227	0.283675	-0.425206
C296	C	1.915227	0.533675	-0.175206
C297	C	1.165247	-0.216309	-1.016520
C298	C	1.415247	0.033691	-0.766520
C299	C	1.665247	0.283691	-0.516520
C300	C	1.915247	0.533691	-0.266520
C301	C	1.165126	-0.216407	-0.178917
C302	C	1.415126	0.033593	0.071083
C303	C	1.665126	0.283593	0.321083
C304	C	1.915126	0.533593	0.571083
C305	C	1.165266	-0.216293	-0.089296
C306	C	1.415266	0.033707	0.160704
C307	C	1.665266	0.283707	0.410704
C308	C	1.915266	0.533707	0.660704
H309	H	1.258524	-0.387338	-0.481980
H310	H	1.508524	-0.137338	-0.231980
H311	H	1.758524	0.112662	0.018020
H312	H	2.008524	0.362662	0.268020
H313	H	1.258552	-0.472447	-0.482027
H314	H	1.508552	-0.222447	-0.232027
H315	H	1.758552	0.027553	0.017973
H316	H	2.008552	0.277553	0.267973
Br317	Br	1.338224	-0.841688	-0.561756
Br318	Br	1.588224	-0.591688	-0.311756
Br319	Br	1.838224	-0.341688	-0.061756
Br320	Br	2.088224	-0.091688	0.188244
Br321	Br	1.043596	-0.485399	-0.266699
Br322	Br	1.293596	-0.235399	-0.016699
Br323	Br	1.543596	0.014601	0.233301
Br324	Br	1.793596	0.264601	0.483301
Br325	Br	1.286765	-0.946972	-0.510167
Br326	Br	1.536765	-0.696972	-0.260167
Br327	Br	1.786765	-0.446972	-0.010167
Br328	Br	2.036765	-0.196972	0.239833
H329	H	1.071527	-0.387514	-0.294700
H330	H	1.321527	-0.137514	-0.044700
H331	H	1.571527	0.112486	0.205300
H332	H	1.821527	0.362486	0.455300
Br333	Br	1.338186	-0.731099	-0.561732
Br334	Br	1.588186	-0.481099	-0.311732
Br335	Br	1.838186	-0.231099	-0.061732
Br336	Br	2.088186	0.018901	0.188268
H337	H	1.071833	-1.045024	-0.294881
H338	H	1.321833	-0.795024	-0.044881
H339	H	1.571833	-0.545024	0.205119
H340	H	1.821833	-0.295024	0.455119
Br341	Br	0.992127	-0.701247	-0.215178
Br342	Br	1.242127	-0.451247	0.034822
Br343	Br	1.492127	-0.201247	0.284822
Br344	Br	1.742127	0.048753	0.534822
H345	H	1.310149	-0.603111	-0.533669
H346	H	1.560149	-0.353111	-0.283669
H347	H	1.810149	-0.103111	-0.033669
H348	H	2.060149	0.146889	0.216331
Br349	Br	0.992212	-0.842004	-0.215215
Br350	Br	1.242212	-0.592004	0.034785
Br351	Br	1.492212	-0.342004	0.284785
Br352	Br	1.742212	-0.092004	0.534785
H353	H	1.071780	-0.959915	-0.294868
H354	H	1.321780	-0.709915	-0.044868
H355	H	1.571780	-0.459915	0.205132
H356	H	1.821780	-0.209915	0.455132
Br357	Br	1.286803	-1.057566	-0.510195
Br358	Br	1.536803	-0.807566	-0.260195
Br359	Br	1.786803	-0.557566	-0.010195
Br360	Br	2.036803	-0.307566	0.239805
H361	H	1.020148	-0.744137	-0.243211
H362	H	1.270148	-0.494137	0.006789
H363	H	1.520148	-0.244137	0.256789
H364	H	1.770148	0.005863	0.506789
Br365	Br	0.992077	-0.590671	-0.215158
Br366	Br	1.242077	-0.340671	0.034842
Br367	Br	1.492077	-0.090671	0.284842
Br368	Br	1.742077	0.159329	0.534842
H369	H	1.310184	-0.688218	-0.533699
H370	H	1.560184	-0.438218	-0.283699
H371	H	1.810184	-0.188218	-0.033699
H372	H	2.060184	0.061782	0.216301
