data_functionalizedCrystal
_audit_creation_method	'MofGen! by Chris Wilmer'
_symmetry_space_group_name_H-M	'P1'
_symmetry_Int_Tables_number	1
_symmetry_cell_setting	triclinic
loop_
_symmetry_equiv_pos_as_xyz
  x,y,z
_cell_length_a	17.038275
_cell_length_b	26.809956
_cell_length_c	17.038272
_cell_angle_alpha	89.995541
_cell_angle_beta	88.888330
_cell_angle_gamma	89.997074
loop_
_atom_site_label
_atom_site_type_symbol
_atom_site_fract_x
_atom_site_fract_y
_atom_site_fract_z
O1	O	-1.048760	0.041408	0.170528
O2	O	-0.820948	0.041425	0.167820
O3	O	-0.933500	0.041412	0.055268
O4	O	-0.936208	0.041420	0.283080
O5	O	-0.933479	-0.041547	0.055285
O6	O	-0.820927	-0.041535	0.167837
O7	O	-1.048738	-0.041551	0.170545
Zn8	Zn	-0.934829	-0.054715	0.169194
Zn9	Zn	-0.934858	0.054588	0.169171
O10	O	-0.936187	-0.041539	0.283097
C11	C	-0.791645	-0.000053	0.165365
C12	C	-0.704361	-0.000047	0.158017
C13	C	-0.658752	-0.000044	0.225481
C14	C	-0.576740	-0.000051	0.218572
C15	C	-0.540339	-0.000056	0.144198
C16	C	-0.585954	-0.000059	0.076730
C17	C	-0.667965	-0.000057	0.083639
C18	C	-0.292951	-0.000068	0.119787
C19	C	-0.210935	-0.000069	0.112882
C20	C	-0.201726	-0.000061	0.254725
C21	C	-0.283739	-0.000055	0.261628
C22	C	-0.329347	-0.000061	0.194160
C23	C	-0.456510	-0.000061	0.137134
C24	C	-0.413174	-0.000060	0.201224
N25	N	-0.934815	-0.129311	0.169209
C26	C	-0.984690	-0.473942	0.119346
C27	C	-0.984707	-0.682820	0.119336
O28	O	-1.027080	-0.709828	0.076943
N29	N	-0.934861	-0.708938	0.169154
C30	C	-0.885002	-0.682833	0.218976
O31	O	-0.842599	-0.709841	0.261344
C32	C	-0.884981	-0.473956	0.218982
C33	C	-0.934837	-0.447841	0.169165
C34	C	-1.034540	-0.447827	0.069533
C35	C	-1.034539	-0.395610	0.069540
C36	C	-0.984686	-0.369509	0.119359
C37	C	-0.934835	-0.395625	0.169172
C38	C	-0.835119	-0.447852	0.268799
C39	C	-0.835117	-0.395630	0.268794
C40	C	-0.884973	-0.369515	0.218978
C41	C	-0.884980	-0.317307	0.218997
N42	N	-0.934827	-0.291189	0.169178
C43	C	-0.984680	-0.317290	0.119359
C44	C	-0.885018	-0.792496	0.218970
C45	C	-0.885024	-0.844715	0.218970
C46	C	-0.984728	-0.844698	0.119328
C47	C	-0.984726	-0.792478	0.119333
C48	C	-0.934865	-0.766378	0.169151
C49	C	-0.984672	-0.207632	0.119376
C50	C	-0.984668	-0.155412	0.119389
C51	C	-0.884962	-0.155433	0.219028
C52	C	-0.884968	-0.207649	0.219018
C53	C	-0.934826	-0.233748	0.169186
O54	O	-0.842623	-0.290267	0.261361
O55	O	-1.027064	-0.290274	0.076985
C56	C	-0.984691	-0.526158	0.119340
C57	C	-0.934840	-0.552274	0.169153
C58	C	-0.884988	-0.526173	0.218972
C59	C	-0.934847	-0.604493	0.169153
C60	C	-0.984699	-0.630594	0.119333
C61	C	-1.034546	-0.604476	0.069515
C62	C	-1.034544	-0.552259	0.069521
C63	C	-0.835141	-0.552290	0.268791
C64	C	-0.835148	-0.604507	0.268781
C65	C	-0.885000	-0.630608	0.218962
C66	C	-0.078042	-0.000070	0.172999
C67	C	-0.165325	-0.000067	0.180346
C68	C	-0.931026	-0.000067	0.025984
C69	C	-0.923678	-0.000066	-0.061300
N70	N	-0.934877	0.129184	0.169151
C71	C	-0.991142	-0.000072	-0.106909
C72	C	-0.984233	-0.000067	-0.188921
C73	C	-0.909860	-0.000059	-0.225322
C74	C	-0.842391	-0.000052	-0.179707
C75	C	-0.849301	-0.000054	-0.097696
C76	C	-0.885449	-0.000051	-0.472710
C77	C	-0.878545	-0.000051	-0.554726
C78	C	-1.020387	-0.000064	-0.563935
C79	C	-1.027290	-0.000068	-0.481922
C80	C	-0.959822	-0.000059	-0.436314
C81	C	-0.902796	-0.000056	-0.309151
C82	C	-0.966886	-0.000059	-0.352487
C83	C	-0.938660	-0.000059	0.312381
C84	C	-0.946008	-0.000056	0.399665
H85	H	-0.442816	-0.000059	0.261779
C86	C	-0.830097	-0.236377	0.273782
H87	H	-0.800394	-0.213351	0.303440
H88	H	-0.860482	-0.256765	0.308378
H89	H	-0.795536	-0.256731	0.243294
C90	C	-0.151560	-0.000056	0.328936
H91	H	-0.184985	-0.000049	0.374218
H92	H	-0.119374	-0.028986	0.329198
H93	H	-0.119379	0.028877	0.329181
H94	H	-0.705099	-0.000058	0.028703
C95	C	-0.830174	-0.763792	0.273780
H96	H	-0.800499	-0.786830	0.303452
H97	H	-0.795598	-0.743422	0.243346
H98	H	-0.860600	-0.743424	0.308373
C99	C	-0.796731	-0.000034	-0.594766
H100	H	-0.757538	-0.000022	-0.555859
H101	H	-0.791071	-0.028962	-0.626566
H102	H	-0.791108	0.028901	-0.626568
H103	H	-0.181300	-0.000072	0.052316
H104	H	-0.688383	-0.000040	0.286043
H105	H	-0.794522	-0.469108	0.309363
H106	H	-1.039169	-0.000072	-0.226052
H107	H	-0.426863	-0.000079	0.076579
C108	C	-0.526573	-0.000046	0.292782
H109	H	-0.559998	-0.000037	0.338065
H110	H	-0.494391	-0.028977	0.293046
H111	H	-0.494389	0.028886	0.293025
C112	C	-0.343110	-0.000071	0.045574
H113	H	-0.309682	-0.000069	0.000293
H114	H	-0.375292	-0.029000	0.045325
H115	H	-0.375294	0.028863	0.045313
H116	H	-0.844374	-0.134173	0.259592
C117	C	-0.811236	-0.000049	-0.422551
H118	H	-0.765955	-0.000051	-0.455979
H119	H	-0.810983	0.028879	-0.390368
H120	H	-0.810979	-0.028984	-0.390368
H121	H	-1.051705	-0.000081	-0.077277
H122	H	-1.025269	-0.134150	0.078823
C123	C	-0.760582	-0.000046	-0.219746
H124	H	-0.766128	-0.000051	-0.275121
H125	H	-0.732580	0.028885	-0.204417
H126	H	-0.732571	-0.028978	-0.204408
H127	H	-1.025270	-0.228876	0.078798
C128	C	-1.089370	-0.366890	0.014731
H129	H	-1.119051	-0.389920	-0.014942
H130	H	-1.123943	-0.346517	0.045166
H131	H	-1.058939	-0.346523	-0.019860
C132	C	-1.089388	-0.476530	0.014732
H133	H	-1.119076	-0.453491	-0.014926
H134	H	-1.058980	-0.496903	-0.019863
H135	H	-1.123965	-0.496896	0.045182
C136	C	-0.780273	-0.366923	0.323600
H137	H	-0.750590	-0.389958	0.353269
H138	H	-0.745703	-0.346550	0.293160
H139	H	-0.810698	-0.346556	0.358195
H140	H	-0.313370	-0.000045	0.322191
H141	H	-0.556310	-0.000071	0.016173
H142	H	-1.087853	-0.000074	-0.452290
H143	H	-1.025322	-0.771218	0.078768
C144	C	-1.039559	-0.873416	0.064522
H145	H	-1.032412	-0.908255	0.071655
H146	H	-1.092541	-0.864859	0.076554
H147	H	-1.027531	-0.864857	0.011535
H148	H	-1.075141	-0.531000	0.028956
H149	H	-1.075316	-0.000071	-0.601077
C150	C	-0.830184	-0.873436	0.273768
H151	H	-0.800488	-0.850408	0.303429
H152	H	-0.860598	-0.893810	0.308360
H153	H	-0.795614	-0.893804	0.243314
C154	C	-0.775091	-0.000049	-0.047526
H155	H	-0.729807	-0.000049	-0.080950
H156	H	-0.774847	0.028880	-0.015345
H157	H	-0.774830	-0.028983	-0.015340
H158	H	-1.027441	-0.000054	-0.322845
H159	H	-0.794551	-0.625766	0.309355
H160	H	-1.075141	-0.625736	0.028952
C161	C	-0.780305	-0.523586	0.323600
H162	H	-0.750627	-0.546624	0.353270
H163	H	-0.745731	-0.503212	0.293168
H164	H	-0.810734	-0.503220	0.358195
H165	H	-0.842241	-0.000051	-0.338798
