data_functionalizedCrystal
_audit_creation_method	'MofGen! by Chris Wilmer'
_symmetry_space_group_name_H-M	'P1'
_symmetry_Int_Tables_number	1
_symmetry_cell_setting	triclinic
loop_
_symmetry_equiv_pos_as_xyz
  x,y,z
_cell_length_a	10.540539
_cell_length_b	14.044220
_cell_length_c	12.503572
_cell_angle_alpha	86.156832
_cell_angle_beta	86.449712
_cell_angle_gamma	91.142815
loop_
_atom_site_label
_atom_site_type_symbol
_atom_site_fract_x
_atom_site_fract_y
_atom_site_fract_z
O1	O	1.706100	-0.128250	-0.089234
O2	O	1.337962	-0.140845	-0.089256
O3	O	1.516504	0.003474	-0.089235
O4	O	1.527558	-0.272569	-0.089256
O5	O	1.503079	-0.007398	0.089405
O6	O	1.324537	-0.151716	0.089384
O7	O	1.692675	-0.139122	0.089406
Cu8	Cu	1.507380	-0.146412	0.105706
Cu9	Cu	1.523257	-0.133555	-0.105556
O10	O	1.514132	-0.283441	0.089385
C11	C	1.504954	0.033385	0.000085
C12	C	1.490524	0.138709	0.000086
C13	C	1.283851	-0.145336	0.000061
C14	C	1.142618	-0.142509	0.000053
C15	C	1.746786	-0.134631	0.000086
C16	C	1.888019	-0.137457	0.000087
C17	C	2.082366	-0.245769	0.000456
C18	C	1.935488	-0.242881	0.000071
C19	C	1.952189	-0.080513	-0.101927
C20	C	2.099105	-0.084105	-0.102031
C21	C	2.084190	-0.094325	0.101117
C22	C	1.937008	-0.093437	0.102483
C23	C	1.525683	-0.313352	0.000062
C24	C	1.540113	-0.418675	0.000055
N25	N	1.496222	-0.155454	0.254297
C26	C	1.464145	0.331550	0.000069
C27	C	1.566487	0.388490	0.000072
C28	C	1.551809	0.495793	0.000062
C29	C	1.478821	0.224236	0.000078
N30	N	1.534424	-0.124505	-0.254147
C31	C	1.479809	-0.168764	0.473411
C32	C	1.550833	-0.111198	0.526746
C33	C	1.541701	-0.118604	0.648668
C34	C	1.488940	-0.161360	0.351477
H35	H	1.891443	-0.287257	0.073195
H36	H	1.903282	-0.278621	-0.073178
H37	H	2.113405	-0.133150	0.178428
O38	O	1.398912	-0.234096	0.528118
C39	C	1.273391	-0.216321	0.500728
H40	H	1.266277	-0.138530	0.469726
H41	H	1.246952	-0.264779	0.435559
C42	C	1.190341	-0.332071	0.638798
C43	C	1.181601	-0.236525	0.600729
H44	H	1.133719	-0.344538	0.700481
H45	H	1.274907	-0.344050	0.657249
H46	H	1.168311	-0.372442	0.584481
H47	H	1.203647	-0.196156	0.655041
H48	H	1.097037	-0.224539	0.582290
H49	H	2.109700	-0.291867	0.073602
H50	H	2.136807	-0.116962	-0.178293
H51	H	1.365511	0.363387	0.000060
H52	H	1.665134	0.356655	0.000005
O53	O	1.631286	-0.045676	0.471825
C54	C	1.622408	-0.052628	0.360555
H55	H	1.585092	-0.126917	0.345253
H56	H	1.554512	0.003177	0.328824
C57	C	1.800668	0.055988	0.321335
C58	C	1.754846	-0.035258	0.302541
H59	H	1.882360	0.066707	0.285547
H60	H	1.806647	0.060675	0.396300
H61	H	1.744077	0.102482	0.294893
H62	H	1.811429	-0.081751	0.328995
H63	H	1.748880	-0.039953	0.227579
H64	H	2.139756	-0.008003	-0.106674
O65	O	2.130385	-0.290043	-0.086116
C66	C	2.192230	-0.373441	-0.050863
H67	H	2.221373	-0.366623	0.034635
H68	H	2.124891	-0.437779	-0.052604
C69	C	2.275588	-0.395213	-0.230506
C70	C	2.311392	-0.386836	-0.125499
H71	H	2.349089	-0.403479	-0.276547
H72	H	2.233918	-0.339028	-0.254258
H73	H	2.219471	-0.448827	-0.231941
H74	H	2.367495	-0.333215	-0.124063
H75	H	2.353074	-0.443012	-0.101748
O76	O	1.916350	0.012083	-0.106313
C77	C	1.832556	0.026806	-0.016930
H78	H	1.785672	-0.044166	0.014985
H79	H	1.887915	0.057822	0.048654
C80	C	1.787158	0.184030	-0.090198
C81	C	1.729567	0.096862	-0.051004
H82	H	1.723633	0.227247	-0.111214
H83	H	1.843616	0.174113	-0.150415
H84	H	1.833289	0.209864	-0.035538
H85	H	1.683451	0.071024	-0.105668
H86	H	1.673099	0.106776	0.009204
H87	H	1.894168	-0.135104	0.177952
O88	O	1.912505	-0.116903	-0.192603
C89	C	1.971058	-0.064976	-0.283477
H90	H	2.001444	0.008932	-0.260613
H91	H	2.058141	-0.104334	-0.314091
C92	C	1.839014	-0.145699	-0.400356
C93	C	1.876325	-0.054921	-0.372276
H94	H	1.780582	-0.139500	-0.455134
H95	H	1.799568	-0.180686	-0.339133
H96	H	1.911593	-0.178488	-0.425861
H97	H	1.803750	-0.022139	-0.346759
H98	H	1.915757	-0.019928	-0.433497
O99	O	2.131444	-0.003565	0.101806
C100	C	2.216844	0.016374	0.011403
H101	H	2.254809	-0.053342	-0.017998
H102	H	2.165413	0.055681	-0.055264
C103	C	2.281695	0.164856	0.078533
C104	C	2.328331	0.079230	0.042428
H105	H	2.350462	0.203633	0.097668
H106	H	2.224156	0.151425	0.139437
H107	H	2.238836	0.197600	0.022971
H108	H	2.371175	0.046482	0.097994
H109	H	2.385880	0.092657	-0.018467
H110	H	1.904557	-0.016949	0.108652
