data_functionalizedCrystal
_audit_creation_method	'MofGen! by Chris Wilmer'
_symmetry_space_group_name_H-M	'P1'
_symmetry_Int_Tables_number	1
_symmetry_cell_setting	triclinic
loop_
_symmetry_equiv_pos_as_xyz
  x,y,z
_cell_length_a	16.120444
_cell_length_b	21.295420
_cell_length_c	16.120256
_cell_angle_alpha	92.878456
_cell_angle_beta	95.616860
_cell_angle_gamma	92.922386
loop_
_atom_site_label
_atom_site_type_symbol
_atom_site_fract_x
_atom_site_fract_y
_atom_site_fract_z
Zn1	Zn	-0.356856	0.929939	-0.489469
Zn2	Zn	0.143144	1.429939	0.010531
Zn3	Zn	-0.489542	0.929858	-0.356780
Zn4	Zn	0.010458	1.429858	0.143220
Zn5	Zn	-0.349778	0.830293	-0.349713
Zn6	Zn	0.150222	1.330293	0.150287
Zn7	Zn	-0.496577	0.819020	-0.496503
Zn8	Zn	0.003423	1.319020	0.003497
O9	O	-0.423188	0.877277	-0.423116
O10	O	0.076812	1.377277	0.076884
O11	O	-0.374475	1.018016	-0.471881
O12	O	0.125525	1.518016	0.028119
O13	O	-0.465096	0.921334	-0.238880
O14	O	0.034904	1.421334	0.261120
O15	O	-0.233751	0.848263	-0.362351
O16	O	0.266249	1.348263	0.137649
O17	O	-0.471959	1.017957	-0.374396
O18	O	0.028041	1.517957	0.125604
O19	O	-0.238951	0.921472	-0.465029
O20	O	0.261049	1.421472	0.034971
O21	O	-0.362412	0.848184	-0.233688
O22	O	0.137588	1.348184	0.266312
O23	O	-0.369233	0.740709	-0.369171
O24	O	0.130767	1.240709	0.130829
O25	O	-0.483949	0.829050	-0.612532
O26	O	0.016051	1.329050	-0.112532
O27	O	-0.477085	0.732427	-0.477017
O28	O	0.022915	1.232427	0.022983
O29	O	-0.381296	0.910541	-0.607365
O30	O	0.118704	1.410541	-0.107365
O31	O	-0.607441	0.910403	-0.381216
O32	O	-0.107441	1.410403	0.118784
O33	O	-0.612609	0.828971	-0.483870
O34	O	-0.112609	1.328971	0.016130
C35	C	-0.423155	0.713728	-0.423091
C36	C	0.076845	1.213728	0.076909
C37	C	-0.423162	0.643759	-0.423101
C38	C	0.076838	1.143759	0.076899
C39	C	-0.372559	0.144321	-0.473983
C40	C	0.127441	0.644321	0.026017
C41	C	-0.372553	0.210064	-0.473983
C42	C	0.127447	0.710064	0.026017
C43	C	-0.423214	0.242916	-0.423137
C44	C	0.076786	0.742916	0.076863
C45	C	-0.473902	0.210020	-0.372304
C46	C	0.026098	0.710020	0.127696
C47	C	-0.473913	0.144278	-0.372312
C48	C	0.026087	0.644278	0.127688
N49	N	-0.425801	0.348802	-0.350270
N50	N	0.074199	0.848802	0.149730
N51	N	-0.425786	0.411254	-0.350264
N52	N	0.074214	0.911254	0.149736
C53	C	-0.423186	0.440993	-0.423111
C54	C	0.076814	0.940993	0.076889
N55	N	-0.420585	0.405921	-0.495965
N56	N	0.079415	0.905921	0.004035
N57	N	-0.420596	0.343463	-0.495969
N58	N	0.079404	0.843463	0.004031
C59	C	-0.423209	0.314202	-0.423123
C60	C	0.076791	0.814202	0.076877
C61	C	-0.372499	0.545167	-0.473945
C62	C	0.127501	1.045167	0.026055
C63	C	-0.372499	0.610911	-0.473946
C64	C	0.127501	1.110911	0.026054
C65	C	-0.473843	0.610866	-0.372260
C66	C	0.026157	1.110866	0.127740
C67	C	-0.473848	0.545123	-0.372266
C68	C	0.026152	1.045123	0.127734
C69	C	-0.423172	0.512278	-0.423107
C70	C	0.076828	1.012278	0.076893
C71	C	-0.640354	0.868471	-0.434091
C72	C	-0.140354	1.368471	0.065909
C73	C	-0.733259	0.864761	-0.438814
C74	C	-0.233259	1.364761	0.061186
C75	C	-0.942171	0.896674	-0.398795
C76	C	-0.442171	1.396674	0.101205
C77	C	-0.903354	0.857997	-0.447446
C78	C	-0.403354	1.357997	0.052554
C79	C	-0.808705	0.861761	-0.442642
C80	C	-0.308705	1.361761	0.057358
C81	C	-1.036829	0.892910	-0.403598
C82	C	-0.536829	1.392910	0.096402
C83	C	-0.205175	0.886134	-0.412117
C84	C	0.294825	1.386134	0.087883
C85	C	-0.112271	0.889908	-0.407429
C86	C	0.387729	1.389908	0.092571
C87	C	-0.434197	0.868547	-0.641123
C88	C	0.065803	1.368547	-0.141123
C89	C	-0.438888	0.864827	-0.734025
C90	C	0.061112	1.364827	-0.234025
C91	C	-0.423222	1.041465	-0.423142
C92	C	0.076778	1.541465	0.076858
C93	C	-0.423236	1.111432	-0.423153
C94	C	0.076764	1.611432	0.076847
C95	C	-0.398702	0.896678	-0.942951
C96	C	0.101298	1.396678	-0.442951
C97	C	-0.447418	0.858014	-0.904110
C98	C	0.052582	1.358014	-0.404110
C99	C	-0.442671	0.861806	-0.809466
C100	C	0.057329	1.361806	-0.309466
C101	C	-0.403449	0.892888	-1.037603
C102	C	0.096551	1.392888	-0.537603
C103	C	-0.412162	0.886012	-0.205954
C104	C	0.087838	1.386012	0.294046
C105	C	-0.407235	0.889864	-0.113041
C106	C	0.092765	1.389864	0.386959
H107	H	-0.331298	0.117582	-0.515385
H108	H	0.168702	0.617582	-0.015385
H109	H	-0.492686	0.822063	-0.941937
H110	H	0.007314	1.322063	-0.441937
N111	N	-0.338749	0.944302	-0.892851
N112	N	0.161251	1.444302	-0.392851
H113	H	-0.306898	0.969581	-0.931956
H114	H	0.193102	1.469581	-0.431956
H115	H	-0.298279	0.921677	-0.854658
H116	H	0.201721	1.421677	-0.354658
N117	N	-0.317893	0.245547	-0.528809
N118	N	0.182107	0.745547	-0.028809
H119	H	-0.285794	0.214764	-0.561018
H120	H	0.214206	0.714764	-0.061018
H121	H	-0.277446	0.275744	-0.492880
H122	H	0.222554	0.775744	0.007120
H123	H	-0.515153	0.236772	-0.330908
H124	H	-0.015153	0.736772	0.169092
N125	N	-0.953493	0.810385	-0.507387
N126	N	-0.453493	1.310385	-0.007387
H127	H	-0.937751	0.766529	-0.493591
H128	H	-0.437751	1.266529	0.006409
H129	H	-0.941322	0.818372	-0.566344
H130	H	-0.441322	1.318372	-0.066344
H131	H	-0.331234	0.637687	-0.515344
H132	H	0.168766	1.137687	-0.015344
N133	N	-0.528494	0.509649	-0.317427
N134	N	-0.028494	1.009649	0.182573
H135	H	-0.520814	0.463017	-0.325146
H136	H	-0.020814	0.963017	0.174854
H137	H	-0.588860	0.518210	-0.333355
H138	H	-0.088860	1.018210	0.166645
H139	H	-0.515182	0.117500	-0.330919
H140	H	-0.015182	0.617500	0.169081
N141	N	-0.892042	0.944278	-0.338846
N142	N	-0.392042	1.444278	0.161154
H143	H	-0.830555	0.940250	-0.343871
H144	H	-0.330555	1.440250	0.156129
H145	H	-0.904267	0.936311	-0.279899
H146	H	-0.404267	1.436311	0.220101
H147	H	-0.331235	0.518423	-0.515342
H148	H	0.168765	1.018423	-0.015342
H149	H	-0.515099	0.637614	-0.330867
H150	H	-0.015099	1.137614	0.169133
