data_functionalizedCrystal
_audit_creation_method	'MofGen! by Chris Wilmer'
_symmetry_space_group_name_H-M	'P1'
_symmetry_Int_Tables_number	1
_symmetry_cell_setting	triclinic
loop_
_symmetry_equiv_pos_as_xyz
  x,y,z
_cell_length_a	9.798715
_cell_length_b	9.065218
_cell_length_c	9.065218
_cell_angle_alpha	94.984115
_cell_angle_beta	90.001303
_cell_angle_gamma	89.996228
loop_
_atom_site_label
_atom_site_type_symbol
_atom_site_fract_x
_atom_site_fract_y
_atom_site_fract_z
O1	O	0.113488	-1.960400	0.216354
O2	O	0.113490	-1.531115	0.234100
O3	O	0.113486	-1.754631	0.010584
O4	O	0.113492	-1.736884	0.439869
O5	O	-0.113496	-1.754614	0.010584
O6	O	-0.113492	-1.531098	0.234099
O7	O	-0.113494	-1.960383	0.216353
Zn8	Zn	-0.149531	-1.745738	0.225226
Zn9	Zn	0.149527	-1.745760	0.225227
O10	O	-0.113490	-1.736868	0.439869
C11	C	-0.000001	-1.476120	0.232394
C12	C	-0.000000	-1.312277	0.227294
N13	N	-0.353631	-1.745734	0.225225
C14	C	-0.000003	-1.752917	-0.044403
C15	C	0.000004	-1.747817	-0.208245
C16	C	-0.421409	-1.839580	0.130961
C17	C	-0.578572	-1.839604	0.130956
N18	N	0.353627	-1.745776	0.225217
C19	C	0.000000	-2.015378	0.218059
C20	C	0.000008	-2.179221	0.223158
C21	C	0.000002	-1.738582	0.494855
C22	C	0.000004	-1.743681	0.658698
H23	H	-0.363088	-1.919903	0.050255
O24	O	-0.647949	-1.935392	0.034468
C25	C	-0.691990	-2.017629	-0.221031
C26	C	-0.613308	-1.909086	-0.111917
H27	H	-0.664033	-1.996379	-0.339407
H28	H	-0.663930	-2.136207	-0.200650
H29	H	-0.806345	-2.000588	-0.203804
H30	H	-0.498934	-1.925992	-0.129081
H31	H	-0.641481	-1.790548	-0.132326
O32	O	-0.576707	-1.650120	0.321570
C33	C	-0.415288	-1.622095	0.522590
C34	C	-0.494086	-1.730587	0.413532
H35	H	-0.348492	-1.687110	0.596990
H36	H	-0.348309	-1.547418	0.458096
H37	H	-0.490816	-1.551426	0.593491
H38	H	-0.418657	-1.801353	0.342604
H39	H	-0.561086	-1.805163	0.478115
O40	O	-0.423350	-1.649833	0.321299
C41	C	-0.584816	-1.448903	0.350277
C42	C	-0.505974	-1.557450	0.241308
H43	H	-0.651615	-1.374162	0.285648
H44	H	-0.651797	-1.513809	0.424587
H45	H	-0.509317	-1.378307	0.421283
H46	H	-0.581375	-1.628072	0.170205
H47	H	-0.438973	-1.492455	0.167100
