data_functionalizedCrystal
_audit_creation_method	'MofGen! by Chris Wilmer'
_symmetry_space_group_name_H-M	'P1'
_symmetry_Int_Tables_number	1
_symmetry_cell_setting	triclinic
loop_
_symmetry_equiv_pos_as_xyz
  x,y,z
_cell_length_a	10.686220
_cell_length_b	18.050589
_cell_length_c	10.686551
_cell_angle_alpha	85.596139
_cell_angle_beta	90.308082
_cell_angle_gamma	94.409750
loop_
_atom_site_label
_atom_site_type_symbol
_atom_site_fract_x
_atom_site_fract_y
_atom_site_fract_z
Zn1	Zn	1.972217	-0.181059	-0.562396
Zn2	Zn	1.955936	-0.315479	-0.352644
Zn3	Zn	1.746328	-0.200057	-0.368714
Zn4	Zn	1.762366	-0.313974	-0.578422
O5	O	1.859212	-0.252642	-0.465544
O6	O	2.145602	-0.191569	-0.521139
O7	O	1.914605	-0.308749	-0.179231
O8	O	1.776395	-0.093607	-0.394425
O9	O	2.133640	-0.290327	-0.367036
O10	O	1.942354	-0.079649	-0.536722
O11	O	1.760607	-0.223949	-0.191038
O12	O	1.572911	-0.222489	-0.409965
O13	O	1.803729	-0.287762	-0.751841
O14	O	1.584694	-0.306184	-0.564036
O15	O	1.957906	-0.190110	-0.740067
O16	O	1.930156	-0.419209	-0.382576
O17	O	1.787942	-0.418104	-0.548454
C18	C	1.533286	-0.266235	-0.490484
C19	C	1.393856	-0.272067	-0.501183
C20	C	1.859059	-0.445602	-0.465535
C21	C	1.859111	-0.528144	-0.465564
C22	C	1.781855	-0.727018	-0.555733
C23	C	1.742482	-0.783311	-0.443604
C24	C	1.859236	-0.679268	-0.465571
C25	C	1.898671	-0.770054	-0.577708
C26	C	1.859354	-0.825247	-0.465588
C27	C	1.819798	-0.734480	-0.353387
C28	C	1.976046	-0.721212	-0.487563
C29	C	1.936711	-0.777484	-0.375352
C30	C	1.859164	-0.595174	-0.465563
C31	C	1.859425	-0.909341	-0.465583
C32	C	2.186411	-0.238997	-0.440508
C33	C	2.325843	-0.233182	-0.429838
C34	C	1.884423	-0.236649	-0.792743
C35	C	1.895166	-0.229833	-0.932176
C36	C	1.859402	-0.058926	-0.465578
C37	C	1.859483	0.023624	-0.465593
C38	C	1.834171	-0.268517	-0.139612
C39	C	1.823671	-0.275113	-0.000161
H40	H	1.716305	-0.704886	-0.631887
C41	C	1.987668	-0.171075	-0.996638
C42	C	1.958019	-0.100269	-0.966931
C43	C	2.043212	-0.046125	-1.026275
H44	H	1.982914	-0.174027	-1.084921
H45	H	2.070331	-0.179419	-0.968741
H46	H	1.875377	-0.091927	-0.994835
H47	H	1.962782	-0.097293	-0.878659
H48	H	2.125875	-0.054469	-0.998378
H49	H	2.038451	-0.049084	-1.114556
H50	H	2.023114	0.001922	-1.006118
H51	H	1.754245	-0.319095	-0.951696
C52	C	1.610911	-0.819462	-0.418547
C53	C	1.611353	-0.867059	-0.308764
C54	C	1.490169	-0.900364	-0.285643
H55	H	1.584437	-0.847298	-0.487140
H56	H	1.554881	-0.781926	-0.408717
H57	H	1.667364	-0.904590	-0.318602
H58	H	1.637804	-0.839241	-0.240149
H59	H	1.434138	-0.862828	-0.275813
H60	H	1.463704	-0.928196	-0.354242
H61	H	1.490450	-0.932657	-0.211148
H62	H	1.786378	-0.718720	-0.258543
H63	H	1.374283	-0.195430	-0.360571
H64	H	2.074755	-0.694126	-0.506203
C65	C	1.329214	-0.322283	-0.593709
C66	C	1.260257	-0.279477	-0.679950
C67	C	1.200706	-0.325707	-0.765211
H68	H	1.274277	-0.359075	-0.549662
H69	H	1.390543	-0.345880	-0.637111
H70	H	1.198935	-0.255892	-0.636552
H71	H	1.315165	-0.242686	-0.724028
H72	H	1.262035	-0.349304	-0.808614
H73	H	1.145775	-0.362497	-0.721153
H74	H	1.153921	-0.296669	-0.823743
C75	C	2.023845	-0.806811	-0.273407
C76	C	1.982059	-0.788905	-0.156301
C77	C	2.062279	-0.815918	-0.062356
H78	H	2.106520	-0.784705	-0.288177
H79	H	2.023914	-0.859396	-0.274335
H80	H	1.982004	-0.736330	-0.155375
H81	H	1.899395	-0.811010	-0.141490
H82	H	2.062347	-0.868503	-0.063285
H83	H	2.144949	-0.793810	-0.077139
H84	H	2.033932	-0.803779	0.017111
C85	C	1.942926	-0.791094	-0.704267
C86	C	1.861526	-0.765522	-0.798286
C87	C	1.902252	-0.784879	-0.914892
H88	H	1.943378	-0.843738	-0.703296
H89	H	2.025319	-0.768914	-0.720571
H90	H	1.779154	-0.787704	-0.781987
H91	H	1.861064	-0.712880	-0.799297
H92	H	1.984646	-0.762699	-0.931195
H93	H	1.902703	-0.837523	-0.913907
H94	H	1.847035	-0.767525	-0.978698
