data_functionalizedCrystal
_audit_creation_method	'MofGen! by Chris Wilmer'
_symmetry_space_group_name_H-M	'P1'
_symmetry_Int_Tables_number	1
_symmetry_cell_setting	triclinic
loop_
_symmetry_equiv_pos_as_xyz
  x,y,z
_cell_length_a	19.077432
_cell_length_b	12.827893
_cell_length_c	12.827885
_cell_angle_alpha	90.019462
_cell_angle_beta	92.332375
_cell_angle_gamma	87.727222
loop_
_atom_site_label
_atom_site_type_symbol
_atom_site_fract_x
_atom_site_fract_y
_atom_site_fract_z
Zn1	Zn	-0.280160	1.614302	0.574116
Zn2	Zn	0.219840	2.114302	1.074116
Zn3	Zn	-0.397873	1.621183	0.392346
Zn4	Zn	0.102127	2.121183	0.892346
Zn5	Zn	-0.280195	1.439545	0.399387
Zn6	Zn	0.219805	1.939545	0.899387
Zn7	Zn	-0.397820	1.446513	0.567049
Zn8	Zn	0.102180	1.946513	1.067049
O9	O	-0.339012	1.530386	0.483224
O10	O	0.160988	2.030386	0.983224
O11	O	-0.295782	1.761451	0.550014
O12	O	0.204218	2.261451	1.050014
O13	O	-0.382299	1.597052	0.247041
O14	O	0.117701	2.097052	0.747041
O15	O	-0.181700	1.456931	0.428470
O16	O	0.318300	1.956931	0.928470
O17	O	-0.382265	1.766507	0.416468
O18	O	0.117735	2.266507	0.916468
O19	O	-0.181674	1.585324	0.556842
O20	O	0.318326	2.085324	1.056842
O21	O	-0.295842	1.463603	0.252215
O22	O	0.204158	1.963603	0.752215
O23	O	-0.295791	1.294233	0.421617
O24	O	0.204209	1.794233	0.921617
O25	O	-0.382176	1.468807	0.714224
O26	O	0.117824	1.968807	1.214224
O27	O	-0.382210	1.299352	0.544797
O28	O	0.117790	1.799352	1.044797
O29	O	-0.295731	1.592081	0.719417
O30	O	0.204269	2.092081	1.219417
O31	O	-0.496356	1.603808	0.409616
O32	O	0.003644	2.103808	0.909616
O33	O	-0.496317	1.475479	0.537969
O34	O	0.003683	1.975479	1.037969
C35	C	-0.338999	1.258875	0.483205
C36	C	0.161001	1.758875	0.983205
C37	C	-0.339010	1.142722	0.483221
C38	C	0.160990	1.642722	0.983221
C39	C	-0.296291	1.088440	0.549398
C40	C	0.203709	1.588440	1.049398
C41	C	-0.296302	0.968391	0.549416
C42	C	0.203698	1.468391	1.049416
C43	C	-0.521874	1.541175	0.472284
C44	C	-0.021874	2.041175	0.972284
C45	C	-0.600103	1.545886	0.467639
C46	C	-0.100103	2.045886	0.967639
C47	C	-0.636860	1.481240	0.532228
C48	C	-0.136860	1.981240	1.032228
C49	C	-0.710365	1.485671	0.527859
C50	C	-0.210365	1.985671	1.027859
C51	C	-0.747110	1.554755	0.458906
C52	C	-0.247110	2.054755	0.958906
C53	C	-0.710347	1.619404	0.394309
C54	C	-0.210347	2.119404	0.894309
C55	C	-0.636844	1.614967	0.398674
C56	C	-0.136844	2.114967	0.898674
C57	C	-0.966941	1.575191	0.438688
C58	C	-0.466941	2.075191	0.938688
C59	C	-1.040449	1.579626	0.434331
C60	C	-0.540449	2.079626	0.934331
C61	C	-1.040461	1.445891	0.567880
C62	C	-0.540461	1.945891	1.067880
C63	C	-0.966957	1.441464	0.572243
C64	C	-0.466957	1.941464	1.072243
C65	C	-0.930200	1.506109	0.507643
C66	C	-0.430200	2.006109	1.007643
N67	N	-0.822244	1.559288	0.454441
N68	N	-0.322244	2.059288	0.954441
N69	N	-0.855068	1.501570	0.512103
N70	N	-0.355068	2.001570	1.012103
C71	C	-0.155436	1.519583	0.494230
C72	C	0.344564	2.019583	0.994230
C73	C	-0.077207	1.514979	0.498920
C74	C	0.422793	2.014979	0.998920
C75	C	-0.338944	1.530454	0.755799
C76	C	0.161056	2.030454	1.255799
C77	C	-0.338915	1.530483	0.871954
C78	C	0.161085	2.030483	1.371954
C79	C	-0.339025	1.802956	0.483244
C80	C	0.160975	2.302956	0.983244
C81	C	-0.339031	1.919110	0.483253
C82	C	0.160969	2.419110	0.983253
C83	C	-0.339029	1.530375	0.211713
C84	C	0.160971	2.030375	0.711713
C85	C	-0.338860	1.530537	0.095571
C86	C	0.161140	2.030537	0.595571
C87	C	-0.381673	1.469502	0.921170
C88	C	0.118327	1.969502	1.421170
C89	C	-0.381644	1.469531	1.041222
C90	C	0.118356	1.969531	1.541222
H91	H	-0.606947	1.424989	0.588382
H92	H	-0.106947	1.924989	1.088382
H93	H	-0.740271	1.675649	0.338161
H94	H	-0.240271	2.175649	0.838161
H95	H	-0.302248	1.582742	1.053243
H96	H	0.197752	2.082742	1.553243
C97	C	-0.415890	1.294633	1.072967
C98	C	0.084110	1.794633	1.572967
C99	C	-0.431064	1.399049	1.098367
C100	C	0.068936	1.899049	1.598367
H101	H	-0.446399	1.251121	1.108254
H102	H	0.053601	1.751121	1.608254
H103	H	-0.422398	1.285373	0.999796
H104	H	0.077602	1.785373	1.499796
H105	H	-0.368583	1.276588	1.093642
H106	H	0.131417	1.776588	1.593642
H107	H	-0.478369	1.417096	1.077685
H108	H	0.021631	1.917096	1.577685
H109	H	-0.424562	1.408314	1.171554
H110	H	0.075438	1.908314	1.671554
H111	H	-0.259732	0.921719	0.606076
H112	H	0.240268	1.421719	1.106076
C113	C	-0.793105	1.350091	0.537355
C114	C	-0.293105	1.850091	1.037355
C115	C	-0.750771	1.414617	0.598863
C116	C	-0.250771	1.914617	1.098863
H117	H	-0.818047	1.306221	0.581194
H118	H	-0.318047	1.806221	1.081194
H119	H	-0.825503	1.391866	0.495669
H120	H	-0.325503	1.891866	0.995669
H121	H	-0.764471	1.308411	0.493499
H122	H	-0.264471	1.808411	0.993499
H123	H	-0.779406	1.456303	0.642714
H124	H	-0.279406	1.956303	1.142714
H125	H	-0.718370	1.372837	0.640567
H126	H	-0.218370	1.872837	1.140567
C127	C	-0.427893	1.158637	0.345553
C128	C	0.072107	1.658637	0.845553
C129	C	-0.388396	1.085492	0.406747
C130	C	0.111604	1.585492	0.906747
H131	H	-0.458379	1.123305	0.298336
H132	H	0.041621	1.623305	0.798336
H133	H	-0.454872	1.202823	0.389359
H134	H	0.045128	1.702823	0.889359
H135	H	-0.397212	1.199378	0.307447
H136	H	0.102788	1.699378	0.807447
H137	H	-0.419078	1.044756	0.444859
H138	H	0.080922	1.544756	0.944859
H139	H	-0.361415	1.041288	0.362935
H140	H	0.138585	1.541288	0.862935
C141	C	-0.244285	1.539346	1.000498
C142	C	0.255715	2.039346	1.500498
C143	C	-0.289460	1.600991	0.935039
C144	C	0.210540	2.100991	1.435039
H145	H	-0.213750	1.582878	1.039436
H146	H	0.286250	2.082878	1.539436
H147	H	-0.271108	1.501106	1.046929
H148	H	0.228892	2.001106	1.546929
H149	H	-0.217350	1.492259	0.959517
H150	H	0.282650	1.992259	1.459517
H151	H	-0.316399	1.648073	0.976021
H152	H	0.183601	2.148073	1.476021
H153	H	-0.262634	1.639249	0.888603
H154	H	0.237366	2.139249	1.388603
H155	H	-0.418304	1.417277	0.874428
H156	H	0.081696	1.917277	1.374428
H157	H	-0.375610	0.965775	0.426599
H158	H	0.124390	1.465775	0.926599
C159	C	-0.974355	1.309689	0.703783
C160	C	-0.474355	1.809689	1.203783
C161	C	-0.926569	1.365506	0.648021
C162	C	-0.426569	1.865506	1.148021
H163	H	-0.949420	1.262789	0.750558
H164	H	-0.449420	1.762789	1.250558
H165	H	-1.002968	1.356919	0.742110
H166	H	-0.502968	1.856919	1.242110
H167	H	-1.003079	1.271489	0.656496
H168	H	-0.503079	1.771489	1.156496
H169	H	-0.897848	1.403712	0.695307
H170	H	-0.397848	1.903712	1.195307
H171	H	-0.897944	1.318269	0.609692
H172	H	-0.397944	1.818269	1.109692
H173	H	-0.259708	1.130844	0.606038
H174	H	0.240292	1.630844	1.106038
H175	H	-1.070396	1.393259	0.620473
H176	H	-0.570396	1.893259	1.120473
C177	C	-0.884362	1.584810	0.303018
C178	C	-0.384362	2.084810	0.803018
C179	C	-0.926548	1.646256	0.367683
C180	C	-0.426548	2.146256	0.867683
H181	H	-0.859429	1.628689	0.259177
H182	H	-0.359429	2.128689	0.759177
H183	H	-0.851957	1.543045	0.344702
H184	H	-0.351957	2.043045	0.844702
H185	H	-0.913095	1.541037	0.261308
H186	H	-0.413095	2.041037	0.761308
H187	H	-0.897815	1.690025	0.409399
H188	H	-0.397815	2.190025	0.909399
H189	H	-0.958957	1.688040	0.325995
H190	H	-0.458957	2.188040	0.825995
C191	C	-0.644210	1.747607	0.266233
C192	C	-0.144210	2.247607	0.766233
C193	C	-0.596437	1.686029	0.327676
C194	C	-0.096437	2.186029	0.827676
H195	H	-0.619264	1.791479	0.222403
H196	H	-0.119264	2.291479	0.722403
H197	H	-0.672929	1.703831	0.224520
H198	H	-0.172929	2.203831	0.724520
H199	H	-0.672830	1.789284	0.310110
H200	H	-0.172830	2.289284	0.810110
H201	H	-0.567821	1.644346	0.283799
H202	H	-0.067821	2.144346	0.783799
H203	H	-0.567707	1.729810	0.369393
H204	H	-0.067707	2.229810	0.869393
H205	H	-1.070365	1.635888	0.378181
H206	H	-0.570365	2.135888	0.878181
