data_functionalizedCrystal
_audit_creation_method	'MofGen! by Chris Wilmer'
_symmetry_space_group_name_H-M	'P1'
_symmetry_Int_Tables_number	1
_symmetry_cell_setting	triclinic
loop_
_symmetry_equiv_pos_as_xyz
  x,y,z
_cell_length_a	16.625546
_cell_length_b	14.908571
_cell_length_c	14.908308
_cell_angle_alpha	89.824947
_cell_angle_beta	93.264070
_cell_angle_gamma	93.281505
loop_
_atom_site_label
_atom_site_type_symbol
_atom_site_fract_x
_atom_site_fract_y
_atom_site_fract_z
Zn1	Zn	-0.420778	-1.345280	-0.587557
Zn2	Zn	0.079222	-0.845280	-0.087557
Zn3	Zn	-0.548312	-1.353856	-0.437189
Zn4	Zn	-0.048312	-0.853856	0.062811
Zn5	Zn	-0.405291	-1.203596	-0.428555
Zn6	Zn	0.094709	-0.703596	0.071445
Zn7	Zn	-0.547354	-1.194884	-0.578841
Zn8	Zn	-0.047354	-0.694884	-0.078841
O9	O	-0.480434	-1.274404	-0.508036
O10	O	0.019566	-0.774404	-0.008036
O11	O	-0.444578	-1.472243	-0.574871
O12	O	0.055422	-0.972243	-0.074871
O13	O	-0.523260	-1.341159	-0.310220
O14	O	-0.023260	-0.841159	0.189780
O15	O	-0.294517	-1.222448	-0.449681
O16	O	0.205483	-0.722448	0.050319
O17	O	-0.538277	-1.478544	-0.464397
O18	O	-0.038277	-0.978544	0.035603
O19	O	-0.305896	-1.326543	-0.566499
O20	O	0.194104	-0.826543	-0.066499
O21	O	-0.418182	-1.230763	-0.303876
O22	O	0.081818	-0.730763	0.196124
O23	O	-0.417254	-1.076615	-0.441230
O24	O	0.082746	-0.576615	0.058770
O25	O	-0.536644	-1.207599	-0.705821
O26	O	-0.036644	-0.707599	-0.205821
O27	O	-0.521627	-1.070214	-0.551644
O28	O	-0.021627	-0.570214	-0.051644
O29	O	-0.443649	-1.318095	-0.712225
O30	O	0.056351	-0.818095	-0.212225
O31	O	-0.661013	-1.332711	-0.455945
O32	O	-0.161013	-0.832711	0.044055
O33	O	-0.660309	-1.215914	-0.560016
O34	O	-0.160309	-0.715914	-0.060016
C35	C	-0.689918	-1.274321	-0.507993
C36	C	-0.189918	-0.774321	-0.007993
C37	C	-0.779542	-1.274366	-0.508010
C38	C	-0.279542	-0.774366	-0.008010
C39	C	-0.491767	-1.260918	-0.742560
C40	C	0.008233	-0.760918	-0.242560
C41	C	-0.496597	-1.255172	-0.842501
C42	C	0.003403	-0.755172	-0.342501
C43	C	-0.467656	-1.040789	-0.494555
C44	C	0.032344	-0.540789	0.005445
C45	C	-0.462211	-0.940846	-0.488810
C46	C	0.037789	-0.440846	0.011190
C47	C	-1.107731	-1.274517	-0.508112
C48	C	-0.607731	-0.774517	-0.008112
C49	C	-1.016419	-1.274472	-0.508086
C50	C	-0.516419	-0.774472	-0.008086
C51	C	-0.943640	-1.274441	-0.508060
C52	C	-0.443640	-0.774441	-0.008060
C53	C	-0.852322	-1.274397	-0.508035
C54	C	-0.352322	-0.774397	-0.008035
C55	C	-0.270134	-1.274511	-0.508099
C56	C	0.229866	-0.774511	-0.008099
C57	C	-0.180516	-1.274556	-0.508127
C58	C	0.319484	-0.774556	-0.008127
C59	C	-0.493262	-1.508931	-0.521569
C60	C	0.006738	-1.008931	-0.021569
C61	C	-0.498728	-1.608873	-0.527336
C62	C	0.001272	-1.108873	-0.027336
C63	C	-0.560814	-0.746435	-0.592833
C64	C	-0.060814	-0.246435	-0.092833
C65	C	-0.555700	-0.652530	-0.587437
C66	C	-0.055700	-0.152530	-0.087437
C67	C	-0.446865	-0.659128	-0.472629
C68	C	0.053135	-0.159128	0.027371
C69	C	-0.451979	-0.753033	-0.478024
C70	C	0.048021	-0.253033	0.021976
C71	C	-0.508956	-0.796683	-0.538127
C72	C	-0.008956	-0.296683	-0.038127
C73	C	-0.514074	-0.890591	-0.543517
C74	C	-0.014074	-0.390591	-0.043517
C75	C	-0.405236	-0.897187	-0.428714
C76	C	0.094764	-0.397187	0.071286
C77	C	-0.400121	-0.803282	-0.423318
C78	C	0.099879	-0.303282	0.076682
C79	C	-0.408817	-1.359429	-1.036969
C80	C	0.091183	-0.859429	-0.536969
C81	C	-0.413353	-1.354033	-1.130872
C82	C	0.086647	-0.854033	-0.630872
C83	C	-0.510198	-1.238977	-1.124211
C84	C	-0.010198	-0.738977	-0.624211
C85	C	-0.505662	-1.244374	-1.030308
C86	C	-0.005662	-0.744374	-0.530308
C87	C	-0.454971	-1.304603	-0.986690
C88	C	0.045029	-0.804603	-0.486690
C89	C	-0.450441	-1.310004	-0.892786
C90	C	0.049559	-0.810004	-0.392786
C91	C	-0.547281	-1.194945	-0.886127
C92	C	-0.047281	-0.694945	-0.386127
C93	C	-0.551817	-1.189548	-0.980030
C94	C	-0.051817	-0.689548	-0.480030
C95	C	-0.469089	-1.287889	-0.274426
C96	C	0.030911	-0.787889	0.225574
C97	C	-0.464042	-1.293810	-0.174497
C98	C	0.035958	-0.793810	0.325503
H99	H	-0.607211	-0.781976	-0.641766
H100	H	-0.107211	-0.281976	-0.141766
C101	C	-0.351712	-0.783088	-0.269479
C102	C	0.148288	-0.283088	0.230521
C103	C	-0.337495	-0.755296	-0.357255
C104	C	0.162505	-0.255296	0.142745
H105	H	-0.313045	-0.753468	-0.228694
H106	H	0.186955	-0.253468	0.271306
H107	H	-0.404383	-0.768438	-0.255339
H108	H	0.095617	-0.268438	0.244661
H109	H	-0.347335	-0.846207	-0.264872
H110	H	0.152665	-0.346207	0.235128
H111	H	-0.341878	-0.692178	-0.361864
H112	H	0.158122	-0.192178	0.138136
H113	H	-0.284811	-0.769940	-0.371399
H114	H	0.215189	-0.269940	0.128601
C115	C	-0.584172	-1.035613	-1.000151
C116	C	-0.084172	-0.535613	-0.500151
C117	C	-0.607535	-1.123348	-1.027980
C118	C	-0.107535	-0.623348	-0.527980
H119	H	-0.618571	-0.994745	-1.029757
H120	H	-0.118571	-0.494745	-0.529757
H121	H	-0.588082	-1.030988	-0.937038
H122	H	-0.088082	-0.530988	-0.437038
H123	H	-0.530023	-1.021600	-1.014801
H124	H	-0.030023	-0.521600	-0.514801
H125	H	-0.661683	-1.137362	-1.013324
H126	H	-0.161683	-0.637362	-0.513324
H127	H	-0.603634	-1.127975	-1.091107
H128	H	-0.103634	-0.627975	-0.591107
C129	C	-0.663792	-0.655444	-0.701460
C130	C	-0.163792	-0.155444	-0.201460
C131	C	-0.612704	-0.597295	-0.647570
C132	C	-0.112704	-0.097295	-0.147570
H133	H	-0.698986	-0.621343	-0.738582
H134	H	-0.198986	-0.121343	-0.238582
H135	H	-0.632367	-0.690104	-0.738023
H136	H	-0.132367	-0.190104	-0.238023
H137	H	-0.694678	-0.694311	-0.664320
H138	H	-0.194678	-0.194311	-0.164320
H139	H	-0.581813	-0.558433	-0.684711
H140	H	-0.081813	-0.058433	-0.184711
H141	H	-0.644132	-0.562620	-0.611003
H142	H	-0.144132	-0.062620	-0.111003
H143	H	-0.409167	-1.359047	-0.857274
H144	H	0.090833	-0.859047	-0.357274
H145	H	-0.375767	-1.398676	-1.171805
H146	H	0.124233	-0.898676	-0.671805
C147	C	-0.621129	-0.874632	-0.656468
C148	C	-0.121129	-0.374632	-0.156468
C149	C	-0.576697	-0.938574	-0.609586
C150	C	-0.076697	-0.438574	-0.109586
H151	H	-0.659785	-0.904255	-0.697262
H152	H	-0.159785	-0.404255	-0.197262
H153	H	-0.648029	-0.840248	-0.615130
H154	H	-0.148029	-0.340248	-0.115130
H155	H	-0.585704	-0.836039	-0.688819
H156	H	-0.085704	-0.336039	-0.188819
H157	H	-0.612122	-0.977163	-0.577230
H158	H	-0.112122	-0.477163	-0.077230
H159	H	-0.549796	-0.972973	-0.650930
H160	H	-0.049796	-0.472973	-0.150930
C161	C	-0.390661	-0.518099	-0.413442
C162	C	0.109339	-0.018099	0.086558
C163	C	-0.384210	-0.611135	-0.406604
C164	C	0.115790	-0.111135	0.093396
H165	H	-0.351974	-0.488472	-0.372686
H166	H	0.148026	0.011528	0.127314
H167	H	-0.381055	-0.499282	-0.473003
H168	H	0.118945	0.000718	0.026997
H169	H	-0.443329	-0.503448	-0.399260
H170	H	0.056671	-0.003448	0.100740
H171	H	-0.331544	-0.625786	-0.420793
H172	H	0.168456	-0.125786	0.079207
H173	H	-0.393810	-0.629959	-0.347029
H174	H	0.106190	-0.129959	0.152971
H175	H	-0.363011	-0.938110	-0.384166
H176	H	0.136989	-0.438110	0.115834
C177	C	-0.313550	-1.472620	-1.052980
C178	C	0.186450	-0.972620	-0.552980
C179	C	-0.353102	-1.425632	-0.989018
C180	C	0.146898	-0.925632	-0.489018
H181	H	-0.279150	-1.513487	-1.023376
H182	H	0.220850	-1.013487	-0.523376
H183	H	-0.352328	-1.504890	-1.091577
H184	H	0.147672	-1.004890	-0.591577
H185	H	-0.282336	-1.431346	-1.087357
H186	H	0.217664	-0.931346	-0.587357
H187	H	-0.384321	-1.466906	-0.954645
H188	H	0.115679	-0.966906	-0.454645
H189	H	-0.314318	-1.393360	-0.950405
H190	H	0.185682	-0.893360	-0.450405
H191	H	-0.551467	-1.189942	-1.159741
H192	H	-0.051467	-0.689942	-0.659741
H193	H	-0.584866	-1.150303	-0.845180
H194	H	-0.084866	-0.650303	-0.345180
