data_functionalizedCrystal
_audit_creation_method	'MofGen! by Chris Wilmer'
_symmetry_space_group_name_H-M	'P1'
_symmetry_Int_Tables_number	1
_symmetry_cell_setting	triclinic
loop_
_symmetry_equiv_pos_as_xyz
  x,y,z
_cell_length_a	16.109301
_cell_length_b	15.995350
_cell_length_c	15.186229
_cell_angle_alpha	89.998487
_cell_angle_beta	89.999362
_cell_angle_gamma	83.476928
loop_
_atom_site_label
_atom_site_type_symbol
_atom_site_fract_x
_atom_site_fract_y
_atom_site_fract_z
O1	O	1.103160	0.107624	-0.073168
O2	O	0.861101	0.121018	-0.073182
O3	O	0.988747	-0.007569	-0.073174
O4	O	0.975514	0.236210	-0.073176
O5	O	0.988739	-0.007570	0.073283
O6	O	0.861093	0.121016	0.073275
O7	O	1.103151	0.107622	0.073289
Zn8	Zn	0.982121	0.114319	0.096535
Zn9	Zn	0.982132	0.114321	-0.096428
O10	O	0.975505	0.236208	0.073281
C11	C	0.830122	0.120474	0.000045
C12	C	0.737826	0.118848	0.000040
C13	C	0.515573	0.191366	0.000049
C14	C	0.428853	0.189831	0.000055
C15	C	0.448686	0.037268	0.000053
C16	C	0.535405	0.038804	0.000053
C17	C	0.568846	0.115855	0.000047
C18	C	0.395406	0.112785	0.000052
C19	C	0.301380	0.111120	0.000058
C20	C	0.662879	0.117520	0.000043
C21	C	0.988196	-0.038764	0.000053
C22	C	0.986556	-0.131714	0.000048
C23	C	0.980665	-0.469460	0.000050
C24	C	0.889758	-0.422001	-0.000283
C25	C	0.891399	-0.325311	0.000047
C26	C	0.983587	-0.301900	0.000049
C27	C	1.028421	-0.342991	0.083684
C28	C	1.026137	-0.439626	0.083754
C29	C	1.028025	-0.439983	-0.082795
C30	C	1.028003	-0.343037	-0.083901
C31	C	0.985243	-0.207203	0.000051
C32	C	0.979012	-0.564157	0.000054
C33	C	1.134130	0.108166	0.000060
C34	C	1.226426	0.109792	0.000059
C35	C	0.976056	0.267404	0.000052
C36	C	0.977697	0.360354	0.000051
N37	N	0.982119	0.114317	0.228228
N38	N	0.982140	0.114317	-0.228121
C39	C	1.038660	0.057398	0.453954
C40	C	1.038662	0.057396	0.546144
C41	C	0.925593	0.171238	0.546146
C42	C	0.925587	0.171236	0.453958
C43	C	0.982125	0.114316	0.407865
C44	C	0.982134	0.114317	0.592242
C45	C	0.982136	0.114315	0.692198
C46	C	0.982122	0.114317	0.307902
H47	H	0.578782	-0.022690	0.000054
C48	C	0.845232	-0.199553	-0.080753
C49	C	0.843837	-0.286922	-0.080894
H50	H	0.815875	-0.175859	-0.130731
H51	H	0.819304	-0.176458	-0.028642
H52	H	0.901467	-0.187090	-0.082808
H53	H	0.787602	-0.299385	-0.078833
H54	H	0.869763	-0.310025	-0.133019
C55	C	0.876764	0.316179	0.425560
C56	C	0.863442	0.233808	0.403289
H57	H	0.838401	0.354804	0.394274
H58	H	0.868672	0.324324	0.487052
H59	H	0.932250	0.325276	0.410442
H60	H	0.807957	0.224709	0.418413
H61	H	0.871526	0.225660	0.341783
H62	H	0.853581	-0.441586	0.059355
C63	C	1.088873	0.006844	0.687458
C64	C	1.100807	-0.005170	0.596807
H65	H	1.127236	-0.031789	0.718733
H66	H	1.097902	0.062722	0.702560
H67	H	1.033386	-0.002268	0.702560
H68	H	1.156292	0.003948	0.581704
H69	H	1.091784	-0.061061	0.581699
H70	H	0.542798	0.254106	0.000051
C71	C	0.957834	-0.392109	0.218162
C72	C	0.981983	-0.464327	0.168142
H73	H	0.930569	-0.407356	0.270256
H74	H	1.005850	-0.365865	0.233440
H75	H	0.920691	-0.354134	0.184713
H76	H	1.019131	-0.502299	0.201588
H77	H	0.933960	-0.490584	0.152865
H78	H	0.385481	0.251320	0.000058
C79	C	0.813230	-0.352242	0.129591
C80	C	0.843509	-0.287677	0.081124
H81	H	0.783672	-0.329007	0.179651
H82	H	0.776752	-0.380278	0.093774
H83	H	0.858736	-0.391222	0.148231
H84	H	0.798003	-0.248700	0.062478
H85	H	0.879989	-0.259627	0.116947
H86	H	1.096149	-0.328884	0.086795
C87	C	0.324557	-0.032828	0.000042
C88	C	0.411924	-0.047424	0.000048
H89	H	0.301865	-0.085116	0.000031
H90	H	0.306274	-0.001748	0.051112
H91	H	0.306282	-0.001733	-0.051034
H92	H	0.430200	-0.078515	0.051127
H93	H	0.430214	-0.078518	-0.051028
C94	C	1.172026	-0.422206	0.091900
C95	C	1.116232	-0.483191	0.088894
H96	H	1.227645	-0.449101	0.095083
H97	H	1.165731	-0.388477	0.040334
H98	H	1.160548	-0.387692	0.142334
H99	H	1.127706	-0.517702	0.038457
H100	H	1.122531	-0.516935	0.140466
H101	H	0.853427	-0.440522	-0.060260
C102	C	0.920073	-0.511639	-0.147771
C103	C	0.987905	-0.467689	-0.168373
H104	H	0.895296	-0.528738	-0.200600
H105	H	0.938949	-0.559832	-0.113635
H106	H	0.879963	-0.476146	-0.115116
H107	H	1.028018	-0.503185	-0.201023
H108	H	0.969030	-0.419489	-0.202523
C109	C	0.987118	-0.219094	-0.169687
C110	C	0.983817	-0.306168	-0.167430
H111	H	0.959842	-0.196331	-0.221256
H112	H	0.959967	-0.193979	-0.119134
H113	H	1.043785	-0.207922	-0.170217
H114	H	0.927150	-0.317341	-0.166894
H115	H	1.010966	-0.331292	-0.217997
C116	C	1.136552	-0.271984	-0.019265
C117	C	1.118763	-0.322334	-0.090718
H118	H	1.192587	-0.259209	-0.023468
H119	H	1.099640	-0.221268	-0.019977
H120	H	1.129504	-0.301336	0.034109
H121	H	1.125804	-0.292979	-0.144093
H122	H	1.155685	-0.373057	-0.090015
H123	H	0.997275	-0.314602	0.145921
H124	H	0.879562	0.217582	0.583685
H125	H	1.095050	-0.471762	-0.083356
H126	H	1.084695	0.011050	0.416427
