data_functionalizedCrystal
_audit_creation_method	'MofGen! by Chris Wilmer'
_symmetry_space_group_name_H-M	'P1'
_symmetry_Int_Tables_number	1
_symmetry_cell_setting	triclinic
loop_
_symmetry_equiv_pos_as_xyz
  x,y,z
_cell_length_a	12.811438
_cell_length_b	13.596369
_cell_length_c	12.837942
_cell_angle_alpha	90.005289
_cell_angle_beta	89.411773
_cell_angle_gamma	95.436776
loop_
_atom_site_label
_atom_site_type_symbol
_atom_site_fract_x
_atom_site_fract_y
_atom_site_fract_z
O1	O	1.406653	0.207251	0.139693
O2	O	1.102586	0.180133	0.154880
O3	O	1.247877	0.193085	-0.003645
O4	O	1.261362	0.194299	0.298218
O5	O	1.247860	0.029500	-0.003654
O6	O	1.102569	0.016549	0.154872
O7	O	1.406636	0.043667	0.139684
Zn8	Zn	1.254600	0.004135	0.147277
Zn9	Zn	1.254622	0.219665	0.147288
O10	O	1.261345	0.030715	0.298210
C11	C	1.063388	0.094846	0.154025
C12	C	0.946615	0.084431	0.151475
N13	N	1.254592	-0.142957	0.147268
C14	C	0.782019	-0.019412	0.147878
C15	C	0.891738	-0.009631	0.150274
C16	C	0.891765	0.168719	0.150284
C17	C	0.782046	0.158938	0.147888
C18	C	0.727177	0.064870	0.146684
C19	C	0.617457	0.055090	0.144280
C20	C	0.617485	0.233438	0.144298
C21	C	0.727204	0.243219	0.146694
C22	C	1.254621	-0.544246	0.147289
C23	C	1.254610	-0.432595	0.147287
C24	C	1.254607	-0.343605	0.147279
C25	C	1.254595	-0.231948	0.147276
C26	C	1.445834	0.128956	0.140540
C27	C	1.562607	0.139377	0.143089
C28	C	1.243313	0.110887	-0.042290
C29	C	1.229727	0.109677	-0.157426
N30	N	1.254637	0.366758	0.147288
C31	C	1.393058	0.124264	-0.397679
C32	C	1.380297	0.123127	-0.505860
C33	C	1.191447	0.106275	-0.481970
C34	C	1.204207	0.107411	-0.373790
C35	C	1.305016	0.116404	-0.331648
C36	C	1.317775	0.117534	-0.223465
C37	C	1.128926	0.100688	-0.199578
C38	C	1.116165	0.099552	-0.307759
C39	C	1.265909	0.112915	0.336854
C40	C	1.279495	0.114132	0.451990
H41	H	0.572784	-0.021506	0.143307
H42	H	1.034089	0.092233	-0.342086
C43	C	0.951095	-0.101256	0.151508
C44	C	0.879555	-0.185725	0.149915
C45	C	0.934196	-0.270152	0.151038
H46	H	0.991939	-0.101462	0.212829
H47	H	0.995835	-0.101030	0.092013
H48	H	0.834833	-0.185952	0.209404
H49	H	0.838708	-0.185553	0.088599
H50	H	0.978936	-0.269925	0.091542
H51	H	0.975038	-0.270347	0.212359
H52	H	0.885665	-0.327474	0.149947
C53	C	0.722391	-0.121511	0.146349
C54	C	0.662317	-0.132082	0.055845
C55	C	0.607386	-0.226128	0.054393
H56	H	0.677543	-0.129312	0.205745
H57	H	0.770736	-0.170339	0.147342
H58	H	0.613977	-0.083268	0.054862
H59	H	0.707139	-0.124300	-0.003566
H60	H	0.655731	-0.274956	0.055386
H61	H	0.562543	-0.233921	0.113793
H62	H	0.566626	-0.233316	-0.007017
H63	H	1.057236	0.094281	-0.145803
H64	H	0.936458	0.245305	0.151274
C65	C	1.502588	0.134085	-0.352118
C66	C	1.576963	0.140745	-0.433101
C67	C	1.677874	0.149808	-0.391172
H68	H	1.511635	0.077863	-0.310431
H69	H	1.511547	0.191953	-0.310438
H70	H	1.568008	0.082883	-0.474763
H71	H	1.567950	0.196965	-0.474794
H72	H	1.686833	0.207676	-0.349492
H73	H	1.686910	0.093585	-0.349486
H74	H	1.728349	0.154337	-0.446112
H75	H	0.771893	0.319807	0.147679
H76	H	0.572821	0.302066	0.143329
C77	C	1.475849	0.131857	-0.577602
C78	C	1.474058	0.215872	-0.640377
C79	C	1.562074	0.223955	-0.706468
H80	H	1.474887	0.074795	-0.620405
H81	H	1.537736	0.137432	-0.537042
H82	H	1.412186	0.210289	-0.680933
H83	H	1.475035	0.272949	-0.597602
H84	H	1.623962	0.229530	-0.665909
H85	H	1.561104	0.166888	-0.749264
H86	H	1.560875	0.280963	-0.749063
H87	H	1.399859	0.124853	-0.189156
C88	C	1.082091	0.096472	-0.527937
C89	C	1.089767	0.097139	-0.636810
C90	C	0.989051	0.088097	-0.679189
H91	H	1.045294	0.150215	-0.505408
H92	H	1.045366	0.036124	-0.505372
H93	H	1.126477	0.157479	-0.659365
H94	H	1.126546	0.043398	-0.659368
H95	H	0.952325	0.027750	-0.656625
H96	H	0.952262	0.141842	-0.656653
H97	H	0.994246	0.088539	-0.753063
