data_functionalizedCrystal
_audit_creation_method	'MofGen! by Chris Wilmer'
_symmetry_space_group_name_H-M	'P1'
_symmetry_Int_Tables_number	1
_symmetry_cell_setting	triclinic
loop_
_symmetry_equiv_pos_as_xyz
  x,y,z
_cell_length_a	10.654541
_cell_length_b	16.109302
_cell_length_c	15.186229
_cell_angle_alpha	90.005299
_cell_angle_beta	89.999060
_cell_angle_gamma	96.027145
loop_
_atom_site_label
_atom_site_type_symbol
_atom_site_fract_x
_atom_site_fract_y
_atom_site_fract_z
O1	O	-0.161424	1.104089	0.073263
O2	O	-0.181511	0.862146	0.073255
O3	O	0.011348	0.988682	0.073259
O4	O	-0.354282	0.977554	0.073258
O5	O	0.011350	0.988673	-0.073198
O6	O	-0.181508	0.862138	-0.073202
O7	O	-0.161421	1.104081	-0.073195
Zn8	Zn	-0.171464	0.983108	-0.096452
Zn9	Zn	-0.171468	0.983119	0.096512
O10	O	-0.354280	0.977545	-0.073199
C11	C	-0.180696	0.831163	0.000026
C12	C	-0.178256	0.738853	0.000023
C13	C	-0.172612	0.526474	-0.079802
C14	C	-0.170306	0.439740	-0.079799
C15	C	-0.170316	0.439760	0.079877
C16	C	-0.172613	0.526493	0.079873
C17	C	-0.173767	0.569847	0.000031
C18	C	-0.169164	0.396380	0.000038
C19	C	-0.166664	0.302340	0.000042
C20	C	-0.176266	0.663894	0.000026
C21	C	-0.401068	0.978366	0.000030
C22	C	-0.540478	0.980810	0.000030
C23	C	-0.570501	0.829503	0.000014
C24	C	-0.651006	0.755000	0.000003
C25	C	-0.781993	0.757301	0.000003
C26	C	-0.832476	0.834112	0.000017
C27	C	-0.751971	0.908615	0.000028
C28	C	-0.620983	0.906306	0.000025
C29	C	-0.721949	1.059920	0.000049
C30	C	-0.590962	1.057621	0.000043
C31	C	-0.772432	1.136731	0.000063
C32	C	-0.691927	1.211235	0.000067
C33	C	-0.560933	1.208931	0.000066
C34	C	-0.510457	1.132123	0.000054
C35	C	0.058136	0.987861	0.000033
C36	C	0.197546	0.985417	0.000039
N37	N	-0.171461	0.983106	-0.228144
C38	C	-0.162236	1.135065	0.000037
C39	C	-0.164676	1.227374	0.000045
C40	C	-0.086092	1.039155	-0.453865
C41	C	-0.086089	1.039158	-0.546055
C42	C	-0.256834	0.927072	-0.546068
C43	C	-0.256830	0.927066	-0.453880
C44	C	-0.171460	0.983113	-0.407781
C45	C	-0.171461	0.983121	-0.592159
C46	C	-0.171459	0.983123	-0.692115
C47	C	-0.171461	0.983109	-0.307818
N48	N	-0.171461	0.983127	0.228205
H49	H	-0.463846	0.827622	0.000012
H50	H	-0.847541	0.696635	-0.000002
F51	F	-0.173834	0.572657	0.164846
H52	H	-0.016573	1.084792	-0.583574
F53	F	-0.597269	0.673256	-0.000003
F54	F	-0.971885	0.836557	0.000033
H55	H	-0.326348	0.881425	-0.416356
F56	F	-0.173836	0.572612	-0.164777
F57	F	-0.169078	0.393583	-0.164768
F58	F	-0.911841	1.139178	0.000071
F59	F	0.004769	1.098803	-0.404807
H60	H	-0.326342	0.881442	-0.583611
F61	F	-0.745663	1.292974	0.000089
H62	H	-0.495392	1.269600	0.000082
H63	H	-0.169377	0.404450	0.144881
F64	F	-0.371051	1.129665	0.000048
