data_functionalizedCrystal
_audit_creation_method	'MofGen! by Chris Wilmer'
_symmetry_space_group_name_H-M	'P1'
_symmetry_Int_Tables_number	1
_symmetry_cell_setting	triclinic
loop_
_symmetry_equiv_pos_as_xyz
  x,y,z
_cell_length_a	17.699077
_cell_length_b	8.597275
_cell_length_c	16.176319
_cell_angle_alpha	97.696990
_cell_angle_beta	89.993140
_cell_angle_gamma	84.313046
loop_
_atom_site_label
_atom_site_type_symbol
_atom_site_fract_x
_atom_site_fract_y
_atom_site_fract_z
O1	O	1.005724	0.198420	-0.054599
O2	O	1.339057	0.531753	0.278734
O3	O	1.672391	0.865086	0.612067
O4	O	0.785559	0.224250	-0.052763
O5	O	1.118892	0.557583	0.280570
O6	O	1.452225	0.890917	0.613903
O7	O	0.899976	-0.017146	-0.069954
O8	O	1.233310	0.316187	0.263380
O9	O	1.566643	0.649520	0.596713
O10	O	0.891306	0.439816	-0.037409
O11	O	1.224639	0.773150	0.295924
O12	O	1.557973	1.106483	0.629258
O13	O	0.899960	-0.017162	0.067538
O14	O	1.233294	0.316172	0.400872
O15	O	1.566627	0.649505	0.734205
O16	O	0.785543	0.224235	0.084729
O17	O	1.118876	0.557568	0.418062
O18	O	1.452209	0.890901	0.751396
O19	O	1.005708	0.198404	0.082893
O20	O	1.339041	0.531738	0.416226
O21	O	1.672374	0.865071	0.749559
Cu22	Cu	0.895624	0.211318	0.096365
Cu23	Cu	1.228957	0.544652	0.429698
Cu24	Cu	1.562290	0.877985	0.763032
Cu25	Cu	0.895643	0.211336	-0.066235
Cu26	Cu	1.228976	0.544670	0.267098
Cu27	Cu	1.562309	0.878003	0.600431
O28	O	0.891290	0.439801	0.100083
O29	O	1.224623	0.773134	0.433417
O30	O	1.557957	1.106468	0.766750
C31	C	0.757346	0.223319	0.015917
C32	C	1.090679	0.556652	0.349250
C33	C	1.424013	0.889985	0.682583
C34	C	0.673305	0.220547	0.015718
C35	C	1.006638	0.553880	0.349051
C36	C	1.339971	0.887213	0.682384
C37	C	0.899038	-0.075621	-0.005373
C38	C	1.232372	0.257712	0.327960
C39	C	1.565705	0.591045	0.661293
C40	C	0.896258	-0.249836	-0.017786
C41	C	1.229591	0.083498	0.315547
C42	C	1.562924	0.416831	0.648880
C43	C	0.633818	0.219232	0.090572
C44	C	0.967151	0.552566	0.423906
C45	C	1.300484	0.885899	0.757239
C46	C	0.554853	0.216603	0.090386
C47	C	0.888187	0.549936	0.423719
C48	C	1.221520	0.883269	0.757053
C49	C	0.515377	0.215299	0.015345
C50	C	0.848710	0.548632	0.348678
C51	C	1.182044	0.881965	0.682011
C52	C	0.554870	0.216609	-0.059516
C53	C	0.888203	0.549942	0.273817
C54	C	1.221536	0.883275	0.607151
C55	C	0.633833	0.219227	-0.059330
C56	C	0.967166	0.552560	0.274004
C57	C	1.300500	0.885894	0.607337
C58	C	0.236419	0.206047	-0.060270
C59	C	0.569752	0.539381	0.273063
C60	C	0.903086	0.872714	0.606397
C61	C	0.157450	0.203434	-0.060450
C62	C	0.490783	0.536767	0.272883
C63	C	0.824116	0.870100	0.606216
C64	C	0.157439	0.203423	0.089446
C65	C	0.490773	0.536756	0.422779
C66	C	0.824106	0.870090	0.756113
C67	C	0.236403	0.206041	0.089632
C68	C	0.569736	0.539375	0.422966
C69	C	0.903069	0.872708	0.756299
C70	C	0.275889	0.207343	0.014771
C71	C	0.609222	0.540676	0.348105
C72	C	0.942556	0.874009	0.681438
C73	C	0.361511	0.210191	0.014974
C74	C	0.694845	0.543524	0.348307
C75	C	1.028178	0.876858	0.681641
C76	C	0.429755	0.212462	0.015142
C77	C	0.763089	0.545795	0.348475
C78	C	1.096422	0.879128	0.681809
C79	C	1.033921	0.199336	0.014211
C80	C	1.367254	0.532669	0.347545
C81	C	1.700587	0.866003	0.680878
C82	C	1.117962	0.202108	0.014405
C83	C	1.451295	0.535441	0.347738
C84	C	1.784629	0.868775	0.681071
C85	C	0.892228	0.498276	0.035501
C86	C	1.225562	0.831609	0.368834
C87	C	1.558895	1.164943	0.702168
C88	C	0.895009	0.672490	0.047909
C89	C	1.228342	1.005824	0.381242
C90	C	1.561675	1.339157	0.714575
N91	N	0.895616	0.211304	0.210729
N92	N	1.228949	0.544638	0.544063
N93	N	1.562283	0.877971	0.877396
N94	N	0.895657	0.211338	-0.180601
N95	N	1.228990	0.544671	0.152733
N96	N	1.562323	0.878004	0.486066
C97	C	0.946296	0.104458	0.246385
C98	C	1.279629	0.437791	0.579718
C99	C	1.612963	0.771124	0.913051
C100	C	0.946300	0.104456	0.332932
C101	C	1.279633	0.437789	0.666265
C102	C	1.612966	0.771123	0.999598
C103	C	0.895627	0.211310	0.383822
C104	C	1.228960	0.544643	0.717156
C105	C	1.562293	0.877977	1.050489
C106	C	0.844941	0.318162	0.348161
C107	C	1.178274	0.651495	0.681494
C108	C	1.511608	0.984828	1.014828
C109	C	0.844934	0.318155	0.261615
C110	C	1.178268	0.651488	0.594948
C111	C	1.511601	0.984821	0.928282
C112	C	0.844967	0.318191	0.697191
C113	C	1.178301	0.651525	1.030525
C114	C	1.511634	0.984858	1.363858
C115	C	0.844980	0.318193	0.783743
C116	C	1.178313	0.651526	1.117077
C117	C	1.511646	0.984860	1.450410
C118	C	0.946333	0.104493	0.768508
C119	C	1.279666	0.437826	1.101841
C120	C	1.612999	0.771159	1.435175
C121	C	0.946326	0.104485	0.681962
C122	C	1.279659	0.437819	1.015295
C123	C	1.612992	0.771152	1.348629
C124	C	0.895638	0.211331	0.646308
C125	C	1.228971	0.544664	0.979641
C126	C	1.562305	0.877998	1.312975
C127	C	0.895633	0.211330	0.552464
C128	C	1.228967	0.544663	0.885797
C129	C	1.562300	0.877996	1.219130
C130	C	0.895634	0.211320	0.477665
C131	C	1.228968	0.544653	0.810999
C132	C	1.562301	0.877987	1.144332
H133	H	0.665953	0.220307	0.151681
H134	H	0.999286	0.553640	0.485014
H135	H	1.332620	0.886973	0.818348
F136	F	0.791024	0.431907	0.659253
F137	F	1.124358	0.765240	0.992586
F138	F	1.457691	1.098573	1.325919
H139	H	0.896073	-0.260724	0.113650
H140	H	1.229406	0.072609	0.446983
H141	H	1.562739	0.405942	0.780317
F142	F	1.000278	-0.009229	0.806459
F143	F	1.333611	0.324105	1.139792
F144	F	1.666944	0.657438	1.473126
H145	H	0.803664	0.405158	0.232586
H146	H	1.136998	0.738492	0.565919
H147	H	1.470331	1.071825	0.899253
F148	F	0.894878	-0.337118	-0.103712
F149	F	1.228212	-0.003785	0.229621
F150	F	1.561545	0.329549	0.562955
H151	H	0.987563	0.017452	0.204955
H152	H	1.320896	0.350785	0.538288
H153	H	1.654230	0.684118	0.871621
H154	H	0.987567	0.017452	0.361961
H155	H	1.320900	0.350786	0.695294
H156	H	1.654233	0.684119	1.028628
F157	F	0.791006	0.431878	0.402323
F158	F	1.124340	0.765211	0.735656
F159	F	1.457673	1.098545	1.068990
H160	H	0.522708	0.215506	0.151339
H161	H	0.856041	0.548839	0.484672
H162	H	1.189375	0.882173	0.818005
H163	H	0.522722	0.215536	-0.120617
H164	H	0.856056	0.548869	0.212717
H165	H	1.189389	0.882203	0.546050
H166	H	0.803713	0.405209	0.825178
H167	H	1.137046	0.738543	1.158511
H168	H	1.470379	1.071876	1.491845
F169	F	0.278412	0.207438	0.169502
F170	F	0.611745	0.540772	0.502835
F171	F	0.945078	0.874105	0.836169
F172	F	0.115409	0.202031	0.169120
F173	F	0.448742	0.535364	0.502453
F174	F	0.782076	0.868698	0.835787
F175	F	1.000261	-0.009236	0.627804
F176	F	1.333594	0.324097	0.961137
F177	F	1.666928	0.657430	1.294470
H178	H	0.268559	0.207102	-0.121227
H179	H	0.601893	0.540435	0.212107
H180	H	0.935226	0.873769	0.545440
H181	H	0.125310	0.202371	-0.121562
H182	H	0.458643	0.535704	0.211772
H183	H	0.791977	0.869037	0.545105
H184	H	0.665982	0.220300	-0.120284
H185	H	0.999316	0.553634	0.213049
H186	H	1.332649	0.886967	0.546383
