data_functionalizedCrystal
_audit_creation_method	'MofGen! by Chris Wilmer'
_symmetry_space_group_name_H-M	'P1'
_symmetry_Int_Tables_number	1
_symmetry_cell_setting	triclinic
loop_
_symmetry_equiv_pos_as_xyz
  x,y,z
_cell_length_a	18.215407
_cell_length_b	19.805405
_cell_length_c	18.215399
_cell_angle_alpha	89.969667
_cell_angle_beta	89.983176
_cell_angle_gamma	90.027174
loop_
_atom_site_label
_atom_site_type_symbol
_atom_site_fract_x
_atom_site_fract_y
_atom_site_fract_z
Zn1	Zn	1.125041	-0.269446	-0.416116
Zn2	Zn	1.625041	0.230554	0.083884
Zn3	Zn	1.124952	-0.382642	-0.293050
Zn4	Zn	1.624952	0.117358	0.206950
Zn5	Zn	1.001980	-0.269473	-0.293063
Zn6	Zn	1.501980	0.230527	0.206937
Zn7	Zn	1.001935	-0.382599	-0.416075
Zn8	Zn	1.501935	0.117401	0.083925
O9	O	1.063477	-0.326040	-0.354576
O10	O	1.563477	0.173960	0.145424
O11	O	1.228013	-0.284468	-0.399803
O12	O	1.728013	0.215532	0.100197
O13	O	1.108620	-0.367659	-0.190067
O14	O	1.608620	0.132341	0.309933
O15	O	1.018360	-0.174753	-0.309410
O16	O	1.518360	0.325247	0.190590
O17	O	1.227948	-0.367633	-0.309386
O18	O	1.727948	0.132367	0.190614
O19	O	1.108772	-0.174733	-0.399816
O20	O	1.608772	0.325267	0.100184
O21	O	1.018274	-0.284514	-0.190077
O22	O	1.518274	0.215486	0.309923
O23	O	0.898990	-0.284473	-0.309369
O24	O	1.398990	0.215527	0.190631
O25	O	1.018284	-0.367560	-0.519064
O26	O	1.518284	0.132440	-0.019064
O27	O	0.898957	-0.367586	-0.399745
O28	O	1.398957	0.132414	0.100255
O29	O	1.108729	-0.284427	-0.519095
O30	O	1.608729	0.215573	-0.019095
O31	O	1.108577	-0.477353	-0.309346
O32	O	1.608577	0.022647	0.190654
O33	O	1.018198	-0.477321	-0.399732
O34	O	1.518198	0.022679	0.100268
C35	C	0.872271	-0.326028	-0.354555
C36	C	1.372271	0.173972	0.145445
C37	C	0.790472	-0.326040	-0.354563
C38	C	1.290472	0.173960	0.145437
C39	C	1.063393	-0.501896	-0.354549
C40	C	1.563393	-0.001896	0.145451
C41	C	1.063424	-0.577128	-0.354563
C42	C	1.563424	-0.077128	0.145437
C43	C	0.602280	-0.369385	-0.401563
C44	C	1.102280	0.130615	0.098437
C45	C	0.525421	-0.369387	-0.401572
C46	C	1.025421	0.130613	0.098428
C47	C	0.525426	-0.282707	-0.307605
C48	C	1.025426	0.217293	0.192395
C49	C	0.602283	-0.282702	-0.307600
C50	C	1.102283	0.217298	0.192400
C51	C	0.640708	-0.326045	-0.354578
C52	C	1.140708	0.173955	0.145422
C53	C	0.486992	-0.326052	-0.354592
C54	C	0.986992	0.173948	0.145408
C55	C	0.403658	-0.326054	-0.354602
C56	C	0.903658	0.173946	0.145398
C57	C	0.724047	-0.326042	-0.354570
C58	C	1.224047	0.173958	0.145430
C59	C	1.110474	-0.612404	-0.401674
C60	C	1.610474	-0.112404	0.098326
C61	C	1.110501	-0.683092	-0.401688
C62	C	1.610501	-0.183092	0.098312
C63	C	1.063481	-0.718503	-0.354586
C64	C	1.563481	-0.218503	0.145414
C65	C	1.016426	-0.683223	-0.307472
C66	C	1.516426	-0.183223	0.192528
C67	C	1.016396	-0.612536	-0.307463
C68	C	1.516396	-0.112536	0.192537
C69	C	1.016544	-0.968296	-0.307510
C70	C	1.516544	-0.468296	0.192490
C71	C	1.016579	-1.038988	-0.307521
C72	C	1.516579	-0.538988	0.192479
C73	C	1.110649	-1.038852	-0.401735
C74	C	1.610649	-0.538852	0.098265
C75	C	1.110619	-0.968165	-0.401725
C76	C	1.610619	-0.468165	0.098275
C77	C	1.063562	-0.932891	-0.354615
C78	C	1.563562	-0.432891	0.145385
C79	C	1.063532	-0.856242	-0.354602
C80	C	1.563532	-0.356242	0.145398
C81	C	1.063513	-0.795151	-0.354595
C82	C	1.563513	-0.295151	0.145405
C83	C	1.255430	-0.326052	-0.354598
C84	C	1.755430	0.173948	0.145402
C85	C	1.337229	-0.326057	-0.354607
C86	C	1.837229	0.173943	0.145393
C87	C	1.063512	-0.325986	-0.546529
C88	C	1.563512	0.174014	-0.046529
C89	C	1.063526	-0.325963	-0.628328
C90	C	1.563526	0.174037	-0.128328
C91	C	1.063581	-0.149497	-0.354619
C92	C	1.563581	0.350503	0.145381
C93	C	1.063625	-0.074265	-0.354637
C94	C	1.563625	0.425735	0.145363
C95	C	1.016523	-0.282640	-0.816528
C96	C	1.516523	0.217360	-0.316528
C97	C	1.016535	-0.282627	-0.893387
C98	C	1.516535	0.217373	-0.393387
C99	C	1.110618	-0.369205	-0.893366
C100	C	1.610618	0.130795	-0.393366
C101	C	1.110601	-0.369221	-0.816508
C102	C	1.610601	0.130779	-0.316508
C103	C	1.063554	-0.325935	-0.778091
C104	C	1.563554	0.174065	-0.278091
C105	C	1.063584	-0.325905	-0.931808
C106	C	1.563584	0.174095	-0.431808
C107	C	1.063598	-0.325890	-1.015141
C108	C	1.563598	0.174110	-0.515141
C109	C	1.063539	-0.325950	-0.694752
C110	C	1.563539	0.174050	-0.194752
C111	C	1.063485	-0.326045	-0.163370
C112	C	1.563485	0.173955	0.336630
C113	C	1.063612	-0.325877	-0.081571
C114	C	1.563612	0.174123	0.418429
H115	H	0.633563	-0.404676	-0.439817
H116	H	1.133563	0.095324	0.060183
C117	C	0.964762	-0.929503	-0.255704
C118	C	1.464762	-0.429503	0.244296
N119	N	0.925752	-0.900282	-0.216687
N120	N	1.425752	-0.400282	0.283313
C121	C	1.162356	-0.416839	-0.774226
C122	C	1.662356	0.083161	-0.274226
N123	N	1.201340	-0.452700	-0.742378
N124	N	1.701340	0.047300	-0.242378
C125	C	0.964764	-0.235030	-0.774272
C126	C	1.464764	0.264970	-0.274272
N127	N	0.925775	-0.199170	-0.742447
N128	N	1.425775	0.300830	-0.242447
C129	C	0.964638	-0.573733	-0.255636
C130	C	1.464638	-0.073733	0.244364
N131	N	0.925651	-0.544508	-0.216600
N132	N	1.425651	-0.044508	0.283400
C133	C	0.964801	-0.234995	-0.935664
C134	C	1.464801	0.265005	-0.435664
N135	N	0.925833	-0.199115	-0.967506
N136	N	1.425833	0.300885	-0.467506
C137	C	0.644557	-0.235022	-0.255910
C138	C	1.144557	0.264978	0.244090
N139	N	0.676397	-0.199111	-0.216980
N140	N	1.176397	0.300889	0.283020
C141	C	0.483151	-0.235036	-0.255928
C142	C	0.983151	0.264964	0.244072
N143	N	0.451310	-0.199131	-0.217002
N144	N	0.951310	0.300869	0.282998
H145	H	1.148767	-0.583576	-0.440027
H146	H	1.648767	-0.083576	0.059973
C147	C	1.162269	-0.721892	-0.453504
C148	C	1.662269	-0.221892	0.046496
N149	N	1.201267	-0.751116	-0.492532
N150	N	1.701267	-0.251116	0.007468
C151	C	1.162205	-0.416965	-0.935631
C152	C	1.662205	0.083035	-0.435631
N153	N	1.201004	-0.452992	-0.967465
N154	N	1.701004	0.047008	-0.467465
H155	H	0.494136	-0.404678	-0.439833
H156	H	0.994136	0.095322	0.060167
C157	C	1.162349	-0.929217	-0.453536
C158	C	1.662349	-0.429217	0.046464
N159	N	1.201313	-0.899881	-0.492562
N160	N	1.701313	-0.399881	0.007438
C161	C	1.162408	-1.077660	-0.453564
C162	C	1.662408	-0.577660	0.046436
N163	N	1.201392	-1.106890	-0.492599
N164	N	1.701392	-0.606890	0.007401
H165	H	0.978138	-0.712061	-0.269124
H166	H	1.478138	-0.212061	0.230876
H167	H	0.978286	-1.067818	-0.269164
H168	H	1.478286	-0.567818	0.230836
