data_functionalizedCrystal
_audit_creation_method	'MofGen! by Chris Wilmer'
_symmetry_space_group_name_H-M	'P1'
_symmetry_Int_Tables_number	1
_symmetry_cell_setting	triclinic
loop_
_symmetry_equiv_pos_as_xyz
  x,y,z
_cell_length_a	17.699083
_cell_length_b	26.809956
_cell_length_c	17.699083
_cell_angle_alpha	89.996556
_cell_angle_beta	83.283015
_cell_angle_gamma	90.002782
loop_
_atom_site_label
_atom_site_type_symbol
_atom_site_fract_x
_atom_site_fract_y
_atom_site_fract_z
O1	O	1.004082	0.041411	0.095701
O2	O	1.504082	0.541411	0.595701
O3	O	0.783703	0.041427	0.108153
O4	O	1.283703	0.541427	0.608153
O5	O	0.900119	0.041414	-0.008262
O6	O	1.400119	0.541414	0.491738
O7	O	0.887666	0.041424	0.212116
O8	O	1.387666	0.541424	0.712116
O9	O	0.900097	-0.041545	-0.008245
O10	O	1.400097	0.458455	0.491755
O11	O	0.783681	-0.041532	0.108171
O12	O	1.283681	0.458468	0.608171
O13	O	1.004060	-0.041549	0.095718
O14	O	1.504060	0.458451	0.595718
Zn15	Zn	0.893867	-0.054712	0.101947
Zn16	Zn	1.393867	0.445288	0.601947
Zn17	Zn	0.893896	0.054590	0.101924
Zn18	Zn	1.393896	0.554590	0.601924
O19	O	0.887644	-0.041535	0.212134
O20	O	1.387644	0.458465	0.712134
C21	C	0.755495	-0.000050	0.107716
C22	C	1.255495	0.499950	0.607716
C23	C	0.671477	-0.000044	0.106377
C24	C	1.171477	0.499956	0.606377
C25	C	0.622856	-0.000041	0.174711
C26	C	1.122856	0.499959	0.674711
C27	C	0.543913	-0.000048	0.173448
C28	C	1.043913	0.499952	0.673448
C29	C	0.513592	-0.000054	0.103852
C30	C	1.013592	0.499946	0.603852
C31	C	0.562219	-0.000058	0.035513
C32	C	1.062219	0.499942	0.535513
C33	C	0.641161	-0.000055	0.036776
C34	C	1.141161	0.499945	0.536776
C35	C	0.243856	-0.000071	0.030418
C36	C	0.743856	0.499929	0.530418
C37	C	0.164908	-0.000072	0.029160
C38	C	0.664908	0.499928	0.529160
C39	C	0.146608	-0.000063	0.167090
C40	C	0.646608	0.499937	0.667090
C41	C	0.225550	-0.000060	0.168353
C42	C	0.725550	0.499940	0.668353
C43	C	0.274170	-0.000067	0.100015
C44	C	0.774170	0.499933	0.600015
C45	C	0.359769	-0.000061	0.101384
C46	C	0.859769	0.499939	0.601384
C47	C	0.427995	-0.000056	0.102481
C48	C	0.927995	0.499944	0.602481
N49	N	0.893853	-0.129308	0.101963
N50	N	1.393853	0.370692	0.601963
C51	C	0.945438	-0.473940	0.050388
C52	C	1.445438	0.026060	0.550388
C53	C	0.945456	-0.682817	0.050376
C54	C	1.445456	-0.182817	0.550376
O55	O	0.989285	-0.709826	0.006530
O56	O	1.489285	-0.209826	0.506530
N57	N	0.893900	-0.708935	0.101907
N58	N	1.393900	-0.208935	0.601907
C59	C	0.842333	-0.682830	0.153441
C60	C	1.342333	-0.182830	0.653441
O61	O	0.798476	-0.709837	0.197266
O62	O	1.298476	-0.209837	0.697266
C63	C	0.842312	-0.473953	0.153449
C64	C	1.342312	0.026047	0.653449
C65	C	0.893876	-0.447838	0.101920
C66	C	1.393876	0.052162	0.601920
C67	C	0.996998	-0.447825	-0.001138
C68	C	1.496998	0.052175	0.498862
C69	C	0.996996	-0.395609	-0.001131
C70	C	1.496996	0.104391	0.498869
C71	C	0.945434	-0.369507	0.050400
C72	C	1.445434	0.130493	0.550400
C73	C	0.893874	-0.395622	0.101926
C74	C	1.393874	0.104378	0.601926
C75	C	0.790741	-0.447849	0.204979
C76	C	1.290741	0.052151	0.704979
C77	C	0.790739	-0.395627	0.204975
C78	C	1.290739	0.104373	0.704975
C79	C	0.842304	-0.369512	0.153445
C80	C	1.342304	0.130488	0.653445
C81	C	0.842310	-0.317304	0.153464
C82	C	1.342310	0.182696	0.653464
N83	N	0.893866	-0.291187	0.101933
N84	N	1.393866	0.208813	0.601933
C85	C	0.945428	-0.317288	0.050401
C86	C	1.445428	0.182712	0.550401
C87	C	0.842348	-0.792493	0.153435
C88	C	1.342348	-0.292493	0.653435
C89	C	0.842354	-0.844712	0.153434
C90	C	1.342354	-0.344712	0.653434
C91	C	0.945477	-0.844696	0.050368
C92	C	1.445477	-0.344696	0.550368
C93	C	0.945474	-0.792476	0.050373
C94	C	1.445474	-0.292476	0.550373
C95	C	0.893904	-0.766376	0.101904
C96	C	1.393904	-0.266376	0.601904
C97	C	0.945420	-0.207630	0.050418
C98	C	1.445420	0.292370	0.550418
C99	C	0.945415	-0.155409	0.050431
C100	C	1.445415	0.344591	0.550431
C101	C	0.842290	-0.155430	0.153494
C102	C	1.342290	0.344570	0.653494
C103	C	0.842297	-0.207646	0.153485
C104	C	1.342297	0.292354	0.653485
C105	C	0.893865	-0.233745	0.101940
C106	C	1.393865	0.266255	0.601940
O107	O	0.798498	-0.290263	0.197281
O108	O	1.298498	0.209737	0.697281
O109	O	0.989266	-0.290272	0.006572
O110	O	1.489266	0.209728	0.506572
C111	C	0.945440	-0.526156	0.050382
C112	C	1.445440	-0.026156	0.550382
C113	C	0.893881	-0.552271	0.101907
C114	C	1.393881	-0.052271	0.601907
C115	C	0.842319	-0.526170	0.153439
C116	C	1.342319	-0.026170	0.653439
C117	C	0.893887	-0.604490	0.101907
C118	C	1.393887	-0.104490	0.601907
C119	C	0.945449	-0.630591	0.050375
C120	C	1.445449	-0.130591	0.550375
C121	C	0.997005	-0.604474	-0.001156
C122	C	1.497005	-0.104474	0.498844
C123	C	0.997002	-0.552257	-0.001150
C124	C	1.497002	-0.052257	0.498850
C125	C	0.790763	-0.552287	0.204970
C126	C	1.290763	-0.052287	0.704970
C127	C	0.790770	-0.604503	0.204960
C128	C	1.290770	-0.104503	0.704960
C129	C	0.842332	-0.630605	0.153428
C130	C	1.342332	-0.130605	0.653428
C131	C	1.032268	-0.000070	0.096156
C132	C	1.532268	0.499930	0.596156
C133	C	1.116286	-0.000073	0.097494
C134	C	1.616286	0.499927	0.597494
C135	C	0.899662	-0.000066	-0.036451
C136	C	1.399662	0.499934	0.463549
C137	C	0.898323	-0.000066	-0.120469
C138	C	1.398323	0.499934	0.379531
N139	N	0.893916	0.129186	0.101902
N140	N	1.393916	0.629186	0.601902
C141	C	0.966656	-0.000072	-0.169090
C142	C	1.466656	0.499928	0.330910
C143	C	0.965394	-0.000067	-0.248033
C144	C	1.465394	0.499933	0.251967
C145	C	0.895798	-0.000060	-0.278354
C146	C	1.395798	0.499940	0.221646
C147	C	0.827459	-0.000053	-0.229727
C148	C	1.327459	0.499947	0.270273
C149	C	0.828722	-0.000054	-0.150785
C150	C	1.328722	0.499946	0.349215
C151	C	0.822364	-0.000049	-0.548090
C152	C	1.322364	0.499951	-0.048090
C153	C	0.821106	-0.000049	-0.627038
C154	C	1.321106	0.499951	-0.127038
C155	C	0.959036	-0.000062	-0.645338
C156	C	1.459036	0.499938	-0.145338
C157	C	0.960299	-0.000063	-0.566396
C158	C	1.460299	0.499937	-0.066396
C159	C	0.891961	-0.000053	-0.517776
C160	C	1.391961	0.499947	-0.017776
C161	C	0.893330	-0.000057	-0.432177
C162	C	1.393330	0.499943	0.067823
C163	C	0.894427	-0.000060	-0.363951
C164	C	1.394427	0.499940	0.136049
C165	C	0.888102	-0.000055	0.240322
C166	C	1.388102	0.499945	0.740322
C167	C	0.889440	-0.000051	0.324340
C168	C	1.389440	0.499949	0.824340
H169	H	0.680748	-0.000057	-0.018868
H170	H	1.180748	0.499943	0.481132
H171	H	0.504328	-0.000045	0.229092
H172	H	1.004328	0.499955	0.729092
H173	H	0.766718	-0.000041	-0.508512
H174	H	1.266718	0.499959	-0.008512
H175	H	1.038991	-0.625734	-0.043113
H176	H	1.538991	-0.125734	0.456887
H177	H	1.038986	-0.469072	-0.043104
H178	H	1.538986	0.030928	0.456896
H179	H	0.283434	-0.000077	-0.025228
H180	H	0.783434	0.499923	0.474772
H181	H	0.987407	-0.134148	0.008470
H182	H	1.487407	0.365852	0.508470
H183	H	1.014680	-0.000067	-0.684934
H184	H	1.514680	0.499933	-0.184934
H185	H	0.800374	-0.865971	0.195402
H186	H	1.300374	-0.365971	0.695402
H187	H	0.770792	-0.000044	-0.254420
H188	H	1.270792	0.499956	0.245580
H189	H	0.987410	-0.228874	0.008445
H190	H	1.487410	0.271126	0.508445
H191	H	0.537526	-0.000070	-0.021154
H192	H	1.037526	0.499930	0.478846
H193	H	0.764429	-0.000045	-0.651721
H194	H	1.264429	0.499955	-0.151721
N195	N	0.094176	-0.000073	0.240806
N196	N	0.594176	0.499927	0.740806
H197	H	0.103911	0.030680	0.271175
H198	H	0.603911	0.530680	0.771175
H199	H	0.039584	-0.000100	0.229397
H200	H	0.539584	0.499900	0.729397
N201	N	1.039098	-0.000078	-0.300471
N202	N	1.539098	0.499922	0.199529
H203	H	1.041635	-0.030830	-0.333631
H204	H	1.541635	0.469170	0.166369
H205	H	1.041618	0.030697	-0.333585
H206	H	1.541618	0.530697	0.166415
N207	N	0.755020	-0.000045	-0.098340
N208	N	1.255020	0.499955	0.401660
H209	H	0.710739	-0.000041	-0.129525
H210	H	1.210739	0.499959	0.370475
H211	H	0.752529	-0.030798	-0.065182
H212	H	1.252529	0.469202	0.434818
H213	H	1.016971	-0.000071	-0.541714
H214	H	1.516971	0.499929	-0.041714
N215	N	0.786682	-0.235810	0.209067
N216	N	1.286682	0.264190	0.709067
H217	H	0.753225	-0.257472	0.180184
H218	H	1.253225	0.242528	0.680184
H219	H	0.815588	-0.257451	0.242531
H220	H	1.315588	0.242549	0.742531
N221	N	1.052606	-0.367444	-0.056714
N222	N	1.552606	0.132556	0.443286
H223	H	1.106304	-0.376533	-0.048067
H224	H	1.606304	0.123467	0.451933
H225	H	1.043920	-0.376545	-0.110394
H226	H	1.543920	0.123455	0.389606
H227	H	0.987462	-0.771217	0.008413
H228	H	1.487462	-0.271217	0.508413
H229	H	0.140225	-0.000078	-0.027517
H230	H	0.640225	0.499922	0.472483
N231	N	1.001093	-0.872853	-0.005213
N232	N	1.501093	-0.372853	0.494787
H233	H	0.993267	-0.909895	0.002610
H234	H	1.493267	-0.409895	0.502610
H235	H	0.992445	-0.863726	-0.058895
H236	H	1.492445	-0.363726	0.441105
N237	N	0.786721	-0.764345	0.209016
N238	N	1.286721	-0.264345	0.709016
H239	H	0.754066	-0.788819	0.241656
H240	H	1.254066	-0.288819	0.741656
H241	H	0.815623	-0.742678	0.242445
H242	H	1.315623	-0.242678	0.742445
H243	H	0.800311	-0.134170	0.195453
H244	H	1.300311	0.365830	0.695453
N245	N	1.052619	-0.524094	-0.056728
N246	N	1.552619	-0.024094	0.443272
H247	H	1.085278	-0.548560	-0.089370
H248	H	1.585278	-0.048560	0.410630
H249	H	1.023710	-0.502429	-0.090155
H250	H	1.523710	-0.002429	0.409845
H251	H	0.748753	-0.469105	0.246938
H252	H	1.248753	0.030895	0.746938
H253	H	0.647537	-0.000036	0.231384
H254	H	1.147537	0.499964	0.731384
H255	H	0.250232	-0.000053	0.225025
H256	H	0.750232	0.499947	0.725025
N257	N	1.041722	-0.000080	-0.136389
N258	N	1.541722	0.499920	0.363611
H259	H	1.045312	-0.030835	-0.104045
H260	H	1.545312	0.469165	0.395955
H261	H	1.084774	-0.000064	-0.179215
H262	H	1.584774	0.499936	0.320785
H263	H	0.748743	-0.374378	0.246937
H264	H	1.248743	0.125622	0.746937
N265	N	0.735148	-0.632667	0.260539
N266	N	1.235148	-0.132667	0.760539
H267	H	0.702483	-0.608204	0.293179
H268	H	1.202483	-0.108204	0.793179
H269	H	0.701748	-0.654328	0.231593
H270	H	1.201748	-0.154328	0.731593
N271	N	0.735143	-0.524139	0.260549
N272	N	1.235143	-0.024139	0.760549
H273	H	0.702486	-0.548612	0.293188
H274	H	1.202486	-0.048612	0.793188
H275	H	0.764048	-0.502474	0.293980
H276	H	1.264048	-0.002474	0.793980
