data_functionalizedCrystal
_audit_creation_method	'MofGen! by Chris Wilmer'
_symmetry_space_group_name_H-M	'P1'
_symmetry_Int_Tables_number	1
_symmetry_cell_setting	triclinic
loop_
_symmetry_equiv_pos_as_xyz
  x,y,z
_cell_length_a	12.827893
_cell_length_b	15.298852
_cell_length_c	12.827885
_cell_angle_alpha	99.703852
_cell_angle_beta	90.019272
_cell_angle_gamma	80.333173
loop_
_atom_site_label
_atom_site_type_symbol
_atom_site_fract_x
_atom_site_fract_y
_atom_site_fract_z
Zn1	Zn	1.669673	-0.359105	0.518901
Zn2	Zn	1.699819	-0.509985	0.313931
Zn3	Zn	1.494923	-0.359149	0.344165
Zn4	Zn	1.525138	-0.509918	0.488645
O5	O	1.597388	-0.434539	0.416411
O6	O	1.819910	-0.379129	0.491720
O7	O	1.672610	-0.490023	0.171697
O8	O	1.492842	-0.232902	0.392659
O9	O	1.842058	-0.489980	0.341130
O10	O	1.621230	-0.232870	0.521037
O11	O	1.522074	-0.379204	0.193909
O12	O	1.352693	-0.379139	0.363322
O13	O	1.544340	-0.489866	0.638904
O14	O	1.374892	-0.489908	0.469470
O15	O	1.650529	-0.379064	0.661132
O16	O	1.701909	-0.636217	0.311792
O17	O	1.573572	-0.636168	0.440154
C18	C	1.325875	-0.434522	0.416394
C19	C	1.209725	-0.434536	0.416408
C20	C	1.168970	-0.489434	0.468818
C21	C	1.048922	-0.489450	0.468833
C22	C	1.644319	-0.668925	0.369432
C23	C	1.664492	-0.769196	0.349369
C24	C	1.453894	-1.051868	0.559902
C25	C	1.434944	-0.957658	0.578759
C26	C	1.492329	-0.910538	0.521413
C27	C	1.568668	-0.957637	0.445207
C28	C	1.587627	-1.051856	0.426354
C29	C	1.626061	-0.910526	0.387865
C30	C	1.702401	-0.957625	0.311659
C31	C	1.721355	-1.051835	0.292808
C32	C	1.663970	-1.098955	0.350154
C33	C	1.607103	-0.816307	0.406718
C34	C	1.740835	-0.816296	0.273170
C35	C	1.759786	-0.910505	0.254313
C36	C	1.869962	-0.434557	0.416428
C37	C	1.986117	-0.434565	0.416435
C38	C	1.597442	-0.434453	0.688998
C39	C	1.597465	-0.434416	0.805159
C40	C	1.550303	-0.199238	0.463595
C41	C	1.530238	-0.098967	0.483703
C42	C	1.597382	-0.434560	0.144896
C43	C	1.597510	-0.434343	0.028787
C44	C	1.650015	-0.379577	0.867945
C45	C	1.650040	-0.379538	0.988004
H46	H	1.021201	-0.387566	0.371557
H47	H	1.552485	-0.481330	0.840289
H48	H	1.222951	-0.536419	0.513682
H49	H	1.695034	-0.332591	1.041955
F50	F	1.003061	-0.550889	0.527478
F51	F	1.525859	-0.766191	0.487820
F52	F	1.139170	-0.373112	0.357777
F53	F	1.472233	-0.810271	0.541561
F54	F	1.538706	-0.495719	0.958276
H55	H	1.821943	-0.948867	0.192265
H56	H	1.407185	-1.090241	0.606591
F57	F	1.353703	-0.907538	0.659863
H58	H	1.679390	-1.175669	0.334799
H59	H	1.787565	-0.777931	0.226476
F60	F	1.802615	-1.101959	0.211715
F61	F	1.708774	-0.318228	0.822039
