data_functionalizedCrystal
_audit_creation_method	'MofGen! by Chris Wilmer'
_symmetry_space_group_name_H-M	'P1'
_symmetry_Int_Tables_number	1
_symmetry_cell_setting	triclinic
loop_
_symmetry_equiv_pos_as_xyz
  x,y,z
_cell_length_a	23.532355
_cell_length_b	27.732048
_cell_length_c	22.610064
_cell_angle_alpha	89.994363
_cell_angle_beta	89.995874
_cell_angle_gamma	82.735077
loop_
_atom_site_label
_atom_site_type_symbol
_atom_site_fract_x
_atom_site_fract_y
_atom_site_fract_z
O1	O	0.755153	0.058549	0.049110
O2	O	0.589267	0.067065	0.049130
O3	O	0.677362	-0.007583	0.049108
O4	O	0.667058	0.133196	0.049132
O5	O	0.677356	-0.007564	-0.049261
O6	O	0.589261	0.067084	-0.049239
O7	O	0.755147	0.058568	-0.049259
Zn8	Zn	0.672203	0.062829	-0.064867
Zn9	Zn	0.672211	0.062804	0.064739
O10	O	0.667052	0.133215	-0.049237
C11	C	0.568048	0.066862	-0.000052
C12	C	0.504831	0.066222	-0.000045
C13	C	0.112822	0.062211	-0.053692
C14	C	0.053424	0.061602	-0.053694
O15	O	0.022703	0.061279	-0.099296
N16	N	0.023720	0.061289	-0.000073
C17	C	0.053417	0.061581	0.053554
O18	O	0.022697	0.061259	0.099162
C19	C	0.112815	0.062186	0.053555
C20	C	0.142515	0.062504	-0.000069
C21	C	0.142523	0.062527	-0.107311
C22	C	0.201917	0.063137	-0.107309
C23	C	0.231610	0.063430	-0.053686
C24	C	0.201909	0.063114	-0.000066
C25	C	0.142512	0.062475	0.107181
C26	C	0.201913	0.063080	0.107179
C27	C	0.231614	0.063397	0.053554
C28	C	0.290996	0.064016	0.053559
N29	N	0.320701	0.064329	-0.000062
C30	C	0.291007	0.064036	-0.053685
C31	C	-0.071322	0.060309	0.053546
C32	C	-0.130719	0.059707	0.053545
C33	C	-0.130708	0.059726	-0.053703
C34	C	-0.071310	0.060332	-0.053701
C35	C	-0.041617	0.060621	-0.000075
C36	C	0.415739	0.065317	-0.053675
C37	C	0.475138	0.065929	-0.053668
C38	C	0.475122	0.065906	0.053580
C39	C	0.415728	0.065297	0.053573
C40	C	0.386038	0.065001	-0.000059
O41	O	0.321755	0.064337	0.099138
O42	O	0.321736	0.064351	-0.099285
C43	C	0.677143	-0.025580	-0.000078
C44	C	0.676491	-0.079236	-0.000083
C45	C	0.724449	-0.417985	-0.000058
C46	C	0.722033	-0.619648	-0.000049
O47	O	0.765887	-0.650843	-0.000029
N48	N	0.669796	-0.638844	-0.000044
C49	C	0.618160	-0.607621	-0.000036
O50	O	0.573674	-0.628575	-0.000025
C51	C	0.620577	-0.405959	-0.000041
C52	C	0.672817	-0.386766	-0.000052
C53	C	0.776685	-0.398792	-0.000069
C54	C	0.777289	-0.348379	-0.000074
C55	C	0.725657	-0.317160	-0.000069
C56	C	0.673421	-0.336353	-0.000058
C57	C	0.568942	-0.374736	-0.000029
C58	C	0.569551	-0.324318	-0.000029
C59	C	0.621791	-0.305125	-0.000040
C60	C	0.622392	-0.254721	-0.000057
N61	N	0.674629	-0.235525	-0.000063
C62	C	0.726261	-0.266744	-0.000069
C63	C	0.616895	-0.713496	-0.000035
C64	C	0.616290	-0.763912	-0.000035
C65	C	0.720163	-0.775936	-0.000047
C66	C	0.720767	-0.725520	-0.000051
C67	C	0.669131	-0.694301	-0.000041
C68	C	0.727525	-0.160873	-0.000080
C69	C	0.728124	-0.110456	-0.000088
C70	C	0.624251	-0.098436	-0.000073
C71	C	0.623652	-0.148849	-0.000068
C72	C	0.675293	-0.180067	-0.000070
O73	O	0.578561	-0.223497	-0.000071
O74	O	0.770740	-0.245780	-0.000067
C75	C	0.723846	-0.468398	-0.000053
C76	C	0.671610	-0.487591	-0.000042
C77	C	0.619978	-0.456372	-0.000036
C78	C	0.671006	-0.538007	-0.000042
C79	C	0.722638	-0.569226	-0.000047
C80	C	0.774875	-0.550030	-0.000053
C81	C	0.775478	-0.499617	-0.000058
C82	C	0.567741	-0.475568	-0.000030
C83	C	0.567142	-0.525981	-0.000026
C84	C	0.618774	-0.557200	-0.000031
C85	C	0.776366	0.058771	-0.000075
C86	C	0.839583	0.059411	-0.000078
C87	C	0.667271	0.151213	-0.000050
C88	C	0.667923	0.204869	-0.000041
N89	N	0.672202	0.062846	-0.153320
C90	C	0.633181	0.095860	-0.438158
C91	C	0.633179	0.095865	-0.376238
O92	O	0.599985	0.123956	-0.344211
N93	N	0.672198	0.062826	-0.345272
C94	C	0.711217	0.029778	-0.376229
O95	O	0.744404	0.001677	-0.344204
C96	C	0.711215	0.029771	-0.438147
C97	C	0.672198	0.062815	-0.469111
C98	C	0.594166	0.128900	-0.469121
C99	C	0.594169	0.128896	-0.531037
C100	C	0.633186	0.095851	-0.561989
C101	C	0.672200	0.062811	-0.531026
C102	C	0.750231	-0.003279	-0.469103
C103	C	0.750225	-0.003283	-0.531026
C104	C	0.711208	0.029761	-0.561989
C105	C	0.711219	0.029762	-0.623894
N106	N	0.672201	0.062800	-0.654861
C107	C	0.633184	0.095845	-0.623908
C108	C	0.711216	0.029794	-0.246195
C109	C	0.711221	0.029802	-0.184277
C110	C	0.633183	0.095888	-0.184291
C111	C	0.633181	0.095882	-0.246210
C112	C	0.672198	0.062832	-0.277161
C113	C	0.633192	0.095834	-0.753935
C114	C	0.633200	0.095828	-0.815857
C115	C	0.711236	0.029740	-0.815837
C116	C	0.711231	0.029748	-0.753922
C117	C	0.672204	0.062796	-0.722972
O118	O	0.744395	0.001684	-0.655961
O119	O	0.599997	0.123937	-0.655941
N120	N	0.672217	0.062783	0.153191
H121	H	-0.047150	0.060549	0.097217
H122	H	0.743005	0.002837	-0.841049
H123	H	0.526402	-0.390354	-0.000016
H124	H	0.118353	0.062288	-0.150980
H125	H	0.524599	-0.541602	-0.000021
C126	C	0.781713	-0.675808	0.050510
C127	C	0.778189	-0.704423	-0.000058
H128	H	0.817163	-0.662784	0.050503
H129	H	0.779321	-0.695231	0.084806
H130	H	0.751049	-0.649999	0.050508
H131	H	0.808851	-0.730235	-0.000054
H132	H	0.780587	-0.685000	-0.034363
H133	H	0.742993	0.002882	-0.271393
H134	H	0.525695	-0.450153	-0.000024
H135	H	0.782002	-0.030186	-0.443902
H136	H	0.499317	0.066189	-0.097337
C137	C	0.556062	0.161163	-0.760185
C138	C	0.590299	0.132165	-0.719922
H139	H	0.529586	0.183595	-0.739186
H140	H	0.535756	0.141130	-0.784327
H141	H	0.579626	0.178436	-0.784344
H142	H	0.566735	0.114888	-0.695766
H143	H	0.610606	0.152200	-0.695771
C144	C	0.557303	-0.649821	-0.050594
C145	C	0.560133	-0.679182	-0.000028
H146	H	0.522262	-0.628637	-0.050588
H147	H	0.559226	-0.669736	-0.084891
H148	H	0.588500	-0.631173	-0.050590
H149	H	0.528939	-0.697833	-0.000034
H150	H	0.558204	-0.659264	0.034278
H151	H	0.562396	0.155802	-0.556243
H152	H	-0.154897	0.059456	0.097211
C153	C	0.620250	0.161673	-0.885498
C154	C	0.590307	0.132151	-0.849890
H155	H	0.593769	0.184098	-0.906503
H156	H	0.643481	0.141995	-0.912795
H157	H	0.643800	0.178955	-0.861341
H158	H	0.566761	0.114866	-0.874047
H159	H	0.567067	0.151832	-0.822590
C160	C	0.765350	-0.858561	-0.000039
C161	C	0.776919	-0.810259	-0.000045
H162	H	0.800387	-0.879751	-0.000029
H163	H	0.743919	-0.864347	-0.034341
H164	H	0.743904	-0.864344	0.034266
H165	H	0.798361	-0.804475	-0.034352
H166	H	0.798359	-0.804470	0.034262
H167	H	0.601412	0.122795	-0.159078
C168	C	0.559508	0.158269	-0.374215
C169	C	0.551278	0.165230	-0.435104
H170	H	0.533029	0.180701	-0.353219
H171	H	0.597467	0.163349	-0.364075
H172	H	0.553602	0.126038	-0.364056
H173	H	0.557188	0.197461	-0.445264
H174	H	0.513310	0.160155	-0.445248
C175	C	0.788756	0.018881	-0.114551
C176	C	0.754034	-0.006551	-0.150200
H177	H	0.815164	-0.003575	-0.093505
H178	H	0.765516	0.038590	-0.087291
H179	H	0.809143	0.038870	-0.138686
H180	H	0.733644	-0.026538	-0.126065
H181	H	0.777278	-0.026268	-0.177464
H182	H	0.527501	-0.298901	-0.000019
H183	H	0.573751	-0.779534	-0.000036
C184	C	0.556043	0.161202	-0.239990
C185	C	0.590286	0.132199	-0.280241
H186	H	0.529557	0.183620	-0.260998
H187	H	0.579597	0.178487	-0.215852
H188	H	0.535743	0.141166	-0.215827
H189	H	0.610589	0.152234	-0.304401
H190	H	0.566729	0.114913	-0.304390
H191	H	0.781997	-0.030197	-0.556224
C192	C	0.830260	-0.167681	-0.000101
C193	C	0.784289	-0.195183	-0.000087
H194	H	0.865303	-0.188863	-0.000112
H195	H	0.828336	-0.147770	0.034200
H196	H	0.828322	-0.147763	-0.034407
H197	H	0.786225	-0.215099	0.034222
H198	H	0.786214	-0.215102	-0.034392
H199	H	0.391572	0.065080	-0.097347
H200	H	0.499308	0.066147	0.097238
C201	C	0.521038	-0.131897	-0.000051
C202	C	0.566229	-0.169949	-0.000055
H203	H	0.485589	-0.144922	-0.000033
H204	H	0.523429	-0.112488	-0.034358
H205	H	0.523446	-0.112480	0.034249
H206	H	0.563825	-0.189364	-0.034357
H207	H	0.563838	-0.189366	0.034256
C208	C	0.788368	-0.035576	-0.760131
C209	C	0.754120	-0.006572	-0.719883
H210	H	0.814841	-0.058002	-0.739119
H211	H	0.808677	-0.015546	-0.784282
H212	H	0.764811	-0.052856	-0.784281
H213	H	0.777677	0.010711	-0.695736
H214	H	0.733810	-0.026604	-0.695723
H215	H	0.118340	0.062216	0.150848
H216	H	0.226094	0.063392	-0.150975
H217	H	0.226086	0.063316	0.150849
H218	H	-0.047132	0.060591	-0.097367
H219	H	-0.154894	0.059487	-0.097366
H220	H	0.391543	0.065047	0.097238
H221	H	0.770666	-0.094832	-0.000099
C222	C	0.879899	-0.365344	-0.000080
C223	C	0.834713	-0.327287	-0.000079
H224	H	0.915351	-0.352324	-0.000078
H225	H	0.877499	-0.384752	-0.034381
H226	H	0.877494	-0.384760	0.034226
H227	H	0.837116	-0.307873	-0.034388
H228	H	0.837114	-0.307870	0.034226
H229	H	0.818017	-0.483996	-0.000067
H230	H	0.818733	-0.424206	-0.000071
H231	H	0.816915	-0.575458	-0.000060
C232	C	0.579067	-0.015811	-0.000065
C233	C	0.567498	-0.064113	-0.000063
H234	H	0.544029	0.005379	-0.000052
H235	H	0.600496	-0.010021	-0.034372
H236	H	0.600513	-0.010030	0.034236
H237	H	0.546055	-0.069894	-0.034366
H238	H	0.546060	-0.069905	0.034247
