data_functionalizedCrystal
_audit_creation_method	'MofGen! by Chris Wilmer'
_symmetry_space_group_name_H-M	'P1'
_symmetry_Int_Tables_number	1
_symmetry_cell_setting	triclinic
loop_
_symmetry_equiv_pos_as_xyz
  x,y,z
_cell_length_a	21.295412
_cell_length_b	16.120530
_cell_length_c	16.120484
_cell_angle_alpha	90.167327
_cell_angle_beta	87.129412
_cell_angle_gamma	92.913341
loop_
_atom_site_label
_atom_site_type_symbol
_atom_site_fract_x
_atom_site_fract_y
_atom_site_fract_z
Zn1	Zn	-0.419034	-1.254440	0.395622
Zn2	Zn	0.080966	-0.754440	0.895622
Zn3	Zn	-0.318813	-1.247291	0.534678
Zn4	Zn	0.181187	-0.747291	1.034678
Zn5	Zn	-0.308192	-1.115389	0.388585
Zn6	Zn	0.191808	-0.615389	0.888585
Zn7	Zn	-0.418458	-1.108292	0.527575
Zn8	Zn	0.081542	-0.608292	1.027575
O9	O	-0.366124	-1.181353	0.461615
O10	O	0.133876	-0.681353	0.961615
O11	O	-0.410425	-1.369857	0.419985
O12	O	0.089575	-0.869857	0.919985
O13	O	-0.229315	-1.229772	0.515326
O14	O	0.270685	-0.729772	1.015326
O15	O	-0.318692	-1.139796	0.273155
O16	O	0.181308	-0.639796	0.773155
O17	O	-0.336794	-1.364605	0.522149
O18	O	0.163206	-0.864605	1.022149
O19	O	-0.400127	-1.241956	0.278325
O20	O	0.099873	-0.741956	0.778325
O21	O	-0.221512	-1.132864	0.407992
O22	O	0.278488	-0.632864	0.907992
O23	O	-0.318134	-0.998082	0.401104
O24	O	0.181866	-0.498082	0.901104
O25	O	-0.506624	-1.127701	0.510043
O26	O	-0.006624	-0.627701	1.010043
O27	O	-0.399145	-0.992869	0.503220
O28	O	0.100855	-0.492869	1.003220
O29	O	-0.507047	-1.235075	0.413098
O30	O	-0.007047	-0.735075	0.913098
O31	O	-0.336235	-1.222891	0.650099
O32	O	0.163765	-0.722891	1.150099
O33	O	-0.409444	-1.120769	0.644880
O34	O	0.090556	-0.620769	1.144880
C35	C	-0.357425	-0.965303	0.450628
C36	C	0.142575	-0.465303	0.950628
C37	C	-0.353719	-0.872875	0.445948
C38	C	0.146281	-0.372875	0.945948
C39	C	-0.373944	-1.170307	0.677662
C40	C	0.126056	-0.670307	1.177662
C41	C	-0.377313	-1.165658	0.770092
C42	C	0.122687	-0.665658	1.270092
C43	C	-0.530314	-1.181394	0.461563
C44	C	-0.030314	-0.681394	0.961563
C45	C	-0.600282	-1.181412	0.461541
C46	C	-0.100282	-0.681412	0.961541
C47	C	-1.099960	-1.237407	0.410934
C48	C	-0.599960	-0.737407	0.910934
C49	C	-1.034218	-1.237399	0.410954
C50	C	-0.534218	-0.737399	0.910954
C51	C	-1.001121	-1.181489	0.461435
C52	C	-0.501121	-0.681489	0.961435
C53	C	-1.033772	-1.125597	0.511916
C54	C	-0.533772	-0.625597	1.011916
C55	C	-1.099513	-1.125611	0.511901
C56	C	-0.599513	-0.625611	1.011901
N57	N	-0.895199	-1.108350	0.464136
N58	N	-0.395199	-0.608350	0.964136
N59	N	-0.832747	-1.108339	0.464146
N60	N	-0.332747	-0.608339	0.964146
C61	C	-0.803046	-1.181443	0.461484
C62	C	-0.303046	-0.681443	0.961484
N63	N	-0.838155	-1.254561	0.458797
N64	N	-0.338155	-0.754561	0.958797
N65	N	-0.900612	-1.254572	0.458783
N66	N	-0.400612	-0.754572	0.958783
C67	C	-0.929835	-1.181468	0.461457
C68	C	-0.429835	-0.681468	0.961457
C69	C	-0.699118	-1.237328	0.411032
C70	C	-0.199118	-0.737328	0.911032
C71	C	-0.633375	-1.237321	0.411058
C72	C	-0.133375	-0.737321	0.911058
C73	C	-0.632930	-1.125512	0.512016
C74	C	-0.132930	-0.625512	1.012016
C75	C	-0.698672	-1.125525	0.511995
C76	C	-0.198672	-0.625525	1.011995
C77	C	-0.731762	-1.181432	0.461499
C78	C	-0.231762	-0.681432	0.961499
C79	C	-0.202573	-1.181363	0.461609
C80	C	0.297427	-0.681363	0.961609
C81	C	-0.132603	-1.181519	0.461405
C82	C	0.367397	-0.681519	0.961405
C83	C	-0.374859	-1.398247	0.472645
C84	C	0.125141	-0.898247	0.972645
C85	C	-0.378580	-1.490674	0.477345
C86	C	0.121420	-0.990674	0.977345
C87	C	-0.346957	-0.703648	0.437384
C88	C	0.153043	-0.203648	0.937384
C89	C	-0.385340	-0.659895	0.485906
C90	C	0.114660	-0.159895	0.985906
C91	C	-0.381578	-0.565732	0.481141
C92	C	0.118422	-0.065732	0.981141
C93	C	-0.350718	-0.797820	0.442148
C94	C	0.149282	-0.297820	0.942148
C95	C	-0.358289	-1.192465	0.244725
C96	C	0.141711	-0.692465	0.744725
C97	C	-0.354950	-1.197200	0.152299
C98	C	0.145050	-0.697200	0.652299
C99	C	-0.383478	-1.157174	0.939324
C100	C	0.116522	-0.657174	1.439324
C101	C	-0.348787	-1.205681	0.983073
C102	C	0.151213	-0.705681	1.483073
C103	C	-0.352217	-1.200961	1.077239
C104	C	0.147783	-0.700961	1.577239
C105	C	-0.380049	-1.161893	0.845149
C106	C	0.119951	-0.661893	1.345149
H107	H	-1.126898	-1.282934	0.369820
H108	H	-0.626898	-0.782934	0.869820
H109	H	-0.415751	-1.112103	0.972587
H110	H	0.084249	-0.612103	1.472587
H111	H	-0.311273	-0.670390	0.392269
H112	H	0.188727	-0.170390	0.892269
C113	C	-0.734580	-1.064034	0.567508
C114	C	-0.234580	-0.564034	1.067508
N115	N	-0.761626	-1.017716	0.609323
N116	N	-0.261626	-0.517716	1.109323
C117	C	-0.998303	-1.298879	0.355425
C118	C	-0.498303	-0.798879	0.855425
N119	N	-0.971254	-1.345185	0.313599
N120	N	-0.471254	-0.845185	0.813599
H121	H	-1.006820	-1.080076	0.553019
H122	H	-0.506820	-0.580076	1.053019
C123	C	-0.433547	-0.704827	0.546867
C124	C	0.066453	-0.204827	1.046867
N125	N	-0.469853	-0.738673	0.592784
N126	N	0.030147	-0.238673	1.092784
H127	H	-0.726061	-1.282850	0.369915
H128	H	-0.226061	-0.782850	0.869915
C129	C	-0.305178	-1.266569	0.938134
C130	C	0.194822	-0.766569	1.438134
N131	N	-0.272330	-1.312424	0.904281
N132	N	0.227670	-0.812424	1.404281
H133	H	-1.126091	-1.080099	0.553001
H134	H	-0.626091	-0.580099	1.053001
H135	H	-0.606798	-1.282838	0.369961
H136	H	-0.106798	-0.782838	0.869961
H137	H	-0.605983	-1.079991	0.553122
H138	H	-0.105983	-0.579991	1.053122
