data_functionalizedCrystal
_audit_creation_method	'MofGen! by Chris Wilmer'
_symmetry_space_group_name_H-M	'P1'
_symmetry_Int_Tables_number	1
_symmetry_cell_setting	triclinic
loop_
_symmetry_equiv_pos_as_xyz
  x,y,z
_cell_length_a	16.625547
_cell_length_b	16.625545
_cell_length_c	19.076919
_cell_angle_alpha	92.272080
_cell_angle_beta	92.276735
_cell_angle_gamma	90.025495
loop_
_atom_site_label
_atom_site_type_symbol
_atom_site_fract_x
_atom_site_fract_y
_atom_site_fract_z
Zn1	Zn	1.214314	-0.339340	-0.398033
Zn2	Zn	1.219635	-0.468761	-0.280341
Zn3	Zn	1.084901	-0.333946	-0.280344
Zn4	Zn	1.079441	-0.474132	-0.397988
O5	O	1.149573	-0.404045	-0.339177
O6	O	1.327851	-0.356518	-0.382439
O7	O	1.206275	-0.446372	-0.181853
O8	O	1.102126	-0.221830	-0.295976
O9	O	1.331761	-0.451602	-0.295972
O10	O	1.197205	-0.225793	-0.382442
O11	O	1.107286	-0.347324	-0.181855
O12	O	0.971345	-0.352532	-0.295931
O13	O	1.092820	-0.460757	-0.496482
O14	O	0.967334	-0.455527	-0.382364
O15	O	1.191910	-0.361726	-0.496516
O16	O	1.200980	-0.582305	-0.295927
O17	O	1.097980	-0.586251	-0.382361
C18	C	0.940083	-0.404027	-0.339143
C19	C	0.850462	-0.404040	-0.339146
C20	C	1.149486	-0.613535	-0.339154
C21	C	1.149522	-0.703156	-0.339168
C22	C	0.777679	-0.404042	-0.339155
C23	C	0.686370	-0.404047	-0.339172
C24	C	0.613593	-0.404056	-0.339190
C25	C	0.522278	-0.404062	-0.339207
C26	C	1.149552	-0.775939	-0.339182
C27	C	1.149599	-0.867248	-0.339198
C28	C	1.149640	-0.940025	-0.339207
C29	C	1.149686	-1.031340	-0.339221
C30	C	1.359880	-0.404063	-0.339210
C31	C	1.449500	-0.404070	-0.339225
C32	C	1.141162	-0.412442	-0.522750
C33	C	1.137578	-0.416021	-0.600979
C34	C	1.149681	-0.193737	-0.339214
C35	C	1.149727	-0.104117	-0.339230
C36	C	1.187483	-0.366144	-0.637749
C37	C	1.184106	-0.369504	-0.711253
C38	C	1.130827	-0.422744	-0.747985
C39	C	1.080917	-0.472623	-0.711209
C40	C	1.084291	-0.469259	-0.637707
C41	C	1.115201	-0.438330	-0.967811
C42	C	1.111832	-0.441692	-1.041319
C43	C	1.215020	-0.338572	-1.041357
C44	C	1.218393	-0.335216	-0.967854
C45	C	1.168480	-0.385091	-0.931084
N46	N	1.127375	-0.426181	-0.823117
N47	N	1.171928	-0.381650	-0.855953
C48	C	1.157997	-0.395621	-0.156317
C49	C	1.161737	-0.391816	-0.078089
H50	H	1.224745	-0.328891	-0.741188
O51	O	1.023445	-0.530044	-0.750822
H52	H	1.029486	-0.524010	-0.808111
O53	O	1.061346	-0.492125	-0.928182
H54	H	1.098920	-0.531632	-0.894683
H55	H	1.043645	-0.509866	-0.607769
O56	O	1.054352	-0.499107	-1.080940
H57	H	1.088876	-0.541673	-1.114425
H58	H	1.261780	-0.291864	-0.937951
O59	O	1.268827	-0.284763	-1.081024
H60	H	1.308291	-0.322375	-1.114526
O61	O	1.244948	-0.308720	-0.598131
H62	H	1.279077	-0.274598	-0.636052
