data_functionalizedCrystal
_audit_creation_method	'MofGen! by Chris Wilmer'
_symmetry_space_group_name_H-M	'P1'
_symmetry_Int_Tables_number	1
_symmetry_cell_setting	triclinic
loop_
_symmetry_equiv_pos_as_xyz
  x,y,z
_cell_length_a	17.699083
_cell_length_b	10.489741
_cell_length_c	16.776229
_cell_angle_alpha	89.993659
_cell_angle_beta	89.998886
_cell_angle_gamma	83.911094
loop_
_atom_site_label
_atom_site_type_symbol
_atom_site_fract_x
_atom_site_fract_y
_atom_site_fract_z
O1	O	1.005134	0.161296	-0.066176
O2	O	0.784893	0.182281	-0.066202
O3	O	0.900025	-0.013903	-0.066184
O4	O	0.890002	0.357479	-0.066194
O5	O	0.900009	-0.013915	0.066393
O6	O	0.784877	0.182269	0.066375
O7	O	1.005118	0.161284	0.066401
Zn8	Zn	0.894995	0.171774	0.087437
Zn9	Zn	0.895016	0.171790	-0.087238
O10	O	0.889986	0.357467	0.066382
C11	C	0.756683	0.181523	0.000083
C12	C	0.672650	0.179267	0.000073
C13	C	0.899260	-0.061427	0.000104
C14	C	0.896995	-0.203014	0.000102
C15	C	0.624782	0.294422	0.000070
C16	C	0.545825	0.292295	0.000080
C17	C	0.514737	0.175011	0.000088
C18	C	0.562611	0.059847	0.000094
C19	C	0.641567	0.061975	0.000089
C20	C	0.244192	0.051260	0.000114
C21	C	0.165230	0.049140	0.000116
C22	C	0.148450	0.281580	0.000105
C23	C	0.227406	0.283709	0.000100
C24	C	0.275273	0.168545	0.000110
C25	C	0.360887	0.170853	0.000100
C26	C	0.429124	0.172702	0.000092
C27	C	0.823740	-0.269793	0.000088
C28	C	0.858337	-0.362564	0.065459
C29	C	0.858370	-0.362527	-0.065251
C30	C	0.931623	-0.293920	0.065528
C31	C	0.931645	-0.293874	-0.065241
C32	C	0.966296	-0.386619	0.000146
C33	C	1.033328	0.162042	0.000114
C34	C	1.117361	0.164297	0.000119
C35	C	0.890751	0.404991	0.000093
C36	C	0.893016	0.546578	0.000089
N37	N	0.894987	0.171763	0.206648
N38	N	0.895030	0.171791	-0.206450
C39	C	0.945983	0.084928	0.248373
C40	C	0.945987	0.084927	0.331826
C41	C	0.894998	0.171767	0.373551
C42	C	0.843996	0.258606	0.331820
C43	C	0.843989	0.258600	0.248369
C44	C	0.844024	0.258631	0.668367
C45	C	0.844037	0.258633	0.751824
C46	C	0.946022	0.084958	0.751823
C47	C	0.946015	0.084952	0.668373
C48	C	0.895011	0.171786	0.626649
C49	C	0.895006	0.171784	0.536161
C50	C	0.895006	0.171776	0.464038
H51	H	0.650088	0.389929	0.000063
H52	H	0.827371	-0.392910	-0.120523
C53	C	0.049914	0.414047	-0.068043
C54	C	0.095831	0.408173	0.000104
H55	H	0.017428	0.492195	-0.068042
H56	H	0.081062	0.410050	-0.114270
H57	H	0.020103	0.343888	-0.068027
H58	H	0.125646	0.478327	0.000084
H59	H	0.064679	0.412182	0.046342
H60	H	0.962585	-0.263669	0.120856
H61	H	0.139922	-0.046372	0.000123
H62	H	1.026580	-0.437163	0.000189
H63	H	0.283156	-0.042514	0.000122
H64	H	0.962621	-0.263400	-0.120504
C65	C	0.449030	-0.046629	0.000098
C66	C	0.528441	-0.069076	0.000101
H67	H	0.427938	-0.126224	0.000096
H68	H	0.432647	0.000762	0.046327
H69	H	0.432650	0.000781	-0.046138
H70	H	0.544822	-0.116479	0.046341
H71	H	0.544830	-0.116487	-0.046133
H72	H	0.763510	-0.219023	0.000147
C73	C	0.537169	0.522270	0.000057
C74	C	0.493209	0.418878	0.000073
H75	H	0.504685	0.600419	0.000049
H76	H	0.568316	0.518266	0.046284
H77	H	0.568313	0.518254	-0.046181
H78	H	0.462069	0.422889	0.046315
H79	H	0.462050	0.422885	-0.046158
H80	H	0.987507	0.014218	0.214406
C81	C	1.046818	-0.086712	0.323443
C82	C	1.002056	-0.010505	0.377690
H83	H	1.081439	-0.145620	0.351759
H84	H	1.015070	-0.132544	0.290909
H85	H	1.074313	-0.033652	0.290881
H86	H	0.974557	-0.063565	0.410249
H87	H	1.033808	0.035330	0.410238
H88	H	0.802496	0.329336	0.634402
C89	C	0.650228	-0.168002	0.000087
C90	C	0.694186	-0.064607	0.000085
H91	H	0.682714	-0.246150	0.000081
H92	H	0.619087	-0.164005	0.046319
H93	H	0.619078	-0.163983	-0.046146
H94	H	0.725331	-0.068622	0.046322
H95	H	0.725339	-0.068607	-0.046151
C96	C	0.741844	-0.344109	0.139931
C97	C	0.816488	-0.403671	0.140056
H98	H	0.716006	-0.369490	0.185979
H99	H	0.742582	-0.253703	0.140226
H100	H	0.716318	-0.368759	0.093506
H101	H	0.842017	-0.379013	0.186478
H102	H	0.815754	-0.494096	0.139768
C103	C	1.046821	-0.086735	0.676757
C104	C	1.002061	-0.010510	0.622509
H105	H	1.081417	-0.145677	0.648441
H106	H	1.074337	-0.033700	0.709293
H107	H	1.015064	-0.132540	0.709317
H108	H	1.033818	0.035303	0.589952
H109	H	0.974543	-0.063552	0.589959
C110	C	0.961517	-0.088678	0.845679
C111	C	1.002080	-0.010508	0.797689
H112	H	0.996126	-0.147614	0.873989
H113	H	0.931158	-0.036961	0.882468
H114	H	0.929767	-0.134488	0.813121
H115	H	1.033826	0.035310	0.830248
H116	H	1.032452	-0.062231	0.760896
H117	H	0.802512	0.329351	0.785795
C118	C	0.798727	0.335744	0.459742
C119	C	0.787949	0.354067	0.377683
H120	H	0.764129	0.394688	0.488053
H121	H	0.790045	0.250648	0.473426
H122	H	0.849316	0.349492	0.473400
H123	H	0.737362	0.340310	0.364024
H124	H	0.796625	0.439183	0.363994
C125	C	0.743185	0.430287	0.256746
C126	C	0.787936	0.354057	0.202502
H127	H	0.708581	0.489222	0.228428
H128	H	0.715678	0.377255	0.289302
H129	H	0.774947	0.476101	0.289288
H130	H	0.756174	0.308236	0.169964
H131	H	0.815444	0.407097	0.169932
C132	C	0.202887	0.513260	0.000100
C133	C	0.261577	0.412631	0.000096
H134	H	0.223983	0.592851	0.000105
H135	H	0.172441	0.507606	-0.046129
H136	H	0.172440	0.507579	0.046337
H137	H	0.292020	0.418306	-0.046144
H138	H	0.292035	0.418287	0.046329
