data_functionalizedCrystal
_audit_creation_method	'MofGen! by Chris Wilmer'
_symmetry_space_group_name_H-M	'P1'
_symmetry_Int_Tables_number	1
_symmetry_cell_setting	triclinic
loop_
_symmetry_equiv_pos_as_xyz
  x,y,z
_cell_length_a	11.792241
_cell_length_b	11.792254
_cell_length_c	10.868271
_cell_angle_alpha	90.005308
_cell_angle_beta	90.000107
_cell_angle_gamma	84.196007
loop_
_atom_site_label
_atom_site_type_symbol
_atom_site_fract_x
_atom_site_fract_y
_atom_site_fract_z
O1	O	-1.506915	-0.155568	-0.102203
O2	O	-1.256915	0.094432	0.147797
O3	O	-1.006915	0.344432	0.397797
O4	O	-0.756915	0.594432	0.647797
O5	O	-1.176575	-0.171600	-0.102232
O6	O	-0.926575	0.078400	0.147768
O7	O	-0.676575	0.328400	0.397768
O8	O	-0.426575	0.578400	0.647768
O9	O	-1.349754	0.001586	-0.102208
O10	O	-1.099754	0.251586	0.147792
O11	O	-0.849754	0.501586	0.397792
O12	O	-0.599754	0.751586	0.647792
O13	O	-1.333736	-0.328754	-0.102227
O14	O	-1.083736	-0.078754	0.147773
O15	O	-0.833736	0.171246	0.397773
O16	O	-0.583736	0.421246	0.647773
O17	O	-1.349740	0.001592	0.102436
O18	O	-1.099740	0.251592	0.352436
O19	O	-0.849740	0.501592	0.602436
O20	O	-0.599740	0.751592	0.852436
O21	O	-1.176561	-0.171594	0.102413
O22	O	-0.926561	0.078406	0.352413
O23	O	-0.676561	0.328406	0.602413
O24	O	-0.426561	0.578406	0.852413
O25	O	-1.506901	-0.155561	0.102441
O26	O	-1.256901	0.094439	0.352441
O27	O	-1.006901	0.344439	0.602441
O28	O	-0.756901	0.594439	0.852441
Zn29	Zn	-1.341729	-0.163576	0.134919
Zn30	Zn	-1.091729	0.086424	0.384919
Zn31	Zn	-0.841729	0.336424	0.634919
Zn32	Zn	-0.591729	0.586424	0.884919
Zn33	Zn	-1.341748	-0.163585	-0.134709
Zn34	Zn	-1.091748	0.086415	0.115291
Zn35	Zn	-0.841748	0.336415	0.365291
Zn36	Zn	-0.591748	0.586415	0.615291
O37	O	-1.333722	-0.328747	0.102418
O38	O	-1.083722	-0.078747	0.352418
O39	O	-0.833722	0.171253	0.602418
O40	O	-0.583722	0.421253	0.852418
C41	C	-1.134277	-0.170590	0.000087
C42	C	-0.884277	0.079410	0.250087
C43	C	-0.634277	0.329410	0.500087
C44	C	-0.384277	0.579410	0.750087
C45	C	-1.008263	-0.167576	0.000076
C46	C	-0.758263	0.082424	0.250076
C47	C	-0.508263	0.332424	0.500076
C48	C	-0.258263	0.582424	0.750076
C49	C	-1.348738	0.043880	0.000114
C50	C	-1.098738	0.293880	0.250114
C51	C	-0.848738	0.543880	0.500114
C52	C	-0.598738	0.793880	0.750114
C53	C	-1.345718	0.169893	0.000112
C54	C	-1.095718	0.419893	0.250112
C55	C	-0.845718	0.669893	0.500112
C56	C	-0.595718	0.919893	0.750112
C57	C	-1.549199	-0.156571	0.000120
C58	C	-1.299199	0.093429	0.250120
C59	C	-1.049199	0.343429	0.500120
C60	C	-0.799199	0.593429	0.750120
C61	C	-1.675213	-0.159586	0.000123
C62	C	-1.425213	0.090414	0.250123
C63	C	-1.175213	0.340414	0.500123
C64	C	-0.925213	0.590414	0.750123
C65	C	-1.334738	-0.371041	0.000093
C66	C	-1.084738	-0.121041	0.250093
C67	C	-0.834738	0.128959	0.500093
C68	C	-0.584738	0.378959	0.750093
C69	C	-1.337758	-0.497054	0.000086
C70	C	-1.087758	-0.247054	0.250086
C71	C	-0.837758	0.002946	0.500086
C72	C	-0.587758	0.252946	0.750086
C73	C	-0.777551	-0.162033	0.000112
C74	C	-0.527551	0.087967	0.250112
C75	C	-0.277551	0.337967	0.500112
C76	C	-0.027551	0.587967	0.750112
C77	C	-0.905936	-0.165112	0.000092
C78	C	-0.655936	0.084888	0.250092
C79	C	-0.405936	0.334888	0.500092
C80	C	-0.155936	0.584888	0.750092
N81	N	-1.341724	-0.163569	0.318933
N82	N	-1.091724	0.086431	0.568933
N83	N	-0.841724	0.336431	0.818933
N84	N	-0.591724	0.586431	1.068933
C85	C	-1.343264	0.272229	0.000108
C86	C	-1.093264	0.522229	0.250108
C87	C	-0.843264	0.772229	0.500108
C88	C	-0.593264	1.022229	0.750108
C89	C	-1.340196	0.400616	0.000096
C90	C	-1.090196	0.650616	0.250096
C91	C	-0.840196	0.900616	0.500096
C92	C	-0.590196	1.150616	0.750096
N93	N	-1.341761	-0.163583	-0.318724
N94	N	-1.091761	0.086417	-0.068724
N95	N	-0.841761	0.336417	0.181276
N96	N	-0.591761	0.586417	0.431276
C97	C	-1.341742	-0.163583	0.569939
C98	C	-1.091742	0.086417	0.819939
C99	C	-0.841742	0.336417	1.069939
C100	C	-0.591742	0.586417	1.319939
C101	C	-1.341728	-0.163579	0.430261
C102	C	-1.091728	0.086421	0.680261
C103	C	-0.841728	0.336421	0.930261
C104	C	-0.591728	0.586421	1.180261
