data_functionalizedCrystal
_audit_creation_method	'MofGen! by Chris Wilmer'
_symmetry_space_group_name_H-M	'P1'
_symmetry_Int_Tables_number	1
_symmetry_cell_setting	triclinic
loop_
_symmetry_equiv_pos_as_xyz
  x,y,z
_cell_length_a	27.435584
_cell_length_b	27.434948
_cell_length_c	27.431174
_cell_angle_alpha	60.005483
_cell_angle_beta	60.011353
_cell_angle_gamma	59.993028
loop_
_atom_site_label
_atom_site_type_symbol
_atom_site_fract_x
_atom_site_fract_y
_atom_site_fract_z
O1	O	0.067437	-0.712144	0.595551
O2	O	0.025356	-0.554453	0.479848
O3	O	0.125206	-0.654236	0.479781
O4	O	-0.032412	-0.612361	0.595618
O5	O	0.158328	-0.621117	0.512835
O6	O	0.058479	-0.521333	0.512902
O7	O	0.100560	-0.679025	0.628605
Zn8	Zn	0.084778	-0.594921	0.576001
Zn9	Zn	0.041138	-0.638557	0.532452
O10	O	0.000710	-0.579241	0.628672
N11	N	0.114563	-0.565144	0.605726
N12	N	0.011358	-0.668338	0.502727
C13	C	0.156385	-0.523520	0.904506
C14	C	0.413419	-0.523497	0.647322
C15	C	0.156253	-0.523488	0.647384
C16	C	0.156238	-0.266354	0.647407
C17	C	0.197637	-0.390463	0.688753
C18	C	0.197646	-0.482126	0.688741
C19	C	0.220575	-0.459215	0.711654
C20	C	0.320555	-0.441991	0.659023
C21	C	0.383051	-0.462825	0.638179
C22	C	0.383069	-0.563942	0.676737
C23	C	0.320575	-0.543107	0.697583
C24	C	0.212704	-0.359206	0.627313
C25	C	0.191849	-0.296705	0.606496
C26	C	0.140866	-0.296722	0.708562
C27	C	0.161721	-0.359223	0.729379
C28	C	0.136200	-0.467030	0.703858
C29	C	0.115361	-0.487857	0.683021
C30	C	0.217408	-0.538877	0.631968
C31	C	0.238249	-0.518050	0.652796
C32	C	0.136259	-0.467047	0.811668
C33	C	0.115461	-0.487892	0.874167
C34	C	0.217537	-0.538923	0.874131
C35	C	0.238333	-0.518080	0.811631
C36	C	0.197693	-0.482140	0.780401
C37	C	0.289320	-0.482131	0.688723
C38	C	0.132699	-0.546027	0.973247
C39	C	0.482158	-0.545613	0.624075
C40	C	0.132521	-0.546006	0.624886
C41	C	0.132917	-0.197607	0.625310
C42	C	-0.098217	-0.686189	0.484419
C43	C	-0.006438	-0.686322	0.392891
C44	C	-0.006621	-0.777944	0.484592
C45	C	-0.006606	-0.686315	0.484649
C46	C	-0.029470	-0.709193	0.461638
N47	N	0.538410	-0.565162	0.605628
O48	O	0.742647	-0.575135	0.458625
O49	O	0.742821	-0.691181	0.616169
O50	O	0.742757	-0.690917	0.516248
O51	O	0.742711	-0.575399	0.558546
O52	O	0.643472	-0.657878	0.549405
O53	O	0.643536	-0.658142	0.649326
O54	O	0.643362	-0.542096	0.491782
Zn55	Zn	0.627685	-0.594873	0.575818
Zn56	Zn	0.758498	-0.638404	0.532133
O57	O	0.643426	-0.542360	0.591702
N58	N	0.847774	-0.668115	0.502317
N59	N	0.114542	-0.141354	0.605766
O60	O	-0.032397	0.062987	0.595660
O61	O	0.125155	0.062987	0.479633
O62	O	0.025219	0.062974	0.479910
O63	O	0.067539	0.063001	0.595383
O64	O	0.058343	-0.036320	0.513009
O65	O	0.158279	-0.036306	0.512732
O66	O	0.000728	-0.036306	0.628759
Zn67	Zn	0.084763	-0.052071	0.576000
Zn68	Zn	0.041120	0.078752	0.532392
O69	O	0.100664	-0.036292	0.628482
N70	N	0.011333	0.168036	0.502628
N71	N	0.114782	-0.565197	1.029501
O72	O	0.104681	-0.712124	1.233827
O73	O	-0.011334	-0.554523	1.233839
O74	O	-0.011066	-0.654443	1.233797
O75	O	0.104414	-0.612204	1.233869
O76	O	0.022028	-0.621336	1.134509
O77	O	0.021760	-0.521417	1.134551
O78	O	0.137775	-0.679018	1.134539
Zn79	Zn	0.085022	-0.594961	1.118780
Zn80	Zn	0.041420	-0.638580	1.249597
O81	O	0.137508	-0.579098	1.134580
N82	N	0.011658	-0.668350	1.338876
C83	C	0.037974	-0.518023	0.480435
C84	C	0.161625	-0.641592	0.480351
C85	C	0.087941	-0.715455	0.628017
C86	C	-0.035710	-0.591885	0.628101
C87	C	0.693199	-0.690642	0.652596
C88	C	0.693122	-0.690315	0.528855
C89	C	0.692981	-0.542634	0.455356
C90	C	0.693062	-0.542961	0.579095
C91	C	0.161524	0.013463	0.480164
C92	C	0.037807	0.013324	0.480547
C93	C	-0.035683	0.013341	0.628188
C94	C	0.088076	0.013357	0.627845
C95	C	-0.010764	-0.518114	1.184196
C96	C	-0.010426	-0.641846	1.184125
C97	C	0.137205	-0.715426	1.184182
C98	C	0.136875	-0.591687	1.184231
H99	H	0.065433	-0.475593	0.899616
H100	H	-0.047187	-0.472851	1.184199
H101	H	0.173631	-0.760687	1.184171
O102	O	-0.089740	-0.581133	0.671444
C103	C	-0.188059	-0.510399	0.699023
C104	C	-0.126894	-0.522492	0.649889
H105	H	-0.218119	-0.462994	0.681610
H106	H	-0.181844	-0.515742	0.739739
H107	H	-0.209510	-0.543532	0.712085
H108	H	-0.105409	-0.489370	0.636776
H109	H	-0.133148	-0.517171	0.609205
H110	H	0.693140	-0.726605	0.519802
H111	H	-0.046689	-0.650868	1.184063
H112	H	0.206895	-0.650521	0.443974
H113	H	0.173154	-0.582650	1.184245
H114	H	0.206679	0.013739	0.443646
O115	O	-0.089619	0.013240	0.671697
C116	C	-0.142907	-0.038167	0.771279
C117	C	-0.081787	-0.038136	0.722053
H118	H	-0.136594	-0.079694	0.812008
H119	H	-0.173031	-0.038212	0.754025
H120	H	-0.164341	0.003412	0.784258
H121	H	-0.060301	-0.079708	0.709052
H122	H	-0.051705	-0.038060	0.739334
O123	O	0.692940	-0.499239	0.401340
C124	C	0.692812	-0.471465	0.303021
C125	C	0.692874	-0.520666	0.364161
H126	H	0.692746	-0.488766	0.272949
H127	H	0.734349	-0.458418	0.281522
H128	H	0.651248	-0.430764	0.309347
H129	H	0.734410	-0.561399	0.357888
H130	H	0.651310	-0.533663	0.385640
H131	H	0.028745	0.013321	0.444270
H132	H	0.693053	-0.506675	0.588146
H133	H	0.103160	-0.437777	0.786243
H134	H	0.097136	0.013366	0.664120
O135	O	0.027193	-0.464011	0.437063
C136	C	-0.033325	-0.392096	0.374205
C137	C	-0.021170	-0.453281	0.423314
H138	H	-0.072434	-0.383395	0.363082
H139	H	0.008081	-0.391882	0.332512
H140	H	-0.044643	-0.355691	0.390695
H141	H	-0.009867	-0.489719	0.406880
H142	H	-0.062585	-0.453444	0.464997
H143	H	0.288361	-0.530376	0.786177
O144	O	0.257040	-0.573909	0.904436
C145	C	0.337958	-0.665874	0.923488
C146	C	0.293242	-0.626318	0.889142
H147	H	0.367248	-0.708249	0.911126
H148	H	0.312577	-0.678232	0.973536
H149	H	0.367182	-0.640399	0.911199
H150	H	0.264007	-0.651756	0.901382
H151	H	0.318660	-0.613957	0.839103
O152	O	0.096733	-0.432047	0.738681
C153	C	0.015840	-0.340075	0.746708
C154	C	0.060515	-0.379628	0.707200
H155	H	-0.013462	-0.297692	0.721277
H156	H	0.041256	-0.327732	0.758994
H157	H	-0.013376	-0.365547	0.789126
H158	H	0.089742	-0.354193	0.664757
H159	H	0.035062	-0.391975	0.694963
O160	O	0.055669	-0.473271	0.697805
C161	C	-0.037905	-0.478031	0.777064
C162	C	0.029689	-0.494597	0.760404
H163	H	-0.058932	-0.495254	0.827676
H164	H	-0.045855	-0.499107	0.756044
H165	H	-0.058976	-0.427423	0.759802
H166	H	0.050805	-0.545196	0.777663
H167	H	0.037597	-0.473477	0.781416
H168	H	0.096930	-0.760753	0.664356
O169	O	0.693361	-0.734123	0.706548
C170	C	0.744858	-0.797196	0.778429
C171	C	0.744755	-0.747964	0.717312
H172	H	0.786398	-0.808393	0.787157
H173	H	0.744922	-0.838825	0.778515
H174	H	0.703299	-0.780786	0.814885
H175	H	0.786306	-0.764318	0.680822
H176	H	0.744659	-0.706345	0.717277
O177	O	0.256884	-0.573682	0.596967
C178	C	0.337741	-0.581650	0.504983
C179	C	0.293051	-0.542170	0.544561
H180	H	0.367002	-0.556193	0.462610
H181	H	0.312337	-0.593938	0.492627
H182	H	0.366996	-0.624070	0.530438
H183	H	0.263785	-0.499725	0.519143
H184	H	0.318491	-0.529930	0.556920
O185	O	0.290324	-0.582178	0.726398
C186	C	0.296941	-0.684676	0.762470
C187	C	0.331273	-0.640492	0.729815
H188	H	0.330033	-0.731834	0.765254
H189	H	0.267680	-0.672172	0.736925
H190	H	0.267685	-0.682733	0.809448
H191	H	0.360561	-0.642412	0.682836
H192	H	0.360496	-0.653010	0.755405
O193	O	0.413302	-0.423750	0.609315
C194	C	0.406690	-0.321261	0.573297
C195	C	0.372355	-0.365447	0.605982
H196	H	0.373599	-0.274115	0.570603
H197	H	0.435915	-0.323127	0.526288
H198	H	0.435981	-0.333841	0.598841
H199	H	0.343031	-0.352898	0.580488
H200	H	0.343167	-0.363574	0.652994
O201	O	0.413464	-0.623155	0.685231
C202	C	0.484046	-0.698771	0.639172
C203	C	0.449651	-0.631698	0.629467
H204	H	0.513321	-0.705698	0.594095
H205	H	0.451015	-0.723911	0.663947
H206	H	0.513297	-0.716355	0.666667
H207	H	0.420400	-0.614060	0.601957
H208	H	0.482715	-0.606599	0.604718
O209	O	0.206558	-0.266431	0.546791
C210	C	0.259294	-0.273006	0.447749
C211	C	0.242692	-0.307365	0.515348
H212	H	0.288499	-0.306086	0.422308
H213	H	0.284769	-0.243761	0.435410
H214	H	0.216861	-0.243728	0.435487
H215	H	0.285093	-0.336675	0.527659
H216	H	0.217194	-0.336572	0.527651
O217	O	0.290131	-0.382783	0.650522
C218	C	0.219614	-0.307153	0.696575
C219	C	0.254022	-0.374224	0.706287
H220	H	0.190422	-0.300210	0.741652
H221	H	0.190296	-0.289532	0.669136
H222	H	0.252689	-0.282055	0.671740
H223	H	0.220990	-0.399371	0.731138
H224	H	0.283349	-0.391798	0.733701
H225	H	0.288283	-0.530335	0.640482
H226	H	0.241946	-0.384640	0.594232
H227	H	0.149444	-0.384673	0.779411
O228	O	0.105967	-0.266465	0.748105
C229	C	0.057646	-0.273075	0.851538
C230	C	0.097162	-0.307414	0.806822
H231	H	0.050526	-0.306167	0.899021
H232	H	0.012653	-0.243834	0.844403
H233	H	0.080543	-0.243794	0.844289
H234	H	0.074318	-0.336727	0.814044
H235	H	0.142154	-0.336617	0.813968
