data_functionalizedCrystal
_audit_creation_method	'MofGen! by Chris Wilmer'
_symmetry_space_group_name_H-M	'P1'
_symmetry_Int_Tables_number	1
_symmetry_cell_setting	triclinic
loop_
_symmetry_equiv_pos_as_xyz
  x,y,z
_cell_length_a	17.699083
_cell_length_b	15.538191
_cell_length_c	16.176319
_cell_angle_alpha	89.995479
_cell_angle_beta	89.998611
_cell_angle_gamma	65.277554
loop_
_atom_site_label
_atom_site_type_symbol
_atom_site_fract_x
_atom_site_fract_y
_atom_site_fract_z
O1	O	0.971508	0.119201	-0.068626
O2	O	0.746892	0.134709	-0.068653
O3	O	0.902923	-0.010274	-0.068638
O4	O	0.815476	0.264185	-0.068641
O5	O	0.902910	-0.010284	0.068855
O6	O	0.746878	0.134700	0.068840
O7	O	0.971494	0.119192	0.068867
Cu8	Cu	0.859185	0.126945	0.081408
Cu9	Cu	0.859201	0.126956	-0.081194
O10	O	0.815463	0.264175	0.068852
C11	C	0.718840	0.134149	0.000090
C12	C	0.635277	0.132482	0.000080
C13	C	0.563403	0.217584	0.000079
C14	C	0.484889	0.216012	0.000090
C15	C	0.478252	0.129337	0.000095
C16	C	0.550134	0.044228	0.000098
C17	C	0.628646	0.045801	0.000094
C18	C	0.233505	0.037882	0.000119
C19	C	0.154985	0.036316	0.000121
C20	C	0.089748	0.208094	0.000115
C21	C	0.168260	0.209667	0.000111
C22	C	0.240135	0.124558	0.000118
C23	C	0.325269	0.126264	0.000108
C24	C	0.393120	0.127630	0.000100
C25	C	0.912066	-0.045395	0.000107
C26	C	0.939318	-0.150032	0.000102
C27	C	0.668571	-0.437202	0.000087
C28	C	0.694198	-0.535527	0.000092
C29	C	0.838344	-0.558300	0.000109
C30	C	0.812729	-0.459975	0.000100
C31	C	0.727842	-0.399434	0.000090
C32	C	0.872000	-0.422207	0.000103
C33	C	0.846387	-0.323891	0.000098
C34	C	0.761503	-0.263343	0.000091
C35	C	0.702229	-0.301118	0.000085
C36	C	0.956887	-0.482750	0.000118
C37	C	1.016158	-0.444981	0.000121
C38	C	0.990545	-0.346663	0.000111
C39	C	0.905661	-0.286116	0.000103
C40	C	1.049819	-0.308889	0.000116
C41	C	1.024206	-0.210573	0.000111
C42	C	0.880048	-0.187800	0.000099
C43	C	0.999546	0.119752	0.000122
C44	C	1.083109	0.121419	0.000127
C45	C	0.806321	0.299297	0.000106
C46	C	0.779068	0.403933	0.000105
N47	N	0.859180	0.126937	0.195773
N48	N	0.859215	0.126957	-0.195559
C49	C	0.928279	0.062764	0.239044
C50	C	0.928283	0.062763	0.325591
C51	C	0.859189	0.126940	0.368866
C52	C	0.790084	0.191116	0.325589
C53	C	0.790078	0.191111	0.239043
C54	C	0.790105	0.191133	0.674617
C55	C	0.790117	0.191135	0.761169
C56	C	0.928310	0.062785	0.761164
C57	C	0.928304	0.062781	0.674619
C58	C	0.859197	0.126953	0.631350
C59	C	0.859193	0.126952	0.537506
C60	C	0.859195	0.126946	0.462708
H61	H	0.173657	0.280246	0.000103
H62	H	0.544725	-0.026345	0.000115
H63	H	0.687169	-0.023498	0.000094
H64	H	0.810924	-0.138503	0.000085
H65	H	0.149589	-0.034270	0.000127
H66	H	1.072470	-0.179822	0.000115
H67	H	0.568797	0.288165	0.000074
H68	H	0.633105	-0.251821	0.000071
H69	H	0.599448	-0.387905	0.000073
C70	C	0.406884	0.308443	-0.000085
C71	C	0.406291	0.360629	-0.070839
C72	C	0.334441	0.445780	-0.071033
H73	H	0.406278	0.344104	0.047801
H74	H	0.359149	0.295140	-0.000122
H75	H	0.454014	0.373934	-0.070794
H76	H	0.406885	0.324996	-0.118737
H77	H	0.286706	0.432476	-0.071070
H78	H	0.333841	0.481433	-0.023144
H79	H	0.334026	0.481194	-0.119042
H80	H	0.740650	-0.183289	0.000092
H81	H	0.645927	-0.566272	0.000102
C82	C	1.108330	-0.510669	0.000298
C83	C	1.145579	-0.493640	0.071044
C84	C	1.230486	-0.554139	0.071237
H85	H	1.133853	-0.499288	-0.047594
H86	H	1.115134	-0.574647	0.000345
H87	H	1.138781	-0.429677	0.070989
H88	H	1.120081	-0.505027	0.118947
H89	H	1.237290	-0.618117	0.071284
H90	H	1.256001	-0.542753	0.023342
H91	H	1.255769	-0.542599	0.119240
H92	H	0.733850	0.243397	0.796402
C93	C	1.003359	-0.007021	0.192213
C94	C	1.063864	-0.063238	0.248636
C95	C	1.133036	-0.127547	0.205529
H96	H	1.025663	0.026724	0.158440
H97	H	0.986935	-0.046272	0.158477
H98	H	1.080288	-0.023993	0.282357
H99	H	1.041588	-0.097004	0.282410
H100	H	1.116611	-0.166797	0.171793
H101	H	1.155331	-0.093794	0.171758
H102	H	1.174093	-0.165704	0.243805
C103	C	1.003340	-0.007051	0.808041
C104	C	1.016522	-0.099658	0.786979
C105	C	1.085636	-0.164012	0.830135
H106	H	0.993539	0.002005	0.865794
H107	H	1.051090	0.003050	0.793835
H108	H	0.968784	-0.109755	0.801190
H109	H	1.026338	-0.108744	0.729233
H110	H	1.133386	-0.153912	0.815929
H111	H	1.075828	-0.154947	0.887886
H112	H	1.094594	-0.226853	0.815844
H113	H	0.031216	0.277393	0.000114
C114	C	0.311436	-0.054620	0.000081
C115	C	0.288814	-0.130859	0.000063
C116	C	0.360587	-0.216091	0.000017
H117	H	0.343474	-0.057716	0.048015
H118	H	0.343425	-0.057630	-0.047885
H119	H	0.256840	-0.127850	0.048024
H120	H	0.256786	-0.127794	-0.047868
H121	H	0.392575	-0.219101	-0.047949
H122	H	0.392620	-0.219177	0.047952
H123	H	0.345248	-0.267829	-0.000003
C124	C	0.930517	-0.623987	0.000285
C125	C	0.967766	-0.606958	0.071032
C126	C	1.052673	-0.667457	0.071224
H127	H	0.956040	-0.612607	-0.047606
H128	H	0.937321	-0.687965	0.000333
H129	H	0.960968	-0.542995	0.070977
H130	H	0.942268	-0.618345	0.118935
H131	H	1.059477	-0.731436	0.071272
H132	H	1.078188	-0.656072	0.023330
H133	H	1.077956	-0.655918	0.119228
C134	C	0.715018	0.260915	0.627796
C135	C	0.654524	0.317136	0.684221
C136	C	0.585343	0.381441	0.641116
H137	H	0.692708	0.227167	0.594041
H138	H	0.731435	0.300163	0.594043
H139	H	0.638107	0.277893	0.717960
H140	H	0.676806	0.350905	0.717978
H141	H	0.601761	0.420689	0.607364
H142	H	0.563042	0.347684	0.607363
H143	H	0.544293	0.419600	0.679394
C144	C	1.142006	-0.374515	0.000002
C145	C	1.179276	-0.357461	-0.070723
C146	C	1.264200	-0.417889	-0.070851
H147	H	1.148887	-0.438510	-0.000034
H148	H	1.167457	-0.363065	0.047925
H149	H	1.153833	-0.368919	-0.118634
H150	H	1.172419	-0.293479	-0.070702
H151	H	1.289651	-0.406438	-0.022927
H152	H	1.271072	-0.481879	-0.070884
H153	H	1.289500	-0.406320	-0.118832
H154	H	0.733824	0.243367	0.360828
C155	C	1.003219	-0.007017	0.372609
C156	C	0.978762	-0.064683	0.422288
C157	C	1.047777	-0.128987	0.465601
H158	H	1.025472	0.026733	0.406431
H159	H	1.044371	-0.045286	0.334462
H160	H	0.937625	-0.026419	0.460430
H161	H	0.956518	-0.098454	0.388486
H162	H	1.088929	-0.167256	0.427455
H163	H	1.070025	-0.095229	0.499419
H164	H	1.031195	-0.168127	0.499308
C165	C	0.715102	0.260939	0.192104
C166	C	0.701943	0.353550	0.213125
C167	C	0.632887	0.417899	0.169894
H168	H	0.667317	0.250909	0.206260
H169	H	0.724979	0.251808	0.134355
H170	H	0.692061	0.362678	0.270861
H171	H	0.749710	0.363611	0.198967
H172	H	0.642763	0.408768	0.112145
H173	H	0.585107	0.407860	0.184053
H174	H	0.623954	0.480742	0.184145
H175	H	0.977738	-0.562804	0.000115
H176	H	0.984568	0.010525	0.639387
