data_functionalizedCrystal
_audit_creation_method	'MofGen! by Chris Wilmer'
_symmetry_space_group_name_H-M	'P1'
_symmetry_Int_Tables_number	1
_symmetry_cell_setting	triclinic
loop_
_symmetry_equiv_pos_as_xyz
  x,y,z
_cell_length_a	19.188925
_cell_length_b	19.188930
_cell_length_c	9.198806
_cell_angle_alpha	89.991701
_cell_angle_beta	89.995113
_cell_angle_gamma	83.143665
loop_
_atom_site_label
_atom_site_type_symbol
_atom_site_fract_x
_atom_site_fract_y
_atom_site_fract_z
O1	O	0.926147	0.087148	-0.120940
O2	O	0.722835	0.098886	-0.120938
O3	O	0.830358	-0.008639	-0.120911
O4	O	0.818624	0.194673	-0.120967
O5	O	0.830350	-0.008639	0.120874
O6	O	0.722827	0.098886	0.120847
O7	O	0.926138	0.087148	0.120845
Cu8	Cu	0.824482	0.093017	0.142923
Cu9	Cu	0.824492	0.093017	-0.143016
O10	O	0.818615	0.194673	0.120818
C11	C	0.696820	0.098507	-0.000045
C12	C	0.619315	0.097367	-0.000043
C13	C	0.057545	0.152831	-0.000062
C14	C	0.130368	0.153908	-0.000070
C15	C	0.175302	0.090816	-0.000050
C16	C	0.147408	0.026642	-0.000059
C17	C	0.074586	0.025568	-0.000065
N18	N	0.295977	0.045139	0.082268
N19	N	0.365154	0.046165	0.082277
C20	C	0.394712	0.094050	-0.000034
N21	N	0.352477	0.140882	-0.082336
N22	N	0.283293	0.139858	-0.082339
C23	C	0.254267	0.091974	-0.000044
C24	C	0.501561	0.159386	-0.000044
C25	C	0.574385	0.160460	-0.000061
C26	C	0.591425	0.033193	-0.000035
C27	C	0.518601	0.032121	-0.000033
C28	C	0.473673	0.095220	-0.000030
C29	C	0.829974	-0.034650	-0.000014
C30	C	0.828833	-0.112154	-0.000002
C31	C	0.891924	-0.157079	0.000005
C32	C	0.890852	-0.229903	-0.000018
C33	C	0.826686	-0.257799	-0.000019
C34	C	0.763587	-0.212864	-0.000033
C35	C	0.764660	-0.140041	-0.000025
N36	N	0.777636	-0.365803	0.082266
N37	N	0.776620	-0.434981	0.082260
C38	C	0.823448	-0.477207	-0.000048
N39	N	0.871340	-0.447643	-0.082333
N40	N	0.872358	-0.378458	-0.082322
C41	C	0.825515	-0.336761	-0.000029
C42	C	0.885381	-0.601097	-0.000069
C43	C	0.884307	-0.673922	-0.000101
C44	C	0.757040	-0.656880	-0.000102
C45	C	0.758116	-0.584057	-0.000084
C46	C	0.822289	-0.556170	-0.000061
C47	C	0.952154	0.087527	-0.000051
C48	C	1.029658	0.088666	-0.000063
C49	C	0.819000	0.220684	-0.000082
C50	C	0.820140	0.298188	-0.000104
N51	N	0.824480	0.093016	0.344037
N52	N	0.824499	0.093012	-0.344130
C53	C	0.869628	0.047673	0.416245
C54	C	0.869639	0.047670	0.583658
H55	H	0.183999	-0.024728	-0.000047
C56	C	0.695257	-0.090622	-0.000018
H57	H	0.656887	-0.117662	-0.000015
H58	H	0.693034	-0.061848	-0.084325
H59	H	0.693030	-0.061872	0.084318
H60	H	0.785832	0.131832	0.406155
H61	H	0.908271	0.008851	0.354129
C62	C	0.605060	0.231045	-0.000057
H63	H	0.567871	0.268467	-0.000041
H64	H	0.633117	0.234118	-0.084370
H65	H	0.633110	0.234101	0.084272
H66	H	0.704794	-0.679592	-0.000110
H67	H	0.937635	-0.578390	-0.000057
H68	H	0.051883	-0.026685	-0.000066
H69	H	0.628010	-0.018178	-0.000030
C70	C	0.688717	-0.534634	-0.000082
H71	H	0.698546	-0.487269	-0.000089
H72	H	0.662389	-0.543074	0.084228
H73	H	0.662403	-0.543062	-0.084414
C74	C	0.772278	0.145462	0.572009
H75	H	0.743963	0.173911	0.639032
H76	H	0.743238	0.120483	0.512647
H77	H	0.797422	0.174360	0.512619
H78	H	0.908294	0.008852	0.645754
C79	C	0.953711	-0.723340	-0.000092
H80	H	0.992080	-0.696299	-0.000062
H81	H	0.955947	-0.752094	-0.084411
H82	H	0.955928	-0.752109	0.084231
H83	H	0.020968	0.204211	-0.000067
H84	H	0.464978	0.210765	-0.000044
C85	C	0.161051	0.224492	-0.000063
H86	H	0.123864	0.261916	-0.000055
H87	H	0.189112	0.227561	-0.084373
H88	H	0.189098	0.227547	0.084269
C89	C	0.960255	-0.279330	-0.000001
H90	H	0.998627	-0.252291	0.000023
H91	H	0.962489	-0.308088	-0.084315
H92	H	0.962470	-0.308095	0.084327
H93	H	0.944179	-0.134379	0.000019
C94	C	0.487921	-0.038460	-0.000025
H95	H	0.438115	-0.030064	-0.000045
H96	H	0.503350	-0.064434	0.084292
H97	H	0.503361	-0.064422	-0.084350
C98	C	0.693006	-0.243545	-0.000029
H99	H	0.701402	-0.293351	-0.000018
H100	H	0.667039	-0.228105	-0.084344
H101	H	0.667035	-0.228117	0.084299
