data_functionalizedCrystal
_audit_creation_method	'MofGen! by Chris Wilmer'
_symmetry_space_group_name_H-M	'P1'
_symmetry_Int_Tables_number	1
_symmetry_cell_setting	triclinic
loop_
_symmetry_equiv_pos_as_xyz
  x,y,z
_cell_length_a	19.077399
_cell_length_b	16.959454
_cell_length_c	19.076919
_cell_angle_alpha	87.724511
_cell_angle_beta	85.520477
_cell_angle_gamma	92.319420
loop_
_atom_site_label
_atom_site_type_symbol
_atom_site_fract_x
_atom_site_fract_y
_atom_site_fract_z
Zn1	Zn	1.061695	-0.282838	0.355410
Zn2	Zn	1.066358	-0.409492	0.237537
Zn3	Zn	0.948550	-0.282859	0.242264
Zn4	Zn	0.943787	-0.420509	0.360106
O5	O	1.005098	-0.348925	0.298829
O6	O	1.160961	-0.295019	0.335830
O7	O	1.054675	-0.388092	0.139517
O8	O	0.963600	-0.172244	0.257287
O9	O	1.164388	-0.388071	0.249229
O10	O	1.046728	-0.172229	0.340414
O11	O	0.968122	-0.295056	0.142990
O12	O	0.849270	-0.305739	0.261840
O13	O	0.955483	-0.406849	0.458131
O14	O	0.845771	-0.406870	0.348418
O15	O	1.042110	-0.305702	0.454680
O16	O	1.050057	-0.521566	0.253783
O17	O	0.960005	-0.529660	0.343834
C18	C	0.821942	-0.357503	0.306152
C19	C	0.743587	-0.361192	0.309302
C20	C	0.708574	-0.310199	0.265779
C21	C	0.634950	-0.313673	0.268738
C22	C	0.596342	-0.368136	0.315224
C23	C	0.631360	-0.419134	0.358748
C24	C	0.704982	-0.415664	0.355785
C25	C	0.375963	-0.384172	0.328908
C26	C	0.302336	-0.387637	0.331869
C27	C	0.305931	-0.282176	0.241857
C28	C	0.379554	-0.278708	0.238901
C29	C	0.414566	-0.329709	0.282423
N30	N	0.521087	-0.371686	0.318251
N31	N	0.489820	-0.326162	0.279392
C32	C	1.005039	-0.554293	0.298820
C33	C	1.005077	-0.642149	0.298837
C34	C	0.958273	-1.017865	0.345712
C35	C	1.052116	-1.009376	0.252011
C36	C	1.052091	-0.926831	0.252006
C37	C	1.005156	-0.889799	0.298853
C38	C	0.958246	-0.935312	0.345706
C39	C	1.098996	-0.881312	0.205149
C40	C	1.098973	-0.798761	0.205141
C41	C	1.052041	-0.761728	0.251992
C42	C	1.005129	-0.807246	0.298848
C43	C	0.958194	-0.770214	0.345695
C44	C	0.911285	-0.815731	0.392554
C45	C	0.911314	-0.898279	0.392557
C46	C	1.052012	-0.679181	0.251989
C47	C	0.958167	-0.687662	0.345690
C48	C	1.188968	-0.340314	0.291479
C49	C	1.267323	-0.336644	0.288346
C50	C	0.997745	-0.357502	0.482699
C51	C	0.994612	-0.361157	0.561053
C52	C	1.005175	-0.142754	0.298854
C53	C	1.005208	-0.054896	0.298864
C54	C	1.012462	-0.340322	0.115674
C55	C	1.015732	-0.336437	0.037314
C56	C	1.038239	-0.310215	0.596069
C57	C	1.035287	-0.313647	0.669691
C58	C	0.988710	-0.368025	0.708297
C59	C	0.945078	-0.418970	0.673276
C60	C	0.948027	-0.415533	0.599655
C61	C	0.975049	-0.383945	0.928673
C62	C	0.972104	-0.387379	1.002299
C63	C	1.062313	-0.282056	0.998709
C64	C	1.065261	-0.278627	0.925087
C65	C	1.021626	-0.329569	0.890073
N66	N	0.985692	-0.371536	0.783551
N67	N	1.024641	-0.326053	0.814820
H68	H	0.410985	-0.234363	0.201043
H69	H	0.404461	-0.425701	0.364347
O70	O	1.083559	-0.257498	0.558535
C71	C	1.130769	-0.298374	0.514112
H72	H	1.134217	-0.361461	0.536115
H73	H	1.111206	-0.299514	0.459186
C74	C	1.199875	-0.178783	0.483037
C75	C	1.204114	-0.256264	0.510064
H76	H	1.245117	-0.152806	0.480536
H77	H	1.168067	-0.151242	0.512963
H78	H	1.183570	-0.179743	0.437267
H79	H	1.220411	-0.255303	0.555835
H80	H	1.235927	-0.283804	0.480145
H81	H	1.137203	-0.911469	0.167003
H82	H	0.920083	-1.054928	0.383865
O83	O	0.926910	-0.440173	1.039908
C84	C	0.933653	-0.432265	1.112396
H85	H	0.987669	-0.404313	1.120279
H86	H	0.891028	-0.393091	1.134960
C87	C	0.859290	-0.548636	1.140765
C88	C	0.925635	-0.514310	1.150448
H89	H	0.854341	-0.599244	1.164239
H90	H	0.854744	-0.553963	1.091929
H91	H	0.823776	-0.515983	1.159568
H92	H	0.961147	-0.546958	1.131637
H93	H	0.930186	-0.508991	1.199282
O94	O	1.144512	-0.754635	0.159532
C95	C	1.131970	-0.772261	0.089873
H96	H	1.104947	-0.833418	0.089474
H97	H	1.096687	-0.726423	0.067545
C98	C	1.235628	-0.695707	0.044973
C99	C	1.202442	-0.770824	0.044483
H100	H	1.279097	-0.694817	0.016973
H101	H	1.244077	-0.683829	0.091903
H102	H	1.206218	-0.657517	0.026368
H103	H	1.231848	-0.809011	0.063096
H104	H	1.194000	-0.782708	-0.002445
O105	O	1.097654	-1.045472	0.206548
C106	C	1.087591	-1.128091	0.216571
H107	H	1.062321	-1.143000	0.271892
H108	H	1.051730	-1.151339	0.176249
C109	C	1.190215	-1.148482	0.139316
C110	C	1.159183	-1.166794	0.207264
H111	H	1.234375	-1.172358	0.133572
H112	H	1.196994	-1.092820	0.132561
H113	H	1.160323	-1.167857	0.105722
H114	H	1.189070	-1.147411	0.240857
H115	H	1.152411	-1.222454	0.214025
O116	O	0.932629	-0.433500	0.894776
C117	C	0.890872	-0.482211	0.944640
H118	H	0.917653	-0.486061	0.995961
H119	H	0.837040	-0.456120	0.954624
C120	C	0.848907	-0.560738	0.853265
C121	C	0.881804	-0.565472	0.916296
H122	H	0.843310	-0.612096	0.835780
H123	H	0.877037	-0.527919	0.819670
H124	H	0.804050	-0.538992	0.861594
H125	H	0.926663	-0.587209	0.907965
H126	H	0.853681	-0.598298	0.949889
H127	H	0.606446	-0.272153	0.233293
H128	H	0.907151	-0.463243	0.704714
H129	H	0.277416	-0.240655	0.206423
H130	H	0.599920	-0.463483	0.396595
O131	O	1.110459	-0.225843	0.887481
C132	C	1.103680	-0.233706	0.814994
H133	H	1.081008	-0.295332	0.805843
H134	H	1.066957	-0.187630	0.795630
C135	C	1.204353	-0.145599	0.785570
C136	C	1.176513	-0.221291	0.774330
H137	H	1.249278	-0.137937	0.760486
H138	H	1.208918	-0.140298	0.834406
H139	H	1.173743	-0.107211	0.769434
H140	H	1.207117	-0.259678	0.790474
H141	H	1.171954	-0.226598	0.725496
O142	O	1.097540	-0.635049	0.206378
C143	C	1.084988	-0.652677	0.136723
H144	H	1.057969	-0.713837	0.136328
H145	H	1.049696	-0.606844	0.114401
C146	C	1.188632	-0.576110	0.091806
C147	C	1.155453	-0.651231	0.091320
H148	H	1.232098	-0.575215	0.063798
H149	H	1.197088	-0.564231	0.138734
H150	H	1.159215	-0.537924	0.073206
H151	H	1.184866	-0.689414	0.109928
H152	H	1.147004	-0.663117	0.044394
H153	H	0.733489	-0.457188	0.391226
O154	O	0.905630	-0.465109	0.565748
C155	C	0.863879	-0.513834	0.615607
H156	H	0.890646	-0.517659	0.666936
H157	H	0.810033	-0.487770	0.625572
C158	C	0.821977	-0.592400	0.524228
C159	C	0.854856	-0.597104	0.587270
H160	H	0.816408	-0.643764	0.506748
H161	H	0.850103	-0.559572	0.490636
H162	H	0.777108	-0.570677	0.532540
H163	H	0.899727	-0.618817	0.578955
H164	H	0.826737	-0.629938	0.620859
O165	O	0.865726	-0.779843	0.438158
C166	C	0.878288	-0.802514	0.507820
H167	H	0.905342	-0.861228	0.508230
H168	H	0.913552	-0.755427	0.530131
C169	C	0.774601	-0.739460	0.552716
C170	C	0.807824	-0.811577	0.553221
H171	H	0.731137	-0.745048	0.580723
H172	H	0.766139	-0.724183	0.505784
H173	H	0.803995	-0.700229	0.571307
H174	H	0.778434	-0.850805	0.534621
H175	H	0.816279	-0.826861	0.600150
O176	O	0.264898	-0.440500	0.377126
C177	C	0.280087	-0.425761	0.446686
H178	H	0.333494	-0.392945	0.446041
H179	H	0.237722	-0.388210	0.472152
C180	C	0.216170	-0.545021	0.489936
C181	C	0.281767	-0.504722	0.489143
H182	H	0.217203	-0.593727	0.516127
H183	H	0.205934	-0.554950	0.443072
H184	H	0.180872	-0.513720	0.511156
H185	H	0.317062	-0.536018	0.467916
H186	H	0.292009	-0.494800	0.536005
H187	H	0.740003	-0.265844	0.227930
H188	H	0.919949	-0.657516	0.383841
H189	H	1.070814	-0.272166	0.698198
O190	O	0.865843	-0.942578	0.438098
C191	C	0.904133	-0.990518	0.482071
H192	H	0.958574	-0.999179	0.455118
H193	H	0.909732	-0.960768	0.534012
C194	C	0.797987	-1.060738	0.529453
C195	C	0.864851	-1.071380	0.496346
H196	H	0.773756	-1.110616	0.538261
H197	H	0.772190	-1.028438	0.499830
H198	H	0.802663	-1.035943	0.572733
H199	H	0.860175	-1.096165	0.453062
H200	H	0.890647	-1.103686	0.525962
H201	H	1.097837	-0.240581	1.027226
