data_functionalizedCrystal
_audit_creation_method	'MofGen! by Chris Wilmer'
_symmetry_space_group_name_H-M	'P1'
_symmetry_Int_Tables_number	1
_symmetry_cell_setting	triclinic
loop_
_symmetry_equiv_pos_as_xyz
  x,y,z
_cell_length_a	10.540539
_cell_length_b	14.971486
_cell_length_c	13.448316
_cell_angle_alpha	90.001801
_cell_angle_beta	89.996356
_cell_angle_gamma	95.930190
loop_
_atom_site_label
_atom_site_type_symbol
_atom_site_fract_x
_atom_site_fract_y
_atom_site_fract_z
O1	O	0.165423	-1.187879	-0.082571
O2	O	0.185233	-0.927591	-0.082597
O3	O	-0.009446	-1.063673	-0.082584
O4	O	0.360102	-1.051797	-0.082584
O5	O	-0.009458	-1.063656	0.082800
O6	O	0.185221	-0.927574	0.082787
O7	O	0.165411	-1.187862	0.082813
Cu8	Cu	0.175315	-1.057716	0.097901
Cu9	Cu	0.175329	-1.057737	-0.097685
O10	O	0.360090	-1.051779	0.082800
C11	C	0.184341	-0.894253	0.000091
C12	C	0.181686	-0.794940	0.000081
C13	C	0.407389	-1.052679	0.000108
C14	C	0.548307	-1.055344	0.000109
C15	C	-0.056745	-1.062774	0.000105
C16	C	-0.197662	-1.060109	0.000098
C17	C	0.730575	-1.157452	-0.000263
C18	C	0.583987	-1.154751	0.000117
C19	C	0.610509	-1.007495	0.094543
C20	C	0.757015	-1.010887	0.094615
C21	C	0.757553	-1.008885	-0.093458
C22	C	0.610582	-1.007969	-0.094698
C23	C	0.166303	-1.221200	0.000122
C24	C	0.168958	-1.320512	0.000126
N25	N	0.175304	-1.057708	0.235465
C26	C	0.296055	-0.738360	0.000083
C27	C	0.293553	-0.645046	0.000097
C28	C	0.176681	-0.608315	0.000104
C29	C	0.062303	-0.664903	0.000105
C30	C	0.064807	-0.758215	0.000097
C31	C	0.057094	-0.470412	0.000119
C32	C	0.054590	-0.377093	0.000125
C33	C	0.285839	-0.357242	0.000119
C34	C	0.288343	-0.450554	0.000111
C35	C	0.173965	-0.507136	0.000111
N36	N	0.175330	-1.057752	-0.235249
C37	C	0.089136	-1.117985	0.287511
C38	C	0.089135	-1.117990	0.391614
C39	C	0.175309	-1.057723	0.443670
C40	C	0.261482	-0.997440	0.391616
C41	C	0.261476	-0.997431	0.287515
C42	C	0.261490	-0.997465	0.608596
C43	C	0.261498	-0.997475	0.712705
C44	C	0.089150	-1.118024	0.712696
C45	C	0.089144	-1.118015	0.608594
C46	C	0.175318	-1.057733	0.556548
H47	H	0.540955	-1.192405	-0.067574
C48	C	-0.005652	-1.184312	0.551336
N49	N	-0.077058	-1.234246	0.508208
H50	H	0.018984	-1.167108	0.755078
C51	C	0.356287	-0.931173	0.769964
N52	N	0.427681	-0.881232	0.813091
H53	H	0.331642	-0.948365	0.434006
H54	H	0.541803	-1.192647	0.067938
C55	C	0.356274	-0.931142	0.551348
N56	N	0.427663	-0.881188	0.508228
H57	H	0.587176	-0.935496	-0.100410
C58	C	0.554734	-1.055198	-0.189081
N59	N	0.512659	-1.090772	-0.260169
H60	H	-0.036045	-0.516479	0.000120
C61	C	-0.066257	-0.624496	0.000114
N62	N	-0.163092	-0.594063	0.000116
C63	C	0.794572	-1.058649	0.189987
N64	N	0.822853	-1.094626	0.261822
C65	C	0.356278	-0.931129	0.230265
N66	N	0.427686	-0.881189	0.187145
C67	C	0.822916	-0.914310	0.100493
N68	N	0.872547	-0.841571	0.104958
H69	H	0.018968	-1.167065	0.245135
C70	C	0.768712	-1.210547	-0.091699
N71	N	0.797483	-1.250551	-0.160552
C72	C	0.581453	-0.908865	0.099272
N73	N	0.559575	-0.834576	0.102827
H74	H	0.567545	-1.040727	0.164830
H75	H	-0.028324	-0.804283	0.000096
H76	H	0.760457	-1.196590	0.067020
H77	H	0.788746	-1.041062	-0.165037
H78	H	-0.040578	-0.347191	0.000131
H79	H	0.805574	-0.937078	-0.094091
C80	C	0.419367	-0.582810	0.000117
N81	N	0.514137	-0.535935	0.000139
C82	C	0.424625	-0.778754	0.000077
N83	N	0.521468	-0.809176	0.000078
H84	H	0.378970	-0.311169	0.000124
H85	H	0.383510	-0.480457	0.000097
H86	H	0.018970	-1.167071	0.433990
