data_functionalizedCrystal
_audit_creation_method	'MofGen! by Chris Wilmer'
_symmetry_space_group_name_H-M	'P1'
_symmetry_Int_Tables_number	1
_symmetry_cell_setting	triclinic
loop_
_symmetry_equiv_pos_as_xyz
  x,y,z
_cell_length_a	11.169417
_cell_length_b	13.032868
_cell_length_c	11.169409
_cell_angle_alpha	97.143352
_cell_angle_beta	90.019824
_cell_angle_gamma	82.787299
loop_
_atom_site_label
_atom_site_type_symbol
_atom_site_fract_x
_atom_site_fract_y
_atom_site_fract_z
Zn1	Zn	1.774144	0.415926	0.739142
Zn2	Zn	1.748475	0.590714	0.563924
Zn3	Zn	1.573420	0.415989	0.538485
Zn4	Zn	1.547891	0.590629	0.764557
O5	O	1.660983	0.503314	0.651527
O6	O	1.938687	0.439121	0.715909
O7	O	1.725195	0.567598	0.392609
O8	O	1.621473	0.269744	0.543820
O9	O	1.919828	0.567537	0.587177
O10	O	1.768944	0.269697	0.691241
O11	O	1.596583	0.439229	0.373919
O12	O	1.402085	0.439147	0.568464
O13	O	1.577963	0.567392	0.929126
O14	O	1.383329	0.567453	0.734558
O15	O	1.744189	0.439038	0.910454
O16	O	1.700440	0.736939	0.611822
O17	O	1.553073	0.736877	0.759225
C18	C	1.349160	0.503299	0.651509
C19	C	1.215758	0.503317	0.651534
C20	C	1.621233	0.774825	0.691068
C21	C	1.604338	0.890979	0.708024
C22	C	1.669785	0.942760	0.642706
C23	C	1.652325	1.062811	0.660229
C24	C	1.974022	0.503331	0.651546
C25	C	2.107421	0.503338	0.651554
C26	C	1.661092	0.503198	0.964553
C27	C	1.661138	0.503149	1.097946
C28	C	1.700880	1.230743	0.611845
C29	C	1.717781	1.114590	0.594901
C30	C	1.660954	0.503355	0.339708
C31	C	1.661183	0.503110	0.206273
H32	H	1.738748	0.898217	0.573815
C33	C	1.559163	1.122974	0.753307
H34	H	1.559644	1.195768	0.752869
H35	H	1.579268	1.105067	0.831366
H36	H	1.481093	1.105213	0.733089
C37	C	1.810948	1.054434	0.501824
H38	H	1.849749	1.102491	0.463123
H39	H	1.771208	1.011923	0.443330
H40	H	1.869382	1.011787	0.541608
C41	C	1.511181	0.951146	0.801097
H42	H	1.511662	1.023940	0.800659
H43	H	1.531286	0.933239	0.879156
H44	H	1.433111	0.933385	0.780879
