data_functionalizedCrystal
_audit_creation_method	'MofGen! by Chris Wilmer'
_symmetry_space_group_name_H-M	'P1'
_symmetry_Int_Tables_number	1
_symmetry_cell_setting	triclinic
loop_
_symmetry_equiv_pos_as_xyz
  x,y,z
_cell_length_a	24.447405
_cell_length_b	24.446649
_cell_length_c	24.443239
_cell_angle_alpha	60.006064
_cell_angle_beta	60.011844
_cell_angle_gamma	59.992812
loop_
_atom_site_label
_atom_site_type_symbol
_atom_site_fract_x
_atom_site_fract_y
_atom_site_fract_z
O1	O	0.075907	-0.799232	0.668277
O2	O	0.028634	-0.622262	0.538455
O3	O	0.140702	-0.734230	0.538349
O4	O	-0.036160	-0.687265	0.668384
O5	O	0.177886	-0.697056	0.575424
O6	O	0.065818	-0.585088	0.575530
O7	O	0.113091	-0.762059	0.705353
Cu8	Cu	0.092850	-0.670179	0.643827
Cu9	Cu	0.048876	-0.714142	0.599981
O10	O	0.001024	-0.650091	0.705459
N11	N	0.123780	-0.639263	0.674669
N12	N	0.017951	-0.745064	0.569139
C13	C	0.170236	-0.489965	0.721065
C14	C	0.170249	-0.592837	0.721058
C15	C	0.195989	-0.567121	0.746758
C16	C	0.308182	-0.547773	0.687664
C17	C	0.378316	-0.571143	0.664253
C18	C	0.378353	-0.684626	0.707525
C19	C	0.308220	-0.661254	0.730938
C20	C	0.187125	-0.454882	0.652117
C21	C	0.163710	-0.384741	0.628763
C22	C	0.106523	-0.384772	0.743308
C23	C	0.129938	-0.454913	0.766662
C24	C	0.101291	-0.575906	0.738041
C25	C	0.077897	-0.599283	0.714670
C26	C	0.192412	-0.656523	0.657348
C27	C	0.215809	-0.633146	0.680711
C28	C	0.101393	-0.575928	0.859014
C29	C	0.078071	-0.599328	0.929152
C30	C	0.192636	-0.656582	0.929078
C31	C	0.215955	-0.633184	0.858938
C32	C	0.170332	-0.592855	0.823908
C33	C	0.273137	-0.592827	0.721004
C34	C	-0.131205	-0.791294	0.522327
C35	C	-0.028388	-0.791420	0.522551
C36	C	-0.054056	-0.817099	0.496741
C37	C	-0.073479	-0.929255	0.555734
C38	C	-0.050156	-0.999396	0.579142
C39	C	0.063326	-0.999525	0.536064
C40	C	0.040001	-0.929386	0.512654
C41	C	-0.166365	-0.808188	0.591256
C42	C	-0.236499	-0.784726	0.614512
C43	C	-0.236309	-0.727482	0.499907
C44	C	-0.166175	-0.750944	0.476651
C45	C	-0.045285	-0.722468	0.505590
C46	C	-0.021951	-0.699130	0.529061
C47	C	0.035176	-0.813691	0.586439
C48	C	0.011842	-0.837031	0.562976
C49	C	-0.045097	-0.722476	0.384488
C50	C	-0.021613	-0.699140	0.314350
C51	C	0.035607	-0.813706	0.314419
C52	C	0.012124	-0.837041	0.384558
C53	C	-0.028229	-0.791425	0.419591
C54	C	-0.028402	-0.894253	0.522492
N55	N	0.412405	-0.639229	0.674505
O56	O	0.626552	-0.645384	0.514503
O57	O	0.626802	-0.775625	0.691288
O58	O	0.626698	-0.775326	0.579168
O59	O	0.626656	-0.645683	0.626623
O60	O	0.515277	-0.738265	0.616407
O61	O	0.515382	-0.738564	0.728527
O62	O	0.515131	-0.608323	0.551742
Cu63	Cu	0.505083	-0.670059	0.643535
Cu64	Cu	0.636850	-0.713889	0.599495
O65	O	0.515236	-0.608622	0.663862
N66	N	0.729529	-0.744719	0.568518
N67	N	0.123755	-0.350686	0.674680
O68	O	-0.036153	-0.136410	0.668391
O69	O	0.140633	-0.136380	0.538141
O70	O	0.028472	-0.136412	0.538488
O71	O	0.076007	-0.136377	0.668044
O72	O	0.065663	-0.247842	0.575621
O73	O	0.177823	-0.247810	0.575274
O74	O	0.001037	-0.247840	0.705524
Cu75	Cu	0.092826	-0.258000	0.643789
Cu76	Cu	0.048844	-0.126220	0.599875
O77	O	0.113198	-0.247808	0.705177
N78	N	0.017907	-0.033534	0.568986
N79	N	0.124013	-0.639306	0.963182
O80	O	0.117754	-0.799195	1.177439
O81	O	-0.012458	-0.622342	1.177485
O82	O	-0.012155	-0.734480	1.177444
O83	O	0.117450	-0.687057	1.177480
O84	O	0.024954	-0.697317	1.066020
O85	O	0.024650	-0.585179	1.066061
O86	O	0.154862	-0.762032	1.066014
Cu87	Cu	0.093145	-0.670212	1.055863
Cu88	Cu	0.049259	-0.714162	1.187636
O89	O	0.154559	-0.649894	1.066055
N90	N	0.018389	-0.745075	1.280318
C91	C	0.042795	-0.581375	0.539107
C92	C	0.181576	-0.720034	0.538975
C93	C	0.098930	-0.802946	0.704700
C94	C	-0.039851	-0.664287	0.704832
C95	C	0.571122	-0.775030	0.732180
C96	C	0.570995	-0.774660	0.593332
C97	C	0.570808	-0.608917	0.510851
C98	C	0.570939	-0.609288	0.649698
C99	C	0.181453	-0.191954	0.538725
C100	C	0.042602	-0.192131	0.539201
C101	C	-0.039829	-0.192128	0.704893
C102	C	0.099069	-0.192090	0.704464
C103	C	-0.011836	-0.581480	1.121779
C104	C	-0.011453	-0.720342	1.121706
C105	C	0.154240	-0.802894	1.121720
C106	C	0.153865	-0.664024	1.121769
H107	H	0.021932	-0.585534	0.957726
H108	H	0.032420	-0.192135	0.498498
O109	O	0.056943	-0.536731	0.777198
C110	C	-0.059112	-0.482453	0.831620
C111	C	-0.008961	-0.526810	0.787253
H112	H	-0.112407	-0.474430	0.839774
H113	H	-0.051104	-0.431971	0.805936
H114	H	-0.050947	-0.508164	0.882038
H115	H	-0.017096	-0.501158	0.736827
H116	H	-0.016981	-0.577290	0.812989
H117	H	-0.052716	-0.530687	1.121793
O118	O	0.570597	-0.560070	0.450335
C119	C	0.512754	-0.448328	0.390594
C120	C	0.512902	-0.503595	0.459168
H121	H	0.466120	-0.402649	0.397713
H122	H	0.512691	-0.467693	0.356796
H123	H	0.559376	-0.433711	0.366507
H124	H	0.466288	-0.518236	0.483313
H125	H	0.513001	-0.484199	0.492919
H126	H	0.279622	-0.492055	0.679573
O127	O	0.203075	-0.863436	1.121585
C128	C	0.314819	-0.923261	1.063862
C129	C	0.259566	-0.854658	1.063925
H130	H	0.360511	-0.916186	1.017256
H131	H	0.295460	-0.957059	1.063803
H132	H	0.329407	-0.947325	1.110516
H133	H	0.244954	-0.830535	1.017279
H134	H	0.278955	-0.820907	1.064019
H135	H	-0.090599	-0.192138	0.745784
O136	O	0.202462	-0.651852	1.121652
C137	C	0.272854	-0.583837	1.063959
C138	C	0.217828	-0.597560	1.064000
H139	H	0.285284	-0.539933	1.017360
H140	H	0.319686	-0.630279	1.063902
H141	H	0.254291	-0.571112	1.110619
H142	H	0.236327	-0.610268	1.017348
H143	H	0.171007	-0.551107	1.064092
O144	O	0.237046	-0.695762	0.962997
C145	C	0.353143	-0.750028	0.955512
C146	C	0.302919	-0.705665	0.917015
H147	H	0.406412	-0.758037	0.918352
H148	H	0.345151	-0.800517	0.988326
H149	H	0.345040	-0.724332	0.988365
H150	H	0.310991	-0.731302	0.884125
H151	H	0.310924	-0.655178	0.884243
O152	O	0.111156	-0.192174	0.753111
C153	C	0.117541	-0.249924	0.864643
C154	C	0.103822	-0.249903	0.809613
H155	H	0.111630	-0.296599	0.910332
H156	H	0.080436	-0.203326	0.879352
H157	H	0.170765	-0.249880	0.844960
H158	H	0.050616	-0.249970	0.829248
H159	H	0.140968	-0.296496	0.794911
O160	O	-0.059925	-0.732521	1.121607
C161	C	-0.090548	-0.812096	1.121530
C162	C	-0.035588	-0.798387	1.121626
H163	H	-0.070896	-0.865353	1.121560
H164	H	-0.105167	-0.775027	1.074875
H165	H	-0.136291	-0.806067	1.168137
H166	H	0.010191	-0.804425	1.075051
H167	H	-0.021026	-0.835454	1.168312
O168	O	0.030871	-0.520758	0.490395
C169	C	0.074779	-0.451884	0.377454
C170	C	0.088378	-0.520556	0.432565
H171	H	0.121259	-0.451703	0.330681
H172	H	0.062084	-0.410991	0.395907
H173	H	0.030901	-0.442132	0.364961
H174	H	0.132264	-0.530372	0.445082
H175	H	0.101034	-0.561412	0.414083
H176	H	0.232119	-0.191636	0.497733
O177	O	-0.084190	-0.678141	0.418494
C178	C	-0.093168	-0.587405	0.439976
C179	C	-0.048826	-0.637581	0.401430
H180	H	-0.064599	-0.554590	0.426183
H181	H	-0.107030	-0.615900	0.496140
H182	H	-0.140726	-0.554548	0.426105
H183	H	-0.001240	-0.670451	0.415245
H184	H	-0.035018	-0.609044	0.345275
H185	H	0.064236	-0.543084	0.830495
H186	H	0.571013	-0.815386	0.583175
O187	O	-0.100477	-0.652230	0.753486
C188	C	-0.210817	-0.572864	0.784464
C189	C	-0.142185	-0.586424	0.729309
H190	H	-0.244561	-0.519666	0.764933
H191	H	-0.203827	-0.578860	0.830149
H192	H	-0.234886	-0.610053	0.799131
H193	H	-0.118078	-0.549248	0.714586
H194	H	-0.149218	-0.580452	0.683661
H195	H	0.021747	-0.585481	0.728482
O196	O	0.236762	-0.695651	0.618144
C197	C	0.352819	-0.749995	0.563794
C198	C	0.302665	-0.705665	0.608187
H199	H	0.406112	-0.758116	0.555741
H200	H	0.344747	-0.724296	0.513330
H201	H	0.344722	-0.800433	0.589488
H202	H	0.310732	-0.655219	0.582552
H203	H	0.310749	-0.731416	0.658649
H204	H	0.025866	-0.893188	0.413136
H205	H	0.271959	-0.646925	0.666876
O206	O	0.274280	-0.705109	0.763283
C207	C	0.281721	-0.820141	0.803763
C208	C	0.320241	-0.770547	0.767106
H209	H	0.318864	-0.873060	0.806878
H210	H	0.248873	-0.806112	0.775110
H211	H	0.248902	-0.817966	0.856487
H212	H	0.353097	-0.772695	0.714381
H213	H	0.353048	-0.784592	0.795810
O214	O	0.571012	-0.560783	0.661857
C215	C	0.628776	-0.528761	0.691262
C216	C	0.628768	-0.583755	0.677523
H217	H	0.675473	-0.547308	0.703917
H218	H	0.582208	-0.516288	0.735176
H219	H	0.628670	-0.481949	0.644811
H220	H	0.628898	-0.630601	0.723934
H221	H	0.675331	-0.596171	0.633583
O222	O	0.226234	-0.488829	0.607736
C223	C	0.280503	-0.481395	0.491655
C224	C	0.236195	-0.442867	0.541846
H225	H	0.288582	-0.444252	0.438372
H226	H	0.254816	-0.514220	0.499703
H227	H	0.330957	-0.514245	0.499740
H228	H	0.185733	-0.409982	0.533791
H229	H	0.261934	-0.410085	0.533785
O230	O	0.412257	-0.527284	0.631852
C231	C	0.404821	-0.412262	0.591433
C232	C	0.366298	-0.461858	0.628124
H233	H	0.367680	-0.359357	0.588420
H234	H	0.437606	-0.414350	0.538675
H235	H	0.437704	-0.426376	0.620086
H236	H	0.333378	-0.447778	0.599527
H237	H	0.333556	-0.459763	0.680886
H238	H	0.406920	-0.740344	0.715602
O239	O	0.067368	-0.350821	0.787690
C240	C	0.013170	-0.358251	0.903769
C241	C	0.057506	-0.396781	0.853581
H242	H	0.005195	-0.395393	0.957053
H243	H	-0.037330	-0.325442	0.895778
H244	H	0.038864	-0.325386	0.895626
H245	H	0.031871	-0.429683	0.861695
H246	H	0.108005	-0.429548	0.861585
O247	O	0.242221	-0.732072	0.490340
C248	C	0.352533	-0.811466	0.459335
C249	C	0.283889	-0.797917	0.514477
H250	H	0.386236	-0.864705	0.478824
H251	H	0.376681	-0.774349	0.444684
H252	H	0.345480	-0.805383	0.413649
H253	H	0.290883	-0.804009	0.560198
H254	H	0.259764	-0.835032	0.529071
O255	O	-0.038127	-0.632152	0.280289
C256	C	-0.126973	-0.527041	0.258711
C257	C	-0.108363	-0.602895	0.297316
H258	H	-0.183760	-0.503362	0.272474
H259	H	-0.103314	-0.518151	0.202556
H260	H	-0.107616	-0.503445	0.272560
H261	H	-0.127717	-0.626541	0.283523
H262	H	-0.132013	-0.611738	0.353462
H263	H	0.571186	-0.815915	0.782955
H264	H	0.272095	-0.646975	0.830359
H265	H	0.116177	-0.483478	0.822809
O266	O	0.074812	-0.858110	0.280497
C267	C	0.129040	-0.974210	0.287978
C268	C	0.084646	-0.923994	0.326477
H269	H	0.136992	-1.027488	0.325136
H270	H	0.179546	-0.966251	0.255245
H271	H	0.103404	-0.966060	0.255043
H272	H	0.110222	-0.932114	0.359449
H273	H	0.034142	-0.931965	0.359168
H274	H	-0.078038	-0.685325	0.472673
O275	O	-0.038265	-0.632146	0.512467
C276	C	-0.032755	-0.527158	0.423517
C277	C	-0.014233	-0.603008	0.442222
H278	H	-0.013345	-0.503575	0.366723
H279	H	-0.009138	-0.518284	0.447184
H280	H	-0.089542	-0.503453	0.442802
H281	H	0.042545	-0.626764	0.422940
H282	H	-0.037897	-0.611834	0.418564
O283	O	0.111074	-0.863640	0.753262
C284	C	0.190596	-0.973922	0.784082
C285	C	0.176927	-0.905222	0.729022
H286	H	0.243841	-1.007556	0.764509
H287	H	0.153515	-0.998115	0.798739
H288	H	0.184559	-0.966936	0.829784
H289	H	0.182972	-0.912150	0.683284
H290	H	0.214005	-0.881053	0.714422
H291	H	0.177459	-0.356175	0.572617
H292	H	0.067938	-0.850836	0.619346
H293	H	0.025599	-0.893178	0.576787
H294	H	0.076712	-0.900889	0.485585
H295	H	-0.086862	-1.027893	0.606199
O296	O	0.129795	-1.033630	0.526392
C297	C	0.241384	-1.055187	0.446319
C298	C	0.166128	-1.016535	0.457178
H299	H	0.270782	-1.041370	0.390363
H300	H	0.250353	-1.111338	0.468712
H301	H	0.258732	-1.041432	0.471854
H302	H	0.148729	-1.030234	0.431643
H303	H	0.157201	-0.960394	0.434802
O304	O	-0.139911	-0.895151	0.565181
C305	C	-0.236569	-0.873611	0.544407
C306	C	-0.161330	-0.912271	0.533658
H307	H	-0.253912	-0.887449	0.518939
H308	H	-0.245520	-0.817461	0.521930
H309	H	-0.265987	-0.887339	0.600361
H310	H	-0.131863	-0.898600	0.477718
H311	H	-0.152431	-0.968411	0.556179
O312	O	-0.132466	-0.847449	0.635685
C313	C	-0.111145	-0.950683	0.726473
C314	C	-0.149589	-0.906278	0.676202
H315	H	-0.124964	-0.998262	0.759235
H316	H	-0.124985	-0.922164	0.759369
H317	H	-0.054983	-0.964515	0.697995
H318	H	-0.205760	-0.892433	0.704627
H319	H	-0.135693	-0.934822	0.643307
O320	O	-0.270179	-0.688277	0.455450
C321	C	-0.262593	-0.634028	0.339322
C322	C	-0.224153	-0.678421	0.389596
H323	H	-0.225398	-0.626058	0.286068
H324	H	-0.295394	-0.583525	0.347307
H325	H	-0.295452	-0.659680	0.347377
H326	H	-0.191258	-0.652829	0.381571
H327	H	-0.191395	-0.728923	0.381598
H328	H	-0.265127	-0.798479	0.670643
H329	H	-0.137547	-0.737181	0.420520
