data_functionalizedCrystal
_audit_creation_method	'MofGen! by Chris Wilmer'
_symmetry_space_group_name_H-M	'P1'
_symmetry_Int_Tables_number	1
_symmetry_cell_setting	triclinic
loop_
_symmetry_equiv_pos_as_xyz
  x,y,z
_cell_length_a	23.532407
_cell_length_b	23.532407
_cell_length_c	22.610064
_cell_angle_alpha	90.000603
_cell_angle_beta	89.997161
_cell_angle_gamma	97.151322
loop_
_atom_site_label
_atom_site_type_symbol
_atom_site_fract_x
_atom_site_fract_y
_atom_site_fract_z
O1	O	0.755263	-0.069127	-0.049117
O2	O	1.088597	0.264206	0.284217
O3	O	1.421930	0.597540	0.617550
O4	O	0.589400	-0.079130	-0.049135
O5	O	0.922733	0.254203	0.284198
O6	O	1.256067	0.587536	0.617532
O7	O	0.677333	0.008803	-0.049114
O8	O	1.010667	0.342136	0.284219
O9	O	1.344000	0.675470	0.617552
O10	O	0.667330	-0.157060	-0.049137
O11	O	1.000664	0.176273	0.284196
O12	O	1.333997	0.509606	0.617529
O13	O	0.677318	0.008790	0.049255
O14	O	1.010651	0.342124	0.382588
O15	O	1.343985	0.675457	0.715921
O16	O	0.589385	-0.079143	0.049234
O17	O	0.922718	0.254190	0.382568
O18	O	1.256051	0.587524	0.715901
O19	O	0.755248	-0.069140	0.049252
O20	O	1.088581	0.264193	0.382586
O21	O	1.421915	0.597527	0.715919
Zn22	Zn	0.672314	-0.074144	0.064862
Zn23	Zn	1.005647	0.259190	0.398195
Zn24	Zn	1.338980	0.592523	0.731528
Zn25	Zn	0.672334	-0.074127	-0.064744
Zn26	Zn	1.005668	0.259207	0.268589
Zn27	Zn	1.339001	0.592540	0.601923
O28	O	0.667315	-0.157073	0.049232
O29	O	1.000648	0.176260	0.382565
O30	O	1.333981	0.509593	0.715899
C31	C	0.568176	-0.078882	0.000048
C32	C	0.901510	0.254451	0.333381
C33	C	1.234843	0.587785	0.666714
C34	C	0.504959	-0.078116	0.000041
C35	C	0.838293	0.255217	0.333374
C36	C	1.171626	0.588551	0.666708
C37	C	0.105856	-0.125350	0.000061
C38	C	0.439190	0.207984	0.333395
C39	C	0.772523	0.541317	0.666728
C40	C	0.046456	-0.124638	0.000065
C41	C	0.379789	0.208695	0.333398
C42	C	0.713123	0.542029	0.666732
O43	O	0.009711	-0.168424	0.000081
O44	O	0.343045	0.164909	0.333414
O45	O	0.676378	0.498243	0.666747
N46	N	0.023830	-0.072362	0.000071
N47	N	0.357163	0.260972	0.333405
N48	N	0.690496	0.594305	0.666738
C49	C	0.060607	-0.020794	0.000080
C50	C	0.393941	0.312540	0.333413
C51	C	0.727274	0.645873	0.666746
O52	O	0.035908	0.023737	0.000086
O53	O	0.369241	0.357070	0.333419
O54	O	0.702574	0.690404	0.666753
C55	C	0.120006	-0.021506	0.000080
C56	C	0.453340	0.311828	0.333414
C57	C	0.786673	0.645161	0.666747
C58	C	0.142629	-0.073785	0.000068
C59	C	0.475962	0.259548	0.333401
C60	C	0.809296	0.592881	0.666735
C61	C	0.128479	-0.177625	0.000050
C62	C	0.461813	0.155708	0.333383
C63	C	0.795146	0.489042	0.666716
C64	C	0.187876	-0.178336	0.000045
C65	C	0.521209	0.154997	0.333378
C66	C	0.854542	0.488330	0.666712
C67	C	0.224649	-0.126772	0.000052
C68	C	0.557982	0.206561	0.333385
C69	C	0.891315	0.539895	0.666718
C70	C	0.202025	-0.074497	0.000063
C71	C	0.535359	0.258837	0.333397
C72	C	0.868692	0.592170	0.666730
C73	C	0.156783	0.030062	0.000093
C74	C	0.490116	0.363395	0.333426
C75	C	0.823450	0.696729	0.666760
C76	C	0.216185	0.029345	0.000094
C77	C	0.549519	0.362679	0.333427
C78	C	0.882852	0.696012	0.666761
C79	C	0.238808	-0.022934	0.000082
C80	C	0.572141	0.310399	0.333415
C81	C	0.905475	0.643732	0.666748
C82	C	0.298194	-0.023643	0.000065
C83	C	0.631528	0.309690	0.333398
C84	C	0.964861	0.643023	0.666732
N85	N	0.320820	-0.075920	0.000059
N86	N	0.654154	0.257414	0.333392
N87	N	0.987487	0.590747	0.666726
C88	C	0.284048	-0.127484	0.000052
C89	C	0.617381	0.205849	0.333386
C90	C	0.950714	0.539183	0.666719
C91	C	-0.064135	-0.019302	0.000080
C92	C	0.269198	0.314031	0.333413
C93	C	0.602532	0.647365	0.666746
C94	C	-0.123533	-0.018589	0.000075
C95	C	0.209800	0.314744	0.333408
C96	C	0.543134	0.648077	0.666742
C97	C	-0.137680	-0.122434	0.000061
C98	C	0.195653	0.210899	0.333395
C99	C	0.528986	0.544232	0.666728
C100	C	-0.078281	-0.123146	0.000062
C101	C	0.255052	0.210187	0.333395
C102	C	0.588385	0.543520	0.666729
C103	C	-0.041509	-0.071578	0.000074
C104	C	0.291824	0.261755	0.333407
C105	C	0.625158	0.595088	0.666740
C106	C	0.408784	-0.128974	0.000042
C107	C	0.742118	0.204360	0.333375
C108	C	1.075451	0.537693	0.666708
C109	C	0.468186	-0.129680	0.000034
C110	C	0.801520	0.203653	0.333368
C111	C	1.134853	0.536986	0.666701
C112	C	0.482329	-0.025836	0.000051
C113	C	0.815662	0.307497	0.333384
C114	C	1.148995	0.640831	0.666718
C115	C	0.422932	-0.025129	0.000055
C116	C	0.756265	0.308204	0.333389
C117	C	1.089598	0.641538	0.666722
C118	C	0.386160	-0.076702	0.000052
C119	C	0.719494	0.256631	0.333386
C120	C	1.052827	0.589964	0.666719
O121	O	0.334974	0.020119	0.000052
O122	O	0.668307	0.353453	0.333385
O123	O	1.001640	0.686786	0.666719
O124	O	0.308755	-0.172007	0.000054
O125	O	0.642089	0.161326	0.333387
O126	O	0.975422	0.494660	0.666721
C127	C	0.677071	0.030013	0.000072
C128	C	1.010404	0.363346	0.333405
C129	C	1.343738	0.696679	0.666738
C130	C	0.676305	0.093230	0.000076
C131	C	1.009638	0.426563	0.333409
C132	C	1.342972	0.759896	0.666743
C133	C	0.776472	-0.069388	0.000069
C134	C	1.109805	0.263945	0.333402
C135	C	1.443138	0.597278	0.666735
C136	C	0.839689	-0.070154	0.000071
C137	C	1.173022	0.263179	0.333405
C138	C	1.506355	0.596513	0.666738
C139	C	0.667577	-0.178283	0.000045
C140	C	1.000910	0.155051	0.333378
C141	C	1.334244	0.488384	0.666711
C142	C	0.668343	-0.241500	0.000036
C143	C	1.001676	0.091833	0.333370
C144	C	1.335010	0.425167	0.666703
N145	N	0.672304	-0.074155	0.153314
N146	N	1.005637	0.259179	0.486647
N147	N	1.338971	0.592512	0.819981
C148	C	0.723539	0.492333	0.000049
C149	C	1.056872	0.825666	0.333382
C150	C	1.390205	1.158999	0.666716
C151	C	0.722827	0.551733	0.000044
C152	C	1.056160	0.885066	0.333378
C153	C	1.389494	1.218400	0.666711
O154	O	0.766613	0.588478	0.000027
O155	O	1.099946	0.921811	0.333361
O156	O	1.433280	1.255144	0.666694
N157	N	0.670551	0.574359	0.000039
N158	N	1.003884	0.907693	0.333372
N159	N	1.337217	1.241026	0.666706
C160	C	0.618983	0.537582	0.000032
C161	C	0.952316	0.870915	0.333366
C162	C	1.285649	1.204248	0.666699
O163	O	0.574452	0.562281	0.000027
O164	O	0.907785	0.895615	0.333360
O165	O	1.241119	1.228948	0.666693
C166	C	0.619695	0.478182	0.000033
C167	C	0.953028	0.811516	0.333366
C168	C	1.286361	1.144849	0.666699
C169	C	0.671974	0.455560	0.000044
C170	C	1.005308	0.788893	0.333377
C171	C	1.338641	1.122227	0.666711
C172	C	0.775814	0.469710	0.000060
C173	C	1.109147	0.803043	0.333393
C174	C	1.442481	1.136376	0.666726
C175	C	0.776525	0.410313	0.000065
C176	C	1.109859	0.743647	0.333399
C177	C	1.443192	1.076980	0.666732
C178	C	0.724961	0.373540	0.000060
C179	C	1.058294	0.706874	0.333394
C180	C	1.391628	1.040207	0.666727
C181	C	0.672685	0.396164	0.000050
C182	C	1.006019	0.729497	0.333383
C183	C	1.339352	1.062830	0.666716
C184	C	0.568127	0.441406	0.000022
C185	C	0.901460	0.774739	0.333355
C186	C	1.234794	1.108073	0.666688
C187	C	0.568844	0.382004	0.000021
C188	C	0.902177	0.715337	0.333355
C189	C	1.235510	1.048670	0.666688
C190	C	0.621123	0.359381	0.000033
C191	C	0.954457	0.692714	0.333366
C192	C	1.287790	1.026048	0.666699
C193	C	0.621832	0.299995	0.000050
C194	C	0.955166	0.633328	0.333384
C195	C	1.288499	0.966661	0.666717
N196	N	0.674109	0.277368	0.000056
N197	N	1.007442	0.610702	0.333389
N198	N	1.340775	0.944035	0.666722
C199	C	0.725673	0.314141	0.000061
C200	C	1.059006	0.647475	0.333394
C201	C	1.392340	0.980808	0.666727
C202	C	0.617491	0.662324	0.000031
C203	C	0.950824	0.995657	0.333364
C204	C	1.284158	1.328991	0.666697
C205	C	0.616778	0.721722	0.000034
C206	C	0.950112	1.055055	0.333368
C207	C	1.283445	1.388389	0.666701
C208	C	0.720623	0.735869	0.000045
C209	C	1.053957	1.069203	0.333379
C210	C	1.387290	1.402536	0.666712
C211	C	0.721335	0.676470	0.000046
C212	C	1.054669	1.009804	0.333379
C213	C	1.388002	1.343137	0.666712
C214	C	0.669767	0.639698	0.000036
C215	C	1.003101	0.973031	0.333369
C216	C	1.336434	1.306365	0.666702
C217	C	0.727163	0.189405	0.000073
C218	C	1.060496	0.522738	0.333406
C219	C	1.393829	0.856071	0.666740
C220	C	0.727869	0.130003	0.000081
C221	C	1.061203	0.463336	0.333414
C222	C	1.394536	0.796669	0.666748
C223	C	0.624025	0.115860	0.000067
C224	C	0.957358	0.449194	0.333400
C225	C	1.290692	0.782527	0.666734
C226	C	0.623318	0.175257	0.000062
C227	C	0.956651	0.508591	0.333395
C228	C	1.289985	0.841924	0.666729
C229	C	0.674891	0.212029	0.000063
C230	C	1.008225	0.545362	0.333396
C231	C	1.341558	0.878695	0.666730
O232	O	0.578070	0.263215	0.000065
O233	O	0.911403	0.596549	0.333398
O234	O	1.244736	0.929882	0.666732
O235	O	0.770196	0.289433	0.000058
O236	O	1.103529	0.622767	0.333392
O237	O	1.436863	0.956100	0.666725
N238	N	0.672349	-0.074111	-0.153196
N239	N	1.005682	0.259222	0.180137
N240	N	1.339015	0.592556	0.513470
C241	C	0.711273	-0.035196	0.561965
C242	C	1.044606	0.298138	0.895298
C243	C	1.377940	0.631471	1.228631
C244	C	0.711276	-0.035192	0.623884
C245	C	1.044609	0.298142	0.957218
C246	C	1.377942	0.631475	1.290551
O247	O	0.744384	-0.002076	0.655911
O248	O	1.077718	0.331258	0.989244
O249	O	1.411051	0.664591	1.322578
N250	N	0.672334	-0.074115	0.654851
N251	N	1.005667	0.259219	0.988185
N252	N	1.339001	0.592552	1.321518
C253	C	0.633383	-0.113041	0.623895
C254	C	0.966716	0.220292	0.957228
C255	C	1.300049	0.553626	1.290562
O256	O	0.600259	-0.146147	0.655920
O257	O	0.933593	0.187186	0.989254
O258	O	1.266926	0.520519	1.322587
C259	C	0.633377	-0.113042	0.561976
C260	C	0.966711	0.220291	0.895309
C261	C	1.300044	0.553625	1.228643
C262	C	0.672326	-0.074120	0.531013
C263	C	1.005659	0.259213	0.864346
C264	C	1.338992	0.592547	1.197679
C265	C	0.750218	0.003724	0.531001
C266	C	1.083551	0.337057	0.864334
C267	C	1.416884	0.670390	1.197668
C268	C	0.750215	0.003719	0.469085
C269	C	1.083549	0.337052	0.802419
C270	C	1.416882	0.670385	1.135752
C271	C	0.711268	-0.035206	0.438133
C272	C	1.044601	0.298128	0.771467
C273	C	1.377935	0.631461	1.104800
C274	C	0.672323	-0.074125	0.469097
C275	C	1.005657	0.259208	0.802430
C276	C	1.338990	0.592542	1.135764
C277	C	0.594424	-0.151965	0.531021
C278	C	0.927757	0.181369	0.864354
C279	C	1.261091	0.514702	1.197688
C280	C	0.594422	-0.151962	0.469098
C281	C	0.927755	0.181371	0.802431
C282	C	1.261089	0.514705	1.135765
C283	C	0.633370	-0.113040	0.438134
C284	C	0.966704	0.220293	0.771468
C285	C	1.300037	0.553626	1.104801
C286	C	0.633374	-0.113054	0.376229
C287	C	0.966707	0.220279	0.709563
C288	C	1.300041	0.553613	1.042896
N289	N	0.672316	-0.074131	0.345262
N290	N	1.005649	0.259202	0.678596
N291	N	1.338983	0.592536	1.011929
C292	C	0.711263	-0.035207	0.376214
C293	C	1.044596	0.298127	0.709548
C294	C	1.377930	0.631460	1.042881
C295	C	0.633396	-0.113035	0.753928
C296	C	0.966729	0.220298	1.087262
C297	C	1.300063	0.553631	1.420595
C298	C	0.633403	-0.113037	0.815846
C299	C	0.966737	0.220296	1.149179
C300	C	1.300070	0.553629	1.482513
C301	C	0.711296	-0.035187	0.815831
C302	C	1.044629	0.298146	1.149165
C303	C	1.377962	0.631479	1.482498
C304	C	0.711291	-0.035188	0.753913
C305	C	1.044624	0.298145	1.087246
C306	C	1.377957	0.631479	1.420579
C307	C	0.672338	-0.074112	0.722962
C308	C	1.005671	0.259221	1.056295
C309	C	1.339004	0.592555	1.389628
C310	C	0.711255	-0.035220	0.246187
C311	C	1.044589	0.298113	0.579520
C312	C	1.377922	0.631446	0.912854
C313	C	0.711251	-0.035230	0.184266
C314	C	1.044584	0.298103	0.517599
C315	C	1.377918	0.631436	0.850933
C316	C	0.633357	-0.113078	0.184286
C317	C	0.966690	0.220255	0.517619
C318	C	1.300023	0.553588	0.850953
C319	C	0.633363	-0.113071	0.246202
C320	C	0.966696	0.220263	0.579535
C321	C	1.300029	0.553596	0.912869
C322	C	0.672314	-0.074137	0.277151
C323	C	1.005648	0.259196	0.610484
C324	C	1.338981	0.592530	0.943818
O325	O	0.600281	-0.146152	0.344163
O326	O	0.933614	0.187182	0.677497
O327	O	1.266948	0.520515	1.010830
O328	O	0.744376	-0.002101	0.344182
O329	O	1.077709	0.331233	0.677515
O330	O	1.411042	0.664566	1.010848
H331	H	-0.034198	0.022693	0.000084
H332	H	0.299136	0.356027	0.333417
H333	H	0.632469	0.689360	0.666751
N334	N	0.568411	0.076193	0.000078
N335	N	0.901744	0.409526	0.333411
N336	N	1.235078	0.742860	0.666744
H337	H	0.576799	0.035132	0.000085
H338	H	0.910133	0.368466	0.333418
H339	H	1.243466	0.701799	0.666751
H340	H	0.545612	0.083476	-0.036390
H341	H	0.878946	0.416809	0.296943
H342	H	1.212279	0.750143	0.630277
N343	N	0.566933	0.199663	0.000052
N344	N	0.900266	0.532996	0.333385
N345	N	1.233600	0.866329	0.666719
H346	H	0.564315	0.223997	0.036513
H347	H	0.897649	0.557330	0.369846
H348	H	1.230982	0.890664	0.703180
H349	H	0.534409	0.167321	0.000029
H350	H	0.867742	0.500654	0.333363
H351	H	1.201076	0.833987	0.666696
N352	N	0.212264	-0.234728	0.000032
N353	N	0.545598	0.098606	0.333365
N354	N	0.878931	0.431939	0.666699
H355	H	0.198827	-0.257305	0.036495
H356	H	0.532161	0.076029	0.369828
H357	H	0.865494	0.409362	0.703162
H358	H	0.255470	-0.227320	0.000008
H359	H	0.588803	0.106014	0.333342
H360	H	0.922137	0.439347	0.666675
H361	H	0.138375	0.072634	0.000103
H362	H	0.471708	0.405967	0.333437
H363	H	0.805041	0.739300	0.666770
N364	N	-0.177335	-0.178061	0.000089
N365	N	0.155998	0.155273	0.333422
N366	N	0.489331	0.488606	0.666756
H367	H	-0.170099	-0.200897	-0.036370
H368	H	0.163234	0.132436	0.296963
H369	H	0.496567	0.465770	0.630296
H370	H	-0.218384	-0.169641	0.000124
H371	H	0.114949	0.163692	0.333458
H372	H	0.448283	0.497026	0.666791
H373	H	0.562709	-0.183658	0.556223
H374	H	0.896042	0.149675	0.889556
H375	H	1.229375	0.483008	1.222889
H376	H	0.601653	-0.144770	0.271413
H377	H	0.934986	0.188563	0.604746
H378	H	1.268320	0.521897	0.938080
N379	N	0.591389	-0.155027	0.720545
N380	N	0.924723	0.178306	1.053878
N381	N	1.258056	0.511640	1.387211
H382	H	0.566293	-0.133396	0.694858
H383	H	0.899626	0.199937	1.028191
H384	H	1.232960	0.533271	1.361524
H385	H	0.566762	-0.179673	0.749597
H386	H	0.900095	0.153660	1.082930
H387	H	1.233429	0.486993	1.416264
N388	N	0.511734	0.465787	0.000004
N389	N	0.845068	0.799121	0.333337
N390	N	1.178401	1.132454	0.666670
H391	H	0.509128	0.490113	-0.036464
H392	H	0.842461	0.823447	0.296869
H393	H	1.175794	1.156780	0.630202
H394	H	0.509138	0.490088	0.036491
H395	H	0.842472	0.823422	0.369824
H396	H	1.175805	1.156755	0.703157
N397	N	0.782790	0.229055	0.000082
N398	N	1.116123	0.562388	0.333415
N399	N	1.449457	0.895721	0.666748
H400	H	0.784804	0.254015	0.036547
H401	H	1.118138	0.587348	0.369880
H402	H	1.451471	0.920682	0.703213
H403	H	0.784793	0.253977	-0.036408
H404	H	1.118126	0.587311	0.296925
H405	H	1.451459	0.920644	0.630258
H406	H	0.404512	0.017441	0.000056
H407	H	0.737845	0.350775	0.333390
H408	H	1.071178	0.684108	0.666723
N409	N	0.753253	0.006756	0.150865
N410	N	1.086586	0.340089	0.484199
N411	N	1.419919	0.673423	0.817532
H412	H	0.778345	-0.014878	0.125173
H413	H	1.111678	0.318455	0.458507
H414	H	1.445011	0.651789	0.791840
H415	H	0.777885	0.031408	0.179907
H416	H	1.111218	0.364742	0.513240
H417	H	1.444552	0.698075	0.846573
H418	H	-0.141947	0.023982	0.000076
H419	H	0.191387	0.357315	0.333409
H420	H	0.524720	0.690648	0.666742
H421	H	0.562700	-0.183658	0.443901
H422	H	0.896033	0.149675	0.777234
H423	H	1.229367	0.483009	1.110567
N424	N	0.255842	0.084969	0.000104
N425	N	0.589176	0.418303	0.333437
N426	N	0.922509	0.751636	0.666771
H427	H	0.280804	0.086998	-0.036362
H428	H	0.614137	0.420331	0.296971
H429	H	0.947470	0.753665	0.630305
H430	H	0.280764	0.086951	0.036593
H431	H	0.614097	0.420285	0.369927
H432	H	0.947431	0.753618	0.703260
N433	N	0.784258	0.105601	0.000090
N434	N	1.117591	0.438935	0.333423
N435	N	1.450925	0.772268	0.666756
H436	H	0.786863	0.081276	0.036558
H437	H	1.120197	0.414610	0.369892
H438	H	1.453530	0.747943	0.703225
H439	H	0.816782	0.137944	0.000068
H440	H	1.150115	0.471278	0.333401
H441	H	1.483448	0.804611	0.666734
N442	N	0.521994	0.029779	0.000061
N443	N	0.855327	0.363112	0.333395
N444	N	1.188661	0.696446	0.666728
H445	H	0.546958	0.031805	-0.036403
H446	H	0.880292	0.365138	0.296931
H447	H	1.213625	0.698472	0.630264
H448	H	0.546913	0.031752	0.036553
H449	H	0.880246	0.365085	0.369886
H450	H	1.213579	0.698419	0.703219
N451	N	0.088822	-0.233245	0.000076
N452	N	0.422156	0.100088	0.333410
N453	N	0.755489	0.433421	0.666743
H454	H	0.112176	-0.266464	0.000080
H455	H	0.445510	0.066869	0.333413
H456	H	0.778843	0.400202	0.666747
H457	H	0.063858	-0.235232	-0.036382
H458	H	0.397191	0.098102	0.296952
H459	H	0.730524	0.431435	0.630285
N460	N	0.832913	0.385917	0.000075
N461	N	1.166246	0.719251	0.333409
N462	N	1.499579	1.052584	0.666742
H463	H	0.865466	0.418233	0.000076
H464	H	1.198799	0.751566	0.333410
H465	H	1.532132	1.084900	0.666743
H466	H	0.835478	0.361581	-0.036391
H467	H	1.168812	0.694914	0.296943
H468	H	1.502145	1.028248	0.630276
H469	H	0.763906	0.658056	0.000054
H470	H	1.097239	0.991389	0.333388
H471	H	1.430573	1.324722	0.666721
H472	H	0.762610	0.765821	0.000047
H473	H	1.095943	1.099154	0.333380
H474	H	1.429276	1.432488	0.666714
N475	N	-0.053883	-0.179533	0.000047
N476	N	0.279450	0.153801	0.333380
N477	N	0.612784	0.487134	0.666713
H478	H	-0.086197	-0.212087	0.000040
H479	H	0.247136	0.121246	0.333373
H480	H	0.580470	0.454579	0.666707
H481	H	-0.029550	-0.182100	0.036513
H482	H	0.303783	0.151233	0.369847
H483	H	0.637117	0.484567	0.703180
N484	N	0.591351	-0.155060	0.150896
N485	N	0.924684	0.178274	0.484230
N486	N	1.258018	0.511607	0.817563
H487	H	0.597261	-0.149151	0.106973
H488	H	0.930594	0.184183	0.440307
H489	H	1.263928	0.517516	0.773640
H490	H	0.550991	-0.148680	0.161722
H491	H	0.884324	0.184653	0.495056
H492	H	1.217657	0.517987	0.828389
H493	H	0.781929	0.035414	0.443878
H494	H	1.115262	0.368747	0.777212
H495	H	1.448595	0.702080	1.110545
N496	N	0.831434	0.509367	0.000066
N497	N	1.164768	0.842700	0.333399
N498	N	1.498101	1.176033	0.666732
H499	H	0.864653	0.486012	0.000073
H500	H	1.197987	0.819346	0.333406
H501	H	1.531320	1.152679	0.666739
H502	H	0.833396	0.534317	0.036534
H503	H	1.166730	0.867650	0.369868
H504	H	1.500063	1.200984	0.703201
H505	H	0.486602	-0.172255	0.000024
H506	H	0.819935	0.161079	0.333357
H507	H	1.153269	0.494412	0.666691
H508	H	0.574207	0.740136	0.000035
H509	H	0.907540	1.073469	0.333369
H510	H	1.240874	1.406802	0.666702
H511	H	0.601694	-0.144737	0.841052
H512	H	0.935027	0.188596	1.174386
H513	H	1.268361	0.521930	1.507719
N514	N	0.561868	0.622664	0.000025
N515	N	0.895201	0.955997	0.333358
N516	N	1.228535	1.289330	0.666692
H517	H	0.528647	0.646015	0.000023
H518	H	0.861980	0.979349	0.333356
H519	H	1.195314	1.312682	0.666689
H520	H	0.559894	0.597711	0.036492
H521	H	0.893227	0.931044	0.369826
H522	H	1.226560	1.264378	0.703159
H523	H	0.378851	-0.170970	0.000041
H524	H	0.712185	0.162363	0.333375
H525	H	1.045518	0.495697	0.666708
H526	H	0.526850	0.352066	0.000013
H527	H	0.860183	0.685399	0.333346
H528	H	1.193516	1.018732	0.666679
N529	N	0.753269	0.006768	0.279563
N530	N	1.086603	0.340101	0.612896
N531	N	1.419936	0.673434	0.946229
H532	H	0.777939	0.031417	0.250544
H533	H	1.111273	0.364750	0.583878
H534	H	1.444606	0.698083	0.917211
H535	H	0.778322	-0.014910	0.305249
H536	H	1.111656	0.318423	0.638582
H537	H	1.444989	0.651756	0.971915
N538	N	0.753305	0.006793	0.849225
N539	N	1.086639	0.340127	1.182559
N540	N	1.419972	0.673460	1.515892
H541	H	0.793685	0.000434	0.838448
H542	H	1.127018	0.333768	1.171782
H543	H	1.460352	0.667101	1.505115
H544	H	0.747342	0.000859	0.893136
H545	H	1.080676	0.334192	1.226470
H546	H	1.414009	0.667526	1.559803
N547	N	0.792237	0.045701	0.564379
N548	N	1.125570	0.379034	0.897712
N549	N	1.458904	0.712367	1.231046
H550	H	0.816907	0.070349	0.535359
H551	H	1.150240	0.403682	0.868693
H552	H	1.483573	0.737015	1.202026
H553	H	0.817289	0.024015	0.590058
H554	H	1.150622	0.357348	0.923391
H555	H	1.483956	0.690681	1.256724
N556	N	0.753298	0.006791	0.720518
N557	N	1.086632	0.340125	1.053852
N558	N	1.419965	0.673458	1.387185
H559	H	0.777971	0.031446	0.749528
H560	H	1.111304	0.364780	1.082861
H561	H	1.444637	0.698113	1.416194
H562	H	0.731640	0.031862	0.694832
H563	H	1.064973	0.365195	1.028166
H564	H	1.398307	0.698528	1.361499
