data_functionalizedCrystal
_audit_creation_method	'MofGen! by Chris Wilmer'
_symmetry_space_group_name_H-M	'P1'
_symmetry_Int_Tables_number	1
_symmetry_cell_setting	triclinic
loop_
_symmetry_equiv_pos_as_xyz
  x,y,z
_cell_length_a	12.759401
_cell_length_b	10.685194
_cell_length_c	12.759393
_cell_angle_alpha	85.597731
_cell_angle_beta	89.980404
_cell_angle_gamma	94.377514
loop_
_atom_site_label
_atom_site_type_symbol
_atom_site_fract_x
_atom_site_fract_y
_atom_site_fract_z
Zn1	Zn	1.574255	-0.502343	-0.561903
Zn2	Zn	2.074255	-0.002343	-0.061903
Zn3	Zn	1.560696	-0.713409	-0.372745
Zn4	Zn	2.060696	-0.213409	0.127255
Zn5	Zn	1.398550	-0.502405	-0.386239
Zn6	Zn	1.898550	-0.002405	0.113761
Zn7	Zn	1.385102	-0.713316	-0.548392
Zn8	Zn	1.885102	-0.213316	-0.048392
O9	O	1.479651	-0.607868	-0.467320
O10	O	1.979651	-0.107868	0.032680
O11	O	1.719477	-0.530354	-0.536818
O12	O	2.219477	-0.030354	-0.036818
O13	O	1.539141	-0.685484	-0.227510
O14	O	2.039141	-0.185484	0.272490
O15	O	1.433160	-0.325798	-0.420842
O16	O	1.933160	0.174202	0.079158
O17	O	1.709515	-0.685423	-0.397845
O18	O	2.209515	-0.185423	0.102155
O19	O	1.562250	-0.325752	-0.549903
O20	O	2.062250	0.174248	-0.049903
O21	O	1.420013	-0.530460	-0.237423
O22	O	1.920013	-0.030460	0.262577
O23	O	1.249746	-0.530370	-0.407741
O24	O	1.749746	-0.030370	0.092259
O25	O	1.410240	-0.685265	-0.697210
O26	O	1.910240	-0.185265	-0.197210
O27	O	1.239865	-0.685326	-0.526875
O28	O	1.739865	-0.185326	-0.026875
O29	O	1.549210	-0.530264	-0.707136
O30	O	2.049210	-0.030264	-0.207136
O31	O	1.526101	-0.889995	-0.384743
O32	O	2.026101	-0.389995	0.115257
O33	O	1.397092	-0.889927	-0.513791
O34	O	1.897092	-0.389927	-0.013791
C35	C	1.206685	-0.607846	-0.467307
C36	C	1.706685	-0.107846	0.032693
C37	C	1.089907	-0.607866	-0.467324
C38	C	1.589907	-0.107866	0.032676
C39	C	0.920188	-0.688693	-0.529249
C40	C	1.420188	-0.188693	-0.029249
C41	C	1.029913	-0.688679	-0.529239
C42	C	1.529913	-0.188679	-0.029239
C43	C	1.040170	-0.527071	-0.405407
C44	C	1.540170	-0.027071	0.094593
C45	C	0.930447	-0.527093	-0.405412
C46	C	1.430447	-0.027093	0.094588
C47	C	1.458694	-0.935751	-0.446359
C48	C	1.958694	-0.435751	0.053641
C49	C	1.449825	-1.076021	-0.437428
C50	C	1.949825	-0.576021	0.062572
C51	C	1.753682	-0.607892	-0.467333
C52	C	2.253682	-0.107892	0.032667
C53	C	1.870458	-0.607902	-0.467339
C54	C	2.370458	-0.107902	0.032661
C55	C	1.479737	-0.607747	-0.741361
C56	C	1.979737	-0.107747	-0.241361
C57	C	1.479774	-0.607695	-0.858141
C58	C	1.979774	-0.107695	-0.358141
C59	C	1.500718	-0.278705	-0.488385
C60	C	2.000718	0.221295	0.011615
C61	C	1.509695	-0.138435	-0.497362
C62	C	2.009695	0.361565	0.002638
C63	C	1.552141	-0.526973	-0.918174
C64	C	2.052141	-0.026973	-0.418174
C65	C	1.552163	-0.526919	-1.027902
C66	C	2.052163	-0.026919	-0.527902
C67	C	1.407445	-0.688320	-1.017553
C68	C	1.907445	-0.188320	-0.517553
C69	C	1.407420	-0.688367	-0.907827
C70	C	1.907420	-0.188367	-0.407827
C71	C	1.479631	-0.607898	-0.194350
C72	C	1.979631	-0.107898	0.305650
C73	C	1.479820	-0.607594	-0.077594
C74	C	1.979820	-0.107594	0.422406
H75	H	1.070396	-0.754469	-0.579652
H76	H	1.570396	-0.254469	-0.079652
F77	F	1.585564	-1.068019	-0.573370
F78	F	2.085564	-0.568019	-0.073370
H79	H	1.391769	-1.129902	-0.379283
H80	H	1.891769	-0.629902	0.120717
F81	F	1.629144	-0.441113	-0.865298
F82	F	2.129144	0.058887	-0.365298
H83	H	1.348482	-0.754099	-0.858947
H84	H	1.848482	-0.254099	-0.358947
F85	F	1.330449	-0.774175	-1.070442
F86	F	1.830449	-0.274175	-0.570442
H87	H	1.611090	-0.461185	-1.076777
H88	H	2.111090	0.038815	-0.576777
H89	H	0.871348	-0.754494	-0.579674
H90	H	1.371348	-0.254494	-0.079674
F91	F	0.877518	-0.441102	-0.339511
F92	F	1.377518	0.058898	0.160489
F93	F	1.104023	-0.441068	-0.339507
F94	F	1.604023	0.058932	0.160493
