data_functionalizedCrystal
_audit_creation_method	'MofGen! by Chris Wilmer'
_symmetry_space_group_name_H-M	'P1'
_symmetry_Int_Tables_number	1
_symmetry_cell_setting	triclinic
loop_
_symmetry_equiv_pos_as_xyz
  x,y,z
_cell_length_a	27.732048
_cell_length_b	19.188930
_cell_length_c	17.666332
_cell_angle_alpha	90.023234
_cell_angle_beta	89.988553
_cell_angle_gamma	97.106284
loop_
_atom_site_label
_atom_site_type_symbol
_atom_site_fract_x
_atom_site_fract_y
_atom_site_fract_z
O1	O	0.060348	-0.925765	-0.063200
O2	O	0.393681	-0.592431	0.270134
O3	O	0.727015	-0.259098	0.603467
O4	O	0.068472	-0.722402	-0.063149
O5	O	0.401805	-0.389068	0.270184
O6	O	0.735138	-0.055735	0.603518
O7	O	-0.005968	-0.830399	-0.063161
O8	O	0.327366	-0.497066	0.270172
O9	O	0.660699	-0.163732	0.603505
O10	O	0.134787	-0.817767	-0.063187
O11	O	0.468121	-0.484434	0.270146
O12	O	0.801454	-0.151100	0.603480
O13	O	-0.005971	-0.830380	0.062735
O14	O	0.327362	-0.497047	0.396069
O15	O	0.660695	-0.163714	0.729402
O16	O	0.068468	-0.722383	0.062748
O17	O	0.401801	-0.389049	0.396081
O18	O	0.735135	-0.055716	0.729415
O19	O	0.060344	-0.925746	0.062697
O20	O	0.393677	-0.592413	0.396030
O21	O	0.727011	-0.259079	0.729364
Cu22	Cu	0.064406	-0.824063	0.074218
Cu23	Cu	0.397739	-0.490729	0.407551
Cu24	Cu	0.731072	-0.157396	0.740885
Cu25	Cu	0.064410	-0.824085	-0.074670
Cu26	Cu	0.397744	-0.490752	0.258664
Cu27	Cu	0.731077	-0.157418	0.591997
O28	O	0.134783	-0.817748	0.062710
O29	O	0.468117	-0.484415	0.396043
O30	O	0.801450	-0.151082	0.729376
C31	C	0.068207	-0.696383	-0.000194
C32	C	0.401540	-0.363050	0.333140
C33	C	0.734873	-0.029716	0.666473
C34	C	0.067417	-0.618883	-0.000174
C35	C	0.400750	-0.285550	0.333160
C36	C	0.734084	0.047783	0.666493
C37	C	-0.023977	-0.830125	-0.000211
C38	C	0.309356	-0.496791	0.333122
C39	C	0.642689	-0.163458	0.666456
C40	C	-0.077635	-0.829326	-0.000204
C41	C	0.255699	-0.495993	0.333129
C42	C	0.589032	-0.162660	0.666462
C43	C	0.060609	-0.951765	-0.000260
C44	C	0.393942	-0.618431	0.333074
C45	C	0.727276	-0.285098	0.666407
C46	C	0.061399	-1.029264	-0.000285
C47	C	0.394732	-0.695931	0.333049
C48	C	0.728066	-0.362597	0.666382
C49	C	-0.416270	-0.888119	-0.000258
C50	C	-0.082937	-0.554786	0.333075
C51	C	0.250397	-0.221452	0.666409
C52	C	-0.617939	-0.885157	-0.000268
C53	C	-0.284605	-0.551823	0.333065
C54	C	0.048728	-0.218490	0.666399
O55	O	-0.649030	-0.938918	-0.000314
O56	O	-0.315696	-0.605585	0.333019
O57	O	0.017637	-0.272252	0.666352
N58	N	-0.637258	-0.821118	-0.000251
N59	N	-0.303925	-0.487785	0.333082
N60	N	0.029409	-0.154452	0.666416
C61	C	-0.606157	-0.757816	-0.000237
C62	C	-0.272824	-0.424483	0.333096
C63	C	0.060510	-0.091150	0.666430
O64	O	-0.627217	-0.703280	-0.000231
O65	O	-0.293883	-0.369947	0.333103
O66	O	0.039450	-0.036613	0.666436
C67	C	-0.404489	-0.760780	-0.000233
C68	C	-0.071156	-0.427446	0.333101
C69	C	0.262177	-0.094113	0.666434
C70	C	-0.385173	-0.824822	-0.000242
C71	C	-0.051839	-0.491489	0.333092
C72	C	0.281494	-0.158155	0.666425
C73	C	-0.396953	-0.952156	-0.000268
C74	C	-0.063619	-0.618823	0.333065
C75	C	0.269714	-0.285489	0.666399
C76	C	-0.346539	-0.952896	-0.000261
C77	C	-0.013205	-0.619563	0.333072
C78	C	0.320128	-0.286229	0.666405
C79	C	-0.315441	-0.889599	-0.000245
C80	C	0.017892	-0.556266	0.333088
C81	C	0.351225	-0.222932	0.666422
C82	C	-0.334759	-0.825562	-0.000235
C83	C	-0.001425	-0.492228	0.333098
C84	C	0.331908	-0.158895	0.666432
C85	C	-0.373389	-0.697478	-0.000224
C86	C	-0.040056	-0.364145	0.333110
C87	C	0.293278	-0.030812	0.666443
C88	C	-0.322969	-0.698225	-0.000225
C89	C	0.010364	-0.364892	0.333109
C90	C	0.343697	-0.031558	0.666442
C91	C	-0.303653	-0.762267	-0.000234
C92	C	0.029680	-0.428934	0.333100
C93	C	0.363014	-0.095600	0.666433
C94	C	-0.253247	-0.763005	-0.000212
C95	C	0.080086	-0.429671	0.333121
C96	C	0.413420	-0.096338	0.666455
N97	N	-0.233928	-0.827043	-0.000229
N98	N	0.099406	-0.493709	0.333105
N99	N	0.432739	-0.160376	0.666438
C100	C	-0.265025	-0.890340	-0.000245
C101	C	0.068309	-0.557007	0.333088
C102	C	0.401642	-0.223673	0.666422
C103	C	-0.712036	-0.756265	-0.000238
C104	C	-0.378702	-0.422932	0.333096
C105	C	-0.045369	-0.089599	0.666429
C106	C	-0.762452	-0.755524	-0.000238
C107	C	-0.429119	-0.422191	0.333096
C108	C	-0.095786	-0.088858	0.666429
C109	C	-0.774231	-0.882865	-0.000270
C110	C	-0.440897	-0.549531	0.333064
C111	C	-0.107564	-0.216198	0.666397
C112	C	-0.723813	-0.883605	-0.000265
C113	C	-0.390480	-0.550272	0.333069
C114	C	-0.057146	-0.216938	0.666402
C115	C	-0.692716	-0.820303	-0.000254
C116	C	-0.359383	-0.486970	0.333079
C117	C	-0.026050	-0.153637	0.666412
C118	C	-0.159151	-0.891889	-0.000231
C119	C	0.174182	-0.558556	0.333103
C120	C	0.507516	-0.225222	0.666436
C121	C	-0.108732	-0.892623	-0.000221
C122	C	0.224602	-0.559290	0.333112
C123	C	0.557935	-0.225957	0.666446
C124	C	-0.096958	-0.765283	-0.000193
C125	C	0.236375	-0.431950	0.333141
C126	C	0.569709	-0.098617	0.666474
C127	C	-0.147373	-0.764549	-0.000198
C128	C	0.185961	-0.431215	0.333135
C129	C	0.519294	-0.097882	0.666468
C130	C	-0.178468	-0.827857	-0.000220
C131	C	0.154865	-0.494524	0.333113
C132	C	0.488198	-0.161190	0.666447
O133	O	-0.222127	-0.709272	-0.000174
O134	O	0.111206	-0.375938	0.333159
O135	O	0.444539	-0.042605	0.666493
O136	O	-0.243956	-0.944868	-0.000268
O137	O	0.089378	-0.611535	0.333065
O138	O	0.422711	-0.278202	0.666399
C139	C	-0.466684	-0.887379	-0.000265
C140	C	-0.133351	-0.554046	0.333069
C141	C	0.199983	-0.220712	0.666402
C142	C	-0.486001	-0.823342	-0.000255
C143	C	-0.152668	-0.490009	0.333079
C144	C	0.180666	-0.156675	0.666412
C145	C	-0.454904	-0.760045	-0.000238
C146	C	-0.121571	-0.426712	0.333095
C147	C	0.211763	-0.093378	0.666428
C148	C	-0.536418	-0.822601	-0.000254
C149	C	-0.203084	-0.489268	0.333079
C150	C	0.130249	-0.155934	0.666412
C151	C	-0.567515	-0.885898	-0.000271
C152	C	-0.234182	-0.552565	0.333062
C153	C	0.099152	-0.219231	0.666396
C154	C	-0.548195	-0.949936	-0.000288
C155	C	-0.214862	-0.616603	0.333046
C156	C	0.118471	-0.283270	0.666379
C157	C	-0.497781	-0.950676	-0.000281
C158	C	-0.164448	-0.617343	0.333052
C159	C	0.168885	-0.284010	0.666386
C160	C	-0.474223	-0.696007	-0.000222
C161	C	-0.140890	-0.362673	0.333112
C162	C	0.192443	-0.029340	0.666445
C163	C	-0.524638	-0.695272	-0.000227
C164	C	-0.191305	-0.361939	0.333106
C165	C	0.142028	-0.028605	0.666439
C166	C	-0.555735	-0.758569	-0.000244
C167	C	-0.222402	-0.425236	0.333090
C168	C	0.110931	-0.091903	0.666423
C169	C	0.152793	-0.818023	-0.000243
C170	C	0.486126	-0.484690	0.333091
C171	C	0.819460	-0.151356	0.666424
C172	C	0.206450	-0.818821	-0.000254
C173	C	0.539784	-0.485488	0.333079
C174	C	0.873117	-0.152155	0.666413
N175	N	0.064402	-0.824052	0.178937
N176	N	0.397735	-0.490719	0.512271
N177	N	0.731069	-0.157385	0.845604
C178	C	0.111096	-0.573681	-0.000194
C179	C	0.444429	-0.240348	0.333140
C180	C	0.777762	0.092986	0.666473
C181	C	0.110354	-0.500862	-0.000202
C182	C	0.443687	-0.167528	0.333132
C183	C	0.777020	0.165805	0.666465
C184	C	0.065931	-0.473249	-0.000205
C185	C	0.399264	-0.139915	0.333128
C186	C	0.732597	0.193418	0.666461
C187	C	0.022246	-0.518461	-0.000181
C188	C	0.355580	-0.185128	0.333152
C189	C	0.688913	0.148206	0.666485
C190	C	0.022990	-0.591278	-0.000165
C191	C	0.356323	-0.257945	0.333168
C192	C	0.689656	0.075388	0.666501
N193	N	0.031976	-0.365491	-0.043078
N194	N	0.365310	-0.032158	0.290256
N195	N	0.698643	0.301175	0.623589
N196	N	0.031273	-0.296317	-0.043094
N197	N	0.364607	0.037016	0.290239
N198	N	0.697940	0.370349	0.623572
C199	C	0.063689	-0.253854	-0.000251
C200	C	0.397022	0.079479	0.333082
C201	C	0.730356	0.412812	0.666415
N202	N	0.096841	-0.283177	0.042600
N203	N	0.430175	0.050156	0.375933
N204	N	0.763508	0.383490	0.709266
N205	N	0.097546	-0.352357	0.042613
N206	N	0.430879	-0.019024	0.375946
N207	N	0.764213	0.314309	0.709280
C208	C	0.065120	-0.394291	-0.000222
C209	C	0.398453	-0.060958	0.333111
C210	C	0.731787	0.272375	0.666445
C211	C	0.106566	-0.129692	-0.000279
C212	C	0.439899	0.203641	0.333054
C213	C	0.773233	0.536974	0.666388
C214	C	0.105822	-0.056872	-0.000282
C215	C	0.439156	0.276461	0.333051
C216	C	0.772489	0.609794	0.666384
C217	C	0.017714	-0.074473	-0.000269
C218	C	0.351047	0.258860	0.333064
C219	C	0.684380	0.592194	0.666397
C220	C	0.018459	-0.147292	-0.000258
C221	C	0.351792	0.186042	0.333075
C222	C	0.685125	0.519375	0.666408
C223	C	0.062886	-0.174897	-0.000267
C224	C	0.396220	0.158437	0.333067
C225	C	0.729553	0.491770	0.666400
N226	N	0.064410	-0.824101	-0.179389
N227	N	0.397743	-0.490768	0.153944
N228	N	0.731077	-0.157434	0.487278
C229	C	0.031456	-0.871889	0.218541
C230	C	0.364790	-0.538555	0.551875
C231	C	0.698123	-0.205222	0.885208
C232	C	0.031454	-0.871893	0.297789
C233	C	0.364787	-0.538559	0.631122
C234	C	0.698121	-0.205226	0.964456
C235	C	0.064406	-0.824067	0.337429
C236	C	0.397739	-0.490734	0.670763
C237	C	0.731072	-0.157400	1.004096
C238	C	0.097354	-0.776221	0.297816
C239	C	0.430687	-0.442888	0.631149
C240	C	0.764021	-0.109555	0.964482
C241	C	0.097352	-0.776214	0.218570
C242	C	0.430685	-0.442881	0.551903
C243	C	0.764019	-0.109547	0.885236
N244	N	0.107196	-0.814718	0.461842
N245	N	0.440529	-0.481384	0.795175
N246	N	0.773862	-0.148051	1.128508
N247	N	0.107196	-0.814729	0.537122
N248	N	0.440529	-0.481396	0.870455
N249	N	0.773862	-0.148062	1.203789
C250	C	0.064412	-0.824085	0.576193
C251	C	0.397746	-0.490752	0.909527
C252	C	0.731079	-0.157419	1.242860
N253	N	0.021627	-0.833444	0.537140
N254	N	0.354961	-0.500110	0.870474
N255	N	0.688294	-0.166777	1.203807
N256	N	0.021628	-0.833436	0.461853
N257	N	0.354961	-0.500103	0.795186
N258	N	0.688294	-0.166769	1.128520
C259	C	0.064411	-0.824069	0.423359
C260	C	0.397744	-0.490736	0.756692
C261	C	0.731078	-0.157403	1.090025
C262	C	0.031462	-0.871929	0.701727
C263	C	0.364795	-0.538596	1.035060
C264	C	0.698128	-0.205262	1.368394
C265	C	0.031459	-0.871928	0.780976
C266	C	0.364792	-0.538595	1.114309
C267	C	0.698125	-0.205261	1.447643
C268	C	0.097363	-0.776260	0.781001
C269	C	0.430696	-0.442927	1.114334
C270	C	0.764029	-0.109593	1.447668
C271	C	0.097361	-0.776257	0.701754
C272	C	0.430695	-0.442924	1.035087
C273	C	0.764028	-0.109591	1.368420
C274	C	0.064411	-0.824096	0.662121
C275	C	0.397745	-0.490762	0.995455
C276	C	0.731078	-0.157429	1.328788
H277	H	-0.093007	-0.944776	-0.000226
H278	H	0.240326	-0.611443	0.333107
H279	H	0.573659	-0.278110	0.666440
H280	H	0.147272	-0.596152	-0.000202
H281	H	0.480605	-0.262818	0.333131
H282	H	0.813939	0.070515	0.666465
F283	F	-0.003613	-0.922810	0.339946
F284	F	0.329720	-0.589476	0.673279
F285	F	0.663054	-0.256143	1.006612
H286	H	0.124191	-0.737317	0.813276
H287	H	0.457524	-0.403983	1.146609
H288	H	0.790857	-0.070650	1.479942
H289	H	-0.013923	-0.495974	-0.000195
H290	H	0.319410	-0.162640	0.333139
H291	H	0.652744	0.170693	0.666472
F292	F	-0.807335	-0.950230	-0.000289
F293	F	-0.474002	-0.616897	0.333044
F294	F	-0.140668	-0.283564	0.666378
H295	H	0.124191	-0.737307	0.669506
H296	H	0.457524	-0.403974	1.002839
H297	H	0.790857	-0.070640	1.336172
F298	F	-0.192238	-0.959269	-0.000254
F299	F	0.141095	-0.625936	0.333079
F300	F	0.474428	-0.292602	0.666413
H301	H	0.142741	-0.152169	-0.000275
H302	H	0.476075	0.181164	0.333059
H303	H	0.809408	0.514497	0.666392
H304	H	-0.778175	-0.703375	-0.000217
H305	H	-0.444842	-0.370041	0.333116
H306	H	-0.111508	-0.036708	0.666450
H307	H	-0.330816	-1.005046	-0.000272
H308	H	0.002517	-0.671712	0.333062
H309	H	0.335850	-0.338379	0.666395
F310	F	-0.003613	-0.922799	0.176363
F311	F	0.329720	-0.589466	0.509697
F312	F	0.663054	-0.256132	0.843030
F313	F	0.132422	-0.725319	0.340004
F314	F	0.465755	-0.391986	0.673338
F315	F	0.799089	-0.058653	1.006671
F316	F	0.132419	-0.725298	0.176418
F317	F	0.465752	-0.391965	0.509751
F318	F	0.799086	-0.058631	0.843085
H319	H	0.145923	-0.464051	-0.000216
H320	H	0.479256	-0.130718	0.333117
H321	H	0.812590	0.202616	0.666451
F322	F	-0.003609	-0.922840	0.659546
F323	F	0.329725	-0.589506	0.992880
F324	F	0.663058	-0.256173	1.326213
F325	F	-0.581300	-1.017302	-0.000301
F326	F	-0.247967	-0.683968	0.333032
F327	F	0.085366	-0.350635	0.666366
F328	F	-0.028031	-0.195402	-0.000241
F329	F	0.305303	0.137932	0.333092
F330	F	0.638636	0.471265	0.666426
F331	F	-0.289877	-0.630849	-0.000215
F332	F	0.043457	-0.297515	0.333118
F333	F	0.376790	0.035818	0.666451
F334	F	-0.003611	-0.922841	0.823127
F335	F	0.329722	-0.589507	1.156461
F336	F	0.663056	-0.256174	1.489794
F337	F	-0.430042	-1.019532	-0.000286
F338	F	-0.096709	-0.686198	0.333047
F339	F	0.236625	-0.352865	0.666381
H340	H	-0.018456	-0.051991	-0.000319
H341	H	0.314877	0.281342	0.333014
H342	H	0.648210	0.614675	0.666347
F343	F	-0.703260	-0.951766	-0.000274
F344	F	-0.369926	-0.618433	0.333059
F345	F	-0.036593	-0.285100	0.666392
H346	H	-0.012580	-0.628083	-0.000150
H347	H	0.320753	-0.294750	0.333184
H348	H	0.654087	0.038583	0.666517
H349	H	-0.686720	-0.704714	-0.000229
H350	H	-0.353387	-0.371381	0.333104
H351	H	-0.020054	-0.038048	0.666437
H352	H	0.141392	-0.020068	-0.000294
H353	H	0.474725	0.313265	0.333039
H354	H	0.808059	0.646598	0.666372
H355	H	-0.389107	-0.645328	-0.000221
H356	H	-0.055774	-0.311995	0.333112
H357	H	0.277559	0.021338	0.666446
F358	F	-0.167932	-0.696388	-0.000175
F359	F	0.165402	-0.363055	0.333158
F360	F	0.498735	-0.029722	0.666492
H361	H	-0.482059	-1.002826	-0.000289
H362	H	-0.148725	-0.669493	0.333045
H363	H	0.184608	-0.336159	0.666378
F364	F	-0.063854	-0.697922	-0.000175
F365	F	0.269480	-0.364588	0.333158
F366	F	0.602813	-0.031255	0.666492
H367	H	-0.448908	-0.644461	-0.000210
H368	H	-0.115575	-0.311128	0.333123
H369	H	0.217758	0.022205	0.666457
F370	F	-0.545190	-0.627105	-0.000213
F371	F	-0.211857	-0.293771	0.333121
F372	F	0.121477	0.039562	0.666454
