data_functionalizedCrystal
_audit_creation_method	'MofGen! by Chris Wilmer'
_symmetry_space_group_name_H-M	'P1'
_symmetry_Int_Tables_number	1
_symmetry_cell_setting	triclinic
loop_
_symmetry_equiv_pos_as_xyz
  x,y,z
_cell_length_a	19.188933
_cell_length_b	19.188930
_cell_length_c	10.268362
_cell_angle_alpha	90.006464
_cell_angle_beta	90.003185
_cell_angle_gamma	83.145175
loop_
_atom_site_label
_atom_site_type_symbol
_atom_site_fract_x
_atom_site_fract_y
_atom_site_fract_z
O1	O	0.926144	0.087171	0.108271
O2	O	1.426144	0.587171	0.608271
O3	O	0.722833	0.098903	0.108285
O4	O	1.222833	0.598903	0.608285
O5	O	0.830356	-0.008619	0.108253
O6	O	1.330356	0.491381	0.608253
O7	O	0.818622	0.194693	0.108304
O8	O	1.318622	0.694693	0.608304
O9	O	0.830346	-0.008615	-0.108348
O10	O	1.330346	0.491385	0.391652
O11	O	0.722823	0.098907	-0.108315
O12	O	1.222823	0.598907	0.391685
O13	O	0.926134	0.087174	-0.108329
O14	O	1.426134	0.587174	0.391671
Cu15	Cu	0.824478	0.093041	-0.128100
Cu16	Cu	1.324478	0.593041	0.371900
Cu17	Cu	0.824490	0.093037	0.128056
Cu18	Cu	1.324490	0.593037	0.628056
O19	O	0.818611	0.194696	-0.108296
O20	O	1.318611	0.694696	0.391704
C21	C	0.696817	0.098525	-0.000013
C22	C	1.196817	0.598525	0.499987
C23	C	0.619313	0.097384	-0.000009
C24	C	1.119313	0.597384	0.499991
C25	C	0.066063	0.089237	0.118044
C26	C	0.566063	0.589237	0.618044
C27	C	0.138887	0.090305	0.118049
C28	C	0.638887	0.590305	0.618049
C29	C	0.175299	0.090844	-0.000019
C30	C	0.675299	0.590844	0.499981
C31	C	0.138882	0.090297	-0.118102
C32	C	0.638882	0.590297	0.381898
C33	C	0.066060	0.089222	-0.118104
C34	C	0.566060	0.589222	0.381896
N35	N	0.284314	0.132264	-0.087893
N36	N	0.784314	0.632264	0.412107
N37	N	0.353492	0.133287	-0.087883
N38	N	0.853492	0.633287	0.412117
C39	C	0.394707	0.094082	-0.000021
C40	C	0.894707	0.594082	0.499979
N41	N	0.364130	0.053824	0.087851
N42	N	0.864130	0.553824	0.587851
N43	N	0.294946	0.052804	0.087845
N44	N	0.794946	0.552804	0.587845
C45	C	0.254262	0.092009	-0.000030
C46	C	0.754262	0.592009	0.499970
C47	C	0.510080	0.095782	0.118060
C48	C	1.010080	0.595782	0.618060
C49	C	0.582906	0.096846	0.118060
C50	C	1.082906	0.596846	0.618060
C51	C	0.582899	0.096845	-0.118094
C52	C	1.082899	0.596845	0.381906
C53	C	0.510075	0.095774	-0.118091
C54	C	1.010075	0.595774	0.381909
C55	C	0.473669	0.095246	-0.000010
C56	C	0.973669	0.595246	0.499990
C57	C	0.829971	-0.034628	-0.000051
C58	C	1.329971	0.465372	0.499949
C59	C	0.828830	-0.112132	-0.000063
C60	C	1.328830	0.387868	0.499937
C61	C	0.891921	-0.157056	-0.000073
C62	C	1.391921	0.342944	0.499927
C63	C	0.890849	-0.229880	-0.000052
C64	C	1.390849	0.270120	0.499948
C65	C	0.826683	-0.257777	-0.000047
C66	C	1.326683	0.242223	0.499953
C67	C	0.763584	-0.212843	-0.000029
C68	C	1.263584	0.287157	0.499971
C69	C	0.764658	-0.140021	-0.000037
C70	C	1.264658	0.359979	0.499963
N71	N	0.777632	-0.365781	-0.073757
N72	N	1.277632	0.134219	0.426243
N73	N	0.776617	-0.434959	-0.073752
N74	N	1.276617	0.065041	0.426248
C75	C	0.823445	-0.477185	-0.000020
C76	C	1.323445	0.022815	0.499980
N77	N	0.871338	-0.447621	0.073690
N78	N	1.371338	0.052379	0.573690
N79	N	0.872355	-0.378436	0.073680
N80	N	1.372355	0.121564	0.573680
C81	C	0.825512	-0.336739	-0.000037
C82	C	1.325512	0.163261	0.499963
C83	C	0.885378	-0.601073	-0.000006
C84	C	1.385378	-0.101073	0.499994
C85	C	0.884304	-0.673898	0.000023
C86	C	1.384304	-0.173898	0.500023
C87	C	0.757037	-0.656860	0.000033
C88	C	1.257037	-0.156860	0.500033
C89	C	0.758113	-0.584037	0.000017
C90	C	1.258113	-0.084037	0.500017
C91	C	0.822286	-0.556148	-0.000009
C92	C	1.322286	-0.056148	0.499991
C93	C	0.952150	0.087553	-0.000027
C94	C	1.452150	0.587553	0.499973
C95	C	1.029655	0.088694	-0.000023
C96	C	1.529655	0.588694	0.499977
C97	C	0.818997	0.220705	0.000011
C98	C	1.318997	0.720705	0.500011
C99	C	0.820137	0.298210	0.000030
C100	C	1.320137	0.798210	0.500030
N101	N	0.824474	0.093044	-0.308265
N102	N	1.324474	0.593044	0.191735
C103	C	0.824479	0.093044	-0.426108
C104	C	1.324479	0.593044	0.073892
C105	C	0.824488	0.093038	-0.573946
C106	C	1.324488	0.593038	-0.073946
N107	N	0.824499	0.093028	0.308222
N108	N	1.324499	0.593028	0.808222
H109	H	0.944175	-0.134354	-0.000090
H110	H	1.444175	0.365646	0.499910
H111	H	0.704792	-0.679573	0.000044
H112	H	1.204792	-0.179573	0.500044
C113	C	0.470031	0.095204	0.247940
C114	C	0.970031	0.595204	0.747940
H115	H	0.502148	0.095673	0.318260
H116	H	1.002148	0.595673	0.818260
H117	H	0.436179	0.135495	0.252845
H118	H	0.936179	0.635495	0.752845
H119	H	0.447067	0.054078	0.252851
H120	H	0.947067	0.554078	0.752851
C121	C	0.688712	-0.534619	0.000007
C122	C	1.188712	-0.034619	0.500007
H123	H	0.650343	-0.561661	0.000001
H124	H	1.150343	-0.061661	0.500001
H125	H	0.686487	-0.505848	0.075534
H126	H	1.186487	-0.005848	0.575534
H127	H	0.686485	-0.505867	-0.075543
H128	H	1.186485	-0.005867	0.424457
H129	H	0.935682	-0.710475	0.000021
H130	H	1.435682	-0.210475	0.500021
H131	H	0.036427	0.088804	0.214194
H132	H	0.536427	0.588804	0.714194
C133	C	0.960252	-0.279304	-0.000073
C134	C	1.460252	0.220696	0.499927
H135	H	0.998623	-0.252265	-0.000098
H136	H	1.498623	0.247735	0.499902
H137	H	0.962486	-0.308064	0.075459
H138	H	1.462486	0.191936	0.575459
H139	H	0.962466	-0.308068	-0.075618
H140	H	1.462466	0.191932	0.424382
H141	H	0.480431	0.095335	-0.214234
H142	H	0.980431	0.595335	0.285766
H143	H	0.713280	-0.103444	-0.000029
H144	H	1.213280	0.396556	0.499971
C145	C	0.178944	0.090911	0.247927
C146	C	0.678944	0.590911	0.747927
H147	H	0.146831	0.090447	0.318250
H148	H	0.646831	0.590447	0.818250
H149	H	0.212805	0.050628	0.252842
H150	H	0.712805	0.550628	0.752842
H151	H	0.201896	0.132045	0.252824
H152	H	0.701896	0.632045	0.752824
H153	H	0.937631	-0.578365	-0.000021
H154	H	1.437631	-0.078365	0.499979
H155	H	0.168533	0.090735	-0.214234
H156	H	0.668533	0.590735	0.285766
H157	H	0.711340	-0.235562	-0.000022
H158	H	1.211340	0.264438	0.499978
H159	H	0.036417	0.088783	-0.214251
H160	H	0.536417	0.588783	0.285749
C161	C	0.622958	0.097447	0.247938
C162	C	1.122958	0.597447	0.747938
H163	H	0.671544	0.098156	0.231030
H164	H	1.171544	0.598156	0.731030
H165	H	0.605575	0.137981	0.296447
H166	H	1.105575	0.637981	0.796447
H167	H	0.616474	0.056564	0.296454
H168	H	1.116474	0.556564	0.796454
C169	C	0.622942	0.097438	-0.247967
C170	C	1.122942	0.597438	0.252033
H171	H	0.671527	0.098160	-0.231058
H172	H	1.171527	0.598160	0.268942
H173	H	0.616455	0.056557	-0.296491
H174	H	1.116455	0.556557	0.203509
H175	H	0.605557	0.137974	-0.296471
H176	H	1.105557	0.637974	0.203529
