data_functionalizedCrystal
_audit_creation_method	'MofGen! by Chris Wilmer'
_symmetry_space_group_name_H-M	'P1'
_symmetry_Int_Tables_number	1
_symmetry_cell_setting	triclinic
loop_
_symmetry_equiv_pos_as_xyz
  x,y,z
_cell_length_a	20.919309
_cell_length_b	14.446369
_cell_length_c	14.446369
_cell_angle_alpha	60.000250
_cell_angle_beta	90.000599
_cell_angle_gamma	57.442498
loop_
_atom_site_label
_atom_site_type_symbol
_atom_site_fract_x
_atom_site_fract_y
_atom_site_fract_z
Zr1	Zr	0.641770	0.940909	-0.085371
O2	O	0.535401	1.146008	-0.239172
O3	O	0.674378	0.744118	-0.038216
O4	O	0.674379	0.937226	-0.231335
O5	O	0.535399	0.952908	0.106276
O6	O	0.784009	0.924871	-0.225160
O7	O	0.535399	0.952899	-0.046053
O8	O	0.784006	0.579435	0.120295
O9	O	0.535402	1.298343	-0.239179
O10	O	0.770101	0.812764	-0.013504
O11	O	0.688285	0.821990	0.095569
O12	O	0.688287	1.049350	-0.131804
O13	O	0.606471	1.058577	-0.022731
Zr14	Zr	0.816617	0.921217	0.167425
Zr15	Zr	0.816617	0.921204	-0.075522
Zr16	Zr	0.641770	0.940922	0.157576
Zr17	Zr	0.641772	1.183867	-0.085382
Zr18	Zr	0.816615	0.678260	0.167436
O19	O	0.784009	1.118009	0.120270
O20	O	0.784010	1.117990	-0.225169
O21	O	0.535400	1.146027	0.106267
O22	O	0.922986	0.716119	0.321227
O23	O	0.922987	0.716100	-0.024213
O24	O	0.674377	0.744137	0.307223
O25	O	0.922988	0.909219	-0.024221
O26	O	0.784008	0.924901	0.313389
O27	O	0.674378	0.937256	0.307214
O28	O	0.922988	0.909227	0.128107
O29	O	0.674381	1.282681	-0.231351
O30	O	0.784006	0.579446	0.313405
O31	O	0.922985	0.563783	0.321233
O32	O	0.922986	0.563773	0.128123
O33	O	0.535401	1.298354	-0.046069
O34	O	0.674381	1.282691	-0.038241
O35	O	0.770100	0.812776	0.213858
O36	O	0.851916	0.803549	0.104786
O37	O	0.770102	1.040136	-0.013514
O38	O	0.688287	1.049363	0.095558
C39	C	0.729192	0.627160	0.041041
C40	C	0.729191	0.524018	0.041046
C41	C	0.677837	0.382800	0.110180
C42	C	0.677558	0.490451	0.109873
C43	C	0.691549	0.577250	-0.084610
C44	C	0.691163	0.470060	-0.084257
C45	C	0.818223	0.280529	0.096505
C46	C	0.818092	0.386695	0.099019
C47	C	0.510487	0.955711	0.028708
C48	C	0.436260	0.964076	0.024527
C49	C	0.444092	0.844513	0.084308
C50	C	0.374345	0.852382	0.080377
C51	C	0.296767	0.979814	0.016657
C52	C	0.288937	1.099385	-0.043126
C53	C	0.358683	1.091516	-0.039187
C54	C	0.084043	1.009753	0.001683
C55	C	0.014295	1.017613	-0.002254
C56	C	0.099708	0.770608	0.121251
C57	C	0.169452	0.762750	0.125178
C58	C	0.161616	0.882322	0.065400
C59	C	0.225474	0.987859	0.012635
C60	C	0.232908	0.874275	0.069430
C61	C	0.947900	0.906415	0.053346
C62	C	1.022127	0.898050	0.057527
C63	C	0.729194	0.931047	-0.262862
C64	C	0.729194	0.931041	-0.366000
C65	C	0.729195	1.234966	0.041013
C66	C	0.729196	1.338108	0.041009
C67	C	0.781051	0.781812	-0.438054
C68	C	0.780826	0.781740	-0.330738
C69	C	0.640296	1.012287	-0.445570
C70	C	0.640580	1.011345	-0.552413
C71	C	0.765517	1.000218	-0.546949
C72	C	0.767316	0.997313	-0.438176
C73	C	0.729193	0.931080	0.344917
C74	C	0.729193	0.931086	0.448054
C75	C	0.947898	0.602512	0.053360
C76	C	1.022124	0.491005	0.057546
C77	C	0.729191	0.627177	0.344930
C78	C	0.729190	0.524041	0.448072
C79	C	0.947898	0.602529	0.357250
C80	C	1.022124	0.491028	0.464572
C81	C	0.510489	1.259597	-0.275195
C82	C	0.436263	1.371099	-0.382518
C83	C	0.510489	1.259614	0.028694
C84	C	0.436263	1.371121	0.024508
C85	C	0.729196	1.234950	-0.262876
C86	C	0.729197	1.338086	-0.366018
C87	C	1.014275	0.443450	-0.002245
C88	C	1.084012	0.338691	0.001665
C89	C	1.161597	0.281483	0.065373
C90	C	1.169445	0.329048	0.125165
C91	C	1.099709	0.433812	0.121248
C92	C	1.099695	0.433848	0.458038
C93	C	1.169445	0.329094	0.558870
C94	C	1.161622	0.281513	0.666236
C95	C	1.084042	0.338703	0.672768
C96	C	1.014294	0.443463	0.571937
C97	C	0.358692	1.428290	-0.375984
C98	C	0.288942	1.533075	-0.476816
C99	C	0.296765	1.580660	-0.584182
C100	C	0.374345	1.523464	-0.590714
C101	C	0.444093	1.418688	-0.489882
C102	C	0.444112	1.418687	0.084289
C103	C	0.374375	1.523472	0.080352
C104	C	0.296790	1.580684	0.016641
C105	C	0.288943	1.533114	-0.043146
C106	C	0.358678	1.428337	-0.039216
C107	C	0.677339	0.383570	0.520141
C108	C	0.677559	0.490466	0.412820
C109	C	0.818090	0.387169	0.527639
C110	C	0.817811	0.279825	0.634487
C111	C	0.692875	0.468878	0.629028
C112	C	0.691072	0.577551	0.520250
H113	H	0.702808	0.450901	0.202262
C114	C	0.721608	1.143869	-0.475221
H115	H	0.745941	1.181341	-0.518634
H116	H	0.666082	1.198124	-0.520960
H117	H	0.724616	1.142550	-0.408908
H118	H	0.352276	1.389613	-0.087894
H119	H	0.507280	1.372113	0.136177
H120	H	1.077606	0.299978	-0.047025
C121	C	0.382963	0.720862	0.146126
H122	H	0.439154	0.643842	0.184625
H123	H	0.357532	0.718787	0.200850
H124	H	0.357530	0.718806	0.093456
C125	C	0.589126	0.621123	0.334503
H126	H	0.552742	0.609197	0.368141
H127	H	0.582681	0.695718	0.325713
H128	H	0.577391	0.639040	0.261336
C129	C	1.238299	0.166235	0.069684
H130	H	1.222505	0.146104	0.024957
H131	H	1.269858	0.194425	0.039690
H132	H	1.269846	0.087059	0.147072
C133	C	0.383018	1.575784	0.146120
H134	H	0.330378	1.646394	0.134647
H135	H	0.411993	1.502949	0.225825
H136	H	0.412006	1.610310	0.118439
H137	H	1.232624	0.282454	0.177034
C138	C	0.711564	0.436047	0.342048
H139	H	0.725310	0.348438	0.378861
H140	H	0.671455	0.496694	0.267192
H141	H	0.758914	0.429416	0.336439
C142	C	0.928940	0.506368	-0.072335
H143	H	0.934265	0.463040	-0.107389
H144	H	0.899953	0.493753	-0.022755
H145	H	0.899963	0.601131	-0.130127
C146	C	1.238347	0.166282	0.777144
H147	H	1.222584	0.146135	0.842029
H148	H	1.269900	0.087119	0.778924
H149	H	1.269888	0.194521	0.778906
H150	H	0.599980	1.122328	-0.475076
C151	C	0.220088	1.695931	0.012331
H152	H	0.235882	1.716049	0.057070
H153	H	0.188533	1.775104	-0.065050
H154	H	0.188536	1.667721	0.042340
H155	H	1.106111	0.472517	0.169944
H156	H	0.232616	0.658981	0.177043
H157	H	1.106081	0.472572	0.370625
C158	C	0.588683	0.443830	0.512000
H159	H	0.582499	0.441817	0.577985
H160	H	0.552736	0.535419	0.444897
H161	H	0.576126	0.391395	0.508127
H162	H	0.612555	0.425918	0.071798
C163	C	0.736734	0.615944	0.557201
H164	H	0.712388	0.647963	0.600588
H165	H	0.792273	0.537980	0.602933
H166	H	0.733682	0.685639	0.490838
H167	H	0.106079	0.673260	0.169919
H168	H	0.856669	0.250219	0.046432
H169	H	1.232608	0.282540	0.553532
C170	C	0.860692	0.149159	0.219922
H171	H	0.824520	0.128197	0.238758
H172	H	0.908315	0.076038	0.225092
H173	H	0.875422	0.162214	0.272063
H174	H	1.077685	0.299948	0.760199
H175	H	0.077652	1.107116	-0.047013
C176	C	0.872848	0.233148	0.743745
H177	H	0.895284	0.279804	0.722693
H178	H	0.841488	0.253166	0.787953
H179	H	0.915741	0.137669	0.787982
H180	H	0.951134	0.490006	0.577273
C181	C	0.711755	0.258933	0.235282
H182	H	0.757539	0.178847	0.246452
H183	H	0.727926	0.272240	0.286137
H184	H	0.670724	0.249274	0.250431
C185	C	0.350070	1.375979	-0.257895
H186	H	0.293877	1.425072	-0.268461
H187	H	0.375493	1.281623	-0.216178
H188	H	0.375506	1.389009	-0.216202
C189	C	0.203615	1.595960	-0.469611
H190	H	0.208952	1.552591	-0.391224
H191	H	0.174628	1.690717	-0.506564
H192	H	0.174631	1.583340	-0.506582
C193	C	0.857122	0.152771	0.636372
H194	H	0.857312	0.086169	0.701570
H195	H	0.826733	0.177487	0.568337
H196	H	0.911594	0.116254	0.640396
H197	H	-0.048874	1.121389	-0.054147
C198	C	0.872559	0.411078	0.567487
H199	H	0.841493	0.504973	0.535872
H200	H	0.892759	0.358105	0.649031
H201	H	0.917024	0.384929	0.542117
C202	C	0.203599	1.596042	-0.113215
H203	H	0.208903	1.552719	-0.148266
H204	H	0.174625	1.583427	-0.063613
H205	H	0.174619	1.690806	-0.171009
C206	C	0.857650	0.330605	0.460165
H207	H	0.820130	0.390185	0.383529
H208	H	0.905334	0.323941	0.459251
H209	H	0.871878	0.242792	0.496080
C210	C	0.605777	0.532158	0.629678
H211	H	0.590751	0.479426	0.633004
H212	H	0.603989	0.533276	0.694840
H213	H	0.568852	0.622808	0.561567
H214	H	0.239965	1.665976	-0.666276
H215	H	0.859583	0.403519	0.054327
H216	H	0.225767	1.203143	-0.095001
H217	H	0.380705	1.562221	-0.678143
C218	C	0.602598	0.709770	0.445803
H219	H	0.588941	0.732284	0.371042
H220	H	0.566697	0.696770	0.479998
H221	H	0.597579	0.781843	0.440418
H222	H	0.352301	1.188877	-0.087853
H223	H	0.507256	0.740744	0.136201
C224	C	0.743654	0.429684	0.737544
H225	H	0.721415	0.509106	0.734022
H226	H	0.742438	0.366375	0.803762
H227	H	0.798442	0.389402	0.741783
C228	C	0.588849	0.620426	0.057572
H229	H	0.552842	0.607569	0.036419
H230	H	0.576974	0.638668	0.112608
H231	H	0.581998	0.695232	-0.008603
H232	H	0.625651	0.518139	-0.128360
H233	H	0.726155	0.444145	-0.138897
C234	C	0.856091	0.328912	0.224103
H235	H	0.909863	0.245842	0.258710
H236	H	0.857932	0.392799	0.224904
H237	H	0.823921	0.312427	0.265872
H238	H	0.507253	1.372123	-0.495216
H239	H	0.611501	0.964003	-0.553779
H240	H	0.727159	0.602019	-0.138619
C241	C	0.600732	0.949913	-0.378096
H242	H	0.638251	0.874384	-0.301457
H243	H	0.553048	1.016658	-0.377188
H244	H	0.586506	0.920185	-0.414006
H245	H	0.626663	0.676867	-0.128953
C246	C	0.140140	1.128030	-0.057457
H247	H	0.145460	1.198119	-0.092496
H248	H	0.111157	1.136227	-0.115242
H249	H	0.111162	1.136227	-0.007858
H250	H	0.296075	0.770520	0.121315
H251	H	0.846288	0.718479	-0.272775
C252	C	0.869712	0.695760	-0.429896
H253	H	0.875900	0.750091	-0.495877
H254	H	0.905648	0.664238	-0.362791
H255	H	0.882283	0.619868	-0.426014
H256	H	0.755634	0.728331	-0.278369
C257	C	0.585535	1.159699	-0.661675
H258	H	0.563094	1.220276	-0.640629
H259	H	0.616888	1.175060	-0.705892
H260	H	0.542646	1.175290	-0.705901
C261	C	0.852616	0.928404	-0.547596
H262	H	0.873407	0.971692	-0.544537
H263	H	0.886656	0.835364	-0.482696
H264	H	0.851515	0.933865	-0.615969
C265	C	0.855790	0.917191	-0.363729
H266	H	0.869446	0.843661	-0.288968
H267	H	0.891689	0.882429	-0.397924
H268	H	0.860814	0.976053	-0.358344
H269	H	0.756087	0.728611	-0.438424
H270	H	0.727912	1.110127	-0.627271
H271	H	0.702301	0.291090	0.520515
