data_functionalizedCrystal
_audit_creation_method	'MofGen! by Chris Wilmer'
_symmetry_space_group_name_H-M	'P1'
_symmetry_Int_Tables_number	1
_symmetry_cell_setting	triclinic
loop_
_symmetry_equiv_pos_as_xyz
  x,y,z
_cell_length_a	19.121102
_cell_length_b	19.121063
_cell_length_c	18.101389
_cell_angle_alpha	92.419391
_cell_angle_beta	87.542698
_cell_angle_gamma	90.126902
loop_
_atom_site_label
_atom_site_type_symbol
_atom_site_fract_x
_atom_site_fract_y
_atom_site_fract_z
Zn1	Zn	1.059843	-0.324984	-0.480945
Zn2	Zn	1.054751	-0.442202	-0.362140
Zn3	Zn	0.942607	-0.319976	-0.351626
Zn4	Zn	0.937568	-0.437174	-0.480449
O5	O	0.998692	-0.381084	-0.418790
O6	O	1.157272	-0.344733	-0.469793
O7	O	1.039852	-0.425997	-0.257111
O8	O	0.962399	-0.222536	-0.364588
O9	O	1.153531	-0.430853	-0.382507
O10	O	1.048531	-0.226215	-0.459598
O11	O	0.957461	-0.336198	-0.249387
O12	O	0.843834	-0.331322	-0.364107
O13	O	0.953810	-0.422283	-0.584149
O14	O	0.840131	-0.417427	-0.458753
O15	O	1.043645	-0.339857	-0.584513
O16	O	1.034966	-0.539639	-0.382026
O17	O	0.948872	-0.535945	-0.468948
C18	C	0.816545	-0.373286	-0.410236
C19	C	0.738621	-0.369967	-0.406594
C20	C	0.700100	-0.413306	-0.454090
C21	C	0.626882	-0.410178	-0.450671
C22	C	0.592187	-0.363714	-0.399754
C23	C	0.630713	-0.320371	-0.352257
C24	C	0.703930	-0.323496	-0.355679
C25	C	0.371217	-0.352030	-0.386963
C26	C	0.297995	-0.348910	-0.383543
C27	C	0.294169	-0.438716	-0.481958
C28	C	0.367387	-0.441840	-0.485373
C29	C	0.405907	-0.398494	-0.437879
C30	C	0.517347	-0.360518	-0.396257
C31	C	0.480746	-0.401688	-0.441379
C32	C	0.990839	-0.563230	-0.426591
C33	C	0.987543	-0.641156	-0.429956
C34	C	1.030854	-0.679667	-0.386323
C35	C	1.027759	-0.752887	-0.389492
C36	C	0.981349	-0.787594	-0.436292
C37	C	0.938036	-0.749077	-0.479931
C38	C	0.941135	-0.675859	-0.476764
C39	C	0.969750	-1.008570	-0.448117
C40	C	0.966652	-1.081793	-0.451279
C41	C	1.056376	-1.085598	-0.360841
C42	C	1.059469	-1.012378	-0.357676
C43	C	1.016159	-0.973868	-0.401317
C44	C	0.978182	-0.862436	-0.439531
C45	C	1.019329	-0.899028	-0.398081
C46	C	1.181551	-0.388913	-0.427378
C47	C	1.259474	-0.392249	-0.431038
C48	C	0.998733	-0.381068	-0.611953
C49	C	0.998751	-0.381061	-0.694268
C50	C	1.006595	-0.198227	-0.410975
C51	C	1.009963	-0.120304	-0.407645
C52	C	0.998797	-0.380931	-0.993355
C53	C	0.942096	-0.432611	-0.961784
C54	C	0.942233	-0.432868	-0.876184
C55	C	0.998774	-0.380996	-0.844974
C56	C	1.071783	-0.404207	-0.880395
C57	C	1.071465	-0.404548	-0.966041
C58	C	0.983136	-0.305948	-0.957710
C59	C	0.981475	-0.306306	-0.872000
C60	C	0.998765	-0.381031	-0.761116
C61	C	0.998811	-0.380898	-1.077214
C62	C	0.998694	-0.381051	-0.226378
C63	C	0.998820	-0.380866	-0.144062
H64	H	0.508998	-0.439515	-0.482839
H65	H	1.085729	-0.458550	-0.862019
N66	N	0.735537	-0.460758	-0.506111
N67	N	0.777469	-0.437900	-0.554203
H68	H	0.802495	-0.471413	-0.590947
H69	H	0.928868	-1.110049	-0.489402
N70	N	0.925506	-0.969250	-0.492699
N71	N	0.884071	-1.000249	-0.534478
H72	H	0.852821	-0.972478	-0.565966
H73	H	0.900251	-0.777341	-0.518039
N74	N	0.254811	-0.482986	-0.530463
N75	N	0.189440	-0.480194	-0.527403
H76	H	0.161642	-0.511460	-0.561662
N77	N	1.071996	-0.792241	-0.344932
N78	N	1.114928	-0.834955	-0.374892
H79	H	1.146172	-0.862752	-0.343422
N80	N	0.262564	-0.301442	-0.331524
N81	N	0.296964	-0.262744	-0.289124
H82	H	0.271942	-0.229222	-0.252387
H83	H	0.402571	-0.316740	-0.348284
N84	N	0.896894	-0.636529	-0.521345
N85	N	0.855460	-0.667524	-0.563130
H86	H	0.824215	-0.639748	-0.594620
H87	H	0.602459	-0.282537	-0.310802
H88	H	1.057119	-0.870767	-0.359980
N89	N	0.402830	-0.489308	-0.537373
N90	N	0.441746	-0.535689	-0.515050
H91	H	0.466777	-0.569220	-0.551771
N92	N	1.034980	-0.257589	-0.983309
N93	N	1.017253	-0.205660	-1.017794
H94	H	1.053869	-0.171510	-1.035877
N95	N	0.930772	-0.897902	-0.487320
N96	N	0.884390	-0.936905	-0.460890
H97	H	0.850907	-0.961957	-0.494641
N98	N	1.088564	-0.473432	-0.994975
N99	N	1.046120	-0.506764	-1.033600
H100	H	1.058194	-0.555416	-1.054030
H101	H	1.114974	-0.368712	-0.987123
N102	N	0.873837	-0.414077	-0.983702
N103	N	0.848999	-0.355169	-0.965296
H104	H	0.800790	-0.342077	-0.980780
N105	N	1.126028	-0.358640	-0.855256
N106	N	1.111448	-0.308431	-0.810846
H107	H	1.149758	-0.276247	-0.793090
N108	N	0.743270	-0.279215	-0.307166
N109	N	0.712286	-0.237730	-0.261710
H110	H	0.740069	-0.206451	-0.227448
H111	H	0.489090	-0.322689	-0.354799
N112	N	1.078260	-0.644229	-0.338507
N113	N	1.116927	-0.678627	-0.299552
H114	H	1.150410	-0.653601	-0.265781
H115	H	0.952071	-0.487785	-0.986235
H116	H	0.930990	-0.285415	-0.976036
N117	N	0.914091	-0.284426	-0.842490
N118	N	0.878901	-0.323654	-0.801700
H119	H	0.831311	-0.308204	-0.780855
N120	N	1.106878	-0.976939	-0.309864
N121	N	1.145545	-1.011333	-0.270907
H122	H	1.179027	-0.986305	-0.237137
N123	N	0.874190	-0.414185	-0.845916
N124	N	0.826269	-0.400866	-0.888012
H125	H	0.778209	-0.387674	-0.866640
N126	N	0.954907	-0.502509	-0.854190
N127	N	0.963685	-0.551073	-0.902088
H128	H	0.972637	-0.600260	-0.886557
H129	H	0.595521	-0.445469	-0.489346
N130	N	1.029812	-0.255121	-0.845025
N131	N	1.035255	-0.244421	-0.776912
H132	H	1.069398	-0.208275	-0.757857
N133	N	1.100608	-1.124946	-0.316269
N134	N	1.097836	-1.190318	-0.319099
H135	H	1.129078	-1.218109	-0.287619
