data_functionalizedCrystal
_audit_creation_method	'MofGen! by Chris Wilmer'
_symmetry_space_group_name_H-M	'P1'
_symmetry_Int_Tables_number	1
_symmetry_cell_setting	triclinic
loop_
_symmetry_equiv_pos_as_xyz
  x,y,z
_cell_length_a	20.875492
_cell_length_b	14.395555
_cell_length_c	20.875625
_cell_angle_alpha	92.973129
_cell_angle_beta	60.168684
_cell_angle_gamma	58.317190
loop_
_atom_site_label
_atom_site_type_symbol
_atom_site_fract_x
_atom_site_fract_y
_atom_site_fract_z
Zr1	Zr	0.740613	0.829998	-0.122721
O2	O	0.881783	0.662798	-0.232502
O3	O	0.599448	0.888998	-0.083968
O4	O	0.740614	0.867768	-0.225142
O5	O	0.740615	0.691964	0.014233
O6	O	0.740609	1.020643	-0.225136
O7	O	0.740617	0.684028	-0.091328
O8	O	0.488089	1.058618	0.027398
O9	O	0.993134	0.653989	-0.238302
O10	O	0.657506	1.018893	-0.073596
O11	O	0.657508	0.910727	0.005178
O12	O	0.823712	0.885733	-0.161036
O13	O	0.823714	0.777567	-0.082262
Zr14	Zr	0.740601	1.086474	0.045646
Zr15	Zr	0.740605	1.073816	-0.122711
Zr16	Zr	0.740609	0.842656	0.045637
Zr17	Zr	0.918206	0.815949	-0.131971
Zr18	Zr	0.563009	1.100524	0.054896
O19	O	0.881766	1.027475	0.006894
O20	O	0.881771	1.009476	-0.232489
O21	O	0.881778	0.680797	0.006880
O22	O	0.599432	1.253674	0.155428
O23	O	0.599437	1.235675	-0.083955
O24	O	0.599443	0.906996	0.155414
O25	O	0.740600	1.224508	-0.091307
O26	O	0.740601	1.048704	0.148068
O27	O	0.740606	0.895829	0.148062
O28	O	0.740597	1.232445	0.014254
O29	O	0.993128	0.847792	-0.238294
O30	O	0.488086	1.068680	0.161220
O31	O	0.488080	1.262483	0.161227
O32	O	0.488083	1.252421	0.027406
O33	O	0.993132	0.664051	-0.104480
O34	O	0.993125	0.857854	-0.104473
O35	O	0.657502	1.030739	0.083962
O36	O	0.657500	1.138905	0.005187
O37	O	0.823707	1.005745	-0.082253
O38	O	0.823709	0.897579	-0.003478
C39	C	0.518466	0.975810	-0.026967
C40	C	0.443073	0.981774	-0.023040
C41	C	0.469023	0.891125	-0.082561
C42	C	0.398197	0.896729	-0.078900
C43	C	0.301421	0.992979	-0.015713
C44	C	0.275471	1.083637	0.043811
C45	C	0.346296	1.078036	0.040146
C46	C	0.083017	1.019755	0.001825
C47	C	0.012191	1.025348	0.005487
C48	C	0.134923	0.838440	-0.117226
C49	C	0.205744	0.832843	-0.120882
C50	C	0.179788	0.923505	-0.061360
N51	N	0.229023	0.998708	-0.011968
N52	N	0.252185	0.917779	-0.065110
C53	C	0.740617	0.653257	-0.038549
C54	C	0.740621	0.549750	-0.038553
C55	C	0.831244	0.416557	-0.086222
C56	C	0.785942	0.386965	-0.114988
C57	C	0.785919	0.394919	-0.009792
C58	C	0.695319	0.521518	-0.067362
C59	C	0.695308	0.529471	0.037874
C60	C	0.649940	0.499959	0.009130
C61	C	0.962749	0.940663	-0.050107
C62	C	1.038142	0.934698	-0.054034
C63	C	0.740612	0.942402	-0.249127
C64	C	0.740613	0.937029	-0.320599
C65	C	0.740597	1.263215	-0.038525
C66	C	0.740594	1.366722	-0.038522
C67	C	0.740612	1.018723	-0.354173
C68	C	0.740605	1.013678	-0.421324
C69	C	0.740606	0.926931	-0.454904
C70	C	0.740604	0.845233	-0.421323
C71	C	0.740605	0.850285	-0.354169
C72	C	0.740600	0.902797	-0.655741
C73	C	0.740602	0.897749	-0.722901
C74	C	0.740601	1.066196	-0.722897
C75	C	0.740607	1.071236	-0.655745
C76	C	0.740600	0.989541	-0.622168
N77	N	0.740602	0.921770	-0.523544
N78	N	0.740598	0.994709	-0.553525
C79	C	0.740603	0.974070	0.172052
C80	C	0.740601	0.979444	0.243524
C81	C	0.518456	1.280789	-0.026955
C82	C	0.443059	1.390260	-0.023024
C83	C	0.518461	0.991643	0.183622
C84	C	0.443067	1.002981	0.259021
C85	C	0.518451	1.296622	0.183634
C86	C	0.443053	1.411467	0.259037
C87	C	0.962763	0.619850	-0.260709
C88	C	1.038161	0.505005	-0.336112
C89	C	0.962759	0.635684	-0.050119
C90	C	1.038155	0.526212	-0.054050
C91	C	0.962753	0.924829	-0.260697
C92	C	1.038148	0.913491	-0.336096
C93	C	0.407655	1.379023	-0.062310
C94	C	0.336822	1.481872	-0.058632
C95	C	0.301390	1.595957	-0.015665
C96	C	0.336801	1.607191	0.023621
C97	C	0.407637	1.504343	0.019939
C98	C	0.407658	1.070951	0.335561
C99	C	0.336827	1.081600	0.406412
C100	C	0.301401	1.024285	0.400722
C101	C	0.336817	0.956307	0.324175
C102	C	0.407651	0.945652	0.253325
C103	C	0.407645	1.521872	0.253328
C104	C	0.336810	1.629789	0.324170
C105	C	0.301381	1.627300	0.400721
C106	C	0.336797	1.516884	0.406428
C107	C	0.407635	1.408969	0.335587
C108	C	1.073579	0.394600	-0.330403
C109	C	1.144435	0.286681	-0.401246
C110	C	1.179868	0.289170	-0.477797
C111	C	1.144448	0.399586	-0.483504
C112	C	1.073597	0.507502	-0.412662
C113	C	1.073567	0.537448	-0.014772
C114	C	1.144419	0.434596	-0.018469
C115	C	1.179854	0.320511	-0.061439
C116	C	1.144440	0.309277	-0.100722
C117	C	1.073593	0.412127	-0.097029
C118	C	1.073551	0.970821	-0.330380
C119	C	1.144383	0.960191	-0.401218
C120	C	1.179815	0.892223	-0.477772
C121	C	1.144404	0.834892	-0.483486
C122	C	1.073569	0.845529	-0.412648
H123	H	0.547821	0.812736	-0.134007
C124	C	1.183415	0.183774	-0.147973
N125	N	1.212766	0.089243	-0.183555
H126	H	0.740604	0.827104	-0.750239
C127	C	0.740617	0.760405	-0.317244
N128	N	0.740627	0.692704	-0.289432
H129	H	0.740597	0.836276	-0.628409
H130	H	0.436472	0.890308	0.191007
C131	C	1.034622	0.391832	-0.246203
N132	N	1.005289	0.389738	-0.182786
H133	H	0.243709	1.679693	-0.012672
H134	H	0.740599	0.774606	-0.448664
C135	C	0.297806	1.514167	0.490643
N136	N	0.268431	1.512125	0.554076
C137	C	0.837696	0.304169	-0.202279
N138	N	0.876688	0.241791	-0.268024
C139	C	0.546336	0.546493	0.063596
N140	N	0.468303	0.581536	0.104615
C141	C	1.034584	1.045601	-0.246177
N142	N	1.005234	1.101936	-0.182757
H143	H	0.243723	1.032971	0.458419
H144	H	0.436504	1.286138	-0.097308
C145	C	0.426751	0.796989	-0.144366
N146	N	0.448261	0.721854	-0.193673
C147	C	1.183426	0.402304	-0.567718
N148	N	1.212780	0.404348	-0.631150
H149	H	0.308000	1.136958	0.468733
C150	C	0.297808	1.732697	0.070890
N151	N	0.268430	1.827232	0.106498
C152	C	1.034635	0.628945	-0.418955
N153	N	1.005290	0.720414	-0.423701
C154	C	1.034606	0.662932	0.032496
N155	N	1.005270	0.757443	0.068096
H156	H	0.657039	0.590720	0.102479
H157	H	0.307999	1.472702	-0.090624
C158	C	0.297833	0.893272	0.317930
N159	N	0.268463	0.845803	0.313230
H160	H	0.436454	1.513509	0.051935
H161	H	0.196669	1.162011	0.095256
H162	H	0.436481	1.523921	0.191003
C163	C	0.312198	0.726966	-0.190397
N164	N	0.392380	0.647218	-0.242757
C165	C	0.163465	0.738725	-0.182700
N166	N	0.184965	0.663620	-0.232020
H167	H	0.243700	1.715180	0.458398
H168	H	1.237493	0.883571	-0.535446
H169	H	1.173264	0.779552	-0.545826
H170	H	-0.066612	1.103729	0.056945
C171	C	0.446574	1.287528	0.341881
N172	N	0.475902	1.196060	0.346628
H173	H	1.173262	0.196787	-0.396583
H174	H	0.061872	1.093578	0.050292
C175	C	0.317746	1.177756	0.105626
N176	N	0.296238	1.252870	0.154946
C177	C	1.183326	1.023259	-0.394915
N178	N	1.212656	1.070761	-0.390165
H179	H	0.907874	0.382316	-0.126590
C180	C	1.183354	0.446981	0.024755
N181	N	1.212676	0.456313	0.057314
C182	C	1.257783	0.207384	-0.065488
N183	N	1.316477	0.122182	-0.068533
H184	H	0.657046	0.575922	-0.091748
H185	H	0.824236	0.340360	0.014519
H186	H	0.307982	1.719684	0.319508
H187	H	0.740617	1.089357	-0.326841
H188	H	1.237558	0.201289	-0.535475
H189	H	1.044752	0.798837	-0.417314
H190	H	1.044763	0.402963	-0.129012
H191	H	0.740607	1.141871	-0.628407
C192	C	0.740597	1.156063	-0.759832
N193	N	0.740589	1.223759	-0.787648
H194	H	0.740603	1.080201	-0.448660
H195	H	0.436494	1.117627	0.340209
