data_functionalizedCrystal
_audit_creation_method	'MofGen! by Chris Wilmer'
_symmetry_space_group_name_H-M	'P1'
_symmetry_Int_Tables_number	1
_symmetry_cell_setting	triclinic
loop_
_symmetry_equiv_pos_as_xyz
  x,y,z
_cell_length_a	10.540514
_cell_length_b	10.540510
_cell_length_c	9.130313
_cell_angle_alpha	90.001199
_cell_angle_beta	89.999226
_cell_angle_gamma	84.514235
loop_
_atom_site_label
_atom_site_type_symbol
_atom_site_fract_x
_atom_site_fract_y
_atom_site_fract_z
O1	O	1.685880	0.178744	-0.121809
O2	O	1.316461	0.195634	-0.121807
O3	O	1.509618	0.002479	-0.121808
O4	O	1.492722	0.371899	-0.121809
O5	O	1.509615	0.002485	0.121791
O6	O	1.316458	0.195639	0.121792
O7	O	1.685877	0.178750	0.121790
Cu8	Cu	1.501168	0.187195	0.144033
Cu9	Cu	1.501170	0.187189	-0.144051
O10	O	1.492720	0.371904	0.121790
C11	C	1.269156	0.194377	-0.000008
C12	C	1.128207	0.190608	-0.000007
C13	C	1.057486	0.328749	-0.000010
C14	C	0.910874	0.324875	-0.000571
C15	C	0.935878	0.115477	-0.138852
C16	C	1.082417	0.120330	-0.138960
C17	C	1.082818	0.118292	0.138067
C18	C	0.935839	0.116959	0.139884
C19	C	1.508358	-0.044821	-0.000011
C20	C	1.504591	-0.185771	-0.000020
C21	C	1.638776	-0.403239	0.000537
C22	C	1.642794	-0.256643	-0.000019
C23	C	1.433845	-0.230526	-0.139123
C24	C	1.430806	-0.377287	-0.139232
C25	C	1.427925	-0.377089	0.137785
C26	C	1.434480	-0.230749	0.139616
C27	C	1.733182	0.180007	-0.000013
C28	C	1.874131	0.183776	-0.000023
C29	C	1.493980	0.419205	-0.000009
C30	C	1.497747	0.560155	-0.000010
N31	N	1.501175	0.187198	0.346656
N32	N	1.501173	0.187175	-0.346673
C33	C	1.586727	0.101699	0.423308
C34	C	1.586723	0.101684	0.576645
C35	C	1.415612	0.272679	0.576664
C36	C	1.415610	0.272687	0.423330
C37	C	1.672292	0.016211	0.346633
C38	C	1.757852	-0.069295	0.423285
C39	C	1.757848	-0.069310	0.576622
C40	C	1.672285	0.016180	0.653307
H41	H	0.893267	0.162289	-0.242562
H42	H	1.345950	0.342283	0.639111
H43	H	1.087709	0.383966	-0.099420
O44	O	1.290484	-0.406434	0.139048
H45	H	1.242335	-0.367810	0.038181
O46	O	1.850101	-0.161522	0.340572
H47	H	1.912285	-0.107504	0.270715
O48	O	1.672281	0.016219	0.181250
H49	H	1.746140	-0.057597	0.140807
O50	O	1.323346	0.364908	0.340638
H51	H	1.263863	0.424367	0.419712
H52	H	0.869137	0.378361	-0.100675
H53	H	0.911665	0.014112	0.148680
H54	H	1.698148	-0.227302	0.099693
H55	H	1.110637	0.170210	-0.243134
O56	O	1.293886	-0.407733	-0.147612
H57	H	1.270934	-0.463438	-0.049557
H58	H	1.827506	-0.138940	0.639031
O59	O	1.498845	-0.189880	-0.276403
H60	H	1.532118	-0.275486	-0.341690
H61	H	1.114306	0.164279	0.243327
H62	H	1.672281	0.016152	0.778164
H63	H	1.130434	0.018856	-0.144888
H64	H	1.692310	-0.446751	-0.098657
H65	H	1.130085	0.016398	0.139407
H66	H	1.698472	-0.228245	-0.099907
O67	O	0.854338	0.396033	0.131216
H68	H	0.877374	0.496532	0.126695
O69	O	1.095285	0.403005	0.131826
H70	H	1.164887	0.342254	0.198762
H71	H	1.692618	-0.445196	0.100296
O72	O	0.906335	-0.021797	-0.145196
H73	H	0.847182	-0.042846	-0.049241
O74	O	0.881555	0.183078	0.275943
H75	H	0.810909	0.263189	0.244074
O76	O	1.299077	-0.167740	-0.146003
H77	H	1.281050	-0.103813	-0.050123
H78	H	1.479156	-0.417509	-0.243215
O79	O	1.485784	-0.433291	0.277457
H80	H	1.564961	-0.506589	0.250214
H81	H	1.333581	-0.181673	0.148016
H82	H	1.485958	-0.202139	0.242524
