data_functionalizedCrystal
_audit_creation_method	'MofGen! by Chris Wilmer'
_symmetry_space_group_name_H-M	'P1'
_symmetry_Int_Tables_number	1
_symmetry_cell_setting	triclinic
loop_
_symmetry_equiv_pos_as_xyz
  x,y,z
_cell_length_a	19.288864
_cell_length_b	15.944499
_cell_length_c	18.366186
_cell_angle_alpha	89.997007
_cell_angle_beta	89.977106
_cell_angle_gamma	83.306929
loop_
_atom_site_label
_atom_site_type_symbol
_atom_site_fract_x
_atom_site_fract_y
_atom_site_fract_z
O1	O	0.921613	0.104786	-0.060778
O2	O	0.719387	0.118922	-0.060728
O3	O	0.826041	-0.010445	-0.060755
O4	O	0.814959	0.234153	-0.060750
O5	O	0.826023	-0.010452	0.060344
O6	O	0.719369	0.118915	0.060372
O7	O	0.921595	0.104780	0.060321
Zn8	Zn	0.820479	0.111847	0.079574
Zn9	Zn	0.820503	0.111855	-0.079980
O10	O	0.814941	0.234147	0.060349
C11	C	0.693500	0.118464	-0.000172
C12	C	0.616393	0.117098	-0.000152
C13	C	0.571885	0.193005	-0.000162
C14	C	0.499435	0.191722	-0.000170
C15	C	0.471496	0.114529	-0.000183
C16	C	0.516014	0.038612	-0.000169
C17	C	0.588463	0.039897	-0.000154
C18	C	0.363090	0.053848	-0.042635
C19	C	0.290642	0.052566	-0.042655
C20	C	0.248041	0.110562	-0.000227
C21	C	0.277894	0.169854	0.042211
C22	C	0.350343	0.171139	0.042226
C23	C	0.392939	0.113127	-0.000199
C24	C	0.124973	0.185083	-0.000245
C25	C	0.052522	0.183797	-0.000249
C26	C	0.069103	0.030685	-0.000255
C27	C	0.141552	0.031973	-0.000244
C28	C	0.169483	0.109175	-0.000242
C29	C	0.825578	-0.041741	-0.000207
C30	C	0.824218	-0.134984	-0.000213
C31	C	0.886181	-0.426759	-0.000224
C32	C	0.853962	-0.365613	0.059495
C33	C	0.819276	-0.470602	-0.000203
C34	C	0.853962	-0.365613	-0.059900
C35	C	0.821708	-0.305703	-0.000209
C36	C	0.787038	-0.410684	0.059565
C37	C	0.787048	-0.410690	-0.059883
C38	C	0.754780	-0.349561	-0.000149
C39	C	0.817877	-0.565597	-0.000199
C40	C	0.823101	-0.210709	-0.000208
C41	C	0.947481	0.105238	-0.000236
C42	C	1.024588	0.106603	-0.000260
C43	C	0.815403	0.265443	-0.000200
C44	C	0.816764	0.358686	-0.000200
N45	N	0.820468	0.111840	0.188465
N46	N	0.820519	0.111854	-0.188871
C47	C	0.867709	0.054585	0.226553
C48	C	0.867714	0.054581	0.302781
C49	C	0.820483	0.111847	0.340918
C50	C	0.773232	0.169107	0.302820
C51	C	0.773225	0.169104	0.226594
C52	C	0.811375	0.188383	0.461681
C53	C	0.811387	0.188387	0.537906
C54	C	0.820503	0.111858	0.576025
C55	C	0.829621	0.035320	0.537910
C56	C	0.829613	0.035317	0.461684
C57	C	0.820486	0.111857	0.423572
C58	C	0.867752	0.054593	0.696768
C59	C	0.867752	0.054588	0.772997
C60	C	0.773273	0.169122	0.773035
C61	C	0.773270	0.169120	0.696808
C62	C	0.820513	0.111856	0.658679
H63	H	0.493262	-0.024240	-0.000190
H64	H	0.758756	-0.430559	0.110106
H65	H	0.624702	-0.021918	-0.000146
N66	N	0.802079	0.266554	0.576850
N67	N	0.848474	0.285278	0.619361
H68	H	0.841899	0.340484	0.646866
N69	N	0.889449	-0.340561	0.122819
N70	N	0.914174	-0.394881	0.167747
H71	H	0.939241	-0.377195	0.212469
N72	N	0.802072	0.266554	0.422736
N73	N	0.802069	0.266541	0.354677
H74	H	0.795500	0.321748	0.327172
N75	N	0.916000	-0.003944	0.657854
N76	N	0.959146	0.022489	0.615295
H77	H	0.993221	-0.018872	0.587831
H78	H	0.906219	0.007960	0.804009
N79	N	0.600426	0.271854	-0.000141
N80	N	0.665113	0.272995	-0.000120
H81	H	0.685273	0.328682	-0.000101
N82	N	0.724987	0.227593	0.341784
N83	N	0.725000	0.227589	0.409842
H84	H	0.690924	0.268893	0.437361
N85	N	0.406594	-0.005411	-0.085975
N86	N	0.379933	-0.058340	-0.123864
H87	H	0.410656	-0.100193	-0.154470
H88	H	0.699208	-0.316165	-0.000100
N89	N	0.453970	0.269270	-0.000176
N90	N	0.478918	0.338191	-0.000171
H91	H	0.446811	0.392960	-0.000175
N92	N	0.751600	-0.435792	-0.123209
N93	N	0.782728	-0.486716	-0.167329
H94	H	0.757698	-0.504447	-0.212059
N95	N	0.889494	-0.340552	-0.123223
N96	N	0.951924	-0.368588	-0.133859
H97	H	0.977025	-0.350889	-0.178577
H98	H	0.906176	0.007956	0.195510
H99	H	0.374647	0.219414	0.076784
N100	N	0.915975	-0.003915	0.341686
N101	N	0.958148	-0.055040	0.307634
H102	H	0.992233	-0.096353	0.335108
N103	N	0.724959	0.227595	0.187695
N104	N	0.682787	0.278718	0.221750
H105	H	0.648699	0.320030	0.194278
H106	H	0.941705	-0.460303	-0.000181
N107	N	0.725025	0.227605	0.811993
N108	N	0.725034	0.227598	0.880051
H109	H	0.690955	0.268900	0.907569
H110	H	0.243209	0.217080	0.076761
H111	H	0.046356	-0.032167	-0.000310
H112	H	0.837035	-0.027002	0.430653
H113	H	0.177792	-0.029838	-0.000240
N114	N	0.838922	-0.042853	0.576848
N115	N	0.838915	-0.042843	0.644907
H116	H	0.845481	-0.098050	0.672411
N117	N	0.725009	0.227612	0.657909
N118	N	0.682839	0.278736	0.691965
H119	H	0.648749	0.320048	0.664493
H120	H	0.016284	0.245612	-0.000252
N121	N	0.153499	0.263945	-0.000225
N122	N	0.139830	0.315051	0.050826
H123	H	0.159974	0.370748	0.050843
N124	N	0.260162	-0.007993	-0.086015
N125	N	0.298204	-0.059777	-0.123888
H126	H	0.276679	-0.102548	-0.154514
