data_functionalizedCrystal
_audit_creation_method	'MofGen! by Chris Wilmer'
_symmetry_space_group_name_H-M	'P1'
_symmetry_Int_Tables_number	1
_symmetry_cell_setting	triclinic
loop_
_symmetry_equiv_pos_as_xyz
  x,y,z
_cell_length_a	14.044220
_cell_length_b	16.109301
_cell_length_c	15.186229
_cell_angle_alpha	89.997109
_cell_angle_beta	90.001077
_cell_angle_gamma	91.674821
loop_
_atom_site_label
_atom_site_type_symbol
_atom_site_fract_x
_atom_site_fract_y
_atom_site_fract_z
O1	O	0.121829	-1.112198	0.073175
O2	O	0.136991	-0.871264	0.073189
O3	O	-0.008573	-0.988115	0.073174
O4	O	0.267394	-0.995348	0.073191
O5	O	-0.008565	-0.988100	-0.073284
O6	O	0.137000	-0.871250	-0.073268
O7	O	0.121838	-1.112184	-0.073282
Zn8	Zn	0.129420	-0.991714	-0.096528
Zn9	Zn	0.129409	-0.991733	0.096435
O10	O	0.267402	-0.995333	-0.073267
C11	C	-0.043882	-0.984941	-0.000055
C12	C	-0.149105	-0.975498	-0.000056
C13	C	0.136381	-0.840236	-0.000038
C14	C	0.134540	-0.747804	-0.000033
C15	C	0.122448	-1.143211	-0.000053
C16	C	0.124289	-1.235644	-0.000053
C17	C	-0.341761	-0.958232	-0.000042
C18	C	-0.399415	-1.025212	-0.000043
C19	C	-0.506616	-1.015605	-0.000036
C20	C	-0.234551	-0.967838	-0.000050
C21	C	0.302711	-0.998506	-0.000036
C22	C	0.407934	-1.007950	-0.000030
N23	N	0.129427	-0.991708	-0.228221
C24	C	0.216634	-0.531640	-0.000038
C25	C	0.214896	-0.444790	-0.000043
C26	C	0.042189	-0.451815	-0.000050
C27	C	0.043927	-0.538663	-0.000051
C28	C	0.131153	-0.578573	-0.000040
C29	C	0.127677	-0.404875	-0.000045
C30	C	0.125792	-0.310709	-0.000052
C31	C	0.133038	-0.672745	-0.000036
C32	C	0.186918	-1.046409	-0.453943
C33	C	0.186912	-1.046417	-0.546133
C34	C	0.071897	-0.937043	-0.546143
C35	C	0.071899	-0.937039	-0.453955
C36	C	0.129415	-0.991721	-0.407858
C37	C	0.129406	-0.991733	-0.592235
C38	C	0.129398	-0.991742	-0.692192
C39	C	0.129422	-0.991713	-0.307895
N40	N	0.129395	-0.991746	0.228128
H41	H	-0.368264	-1.089769	0.000012
H42	H	-0.372911	-0.893680	-0.000036
H43	H	0.284504	-0.406580	-0.000043
H44	H	0.233735	-1.090951	-0.583652
Br45	Br	-0.006147	-0.862814	-0.391405
H46	H	0.025070	-0.892522	-0.583687
Br47	Br	0.335010	-0.585801	-0.000026
Br48	Br	-0.076183	-0.397646	-0.000062
H49	H	-0.025686	-0.576877	-0.000055
Br50	Br	0.264969	-1.120624	-0.391385
