data_functionalizedCrystal
_audit_creation_method	'MofGen! by Chris Wilmer'
_symmetry_space_group_name_H-M	'P1'
_symmetry_Int_Tables_number	1
_symmetry_cell_setting	triclinic
loop_
_symmetry_equiv_pos_as_xyz
  x,y,z
_cell_length_a	16.974867
_cell_length_b	16.992695
_cell_length_c	12.996460
_cell_angle_alpha	90.006597
_cell_angle_beta	86.355417
_cell_angle_gamma	92.977729
loop_
_atom_site_label
_atom_site_type_symbol
_atom_site_fract_x
_atom_site_fract_y
_atom_site_fract_z
O1	O	-1.055448	0.099893	0.002234
O2	O	-0.555448	0.599893	0.502234
O3	O	-0.826049	0.112628	-0.016846
O4	O	-0.326049	0.612628	0.483154
O5	O	-0.939829	-0.007882	-0.007391
O6	O	-0.439829	0.492118	0.492609
O7	O	-0.941668	0.220402	-0.007221
O8	O	-0.441668	0.720402	0.492779
O9	O	-0.939813	-0.007874	0.163741
O10	O	-0.439813	0.492126	0.663741
O11	O	-0.826033	0.112636	0.154286
O12	O	-0.326033	0.612636	0.654286
O13	O	-1.055431	0.099901	0.173367
O14	O	-0.555431	0.599901	0.673367
Cu15	Cu	-0.940731	0.106269	0.179452
Cu16	Cu	-0.440731	0.606269	0.679452
Cu17	Cu	-0.940750	0.106259	-0.022932
Cu18	Cu	-0.440750	0.606259	0.477068
O19	O	-0.941652	0.220410	0.163912
O20	O	-0.441652	0.720410	0.663912
C21	C	-0.796552	0.112148	0.066267
C22	C	-0.296552	0.612148	0.566267
C23	C	-0.708685	0.110699	0.058958
C24	C	-0.208685	0.610699	0.558958
C25	C	-0.214090	0.102514	0.007730
C26	C	0.285910	0.602514	0.507730
C27	C	-0.296650	0.103876	0.014612
C28	C	0.203350	0.603876	0.514612
C29	C	-0.337913	0.104567	0.111338
C30	C	0.162087	0.604567	0.611338
C31	C	-0.296612	0.103888	0.201188
C32	C	0.203388	0.603888	0.701188
C33	C	-0.214054	0.102520	0.194306
C34	C	0.285946	0.602520	0.694306
C35	C	-0.584826	0.108652	0.141925
C36	C	-0.084826	0.608652	0.641925
C37	C	-0.667390	0.110022	0.148801
C38	C	-0.167390	0.610022	0.648801
C39	C	-0.667422	0.110009	-0.037776
C40	C	-0.167422	0.610009	0.462224
C41	C	-0.584862	0.108646	-0.044650
C42	C	-0.084862	0.608646	0.455350
C43	C	-0.543568	0.107963	0.045200
C44	C	-0.043568	0.607963	0.545200
N45	N	-0.422303	0.105961	0.118374
N46	N	0.077697	0.605961	0.618374
N47	N	-0.459180	0.106563	0.038163
N48	N	0.040820	0.606563	0.538163
C49	C	-0.937455	-0.037088	0.077973
C50	C	-0.437455	0.462912	0.577973
C51	C	-0.930395	-0.124124	0.077373
C52	C	-0.430395	0.375876	0.577373
N53	N	-0.940723	0.106275	0.321799
N54	N	-0.440723	0.606275	0.821799
C55	C	-0.084928	0.100382	0.090256
C56	C	0.415072	0.600382	0.590256
C57	C	-0.172795	0.101837	0.097574
C58	C	0.327205	0.601837	0.597574
C59	C	-0.944026	0.249616	0.078545
C60	C	-0.444026	0.749616	0.578545
C61	C	-0.951085	0.336652	0.079139
C62	C	-0.451085	0.836652	0.579139
C63	C	-0.882971	0.386968	0.073473
C64	C	-0.382971	0.886968	0.573473
C65	C	-0.889609	0.468747	0.074012
C66	C	-0.389609	0.968747	0.574012
C67	C	-0.964362	0.500209	0.080224
C68	C	-0.464362	1.000209	0.580224
C69	C	-1.032481	0.449886	0.085888
C70	C	-0.532481	0.949886	0.585888
C71	C	-1.025843	0.368109	0.085341
C72	C	-0.525843	0.868109	0.585341
C73	C	-0.991876	0.743776	0.082490
C74	C	-0.491876	1.243776	0.582490
C75	C	-0.998509	0.825560	0.083039
C76	C	-0.498509	1.325560	0.583039
C77	C	-0.855636	0.844415	0.071161
C78	C	-0.355636	1.344415	0.571161
C79	C	-0.849004	0.762635	0.070621
C80	C	-0.349004	1.262635	0.570621
C81	C	-0.917124	0.712320	0.076279
C82	C	-0.417124	1.212320	0.576279
N83	N	-0.971148	0.583800	0.080779
N84	N	-0.471148	1.083800	0.580779
N85	N	-0.910336	0.628730	0.075717
N86	N	-0.410336	1.128730	0.575717
C87	C	-0.940726	0.106277	0.414905
C88	C	-0.440726	0.606277	0.914905
C89	C	-0.940733	0.106273	0.531711
C90	C	-0.440733	0.606273	1.031711
C91	C	-0.940742	0.106265	0.624810
C92	C	-0.440742	0.606265	1.124810
C93	C	-0.940749	0.106261	0.741623
C94	C	-0.440749	0.606261	1.241623
N95	N	-0.940758	0.106253	0.834722
N96	N	-0.440758	0.606253	1.334722
H97	H	-0.701052	0.110564	-0.110927
H98	H	-0.201052	0.610564	0.389073
H99	H	-0.788132	0.737026	0.065550
H100	H	-0.288132	1.237026	0.565550
O101	O	-1.065351	0.689522	0.088605
O102	O	-0.565351	1.189522	0.588605
H103	H	-1.065762	0.651809	0.018884
H104	H	-0.565762	1.151809	0.518884
H105	H	-0.834142	0.509712	0.069395
H106	H	-0.334142	1.009712	0.569395
O107	O	-1.113111	0.483814	0.092588
O108	O	-0.613111	0.983814	0.592588
H109	H	-1.106285	0.549132	0.092028
H110	H	-0.606285	1.049132	0.592028
H111	H	-0.180499	0.101956	-0.071035
H112	H	0.319501	0.601956	0.428965
H113	H	-1.059385	0.851172	0.088099
H114	H	-0.559385	1.351172	0.588099
O115	O	-1.099308	0.313833	0.091462
O116	O	-0.599308	0.813833	0.591462
H117	H	-1.152404	0.349447	0.095886
H118	H	-0.652404	0.849447	0.595886
H119	H	-0.800177	0.885390	0.066553
H120	H	-0.300177	1.385390	0.566553
H121	H	-0.330270	0.104422	-0.058548
H122	H	0.169730	0.604422	0.441452
O123	O	-0.540362	0.107900	-0.148980
O124	O	-0.040362	0.607900	0.351020
H125	H	-0.476016	0.106844	-0.138671
H126	H	0.023984	0.606844	0.361329
H127	H	-0.700984	0.110591	0.227571
H128	H	-0.200984	0.610591	0.727571
H129	H	-0.180432	0.101978	0.267466
H130	H	0.319568	0.601978	0.767466
H131	H	-0.330216	0.104446	0.279945
H132	H	0.169784	0.604446	0.779945
O133	O	-0.540290	0.107929	0.238830
O134	O	-0.040290	0.607929	0.738830
H135	H	-0.582855	0.108651	0.307242
H136	H	-0.082855	0.608651	0.807242
H137	H	-0.822099	0.361359	0.068426
H138	H	-0.322099	0.861359	0.568426
