data_functionalizedCrystal
_audit_creation_method	'MofGen! by Chris Wilmer'
_symmetry_space_group_name_H-M	'P1'
_symmetry_Int_Tables_number	1
_symmetry_cell_setting	triclinic
loop_
_symmetry_equiv_pos_as_xyz
  x,y,z
_cell_length_a	14.519709
_cell_length_b	15.995350
_cell_length_c	13.596369
_cell_angle_alpha	89.996243
_cell_angle_beta	90.000291
_cell_angle_gamma	83.586260
loop_
_atom_site_label
_atom_site_type_symbol
_atom_site_fract_x
_atom_site_fract_y
_atom_site_fract_z
O1	O	1.223669	0.109760	-0.081658
O2	O	0.955169	0.122685	-0.081688
O3	O	1.096759	-0.005654	-0.081671
O4	O	1.082079	0.238099	-0.081675
O5	O	1.096744	-0.005661	0.081912
O6	O	0.955155	0.122679	0.081895
O7	O	1.223655	0.109753	0.081925
Zn8	Zn	1.089403	0.116215	0.107882
Zn9	Zn	1.089421	0.116224	-0.107645
O10	O	1.082065	0.238093	0.081908
C11	C	0.920803	0.122080	0.000100
C12	C	0.818425	0.120275	0.000088
C13	C	0.443541	0.113629	0.000133
C14	C	0.547846	0.115475	0.000120
C15	C	0.630980	0.116952	0.000110
C16	C	0.735291	0.118797	0.000099
C17	C	1.096145	-0.036853	0.000118
C18	C	1.094325	-0.129806	0.000112
C19	C	1.087791	-0.467563	0.000115
C20	C	0.986954	-0.420280	-0.000263
C21	C	0.988773	-0.323587	0.000106
C22	C	1.091032	-0.299998	0.000113
C23	C	1.140761	-0.341005	0.093531
C24	C	1.138228	-0.437644	0.093609
C25	C	1.140327	-0.437992	-0.092415
C26	C	1.140303	-0.341046	-0.093650
C27	C	1.092869	-0.205298	0.000115
C28	C	1.085957	-0.562264	0.000119
C29	C	1.258021	0.110359	0.000135
C30	C	1.360399	0.112164	0.000140
C31	C	1.082679	0.269292	0.000116
C32	C	1.084498	0.362245	0.000116
N33	N	1.089397	0.116208	0.254974
N34	N	1.089434	0.116224	-0.254737
C35	C	1.089420	0.116225	0.656265
C36	C	1.089411	0.116223	0.544614
C37	C	1.089409	0.116217	0.455623
C38	C	1.089399	0.116214	0.343965
H39	H	0.949683	-0.295221	-0.066860
C40	C	0.932510	-0.445379	-0.090771
C41	C	0.978942	-0.509119	-0.165445
C42	C	0.924500	-0.534218	-0.255961
C43	C	0.823626	-0.495577	-0.271804
C44	C	0.777188	-0.431833	-0.197127
C45	C	0.831630	-0.406734	-0.106611
H46	H	1.053620	-0.537727	-0.153719
H47	H	0.958877	-0.581405	-0.311242
H48	H	0.783324	-0.514156	-0.338809
H49	H	0.702510	-0.403225	-0.208853
H50	H	0.797253	-0.359547	-0.051331
H51	H	1.101954	-0.456003	0.163434
C52	C	0.935766	-0.285956	0.090786
C53	C	0.850371	-0.220668	0.077477
C54	C	0.797440	-0.183006	0.168196
C55	C	0.829905	-0.210632	0.272224
C56	C	0.915305	-0.275924	0.285538
C57	C	0.968235	-0.313586	0.194819
H58	H	0.826334	-0.200214	0.000465
H59	H	0.734222	-0.134673	0.158339
H60	H	0.790723	-0.182753	0.339379
H61	H	0.939341	-0.296378	0.362550
H62	H	1.031453	-0.361919	0.204675
C63	C	1.091212	-0.304228	-0.186989
C64	C	0.988107	-0.313924	-0.204129
C65	C	0.938991	-0.277095	-0.297452
C66	C	0.992980	-0.230572	-0.373633
C67	C	1.096091	-0.220874	-0.356495
C68	C	1.145206	-0.257703	-0.263173
H69	H	0.948136	-0.348365	-0.147733
H70	H	0.862662	-0.284274	-0.310138
H71	H	0.956622	-0.203309	-0.442716
H72	H	1.136062	-0.186433	-0.412891
H73	H	1.221536	-0.250524	-0.250486
C74	C	1.094086	-0.302748	0.187444
C75	C	1.130574	-0.332886	0.289236
C76	C	1.083893	-0.294631	0.383146
C77	C	1.000724	-0.226236	0.375264
C78	C	0.964232	-0.196094	0.273467
C79	C	1.010913	-0.234350	0.179557
H80	H	1.192144	-0.383519	0.295075
H81	H	1.110907	-0.316944	0.458502
H82	H	0.966168	-0.197917	0.444781
H83	H	0.902662	-0.145461	0.267629
H84	H	0.983899	-0.212036	0.104201
H85	H	1.214875	-0.325572	-0.099285
C86	C	1.238236	-0.481067	0.099367
C87	C	1.320148	-0.427776	0.103884
C88	C	1.420153	-0.471194	0.109653
C89	C	1.438247	-0.567903	0.110905
C90	C	1.356333	-0.621199	0.106388
C91	C	1.256327	-0.577782	0.100619
H92	H	1.306756	-0.356181	0.102957
H93	H	1.480791	-0.431740	0.112997
H94	H	1.512277	-0.600043	0.115176
H95	H	1.369725	-0.692794	0.107315
H96	H	1.195689	-0.617236	0.097275
C97	C	1.240765	-0.480746	-0.093270
C98	C	1.322256	-0.426890	-0.090377
C99	C	1.422690	-0.469647	-0.091224
C100	C	1.441632	-0.566260	-0.094964
C101	C	1.360139	-0.620121	-0.097857
C102	C	1.259705	-0.577364	-0.097010
H103	H	1.308236	-0.355367	-0.087608
H104	H	1.483017	-0.429775	-0.089082
H105	H	1.515980	-0.597911	-0.095591
H106	H	1.374159	-0.691644	-0.100626
H107	H	1.199378	-0.617236	-0.099152
C108	C	1.242252	-0.321770	0.098243
C109	C	1.281248	-0.268477	0.017125
C110	C	1.382738	-0.249241	0.021836
C111	C	1.445232	-0.283297	0.107665
C112	C	1.406237	-0.336594	0.188790
C113	C	1.304746	-0.355830	0.184079
H114	H	1.234985	-0.243263	-0.046416
H115	H	1.411605	-0.209787	-0.038218
H116	H	1.520361	-0.269057	0.111152
H117	H	1.452499	-0.361807	0.252331
H118	H	1.275880	-0.395284	0.244133
H119	H	1.107364	-0.458578	-0.163220
C120	C	0.932733	-0.446828	0.089722
C121	C	0.979617	-0.511196	0.163442
C122	C	0.925399	-0.537746	0.253427
C123	C	0.824297	-0.499928	0.269692
C124	C	0.777408	-0.435556	0.195970
C125	C	0.831626	-0.409006	0.105985
H126	H	1.054464	-0.539194	0.151404
H127	H	0.960111	-0.585398	0.308001
H128	H	0.784162	-0.519582	0.336305
H129	H	0.702561	-0.407558	0.208009
H130	H	0.796915	-0.361354	0.051411
