data_functionalizedCrystal
_audit_creation_method	'MofGen! by Chris Wilmer'
_symmetry_space_group_name_H-M	'P1'
_symmetry_Int_Tables_number	1
_symmetry_cell_setting	triclinic
loop_
_symmetry_equiv_pos_as_xyz
  x,y,z
_cell_length_a	12.645331
_cell_length_b	12.645330
_cell_length_c	11.169409
_cell_angle_alpha	89.965587
_cell_angle_beta	89.981303
_cell_angle_gamma	90.013057
loop_
_atom_site_label
_atom_site_type_symbol
_atom_site_fract_x
_atom_site_fract_y
_atom_site_fract_z
Zn1	Zn	1.620776	-0.421942	-0.678489
Zn2	Zn	1.620671	-0.599253	-0.477799
Zn3	Zn	1.443488	-0.422005	-0.477828
Zn4	Zn	1.443488	-0.599165	-0.678448
O5	O	1.532105	-0.510591	-0.578141
O6	O	1.769109	-0.445473	-0.651873
O7	O	1.597123	-0.575804	-0.309853
O8	O	1.467050	-0.273649	-0.504475
O9	O	1.769032	-0.575742	-0.504426
O10	O	1.597302	-0.273603	-0.651900
O11	O	1.466948	-0.445581	-0.309874
O12	O	1.295141	-0.445495	-0.504435
O13	O	1.467049	-0.575593	-0.846403
O14	O	1.295140	-0.575654	-0.651830
O15	O	1.597302	-0.445388	-0.846434
O16	O	1.597123	-0.747588	-0.504386
O17	O	1.466947	-0.747524	-0.651802
C18	C	1.256676	-0.510573	-0.578132
C19	C	1.138846	-0.510591	-0.578156
C20	C	1.093999	-0.592613	-0.670746
C21	C	0.971439	-0.592950	-0.670471
C22	C	0.970893	-0.540444	-0.451518
C23	C	1.093492	-0.541023	-0.452054
C24	C	1.093690	-0.398541	-0.611097
C25	C	0.971085	-0.399160	-0.613886
C26	C	1.532052	-0.786021	-0.578113
C27	C	1.532127	-0.903851	-0.578141
C28	C	1.613889	-1.071411	-0.485213
C29	C	1.614155	-0.948851	-0.485441
C30	C	1.562428	-0.948218	-0.704649
C31	C	1.563077	-1.070817	-0.704155
C32	C	1.420031	-1.071183	-0.545807
C33	C	1.420568	-0.948579	-0.542970
C34	C	1.808611	-0.510610	-0.578151
C35	C	1.926441	-0.510619	-0.578155
C36	C	1.532187	-0.510473	-0.891184
C37	C	1.532222	-0.510423	-1.024584
C38	C	1.532188	-0.234086	-0.578196
C39	C	1.532223	-0.116256	-0.578219
C40	C	1.532085	-0.510632	-0.266316
C41	C	1.532256	-0.510383	-0.132917
H42	H	1.122692	-0.337436	-0.543666
F43	F	0.933117	-0.369749	-0.735704
H44	H	0.941386	-0.574343	-0.764356
H45	H	0.940454	-0.334824	-0.551418
F46	F	1.384014	-1.111728	-0.427331
H47	H	1.504757	-0.919065	-0.775801
F48	F	1.132269	-0.466305	-0.358762
F49	F	1.589319	-0.909646	-0.362846
H50	H	1.356438	-0.917958	-0.605744
H51	H	1.595167	-1.100975	-0.391134
F52	F	1.390699	-0.910688	-0.421285
H53	H	1.697251	-0.919440	-0.506878
H54	H	0.942088	-0.675986	-0.648617
F55	F	1.670265	-1.108083	-0.740040
H56	H	1.696539	-1.102139	-0.506411
H57	H	1.506201	-1.100476	-0.775839
H58	H	1.643509	-0.917427	-0.732562
F59	F	1.134238	-0.700522	-0.642533
H60	H	1.359183	-1.100183	-0.613547
H61	H	1.124644	-0.371292	-0.701886
F62	F	1.132605	-0.568594	-0.793840
H63	H	1.122063	-0.622915	-0.424212
F64	F	0.932796	-0.464757	-0.358866
H65	H	0.940171	-0.621446	-0.423202
