data_functionalizedCrystal
_audit_creation_method	'MofGen! by Chris Wilmer'
_symmetry_space_group_name_H-M	'P1'
_symmetry_Int_Tables_number	1
_symmetry_cell_setting	triclinic
loop_
_symmetry_equiv_pos_as_xyz
  x,y,z
_cell_length_a	10.723022
_cell_length_b	9.798715
_cell_length_c	17.699083
_cell_angle_alpha	89.995715
_cell_angle_beta	96.124880
_cell_angle_gamma	90.003403
loop_
_atom_site_label
_atom_site_type_symbol
_atom_site_fract_x
_atom_site_fract_y
_atom_site_fract_z
O1	O	1.655368	0.113485	-0.106146
O2	O	1.292042	0.113490	-0.116307
O3	O	1.483970	0.113475	-0.001102
O4	O	1.463440	0.113500	-0.221351
O5	O	1.483956	-0.113507	-0.001101
O6	O	1.292027	-0.113492	-0.116307
O7	O	1.655354	-0.113497	-0.106145
Zn8	Zn	1.473689	-0.149533	-0.111226
Zn9	Zn	1.473707	0.149526	-0.111227
O10	O	1.463426	-0.113482	-0.221350
C11	C	1.245548	-0.000000	-0.115568
C12	C	1.107031	0.000001	-0.113356
C13	C	0.887787	0.000011	-0.175531
C14	C	1.030950	0.000009	-0.177819
N15	N	1.473685	-0.353633	-0.111224
C16	C	1.545698	-0.421406	-0.155111
C17	C	1.545717	-0.578569	-0.155110
C18	C	1.701848	-0.000003	-0.106884
C19	C	1.840365	0.000004	-0.109096
C20	C	1.483227	-0.000016	0.027100
C21	C	1.481020	-0.000016	0.111132
N22	N	1.473721	0.353626	-0.111222
C23	C	1.464169	0.000012	-0.249552
C24	C	1.466376	0.000021	-0.333584
C25	C	1.593678	-0.000020	0.159043
C26	C	1.591597	-0.000008	0.237999
C27	C	1.476857	-0.000002	0.269043
C28	C	1.364190	0.000006	0.221126
C29	C	1.366273	0.000003	0.142172
C30	C	1.355790	0.000017	0.539542
C31	C	1.353716	0.000015	0.618504
C32	C	1.581114	0.000006	0.635370
C33	C	1.583197	0.000004	0.556415
C34	C	1.470531	0.000018	0.508505
C35	C	1.472789	0.000008	0.422892
C36	C	1.474598	-0.000001	0.354655
H37	H	0.905753	0.000006	-0.053912
Br38	Br	1.648449	-0.324203	-0.217733
H39	H	1.607363	-0.636853	-0.192686
Br40	Br	0.778814	0.000043	-0.267514
H41	H	1.412059	-0.588099	-0.073651
H42	H	1.071787	0.000007	-0.234700
H43	H	1.672852	0.000001	0.674388
H44	H	1.412051	-0.411961	-0.073649
Br45	Br	1.749406	-0.000047	0.116920
Br46	Br	1.744497	-0.000012	0.303019
Br47	Br	1.738921	-0.000003	0.514288
H48	H	1.260276	0.000017	0.643776
H49	H	1.264050	0.000028	0.500543
H50	H	1.270767	0.000019	0.246409
H51	H	1.274535	0.000006	0.103163
H52	H	1.066203	0.000031	-0.056472
