data_functionalizedCrystal
_audit_creation_method	'MofGen! by Chris Wilmer'
_symmetry_space_group_name_H-M	'P1'
_symmetry_Int_Tables_number	1
_symmetry_cell_setting	triclinic
loop_
_symmetry_equiv_pos_as_xyz
  x,y,z
_cell_length_a	19.188940
_cell_length_b	14.971491
_cell_length_c	18.266242
_cell_angle_alpha	89.998961
_cell_angle_beta	90.008010
_cell_angle_gamma	96.617525
loop_
_atom_site_label
_atom_site_type_symbol
_atom_site_fract_x
_atom_site_fract_y
_atom_site_fract_z
O1	O	0.091007	-1.186458	0.060913
O2	O	0.101899	-0.926001	0.060908
O3	O	-0.005178	-1.063741	0.060905
O4	O	0.198084	-1.048718	0.060916
O5	O	-0.005189	-1.063744	-0.060857
O6	O	0.101888	-0.926004	-0.060854
O7	O	0.090996	-1.186461	-0.060849
Zn8	Zn	0.096441	-1.056233	-0.080184
Zn9	Zn	0.096454	-1.056229	0.080243
O10	O	0.198073	-1.048721	-0.060846
C11	C	0.101406	-0.892681	0.000026
C12	C	0.099944	-0.793391	0.000024
C13	C	-0.031196	-1.063255	0.000024
C14	C	-0.108705	-1.061790	0.000024
C15	C	0.091489	-1.219781	0.000034
C16	C	0.092951	-1.319070	0.000041
C17	C	-0.662003	-1.051371	-0.066331
C18	C	-0.589174	-1.052737	-0.066335
C19	C	-0.552747	-1.053423	0.000037
C20	C	-0.589152	-1.052719	0.066417
C21	C	-0.661979	-1.051344	0.066419
N22	N	-0.443547	-1.106479	0.049439
N23	N	-0.374365	-1.107788	0.049433
C24	C	-0.333324	-1.057566	0.000034
N25	N	-0.364080	-1.005997	-0.049369
N26	N	-0.433269	-1.004692	-0.049365
C27	C	-0.473779	-1.054914	0.000042
C28	C	-0.217958	-1.059745	-0.066347
C29	C	-0.145127	-1.061106	-0.066348
C30	C	-0.145107	-1.061097	0.066406
C31	C	-0.217936	-1.059727	0.066406
C32	C	-0.254357	-1.059055	0.000027
C33	C	0.224091	-1.049207	0.000036
C34	C	0.301600	-1.050672	0.000041
C35	C	0.093643	-0.365717	0.066413
C36	C	0.095014	-0.459010	0.066410
C37	C	0.095698	-0.505654	0.000035
C38	C	0.095005	-0.459001	-0.066341
C39	C	0.093628	-0.365711	-0.066338
C40	C	0.097875	-0.653448	-0.066344
C41	C	0.099252	-0.746745	-0.066348
C42	C	0.099260	-0.746748	0.066404
C43	C	0.097884	-0.653457	0.066408
C44	C	0.097192	-0.606810	0.000031
N45	N	0.096459	-1.056227	0.189730
N46	N	0.096431	-1.056242	-0.189671
C47	C	0.049138	-1.117327	0.228037
C48	C	0.049136	-1.117335	0.304682
C49	C	0.096449	-1.056228	0.343017
C50	C	0.143779	-0.995123	0.304700
C51	C	0.143783	-0.995123	0.228056
N52	N	0.105119	-0.977049	0.463354
N53	N	0.105110	-0.977052	0.536162
C54	C	0.096439	-1.056226	0.573939
N55	N	0.087762	-1.135400	0.536157
N56	N	0.087767	-1.135396	0.463342
C57	C	0.096449	-1.056221	0.426123
C58	C	0.049114	-1.117340	0.695354
C59	C	0.049117	-1.117349	0.772000
C60	C	0.143756	-0.995130	0.772016
C61	C	0.143756	-0.995128	0.695371
C62	C	0.096431	-1.056232	0.657045
H63	H	-0.691653	-1.050822	-0.120382
H64	H	0.010581	-1.167097	0.664147
H65	H	0.099814	-0.784719	-0.120396
H66	H	0.010585	-1.167108	0.803191
H67	H	0.095573	-0.496987	0.120457
C68	C	0.097128	-0.602151	0.139423
N69	N	0.096555	-0.563508	0.194420
C70	C	0.195802	-0.927912	0.814179
N71	N	0.235005	-0.877282	0.845940
H72	H	-0.115448	-1.061645	0.120447
H73	H	0.182286	-0.945371	0.664179
C74	C	0.100019	-0.798061	0.139420
N75	N	0.100592	-0.836715	0.194413
H76	H	0.097319	-0.615470	-0.120395
C77	C	0.095787	-0.510308	-0.139355
N78	N	0.096390	-0.548949	-0.194350
C79	C	0.092870	-0.314399	-0.139352
N80	N	0.092298	-0.275753	-0.194348
C81	C	0.092889	-0.314418	0.139432
N82	N	0.092317	-0.275782	0.194432
C83	C	-0.257979	-1.059013	0.139421
N84	N	-0.288141	-1.058491	0.194419
C85	C	-0.002931	-1.184531	0.185883
N86	N	-0.042153	-1.235145	0.154130
C87	C	-0.549131	-1.053514	-0.139352
N88	N	-0.518972	-1.054102	-0.194349
H89	H	-0.559488	-1.053274	0.120457
C90	C	-0.002926	-1.184547	0.346829
N91	N	-0.042141	-1.235170	0.378572
H92	H	0.182302	-0.945370	0.335915
C93	C	0.195838	-0.927900	0.185916
N94	N	0.235044	-0.877264	0.154176
C95	C	-0.105090	-1.061870	-0.139366
N96	N	-0.074934	-1.062446	-0.194365
C97	C	-0.702020	-1.050608	0.139437
N98	N	-0.732181	-1.050067	0.194435
H99	H	-0.247613	-1.059190	-0.120396
