data_functionalizedCrystal
_audit_creation_method	'MofGen! by Chris Wilmer'
_symmetry_space_group_name_H-M	'P1'
_symmetry_Int_Tables_number	1
_symmetry_cell_setting	triclinic
loop_
_symmetry_equiv_pos_as_xyz
  x,y,z
_cell_length_a	11.169417
_cell_length_b	25.639239
_cell_length_c	11.169409
_cell_angle_alpha	89.960719
_cell_angle_beta	89.980176
_cell_angle_gamma	90.039565
loop_
_atom_site_label
_atom_site_type_symbol
_atom_site_fract_x
_atom_site_fract_y
_atom_site_fract_z
Zn1	Zn	1.834726	-0.208096	-0.678485
Zn2	Zn	1.834516	-0.295546	-0.477777
Zn3	Zn	1.634012	-0.208128	-0.477819
Zn4	Zn	1.633920	-0.295504	-0.678422
O5	O	1.734293	-0.251819	-0.578126
O6	O	2.002648	-0.219701	-0.651869
O7	O	1.807869	-0.283981	-0.309833
O8	O	1.660763	-0.134959	-0.504482
O9	O	2.002494	-0.283950	-0.504410
O10	O	1.808227	-0.134935	-0.651910
O11	O	1.660560	-0.219755	-0.309864
O12	O	1.466050	-0.219714	-0.504421
O13	O	1.660607	-0.283878	-0.846380
O14	O	1.465983	-0.283909	-0.651803
O15	O	1.808138	-0.219660	-0.846426
O16	O	1.807780	-0.368706	-0.504350
O17	O	1.660403	-0.368675	-0.651763
C18	C	1.422469	-0.251811	-0.578110
C19	C	1.289069	-0.251820	-0.578132
C20	C	1.734092	-0.387661	-0.578071
C21	C	1.734115	-0.445775	-0.578088
C22	C	1.811233	-0.806142	-0.501499
C23	C	1.811279	-0.860746	-0.501515
O24	O	1.876638	-0.888986	-0.436336
N25	N	1.734504	-0.888058	-0.578205
C26	C	1.657686	-0.860762	-0.654894
O27	O	1.592388	-0.889006	-0.720127
C28	C	1.657647	-0.806159	-0.654883
C29	C	1.734418	-0.778850	-0.578178
C30	C	1.887999	-0.778833	-0.424802
C31	C	1.887951	-0.724233	-0.424784
C32	C	1.811136	-0.696941	-0.501464
C33	C	1.734370	-0.724249	-0.578161
C34	C	1.580836	-0.778864	-0.731576
C35	C	1.580804	-0.724257	-0.731559
C36	C	1.657575	-0.696948	-0.654855
C37	C	1.657507	-0.642357	-0.654823
N38	N	1.734282	-0.615046	-0.578133
C39	C	1.811097	-0.642338	-0.501453
C40	C	1.657777	-0.975432	-0.654912
C41	C	1.657809	-1.030035	-0.654918
C42	C	1.811404	-1.030015	-0.501540
C43	C	1.811365	-0.975412	-0.501529
C44	C	1.734552	-0.948121	-0.578221
C45	C	1.810988	-0.527673	-0.501422
C46	C	1.810930	-0.473067	-0.501408
C47	C	1.657340	-0.473091	-0.654789
C48	C	1.657393	-0.527692	-0.654799
C49	C	1.734228	-0.554981	-0.578112
O50	O	1.592185	-0.614082	-0.719973
O51	O	1.876395	-0.614086	-0.436242
C52	C	2.047336	-0.251827	-0.578142
C53	C	2.180736	-0.251830	-0.578149
C54	C	1.734386	-0.251761	-0.891168
C55	C	1.734425	-0.251736	-1.024569
C56	C	1.734529	-0.115446	-0.578207
C57	C	1.734629	-0.057331	-0.578242
C58	C	1.734271	-0.251839	-0.266301
C59	C	1.734464	-0.251716	-0.132902
H60	H	1.873446	-0.450834	-0.438942
H61	H	1.873955	-1.052246	-0.439107
C62	C	1.572943	-0.557737	-0.739164
C63	C	1.436501	-0.550302	-0.729255
C64	C	1.352060	-0.580344	-0.813630
C65	C	1.404060	-0.617821	-0.907914
C66	C	1.540508	-0.625258	-0.917827
C67	C	1.624950	-0.595216	-0.833452
H68	H	1.398001	-0.522557	-0.659457
H69	H	1.251052	-0.574838	-0.806292
H70	H	1.341551	-0.640060	-0.970374
H71	H	1.579008	-0.653002	-0.987625
H72	H	1.725958	-0.600722	-0.840791
C73	C	1.573350	-1.060071	-0.739284
C74	C	1.488860	-1.030043	-0.823626
C75	C	1.404403	-1.060076	-0.908001
C76	C	1.404437	-1.120138	-0.908036
C77	C	1.488931	-1.150169	-0.823691
C78	C	1.573387	-1.120135	-0.739316
H79	H	1.488832	-0.985578	-0.823603
H80	H	1.341856	-1.037845	-0.970439
H81	H	1.341918	-1.142370	-0.970496
H82	H	1.488958	-1.194633	-0.823714
H83	H	1.635935	-1.142367	-0.676878
H84	H	1.595217	-0.953215	-0.717360
C85	C	1.972406	-0.694196	-0.340416
C86	C	2.066580	-0.656598	-0.392489
C87	C	2.151041	-0.626564	-0.308119
C88	C	2.141328	-0.634128	-0.171676
C89	C	2.047150	-0.671728	-0.119595
C90	C	1.962689	-0.701762	-0.203966
H91	H	2.073773	-0.650997	-0.493499
H92	H	2.220758	-0.598730	-0.346673
H93	H	2.203851	-0.611895	-0.109220
H94	H	2.039957	-0.677329	-0.018585
H95	H	1.892973	-0.729595	-0.165412
C96	C	1.496384	-0.808891	-0.815958
C97	C	1.402192	-0.846486	-0.763906
C98	C	1.317732	-0.876511	-0.848294
C99	C	1.327465	-0.868941	-0.984735
C100	C	1.421661	-0.831345	-1.036794
C101	C	1.506120	-0.801320	-0.952405
H102	H	1.394983	-0.852091	-0.662898
H103	H	1.248002	-0.904343	-0.809756
H104	H	1.264943	-0.891168	-1.047204
H105	H	1.428869	-0.825739	-1.137801
H106	H	1.575850	-0.773488	-0.990943
H107	H	1.594794	-0.450862	-0.717218
C108	C	1.895822	-0.945375	-0.417163
C109	C	1.886105	-0.952936	-0.280718
C110	C	1.970568	-0.922902	-0.196350
C111	C	2.064748	-0.885307	-0.248426
C112	C	2.074468	-0.877745	-0.384877
C113	C	1.990005	-0.907779	-0.469246
H114	H	1.816385	-0.980767	-0.242162
H115	H	1.963372	-0.928500	-0.095339
H116	H	2.127272	-0.863074	-0.185971
H117	H	2.144189	-0.849913	-0.423433
H118	H	1.997201	-0.902180	-0.570256
H119	H	1.518254	-0.702039	-0.794015
H120	H	1.873557	-0.549885	-0.438978
H121	H	1.950557	-0.801049	-0.362360
