data_functionalizedCrystal
_audit_creation_method	'MofGen! by Chris Wilmer'
_symmetry_space_group_name_H-M	'P1'
_symmetry_Int_Tables_number	1
_symmetry_cell_setting	triclinic
loop_
_symmetry_equiv_pos_as_xyz
  x,y,z
_cell_length_a	18.215407
_cell_length_b	18.215406
_cell_length_c	18.215399
_cell_angle_alpha	90.015166
_cell_angle_beta	89.979405
_cell_angle_gamma	89.999279
loop_
_atom_site_label
_atom_site_type_symbol
_atom_site_fract_x
_atom_site_fract_y
_atom_site_fract_z
Zn1	Zn	-1.125195	-0.292993	0.416196
Zn2	Zn	-0.791862	0.040340	0.749530
Zn3	Zn	-0.458528	0.373673	1.082863
Zn4	Zn	-1.125155	-0.416065	0.293157
Zn5	Zn	-0.791822	-0.082731	0.626491
Zn6	Zn	-0.458489	0.250602	0.959824
Zn7	Zn	-1.002128	-0.293016	0.293142
Zn8	Zn	-0.668794	0.040317	0.626475
Zn9	Zn	-0.335461	0.373650	0.959809
Zn10	Zn	-1.002145	-0.416022	0.416181
Zn11	Zn	-0.668812	-0.082689	0.749514
Zn12	Zn	-0.335479	0.250644	1.082847
O13	O	-1.063656	-0.354524	0.354669
O14	O	-0.730323	-0.021191	0.688002
O15	O	-0.396989	0.312143	1.021336
O16	O	-1.228174	-0.309327	0.399888
O17	O	-0.894841	0.024006	0.733221
O18	O	-0.561507	0.357340	1.066555
O19	O	-1.108811	-0.399769	0.190171
O20	O	-0.775478	-0.066436	0.523504
O21	O	-0.442145	0.266898	0.856838
O22	O	-1.018462	-0.190029	0.309465
O23	O	-0.685129	0.143304	0.642799
O24	O	-0.351796	0.476638	0.976132
O25	O	-1.228145	-0.399747	0.309492
O26	O	-0.894811	-0.066414	0.642825
O27	O	-0.561478	0.266920	0.976158
O28	O	-1.108879	-0.190012	0.399873
O29	O	-0.775546	0.143321	0.733206
O30	O	-0.442213	0.476655	1.066540
O31	O	-1.018424	-0.309366	0.190160
O32	O	-0.685090	0.023967	0.523493
O33	O	-0.351757	0.357301	0.856826
O34	O	-0.899146	-0.309325	0.309450
O35	O	-0.565812	0.024008	0.642784
O36	O	-0.232479	0.357341	0.976117
O37	O	-1.018492	-0.399675	0.519167
O38	O	-0.685159	-0.066342	0.852500
O39	O	-0.351826	0.266992	1.185834
O40	O	-0.899159	-0.399697	0.399846
O41	O	-0.565825	-0.066364	0.733180
O42	O	-0.232492	0.266969	1.066513
O43	O	-1.108896	-0.309286	0.519178
O44	O	-0.775563	0.024047	0.852512
O45	O	-0.442230	0.357381	1.185845
O46	O	-1.108828	-0.519043	0.309477
O47	O	-0.775495	-0.185710	0.642810
O48	O	-0.442162	0.147623	0.976143
O49	O	-1.018454	-0.519012	0.399861
O50	O	-0.685120	-0.185679	0.733195
O51	O	-0.351787	0.147654	1.066528
C52	C	-0.872450	-0.354510	0.354645
C53	C	-0.539116	-0.021176	0.687979
C54	C	-0.205783	0.312157	1.021312
C55	C	-0.790651	-0.354521	0.354653
C56	C	-0.457317	-0.021188	0.687986
C57	C	-0.123984	0.312145	1.021319
C58	C	-1.063659	-0.545730	0.354685
C59	C	-0.730325	-0.212397	0.688018
C60	C	-0.396992	0.120936	1.021352
C61	C	-1.063727	-0.627529	0.354717
C62	C	-0.730394	-0.294196	0.688050
C63	C	-0.397060	0.039137	1.021383
C64	C	-0.602483	-0.401650	0.401660
C65	C	-0.269149	-0.068317	0.734994
C66	C	0.064184	0.265016	1.068327
C67	C	-0.525624	-0.401652	0.401669
C68	C	-0.192291	-0.068319	0.735002
C69	C	0.141043	0.265015	1.068335
C70	C	-0.525581	-0.307402	0.307681
C71	C	-0.192248	0.025931	0.641014
C72	C	0.141086	0.359265	0.974347
C73	C	-0.602438	-0.307397	0.307677
C74	C	-0.269105	0.025936	0.641010
C75	C	0.064228	0.359269	0.974343
C76	C	-0.640887	-0.354526	0.354665
C77	C	-0.307554	-0.021192	0.687999
C78	C	0.025779	0.312141	1.021332
C79	C	-0.487171	-0.354532	0.354678
C80	C	-0.153838	-0.021199	0.688011
C81	C	0.179496	0.312135	1.021344
C82	C	-0.403837	-0.354533	0.354686
C83	C	-0.070504	-0.021200	0.688019
C84	C	0.262829	0.312133	1.021353
C85	C	-0.724226	-0.354523	0.354658
C86	C	-0.390893	-0.021190	0.687992
C87	C	-0.057560	0.312143	1.021325
C88	C	-1.063701	-0.354473	0.546622
C89	C	-0.730367	-0.021140	0.879955
C90	C	-0.397034	0.312193	1.213289
C91	C	-1.063720	-0.354452	0.628421
C92	C	-0.730386	-0.021118	0.961754
C93	C	-0.397053	0.312215	1.295088
C94	C	-0.255609	-0.354537	0.354690
C95	C	0.077725	-0.021203	0.688023
C96	C	0.411058	0.312130	1.021357
C97	C	-0.337408	-0.354536	0.354690
C98	C	-0.004074	-0.021203	0.688024
C99	C	0.329259	0.312130	1.021357
C100	C	-1.063673	-0.162571	0.354669
C101	C	-0.730340	0.170762	0.688003
C102	C	-0.397007	0.504095	1.021336
C103	C	-1.063681	-0.080772	0.354669
C104	C	-0.730347	0.252561	0.688003
C105	C	-0.397014	0.585894	1.021336
C106	C	-1.016624	0.107414	0.307621
C107	C	-0.683290	0.440747	0.640954
C108	C	-0.349957	0.774081	0.974287
C109	C	-1.016630	0.184273	0.307629
C110	C	-0.683297	0.517606	0.640963
C111	C	-0.349963	0.850939	0.974296
C112	C	-1.110786	0.184279	0.401770
C113	C	-0.777453	0.517612	0.735104
C114	C	-0.444119	0.850946	1.068437
C115	C	-1.110776	0.107422	0.401765
C116	C	-0.777442	0.440755	0.735098
C117	C	-0.444109	0.774088	1.068431
C118	C	-1.063696	0.068991	0.354685
C119	C	-0.730362	0.402325	0.688019
C120	C	-0.397029	0.735658	1.021352
C121	C	-1.063712	0.222707	0.354700
C122	C	-0.730379	0.556041	0.688034
C123	C	-0.397045	0.889374	1.021367
C124	C	-1.063719	0.306041	0.354710
C125	C	-0.730386	0.639374	0.688044
C126	C	-0.397052	0.972708	1.021377
C127	C	-1.063687	-0.014348	0.354676
C128	C	-0.730354	0.318986	0.688010
C129	C	-0.397021	0.652319	1.021343
C130	C	-1.063654	-0.354522	0.163463
C131	C	-0.730320	-0.021188	0.496796
C132	C	-0.396987	0.312145	0.830130
C133	C	-1.063777	-0.354336	0.081664
C134	C	-0.730444	-0.021003	0.414998
C135	C	-0.397110	0.312331	0.748331
C136	C	-1.110810	-0.307342	0.816622
C137	C	-0.777477	0.025991	1.149956
C138	C	-0.444143	0.359324	1.483289
C139	C	-1.110819	-0.307321	0.893481
C140	C	-0.777486	0.026013	1.226814
C141	C	-0.444152	0.359346	1.560148
C142	C	-1.016681	-0.401447	0.893458
C143	C	-0.683348	-0.068114	1.226791
C144	C	-0.350015	0.265219	1.560124
C145	C	-1.016669	-0.401465	0.816600
C146	C	-0.683336	-0.068131	1.149934
C147	C	-0.350003	0.265202	1.483267
C148	C	-1.063738	-0.354413	0.778185
C149	C	-0.730405	-0.021080	1.111518
C150	C	-0.397071	0.312254	1.444851
C151	C	-1.063759	-0.354374	0.931901
C152	C	-0.730425	-0.021041	1.265234
C153	C	-0.397092	0.312292	1.598567
C154	C	-1.063768	-0.354352	1.015234
C155	C	-0.730435	-0.021018	1.348568
C156	C	-0.397101	0.312315	1.681901
C157	C	-1.063728	-0.354435	0.694846
C158	C	-0.730395	-0.021102	1.028179
C159	C	-0.397061	0.312232	1.361512
H160	H	-0.633786	-0.440023	0.439924
H161	H	-0.300452	-0.106690	0.773257
H162	H	0.032881	0.226643	1.106590
F163	F	-1.160874	0.066527	0.451865
F164	F	-0.827541	0.399860	0.785198
F165	F	-0.494207	0.733194	1.118532
H166	H	-1.149134	-0.269028	0.785346
H167	H	-0.815801	0.064306	1.118680
H168	H	-0.482468	0.397639	1.452013
H169	H	-1.149118	0.215577	0.440100
H170	H	-0.815785	0.548910	0.773433
H171	H	-0.482452	0.882244	1.106767
H172	H	-1.149149	-0.268990	0.924773
H173	H	-0.815815	0.064344	1.258107
H174	H	-0.482482	0.397677	1.591440
F175	F	-0.966526	0.225162	0.257540
F176	F	-0.633193	0.558495	0.590873
F177	F	-0.299860	0.891829	0.924206
H178	H	-0.978362	-0.439757	0.924745
H179	H	-0.645028	-0.106423	1.258079
H180	H	-0.311695	0.226910	1.591412
F181	F	-0.966563	-0.451563	0.775690
F182	F	-0.633229	-0.118230	1.109023
F183	F	-0.299896	0.215103	1.442357
H184	H	-0.494359	-0.440025	0.439938
H185	H	-0.161025	-0.106691	0.773271
H186	H	0.172308	0.226642	1.106604
H187	H	-0.633708	-0.269018	0.269408
H188	H	-0.300375	0.064315	0.602741
H189	H	0.032959	0.397649	0.936074
F190	F	-0.484654	-0.257249	0.257674
F191	F	-0.151321	0.076085	0.591007
F192	F	0.182012	0.409418	0.924340
F193	F	-0.966515	0.066516	0.257517
F194	F	-0.633182	0.399849	0.590850
F195	F	-0.299849	0.733183	0.924183
