data_functionalizedCrystal
_audit_creation_method	'MofGen! by Chris Wilmer'
_symmetry_space_group_name_H-M	'P1'
_symmetry_Int_Tables_number	1
_symmetry_cell_setting	triclinic
loop_
_symmetry_equiv_pos_as_xyz
  x,y,z
_cell_length_a	12.837943
_cell_length_b	12.837942
_cell_length_c	7.540329
_cell_angle_alpha	89.996889
_cell_angle_beta	89.998130
_cell_angle_gamma	94.828940
loop_
_atom_site_label
_atom_site_type_symbol
_atom_site_fract_x
_atom_site_fract_y
_atom_site_fract_z
O1	O	1.402333	0.272139	-0.147449
O2	O	1.099200	0.258695	-0.147460
O3	O	1.244045	0.113850	-0.147444
O4	O	1.257488	0.416984	-0.147465
O5	O	1.244035	0.113847	0.147521
O6	O	1.099190	0.258692	0.147505
O7	O	1.402324	0.272136	0.147516
Cu8	Cu	1.250756	0.265414	0.174443
Cu9	Cu	1.250768	0.265417	-0.174387
O10	O	1.257479	0.416981	0.147500
C11	C	1.060126	0.254153	0.000022
C12	C	0.943711	0.240608	0.000018
C13	C	1.239499	0.074780	0.000038
C14	C	1.225954	-0.041635	0.000034
C15	C	0.718837	0.403437	0.000032
C16	C	0.609454	0.390716	0.000029
C17	C	0.615562	0.202445	0.000024
C18	C	0.724944	0.215166	0.000026
C19	C	0.776578	0.315666	0.000027
C20	C	0.885962	0.328386	0.000017
C21	C	0.892067	0.140116	0.000024
C22	C	0.782685	0.127395	0.000022
C23	C	1.388784	-0.266510	0.000003
C24	C	1.376062	-0.375892	-0.000001
C25	C	1.187791	-0.369785	0.000011
C26	C	1.200513	-0.260402	0.000015
C27	C	1.301012	-0.208769	0.000013
C28	C	1.313732	-0.099384	0.000029
C29	C	1.125462	-0.093279	0.000029
C30	C	1.112741	-0.202661	0.000025
C31	C	1.441398	0.276679	0.000031
C32	C	1.557813	0.290223	0.000023
C33	C	1.262025	0.456052	0.000015
C34	C	1.275569	0.572467	0.000006
N35	N	1.250756	0.265412	0.419792
N36	N	1.250776	0.265412	-0.419736
H37	H	0.928000	0.410218	0.000021
O38	O	0.732689	0.029701	0.000088
C39	C	0.750292	-0.155695	-0.000060
C40	C	0.807042	-0.045116	-0.000082
H41	H	0.810381	-0.216215	-0.000235
H42	H	0.699262	-0.166440	0.123409
H43	H	0.699208	-0.166290	-0.123476
H44	H	0.858180	-0.034444	0.123250
H45	H	0.858007	-0.034422	-0.123633
H46	H	0.760878	0.485268	0.000030
H47	H	1.030917	-0.244717	0.000020
H48	H	1.053992	-0.046254	0.000051
O49	O	1.090155	-0.419908	-0.000319
C50	C	0.925339	-0.448116	-0.153103
C51	C	1.035889	-0.391301	-0.152963
H52	H	0.881426	-0.424992	-0.276483
H53	H	0.931274	-0.536222	-0.153235
H54	H	0.881449	-0.425139	-0.029604
H55	H	1.079841	-0.414192	-0.276441
H56	H	1.029880	-0.303208	-0.152739
H57	H	1.447536	-0.422901	-0.000015
H58	H	0.562446	0.462189	0.000038
O59	O	0.565508	0.104777	-0.000209
C60	C	0.537183	-0.059999	-0.153076
C61	C	0.593956	0.050569	-0.153012
H62	H	0.560145	-0.103850	-0.276623
H63	H	0.560212	-0.103997	-0.029721
H64	H	0.449092	-0.053976	-0.152983
H65	H	0.682058	0.044642	-0.153168
H66	H	0.570841	0.094525	-0.276356
H67	H	0.939092	0.068646	0.000008
H68	H	1.395564	-0.057346	0.000035
H69	H	1.470614	-0.224469	0.000019
