data_functionalizedCrystal
_audit_creation_method	'MofGen! by Chris Wilmer'
_symmetry_space_group_name_H-M	'P1'
_symmetry_Int_Tables_number	1
_symmetry_cell_setting	triclinic
loop_
_symmetry_equiv_pos_as_xyz
  x,y,z
_cell_length_a	10.967926
_cell_length_b	14.519731
_cell_length_c	10.065875
_cell_angle_alpha	98.805316
_cell_angle_beta	93.120479
_cell_angle_gamma	84.211611
loop_
_atom_site_label
_atom_site_type_symbol
_atom_site_fract_x
_atom_site_fract_y
_atom_site_fract_z
O1	O	1.613252	0.160830	0.265929
O2	O	1.263214	0.163463	0.183600
O3	O	1.447499	0.028218	0.226956
O4	O	1.428968	0.296075	0.222573
O5	O	1.412359	0.054116	0.445678
O6	O	1.228074	0.189361	0.402321
O7	O	1.578112	0.186728	0.484651
Zn8	Zn	1.397514	0.192156	0.478213
Zn9	Zn	1.443813	0.158035	0.190038
O10	O	1.393828	0.321973	0.441294
C11	C	1.200846	0.174264	0.282424
C12	C	1.067361	0.167851	0.251028
C13	C	0.989646	0.178408	0.350335
C14	C	0.851682	0.171780	0.317889
C15	C	1.429060	0.006779	0.336113
C16	C	1.426458	-0.095688	0.335502
C17	C	1.424344	-0.178902	0.335001
C18	C	1.421703	-0.283300	0.334370
C19	C	1.419607	-0.366509	0.333868
C20	C	1.416966	-0.470913	0.333239
C21	C	1.640481	0.175927	0.385824
C22	C	1.773967	0.182339	0.417210
C23	C	1.412267	0.343412	0.332135
C24	C	1.414871	0.445877	0.332737
N25	N	1.365925	0.215443	0.674886
N26	N	1.475411	0.134741	-0.006634
C27	C	1.432814	0.166131	0.758402
C28	C	1.408512	0.184060	0.909852
H29	H	0.809563	0.196281	0.526260
N30	N	1.020210	0.149372	0.106589
H31	H	0.959389	0.203050	0.086838
H32	H	1.091094	0.143213	0.044866
H33	H	1.550670	0.079242	0.952752
H34	H	1.508069	0.110635	0.717783
N35	N	1.308807	0.257565	0.963632
H36	H	1.305576	0.259953	1.064199
H37	H	1.326912	0.320610	0.942980
H38	H	0.816085	0.157832	0.208841
N39	N	1.266225	0.288944	0.728673
H40	H	1.262994	0.291332	0.829239
H41	H	1.284330	0.351989	0.708021
H42	H	1.025250	0.192347	0.459377
