data_functionalizedCrystal
_audit_creation_method	'MofGen! by Chris Wilmer'
_symmetry_space_group_name_H-M	'P1'
_symmetry_Int_Tables_number	1
_symmetry_cell_setting	triclinic
loop_
_symmetry_equiv_pos_as_xyz
  x,y,z
_cell_length_a	17.640280
_cell_length_b	12.759401
_cell_length_c	12.759393
_cell_angle_alpha	90.018496
_cell_angle_beta	101.231878
_cell_angle_gamma	78.801088
loop_
_atom_site_label
_atom_site_type_symbol
_atom_site_fract_x
_atom_site_fract_y
_atom_site_fract_z
Zn1	Zn	-0.314620	1.690815	0.509515
Zn2	Zn	-0.446817	1.726240	0.298344
Zn3	Zn	-0.314662	1.515128	0.333843
Zn4	Zn	-0.446756	1.550620	0.474002
O5	O	-0.380714	1.620701	0.403926
O6	O	-0.332165	1.842537	0.481509
O7	O	-0.429329	1.698207	0.156021
O8	O	-0.204049	1.508755	0.386865
O9	O	-0.429289	1.868564	0.326362
O10	O	-0.204019	1.637831	0.515931
O11	O	-0.332235	1.543105	0.182102
O12	O	-0.332176	1.372813	0.352430
O13	O	-0.429185	1.569245	0.625745
O14	O	-0.429226	1.398888	0.455404
O15	O	-0.332106	1.672246	0.651837
O16	O	-0.557416	1.732622	0.291927
O17	O	-0.557371	1.603595	0.420982
C18	C	-0.380699	1.347729	0.403916
C19	C	-0.380712	1.230956	0.403931
C20	C	-0.586073	1.675832	0.348771
C21	C	-0.673926	1.699514	0.325211
C22	C	-0.431327	1.189721	0.457417
C23	C	-0.431337	1.079999	0.457425
C24	C	-0.330115	1.052758	0.350454
C25	C	-0.330102	1.162476	0.350453
C26	C	-0.489768	1.205448	0.519172
C27	C	-0.489778	1.095727	0.519181
C28	C	-0.962886	1.441225	0.583293
C29	C	-1.045438	1.463480	0.561121
C30	C	-1.045419	1.597919	0.426872
C31	C	-0.962866	1.575680	0.449037
C32	C	-0.921606	1.497331	0.527247
C33	C	-0.921585	1.631785	0.392991
C34	C	-0.839039	1.609543	0.415150
C35	C	-0.797773	1.531196	0.493355
C36	C	-0.839060	1.475089	0.549406
C37	C	-0.962847	1.710129	0.314775
C38	C	-0.921566	1.766234	0.258729
C39	C	-0.839018	1.743998	0.280893
C40	C	-0.797753	1.665650	0.359098
C41	C	-0.797732	1.800105	0.224841
C42	C	-0.715186	1.777863	0.247000
C43	C	-0.715207	1.643408	0.381257
C44	C	-0.174553	1.565383	0.459319
C45	C	-0.086700	1.541809	0.482925
C46	C	-0.380634	1.620753	0.677981
C47	C	-0.380600	1.620775	0.794767
C48	C	-0.380729	1.894738	0.403937
C49	C	-0.380736	2.011516	0.403942
C50	C	-0.380736	1.620694	0.130953
C51	C	-0.380548	1.620815	0.014227
C52	C	-0.330046	1.674416	0.863218
C53	C	-0.330017	1.674433	0.972949
C54	C	-0.431104	1.567168	0.945768
C55	C	-0.431128	1.567145	0.836040
C56	C	-0.271687	1.736348	0.878911
C57	C	-0.271658	1.736365	0.988643
H58	H	-0.288882	1.196043	0.306908
Cl59	Cl	-0.296959	1.868794	1.027834
H60	H	-0.473444	1.230869	0.604961
H61	H	-0.293631	1.819518	0.838983
H62	H	-0.213497	1.691620	1.038305
H63	H	-0.288910	0.996989	0.306915
Cl64	Cl	-0.911010	1.342738	0.681627
Cl65	Cl	-0.494672	1.499688	0.749993
Cl66	Cl	-0.973443	1.864729	0.160413
H67	H	-0.547887	1.255083	0.474284
H68	H	-0.467928	1.055857	0.602399
Cl69	Cl	-0.663331	1.544920	0.479591
Cl70	Cl	-0.584257	1.075109	0.459919
H71	H	-0.805464	1.411297	0.613101
H72	H	-0.472240	1.523501	0.979387
H73	H	-0.730559	1.513080	0.511388
Cl74	Cl	-0.177184	1.677339	0.858333
Cl75	Cl	-1.097331	1.392926	0.631577
H76	H	-1.030061	1.728238	0.296739
Cl77	Cl	-1.097296	1.696414	0.328557
Cl78	Cl	-0.849612	1.898589	0.126517
Cl79	Cl	-0.663287	1.848386	0.176532
