data_functionalizedCrystal
_audit_creation_method	'MofGen! by Chris Wilmer'
_symmetry_space_group_name_H-M	'P1'
_symmetry_Int_Tables_number	1
_symmetry_cell_setting	triclinic
loop_
_symmetry_equiv_pos_as_xyz
  x,y,z
_cell_length_a	13.032831
_cell_length_b	25.639239
_cell_length_c	13.033245
_cell_angle_alpha	97.202010
_cell_angle_beta	90.890961
_cell_angle_gamma	82.842759
loop_
_atom_site_label
_atom_site_type_symbol
_atom_site_fract_x
_atom_site_fract_y
_atom_site_fract_z
Zn1	Zn	1.498170	-0.253975	0.780786
Zn2	Zn	1.998170	0.246025	1.280786
Zn3	Zn	1.519873	-0.353702	0.608775
Zn4	Zn	2.019873	0.146298	1.108775
Zn5	Zn	1.348060	-0.256728	0.587022
Zn6	Zn	1.848060	0.243272	1.087022
Zn7	Zn	1.326110	-0.331820	0.758910
Zn8	Zn	1.826110	0.168180	1.258910
O9	O	1.423053	-0.299056	0.683873
O10	O	1.923053	0.200944	1.183873
O11	O	1.644961	-0.275210	0.776228
O12	O	2.144961	0.224790	1.276228
O13	O	1.515350	-0.351148	0.461967
O14	O	2.015350	0.148852	0.961967
O15	O	1.368076	-0.183201	0.612776
O16	O	1.868076	0.316799	1.112776
O17	O	1.660906	-0.348479	0.649852
O18	O	2.160906	0.151521	1.149852
O19	O	1.478361	-0.181179	0.755134
O20	O	1.978361	0.318821	1.255134
O21	O	1.389119	-0.279902	0.445984
O22	O	1.889119	0.220098	0.945984
O23	O	1.201236	-0.258684	0.591564
O24	O	1.701236	0.241316	1.091564
O25	O	1.330666	-0.311183	0.905735
O26	O	1.830666	0.188817	1.405735
O27	O	1.185110	-0.313853	0.717849
O28	O	1.685110	0.186147	1.217849
O29	O	1.457078	-0.253992	0.921807
O30	O	1.957078	0.246008	1.421807
O31	O	1.494066	-0.423961	0.628640
O32	O	1.994066	0.076039	1.128640
O33	O	1.351710	-0.407884	0.738943
O34	O	1.851710	0.092116	1.238943
C35	C	1.155858	-0.284193	0.649973
C36	C	1.655858	0.215807	1.149973
C37	C	1.041548	-0.277845	0.635494
C38	C	1.541548	0.222155	1.135494
C39	C	0.982645	-0.302369	0.691429
C40	C	1.482645	0.197631	1.191429
C41	C	0.864500	-0.295809	0.676467
C42	C	1.364500	0.204191	1.176467
C43	C	1.422886	-0.434893	0.683804
C44	C	1.922886	0.065107	1.183804
C45	C	1.422905	-0.493007	0.683821
C46	C	1.922905	0.006993	1.183821
C47	C	1.497335	-0.861736	0.626572
C48	C	1.997335	-0.361736	1.126572
C49	C	1.497374	-0.916342	0.626591
C50	C	1.997374	-0.416342	1.126591
O51	O	1.560485	-0.951685	0.577842
O52	O	2.060485	-0.451685	1.077842
N53	N	1.423225	-0.935300	0.683964
N54	N	1.923225	-0.435300	1.183964
C55	C	1.349041	-0.899650	0.741331
C56	C	1.849041	-0.399650	1.241331
O57	O	1.285976	-0.920790	0.790134
O58	O	1.785976	-0.420790	1.290134
C59	C	1.349008	-0.845046	0.741317
C60	C	1.849008	-0.345046	1.241317
C61	C	1.423155	-0.826090	0.683932
C62	C	1.923155	-0.326090	1.183932
C63	C	1.571477	-0.842780	0.569192
C64	C	2.071477	-0.342780	1.069192
C65	C	1.571437	-0.788178	0.569172
C66	C	2.071437	-0.288178	1.069172
C67	C	1.497256	-0.752532	0.626532
C68	C	1.997256	-0.252532	1.126532
C69	C	1.423115	-0.771489	0.683912
C70	C	1.923115	-0.271489	1.183912
C71	C	1.274828	-0.809397	0.798689
C72	C	1.774828	-0.309397	1.298689
C73	C	1.274803	-0.754789	0.798671
C74	C	1.774803	-0.254789	1.298671
C75	C	1.348949	-0.735834	0.741286
C76	C	1.848949	-0.235834	1.241286
C77	C	1.348894	-0.681241	0.741251
C78	C	1.848894	-0.181241	1.241251
N79	N	1.423043	-0.662282	0.683878
N80	N	1.923043	-0.162282	1.183878
C81	C	1.497224	-0.697928	0.626518
C82	C	1.997224	-0.197928	1.126518
C83	C	1.349116	-1.014324	0.741356
C84	C	1.849116	-0.514324	1.241356
C85	C	1.349143	-1.068928	0.741365
C86	C	1.849143	-0.568928	1.241365
C87	C	1.497478	-1.085615	0.626626
C88	C	1.997478	-0.585615	1.126626
C89	C	1.497445	-1.031011	0.626613
C90	C	1.997445	-0.531011	1.126613
C91	C	1.423264	-0.995365	0.683983
C92	C	1.923264	-0.495365	1.183983
C93	C	1.497134	-0.583260	0.626480
C94	C	1.997134	-0.083260	1.126480
C95	C	1.497086	-0.528652	0.626461
C96	C	1.997086	-0.028652	1.126461
C97	C	1.348755	-0.511970	0.741204
C98	C	1.848755	-0.011970	1.241204
C99	C	1.348800	-0.566572	0.741218
C100	C	1.848800	-0.066572	1.241218
C101	C	1.422998	-0.602217	0.683854
C102	C	1.922998	-0.102217	1.183854
O103	O	1.285818	-0.645866	0.789979
O104	O	1.785818	-0.145866	1.289979
O105	O	1.560286	-0.676780	0.577734
O106	O	2.060286	-0.176780	1.077734
C107	C	1.691292	-0.313978	0.717907
C108	C	2.191292	0.186022	1.217907
C109	C	1.805599	-0.320337	0.732410
C110	C	2.305599	0.179663	1.232410
C111	C	1.389003	-0.279839	0.952132
C112	C	1.889003	0.220161	1.452132
C113	C	1.374493	-0.271650	1.066448
C114	C	1.874493	0.228350	1.566448
C115	C	1.423246	-0.162689	0.683969
C116	C	1.923246	0.337311	1.183969
C117	C	1.423328	-0.104578	0.684009
C118	C	1.923328	0.395422	1.184009
C119	C	1.415489	-0.294795	1.243469
C120	C	1.915489	0.205205	1.743469
C121	C	1.430487	-0.303256	1.125318
C122	C	1.930487	0.196744	1.625318
C123	C	1.456964	-0.318209	1.416657
C124	C	1.956964	0.181791	1.916657
C125	C	1.471476	-0.326396	1.302341
C126	C	1.971476	0.173604	1.802341
H127	H	1.004509	-0.251990	0.576533
H128	H	1.504509	0.248010	1.076533
H129	H	1.557556	-0.612276	0.579771
H130	H	2.057556	-0.112276	1.079771
H131	H	1.530515	-0.359713	1.265274
H132	H	2.030515	0.140287	1.765274
H133	H	0.842630	-0.346188	0.791386
H134	H	1.342630	0.153812	1.291386
H135	H	1.288426	-0.582006	0.787950
H136	H	1.788426	-0.082006	1.287950
H137	H	1.214446	-0.824820	0.845413
H138	H	1.714446	-0.324820	1.345413
C139	C	1.652998	-0.767335	0.506034
C140	C	2.152998	-0.267335	1.006034
N141	N	1.714432	-0.751640	0.458472
N142	N	2.214432	-0.251640	0.958472
H143	H	1.019683	-0.328220	0.750398
H144	H	1.519683	0.171780	1.250398
C145	C	1.335736	-0.249780	1.293542
C146	C	1.835736	0.250220	1.793542
N147	N	1.275663	-0.215874	1.331255
N148	N	1.775663	0.284126	1.831255
H149	H	0.827465	-0.269952	0.617501
H150	H	1.327465	0.230048	1.117501
H151	H	1.557465	-0.513222	0.579728
H152	H	2.057465	-0.013222	1.079728
H153	H	1.631890	-0.871798	0.522484
H154	H	2.131890	-0.371798	1.022484
C155	C	1.294731	-0.226635	1.116513
C156	C	1.794731	0.273365	1.616513
N157	N	1.234654	-0.192730	1.154223
N158	N	1.734654	0.307270	1.654223
H159	H	1.214396	-0.725768	0.845392
H160	H	1.714396	-0.225768	1.345392
C161	C	1.579014	-1.010165	0.563489
C162	C	2.079014	-0.510165	1.063489
N163	N	1.640457	-0.994468	0.515942
N164	N	2.140457	-0.494468	1.015942
H165	H	1.489530	-0.336575	1.088255
H166	H	1.989530	0.163425	1.588255
H167	H	1.288757	-1.084356	0.788083
H168	H	1.788757	-0.584356	1.288083
H169	H	1.288355	-0.482939	0.787902
H170	H	1.788355	0.017061	1.287902
C171	C	1.579086	-1.124836	0.563538
C172	C	2.079086	-0.624836	1.063538
N173	N	1.640551	-1.154378	0.516025
N174	N	2.140551	-0.654378	1.016025
C175	C	1.267510	-0.975118	0.804478
C176	C	1.767510	-0.475118	1.304478
N177	N	1.206048	-0.945590	0.852027
N178	N	1.706048	-0.445590	1.352027
