data_functionalizedCrystal
_audit_creation_method	'MofGen! by Chris Wilmer'
_symmetry_space_group_name_H-M	'P1'
_symmetry_Int_Tables_number	1
_symmetry_cell_setting	triclinic
loop_
_symmetry_equiv_pos_as_xyz
  x,y,z
_cell_length_a	8.559649
_cell_length_b	23.532407
_cell_length_c	7.681481
_cell_angle_alpha	84.289450
_cell_angle_beta	94.913240
_cell_angle_gamma	76.313671
loop_
_atom_site_label
_atom_site_type_symbol
_atom_site_fract_x
_atom_site_fract_y
_atom_site_fract_z
O1	O	2.105234	-0.013278	-0.146397
O2	O	1.639561	0.016154	-0.146414
O3	O	1.886443	-0.082081	-0.146373
O4	O	1.858352	0.084957	-0.146438
O5	O	1.916831	-0.094196	0.146490
O6	O	1.669949	0.004039	0.146449
O7	O	2.135622	-0.025394	0.146466
Zn8	Zn	1.907610	-0.012601	0.192956
Zn9	Zn	1.867573	0.003362	-0.192904
O10	O	1.888739	0.072842	0.146425
C11	C	1.595190	0.012327	0.000016
C12	C	1.417704	0.018967	0.000010
C13	C	1.900922	-0.109325	0.000063
C14	C	1.898774	-0.172453	0.000077
C15	C	2.031375	-0.577085	-0.000015
C16	C	2.029376	-0.636401	-0.000028
O17	O	2.152301	-0.678272	-0.000089
N18	N	1.882607	-0.652904	-0.000032
C19	C	1.737825	-0.610085	-0.000041
O20	O	1.612803	-0.629568	-0.000048
C21	C	1.739824	-0.550770	-0.000040
C22	C	1.886605	-0.534272	-0.000018
C23	C	2.178143	-0.560586	0.000005
C24	C	2.180142	-0.501274	0.000022
C25	C	2.035372	-0.458460	0.000019
C26	C	1.888603	-0.474960	-0.000002
C27	C	1.595043	-0.507952	-0.000062
C28	C	1.597055	-0.448633	-0.000062
C29	C	1.743835	-0.432135	-0.000040
C30	C	1.745832	-0.372834	0.000012
N31	N	1.892601	-0.356332	0.000016
C32	C	2.037371	-0.399145	0.000019
C33	C	1.733637	-0.734653	-0.000046
C34	C	1.731638	-0.793968	-0.000034
C35	C	2.023189	-0.820279	-0.000025
C36	C	2.025188	-0.760964	-0.000024
C37	C	1.880407	-0.718150	-0.000042
C38	C	2.041557	-0.274584	0.000056
C39	C	2.043544	-0.215266	0.000080
C40	C	1.751992	-0.188959	0.000061
C41	C	1.750006	-0.248272	0.000046
C42	C	1.894801	-0.291084	0.000038
O43	O	1.622970	-0.330931	0.000065
O44	O	2.162370	-0.379651	0.000003
C45	C	2.179993	-0.021566	0.000033
C46	C	2.357478	-0.028205	0.000026
C47	C	1.874260	0.100086	-0.000015
C48	C	1.876408	0.163214	-0.000040
N49	N	1.934946	-0.023496	0.456295
N50	N	1.840250	0.014252	-0.456243
H51	H	2.163075	-0.201838	0.000103
O52	O	1.725085	0.060285	0.454120
C53	C	1.624275	0.165803	0.397427
C54	C	1.754822	0.113725	0.499031
H55	H	1.648252	0.209022	0.433728
H56	H	1.627822	0.164433	0.249853
H57	H	1.500022	0.162505	0.433574
H58	H	1.879138	0.116990	0.463032
H59	H	1.751132	0.115113	0.646581
O60	O	2.050194	-0.069531	0.545829
C61	C	2.150876	-0.175051	0.602691
C62	C	2.020287	-0.122972	0.501152
H63	H	2.126723	-0.218272	0.566635
H64	H	2.275175	-0.171833	0.566488
H65	H	2.147345	-0.173601	0.750234
H66	H	2.023669	-0.124390	0.353586
H67	H	1.896047	-0.126209	0.537502
O68	O	1.317451	0.073258	-0.000093
C69	C	1.295260	0.177263	-0.000025
C70	C	1.408971	0.115817	0.000051
H71	H	1.369212	0.211687	0.000128
H72	H	1.203508	0.187896	-0.122624
H73	H	1.228873	0.177687	0.122502
H74	H	1.475468	0.115347	-0.122393
H75	H	1.500622	0.105208	0.122730
O76	O	1.457706	-0.082487	-0.000030
C77	C	1.479928	-0.186501	0.000116
C78	C	1.366222	-0.125060	0.000140
H79	H	1.406014	-0.220939	0.000290
H80	H	1.546242	-0.186990	-0.122473
H81	H	1.571740	-0.197062	0.122652
H82	H	1.274318	-0.114460	-0.122313
H83	H	1.300026	-0.124602	0.122810
H84	H	1.475518	-0.521372	-0.000090
O85	O	2.182289	-0.316103	-0.000179
C86	C	2.415095	-0.350465	-0.151927
C87	C	2.255774	-0.303398	-0.151875
H88	H	2.474536	-0.340217	-0.274578
H89	H	2.500180	-0.350359	-0.029436
H90	H	2.388450	-0.395695	-0.151854
H91	H	2.282266	-0.258146	-0.152010
H92	H	2.170737	-0.303557	-0.274354
H93	H	2.299665	-0.487847	0.000033
H94	H	2.296039	-0.595440	0.000002
H95	H	2.144710	-0.747536	-0.000007
O96	O	1.592859	-0.693110	-0.000272
C97	C	1.328565	-0.646173	-0.152043
C98	C	1.487895	-0.693246	-0.151982
H99	H	1.243671	-0.646259	-0.274706
H100	H	1.268895	-0.656427	-0.029564
H101	H	1.355229	-0.600951	-0.151954
H102	H	1.461370	-0.738486	-0.152133
H103	H	1.547518	-0.682941	-0.274451
O104	O	1.456537	-0.407002	0.000159
C105	C	1.305268	-0.331075	0.151933
C106	C	1.464495	-0.378189	0.151876
H107	H	1.311635	-0.307775	0.274601
H108	H	1.286184	-0.297532	0.029459
H109	H	1.200048	-0.353070	0.151830
H110	H	1.569811	-0.356245	0.152041
H111	H	1.483437	-0.411727	0.274339
H112	H	2.141068	-0.855149	-0.000029
H113	H	1.612118	-0.807395	-0.000022
H114	H	1.630490	-0.261707	0.000077
H115	H	1.634125	-0.154090	0.000065
