data_functionalizedCrystal
_audit_creation_method	'MofGen! by Chris Wilmer'
_symmetry_space_group_name_H-M	'P1'
_symmetry_Int_Tables_number	1
_symmetry_cell_setting	triclinic
loop_
_symmetry_equiv_pos_as_xyz
  x,y,z
_cell_length_a	12.811457
_cell_length_b	15.995343
_cell_length_c	11.295483
_cell_angle_alpha	94.090285
_cell_angle_beta	91.289320
_cell_angle_gamma	83.768102
loop_
_atom_site_label
_atom_site_type_symbol
_atom_site_fract_x
_atom_site_fract_y
_atom_site_fract_z
O1	O	1.389016	0.115659	0.050965
O2	O	1.085773	0.126067	0.018213
O3	O	1.245686	-0.000944	0.035507
O4	O	1.229102	0.242670	0.033671
O5	O	1.231641	0.010194	0.232039
O6	O	1.071727	0.137205	0.214745
O7	O	1.374970	0.126797	0.247497
Cu8	Cu	1.222066	0.133018	0.249066
Cu9	Cu	1.238677	0.119846	0.016644
O10	O	1.215057	0.253808	0.230203
C11	C	1.039946	0.130712	0.112289
C12	C	0.924321	0.127947	0.099801
C13	C	0.691736	0.134879	0.290620
C14	C	0.583096	0.132282	0.278893
C15	C	0.598399	0.120147	0.064622
C16	C	0.707039	0.122745	0.076349
C17	C	0.753703	0.130113	0.189352
C18	C	0.862345	0.132716	0.201077
C19	C	0.877647	0.120576	-0.013193
C20	C	0.769007	0.117978	-0.024919
C21	C	1.237979	-0.026576	0.133702
C22	C	1.235927	-0.119546	0.133490
C23	C	1.232205	-0.289770	0.133061
C24	C	1.116771	-0.314227	0.120591
C25	C	1.114632	-0.410952	0.119897
C26	C	1.228539	-0.457367	0.132639
C27	C	1.294586	-0.434057	0.026904
C28	C	1.295961	-0.337255	0.026972
C29	C	1.281677	-0.324677	0.250655
C30	C	1.277312	-0.421130	0.251654
C31	C	1.226473	-0.552086	0.132398
C32	C	1.234274	-0.195052	0.133294
C33	C	1.420798	0.122152	0.153419
C34	C	1.536423	0.124917	0.165898
C35	C	1.222764	0.279440	0.132006
C36	C	1.224817	0.372410	0.132210
N37	N	1.210391	0.142282	0.412540
N38	N	1.250360	0.110575	-0.146829
C39	C	1.334406	0.043839	0.675240
C40	C	1.325590	0.050846	0.798951
C41	C	1.183939	0.163299	0.783672
C42	C	1.192755	0.156292	0.659962
C43	C	1.267992	0.096561	0.605751
C44	C	1.276812	0.089558	0.482039
C45	C	1.135157	0.202007	0.466762
C46	C	1.126341	0.209014	0.590472
H47	H	0.730998	0.111975	-0.116923
F48	F	1.251886	-0.308960	-0.088487
F49	F	1.404552	-0.474909	0.033704
H50	H	1.379670	0.007914	0.855526
F51	F	0.517149	0.137353	0.386677
F52	F	1.066730	-0.282833	0.009550
F53	F	1.103862	0.226858	0.841381
F54	F	1.046270	0.272579	0.648178
H55	H	0.900336	0.138720	0.293090
F56	F	0.741401	0.142731	0.410883
F57	F	1.414487	-0.019723	0.617545
F58	F	1.047743	-0.430446	0.218402
H59	H	0.560388	0.114134	-0.027379
F60	F	0.943603	0.115514	-0.120977
F61	F	1.050781	-0.272237	0.219241
F62	F	1.063073	-0.441599	0.007948
F63	F	1.064476	0.258124	0.392794
F64	F	1.407049	-0.317490	0.032713
F65	F	1.356887	0.025990	0.424346
F66	F	1.250352	-0.467009	-0.088087
F67	F	1.226141	-0.281902	0.356518
H68	H	1.229123	-0.435406	0.329951
H69	H	1.359945	-0.452876	0.267733
H70	H	1.366563	-0.309777	0.260920
