data_functionalizedCrystal
_audit_creation_method	'MofGen! by Chris Wilmer'
_symmetry_space_group_name_H-M	'P1'
_symmetry_Int_Tables_number	1
_symmetry_cell_setting	triclinic
loop_
_symmetry_equiv_pos_as_xyz
  x,y,z
_cell_length_a	16.120530
_cell_length_b	16.120484
_cell_length_c	16.120339
_cell_angle_alpha	89.785998
_cell_angle_beta	89.818868
_cell_angle_gamma	90.167327
loop_
_atom_site_label
_atom_site_type_symbol
_atom_site_fract_x
_atom_site_fract_y
_atom_site_fract_z
Zn1	Zn	1.228138	-0.365914	-0.552155
Zn2	Zn	1.478138	-0.115914	-0.302155
Zn3	Zn	1.728138	0.134086	-0.052155
Zn4	Zn	1.978138	0.384086	0.197845
Zn5	Zn	1.227280	-0.512076	-0.420096
Zn6	Zn	1.477280	-0.262076	-0.170096
Zn7	Zn	1.727280	-0.012076	0.079904
Zn8	Zn	1.977280	0.237924	0.329904
Zn9	Zn	1.096044	-0.366735	-0.406101
Zn10	Zn	1.346044	-0.116735	-0.156101
Zn11	Zn	1.596044	0.133265	0.093899
Zn12	Zn	1.846044	0.383265	0.343899
Zn13	Zn	1.082026	-0.497908	-0.551396
Zn14	Zn	1.332026	-0.247908	-0.301396
Zn15	Zn	1.582026	0.002092	-0.051396
Zn16	Zn	1.832026	0.252092	0.198604
O17	O	1.158372	-0.435658	-0.482437
O18	O	1.408372	-0.185658	-0.232437
O19	O	1.658372	0.064342	0.017563
O20	O	1.908372	0.314342	0.267563
O21	O	1.344095	-0.390888	-0.540812
O22	O	1.594095	-0.140888	-0.290812
O23	O	1.844095	0.109112	-0.040812
O24	O	2.094095	0.359112	0.209188
O25	O	1.215378	-0.499069	-0.302165
O26	O	1.465378	-0.249069	-0.052165
O27	O	1.715378	0.000931	0.197835
O28	O	1.965378	0.250931	0.447835
O29	O	1.119792	-0.250561	-0.419936
O30	O	1.369792	-0.000561	-0.169936
O31	O	1.619792	0.249439	0.080064
O32	O	1.869792	0.499439	0.330064
O33	O	1.343465	-0.498272	-0.443788
O34	O	1.593465	-0.248272	-0.193788
O35	O	1.843465	0.001728	0.056212
O36	O	2.093465	0.251728	0.306212
O37	O	1.216841	-0.249958	-0.527241
O38	O	1.466841	0.000042	-0.277241
O39	O	1.716841	0.250042	-0.027241
O40	O	1.966841	0.500042	0.222759
O41	O	1.118960	-0.392288	-0.291883
O42	O	1.368960	-0.142288	-0.041883
O43	O	1.618960	0.107712	0.208117
O44	O	1.868960	0.357712	0.458117
O45	O	0.978113	-0.378550	-0.419200
O46	O	1.228113	-0.128550	-0.169200
O47	O	1.478113	0.121450	0.080800
O48	O	1.728113	0.371450	0.330800
O49	O	1.095901	-0.474126	-0.667571
O50	O	1.345901	-0.224126	-0.417571
O51	O	1.595901	0.025874	-0.167571
O52	O	1.845901	0.275874	0.082429
O53	O	0.967815	-0.474922	-0.525948
O54	O	1.217815	-0.224922	-0.275948
O55	O	1.467815	0.025078	-0.025948
O56	O	1.717815	0.275078	0.224052
O57	O	1.203249	-0.377151	-0.668128
O58	O	1.453249	-0.127151	-0.418128
O59	O	1.703249	0.122849	-0.168128
O60	O	1.953249	0.372849	0.081872
O61	O	1.201786	-0.626261	-0.443052
O62	O	1.451786	-0.376261	-0.193052
O63	O	1.701786	-0.126261	0.056948
O64	O	1.951786	0.123739	0.306948
O65	O	1.095069	-0.615853	-0.539518
O66	O	1.345069	-0.365853	-0.289518
O67	O	1.595069	-0.115853	-0.039518
O68	O	1.845069	0.134147	0.210482
C69	C	0.942868	-0.425289	-0.470974
C70	C	1.192868	-0.175289	-0.220974
C71	C	1.442868	0.074711	0.029026
C72	C	1.692868	0.324711	0.279026
C73	C	0.850673	-0.420871	-0.466090
C74	C	1.100673	-0.170871	-0.216090
C75	C	1.350673	0.079129	0.033910
C76	C	1.600673	0.329129	0.283910
C77	C	0.681870	-0.412787	-0.457180
C78	C	0.931870	-0.162787	-0.207180
C79	C	1.181870	0.087213	0.042820
C80	C	1.431870	0.337213	0.292820
C81	C	0.635708	-0.458587	-0.507757
C82	C	0.885708	-0.208587	-0.257757
C83	C	1.135708	0.041413	-0.007757
C84	C	1.385708	0.291413	0.242243
C85	C	0.541781	-0.454089	-0.502800
C86	C	0.791781	-0.204089	-0.252800
C87	C	1.041781	0.045911	-0.002800
C88	C	1.291781	0.295911	0.247200
C89	C	0.775806	-0.417284	-0.462137
C90	C	1.025806	-0.167284	-0.212137
C91	C	1.275806	0.082716	0.037863
C92	C	1.525806	0.332716	0.287863
C93	C	1.146835	-0.651152	-0.492741
C94	C	1.396835	-0.401152	-0.242741
C95	C	1.646835	-0.151152	0.007259
C96	C	1.896835	0.098848	0.257259
C97	C	1.141974	-0.743343	-0.497181
C98	C	1.391974	-0.493343	-0.247181
C99	C	1.641974	-0.243343	0.002819
C100	C	1.891974	0.006657	0.252819
C101	C	1.133103	-0.912137	-0.505304
C102	C	1.383103	-0.662137	-0.255304
C103	C	1.633103	-0.412137	-0.005304
C104	C	1.883103	-0.162137	0.244696
C105	C	1.183789	-0.958346	-0.459592
C106	C	1.433789	-0.708346	-0.209592
C107	C	1.683789	-0.458346	0.040408
C108	C	1.933789	-0.208346	0.290408
C109	C	1.178853	-1.052268	-0.464112
C110	C	1.428853	-0.802268	-0.214112
C111	C	1.678853	-0.552268	0.035888
C112	C	1.928853	-0.302268	0.285888
C113	C	1.138038	-0.818205	-0.500785
C114	C	1.388038	-0.568205	-0.250785
C115	C	1.638038	-0.318205	-0.000785
C116	C	1.888038	-0.068205	0.249215
C117	C	1.374717	-0.446069	-0.493946
C118	C	1.624717	-0.196069	-0.243946
C119	C	1.874717	0.053931	0.006054
C120	C	2.124717	0.303931	0.256054
C121	C	1.466911	-0.450505	-0.498850
C122	C	1.716911	-0.200505	-0.248850
C123	C	1.966911	0.049495	0.001150
C124	C	2.216911	0.299495	0.251150
C125	C	1.148107	-0.423966	-0.698788
C126	C	1.398107	-0.173966	-0.448788
C127	C	1.648107	0.076034	-0.198788
C128	C	1.898107	0.326034	0.051212
C129	C	1.143733	-0.418984	-0.790984
C130	C	1.393733	-0.168984	-0.540984
C131	C	1.643733	0.081016	-0.290984
C132	C	1.893733	0.331016	-0.040984
C133	C	1.169976	-0.219324	-0.472112
C134	C	1.419976	0.030676	-0.222112
C135	C	1.669976	0.280676	0.027888
C136	C	1.919976	0.530676	0.277888
C137	C	1.174920	-0.127135	-0.467713
C138	C	1.424920	0.122865	-0.217713
C139	C	1.674920	0.372865	0.032287
C140	C	1.924920	0.622865	0.282287
C141	C	1.168648	-0.447247	-0.266928
C142	C	1.418648	-0.197247	-0.016928
C143	C	1.668648	0.052753	0.233072
C144	C	1.918648	0.302753	0.483072
C145	C	1.173195	-0.452004	-0.174730
C146	C	1.423195	-0.202004	0.075270
C147	C	1.673195	0.047996	0.325270
C148	C	1.923195	0.297996	0.575270
C149	C	1.135427	-0.410305	0.040209
C150	C	1.385427	-0.160305	0.290209
C151	C	1.635427	0.089695	0.540209
C152	C	1.885427	0.339695	0.790209
C153	C	1.181499	-0.460680	-0.005927
C154	C	1.431499	-0.210680	0.244073
C155	C	1.681499	0.039320	0.494073
C156	C	1.931499	0.289320	0.744073
C157	C	1.176878	-0.455851	-0.099858
C158	C	1.426878	-0.205851	0.150142
C159	C	1.676878	0.044149	0.400142
C160	C	1.926878	0.294149	0.650142
C161	C	1.140047	-0.415133	0.134148
C162	C	1.390047	-0.165133	0.384148
C163	C	1.640047	0.084867	0.634148
C164	C	1.890047	0.334867	0.884148
H165	H	0.666729	-0.501176	-0.554782
H166	H	0.916729	-0.251176	-0.304782
H167	H	1.166729	-0.001176	-0.054782
H168	H	1.416729	0.248824	0.195218
H169	H	1.086007	-0.943113	-0.547830
H170	H	1.336007	-0.693113	-0.297830
H171	H	1.586007	-0.443113	-0.047830
H172	H	1.836007	-0.193113	0.202170
C173	C	0.639964	-0.355258	-0.393654
C174	C	0.889964	-0.105258	-0.143654
C175	C	1.139964	0.144742	0.106346
C176	C	1.389964	0.394742	0.356346
N177	N	0.608391	-0.311931	-0.345804
N178	N	0.858391	-0.061931	-0.095804
N179	N	1.108391	0.188069	0.154196
N180	N	1.358391	0.438069	0.404196
H181	H	1.092514	-0.363555	0.009166
H182	H	1.342514	-0.113555	0.259166
H183	H	1.592514	0.136445	0.509166
H184	H	1.842514	0.386445	0.759166
H185	H	1.230888	-0.927368	-0.417061
H186	H	1.480888	-0.677368	-0.167061
H187	H	1.730888	-0.427368	0.082939
H188	H	1.980888	-0.177368	0.332939
H189	H	1.224414	-0.507435	0.025118
H190	H	1.474414	-0.257435	0.275118
H191	H	1.724414	-0.007435	0.525118
H192	H	1.974414	0.242565	0.775118
