data_functionalizedCrystal
_audit_creation_method	'MofGen! by Chris Wilmer'
_symmetry_space_group_name_H-M	'P1'
_symmetry_Int_Tables_number	1
_symmetry_cell_setting	triclinic
loop_
_symmetry_equiv_pos_as_xyz
  x,y,z
_cell_length_a	16.109302
_cell_length_b	19.188930
_cell_length_c	17.666332
_cell_angle_alpha	89.989658
_cell_angle_beta	89.988804
_cell_angle_gamma	83.303281
loop_
_atom_site_label
_atom_site_type_symbol
_atom_site_fract_x
_atom_site_fract_y
_atom_site_fract_z
O1	O	1.102840	0.089747	-0.062991
O2	O	0.860741	0.100915	-0.062986
O3	O	0.988777	-0.006308	-0.062974
O4	O	0.974804	0.196970	-0.063003
O5	O	0.988754	-0.006311	0.062923
O6	O	0.860718	0.100912	0.062911
O7	O	1.102817	0.089744	0.062906
Cu8	Cu	0.981766	0.095328	0.074404
Cu9	Cu	0.981792	0.095331	-0.074484
O10	O	0.974781	0.196967	0.062894
C11	C	0.829756	0.100461	-0.000037
C12	C	0.737466	0.099105	-0.000034
C13	C	0.525123	0.095966	0.068585
C14	C	0.438407	0.094684	0.068582
C15	C	0.438442	0.094691	-0.068677
C16	C	0.525157	0.095968	-0.068674
C17	C	0.568495	0.096609	-0.000041
C18	C	0.395064	0.094050	-0.000046
C19	C	0.301043	0.092660	-0.000050
C20	C	0.662522	0.097998	-0.000037
C21	C	0.988313	-0.032322	-0.000023
C22	C	0.986955	-0.109829	-0.000017
C23	C	1.062082	-0.154578	-0.000015
C24	C	1.060806	-0.227404	-0.000027
C25	C	0.984398	-0.255480	-0.000026
C26	C	0.909261	-0.210722	-0.000032
C27	C	0.910539	-0.137897	-0.000028
N28	N	0.925986	-0.363622	0.042820
N29	N	0.924777	-0.432804	0.042818
C30	C	0.980542	-0.474897	-0.000041
N31	N	1.037575	-0.445197	-0.042888
N32	N	1.038787	-0.376010	-0.042882
C33	C	0.983004	-0.334446	-0.000031
C34	C	1.054291	-0.598613	-0.000053
C35	C	1.053012	-0.671441	-0.000070
C36	C	0.901465	-0.654757	-0.000068
C37	C	0.902746	-0.581931	-0.000059
C38	C	0.979162	-0.553864	-0.000048
C39	C	1.133802	0.090198	-0.000045
C40	C	1.226093	0.091555	-0.000053
C41	C	0.975245	0.222981	-0.000059
C42	C	0.976604	0.300489	-0.000070
N43	N	0.981753	0.095325	0.179123
N44	N	0.981812	0.095329	-0.179203
C45	C	1.032015	0.137688	0.218719
C46	C	1.032028	0.137686	0.297966
C47	C	0.981764	0.095329	0.337615
C48	C	0.931500	0.052957	0.298010
C49	C	0.931494	0.052955	0.218764
N50	N	0.908950	0.093438	0.462057
N51	N	0.908958	0.093444	0.537337
C52	C	0.981779	0.095331	0.576379
N53	N	1.054594	0.097226	0.537297
N54	N	1.054586	0.097223	0.462009
C55	C	0.981765	0.095326	0.423544
C56	C	1.032060	0.137694	0.701904
C57	C	1.032075	0.137687	0.781153
C58	C	0.931539	0.052963	0.781195
C59	C	0.931531	0.052966	0.701948
C60	C	0.981791	0.095335	0.662307
H61	H	0.403097	0.094161	0.124464
C62	C	0.305527	0.092744	-0.129629
C63	C	0.390801	0.093996	-0.144116
H64	H	0.276118	0.092321	-0.176204
H65	H	0.297801	0.051844	-0.101434
H66	H	0.284830	0.133227	-0.101433
H67	H	0.411499	0.053511	-0.172308
H68	H	0.398532	0.134900	-0.172323
C69	C	0.832119	-0.030789	0.226767
C70	C	0.876236	0.006392	0.175235
H71	H	0.798000	-0.059531	0.199891
H72	H	0.870487	-0.059390	0.257668
H73	H	0.797939	0.001340	0.257681
H74	H	0.910421	-0.025738	0.144324
H75	H	0.837862	0.034995	0.144321
C76	C	0.773982	-0.545281	-0.064767
C77	C	0.820161	-0.532740	-0.000050
H78	H	0.722993	-0.514916	-0.064759
H79	H	0.805330	-0.536759	-0.108662
H80	H	0.762294	-0.592673	-0.064762
H81	H	0.831855	-0.485350	-0.000057
H82	H	0.788807	-0.541257	0.043856
H83	H	1.072984	0.172193	0.669627
C84	C	1.123541	-0.494383	-0.000036
C85	C	1.138284	-0.567755	-0.000049
H86	H	1.175396	-0.475336	-0.000029
H87	H	1.092631	-0.479014	-0.043934
H88	H	1.092610	-0.479040	0.043873
H89	H	1.169210	-0.583098	-0.043960
H90	H	1.169207	-0.583130	0.043854
H91	H	1.072943	0.172185	0.186448
C92	C	0.516487	0.095855	-0.204355
C93	C	0.572837	0.096678	-0.144113
H94	H	0.545925	0.096296	-0.250925
H95	H	0.489155	0.054669	-0.201501
H96	H	0.476173	0.136051	-0.201502
H97	H	0.613148	0.056480	-0.146964
H98	H	0.600183	0.137869	-0.146969
H99	H	1.124305	-0.131731	-0.000008
C100	C	1.202936	-0.680613	-0.000051
C101	C	1.135599	-0.720632	-0.000066
H102	H	1.253921	-0.710984	-0.000043
H103	H	1.200297	-0.651854	-0.043948
H104	H	1.200262	-0.651869	0.043858
H105	H	1.138269	-0.749372	-0.043978
H106	H	1.138239	-0.749404	0.043836
H107	H	0.847049	-0.233585	-0.000033
C108	C	0.886810	0.015388	0.419507
C109	C	0.876245	0.006399	0.341587
H110	H	0.852694	-0.013355	0.446407
H111	H	0.943731	0.002453	0.432511
H112	H	0.871157	0.063162	0.432449
H113	H	0.891904	-0.041374	0.328644
H114	H	0.819312	0.019330	0.328578
C115	C	1.131387	0.221446	0.289973
C116	C	1.087275	0.184258	0.341503
H117	H	1.165489	0.250200	0.316851
H118	H	1.165576	0.189326	0.259068
H119	H	1.093009	0.250041	0.259064
H120	H	1.125653	0.155659	0.372409
H121	H	1.053084	0.216382	0.372422
C122	C	0.832152	-0.030771	0.709951
C123	C	0.876271	0.006407	0.658419
H124	H	0.798033	-0.059513	0.683077
H125	H	0.870519	-0.059371	0.740854
H126	H	0.797971	0.001361	0.740864
H127	H	0.910456	-0.025725	0.627510
H128	H	0.837899	0.035009	0.627502
C129	C	0.832216	-0.758980	-0.000074
C130	C	0.817475	-0.685609	-0.000069
H131	H	0.780361	-0.778027	-0.000073
H132	H	0.863143	-0.774327	-0.043975
H133	H	0.863130	-0.774346	0.043831
H134	H	0.786565	-0.670243	-0.043977
H135	H	0.786535	-0.670256	0.043837
H136	H	0.560406	0.096488	0.124470
C137	C	1.131431	0.221447	0.773147
C138	C	1.087325	0.184258	0.824681
H139	H	1.165536	0.250201	0.800022
H140	H	1.165616	0.189328	0.742238
H141	H	1.093049	0.250042	0.742241
H142	H	1.125708	0.155659	0.855583
H143	H	1.053137	0.216381	0.855603
C144	C	1.210732	-0.236589	-0.000009
C145	C	1.143391	-0.276604	-0.000019
H146	H	1.261715	-0.266962	0.000001
H147	H	1.208096	-0.207833	-0.043909
H148	H	1.208060	-0.207842	0.043898
H149	H	1.146059	-0.305347	-0.043928
H150	H	1.146029	-0.305372	0.043886
H151	H	0.849360	-0.101462	-0.000029
H152	H	0.890614	0.018474	0.813476
