data_functionalizedCrystal
_audit_creation_method	'MofGen! by Chris Wilmer'
_symmetry_space_group_name_H-M	'P1'
_symmetry_Int_Tables_number	1
_symmetry_cell_setting	triclinic
loop_
_symmetry_equiv_pos_as_xyz
  x,y,z
_cell_length_a	29.839134
_cell_length_b	13.897448
_cell_length_c	13.897441
_cell_angle_alpha	90.028012
_cell_angle_beta	89.968382
_cell_angle_gamma	89.985569
loop_
_atom_site_label
_atom_site_type_symbol
_atom_site_fract_x
_atom_site_fract_y
_atom_site_fract_z
Zn1	Zn	0.686831	0.384116	-0.545679
Zn2	Zn	0.936831	0.634116	-0.295679
Zn3	Zn	1.186831	0.884116	-0.045679
Zn4	Zn	1.436831	1.134116	0.204321
Zn5	Zn	0.686779	0.545438	-0.384387
Zn6	Zn	0.936779	0.795438	-0.134387
Zn7	Zn	1.186779	1.045438	0.115613
Zn8	Zn	1.436779	1.295438	0.365613
Zn9	Zn	0.611701	0.384144	-0.384366
Zn10	Zn	0.861701	0.634144	-0.134366
Zn11	Zn	1.111701	0.884144	0.115634
Zn12	Zn	1.361701	1.134144	0.365634
Zn13	Zn	0.611690	0.545357	-0.545609
Zn14	Zn	0.861690	0.795357	-0.295609
Zn15	Zn	1.111690	1.045357	-0.045609
Zn16	Zn	1.361690	1.295357	0.204391
O17	O	0.649250	0.464764	-0.465010
O18	O	0.899250	0.714764	-0.215010
O19	O	1.149250	0.964764	0.034990
O20	O	1.399250	1.214764	0.284990
O21	O	0.749691	0.405538	-0.524321
O22	O	0.999691	0.655538	-0.274321
O23	O	1.249691	0.905538	-0.024321
O24	O	1.499691	1.155538	0.225679
O25	O	0.676802	0.524088	-0.249403
O26	O	0.926802	0.774088	0.000597
O27	O	1.176802	1.024088	0.250597
O28	O	1.426802	1.274088	0.500597
O29	O	0.621693	0.249159	-0.405785
O30	O	0.871693	0.499159	-0.155785
O31	O	1.121693	0.749159	0.094215
O32	O	1.371693	0.999159	0.344215
O33	O	0.749653	0.524061	-0.405821
O34	O	0.999653	0.774061	-0.155821
O35	O	1.249653	1.024061	0.094179
O36	O	1.499653	1.274061	0.344179
O37	O	0.676891	0.249138	-0.524300
O38	O	0.926891	0.499138	-0.274300
O39	O	1.176891	0.749138	-0.024300
O40	O	1.426891	0.999138	0.225700
O41	O	0.621643	0.405586	-0.249387
O42	O	0.871643	0.655586	0.000613
O43	O	1.121643	0.905586	0.250613
O44	O	1.371643	1.155586	0.500613
O45	O	0.548832	0.405507	-0.405718
O46	O	0.798832	0.655507	-0.155718
O47	O	1.048832	0.905507	0.094282
O48	O	1.298832	1.155507	0.344282
O49	O	0.621674	0.523922	-0.680600
O50	O	0.871674	0.773922	-0.430600
O51	O	1.121674	1.023922	-0.180600
O52	O	1.371674	1.273922	0.069400
O53	O	0.548824	0.523949	-0.524182
O54	O	0.798824	0.773949	-0.274182
O55	O	1.048824	1.023949	-0.024182
O56	O	1.298824	1.273949	0.225818
O57	O	0.676880	0.405459	-0.680651
O58	O	0.926880	0.655459	-0.430651
O59	O	1.176880	0.905459	-0.180651
O60	O	1.426880	1.155459	0.069349
O61	O	0.676792	0.680409	-0.405753
O62	O	0.926792	0.930409	-0.155753
O63	O	1.176792	1.180409	0.094247
O64	O	1.426792	1.430409	0.344247
O65	O	0.621624	0.680349	-0.524202
O66	O	0.871624	0.930349	-0.274202
O67	O	1.121624	1.180349	-0.024202
O68	O	1.371624	1.430349	0.225798
C69	C	0.532527	0.464723	-0.464941
C70	C	0.782527	0.714723	-0.214941
C71	C	1.032527	0.964723	0.035059
C72	C	1.282527	1.214723	0.285059
C73	C	0.482593	0.464729	-0.464934
C74	C	0.732593	0.714729	-0.214934
C75	C	0.982593	0.964729	0.035066
C76	C	1.232593	1.214729	0.285066
C77	C	0.649213	0.715378	-0.464994
C78	C	0.899213	0.965378	-0.214994
C79	C	1.149213	1.215378	0.035006
C80	C	1.399213	1.465378	0.285006
C81	C	0.649239	0.822592	-0.465019
C82	C	0.899239	1.072592	-0.215019
C83	C	1.149239	1.322592	0.034981
C84	C	1.399239	1.572592	0.284981
C85	C	0.649282	0.464678	-0.716603
C86	C	0.899282	0.714678	-0.466603
C87	C	1.149282	0.964678	-0.216603
C88	C	1.399282	1.214678	0.033397
C89	C	0.649295	0.464642	-0.823817
C90	C	0.899295	0.714642	-0.573817
C91	C	1.149295	0.964642	-0.323817
C92	C	1.399295	1.214642	-0.073817
C93	C	0.172955	0.526528	-0.526619
C94	C	0.422955	0.776528	-0.276619
C95	C	0.672955	1.026528	-0.026619
C96	C	0.922955	1.276528	0.223381
C97	C	-0.014718	0.526555	-0.526662
C98	C	0.235282	0.776555	-0.276662
C99	C	0.485282	1.026555	-0.026662
C100	C	0.735282	1.276555	0.223338
O101	O	-0.038978	0.579053	-0.579068
O102	O	0.211022	0.829053	-0.329068
O103	O	0.461022	1.079053	-0.079068
O104	O	0.711022	1.329053	0.170932
N105	N	-0.038192	0.464799	-0.465083
N106	N	0.211808	0.714799	-0.215083
N107	N	0.461808	0.964799	0.034917
N108	N	0.711808	1.214799	0.284917
C109	C	-0.014745	0.403028	-0.403493
C110	C	0.235255	0.653028	-0.153493
C111	C	0.485255	0.903028	0.096507
C112	C	0.735255	1.153028	0.346507
O113	O	-0.039017	0.350494	-0.351124
O114	O	0.210983	0.600494	-0.101124
O115	O	0.460983	0.850494	0.148876
O116	O	0.710983	1.100494	0.398876
C117	C	0.172927	0.402996	-0.403456
C118	C	0.422927	0.652996	-0.153456
C119	C	0.672927	0.902996	0.096544
C120	C	0.922927	1.152996	0.346544
C121	C	0.196399	0.464763	-0.465032
C122	C	0.446399	0.714763	-0.215032
C123	C	0.696399	0.964763	0.034968
C124	C	0.946399	1.214763	0.284968
C125	C	0.196426	0.588289	-0.588191
C126	C	0.446426	0.838289	-0.338191
C127	C	0.696426	1.088289	-0.088191
C128	C	0.946426	1.338289	0.161809
C129	C	0.243342	0.588285	-0.588176
C130	C	0.493342	0.838285	-0.338176
C131	C	0.743342	1.088285	-0.088176
C132	C	0.993342	1.338285	0.161824
C133	C	0.266786	0.526520	-0.526589
C134	C	0.516786	0.776520	-0.276589
C135	C	0.766786	1.026520	-0.026589
C136	C	1.016786	1.276520	0.223411
C137	C	0.243314	0.464759	-0.465017
C138	C	0.493314	0.714759	-0.215017
C139	C	0.743314	0.964759	0.034983
C140	C	0.993314	1.214759	0.284983
C141	C	0.196374	0.341221	-0.341872
C142	C	0.446374	0.591221	-0.091872
C143	C	0.696374	0.841221	0.158128
C144	C	0.946374	1.091221	0.408128
C145	C	0.243295	0.341217	-0.341870
C146	C	0.493295	0.591217	-0.091870
C147	C	0.743295	0.841217	0.158130
C148	C	0.993295	1.091217	0.408130
C149	C	0.266766	0.402983	-0.403446
C150	C	0.516766	0.652983	-0.153446
C151	C	0.766766	0.902983	0.096554
C152	C	1.016766	1.152983	0.346554
C153	C	0.313674	0.402991	-0.403415
C154	C	0.563674	0.652991	-0.153415
C155	C	0.813674	0.902991	0.096585
C156	C	1.063674	1.152991	0.346585
N157	N	0.337148	0.464747	-0.464994
N158	N	0.587148	0.714747	-0.214994
N159	N	0.837148	0.964747	0.035006
N160	N	1.087148	1.214747	0.285006
C161	C	0.313704	0.526511	-0.526581
C162	C	0.563704	0.776511	-0.276581
C163	C	0.813704	1.026511	-0.026581
C164	C	1.063704	1.276511	0.223419
C165	C	-0.113275	0.403050	-0.403516
C166	C	0.136725	0.653050	-0.153516
C167	C	0.386725	0.903050	0.096484
C168	C	0.636725	1.153050	0.346484
C169	C	-0.160193	0.403059	-0.403524
C170	C	0.089807	0.653059	-0.153524
C171	C	0.339807	0.903059	0.096476
C172	C	0.589807	1.153059	0.346476
C173	C	-0.160163	0.526585	-0.526694
C174	C	0.089837	0.776585	-0.276694
C175	C	0.339837	1.026585	-0.026694
C176	C	0.589837	1.276585	0.223306
C177	C	-0.113245	0.526580	-0.526681
C178	C	0.136755	0.776580	-0.276681
C179	C	0.386755	1.026580	-0.026681
C180	C	0.636755	1.276580	0.223319
C181	C	-0.089802	0.464806	-0.465095
C182	C	0.160198	0.714806	-0.215095
C183	C	0.410198	0.964806	0.034905
C184	C	0.660198	1.214806	0.284905
C185	C	0.412229	0.526500	-0.526544
C186	C	0.662229	0.776500	-0.276544
C187	C	0.912229	1.026500	-0.026544
C188	C	1.162229	1.276500	0.223456
C189	C	0.459149	0.526493	-0.526521
C190	C	0.709149	0.776493	-0.276521
C191	C	0.959149	1.026493	-0.026521
C192	C	1.209149	1.276493	0.223479
C193	C	0.459115	0.402964	-0.403355
C194	C	0.709115	0.652964	-0.153355
C195	C	0.959115	0.902964	0.096645
C196	C	1.209115	1.152964	0.346645
C197	C	0.412200	0.402973	-0.403374
C198	C	0.662200	0.652973	-0.153374
C199	C	0.912200	0.902973	0.096626
C200	C	1.162200	1.152973	0.346626
C201	C	0.388758	0.464744	-0.464977
C202	C	0.638758	0.714744	-0.214977
C203	C	0.888758	0.964744	0.035023
C204	C	1.138758	1.214744	0.285023
O205	O	0.337963	0.350512	-0.351044
O206	O	0.587963	0.600512	-0.101044
O207	O	0.837963	0.850512	0.148956
O208	O	1.087963	1.100512	0.398956
O209	O	0.337984	0.579022	-0.578957
O210	O	0.587984	0.829022	-0.328957
O211	O	0.837984	1.079022	-0.078957
O212	O	1.087984	1.329022	0.171043
C213	C	0.126039	0.526531	-0.526634
C214	C	0.376039	0.776531	-0.276634
C215	C	0.626039	1.026531	-0.026634
C216	C	0.876039	1.276531	0.223366
C217	C	0.102568	0.464770	-0.465062
C218	C	0.352568	0.714770	-0.215062
C219	C	0.602568	0.964770	0.034938
C220	C	0.852568	1.214770	0.284938
C221	C	0.126012	0.403006	-0.403475
C222	C	0.376012	0.653006	-0.153475
C223	C	0.626012	0.903006	0.096525
C224	C	0.876012	1.153006	0.346525
C225	C	0.055650	0.464779	-0.465070
C226	C	0.305650	0.714779	-0.215070
C227	C	0.555650	0.964779	0.034930
C228	C	0.805650	1.214779	0.284930
C229	C	0.032206	0.526544	-0.526657
C230	C	0.282206	0.776544	-0.276657
C231	C	0.532206	1.026544	-0.026657
C232	C	0.782206	1.276544	0.223343
C233	C	0.055680	0.588300	-0.588236
C234	C	0.305680	0.838300	-0.338236
C235	C	0.555680	1.088300	-0.088236
C236	C	0.805680	1.338300	0.161764
C237	C	0.102596	0.588296	-0.588221
C238	C	0.352596	0.838296	-0.338221
C239	C	0.602596	1.088296	-0.088221
C240	C	0.852596	1.338296	0.161779
C241	C	0.102538	0.341250	-0.341896
C242	C	0.352538	0.591250	-0.091896
C243	C	0.602538	0.841250	0.158104
C244	C	0.852538	1.091250	0.408104
C245	C	0.055622	0.341259	-0.341915
C246	C	0.305622	0.591259	-0.091915
C247	C	0.555622	0.841259	0.158085
C248	C	0.805622	1.091259	0.408085
C249	C	0.032179	0.403024	-0.403502
C250	C	0.282179	0.653024	-0.153502
C251	C	0.532179	0.903024	0.096498
C252	C	0.782179	1.153024	0.346498
C253	C	0.766428	0.464805	-0.465081
C254	C	1.016428	0.714805	-0.215081
C255	C	1.266428	0.964805	0.034919
C256	C	1.516428	1.214805	0.284919
C257	C	0.816363	0.464823	-0.465111
C258	C	1.066363	0.714823	-0.215111
C259	C	1.316363	0.964823	0.034889
C260	C	1.566363	1.214823	0.284889
C261	C	0.649283	1.018887	-0.465088
C262	C	0.899283	1.268887	-0.215088
C263	C	1.149283	1.518887	0.034912
C264	C	1.399283	1.768887	0.284912
C265	C	0.649257	0.909655	-0.465053
C266	C	0.899257	1.159655	-0.215053
C267	C	1.149257	1.409655	0.034947
C268	C	1.399257	1.659655	0.284947
C269	C	0.649295	1.213171	-0.465059
C270	C	0.899295	1.463171	-0.215059
C271	C	1.149295	1.713171	0.034941
C272	C	1.399295	1.963171	0.284941
C273	C	0.649305	1.105957	-0.465109
C274	C	0.899305	1.355957	-0.215109
C275	C	1.149305	1.605957	0.034891
C276	C	1.399305	1.855957	0.284891
C277	C	0.649308	0.464577	-1.020113
C278	C	0.899308	0.714577	-0.770113
C279	C	1.149308	0.964577	-0.520113
C280	C	1.399308	1.214577	-0.270113
C281	C	0.649299	0.464616	-0.910880
C282	C	0.899299	0.714616	-0.660880
C283	C	1.149299	0.964616	-0.410880
C284	C	1.399299	1.214616	-0.160880
C285	C	0.649244	0.464779	-0.214396
C286	C	0.899244	0.714779	0.035604
C287	C	1.149244	0.964779	0.285604
C288	C	1.399244	1.214779	0.535604
C289	C	0.649318	0.464544	-0.107183
C290	C	0.899318	0.714544	0.142817
C291	C	1.149318	0.964544	0.392817
C292	C	1.399318	1.214544	0.642817
H293	H	0.478257	0.576795	-0.576664
H294	H	0.728257	0.826795	-0.326664
H295	H	0.978257	1.076795	-0.076664
H296	H	1.228257	1.326795	0.173336
F297	F	0.484074	0.337233	-0.337812
F298	F	0.734074	0.587233	-0.087812
F299	F	0.984074	0.837233	0.162188
F300	F	1.234074	1.087233	0.412188
H301	H	0.177343	0.638585	-0.638348
H302	H	0.427343	0.888585	-0.388348
H303	H	0.677343	1.138585	-0.138348
H304	H	0.927343	1.388585	0.111652
H305	H	-0.094137	0.576875	-0.576823
H306	H	0.155863	0.826875	-0.326823
H307	H	0.405863	1.076875	-0.076823
H308	H	0.655863	1.326875	0.173177
F309	F	0.127570	0.654037	-0.653760
F310	F	0.377570	0.904037	-0.403760
F311	F	0.627570	1.154037	-0.153760
F312	F	0.877570	1.404037	0.096240
H313	H	0.262448	0.638580	-0.638320
H314	H	0.512448	0.888580	-0.388320
H315	H	0.762448	1.138580	-0.138320
H316	H	1.012448	1.388580	0.111680
H317	H	0.036584	0.638594	-0.638380
H318	H	0.286584	0.888594	-0.388380
H319	H	0.536584	1.138594	-0.138380
H320	H	0.786584	1.388594	0.111620
H321	H	-0.179259	0.576876	-0.576841
H322	H	0.070741	0.826876	-0.326841
H323	H	0.320741	1.076876	-0.076841
H324	H	0.570741	1.326876	0.173159
F325	F	-0.088331	0.337296	-0.337964
F326	F	0.161669	0.587296	-0.087964
F327	F	0.411669	0.837296	0.162036
F328	F	0.661669	1.087296	0.412036
F329	F	0.171404	0.275474	-0.276338
F330	F	0.421404	0.525474	-0.026338
F331	F	0.671404	0.775474	0.223662
F332	F	0.921404	1.025474	0.473662
H333	H	0.262380	0.290905	-0.291724
H334	H	0.512380	0.540905	-0.041724
H335	H	0.762380	0.790905	0.208276
H336	H	1.012380	1.040905	0.458276
F337	F	-0.185168	0.337330	-0.337974
F338	F	0.064832	0.587330	-0.087974
F339	F	0.314832	0.837330	0.162026
F340	F	0.564832	1.087330	0.412026
F341	F	0.387219	0.337249	-0.337824
F342	F	0.637219	0.587249	-0.087824
F343	F	0.887219	0.837249	0.162176
F344	F	1.137219	1.087249	0.412176
F345	F	0.030647	0.275518	-0.276369
F346	F	0.280647	0.525518	-0.026369
F347	F	0.530647	0.775518	0.223631
F348	F	0.780647	1.025518	0.473631
F349	F	0.127483	0.275505	-0.276345
F350	F	0.377483	0.525505	-0.026345
F351	F	0.627483	0.775505	0.223655
F352	F	0.877483	1.025505	0.473655
H353	H	0.393149	0.576797	-0.576709
H354	H	0.643149	0.826797	-0.326709
H355	H	0.893149	1.076797	-0.076709
H356	H	1.143149	1.326797	0.173291
