data_functionalizedCrystal
_audit_creation_method	'MofGen! by Chris Wilmer'
_symmetry_space_group_name_H-M	'P1'
_symmetry_Int_Tables_number	1
_symmetry_cell_setting	triclinic
loop_
_symmetry_equiv_pos_as_xyz
  x,y,z
_cell_length_a	8.597340
_cell_length_b	14.853559
_cell_length_c	7.088929
_cell_angle_alpha	83.769914
_cell_angle_beta	103.954719
_cell_angle_gamma	84.487308
loop_
_atom_site_label
_atom_site_type_symbol
_atom_site_fract_x
_atom_site_fract_y
_atom_site_fract_z
O1	O	2.101636	0.123814	0.187225
O2	O	1.636985	0.138531	0.110680
O3	O	1.881729	-0.000076	0.151001
O4	O	1.856891	0.262422	0.146905
O5	O	1.914437	-0.018642	0.474364
O6	O	1.669692	0.119966	0.434044
O7	O	2.134343	0.105249	0.510589
Cu8	Cu	1.905004	0.110912	0.501842
Cu9	Cu	1.866324	0.132868	0.119427
O10	O	1.889599	0.243856	0.470269
C11	C	1.593874	0.128702	0.262566
C12	C	1.416689	0.127064	0.233377
C13	C	1.896960	-0.042946	0.312494
C14	C	1.893593	-0.143024	0.311929
C15	C	1.861489	-0.556058	0.133311
C16	C	1.897147	-0.576294	0.485854
C17	C	1.900323	-0.482265	0.486379
C18	C	1.884078	-0.425129	0.310367
C19	C	1.864659	-0.462020	0.133830
C20	C	1.919726	-0.445365	0.662910
C21	C	1.922900	-0.351331	0.663442
C22	C	1.906667	-0.294193	0.487429
C23	C	1.887248	-0.331091	0.310885
C24	C	1.871004	-0.273954	0.134873
C25	C	1.851596	-0.310851	-0.041671
C26	C	1.848426	-0.404883	-0.042183
C27	C	1.909838	-0.200161	0.487941
C28	C	1.874174	-0.179916	0.135392
C29	C	2.177453	0.115078	0.358699
C30	C	2.354637	0.116717	0.387875
C31	C	1.874368	0.286726	0.308771
C32	C	1.877733	0.386805	0.309324
N33	N	1.932222	0.095469	0.770814
N34	N	1.839119	0.148304	-0.149543
H35	H	1.437065	0.109106	0.542486
H36	H	1.334253	0.134669	0.078756
O37	O	1.858146	-0.124318	-0.035528
C38	C	1.720741	-0.059034	-0.068533
H39	H	1.690687	-0.050283	0.077022
H40	H	1.614002	-0.083082	-0.171590
C41	C	1.792343	0.022192	-0.340765
C42	C	1.755439	0.032946	-0.161989
H43	H	1.813742	0.078929	-0.398422
H44	H	1.884913	-0.021792	-0.318535
H45	H	1.703387	0.002149	-0.426623
H46	H	1.844402	0.052977	-0.076127
H47	H	1.662885	0.076936	-0.184208
H48	H	1.838359	-0.264317	-0.184982
H49	H	1.832623	-0.434933	-0.185916
H50	H	1.845694	-0.586104	-0.010426
O51	O	1.913158	-0.631712	0.656988
C52	C	2.062921	-0.625230	0.787074
H53	H	2.106202	-0.557522	0.744905
H54	H	2.155378	-0.683981	0.778277
C55	C	1.989998	-0.713410	1.049814
C56	C	2.043150	-0.630246	0.998031
H57	H	1.977806	-0.716509	1.179943
H58	H	1.889101	-0.717781	0.962171
H59	H	2.067053	-0.762360	1.042468
H60	H	1.966086	-0.581299	1.005353
H61	H	2.144033	-0.625868	1.085680
O62	O	1.724196	0.213671	0.733924
C63	C	1.798103	0.275898	0.630332
H64	H	1.919798	0.241567	0.620562
H65	H	1.817124	0.338041	0.710491
C66	C	1.539286	0.348465	0.434085
C67	C	1.688747	0.306298	0.422072
H68	H	1.471828	0.367221	0.305623
H69	H	1.489491	0.306545	0.503882
H70	H	1.555158	0.400246	0.500893
H71	H	1.672874	0.254512	0.355287
H72	H	1.738536	0.348211	0.352259
O73	O	2.047469	0.030129	0.886904
C74	C	2.129591	-0.016514	0.769356
H75	H	2.116977	0.028712	0.624539
H76	H	2.075279	-0.082180	0.739201
C77	C	2.325198	-0.095401	1.055179
C78	C	2.309716	-0.039850	0.877318
H79	H	2.436306	-0.109800	1.121777
H80	H	2.269868	-0.063980	1.134375
H81	H	2.279928	-0.150116	1.030025
H82	H	2.354967	0.014868	0.902476
H83	H	2.365058	-0.071263	0.798129
H84	H	1.932942	-0.491891	0.806209
H85	H	1.938709	-0.321299	0.807196
H86	H	1.925603	-0.170121	0.631675
