data_functionalizedCrystal
_audit_creation_method	'MofGen! by Chris Wilmer'
_symmetry_space_group_name_H-M	'P1'
_symmetry_Int_Tables_number	1
_symmetry_cell_setting	triclinic
loop_
_symmetry_equiv_pos_as_xyz
  x,y,z
_cell_length_a	10.654541
_cell_length_b	15.021413
_cell_length_c	10.654554
_cell_angle_alpha	89.995453
_cell_angle_beta	95.515844
_cell_angle_gamma	89.990300
loop_
_atom_site_label
_atom_site_type_symbol
_atom_site_fract_x
_atom_site_fract_y
_atom_site_fract_z
O1	O	-1.667857	0.074079	0.176333
O2	O	-1.302377	0.074070	0.193150
O3	O	-1.493517	0.074070	0.002002
O4	O	-1.476717	0.074079	0.367480
O5	O	-1.493487	-0.073994	0.002029
O6	O	-1.302347	-0.073994	0.193177
O7	O	-1.667826	-0.073985	0.176360
Zn8	Zn	-1.485082	-0.097498	0.184773
Zn9	Zn	-1.485122	0.097583	0.184737
O10	O	-1.476687	-0.073985	0.367508
C11	C	-1.255564	0.000037	0.191931
C12	C	-1.116120	0.000034	0.188243
N13	N	-1.485064	-0.230635	0.184797
C14	C	-0.919562	-0.080675	0.183052
C15	C	-1.050584	-0.080677	0.186524
C16	C	-1.050627	0.080751	0.186502
C17	C	-0.919607	0.080752	0.183038
C18	C	-0.919539	-0.173874	0.183060
C19	C	-1.050561	-0.173876	0.186532
C20	C	-1.396667	-0.470319	0.273141
C21	C	-1.510365	-0.529650	0.298502
C22	C	-1.485096	-0.412242	0.184766
C23	C	-1.371428	-0.529653	0.159433
C24	C	-1.485116	-0.587666	0.184738
C25	C	-1.598852	-0.470267	0.210183
C26	C	-1.459840	-0.470265	0.071064
C27	C	-1.573620	-0.529569	0.096378
C28	C	-1.485082	-0.311185	0.184785
C29	C	-1.485143	-0.688722	0.184719
C30	C	-0.714639	0.000045	0.177589
C31	C	-0.854079	0.000037	0.181307
C32	C	-1.492267	0.000039	-0.044782
C33	C	-1.488573	0.000041	-0.184225
N34	N	-1.485150	0.230721	0.184703
C35	C	-1.597647	0.000055	-0.394737
C36	C	-1.601118	0.000046	-0.263715
C37	C	-1.372548	0.000036	-0.235762
C38	C	-1.369078	0.000039	-0.366781
C39	C	-1.729610	0.000064	-0.410874
C40	C	-1.733082	0.000055	-0.279853
C41	C	-1.477936	0.000049	0.414292
C42	C	-1.481631	0.000053	0.553735
H43	H	-0.866293	0.146475	0.181634
H44	H	-1.769493	0.063997	-0.456526
H45	H	-1.275293	-0.555741	0.138019
H46	H	-1.779327	-0.061894	-0.452621
O47	O	-0.864474	-0.216393	0.286827
C48	C	-0.895510	-0.171964	0.396242
H49	H	-0.921748	-0.099997	0.371981
H50	H	-0.811009	-0.173250	0.470476
H51	H	-0.978865	-0.206715	0.434745
O52	O	-1.783055	-0.076351	-0.237609
C53	C	-1.907486	-0.086684	-0.293827
H54	H	-1.947141	-0.018924	-0.325303
H55	H	-1.968414	-0.116944	-0.222548
H56	H	-1.907523	-0.132540	-0.379087
O57	O	-1.105737	-0.216427	0.082861
C58	C	-1.074898	-0.172084	-0.026698
H59	H	-1.048607	-0.100112	-0.002593
H60	H	-1.159518	-0.173387	-0.100790
H61	H	-0.991633	-0.206895	-0.065304
O62	O	-1.307394	-0.439378	0.362296
C63	C	-1.187879	-0.470913	0.336570
H64	H	-1.199754	-0.533818	0.276763
H65	H	-1.129068	-0.486654	0.428997
H66	H	-1.138175	-0.417770	0.283149
O67	O	-1.263255	0.000185	-0.158496
C68	C	-1.258453	0.076853	-0.081852
H69	H	-1.322270	0.130455	-0.129269
H70	H	-1.157420	0.102590	-0.068004
H71	H	-1.291784	0.059511	0.013690
O72	O	-1.794469	0.074069	-0.244852
C73	C	-1.730532	0.150617	-0.281279
H74	H	-1.628003	0.133151	-0.292099
H75	H	-1.734384	0.204349	-0.206190
H76	H	-1.777504	0.176252	-0.375002
H77	H	-1.103996	0.146467	0.187913
H78	H	-1.080121	-0.202793	0.278138
O79	O	-0.884189	-0.208223	0.073726
C80	C	-0.817308	-0.143273	0.011644
H81	H	-0.844021	-0.074197	0.044532
H82	H	-0.842130	-0.149039	-0.094529
H83	H	-0.711695	-0.154062	0.034724
O84	O	-1.434367	-0.438964	-0.043537
C85	C	-1.435832	-0.345113	-0.042220
H86	H	-1.495079	-0.320920	0.034590
H87	H	-1.478251	-0.319415	-0.137697
H88	H	-1.335353	-0.319114	-0.022488
O89	O	-1.256348	0.000185	-0.416773
C90	C	-1.187660	0.076849	-0.376233
H91	H	-1.255485	0.130455	-0.348403
H92	H	-1.133535	0.102583	-0.456056
H93	H	-1.118420	0.059503	-0.291463
O94	O	-1.535661	-0.560734	0.413282
C95	C	-1.442218	-0.530535	0.506204
H96	H	-1.352718	-0.513889	0.460398
H97	H	-1.420991	-0.584855	0.579927
H98	H	-1.477384	-0.468442	0.553428
O99	O	-1.713471	-0.439267	0.236150
C100	C	-1.699199	-0.387069	0.346575
H101	H	-1.608528	-0.406813	0.405580
H102	H	-1.783042	-0.398462	0.403518
H103	H	-1.694486	-0.313725	0.319920
O104	O	-1.663100	-0.560378	0.007334
C105	C	-1.782721	-0.529935	0.034489
H106	H	-1.780042	-0.513379	0.139129
H107	H	-1.855930	-0.584074	0.009836
H108	H	-1.808923	-0.467738	-0.023538
