data_functionalizedCrystal
_audit_creation_method	'MofGen! by Chris Wilmer'
_symmetry_space_group_name_H-M	'P1'
_symmetry_Int_Tables_number	1
_symmetry_cell_setting	triclinic
loop_
_symmetry_equiv_pos_as_xyz
  x,y,z
_cell_length_a	13.032831
_cell_length_b	29.839131
_cell_length_c	13.032268
_cell_angle_alpha	97.140540
_cell_angle_beta	90.886977
_cell_angle_gamma	82.845366
loop_
_atom_site_label
_atom_site_type_symbol
_atom_site_fract_x
_atom_site_fract_y
_atom_site_fract_z
Zn1	Zn	1.498202	-0.303377	-0.780727
Zn2	Zn	1.519883	-0.370307	-0.608723
Zn3	Zn	1.348078	-0.284611	-0.586974
Zn4	Zn	1.326134	-0.367878	-0.758849
O5	O	1.423074	-0.331543	-0.683818
O6	O	1.644991	-0.321125	-0.776168
O7	O	1.515350	-0.352102	-0.461924
O8	O	1.368102	-0.224242	-0.612730
O9	O	1.660920	-0.370299	-0.649797
O10	O	1.478398	-0.238029	-0.755079
O11	O	1.389125	-0.289141	-0.445945
O12	O	1.201254	-0.286786	-0.591516
O13	O	1.330702	-0.366159	-0.905665
O14	O	1.185132	-0.347962	-0.717792
O15	O	1.457120	-0.318770	-0.921739
O16	O	1.494072	-0.432843	-0.628583
O17	O	1.351725	-0.431059	-0.738880
C18	C	1.155878	-0.315075	-0.649920
C19	C	1.041567	-0.308042	-0.635443
C20	C	1.422895	-0.448252	-0.683744
C21	C	1.422908	-0.498188	-0.683758
C22	C	0.982667	-0.335214	-0.691374
C23	C	0.864520	-0.327945	-0.676412
C24	C	1.497302	-0.808772	-0.626498
C25	C	1.497423	-0.996455	-0.626554
O26	O	1.560533	-1.021509	-0.577811
N27	N	1.423278	-1.019002	-0.683923
C28	C	1.349100	-0.994626	-0.741287
O29	O	1.286044	-1.018111	-0.790093
C30	C	1.348984	-0.806945	-0.741236
C31	C	1.423128	-0.784399	-0.683855
C32	C	1.571441	-0.786226	-0.569122
C33	C	1.571406	-0.739308	-0.569105
C34	C	1.497232	-0.714935	-0.626462
C35	C	1.423093	-0.737481	-0.683837
C36	C	1.274811	-0.782571	-0.798606
C37	C	1.274790	-0.735648	-0.798590
C38	C	1.348935	-0.713102	-0.741209
C39	C	1.348885	-0.666190	-0.741177
N40	N	1.423031	-0.643643	-0.683808
C41	C	1.497205	-0.668015	-0.626451
C42	C	1.349165	-1.093162	-0.741308
C43	C	1.349193	-1.140082	-0.741320
C44	C	1.497518	-1.141907	-0.626588
C45	C	1.497485	-1.094986	-0.626571
C46	C	1.423311	-1.070614	-0.683939
C47	C	1.497126	-0.569483	-0.626417
C48	C	1.497082	-0.522561	-0.626401
C49	C	1.348761	-0.520740	-0.741137
C50	C	1.348801	-0.567658	-0.741149
C51	C	1.422992	-0.592029	-0.683787
O52	O	1.285815	-0.641109	-0.789903
O53	O	1.560265	-0.644524	-0.577671
C54	C	1.497336	-0.855690	-0.626516
C55	C	1.423197	-0.878236	-0.683891
C56	C	1.349024	-0.853863	-0.741249
C57	C	1.423225	-0.925156	-0.683903
C58	C	1.497399	-0.949529	-0.626545
C59	C	1.571545	-0.926981	-0.569176
C60	C	1.571510	-0.880063	-0.569158
C61	C	1.274878	-0.876411	-0.798618
C62	C	1.274918	-0.923329	-0.798630
C63	C	1.349091	-0.947702	-0.741272
C64	C	1.691313	-0.348076	-0.717849
C65	C	1.805621	-0.355122	-0.732351
C66	C	1.389044	-0.344287	-0.952061
C67	C	1.374543	-0.349718	-1.066370
C68	C	1.423279	-0.214382	-0.683919
C69	C	1.423367	-0.164454	-0.683962
C70	C	1.430627	-0.328692	-1.125285
C71	C	1.415640	-0.334304	-1.243430
C72	C	1.457031	-0.318820	-0.416627
C73	C	1.471732	-0.313275	-0.302344
H74	H	1.019706	-0.363857	-0.750338
O75	O	1.569612	-1.073161	-0.570815
C76	C	1.716687	-1.079931	-0.456962
C77	C	1.635073	-1.104702	-0.520080
H78	H	1.769620	-1.105420	-0.415908
H79	H	1.764497	-1.063505	-0.510988
H80	H	1.676310	-1.052519	-0.397200
H81	H	1.675366	-1.132134	-0.579846
H82	H	1.587268	-1.121097	-0.465989
O83	O	0.820510	-0.293736	-0.606053
C84	C	0.848183	-0.231164	-0.477173
C85	C	0.898158	-0.269880	-0.556833
H86	H	0.910940	-0.211872	-0.437341
H87	H	0.791962	-0.206852	-0.518123
H88	H	0.804646	-0.246128	-0.417027
H89	H	0.941749	-0.254956	-0.617000
H90	H	0.954322	-0.294186	-0.515811
H91	H	0.842654	-0.383766	-0.791322
H92	H	1.530841	-0.291115	-1.265323
H93	H	1.489733	-0.306534	-1.088259
H94	H	1.557913	-1.161759	-0.579885
H95	H	1.004527	-0.279396	-0.576487
O96	O	1.202786	-0.852678	-0.854184
C97	C	1.062091	-0.791888	-0.850255
C98	C	1.143711	-0.818719	-0.787207
H99	H	1.014293	-0.764432	-0.796128
H100	H	1.102354	-0.775317	-0.910027
H101	H	1.009154	-0.816079	-0.891285
H102	H	1.196673	-0.794558	-0.746112
H103	H	1.103381	-0.835297	-0.727495
O104	O	1.277209	-1.162046	-0.796960
C105	C	1.211548	-1.233519	-0.847900
C106	C	1.293109	-1.208702	-0.784813
H107	H	1.224388	-1.271246	-0.838117
H108	H	1.130908	-1.218396	-0.819250
H109	H	1.219009	-1.229291	-0.933105
H110	H	1.285743	-1.212921	-0.699595
H111	H	1.373716	-1.223831	-0.813548
H112	H	1.557459	-0.504205	-0.579670
O113	O	1.643508	-0.950634	-0.513310
C114	C	1.715833	-0.959788	-0.344803
C115	C	1.634272	-0.932964	-0.407924
H116	H	1.708408	-0.945506	-0.259590
H117	H	1.703106	-0.997195	-0.354605
H118	H	1.796424	-0.956504	-0.373507
H119	H	1.553648	-0.936211	-0.379262
H120	H	1.647090	-0.895568	-0.398121
H121	H	1.557541	-0.589321	-0.579709
H122	H	1.288761	-1.073321	-0.788025
O123	O	1.643541	-0.717486	-0.513356
C124	C	1.790635	-0.724263	-0.399528
C125	C	1.709007	-0.749030	-0.462634
H126	H	1.843573	-0.749754	-0.358486
H127	H	1.838439	-0.707837	-0.453562
H128	H	1.750271	-0.696851	-0.339758
H129	H	1.749287	-0.776462	-0.522408
H130	H	1.661209	-0.765424	-0.408536
O131	O	1.304102	-0.376151	-1.110703
C132	C	1.224870	-0.405812	-1.268867
C133	C	1.304696	-0.375869	-1.218801
H134	H	1.225308	-0.405586	-1.356270
H135	H	1.245516	-0.442165	-1.250144
H136	H	1.144628	-0.391825	-1.237234
H137	H	1.384966	-0.389815	-1.250405
H138	H	1.283961	-0.339520	-1.237519
O139	O	1.202881	-0.804457	-0.854515
C140	C	1.130618	-0.823990	-1.023073
C141	C	1.212148	-0.799197	-0.959876
H142	H	1.138069	-0.819738	-1.108266
H143	H	1.143355	-0.861724	-1.013337
H144	H	1.050014	-0.808836	-0.994380
H145	H	1.292785	-0.814313	-0.988528
H146	H	1.199321	-0.761465	-0.969614
H147	H	1.631847	-0.806066	-0.522415
O148	O	1.202834	-0.711909	-0.854296
C149	C	1.137000	-0.638813	-0.905079
C150	C	1.218563	-0.665643	-0.841971
H151	H	1.149675	-0.601401	-0.895119
H152	H	1.144480	-0.653034	-0.990328
H153	H	1.056406	-0.642141	-0.876452
H154	H	1.299193	-0.662326	-0.870509
H155	H	1.210992	-0.651415	-0.756733
O156	O	1.276814	-0.496994	-0.796832
C157	C	1.211019	-0.423893	-0.847606
C158	C	1.292565	-0.450731	-0.784497
H159	H	1.223711	-0.386482	-0.837637
H160	H	1.218500	-0.438111	-0.932856
H161	H	1.130418	-0.427214	-0.818986
H162	H	1.373202	-0.447420	-0.813027
H163	H	1.284992	-0.436506	-0.699257
O164	O	1.202842	-0.945160	-0.854466
C165	C	1.055697	-0.938381	-0.968230
C166	C	1.137267	-0.913604	-0.905054
H167	H	1.002645	-0.912878	-1.009129
H168	H	1.096003	-0.965765	-1.028101
H169	H	1.008011	-0.954842	-0.914161
H170	H	1.184978	-0.897116	-0.959041
H171	H	1.096897	-0.886244	-0.845172
H172	H	1.356519	-0.356458	-1.280451
H173	H	1.288429	-0.586016	-0.787877
H174	H	1.631885	-0.861710	-0.522433
