data_functionalizedCrystal
_audit_creation_method	'MofGen! by Chris Wilmer'
_symmetry_space_group_name_H-M	'P1'
_symmetry_Int_Tables_number	1
_symmetry_cell_setting	triclinic
loop_
_symmetry_equiv_pos_as_xyz
  x,y,z
_cell_length_a	16.109301
_cell_length_b	16.992695
_cell_length_c	15.186229
_cell_angle_alpha	89.995943
_cell_angle_beta	89.999362
_cell_angle_gamma	87.064852
loop_
_atom_site_label
_atom_site_type_symbol
_atom_site_fract_x
_atom_site_fract_y
_atom_site_fract_z
O1	O	1.109856	0.100784	-0.073174
O2	O	0.868631	0.113326	-0.073188
O3	O	0.988276	-0.007088	-0.073174
O4	O	0.990210	0.221197	-0.073188
O5	O	0.988268	-0.007089	0.073284
O6	O	0.868622	0.113324	0.073270
O7	O	1.109847	0.100782	0.073284
Zn8	Zn	0.989233	0.107053	0.096530
Zn9	Zn	0.989245	0.107055	-0.096434
O10	O	0.990202	0.221196	0.073270
C11	C	0.837618	0.112817	0.000039
C12	C	0.745221	0.111294	0.000034
C13	C	0.527480	0.179203	0.000040
C14	C	0.440664	0.177766	0.000046
C15	C	0.451005	0.034899	0.000051
C16	C	0.537819	0.036337	0.000051
C17	C	0.576055	0.108492	0.000042
C18	C	0.402424	0.105616	0.000047
C19	C	0.308294	0.104057	0.000053
C20	C	0.670191	0.110051	0.000037
C21	C	0.985784	-0.036300	0.000055
C22	C	0.978361	-0.123343	0.000054
C23	C	1.049987	-0.173601	0.000059
C24	C	1.043007	-0.255386	0.000050
C25	C	0.964400	-0.286911	0.000043
C26	C	0.892768	-0.236645	0.000035
C27	C	0.899749	-0.154862	0.000038
C28	C	0.935467	-0.530501	0.000029
C29	C	0.928491	-0.612291	0.000029
C30	C	1.078731	-0.631026	0.000043
C31	C	1.085704	-0.549240	0.000051
C32	C	1.014073	-0.498982	0.000038
N33	N	0.957263	-0.370508	0.000037
N34	N	1.021210	-0.415387	0.000038
C35	C	1.140860	0.101291	0.000055
C36	C	1.233257	0.102814	0.000054
C37	C	0.992694	0.250408	0.000039
C38	C	1.000118	0.337451	0.000034
N39	N	0.989232	0.107051	0.228223
N40	N	0.989253	0.107051	-0.228127
C41	C	1.042231	0.053750	0.453952
C42	C	1.042234	0.053748	0.546141
C43	C	0.936247	0.160355	0.546138
C44	C	0.936241	0.160352	0.453950
C45	C	0.989238	0.107051	0.407859
C46	C	0.989246	0.107051	0.592237
C47	C	0.989249	0.107050	0.692193
C48	C	0.989235	0.107051	0.307897
H49	H	1.113997	-0.147941	0.000071
O50	O	1.093672	0.001866	0.590818
C51	C	1.074990	-0.075757	0.568314
H52	H	1.042946	-0.075669	0.501382
H53	H	1.134919	-0.114353	0.565158
H54	H	1.032000	-0.100018	0.620203
H55	H	0.893100	0.203753	0.583674
O56	O	0.413821	-0.035167	-0.000104
C57	C	0.363900	-0.040260	-0.075946
H58	H	0.387132	0.000712	-0.128961
H59	H	0.367488	-0.103452	-0.101407
H60	H	0.296716	-0.022159	-0.058800
O61	O	0.884735	0.212208	0.409306
C62	C	0.837950	0.259246	0.469753
H63	H	0.872097	0.260147	0.535466
H64	H	0.829424	0.321858	0.443106
H65	H	0.774500	0.233769	0.479566
H66	H	0.841423	-0.113942	0.000033
O67	O	0.816391	-0.267229	-0.000131
C68	C	0.772397	-0.241525	-0.075975
H69	H	0.818273	-0.224521	-0.128987
H70	H	0.733737	-0.291058	-0.101439
H71	H	0.729608	-0.188213	-0.058830
O72	O	0.393515	0.246477	-0.000115
C73	C	0.411600	0.290292	-0.075960
H74	H	0.438487	0.248891	-0.128974
H75	H	0.352162	0.321751	-0.101421
H76	H	0.458771	0.335665	-0.058816
O77	O	0.584887	-0.032429	0.000013
C78	C	0.532526	-0.096422	0.000036
H79	H	0.469125	-0.076509	-0.027695
H80	H	0.561230	-0.145963	-0.042482
H81	H	0.524882	-0.118541	0.070299
H82	H	1.101332	-0.296304	0.000056
H83	H	0.877139	-0.489590	0.000019
H84	H	1.149714	-0.523580	0.000057
H85	H	0.864477	-0.637954	0.000037
O86	O	0.564660	0.249272	-0.000119
C87	C	0.614583	0.254377	-0.075961
H88	H	0.591357	0.213409	-0.128976
H89	H	0.610992	0.317572	-0.101422
H90	H	0.681768	0.236278	-0.058812
O91	O	1.148224	-0.679958	0.000008
C92	C	1.125212	-0.758903	0.000026
H93	H	1.059702	-0.762020	-0.027703
H94	H	1.170536	-0.795963	-0.042495
H95	H	1.126791	-0.782562	0.070288
O96	O	1.093569	0.001906	0.409101
C97	C	1.045796	-0.046489	0.355831
H98	H	0.982833	-0.015247	0.342001
H99	H	1.079665	-0.058938	0.291011
H100	H	1.036259	-0.104414	0.391402
