data_functionalizedCrystal
_audit_creation_method	'MofGen! by Chris Wilmer'
_symmetry_space_group_name_H-M	'P1'
_symmetry_Int_Tables_number	1
_symmetry_cell_setting	triclinic
loop_
_symmetry_equiv_pos_as_xyz
  x,y,z
_cell_length_a	21.295417
_cell_length_b	18.215407
_cell_length_c	18.215399
_cell_angle_alpha	90.019833
_cell_angle_beta	90.032152
_cell_angle_gamma	90.030955
loop_
_atom_site_label
_atom_site_type_symbol
_atom_site_fract_x
_atom_site_fract_y
_atom_site_fract_z
Zn1	Zn	-0.250608	1.125043	0.416094
Zn2	Zn	-0.355879	1.124940	0.293019
Zn3	Zn	-0.250629	1.001976	0.293042
Zn4	Zn	-0.355844	1.001930	0.416044
O5	O	-0.303240	1.063472	0.354550
O6	O	-0.264579	1.228014	0.399780
O7	O	-0.341941	1.108604	0.190038
O8	O	-0.162537	1.018364	0.309396
O9	O	-0.341921	1.227938	0.309357
O10	O	-0.162521	1.108781	0.399802
O11	O	-0.264614	1.018263	0.190054
O12	O	-0.264580	0.898985	0.309347
O13	O	-0.341861	1.018285	0.519035
O14	O	-0.341881	0.898951	0.399716
O15	O	-0.264545	1.108736	0.519072
O16	O	-0.443964	1.108559	0.309308
O17	O	-0.443938	1.018184	0.399694
C18	C	-0.303229	0.872266	0.354529
C19	C	-0.303240	0.790467	0.354537
C20	C	-0.343554	0.602275	0.401533
C21	C	-0.343556	0.525416	0.401542
C22	C	-0.262938	0.525422	0.307582
C23	C	-0.262933	0.602279	0.307577
C24	C	-0.303245	0.640703	0.354552
C25	C	-0.303251	0.486987	0.354566
C26	C	-0.303253	0.403654	0.354575
C27	C	-0.303242	0.724042	0.354543
C28	C	-0.466792	1.063376	0.354509
C29	C	-0.536760	1.063402	0.354516
C30	C	-0.569619	1.110502	0.307500
C31	C	-0.635361	1.110536	0.307517
C32	C	-0.668242	1.063457	0.354542
C33	C	-0.635375	1.016354	0.401566
C34	C	-0.569634	1.016326	0.401554
N35	N	-0.771508	0.999079	0.360145
N36	N	-0.833960	0.999107	0.360153
C37	C	-0.866317	1.063540	0.354584
N38	N	-0.833863	1.127944	0.348993
N39	N	-0.771406	1.127915	0.348981
C40	C	-0.739528	1.063483	0.354561
C41	C	-0.970462	1.110681	0.307584
C42	C	-1.036205	1.110717	0.307605
C43	C	-1.036218	1.016528	0.401651
C44	C	-0.970475	1.016499	0.401633
C45	C	-0.937601	1.063575	0.354595
C46	C	-0.139050	1.063589	0.354607
C47	C	-0.069082	1.063639	0.354631
C48	C	-0.303197	1.063517	0.546503
C49	C	-0.303178	1.063536	0.628302
C50	C	-0.303251	1.255425	0.354571
C51	C	-0.303256	1.337224	0.354581
C52	C	-0.303238	1.063470	0.163344
C53	C	-0.303079	1.063593	0.081545
C54	C	-0.262882	1.110651	0.816516
C55	C	-0.262863	1.110660	0.893375
C56	C	-0.343377	1.016473	0.893325
C57	C	-0.343392	1.016461	0.816468
C58	C	-0.303145	1.063554	0.778065
C59	C	-0.303112	1.063575	0.931781
C60	C	-0.303093	1.063584	1.015115
C61	C	-0.303164	1.063544	0.694726
H62	H	-0.230104	0.633569	0.269319
H63	H	-1.062958	1.149076	0.269321
C64	C	-1.072379	0.964738	0.453378
C65	C	-1.144691	0.964765	0.453394
C66	C	-1.180855	0.912974	0.505123
C67	C	-1.144707	0.861158	0.556837
C68	C	-1.072390	0.861129	0.556823
C69	C	-1.036226	0.912920	0.505093
H70	H	-1.171454	1.003124	0.415111
H71	H	-1.234389	0.912996	0.505134
H72	H	-1.171477	0.822819	0.595130
H73	H	-1.045627	0.822770	0.595106
H74	H	-0.982692	0.912899	0.505083
H75	H	-0.376146	0.978133	0.924602
H76	H	-0.943720	0.978143	0.439914
C77	C	-0.533461	1.162291	0.255765
C78	C	-0.542561	1.156337	0.172100
C79	C	-0.506403	1.208128	0.120366
C80	C	-0.461145	1.265873	0.152296
C81	C	-0.452043	1.271829	0.235965
C82	C	-0.488202	1.220038	0.287700
H83	H	-0.576065	1.113589	0.148460
H84	H	-0.513141	1.203719	0.058428
H85	H	-0.434379	1.304212	0.113999
H86	H	-0.418539	1.314578	0.259606
H87	H	-0.481464	1.224447	0.349637
H88	H	-0.230118	0.494127	0.269336
C89	C	-0.671517	1.162342	0.255790
C90	C	-0.635357	1.214119	0.204049
C91	C	-0.671510	1.265921	0.152319
C92	C	-0.743823	1.265946	0.152330
C93	C	-0.779987	1.214167	0.204072
C94	C	-0.743834	1.162365	0.255802
H95	H	-0.581823	1.214102	0.204039
H96	H	-0.644739	1.304251	0.114015
H97	H	-0.770586	1.304293	0.114036
H98	H	-0.833521	1.214184	0.204082
H99	H	-0.770605	1.124034	0.294106
H100	H	-0.662151	0.978024	0.439855
C101	C	-0.218607	1.162446	0.774273
C102	C	-0.245892	1.220202	0.721438
C103	C	-0.201615	1.271997	0.679198
C104	C	-0.130051	1.266036	0.689792
C105	C	-0.102762	1.208278	0.742630
C106	C	-0.147040	1.156483	0.784870
H107	H	-0.298871	1.224616	0.713593
H108	H	-0.221816	1.314753	0.640084
H109	H	-0.097274	1.304378	0.658523
H110	H	-0.049783	1.203864	0.750474
H111	H	-0.126838	1.113727	0.823984
H112	H	-0.230076	1.149009	0.924678
C113	C	-0.387890	0.644542	0.453210
C114	C	-0.360671	0.697419	0.511041
C115	C	-0.405007	0.739683	0.562721
C116	C	-0.476563	0.729071	0.556570
C117	C	-0.503786	0.676192	0.498737
C118	C	-0.459450	0.633927	0.447057
H119	H	-0.307698	0.705277	0.515596
H120	H	-0.384854	0.778828	0.605533
H121	H	-0.509383	0.760358	0.594827
H122	H	-0.556759	0.668334	0.494182
H123	H	-0.479603	0.594783	0.404245
C124	C	-0.387685	0.964652	0.774166
C125	C	-0.431961	0.912858	0.816403
C126	C	-0.476250	0.861050	0.774101
C127	C	-0.476263	0.861035	0.689561
C128	C	-0.431986	0.912831	0.647318
C129	C	-0.387697	0.964640	0.689621
H130	H	-0.431953	0.912867	0.878989
H131	H	-0.509027	0.822707	0.805372
H132	H	-0.509048	0.822683	0.658246
H133	H	-0.431994	0.912822	0.584733
H134	H	-0.354920	1.002982	0.658350
H135	H	-0.376379	0.494130	0.439801
H136	H	-0.542879	0.977971	0.439840
C137	C	-0.934293	1.162468	0.255853
C138	C	-0.943390	1.156522	0.172187
C139	C	-0.907222	1.208309	0.120458
C140	C	-0.861957	1.266043	0.152395
C141	C	-0.852858	1.271992	0.236065
C142	C	-0.889026	1.220205	0.287794
H143	H	-0.976899	1.113782	0.148542
H144	H	-0.913958	1.203905	0.058520
H145	H	-0.835184	1.304379	0.114102
H146	H	-0.819349	1.314732	0.259710
H147	H	-0.882290	1.224609	0.349732
