data_functionalizedCrystal
_audit_creation_method	'MofGen! by Chris Wilmer'
_symmetry_space_group_name_H-M	'P1'
_symmetry_Int_Tables_number	1
_symmetry_cell_setting	triclinic
loop_
_symmetry_equiv_pos_as_xyz
  x,y,z
_cell_length_a	12.645331
_cell_length_b	21.295417
_cell_length_c	12.645324
_cell_angle_alpha	89.959220
_cell_angle_beta	89.978020
_cell_angle_gamma	90.029485
loop_
_atom_site_label
_atom_site_type_symbol
_atom_site_fract_x
_atom_site_fract_y
_atom_site_fract_z
Zn1	Zn	1.620630	-0.250579	-0.599379
Zn2	Zn	2.120630	0.249421	-0.099379
Zn3	Zn	1.620474	-0.355866	-0.422091
Zn4	Zn	2.120474	0.144134	0.077909
Zn5	Zn	1.443346	-0.250613	-0.422123
Zn6	Zn	1.943346	0.249387	0.077877
Zn7	Zn	1.443286	-0.355813	-0.599306
Zn8	Zn	1.943286	0.144187	-0.099306
O9	O	1.531934	-0.303218	-0.510725
O10	O	2.031934	0.196782	-0.010725
O11	O	1.768956	-0.264554	-0.575878
O12	O	2.268956	0.235446	-0.075878
O13	O	1.596937	-0.341941	-0.273748
O14	O	2.096937	0.158059	0.226252
O15	O	1.466954	-0.162519	-0.445681
O16	O	1.966954	0.337481	0.054319
O17	O	1.768842	-0.341908	-0.445625
O18	O	2.268842	0.158092	0.054375
O19	O	1.597203	-0.162494	-0.575910
O20	O	2.097203	0.337506	-0.075910
O21	O	1.466803	-0.264612	-0.273772
O22	O	1.966803	0.235388	0.226228
O23	O	1.294991	-0.264560	-0.445610
O24	O	1.794991	0.235440	0.054390
O25	O	1.466851	-0.341817	-0.747663
O26	O	1.966851	0.158183	-0.247663
O27	O	1.294947	-0.341849	-0.575786
O28	O	1.794947	0.158151	-0.075786
O29	O	1.597145	-0.264502	-0.747717
O30	O	2.097145	0.235498	-0.247717
O31	O	1.596879	-0.443949	-0.445555
O32	O	2.096879	0.056051	0.054445
O33	O	1.466700	-0.443909	-0.575754
O34	O	1.966700	0.056091	-0.075754
C35	C	1.256504	-0.303203	-0.510694
C36	C	1.756504	0.196797	-0.010694
C37	C	1.138674	-0.303212	-0.510706
C38	C	1.638674	0.196788	-0.010706
C39	C	0.971103	-0.254365	-0.429265
C40	C	1.471103	0.245635	0.070735
C41	C	1.093662	-0.254491	-0.428906
C42	C	1.593662	0.245509	0.071094
C43	C	1.094129	-0.369526	-0.480174
C44	C	1.594129	0.130474	0.019826
C45	C	0.971531	-0.369260	-0.479618
C46	C	1.471531	0.130740	0.020382
C47	C	0.971530	-0.286375	-0.622995
C48	C	1.471530	0.213625	-0.122995
C49	C	1.094136	-0.284893	-0.622372
C50	C	1.594136	0.215107	-0.122372
C51	C	1.531795	-0.466769	-0.510666
C52	C	2.031795	0.033231	-0.010666
C53	C	1.531833	-0.536737	-0.510677
C54	C	2.031833	-0.036737	-0.010677
C55	C	1.599677	-0.569604	-0.442951
C56	C	2.099677	-0.069604	0.057049
C57	C	1.599727	-0.635346	-0.442975
C58	C	2.099727	-0.135346	0.057025
C59	C	1.531913	-0.668220	-0.510713
C60	C	2.031913	-0.168220	-0.010713
C61	C	1.464064	-0.635346	-0.578452
C62	C	1.964064	-0.135346	-0.078452
C63	C	1.464024	-0.569605	-0.578433
C64	C	1.964024	-0.069605	-0.078433
N65	N	1.439177	-0.771484	-0.518784
N66	N	1.939177	-0.271484	-0.018784
N67	N	1.439218	-0.833935	-0.518796
N68	N	1.939218	-0.333935	-0.018796
C69	C	1.532032	-0.866295	-0.510774
C70	C	2.032032	-0.366295	-0.010774
N71	N	1.624805	-0.833843	-0.502720
N72	N	2.124805	-0.333843	-0.002720
N73	N	1.624762	-0.771386	-0.502703
N74	N	2.124762	-0.271386	-0.002703
C75	C	1.531950	-0.739505	-0.510741
C76	C	2.031950	-0.239505	-0.010741
C77	C	1.599936	-0.970446	-0.443071
C78	C	2.099936	-0.470446	0.056929
C79	C	1.599987	-1.036190	-0.443102
C80	C	2.099987	-0.536190	0.056898
C81	C	1.464315	-1.036188	-0.578573
C82	C	1.964315	-0.536188	-0.078573
C83	C	1.464273	-0.970446	-0.578547
C84	C	1.964273	-0.470446	-0.078547
C85	C	1.532082	-0.937579	-0.510791
C86	C	2.032082	-0.437579	-0.010791
C87	C	1.808439	-0.303233	-0.510756
C88	C	2.308439	0.196767	-0.010756
C89	C	1.926269	-0.303240	-0.510770
C90	C	2.426269	0.196760	-0.010770
C91	C	1.532009	-0.303150	-0.787230
C92	C	2.032009	0.196850	-0.287230
C93	C	1.532041	-0.303121	-0.905061
C94	C	2.032041	0.196879	-0.405061
C95	C	1.532102	-0.139027	-0.510807
C96	C	2.032102	0.360973	-0.010807
C97	C	1.532174	-0.069059	-0.510842
C98	C	2.032174	0.430941	-0.010842
C99	C	1.614026	-0.254472	-0.949976
C100	C	2.114026	0.245528	-0.449976
C101	C	1.614378	-0.254599	-1.072536
C102	C	2.114378	0.245401	-0.572536
C103	C	1.561971	-0.369490	-1.072924
C104	C	2.061971	0.130510	-0.572924
C105	C	1.562536	-0.369225	-0.950326
C106	C	2.062536	0.130775	-0.450326
C107	C	1.419982	-0.285945	-0.950236
C108	C	1.919982	0.214055	-0.450236
C109	C	1.420614	-0.284465	-1.072843
C110	C	1.920614	0.215535	-0.572843
C111	C	1.531921	-0.303240	-0.235295
C112	C	2.031921	0.196760	0.264705
C113	C	1.532094	-0.303092	-0.117466
C114	C	2.032094	0.196908	0.382534
H115	H	0.942881	-0.383561	-0.397575
H116	H	1.442881	0.116439	0.102425
N117	N	1.134700	-0.388800	-0.372658
N118	N	1.634700	0.111200	0.127342
H119	H	1.176326	-0.429076	-0.379205
H120	H	1.676326	0.070924	0.120795
H121	H	1.181884	-0.354640	-0.343629
H122	H	1.681884	0.145360	0.156371
H123	H	1.123781	-0.205316	-0.448045
H124	H	1.623781	0.294684	0.051955
H125	H	1.123284	-0.406915	-0.537674
H126	H	1.623284	0.093085	-0.037674
H127	H	1.398075	-0.235601	-1.101960
H128	H	1.898075	0.264399	-0.601960
H129	H	1.654977	-0.662111	-0.387825
H130	H	2.154977	-0.162111	0.112175
H131	H	1.642974	-0.384269	-1.103660
H132	H	2.142974	0.115731	-0.603660
H133	H	1.392680	-0.238363	-0.919331
H134	H	1.892680	0.261637	-0.419331
N135	N	1.390924	-0.670798	-0.651516
N136	N	1.890924	-0.170798	-0.151516
H137	H	1.401241	-0.717432	-0.641249
H138	H	1.901241	-0.217432	-0.141249
H139	H	1.315215	-0.659353	-0.634945
H140	H	1.815215	-0.159353	-0.134945
H141	H	1.356310	-0.317289	-1.103423
H142	H	1.856310	0.182711	-0.603423
N143	N	1.672828	-0.534156	-0.369890
N144	N	2.172828	-0.034156	0.130110
H145	H	1.629766	-0.506926	-0.320712
H146	H	2.129766	-0.006926	0.179288
H147	H	1.715802	-0.564998	-0.327066
H148	H	2.215802	-0.064998	0.172934
N149	N	0.932089	-0.189030	-0.454324
N150	N	1.432089	0.310970	0.045676
H151	H	0.884972	-0.190476	-0.518752
H152	H	1.384972	0.309524	-0.018752
H153	H	0.890746	-0.172235	-0.392131
H154	H	1.390746	0.327765	0.107869
N155	N	0.929856	-0.268788	-0.319831
N156	N	1.429856	0.231212	0.180169
H157	H	0.882299	-0.306864	-0.322813
H158	H	1.382299	0.193136	0.177187
H159	H	0.991182	-0.277450	-0.270811
H160	H	1.491182	0.222550	0.229189
H161	H	1.505372	-0.406707	-0.920608
H162	H	2.005372	0.093293	-0.420608
N163	N	0.932232	-0.419126	-0.554820
N164	N	1.432232	0.080874	-0.054820
H165	H	0.994552	-0.441186	-0.588180
H166	H	1.494552	0.058814	-0.088180
H167	H	0.887910	-0.450607	-0.514688
H168	H	1.387910	0.049393	-0.014688
N169	N	1.723400	-0.269367	-0.909206
N170	N	2.223400	0.230633	-0.409206
H171	H	1.751349	-0.232389	-0.867762
H172	H	2.251349	0.267611	-0.367762
H173	H	1.719995	-0.307507	-0.861808
H174	H	2.219995	0.192493	-0.361808
N175	N	1.673160	-1.071644	-0.370049
N176	N	2.173160	-0.571644	0.129951
H177	H	1.722287	-1.098870	-0.413180
H178	H	2.222287	-0.598870	0.086820
H179	H	1.716035	-1.040806	-0.327137
H180	H	2.216035	-0.540806	0.172863
N181	N	1.390844	-0.534151	-0.651481
N182	N	1.890844	-0.034151	-0.151481
H183	H	1.347892	-0.564950	-0.694400
H184	H	1.847892	-0.064950	-0.194400
H185	H	1.341791	-0.506925	-0.608272
H186	H	1.841791	-0.006925	-0.108272
H187	H	1.644438	-0.383752	-0.921738
H188	H	2.144438	0.116248	-0.421738
H189	H	1.655153	-0.943685	-0.387902
H190	H	2.155153	-0.443685	0.112098
H191	H	1.123258	-0.236093	-0.645395
H192	H	1.623258	0.263907	-0.145395
N193	N	1.391179	-1.071635	-0.651644
N194	N	1.891179	-0.571635	-0.151644
H195	H	1.401501	-1.118270	-0.641383
H196	H	1.901501	-0.618270	-0.141383
H197	H	1.315469	-1.060194	-0.635073
H198	H	1.815469	-0.560194	-0.135073
N199	N	1.339070	-0.332873	-0.911758
N200	N	1.839070	0.167127	-0.411758
H201	H	1.374768	-0.365105	-0.865292
H202	H	1.874768	0.134895	-0.365292
H203	H	1.282660	-0.310350	-0.869860
H204	H	1.782660	0.189650	-0.369860
N205	N	1.724383	-0.269672	-1.111411
N206	N	2.224383	0.230328	-0.611411
H207	H	1.772833	-0.276264	-1.048906
H208	H	2.272833	0.223736	-0.548906
H209	H	1.722241	-0.309145	-1.155586
H210	H	2.222241	0.190855	-0.655586
N211	N	0.933132	-0.333515	-0.703459
N212	N	1.433132	0.166485	-0.203459
H213	H	0.957880	-0.376899	-0.682745
H214	H	1.457880	0.123101	-0.182745
H215	H	0.853320	-0.332741	-0.706108
H216	H	1.353320	0.167259	-0.206108
N217	N	1.132440	-0.269256	-0.318746
N218	N	1.632440	0.230744	0.181254
H219	H	1.105405	-0.311902	-0.296485
H220	H	1.605405	0.188098	0.203515
H221	H	1.212305	-0.269363	-0.318124
H222	H	1.712305	0.230637	0.181876
H223	H	1.504101	-0.406720	-1.102021
H224	H	2.004101	0.093280	-0.602021
N225	N	0.930628	-0.223441	-0.659783
N226	N	1.430628	0.276559	-0.159783
H227	H	0.882337	-0.205224	-0.604066
H228	H	1.382337	0.294776	-0.104066
H229	H	0.992143	-0.194047	-0.671991
H230	H	1.492143	0.305953	-0.171991
H231	H	1.595712	-0.205373	-1.102656
H232	H	2.095712	0.294627	-0.602656
N233	N	1.134717	-0.328605	-0.707123
N234	N	1.634717	0.171395	-0.207123
H235	H	1.182759	-0.361049	-0.674187
H236	H	1.682759	0.138951	-0.174187
H237	H	1.073039	-0.350295	-0.742328
H238	H	1.573039	0.149705	-0.242328
H239	H	1.409023	-0.943684	-0.633691
H240	H	1.909023	-0.443684	-0.133691
H241	H	1.595581	-0.205097	-0.920533
H242	H	2.095581	0.294903	-0.420533
