data_functionalizedCrystal
_audit_creation_method	'MofGen! by Chris Wilmer'
_symmetry_space_group_name_H-M	'P1'
_symmetry_Int_Tables_number	1
_symmetry_cell_setting	triclinic
loop_
_symmetry_equiv_pos_as_xyz
  x,y,z
_cell_length_a	14.853567
_cell_length_b	16.109301
_cell_length_c	14.586319
_cell_angle_alpha	89.998582
_cell_angle_beta	90.000553
_cell_angle_gamma	96.451795
loop_
_atom_site_label
_atom_site_type_symbol
_atom_site_fract_x
_atom_site_fract_y
_atom_site_fract_z
O1	O	0.115881	-1.103294	0.076175
O2	O	0.130302	-0.861253	0.076188
O3	O	-0.008149	-0.988739	0.076184
O4	O	0.254332	-0.975808	0.076179
O5	O	-0.008152	-0.988728	-0.076297
O6	O	0.130299	-0.861242	-0.076293
O7	O	0.115878	-1.103284	-0.076306
Cu8	Cu	0.123088	-0.982262	-0.090222
Cu9	Cu	0.123092	-0.982274	0.090104
O10	O	0.254329	-0.975798	-0.076302
C11	C	-0.041738	-0.988148	-0.000054
C12	C	-0.141819	-0.986392	-0.000046
C13	C	0.129717	-0.830272	-0.000050
C14	C	0.127965	-0.737974	-0.000045
C15	C	0.116464	-1.134265	-0.000066
C16	C	0.118215	-1.226563	-0.000065
C17	C	-0.554215	-0.903241	-0.000059
C18	C	-0.575746	-1.054697	-0.000067
C19	C	-0.481715	-1.056348	-0.000062
C20	C	-0.423930	-0.981444	-0.000056
C21	C	-0.460175	-0.904889	-0.000056
C22	C	-0.445463	-1.132901	-0.000071
C23	C	-0.351426	-1.134555	-0.000067
C24	C	-0.293639	-1.059650	-0.000055
C25	C	-0.329890	-0.983093	-0.000054
C26	C	-0.272104	-0.908189	-0.000048
C27	C	-0.308353	-0.831630	-0.000040
C28	C	-0.402388	-0.829984	-0.000044
C29	C	-0.199604	-1.061296	-0.000051
C30	C	-0.178064	-0.909837	-0.000046
C31	C	0.287918	-0.976389	-0.000062
C32	C	0.387999	-0.978145	-0.000064
N33	N	0.123085	-0.982260	-0.217054
C34	C	0.206047	-0.515811	-0.000057
C35	C	0.204395	-0.429089	-0.000063
C36	C	0.040127	-0.448732	-0.000056
C37	C	0.041781	-0.535453	-0.000057
C38	C	0.124743	-0.568990	-0.000052
C39	C	0.121437	-0.395546	-0.000058
C40	C	0.119645	-0.301518	-0.000064
C41	C	0.126536	-0.663025	-0.000048
C42	C	0.061799	-1.038733	-0.548050
C43	C	0.061799	-1.038731	-0.452068
C44	C	0.184381	-0.925808	-0.452075
C45	C	0.184384	-0.925814	-0.548055
C46	C	0.123088	-0.982276	-0.596039
C47	C	0.123085	-0.982267	-0.404079
C48	C	0.123086	-0.982265	-0.300012
C49	C	0.123088	-0.982280	-0.700113
N50	N	0.123088	-0.982283	0.216936
H51	H	-0.131020	-0.848840	-0.000037
O52	O	-0.312341	-1.217129	-0.000061
H53	H	-0.270015	-1.221511	-0.062209
O54	O	-0.004311	-1.099617	-0.400304
H55	H	-0.046935	-1.138871	-0.449799
O56	O	-0.160502	-1.143858	-0.000054
H57	H	-0.216482	-1.195666	-0.000055
O58	O	0.250467	-0.864888	-0.400322
H59	H	0.240156	-0.874355	-0.325518
H60	H	0.273601	-0.543114	-0.000060
O61	O	-0.246023	-0.750842	-0.000046
H62	H	-0.258902	-0.714210	0.062101
O63	O	0.292088	-0.371731	-0.000073
H64	H	0.295266	-0.331743	0.062068
H65	H	-0.492518	-1.193884	-0.000084
O66	O	-0.004304	-1.099640	-0.599799
H67	H	-0.048140	-1.064602	-0.643528
H68	H	-0.027418	-0.421415	-0.000065
H69	H	0.234297	-0.879840	-0.587131
H70	H	-0.431911	-0.767654	-0.000039
O71	O	-0.045915	-0.592821	-0.000054
H72	H	-0.103882	-0.554933	-0.000044
H73	H	-0.583733	-0.840908	-0.000049
H74	H	-0.622800	-1.115680	-0.000079
