data_functionalizedCrystal
_audit_creation_method	'MofGen! by Chris Wilmer'
_symmetry_space_group_name_H-M	'P1'
_symmetry_Int_Tables_number	1
_symmetry_cell_setting	triclinic
loop_
_symmetry_equiv_pos_as_xyz
  x,y,z
_cell_length_a	13.897449
_cell_length_b	18.050589
_cell_length_c	13.897441
_cell_angle_alpha	89.973098
_cell_angle_beta	89.978743
_cell_angle_gamma	90.029048
loop_
_atom_site_label
_atom_site_type_symbol
_atom_site_fract_x
_atom_site_fract_y
_atom_site_fract_z
Zn1	Zn	1.474612	-0.295626	-0.545468
Zn2	Zn	1.974612	0.204374	-0.045468
Zn3	Zn	1.474482	-0.419829	-0.384177
Zn4	Zn	1.974482	0.080171	0.115823
Zn5	Zn	1.313307	-0.295659	-0.384179
Zn6	Zn	1.813307	0.204341	0.115821
Zn7	Zn	1.313253	-0.419781	-0.545422
Zn8	Zn	1.813253	0.080219	-0.045422
O9	O	1.393913	-0.357724	-0.464811
O10	O	1.893913	0.142276	0.035189
O11	O	1.609576	-0.312109	-0.524091
O12	O	2.109576	0.187891	-0.024091
O13	O	1.453070	-0.403391	-0.249195
O14	O	1.953070	0.096609	0.250805
O15	O	1.334781	-0.191730	-0.405594
O16	O	1.834781	0.308270	0.094406
O17	O	1.609481	-0.403359	-0.405591
O18	O	2.109481	0.096641	0.094409
O19	O	1.453291	-0.191706	-0.524093
O20	O	1.953291	0.308294	-0.024093
O21	O	1.334655	-0.312164	-0.249197
O22	O	1.834655	0.187836	0.250803
O23	O	1.178318	-0.312117	-0.405550
O24	O	1.678318	0.187883	0.094450
O25	O	1.334689	-0.403278	-0.680410
O26	O	1.834689	0.096722	-0.180410
O27	O	1.178279	-0.403309	-0.524014
O28	O	1.678279	0.096691	-0.024014
O29	O	1.453239	-0.312062	-0.680444
O30	O	1.953239	0.187938	-0.180444
O31	O	1.453018	-0.523747	-0.405546
O32	O	1.953018	-0.023747	0.094454
O33	O	1.334564	-0.523712	-0.524013
O34	O	1.834564	-0.023712	-0.024013
C35	C	1.143299	-0.357712	-0.464778
C36	C	1.643299	0.142288	0.035222
C37	C	1.036085	-0.357725	-0.464786
C38	C	1.536085	0.142275	0.035214
C39	C	0.949015	-0.357728	-0.464802
C40	C	1.449015	0.142272	0.035198
C41	C	0.839783	-0.357733	-0.464832
C42	C	1.339783	0.142267	0.035168
C43	C	1.393797	-0.550676	-0.464795
C44	C	1.893797	-0.050676	0.035205
C45	C	1.393835	-0.633222	-0.464821
C46	C	1.893835	-0.133222	0.035179
C47	C	1.329483	-0.832680	-0.529220
C48	C	1.829483	-0.332680	-0.029220
C49	C	1.305970	-0.882125	-0.441200
C50	C	1.805970	-0.382125	0.058800
C51	C	1.393930	-0.784352	-0.464833
C52	C	1.893930	-0.284352	0.035167
C53	C	1.417491	-0.881989	-0.552863
C54	C	1.917491	-0.381989	-0.052863
C55	C	1.394020	-0.930337	-0.464853
C56	C	1.894020	-0.430337	0.035147
C57	C	1.370370	-0.832709	-0.376767
C58	C	1.870370	-0.332709	0.123233
C59	C	1.481933	-0.832569	-0.488489
C60	C	1.981933	-0.332569	0.011511
C61	C	1.458453	-0.881992	-0.400409
C62	C	1.958453	-0.381992	0.099591
C63	C	1.393876	-0.700254	-0.464823
C64	C	1.893876	-0.200254	0.035177
C65	C	1.394074	-1.014434	-0.464854
C66	C	1.894074	-0.514434	0.035146
C67	C	1.645506	-0.357736	-0.464846
C68	C	2.145506	0.142264	0.035154
C69	C	1.752720	-0.357741	-0.464860
C70	C	2.252720	0.142259	0.035140
C71	C	1.393972	-0.357661	-0.716405
C72	C	1.893972	0.142339	-0.216405
C73	C	1.393998	-0.357635	-0.823619
C74	C	1.893998	0.142365	-0.323619
C75	C	1.394057	-0.164018	-0.464849
C76	C	1.894057	0.335982	0.035151
C77	C	1.394118	-0.081472	-0.464864
C78	C	1.894118	0.418528	0.035136
C79	C	1.394017	-0.357614	-0.910688
C80	C	1.894017	0.142386	-0.410688
C81	C	1.394045	-0.357580	-1.019921
C82	C	1.894045	0.142420	-0.519921
C83	C	1.393910	-0.357732	-0.214197
C84	C	1.893910	0.142268	0.285803
C85	C	1.394072	-0.357550	-0.106984
C86	C	1.894072	0.142450	0.393016
H87	H	1.274902	-0.811028	-0.583593
H88	H	1.774902	-0.311028	-0.083593
H89	H	1.512992	-0.903507	-0.345905
H90	H	2.012992	-0.403507	0.154095
O91	O	1.443850	-0.910661	-0.651462
O92	O	1.943850	-0.410661	-0.151462
H93	H	1.390200	-0.890911	-0.704754
H94	H	1.890200	-0.390911	-0.204754
O95	O	1.207446	-0.910959	-0.414690
O96	O	1.707446	-0.410959	0.085310
H97	H	1.154037	-0.891215	-0.468229
H98	H	1.654037	-0.391215	0.031771
O99	O	1.343899	-0.804165	-0.278136
O100	O	1.843899	-0.304165	0.221864
H101	H	1.344031	-0.742677	-0.278913
H102	H	1.844031	-0.242677	0.221087
H103	H	1.556295	-0.810788	-0.508521
H104	H	2.056295	-0.310788	-0.008521
