data_functionalizedCrystal
_audit_creation_method	'MofGen! by Chris Wilmer'
_symmetry_space_group_name_H-M	'P1'
_symmetry_Int_Tables_number	1
_symmetry_cell_setting	triclinic
loop_
_symmetry_equiv_pos_as_xyz
  x,y,z
_cell_length_a	15.625950
_cell_length_b	10.540539
_cell_length_c	14.185569
_cell_angle_alpha	76.712172
_cell_angle_beta	120.545593
_cell_angle_gamma	84.377343
loop_
_atom_site_label
_atom_site_type_symbol
_atom_site_fract_x
_atom_site_fract_y
_atom_site_fract_z
O1	O	1.290896	0.032837	0.386001
O2	O	1.003163	0.088606	0.281370
O3	O	1.153594	-0.124873	0.336074
O4	O	1.140465	0.246316	0.331297
O5	O	1.198033	-0.187931	0.519068
O6	O	1.047602	0.025549	0.464364
O7	O	1.335334	-0.030221	0.568995
Cu8	Cu	1.195526	-0.008094	0.533389
Cu9	Cu	1.142972	0.066479	0.316976
O10	O	1.184903	0.183259	0.514291
C11	C	0.988539	0.060796	0.359469
C12	C	0.878756	0.071862	0.319548
C13	C	0.638684	-0.063492	0.686867
C14	C	0.535512	-0.053051	0.649303
C15	C	0.487118	0.015687	0.449829
C16	C	0.590287	0.005258	0.487376
C17	C	0.666064	-0.034333	0.605896
C18	C	0.617667	0.034416	0.406405
C19	C	0.720829	0.023982	0.443950
C20	C	0.796611	-0.015611	0.562465
C21	C	0.769226	-0.044768	0.643441
C22	C	0.541890	0.073998	0.287885
C23	C	0.569270	0.103157	0.206914
C24	C	0.672432	0.092731	0.244458
C25	C	0.748214	0.053138	0.362974
C26	C	0.699817	0.121888	0.163482
C27	C	0.802979	0.111453	0.201027
C28	C	0.851376	0.042704	0.400519
C29	C	1.174828	-0.203571	0.427211
C30	C	1.171881	-0.344119	0.426134
C31	C	1.058907	-0.512139	0.384678
C32	C	1.061993	-0.366066	0.386175
C33	C	1.250141	-0.448938	0.549863
C34	C	1.246412	-0.595005	0.548587
C35	C	1.198112	-0.524117	0.341301
C36	C	1.198789	-0.376796	0.340288
C37	C	1.349958	-0.002410	0.490893
C38	C	1.459740	-0.013473	0.530808
C39	C	1.163668	0.261957	0.423152
C40	C	1.166614	0.402508	0.424222
N41	N	1.232496	-0.060546	0.685604
N42	N	1.106009	0.118920	0.164764
C43	C	0.997388	0.272970	0.967757
C44	C	1.025400	0.233246	1.082965
C45	C	1.158634	0.044270	1.131377
C46	C	1.130630	0.083975	1.016170
C47	C	1.050007	0.198326	0.934368
C48	C	1.183250	0.009331	0.982780
C49	C	1.155251	0.049037	0.867584
C50	C	1.074633	0.163387	0.785777
C51	C	1.022009	0.238032	0.819172
C52	C	1.263877	-0.105014	1.064585
C53	C	1.316496	-0.179658	1.031196
C54	C	1.288493	-0.139958	0.915996
C55	C	1.207876	-0.025608	0.834189
C56	C	1.341118	-0.214603	0.882601
C57	C	1.313119	-0.174898	0.767405
C58	C	1.179877	0.014098	0.718993
H59	H	0.830927	-0.076987	0.739952
N60	N	1.398856	-0.296458	1.114740
N61	N	1.487121	-0.301508	1.135075
H62	H	1.545289	-0.384002	1.194074
H63	H	1.277314	-0.581836	0.369461
N64	N	1.292468	-0.145610	1.182252
N65	N	1.287922	-0.259319	1.227454
H66	H	1.308115	-0.287998	1.310557
N67	N	0.716088	-0.103945	0.807938
N68	N	0.787523	-0.207907	0.854240
H69	H	0.842185	-0.236477	0.939744
H70	H	0.507560	0.135386	0.110414
H71	H	1.143313	-0.523568	0.249165
N72	N	1.423482	-0.331384	0.966184
N73	N	1.448481	-0.366809	1.069037
H74	H	1.506654	-0.449284	1.128070
H75	H	0.425408	0.047916	0.353329
H76	H	0.638107	0.154110	0.066983
H77	H	1.355969	-0.235680	0.740222
N78	N	1.227768	-0.422908	0.630682
N79	N	1.293807	-0.396046	0.716341
H80	H	1.278002	-0.377664	0.773418
H81	H	0.880611	-0.024108	0.593032
N82	N	1.126797	-0.285474	0.225666
N83	N	1.072648	-0.329656	0.145770
H84	H	1.021813	-0.265148	0.064817
N85	N	0.830937	0.141231	0.118307
N86	N	0.763272	0.176576	0.012491
H87	H	0.783017	0.197601	-0.045934
N88	N	1.097513	0.130891	0.635408
N89	N	1.020244	0.120331	0.548723
H90	H	0.962077	0.202812	0.489690
N91	N	0.981629	-0.508283	0.270871
N92	N	0.963200	-0.615397	0.251194
H93	H	0.908623	-0.612682	0.170813
H94	H	0.913077	0.010484	0.497029
H95	H	0.513224	-0.076769	0.715248
N96	N	1.297364	-0.357244	0.368912
N97	N	1.349627	-0.318745	0.453431
H98	H	1.419250	-0.304932	0.473652
H99	H	0.457890	0.082499	0.257320
H100	H	1.051841	0.195717	0.691979
N101	N	0.939642	0.354835	0.735616
N102	N	0.892659	0.421469	0.765435
H103	H	0.834490	0.503959	0.706426
H104	H	0.982545	0.294041	1.110141
N105	N	0.986967	-0.273188	0.273218
N106	N	0.931952	-0.316050	0.192724
H107	H	0.878957	-0.250459	0.112944
H108	H	1.033771	-0.562177	0.443475
N109	N	1.032285	-0.339020	0.461193
N110	N	1.009213	-0.428100	0.512611
H111	H	0.988232	-0.409003	0.565598
H112	H	0.931730	0.366078	0.901147
H113	H	1.226299	-0.644836	0.612490
N114	N	1.347004	-0.670634	0.590602
N115	N	1.419736	-0.615467	0.620779
H116	H	1.490780	-0.668876	0.650460
N117	N	1.240995	-0.072516	1.214956
N118	N	1.265992	-0.107948	1.317809
H119	H	1.324162	-0.190428	1.376838
N120	N	1.352554	-0.436237	0.591547
N121	N	1.373843	-0.327393	0.603488
H122	H	1.446171	-0.318416	0.632923
