data_functionalizedCrystal
_audit_creation_method	'MofGen! by Chris Wilmer'
_symmetry_space_group_name_H-M	'P1'
_symmetry_Int_Tables_number	1
_symmetry_cell_setting	triclinic
loop_
_symmetry_equiv_pos_as_xyz
  x,y,z
_cell_length_a	21.395362
_cell_length_b	13.897447
_cell_length_c	21.395355
_cell_angle_alpha	89.985644
_cell_angle_beta	89.956060
_cell_angle_gamma	90.035409
loop_
_atom_site_label
_atom_site_type_symbol
_atom_site_fract_x
_atom_site_fract_y
_atom_site_fract_z
Zn1	Zn	0.957908	-0.383718	-0.354604
Zn2	Zn	0.957831	-0.544997	-0.249834
Zn3	Zn	0.853123	-0.383763	-0.249805
Zn4	Zn	0.853113	-0.545017	-0.354539
O5	O	0.905494	-0.464374	-0.302195
O6	O	1.045576	-0.405085	-0.340745
O7	O	0.943913	-0.523620	-0.162152
O8	O	0.867060	-0.248775	-0.263722
O9	O	1.045519	-0.523576	-0.263771
O10	O	0.944045	-0.248742	-0.340717
O11	O	0.866985	-0.405161	-0.162131
O12	O	0.765444	-0.405181	-0.263659
O13	O	0.867042	-0.523610	-0.442225
O14	O	0.765436	-0.523654	-0.340606
O15	O	0.944035	-0.405104	-0.442273
O16	O	0.943903	-0.679982	-0.263708
O17	O	0.866967	-0.679996	-0.340634
C18	C	0.742706	-0.464425	-0.302123
C19	C	0.673065	-0.464470	-0.302106
C20	C	0.640364	-0.526240	-0.342113
C21	C	0.574929	-0.526217	-0.342141
C22	C	0.542197	-0.464433	-0.302151
C23	C	0.574905	-0.402650	-0.262142
C24	C	0.640339	-0.402669	-0.262119
C25	C	0.438471	-0.456662	-0.245745
C26	C	0.373038	-0.456650	-0.245767
C27	C	0.340376	-0.464370	-0.302220
C28	C	0.373155	-0.472121	-0.358654
C29	C	0.438589	-0.472140	-0.358632
C30	C	0.471244	-0.464405	-0.302171
C31	C	0.236723	-0.526118	-0.342260
C32	C	0.171286	-0.526088	-0.342289
C33	C	0.171264	-0.402526	-0.262285
C34	C	0.236699	-0.402551	-0.262261
C35	C	0.269425	-0.464352	-0.302248
C36	C	0.905443	-0.714988	-0.302181
C37	C	0.905478	-0.822202	-0.302196
C38	C	0.905509	-0.909272	-0.302210
C39	C	0.905553	-1.018504	-0.302226
C40	C	1.068917	-0.464323	-0.302269
C41	C	1.138558	-0.464302	-0.302300
C42	C	0.905546	-0.464354	-0.465619
C43	C	0.905568	-0.464346	-0.535260
C44	C	0.905562	-0.212781	-0.302224
C45	C	0.905591	-0.105567	-0.302236
C46	C	0.945656	-0.402637	-0.567999
C47	C	0.945655	-0.402596	-0.633434
C48	C	0.905573	-0.464280	-0.666128
C49	C	0.865477	-0.525993	-0.633381
C50	C	0.865474	-0.526026	-0.567947
C51	C	0.900608	-0.551135	-0.769796
C52	C	0.900615	-0.551103	-0.835229
C53	C	0.905577	-0.464178	-0.867949
C54	C	0.910545	-0.377282	-0.835228
C55	C	0.910543	-0.377315	-0.769794
C56	C	0.905571	-0.464251	-0.737081
C57	C	0.945666	-0.402419	-0.971641
C58	C	0.945661	-0.402376	-1.037077
C59	C	0.865485	-0.525782	-1.037023
C60	C	0.865487	-0.525817	-0.971588
C61	C	0.905581	-0.464137	-0.938901
C62	C	0.905478	-0.464324	-0.139408
C63	C	0.905577	-0.464060	-0.069767
H64	H	0.346563	-0.478406	-0.404624
H65	H	0.914586	-0.306560	-0.743155
H66	H	0.667005	-0.576563	-0.374674
C67	C	0.538902	-0.334688	-0.218152
C68	C	0.493984	-0.259013	-0.245403
C69	C	0.457981	-0.191044	-0.201414
C70	C	0.466896	-0.198751	-0.130175
C71	C	0.511816	-0.274429	-0.102921
C72	C	0.547819	-0.342398	-0.146909
H73	H	0.487382	-0.253305	-0.298141
H74	H	0.424728	-0.135022	-0.221590
H75	H	0.440245	-0.148436	-0.097612
H76	H	0.518418	-0.280137	-0.050182
H77	H	0.581072	-0.398420	-0.126733
H78	H	0.548299	-0.576517	-0.374721
C79	C	0.676313	-0.334724	-0.218104
C80	C	0.667383	-0.225076	-0.223340
C81	C	0.703358	-0.157133	-0.179322
C82	C	0.748263	-0.198838	-0.130069
C83	C	0.757195	-0.308491	-0.124831
C84	C	0.721220	-0.376434	-0.168849
H85	H	0.634140	-0.194199	-0.259802
H86	H	0.696746	-0.075961	-0.183200
H87	H	0.774893	-0.148543	-0.097484
H88	H	0.790437	-0.339368	-0.088369
H89	H	0.727832	-0.457607	-0.164971
C90	C	0.474646	-0.480653	-0.420705
C91	C	0.438729	-0.489143	-0.482806
C92	C	0.474786	-0.497651	-0.544881
C93	C	0.546761	-0.497668	-0.544853
C94	C	0.582683	-0.489178	-0.482750
C95	C	0.546625	-0.480670	-0.420675
H96	H	0.385445	-0.489130	-0.482829
H97	H	0.448195	-0.503936	-0.590854
H98	H	0.573453	-0.503966	-0.590804
H99	H	0.635967	-0.489190	-0.482727
H100	H	0.573217	-0.474385	-0.374702
C101	C	0.272726	-0.594089	-0.386249
C102	C	0.236752	-0.662028	-0.430264
C103	C	0.272754	-0.729999	-0.474253
C104	C	0.344728	-0.730030	-0.474226
C105	C	0.380706	-0.662088	-0.430209
C106	C	0.344705	-0.594117	-0.386220
H107	H	0.183468	-0.662007	-0.430286
H108	H	0.246120	-0.780294	-0.506837
H109	H	0.371379	-0.780346	-0.506789
H110	H	0.433990	-0.662108	-0.430187
H111	H	0.371339	-0.543822	-0.353636
C112	C	0.989754	-0.334781	-0.532046
C113	C	0.984670	-0.225123	-0.541039
C114	C	1.028767	-0.157264	-0.505085
C115	C	1.077947	-0.199062	-0.460139
C116	C	1.083032	-0.308725	-0.451144
C117	C	1.038936	-0.376585	-0.487098
H118	H	0.948262	-0.194177	-0.574313
H119	H	1.025002	-0.076084	-0.511744
H120	H	1.110590	-0.148829	-0.433524
H121	H	1.119440	-0.339672	-0.417871
H122	H	1.042701	-0.457765	-0.480439
C123	C	0.989763	-0.334566	-0.935681
C124	C	1.038946	-0.376372	-0.890740
C125	C	1.083043	-0.308519	-0.854783
C126	C	1.077958	-0.198860	-0.863767
C127	C	1.028774	-0.157048	-0.908710
C128	C	0.984676	-0.224902	-0.944667
H129	H	1.042711	-0.457553	-0.884088
H130	H	1.119453	-0.339471	-0.821514
H131	H	1.110602	-0.148630	-0.837150
H132	H	1.025008	-0.075867	-0.915363
H133	H	0.948267	-0.193949	-0.977937
C134	C	0.135266	-0.334567	-0.218291
C135	C	0.171241	-0.266627	-0.174276
C136	C	0.135240	-0.198667	-0.130280
C137	C	0.063265	-0.198646	-0.130299
C138	C	0.027287	-0.266589	-0.174316
C139	C	0.063287	-0.334549	-0.218311
H140	H	0.224525	-0.266640	-0.174260
H141	H	0.161874	-0.148371	-0.097697
H142	H	0.036616	-0.148337	-0.097731
H143	H	-0.025997	-0.266576	-0.174331
H144	H	0.036653	-0.384845	-0.250895
H145	H	0.346354	-0.450344	-0.199815
C146	C	0.821376	-0.593910	-0.531928
C147	C	0.848502	-0.669653	-0.486966
C148	C	0.804404	-0.737537	-0.450945
C149	C	0.733179	-0.729677	-0.459885
C150	C	0.706049	-0.653931	-0.504849
C151	C	0.750147	-0.586047	-0.540871
H152	H	0.901231	-0.675474	-0.480346
H153	H	0.824488	-0.793609	-0.417660
H154	H	0.700535	-0.779929	-0.433220
H155	H	0.653320	-0.648110	-0.511469
H156	H	0.730063	-0.529975	-0.574156
H157	H	0.914586	-0.306499	-0.861867
H158	H	0.978299	-0.352340	-0.660096
C159	C	0.135314	-0.594040	-0.386301
C160	C	0.144244	-0.703686	-0.381054
C161	C	0.108272	-0.771640	-0.425067
C162	C	0.063369	-0.729947	-0.474326
C163	C	0.054436	-0.620295	-0.479575
C164	C	0.090409	-0.552342	-0.435562
H165	H	0.177486	-0.734554	-0.344588
H166	H	0.114885	-0.852811	-0.421181
H167	H	0.036740	-0.780251	-0.506907
H168	H	0.021194	-0.589427	-0.516041
H169	H	0.083796	-0.471170	-0.439448
H170	H	0.832843	-0.575997	-1.063642
C171	C	0.821395	-0.593708	-0.935570
C172	C	0.777304	-0.661562	-0.971528
C173	C	0.733208	-0.729455	-0.935511
C174	C	0.733203	-0.729494	-0.863536
C175	C	0.777296	-0.661638	-0.827574
C176	C	0.821392	-0.593745	-0.863591
H177	H	0.777306	-0.661535	-1.024812
H178	H	0.700567	-0.779686	-0.962133
H179	H	0.700561	-0.779752	-0.836874
H180	H	0.777294	-0.661664	-0.774290
H181	H	0.854033	-0.543513	-0.836970
C182	C	0.895150	-0.646686	-0.871219
C183	C	0.895157	-0.646656	-0.943194
C184	C	0.889692	-0.742240	-0.979183
C185	C	0.884221	-0.837855	-0.943196
C186	C	0.884214	-0.837888	-0.871217
C187	C	0.889679	-0.742304	-0.835228
H188	H	0.899207	-0.575873	-0.969837
H189	H	0.889697	-0.742215	-1.032466
H190	H	0.880175	-0.908612	-0.969836
H191	H	0.880164	-0.908671	-0.844573
H192	H	0.889674	-0.742329	-0.781945
H193	H	0.978305	-0.352120	-1.063733
C194	C	0.821389	-0.593852	-0.669343
C195	C	0.826473	-0.703509	-0.660353
C196	C	0.782383	-0.771368	-0.696315
C197	C	0.733210	-0.729569	-0.741267
C198	C	0.728123	-0.619905	-0.750260
C199	C	0.772213	-0.552047	-0.714298
H200	H	0.862877	-0.734457	-0.627074
H201	H	0.786149	-0.852548	-0.689658
H202	H	0.700572	-0.779802	-0.767889
H203	H	0.691720	-0.588958	-0.783538
H204	H	0.768448	-0.470866	-0.720955
H205	H	0.263324	-0.352256	-0.229680
H206	H	0.465059	-0.450372	-0.199771
H207	H	0.896400	-0.621902	-0.743161
