data_functionalizedCrystal
_audit_creation_method	'MofGen! by Chris Wilmer'
_symmetry_space_group_name_H-M	'P1'
_symmetry_Int_Tables_number	1
_symmetry_cell_setting	triclinic
loop_
_symmetry_equiv_pos_as_xyz
  x,y,z
_cell_length_a	15.944499
_cell_length_b	15.944499
_cell_length_c	15.072220
_cell_angle_alpha	90.002115
_cell_angle_beta	90.015087
_cell_angle_gamma	96.522390
loop_
_atom_site_label
_atom_site_type_symbol
_atom_site_fract_x
_atom_site_fract_y
_atom_site_fract_z
O1	O	1.114542	-0.108122	0.073829
O2	O	1.447875	0.225211	0.407163
O3	O	1.781208	0.558544	0.740496
O4	O	0.869983	-0.121524	0.073819
O5	O	1.203317	0.211809	0.407152
O6	O	1.536650	0.545142	0.740485
O7	O	0.998963	0.007456	0.073826
O8	O	1.332297	0.340789	0.407159
O9	O	1.665630	0.674122	0.740492
O10	O	0.985562	-0.237102	0.073822
O11	O	1.318895	0.096231	0.407155
O12	O	1.652228	0.429564	0.740489
O13	O	0.998932	0.007449	-0.073739
O14	O	1.332265	0.340782	0.259594
O15	O	1.665598	0.674115	0.592927
O16	O	0.869952	-0.121531	-0.073747
O17	O	1.203285	0.211802	0.259587
O18	O	1.536618	0.545135	0.592920
O19	O	1.114510	-0.108129	-0.073736
O20	O	1.447843	0.225204	0.259597
O21	O	1.781176	0.558537	0.592931
Zn22	Zn	0.992226	-0.114832	-0.097170
Zn23	Zn	1.325559	0.218502	0.236163
Zn24	Zn	1.658892	0.551835	0.569496
Zn25	Zn	0.992268	-0.114822	0.097253
Zn26	Zn	1.325601	0.218511	0.430586
Zn27	Zn	1.658934	0.551845	0.763920
O28	O	0.985530	-0.237109	-0.073743
O29	O	1.318863	0.096224	0.259590
O30	O	1.652196	0.429557	0.592924
C31	C	0.838673	-0.120979	0.000035
C32	C	1.172006	0.212354	0.333368
C33	C	1.505340	0.545688	0.666701
C34	C	0.745425	-0.119334	0.000031
C35	C	1.078758	0.213999	0.333364
C36	C	1.412092	0.547333	0.666698
C37	C	0.453875	-0.194268	0.000043
C38	C	0.787208	0.139065	0.333376
C39	C	1.120542	0.472399	0.666710
C40	C	0.514927	-0.155312	0.072803
C41	C	0.848260	0.178021	0.406136
C42	C	1.181594	0.511355	0.739469
C43	C	0.409789	-0.113358	0.000051
C44	C	0.743123	0.219976	0.333385
C45	C	1.076456	0.553309	0.666718
C46	C	0.514882	-0.155297	-0.072685
C47	C	0.848215	0.178036	0.260648
C48	C	1.181548	0.511369	0.593982
C49	C	0.574698	-0.116298	0.000040
C50	C	0.908031	0.217035	0.333373
C51	C	1.241364	0.550368	0.666707
C52	C	0.469614	-0.074379	0.072871
C53	C	0.802947	0.258954	0.406204
C54	C	1.136280	0.592287	0.739538
C55	C	0.469562	-0.074376	-0.072682
C56	C	0.802895	0.258958	0.260651
C57	C	1.136228	0.592291	0.593985
C58	C	0.530596	-0.035361	0.000095
C59	C	0.863930	0.297973	0.333429
C60	C	1.197263	0.631306	0.666762
C61	C	0.314790	-0.111666	0.000059
C62	C	0.648123	0.221667	0.333392
C63	C	0.981456	0.555001	0.666726
C64	C	0.669696	-0.117984	0.000039
C65	C	1.003030	0.215349	0.333372
C66	C	1.336363	0.548683	0.666705
C67	C	0.998399	0.038747	0.000045
C68	C	1.331732	0.372080	0.333379
C69	C	1.665065	0.705413	0.666712
C70	C	0.996754	0.131995	0.000052
C71	C	1.330087	0.465328	0.333385
C72	C	1.663420	0.798661	0.666719
C73	C	1.145820	-0.108675	0.000050
C74	C	1.479154	0.224659	0.333383
C75	C	1.812487	0.557992	0.666717
C76	C	1.239068	-0.110320	0.000059
C77	C	1.572402	0.223014	0.333393
C78	C	1.905735	0.556347	0.666726
C79	C	0.986094	-0.268400	0.000039
C80	C	1.319428	0.064933	0.333373
C81	C	1.652761	0.398266	0.666706
C82	C	0.987739	-0.361648	0.000038
C83	C	1.321073	-0.028315	0.333372
C84	C	1.654406	0.305018	0.666705
C85	C	1.071688	0.423545	0.000050
C86	C	1.405021	0.756878	0.333384
C87	C	1.738355	1.090211	0.666717
C88	C	1.032719	0.362509	-0.072712
C89	C	1.366053	0.695842	0.260621
C90	C	1.699386	1.029175	0.593955
C91	C	0.990778	0.467630	0.000041
C92	C	1.324111	0.800964	0.333375
C93	C	1.657444	1.134297	0.666708
C94	C	1.032729	0.362522	0.072776
C95	C	1.366063	0.695855	0.406109
C96	C	1.699396	1.029189	0.739442
C97	C	0.993718	0.302722	0.000048
C98	C	1.327052	0.636055	0.333381
C99	C	1.660385	0.969389	0.666715
C100	C	0.951787	0.407822	-0.072781
C101	C	1.285120	0.741156	0.260552
C102	C	1.618453	1.074489	0.593886
C103	C	0.951808	0.407842	0.072772
C104	C	1.285141	0.741175	0.406105
C105	C	1.618474	1.074509	0.739439
C106	C	0.912781	0.346824	-0.000008
C107	C	1.246114	0.680157	0.333325
C108	C	1.579447	1.013490	0.666659
C109	C	0.989086	0.562630	0.000037
C110	C	1.322419	0.895963	0.333370
C111	C	1.655752	1.229297	0.666703
C112	C	0.995404	0.207723	0.000046
C113	C	1.328737	0.541057	0.333380
C114	C	1.662070	0.874390	0.666713
N115	N	0.992203	-0.114837	-0.229859
N116	N	1.325536	0.218496	0.103474
N117	N	1.658870	0.551829	0.436807
C118	C	0.992266	-0.114819	-0.589061
C119	C	1.325599	0.218515	-0.255727
C120	C	1.658932	0.551848	0.077606
C121	C	0.923019	-0.183602	-0.551458
C122	C	1.256353	0.149731	-0.218124
C123	C	1.589686	0.483065	0.115209
C124	C	0.923178	-0.183853	-0.448632
C125	C	1.256512	0.149480	-0.115298
C126	C	1.589845	0.482814	0.218035
C127	C	0.992234	-0.114828	-0.410857
C128	C	1.325567	0.218505	-0.077523
C129	C	1.658901	0.551839	0.255810
C130	C	1.079876	-0.133960	-0.448144
C131	C	1.413210	0.199374	-0.114811
C132	C	1.746543	0.532707	0.218522
C133	C	1.079488	-0.134448	-0.551002
C134	C	1.412821	0.198885	-0.217669
C135	C	1.746155	0.532218	0.115664
C136	C	0.974651	-0.026700	-0.551161
C137	C	1.307985	0.306633	-0.217827
C138	C	1.641318	0.639967	0.115506
C139	C	0.972640	-0.027288	-0.448297
C140	C	1.305974	0.306045	-0.114964
C141	C	1.639307	0.639378	0.218369
C142	C	0.992221	-0.114832	-0.310143
C143	C	1.325555	0.218502	0.023190
C144	C	1.658888	0.551835	0.356523
C145	C	0.992284	-0.114817	-0.689774
C146	C	1.325617	0.218516	-0.356441
C147	C	1.658951	0.551850	-0.023107
N148	N	0.992297	-0.114809	0.229942
N149	N	1.325630	0.218524	0.563275
N150	N	1.658963	0.551857	0.896608
H151	H	0.563786	0.031847	0.000135
H152	H	0.897119	0.365180	0.333468
H153	H	1.230453	0.698514	0.666801
H154	H	0.857662	-0.172393	-0.576222
H155	H	1.190996	0.160941	-0.242888
H156	H	1.524329	0.494274	0.090445
N157	N	0.409694	-0.283205	0.000137
N158	N	0.743027	0.050129	0.333471
N159	N	1.076361	0.383462	0.666804
H160	H	0.373590	-0.292477	-0.054833
H161	H	0.706923	0.040857	0.278501
H162	H	1.040257	0.374190	0.611834
H163	H	0.453128	-0.324636	0.000775
H164	H	0.786462	0.008698	0.334108
H165	H	1.119795	0.342031	0.667442
H166	H	0.534937	-0.189536	-0.134195
H167	H	0.868271	0.143798	0.199138
H168	H	1.201604	0.477131	0.532471
H169	H	1.066929	0.342421	-0.134222
H170	H	1.400263	0.675755	0.199111
H171	H	1.733596	1.009088	0.532444
N172	N	0.891819	-0.002345	-0.585559
N173	N	1.225153	0.330988	-0.252226
N174	N	1.558486	0.664321	0.081107
H175	H	0.852852	0.005072	-0.534033
H176	H	1.186185	0.338406	-0.200700
H177	H	1.519518	0.671739	0.132633
H178	H	0.902306	0.052377	-0.619638
H179	H	1.235639	0.385710	-0.286305
H180	H	1.568973	0.719044	0.047028
N181	N	0.906489	0.434273	-0.154359
N182	N	1.239822	0.767606	0.178974
N183	N	1.573156	1.100940	0.512307
H184	H	0.887084	0.382844	-0.191283
H185	H	1.220418	0.716177	0.142050
H186	H	1.553751	1.049511	0.475384
H187	H	0.855971	0.462977	-0.135845
H188	H	1.189304	0.796311	0.197489
H189	H	1.522637	1.129644	0.530822
N190	N	0.823767	0.302838	-0.000061
N191	N	1.157100	0.636171	0.333272
N192	N	1.490433	0.969504	0.666605
H193	H	0.792968	0.320052	0.054359
H194	H	1.126301	0.653385	0.387693
H195	H	1.459635	0.986719	0.721026
H196	H	0.793380	0.319309	-0.055078
H197	H	1.126714	0.652642	0.278256
H198	H	1.460047	0.985975	0.611589
N199	N	1.100051	-0.219570	-0.582778
N200	N	1.433384	0.113764	-0.249445
N201	N	1.766717	0.447097	0.083889
H202	H	1.109280	-0.256423	-0.529969
H203	H	1.442614	0.076911	-0.196636
H204	H	1.775947	0.410244	0.136698
H205	H	1.051640	-0.247186	-0.619586
H206	H	1.384973	0.086148	-0.286253
H207	H	1.718306	0.419481	0.047081
N208	N	1.149767	-0.069365	-0.415740
N209	N	1.483100	0.263968	-0.082407
N210	N	1.816434	0.597301	0.250927
H211	H	1.125231	-0.026979	-0.376481
H212	H	1.458564	0.306354	-0.043148
H213	H	1.791897	0.639688	0.290186
H214	H	1.192050	-0.098624	-0.380848
H215	H	1.525384	0.234709	-0.047515
H216	H	1.858717	0.568042	0.285818
H217	H	0.917627	0.427951	0.134285
H218	H	1.250960	0.761284	0.467619
H219	H	1.584293	1.094618	0.800952
H220	H	0.535032	-0.189534	0.134310
H221	H	0.868365	0.143800	0.467644
H222	H	1.201699	0.477133	0.800977
H223	H	1.138835	0.456887	-0.000016
H224	H	1.472169	0.790220	0.333317
H225	H	1.805502	1.123554	0.666650
H226	H	0.858032	-0.172456	-0.423424
H227	H	1.191365	0.160877	-0.090090
H228	H	1.524698	0.494210	0.243243
H229	H	1.132625	-0.086325	-0.575874
H230	H	1.465958	0.247009	-0.242541
H231	H	1.799292	0.580342	0.090792
H232	H	1.095771	-0.197491	-0.422375
H233	H	1.429104	0.135842	-0.089042
H234	H	1.762438	0.469176	0.244291
H235	H	0.908170	-0.012769	-0.423928
H236	H	1.241503	0.320564	-0.090594
H237	H	1.574836	0.653898	0.242739
H238	H	1.066979	0.342451	0.134285
H239	H	1.400312	0.675784	0.467618
H240	H	1.733645	1.009118	0.800952
H241	H	0.449654	-0.040186	0.134453
H242	H	0.782988	0.293147	0.467786
H243	H	1.116321	0.626481	0.801119
H244	H	0.934111	-0.248626	-0.577296
H245	H	1.267444	0.084708	-0.243963
H246	H	1.600778	0.418041	0.089370
H247	H	0.449438	-0.040185	-0.134195
H248	H	0.782771	0.293148	0.199138
H249	H	1.116104	0.626482	0.532471
H250	H	0.934425	-0.249245	-0.424018
H251	H	1.267758	0.084089	-0.090685
H252	H	1.601092	0.417422	0.242648
H253	H	1.019801	0.026294	-0.422586
H254	H	1.353134	0.359628	-0.089253
H255	H	1.686467	0.692961	0.244080
N256	N	1.041537	0.041106	-0.583365
N257	N	1.374870	0.374440	-0.250031
N258	N	1.708204	0.707773	0.083302
H259	H	1.083053	0.014921	-0.622313
H260	H	1.416387	0.348254	-0.288980
H261	H	1.749720	0.681587	0.044353
H262	H	1.014047	0.084474	-0.618535
H263	H	1.347381	0.417807	-0.285202
H264	H	1.680714	0.751140	0.048131
