data_functionalizedCrystal
_audit_creation_method	'MofGen! by Chris Wilmer'
_symmetry_space_group_name_H-M	'P1'
_symmetry_Int_Tables_number	1
_symmetry_cell_setting	triclinic
loop_
_symmetry_equiv_pos_as_xyz
  x,y,z
_cell_length_a	13.930277
_cell_length_b	14.853567
_cell_length_c	14.853567
_cell_angle_alpha	96.365069
_cell_angle_beta	89.996315
_cell_angle_gamma	90.001833
loop_
_atom_site_label
_atom_site_type_symbol
_atom_site_fract_x
_atom_site_fract_y
_atom_site_fract_z
O1	O	-0.079769	-1.196366	0.117700
O2	O	0.420231	-0.696366	0.617700
O3	O	-0.079786	-0.933906	0.131721
O4	O	0.420214	-0.433906	0.631721
O5	O	-0.079766	-1.072147	-0.006519
O6	O	0.420234	-0.572147	0.493481
O7	O	-0.079789	-1.058125	0.255941
O8	O	0.420211	-0.558125	0.755941
O9	O	0.079896	-1.072133	-0.006515
O10	O	0.579896	-0.572133	0.493485
O11	O	0.079876	-0.933892	0.131725
O12	O	0.579876	-0.433892	0.631725
O13	O	0.079893	-1.196352	0.117704
O14	O	0.579893	-0.696352	0.617704
Zn15	Zn	0.105234	-1.065120	0.124715
Zn16	Zn	0.605234	-0.565120	0.624715
Zn17	Zn	-0.105127	-1.065138	0.124710
Zn18	Zn	0.394873	-0.565138	0.624710
O19	O	0.079873	-1.058112	0.255944
O20	O	0.579873	-0.558112	0.755944
C21	C	0.000043	-0.900311	0.131088
C22	C	0.500043	-0.400311	0.631088
C23	C	0.000037	-0.800227	0.129184
C24	C	0.500037	-0.300227	0.629184
N25	N	0.248800	-1.065114	0.124718
N26	N	0.748800	-0.565114	0.624718
N27	N	-0.248693	-1.065151	0.124700
N28	N	0.251307	-0.565151	0.624700
C29	C	0.299054	-1.003893	0.185912
C30	C	0.799054	-0.503893	0.685912
C31	C	0.299051	-1.126341	0.063521
C32	C	0.799051	-0.626341	0.563521
C33	C	0.399546	-1.126351	0.063517
C34	C	0.899546	-0.626351	0.563517
C35	C	0.449801	-1.065130	0.124711
C36	C	0.949801	-0.565130	0.624711
C37	C	0.399560	-1.003899	0.185909
C38	C	0.899560	-0.503899	0.685909
C39	C	0.449795	-1.187574	0.002314
C40	C	0.949795	-0.687574	0.502314
C41	C	0.550297	-1.187586	0.002307
C42	C	1.050297	-0.687586	0.502307
C43	C	0.600553	-1.126368	0.063506
C44	C	1.100553	-0.626368	0.563506
C45	C	0.550306	-1.065136	0.124707
C46	C	1.050306	-0.565136	0.624707
C47	C	0.600560	-1.003914	0.185901
C48	C	1.100560	-0.503914	0.685901
C49	C	0.550315	-0.942685	0.247107
C50	C	1.050315	-0.442685	0.747107
C51	C	0.449816	-0.942681	0.247108
C52	C	0.949816	-0.442681	0.747108
C53	C	0.701052	-1.126372	0.063506
C54	C	1.201052	-0.626372	0.563506
C55	C	0.701065	-1.003920	0.185898
C56	C	1.201065	-0.503920	0.685898
C57	C	0.000066	-1.071504	-0.040106
C58	C	0.500066	-0.571504	0.459894
C59	C	0.000068	-1.069601	-0.140189
C60	C	0.500068	-0.569601	0.359811
C61	C	0.000062	-1.229947	0.118337
C62	C	0.500062	-0.729947	0.618337
C63	C	0.000062	-1.330031	0.120241
C64	C	0.500062	-0.830031	0.620241
C65	C	0.000066	-0.387693	0.039019
C66	C	0.500066	0.112307	0.539019
C67	C	0.000051	-0.366412	0.203251
C68	C	0.500051	0.133588	0.703251
C69	C	0.000048	-0.460446	0.205042
C70	C	0.500048	0.039554	0.705042
C71	C	0.000052	-0.518108	0.123819
C72	C	0.500052	-0.018108	0.623819
C73	C	0.000060	-0.481736	0.040806
C74	C	0.500060	0.018264	0.540806
C75	C	0.000030	-0.496825	0.288053
C76	C	0.500030	0.003175	0.788053
C77	C	0.000026	-0.590864	0.289846
C78	C	0.500026	-0.090864	0.789846
C79	C	0.000037	-0.648528	0.208623
C80	C	0.500037	-0.148528	0.708623
C81	C	0.000046	-0.612150	0.125607
C82	C	0.500046	-0.112150	0.625607
C83	C	0.000051	-0.669812	0.044384
C84	C	0.500051	-0.169812	0.544384
C85	C	0.000067	-0.633437	-0.038633
C86	C	0.500067	-0.133437	0.461367
C87	C	0.000072	-0.539399	-0.040417
C88	C	0.500072	-0.039399	0.459583
C89	C	0.000032	-0.742565	0.210407
C90	C	0.500032	-0.242565	0.710407
C91	C	0.000045	-0.763855	0.046172
C92	C	0.500045	-0.263855	0.546172
C93	C	0.000039	-1.058754	0.289531
C94	C	0.500039	-0.558754	0.789531
C95	C	0.000030	-1.060657	0.389615
C96	C	0.500030	-0.560657	0.889615
C97	C	0.000071	-1.150823	0.802149
C98	C	0.500071	-0.650823	1.302149
C99	C	0.000059	-0.986590	0.823430
C100	C	0.500059	-0.486590	1.323430
C101	C	0.000050	-0.984800	0.729396
C102	C	0.500050	-0.484800	1.229396
C103	C	0.000052	-1.066023	0.671734
C104	C	0.500052	-0.566023	1.171734
C105	C	0.000064	-1.149036	0.708106
C106	C	0.500064	-0.649036	1.208106
C107	C	0.000048	-0.901789	0.693017
C108	C	0.500048	-0.401789	1.193017
C109	C	0.000039	-0.899996	0.598978
C110	C	0.500039	-0.399996	1.098978
C111	C	0.000035	-0.981219	0.541314
C112	C	0.500035	-0.481219	1.041314
C113	C	0.000046	-1.064235	0.577691
C114	C	0.500046	-0.564235	1.077691
C115	C	0.000048	-1.145458	0.520029
C116	C	0.500048	-0.645458	1.020029
C117	C	0.000052	-1.228475	0.556405
C118	C	0.500052	-0.728475	1.056405
C119	C	0.000060	-1.230259	0.650442
C120	C	0.500060	-0.730259	1.150442
C121	C	0.000028	-0.979435	0.447277
C122	C	0.500028	-0.479435	0.947277
C123	C	0.000042	-1.143670	0.425987
C124	C	0.500042	-0.643670	0.925987
H125	H	0.741976	-0.954069	0.235733
H126	H	1.241976	-0.454069	0.735733
H127	H	0.000088	-1.297847	0.680068
H128	H	0.500088	-0.797847	1.180068
Cl129	Cl	0.000086	-0.493664	-0.144771
Cl130	Cl	0.500086	0.006336	0.355229
Cl131	Cl	0.613457	-1.264559	-0.074632
Cl132	Cl	1.113457	-0.764559	0.425368
Cl133	Cl	0.000032	-0.293923	0.305354
Cl134	Cl	0.500032	0.206077	0.805354
Cl135	Cl	0.000047	-0.799688	0.765508
Cl136	Cl	0.500047	-0.299688	1.265508
Cl137	Cl	0.000028	-0.795634	0.553257
Cl138	Cl	0.500028	-0.295634	1.053257
H139	H	0.591243	-0.892835	0.296928
H140	H	1.091243	-0.392835	0.796928
Cl141	Cl	0.386648	-0.865711	0.324043
Cl142	Cl	0.886648	-0.365711	0.824043
Cl143	Cl	0.000008	-0.424333	0.390154
Cl144	Cl	0.500008	0.075667	0.890154
H145	H	0.000039	-0.911844	0.417664
H146	H	0.500039	-0.411844	0.917664
Cl147	Cl	0.235877	-1.203296	-0.013412
Cl148	Cl	0.735877	-0.703296	0.486588
H149	H	0.741958	-1.176220	0.013669
H150	H	1.241958	-0.676220	0.513669
H151	H	0.000070	-1.218414	0.831770
H152	H	0.500070	-0.718414	1.331770
H153	H	0.000013	-0.620472	0.357443
H154	H	0.500013	-0.120472	0.857443
H155	H	0.258142	-0.954044	0.235748
H156	H	0.758142	-0.454044	0.735748
H157	H	0.000021	-0.772178	0.277998
H158	H	0.500021	-0.272178	0.777998
Cl159	Cl	0.000061	-0.884488	0.895919
Cl160	Cl	0.500061	-0.384488	1.395919
Cl161	Cl	0.000067	-1.330579	0.483905
Cl162	Cl	0.500067	-0.830579	0.983905
H163	H	0.408875	-1.237414	-0.047513
H164	H	0.908875	-0.737414	0.452487
H165	H	0.000052	-0.810798	-0.019971
H166	H	0.500052	-0.310798	0.480029
H167	H	0.000064	-0.680397	-0.104764
H168	H	0.500064	-0.180397	0.395236
H169	H	0.000083	-0.358072	-0.028572
H170	H	0.500083	0.141928	0.471428
H171	H	0.000038	-1.209813	0.379044
H172	H	0.500038	-0.709813	0.879044
