data_functionalizedCrystal
_audit_creation_method	'MofGen! by Chris Wilmer'
_symmetry_space_group_name_H-M	'P1'
_symmetry_Int_Tables_number	1
_symmetry_cell_setting	triclinic
loop_
_symmetry_equiv_pos_as_xyz
  x,y,z
_cell_length_a	19.188930
_cell_length_b	19.188930
_cell_length_c	18.266242
_cell_angle_alpha	90.011475
_cell_angle_beta	89.977082
_cell_angle_gamma	96.855221
loop_
_atom_site_label
_atom_site_type_symbol
_atom_site_fract_x
_atom_site_fract_y
_atom_site_fract_z
O1	O	0.926149	-0.087169	-0.061124
O2	O	1.176149	0.162831	0.188876
O3	O	1.426149	0.412831	0.438876
O4	O	1.676149	0.662831	0.688876
O5	O	0.722838	-0.098903	-0.061075
O6	O	0.972838	0.151097	0.188925
O7	O	1.222838	0.401097	0.438925
O8	O	1.472838	0.651097	0.688925
O9	O	0.830361	0.008620	-0.061087
O10	O	1.080361	0.258620	0.188913
O11	O	1.330361	0.508620	0.438913
O12	O	1.580361	0.758620	0.688913
O13	O	0.818627	-0.194691	-0.061113
O14	O	1.068627	0.055309	0.188887
O15	O	1.318627	0.305309	0.438887
O16	O	1.568627	0.555309	0.688887
O17	O	0.830343	0.008625	0.060675
O18	O	1.080343	0.258625	0.310675
O19	O	1.330343	0.508625	0.560675
O20	O	1.580343	0.758625	0.810675
O21	O	0.722820	-0.098897	0.060687
O22	O	0.972820	0.151103	0.310687
O23	O	1.222820	0.401103	0.560687
O24	O	1.472820	0.651103	0.810687
O25	O	0.926131	-0.087163	0.060638
O26	O	1.176131	0.162837	0.310638
O27	O	1.426131	0.412837	0.560638
O28	O	1.676131	0.662837	0.810638
Zn29	Zn	0.824473	-0.093029	0.079994
Zn30	Zn	1.074473	0.156971	0.329994
Zn31	Zn	1.324473	0.406971	0.579994
Zn32	Zn	1.574473	0.656971	0.829994
Zn33	Zn	0.824497	-0.093037	-0.080432
Zn34	Zn	1.074497	0.156963	0.169568
Zn35	Zn	1.324497	0.406963	0.419568
Zn36	Zn	1.574497	0.656963	0.669568
O37	O	0.818608	-0.194686	0.060649
O38	O	1.068608	0.055314	0.310649
O39	O	1.318608	0.305314	0.560649
O40	O	1.568608	0.555314	0.810649
C41	C	0.696818	-0.098520	-0.000188
C42	C	0.946818	0.151480	0.249812
C43	C	1.196818	0.401480	0.499812
C44	C	1.446818	0.651480	0.749812
C45	C	0.619313	-0.097380	-0.000169
C46	C	0.869313	0.152620	0.249831
C47	C	1.119313	0.402620	0.499831
C48	C	1.369313	0.652620	0.749831
C49	C	0.574389	-0.160470	-0.000188
C50	C	0.824389	0.089530	0.249812
C51	C	1.074389	0.339530	0.499812
C52	C	1.324389	0.589530	0.749812
C53	C	0.501566	-0.159399	-0.000196
C54	C	0.751566	0.090601	0.249804
C55	C	1.001566	0.340601	0.499804
C56	C	1.251566	0.590601	0.749804
C57	C	0.473669	-0.095233	-0.000199
C58	C	0.723669	0.154767	0.249801
C59	C	0.973669	0.404767	0.499801
C60	C	1.223669	0.654767	0.749801
C61	C	0.518603	-0.032133	-0.000175
C62	C	0.768603	0.217867	0.249825
C63	C	1.018603	0.467867	0.499825
C64	C	1.268603	0.717867	0.749825
C65	C	0.591425	-0.033207	-0.000160
C66	C	0.841425	0.216793	0.249840
C67	C	1.091425	0.466793	0.499840
C68	C	1.341425	0.716793	0.749840
N69	N	0.365695	-0.046188	-0.041663
N70	N	0.615695	0.203812	0.208337
N71	N	0.865695	0.453812	0.458337
N72	N	1.115695	0.703812	0.708337
N73	N	0.296516	-0.045172	-0.041679
N74	N	0.546516	0.204828	0.208321
N75	N	0.796516	0.454828	0.458321
N76	N	1.046516	0.704828	0.708321
C77	C	0.254260	-0.091994	-0.000243
C78	C	0.504260	0.158006	0.249757
C79	C	0.754260	0.408006	0.499757
C80	C	1.004260	0.658006	0.749757
N81	N	0.283795	-0.139881	0.041200
N82	N	0.533795	0.110119	0.291200
N83	N	0.783795	0.360119	0.541200
N84	N	1.033795	0.610119	0.791200
N85	N	0.352980	-0.140899	0.041213
N86	N	0.602980	0.109101	0.291213
N87	N	0.852980	0.359101	0.541213
N88	N	1.102980	0.609101	0.791213
C89	C	0.394707	-0.094062	-0.000215
C90	C	0.644707	0.155938	0.249785
C91	C	0.894707	0.405938	0.499785
C92	C	1.144707	0.655938	0.749785
C93	C	0.130372	-0.153928	-0.000270
C94	C	0.380372	0.096072	0.249730
C95	C	0.630372	0.346072	0.499730
C96	C	0.880372	0.596072	0.749730
C97	C	0.057547	-0.152853	-0.000274
C98	C	0.307547	0.097147	0.249726
C99	C	0.557547	0.347147	0.499726
C100	C	0.807547	0.597147	0.749726
C101	C	0.074586	-0.025586	-0.000261
C102	C	0.324586	0.224414	0.249739
C103	C	0.574586	0.474414	0.499739
C104	C	0.824586	0.724414	0.749739
C105	C	0.147409	-0.026662	-0.000250
C106	C	0.397409	0.223338	0.249750
C107	C	0.647409	0.473338	0.499750
C108	C	0.897409	0.723338	0.749750
C109	C	0.175298	-0.090835	-0.000258
C110	C	0.425298	0.159165	0.249742
C111	C	0.675298	0.409165	0.499742
C112	C	0.925298	0.659165	0.749742
C113	C	0.829972	0.034634	-0.000204
C114	C	1.079972	0.284634	0.249796
C115	C	1.329972	0.534634	0.499796
C116	C	1.579972	0.784634	0.749796
C117	C	0.828831	0.112138	-0.000197
C118	C	1.078831	0.362138	0.249803
C119	C	1.328831	0.612138	0.499803
C120	C	1.578831	0.862138	0.749803
C121	C	0.952151	-0.087546	-0.000252
C122	C	1.202151	0.162454	0.249748
C123	C	1.452151	0.412454	0.499748
C124	C	1.702151	0.662454	0.749748
C125	C	1.029656	-0.088687	-0.000276
C126	C	1.279656	0.161313	0.249724
C127	C	1.529656	0.411313	0.499724
C128	C	1.779656	0.661313	0.749724
C129	C	0.818997	-0.220700	-0.000236
C130	C	1.068997	0.029300	0.249764
C131	C	1.318997	0.279300	0.499764
C132	C	1.568997	0.529300	0.749764
C133	C	0.820138	-0.298204	-0.000247
C134	C	1.070138	-0.048204	0.249753
C135	C	1.320138	0.201796	0.499753
C136	C	1.570138	0.451796	0.749753
N137	N	0.824461	-0.093024	0.189481
N138	N	1.074461	0.156976	0.439481
N139	N	1.324461	0.406976	0.689481
N140	N	1.574461	0.656976	0.939481
C141	C	0.891922	0.157062	-0.000209
C142	C	1.141922	0.407062	0.249791
C143	C	1.391922	0.657062	0.499791
C144	C	1.641922	0.907062	0.749791
C145	C	0.890850	0.229886	-0.000220
C146	C	1.140850	0.479886	0.249780
C147	C	1.390850	0.729886	0.499780
C148	C	1.640850	0.979886	0.749780
C149	C	0.826684	0.257782	-0.000206
C150	C	1.076684	0.507782	0.249794
C151	C	1.326684	0.757782	0.499794
C152	C	1.576684	1.007782	0.749794
C153	C	0.763585	0.212849	-0.000198
C154	C	1.013585	0.462849	0.249802
C155	C	1.263585	0.712849	0.499802
C156	C	1.513585	0.962849	0.749802
C157	C	0.764658	0.140026	-0.000194
C158	C	1.014658	0.390026	0.249806
C159	C	1.264658	0.640026	0.499806
C160	C	1.514658	0.890026	0.749806
N161	N	0.777631	0.365789	0.041244
N162	N	1.027631	0.615789	0.291244
N163	N	1.277631	0.865789	0.541244
N164	N	1.527631	1.115789	0.791244
N165	N	0.776615	0.434968	0.041242
N166	N	1.026615	0.684968	0.291242
N167	N	1.276615	0.934968	0.541242
N168	N	1.526615	1.184968	0.791242
C169	C	0.823446	0.477191	-0.000220
C170	C	1.073446	0.727191	0.249780
C171	C	1.323446	0.977191	0.499780
C172	C	1.573446	1.227191	0.749780
N173	N	0.871341	0.447624	-0.041669
N174	N	1.121341	0.697624	0.208331
N175	N	1.371341	0.947624	0.458331
N176	N	1.621341	1.197624	0.708331
N177	N	0.872359	0.378439	-0.041664
N178	N	1.122359	0.628439	0.208336
N179	N	1.372359	0.878439	0.458336
N180	N	1.622359	1.128439	0.708336
C181	C	0.825513	0.336745	-0.000210
C182	C	1.075513	0.586745	0.249790
C183	C	1.325513	0.836745	0.499790
C184	C	1.575513	1.086745	0.749790
C185	C	0.885379	0.601079	-0.000245
C186	C	1.135379	0.851079	0.249755
C187	C	1.385379	1.101079	0.499755
C188	C	1.635379	1.351079	0.749755
C189	C	0.884305	0.673904	-0.000261
C190	C	1.134305	0.923904	0.249739
C191	C	1.384305	1.173904	0.499739
C192	C	1.634305	1.423904	0.749739
C193	C	0.757038	0.656865	-0.000231
C194	C	1.007038	0.906865	0.249769
C195	C	1.257038	1.156865	0.499769
C196	C	1.507038	1.406865	0.749769
C197	C	0.758114	0.584042	-0.000222
C198	C	1.008114	0.834042	0.249778
C199	C	1.258114	1.084042	0.499778
C200	C	1.508114	1.334042	0.749778
C201	C	0.822287	0.556154	-0.000226
C202	C	1.072287	0.806154	0.249774
C203	C	1.322287	1.056154	0.499774
C204	C	1.572287	1.306154	0.749774
N205	N	0.824513	-0.093037	-0.189919
N206	N	1.074513	0.156963	0.060081
N207	N	1.324513	0.406963	0.310081
N208	N	1.574513	0.656963	0.560081
C209	C	0.872088	-0.045436	0.227785
C210	C	1.122088	0.204564	0.477785
C211	C	1.372088	0.454564	0.727785
C212	C	1.622088	0.704564	0.977785
C213	C	0.872092	-0.045433	0.304430
C214	C	1.122092	0.204567	0.554430
C215	C	1.372092	0.454567	0.804430
C216	C	1.622092	0.704567	1.054430
C217	C	0.824477	-0.093030	0.342768
C218	C	1.074477	0.156970	0.592768
C219	C	1.324477	0.406970	0.842768
C220	C	1.574477	0.656970	1.092768
C221	C	0.776841	-0.140621	0.304455
C222	C	1.026841	0.109379	0.554455
C223	C	1.276841	0.359379	0.804455
C224	C	1.526841	0.609379	1.054455
C225	C	0.776834	-0.140618	0.227812
C226	C	1.026834	0.109382	0.477812
C227	C	1.276834	0.359382	0.727812
C228	C	1.526834	0.609382	0.977812
N229	N	0.815401	-0.154837	0.463094
N230	N	1.065401	0.095163	0.713094
N231	N	1.315401	0.345163	0.963094
N232	N	1.565401	0.595163	1.213094
N233	N	0.815413	-0.154838	0.535902
N234	N	1.065413	0.095162	0.785902
N235	N	1.315413	0.345162	1.035902
N236	N	1.565413	0.595162	1.285902
C237	C	0.824496	-0.093040	0.573691
C238	C	1.074496	0.156960	0.823691
C239	C	1.324496	0.406960	1.073691
C240	C	1.574496	0.656960	1.323691
N241	N	0.833582	-0.031239	0.535920
N242	N	1.083582	0.218761	0.785920
N243	N	1.333582	0.468761	1.035920
N244	N	1.583582	0.718761	1.285920
N245	N	0.833574	-0.031240	0.463106
N246	N	1.083574	0.218760	0.713106
N247	N	1.333574	0.468760	0.963106
N248	N	1.583574	0.718760	1.213106
C249	C	0.824480	-0.093038	0.425875
C250	C	1.074480	0.156962	0.675875
C251	C	1.324480	0.406962	0.925875
C252	C	1.574480	0.656962	1.175875
C253	C	0.872131	-0.045444	0.695101
C254	C	1.122131	0.204556	0.945101
C255	C	1.372131	0.454556	1.195101
C256	C	1.622131	0.704556	1.445101
C257	C	0.872130	-0.045440	0.771748
C258	C	1.122130	0.204560	1.021748
C259	C	1.372130	0.454560	1.271748
C260	C	1.622130	0.704560	1.521748
C261	C	0.776882	-0.140634	0.771772
C262	C	1.026882	0.109366	1.021772
C263	C	1.276882	0.359366	1.271772
C264	C	1.526882	0.609366	1.521772
C265	C	0.776879	-0.140632	0.695127
C266	C	1.026879	0.109368	0.945127
C267	C	1.276879	0.359368	1.195127
C268	C	1.526879	0.609368	1.445127
C269	C	0.824507	-0.093038	0.656796
C270	C	1.074507	0.156962	0.906796
C271	C	1.324507	0.406962	1.156796
C272	C	1.574507	0.656962	1.406796
H273	H	0.597091	-0.212725	-0.000196
H274	H	0.847091	0.037275	0.249804
H275	H	1.097091	0.287275	0.499804
H276	H	1.347091	0.537275	0.749804
H277	H	0.937632	0.578372	-0.000251
H278	H	1.187632	0.828372	0.249749
H279	H	1.437632	1.078372	0.499749
H280	H	1.687632	1.328372	0.749749
F281	F	0.958003	0.277706	-0.000234
F282	F	1.208003	0.527706	0.249766
F283	F	1.458003	0.777706	0.499766
F284	F	1.708003	1.027706	0.749766
H285	H	0.706738	0.547464	-0.000208
H286	H	0.956738	0.797464	0.249792
H287	H	1.206738	1.047464	0.499792
H288	H	1.456738	1.297464	0.749792
F289	F	0.695295	0.242539	-0.000187
F290	F	0.945295	0.492539	0.249813
F291	F	1.195295	0.742539	0.499813
F292	F	1.445295	0.992539	0.749813
H293	H	0.713281	0.103448	-0.000184
H294	H	0.963281	0.353448	0.249816
H295	H	1.213281	0.603448	0.499816
H296	H	1.463281	0.853448	0.749816
F297	F	0.453745	-0.226551	-0.000215
F298	F	0.703745	0.023449	0.249785
F299	F	0.953745	0.273449	0.499785
F300	F	1.203745	0.523449	0.749785
H301	H	0.910910	-0.006688	0.663892
H302	H	1.160910	0.243312	0.913892
H303	H	1.410910	0.493312	1.163892
H304	H	1.660910	0.743312	1.413892
H305	H	0.704792	0.679578	-0.000222
H306	H	0.954792	0.929578	0.249778
H307	H	1.204792	1.179578	0.499778
H308	H	1.454792	1.429578	0.749778
H309	H	0.020970	-0.204232	-0.000285
H310	H	0.270970	0.045768	0.249715
H311	H	0.520970	0.295768	0.499715
H312	H	0.770970	0.545768	0.749715
F313	F	0.922774	0.005219	0.186993
F314	F	1.172774	0.255219	0.436993
F315	F	1.422774	0.505219	0.686993
F316	F	1.672774	0.755219	0.936993
H317	H	0.935683	0.710481	-0.000274
H318	H	1.185683	0.960481	0.249726
H319	H	1.435683	1.210481	0.499726
H320	H	1.685683	1.460481	0.749726
F321	F	0.922786	0.005219	0.345202
F322	F	1.172786	0.255219	0.595202
F323	F	1.422786	0.505219	0.845202
F324	F	1.672786	0.755219	1.095202
H325	H	0.944176	0.134360	-0.000214
H326	H	1.194176	0.384360	0.249786
H327	H	1.444176	0.634360	0.499786
H328	H	1.694176	0.884360	0.749786
F329	F	0.726163	-0.191275	0.345258
F330	F	0.976163	0.058725	0.595258
F331	F	1.226163	0.308725	0.845258
F332	F	1.476163	0.558725	1.095258
F333	F	0.726141	-0.191270	0.187044
F334	F	0.976141	0.058730	0.437044
F335	F	1.226141	0.308730	0.687044
F336	F	1.476141	0.558730	0.937044
H337	H	0.051874	0.026659	-0.000309
H338	H	0.301874	0.276659	0.249691
H339	H	0.551874	0.526659	0.499691
H340	H	0.801874	0.776659	0.749691
H341	H	0.738100	-0.179386	0.663938
H342	H	0.988100	0.070614	0.913938
H343	H	1.238100	0.320614	1.163938
H344	H	1.488100	0.570614	1.413938
F345	F	0.922819	0.005215	0.812515
F346	F	1.172819	0.255215	1.062515
F347	F	1.422819	0.505215	1.312515
F348	F	1.672819	0.755215	1.562515
H349	H	0.495885	0.020111	-0.000188
H350	H	0.745885	0.270111	0.249812
H351	H	0.995885	0.520111	0.499812
H352	H	1.245885	0.770111	0.749812
F353	F	0.639238	0.033946	-0.000139
F354	F	0.889238	0.283946	0.249861
F355	F	1.139238	0.533946	0.499861
F356	F	1.389238	0.783946	0.749861
H357	H	0.183988	0.024713	-0.000238
H358	H	0.433988	0.274713	0.249762
H359	H	0.683988	0.524713	0.499762
H360	H	0.933988	0.774713	0.749762
F361	F	0.160055	-0.222225	-0.000274
F362	F	0.410055	0.027775	0.249726
F363	F	0.660055	0.277775	0.499726
F364	F	0.910055	0.527775	0.749726
F365	F	0.726202	-0.191286	0.812570
F366	F	0.976202	0.058714	1.062570
F367	F	1.226202	0.308714	1.312570
F368	F	1.476202	0.558714	1.562570
