data_functionalizedCrystal
_audit_creation_method	'MofGen! by Chris Wilmer'
_symmetry_space_group_name_H-M	'P1'
_symmetry_Int_Tables_number	1
_symmetry_cell_setting	triclinic
loop_
_symmetry_equiv_pos_as_xyz
  x,y,z
_cell_length_a	6.817900
_cell_length_b	15.866870
_cell_length_c	12.200737
_cell_angle_alpha	111.094031
_cell_angle_beta	107.141108
_cell_angle_gamma	102.655915
loop_
_atom_site_label
_atom_site_type_symbol
_atom_site_fract_x
_atom_site_fract_y
_atom_site_fract_z
V1	V	-4.100333	-0.132894	-0.413855
O2	O	-4.053530	0.006156	-0.348250
O3	O	-4.083003	-0.263285	-0.466544
O4	O	-4.069576	-0.130951	-0.569022
O5	O	-4.067050	-0.127095	-0.245063
V6	V	-4.577648	-0.116250	-0.386921
O7	O	-4.375207	-0.169404	-0.472935
O8	O	-4.752971	-0.079741	-0.327841
O9	O	-4.371771	0.014141	-0.334232
O10	O	-4.741848	-0.255300	-0.452526
O11	O	-4.728328	-0.122050	-0.555714
O12	O	-4.385198	-0.118193	-0.231755
C13	C	-3.934992	-0.295069	-0.474341
C14	C	-4.002227	-0.401666	-0.518455
C15	C	-3.944600	-0.683494	-0.109261
C16	C	-4.007792	-0.783663	-0.150751
C17	C	-4.119295	-0.811154	-0.372468
C18	C	-4.056101	-0.710986	-0.330996
C19	C	-3.968759	-0.647163	-0.199391
C20	C	-4.080260	-0.674654	-0.421126
C21	C	-4.017082	-0.574494	-0.379657
C22	C	-3.929746	-0.510666	-0.248058
C23	C	-3.905581	-0.547003	-0.157922
C24	C	-4.167617	-0.738479	-0.552731
C25	C	-4.191776	-0.702148	-0.642861
C26	C	-4.128583	-0.601986	-0.601392
C27	C	-4.041247	-0.538157	-0.469793
C28	C	-4.152748	-0.565649	-0.691528
C29	C	-4.089570	-0.465489	-0.650060
C30	C	-3.978069	-0.437997	-0.428325
C31	C	-3.917863	-0.126262	-0.605060
C32	C	-3.974205	-0.125536	-0.732274
C33	C	-4.019959	-0.124946	-0.835586
C34	C	-4.077373	-0.124201	-0.965192
C35	C	-4.183126	0.045919	-0.326434
C36	C	-4.095129	0.152515	-0.282328
C37	C	-4.200254	-0.122886	-0.195712
C38	C	-4.123149	-0.123607	-0.068494
H39	H	-3.988106	-0.813238	-0.077345
H40	H	-3.873445	-0.631524	-0.002094
H41	H	-4.190424	-0.863132	-0.479621
C42	C	-4.116173	-0.425516	-0.749195
H43	H	-4.066069	-0.356725	-0.705648
H44	H	-4.031765	-0.444443	-0.796573
H45	H	-4.267143	-0.450712	-0.806516
H46	H	-4.262905	-0.754125	-0.750015
C47	C	-3.881970	-0.367782	-0.283561
H48	H	-3.847793	-0.302928	-0.271778
H49	H	-3.987084	-0.381671	-0.249777
H50	H	-3.751709	-0.375419	-0.239825
C51	C	-3.809537	-0.476793	-0.013160
H52	H	-3.804212	-0.512774	0.034585
H53	H	-3.664893	-0.434010	0.012626
H54	H	-3.900306	-0.440291	0.002615
C55	C	-4.237113	-0.848654	-0.598353
H56	H	-4.292616	-0.881461	-0.689640
H57	H	-4.113129	-0.863110	-0.561810
H58	H	-4.348509	-0.869363	-0.571772
C59	C	-4.248831	-0.635859	-0.836284
H60	H	-4.282992	-0.700714	-0.848071
H61	H	-4.379064	-0.628217	-0.880027
H62	H	-4.143682	-0.621970	-0.870054
H63	H	-3.878313	-0.429110	-0.214297
