data_functionalizedCrystal
_audit_creation_method	'MofGen! by Chris Wilmer'
_symmetry_space_group_name_H-M	'P1'
_symmetry_Int_Tables_number	1
_symmetry_cell_setting	triclinic
loop_
_symmetry_equiv_pos_as_xyz
  x,y,z
_cell_length_a	23.196402
_cell_length_b	17.917603
_cell_length_c	23.196401
_cell_angle_alpha	90.013379
_cell_angle_beta	60.008822
_cell_angle_gamma	57.012000
loop_
_atom_site_label
_atom_site_type_symbol
_atom_site_fract_x
_atom_site_fract_y
_atom_site_fract_z
Zr1	Zr	0.577925	0.754912	-0.049090
O2	O	0.706991	0.629761	-0.145536
O3	O	0.454963	0.793274	-0.019528
O4	O	0.575232	0.793240	-0.139794
O5	O	0.586717	0.629826	0.069603
O6	O	0.566166	0.922198	-0.135261
O7	O	0.586721	0.629796	-0.025269
O8	O	0.351026	0.922260	0.079874
O9	O	0.801858	0.629765	-0.145532
O10	O	0.496513	0.905879	-0.003532
O11	O	0.503276	0.809662	0.063887
O12	O	0.644878	0.809621	-0.077711
O13	O	0.651641	0.713404	-0.010292
Zr14	Zr	0.563460	0.960635	0.109451
Zr15	Zr	0.563466	0.960586	-0.041860
Zr16	Zr	0.577919	0.754961	0.102221
Zr17	Zr	0.729227	0.754918	-0.049083
Zr18	Zr	0.412158	0.960629	0.109444
O19	O	0.686422	0.922272	0.079889
O20	O	0.686431	0.922202	-0.135256
O21	O	0.706982	0.629831	0.069608
O22	O	0.434394	1.085786	0.205897
O23	O	0.434403	1.085716	-0.009248
O24	O	0.454954	0.793344	0.195616
O25	O	0.554668	1.085720	-0.009242
O26	O	0.566153	0.922307	0.200155
O27	O	0.575219	0.793349	0.195622
O28	O	0.554664	1.085751	0.085630
O29	O	0.790364	0.793248	-0.139785
O30	O	0.351021	0.922299	0.200145
O31	O	0.339527	1.085782	0.205892
O32	O	0.339532	1.085743	0.085621
O33	O	0.801853	0.629804	-0.025260
O34	O	0.790359	0.793287	-0.019513
O35	O	0.496507	0.905925	0.138072
O36	O	0.489744	1.002142	0.070653
O37	O	0.638109	0.905885	-0.003526
O38	O	0.644872	0.809667	0.063893
C39	C	0.381437	0.857766	0.030172
C40	C	0.317205	0.857764	0.030169
C41	C	0.283505	0.907982	-0.005026
C42	C	0.223143	0.907991	-0.005020
C43	C	0.196497	0.857764	0.030171
C44	C	0.230201	0.807544	0.065374
C45	C	0.290555	0.807544	0.065373
C46	C	0.140384	0.773615	0.021938
C47	C	0.080034	0.773612	0.021934
C48	C	0.010342	0.857765	0.030178
C49	C	0.001014	0.941920	0.038412
C50	C	0.061368	0.941920	0.038411
C51	C	0.131053	0.857758	0.030176
C52	C	-0.088811	0.907997	-0.005012
C53	C	-0.149177	0.908009	-0.005001
C54	C	-0.142111	0.807553	0.065388
C55	C	-0.081752	0.807550	0.065382
C56	C	-0.055103	0.857770	0.030178
C57	C	0.588779	0.600507	0.021137
C58	C	0.594918	0.513193	0.018067
C59	C	0.606131	0.353347	0.012462
C60	C	0.535258	0.362192	0.047897
C61	C	0.541497	0.273249	0.044778
C62	C	0.599894	0.442297	0.015580
C63	C	0.759948	0.857780	0.030189
C64	C	0.824180	0.857783	0.030192
C65	C	0.570700	0.857712	-0.159086
C66	C	0.570702	0.857691	-0.223322
C67	C	0.552606	1.115040	0.039224
C68	C	0.546467	1.202354	0.042293
C69	C	0.648145	0.807450	-0.292215
C70	C	0.648144	0.807474	-0.352570
C71	C	0.570698	0.857727	-0.344027
C72	C	0.493245	0.907979	-0.275120
C73	C	0.493247	0.907961	-0.214768
C74	C	0.514572	0.850588	-0.411597
C75	C	0.514573	0.850599	-0.471950
C76	C	0.570687	0.857787	-0.530172
C77	C	0.626815	0.864945	-0.528041
C78	C	0.626818	0.864927	-0.467688
C79	C	0.570687	0.857752	-0.409464
C80	C	0.648134	0.807570	-0.664512
C81	C	0.648130	0.807602	-0.724865
C82	C	0.493229	0.908099	-0.647414
C83	C	0.493235	0.908075	-0.587062
C84	C	0.570690	0.857805	-0.595616
C85	C	0.570685	0.857835	0.219447
C86	C	0.570683	0.857856	0.283682
C87	C	0.363350	1.115033	0.039216
C88	C	0.292980	1.202344	0.042282
C89	C	0.381429	0.857828	0.219439
C90	C	0.317195	0.857846	0.283671
C91	C	0.363343	1.115094	0.228482
C92	C	0.292970	1.202426	0.295784
C93	C	0.778042	0.600452	-0.168122
C94	C	0.848415	0.513120	-0.235423
C95	C	0.778035	0.600514	0.021145
C96	C	0.848405	0.513203	0.018079
C97	C	0.759956	0.857719	-0.159078
C98	C	0.824190	0.857700	-0.223310
C99	C	0.263466	1.193098	0.004992
C100	C	0.197355	1.275129	0.007859
C101	C	0.160754	1.366404	0.048020
C102	C	0.190273	1.375648	0.085312
C103	C	0.256388	1.293619	0.082440
C104	C	0.283497	0.908103	0.352566
C105	C	0.223151	0.908117	0.412925
C106	C	0.196500	0.857879	0.404387
C107	C	0.230204	0.807616	0.335486
C108	C	0.290554	0.807597	0.275128
C109	C	0.256391	1.293672	0.292198
C110	C	0.190276	1.375738	0.355430
C111	C	0.160737	1.366556	0.422247
C112	C	0.197323	1.275301	0.425831
C113	C	0.263440	1.193238	0.362600
C114	C	0.885001	0.421875	-0.231837
C115	C	0.951135	0.339809	-0.295069
C116	C	0.980677	0.348990	-0.361886
C117	C	0.944088	0.440245	-0.365470
C118	C	0.877959	0.522309	-0.302239
C119	C	0.877925	0.522449	0.055363
C120	C	0.944053	0.440418	0.052479
C121	C	0.980656	0.349142	0.012315
C122	C	0.951134	0.339898	-0.024973
C123	C	0.885011	0.421928	-0.022094
C124	C	0.850821	0.907948	-0.214750
C125	C	0.911166	0.907950	-0.275097
C126	C	0.944884	0.857697	-0.344003
C127	C	0.918247	0.807447	-0.352562
C128	C	0.857898	0.807452	-0.292216
H129	H	-0.055738	1.010448	0.045134
H130	H	0.106919	1.433190	0.050353
C131	C	0.164887	1.264943	-0.033155
H132	H	0.196146	1.198833	-0.057472
H133	H	0.172681	1.294832	-0.067087
H134	H	0.105800	1.294868	-0.000201
H135	H	0.671488	0.278982	-0.020215
C136	C	0.852537	0.411746	-0.063099
H137	H	0.883804	0.345635	-0.087422
H138	H	0.860317	0.441645	-0.097025
H139	H	0.793453	0.441658	-0.030141
H140	H	0.848171	0.596603	-0.305168
H141	H	0.860953	0.414381	-0.177437
H142	H	0.280409	1.301160	0.112811
C143	C	0.312814	0.963355	0.361970
H144	H	0.284104	0.993272	0.411649
H145	H	0.299584	1.010894	0.341639
H146	H	0.372846	0.919972	0.338436
C147	C	0.303720	1.092706	-0.039193
H148	H	0.276673	1.098961	-0.060995
H149	H	0.296224	1.058618	-0.008497
H150	H	0.363100	1.058610	-0.075364
H151	H	-0.067114	0.948893	-0.033674
C152	C	0.813739	0.963235	-0.138961
H153	H	0.838243	0.993165	-0.142516
H154	H	0.826679	0.919887	-0.115400
H155	H	0.753414	1.010782	-0.112214
H156	H	0.147359	0.857902	0.453541
C157	C	0.150000	1.476054	0.129493
H158	H	0.106392	1.523576	0.125865
H159	H	0.192807	1.483266	0.111508
H160	H	0.125933	1.483269	0.178373
H161	H	0.968079	0.447964	0.082847
H162	H	0.430182	0.948874	-0.158670
C163	C	0.164816	1.265214	0.499332
H164	H	0.120193	1.327161	0.536471
H165	H	0.210526	1.231132	0.503445
H166	H	0.143654	1.231140	0.503430
C167	C	0.303667	1.092871	0.366550
H168	H	0.347280	1.045304	0.319326
H169	H	0.260836	1.085698	0.391379
H170	H	0.327719	1.085688	0.391376
H171	H	-0.176621	0.948908	-0.033657
C172	C	0.955393	0.752105	-0.428362
H173	H	0.930905	0.722160	-0.424825
H174	H	1.015711	0.704580	-0.455066
H175	H	0.942482	0.795421	-0.451955
C176	C	0.186079	0.963419	0.488708
H177	H	0.210586	0.993347	0.485142
H178	H	0.199021	0.920076	0.512271
H179	H	0.125753	1.010968	0.515458
H180	H	1.034497	0.282356	0.009976
H181	H	0.469896	0.436563	0.080576
C182	C	0.991395	0.239495	-0.069145
H183	H	0.964351	0.245727	-0.090945
H184	H	0.983898	0.205423	-0.038435
H185	H	1.050775	0.205396	-0.105317
C186	C	0.088011	1.456829	0.491797
H187	H	0.075657	1.438299	0.532108
H188	H	0.038317	1.493944	0.493099
H189	H	0.105201	1.493931	0.493094
C190	C	1.053413	0.258718	-0.431436
H191	H	1.065775	0.277247	-0.471747
H192	H	1.036237	0.221604	-0.432738
H193	H	1.103108	0.221614	-0.432733
C194	C	0.991364	0.239442	-0.291113
H195	H	0.964285	0.245734	-0.242262
H196	H	1.050739	0.205338	-0.314305
H197	H	0.983869	0.205340	-0.314322
C198	C	0.976579	0.450337	-0.438970
H199	H	0.945324	0.516433	-0.432057
H200	H	0.968793	0.420400	-0.465095
H201	H	1.035665	0.420416	-0.465099
C202	C	0.200873	0.752371	0.326105
H203	H	0.160096	0.759597	0.371923
H204	H	0.248833	0.686267	0.298706
H205	H	0.175570	0.777188	0.301908
H206	H	0.317983	0.766675	0.219033
H207	H	0.848128	0.596762	0.088073
H208	H	0.836222	0.766530	-0.299196
H209	H	0.280431	1.301166	0.237798
C210	C	0.150036	1.476105	0.351474
H211	H	0.177091	1.469812	0.302623
H212	H	0.157533	1.510214	0.374670
H213	H	0.090656	1.510202	0.374679
C214	C	0.940466	0.963214	-0.265670
H215	H	0.911752	0.993125	-0.215989
H216	H	0.927231	1.010758	-0.285996
H217	H	1.000498	0.919840	-0.289201
H218	H	0.711215	0.766521	-0.299186
C219	C	-0.171415	0.752304	0.104098
H220	H	-0.212183	0.759491	0.099055
H221	H	-0.196701	0.777125	0.153591
H222	H	-0.123437	0.686202	0.083518
H223	H	0.994024	0.857700	-0.393135
H224	H	0.711203	0.766639	-0.671477
C225	C	0.186071	0.963226	-0.043741
H226	H	0.210590	0.993129	-0.064710
H227	H	0.125749	1.010775	-0.010175
H228	H	0.199020	0.919838	-0.080238
C229	C	0.051106	1.034482	0.047477
H230	H	0.097036	1.022424	0.046292
H231	H	-0.001627	1.083230	0.092173
H232	H	0.051594	1.054889	0.009551
C233	C	0.312809	0.963232	-0.043738
H234	H	0.353585	0.956037	-0.038702
H235	H	0.264835	1.029328	-0.023165
H236	H	0.338104	0.938402	-0.093236
H237	H	0.430173	0.948982	-0.530965
C238	C	-0.044670	0.752297	0.104087
H239	H	-0.069177	0.722377	0.125042
H240	H	-0.057606	0.795665	0.140583
H241	H	0.015655	0.704744	0.070509
H242	H	0.711209	0.766560	-0.408673
H243	H	0.197139	0.705078	0.015210
C244	C	0.090294	0.681050	0.012878
H245	H	0.044375	0.693098	0.014050
H246	H	0.089805	0.660652	0.050804
H247	H	0.143033	0.632295	-0.031819
H248	H	0.317995	0.766648	0.094033
C249	C	0.200896	0.752292	0.104080
H250	H	0.160131	0.759475	0.099034
H251	H	0.175606	0.777114	0.153574
H252	H	0.248875	0.686191	0.083501
H253	H	0.672517	0.870757	-0.465956
H254	H	0.711195	0.766693	-0.780963
C255	C	0.688546	0.872852	-0.592076
H256	H	0.721976	0.877105	-0.582165
H257	H	0.656586	0.928638	-0.599627
H258	H	0.725174	0.817673	-0.633945
C259	C	0.452811	0.842767	-0.474279
H260	H	0.419373	0.838513	-0.430952
H261	H	0.484741	0.787006	-0.513808
H262	H	0.416193	0.897976	-0.479494
H263	H	0.468877	0.844728	-0.364195
C264	C	0.408056	0.963251	-0.265722
H265	H	0.419146	0.956058	-0.311533
H266	H	0.373037	1.029345	-0.238309
H267	H	0.379433	0.938436	-0.241532
H268	H	0.430170	0.949017	-0.640457
