data_functionalizedCrystal
_audit_creation_method	'MofGen! by Chris Wilmer'
_symmetry_space_group_name_H-M	'P1'
_symmetry_Int_Tables_number	1
_symmetry_cell_setting	triclinic
loop_
_symmetry_equiv_pos_as_xyz
  x,y,z
_cell_length_a	17.640112
_cell_length_b	16.120444
_cell_length_c	17.640968
_cell_angle_alpha	97.806502
_cell_angle_beta	87.860920
_cell_angle_gamma	103.500183
loop_
_atom_site_label
_atom_site_type_symbol
_atom_site_fract_x
_atom_site_fract_y
_atom_site_fract_z
Zn1	Zn	1.246897	-0.023860	0.196404
Zn2	Zn	1.746897	0.476140	0.696404
Zn3	Zn	1.214803	-0.195188	0.078928
Zn4	Zn	1.714803	0.304812	0.578928
Zn5	Zn	1.092235	-0.077878	0.098047
Zn6	Zn	1.592235	0.422122	0.598047
Zn7	Zn	1.113947	-0.184257	0.230904
Zn8	Zn	1.613947	0.315743	0.730904
O9	O	1.166971	-0.120296	0.151071
O10	O	1.666971	0.379704	0.651071
O11	O	1.349575	-0.028555	0.158381
O12	O	1.849575	0.471445	0.658381
O13	O	1.176026	-0.206808	-0.023300
O14	O	1.676026	0.293192	0.476700
O15	O	1.117097	0.045508	0.104658
O16	O	1.617097	0.545508	0.604658
O17	O	1.325995	-0.154429	0.072072
O18	O	1.825995	0.345571	0.572072
O19	O	1.230726	0.085195	0.176920
O20	O	1.730726	0.585195	0.676920
O21	O	1.085976	-0.120621	-0.009254
O22	O	1.585976	0.379379	0.490746
O23	O	0.988181	-0.110022	0.138111
O24	O	1.488181	0.389978	0.638111
O25	O	1.154102	-0.135798	0.331092
O26	O	1.654102	0.364202	0.831092
O27	O	1.004132	-0.188178	0.235720
O28	O	1.504132	0.311822	0.735720
O29	O	1.251780	-0.017956	0.305745
O30	O	1.751780	0.482044	0.805745
O31	O	1.197079	-0.309959	0.105525
O32	O	1.697079	0.190041	0.605525
O33	O	1.122981	-0.301928	0.217181
O34	O	1.622981	0.198072	0.717181
C35	C	0.968429	-0.153776	0.192734
C36	C	1.468429	0.346224	0.692734
C37	C	0.883496	-0.168114	0.210577
C38	C	1.383496	0.331886	0.710577
C39	C	0.562620	-0.011353	0.015528
C40	C	1.062620	0.488647	0.515528
C41	C	0.482813	-0.024841	0.032305
C42	C	0.982813	0.475159	0.532305
C43	C	0.499437	-0.106413	0.133788
C44	C	0.999437	0.393587	0.633788
C45	C	0.579248	-0.092929	0.117022
C46	C	1.079248	0.407071	0.617022
C47	C	0.610832	-0.045400	0.057891
C48	C	1.110832	0.454600	0.557891
C49	C	0.627460	-0.126976	0.159385
C50	C	1.127460	0.373024	0.659385
C51	C	0.707263	-0.113496	0.142617
C52	C	1.207263	0.386504	0.642617
C53	C	0.738853	-0.065971	0.083487
C54	C	1.238853	0.434029	0.583487
C55	C	0.690635	-0.031920	0.041123
C56	C	1.190635	0.468080	0.541123
C57	C	0.595873	-0.174510	0.218512
C58	C	1.095873	0.325490	0.718512
C59	C	0.644085	-0.208557	0.260875
C60	C	1.144085	0.291443	0.760875
C61	C	0.723890	-0.195072	0.244111
C62	C	1.223890	0.304928	0.744111
C63	C	0.755481	-0.147547	0.184981
C64	C	1.255481	0.352453	0.684981
C65	C	0.772108	-0.229123	0.286475
C66	C	1.272108	0.270877	0.786475
C67	C	0.851911	-0.215644	0.269708
C68	C	1.351911	0.284356	0.769708
C69	C	0.835283	-0.134068	0.168214
C70	C	1.335283	0.365932	0.668214
C71	C	1.158928	-0.336071	0.163034
C72	C	1.658928	0.163929	0.663034
C73	C	1.155562	-0.428362	0.168162
C74	C	1.655562	0.071638	0.668162
C75	C	1.184652	-0.642385	0.124590
C76	C	1.684652	-0.142385	0.624590
C77	C	1.149433	-0.597329	0.177529
C78	C	1.649433	-0.097329	0.677529
C79	C	1.152844	-0.503307	0.172316
C80	C	1.652844	-0.003307	0.672316
C81	C	1.181241	-0.736416	0.129803
C82	C	1.681241	-0.236416	0.629803
C83	C	1.366287	-0.086686	0.109245
C84	C	1.866287	0.413314	0.609245
C85	C	1.451224	-0.072363	0.091422
C86	C	1.951224	0.427637	0.591422
C87	C	1.208943	-0.069632	0.346342
C88	C	1.708943	0.430368	0.846342
C89	C	1.226828	-0.048042	0.429556
C90	C	1.726828	0.451958	0.929556
C91	C	1.175070	0.096329	0.139073
C92	C	1.675070	0.596329	0.639073
C93	C	1.178521	0.188642	0.133961
C94	C	1.678521	0.688642	0.633961
C95	C	1.125208	-0.170695	-0.043454
C96	C	1.625208	0.329305	0.456546
C97	C	1.107479	-0.192026	-0.126711
C98	C	1.607479	0.307974	0.373289
C99	C	1.031404	-0.283810	0.769211
C100	C	1.531404	0.216190	1.269211
C101	C	1.048227	-0.263510	0.847398
C102	C	1.548227	0.236490	1.347398
C103	C	1.149930	-0.140811	0.820997
C104	C	1.649930	0.359189	1.320997
C105	C	1.133113	-0.161098	0.742806
C106	C	1.633113	0.338902	1.242806
C107	C	1.073849	-0.232600	0.716919
C108	C	1.573849	0.267400	1.216919
C109	C	1.175559	-0.109888	0.690514
C110	C	1.675559	0.390112	1.190514
C111	C	1.158746	-0.130177	0.612330
C112	C	1.658746	0.369823	1.112330
C113	C	1.099486	-0.201676	0.586437
C114	C	1.599486	0.298324	1.086437
C115	C	1.057036	-0.252889	0.638735
C116	C	1.557036	0.247111	1.138735
C117	C	1.234826	-0.038390	0.716401
C118	C	1.734826	0.461610	1.216401
C119	C	1.277271	0.012820	0.664110
C120	C	1.777271	0.512820	1.164110
C121	C	1.260455	-0.007465	0.585925
C122	C	1.760455	0.492535	1.085925
C123	C	1.201196	-0.078964	0.560032
C124	C	1.701196	0.421036	1.060032
C125	C	1.302905	0.043748	0.533626
C126	C	1.802905	0.543748	1.033626
C127	C	1.286092	0.023459	0.455442
C128	C	1.786092	0.523459	0.955442
C129	C	1.184383	-0.099253	0.481847
C130	C	1.684383	0.400747	0.981847
H131	H	0.861004	-0.095349	0.120074
H132	H	1.361004	0.404651	0.620074
H133	H	0.530892	-0.185484	0.232162
H134	H	1.030892	0.314516	0.732162
H135	H	1.217362	-0.610350	0.075355
H136	H	1.717362	-0.110350	0.575355
Br137	Br	1.103944	-0.196283	0.446709
Br138	Br	1.603944	0.303717	0.946709
Br139	Br	0.976598	-0.349919	0.603597
Br140	Br	1.476598	0.150081	1.103597
H141	H	0.473709	-0.145115	0.181931
H142	H	0.973709	0.354885	0.681931
Br143	Br	0.847156	-0.047684	0.060723
Br144	Br	1.347156	0.452316	0.560723
Br145	Br	0.601210	-0.273075	0.341111
Br146	Br	1.101210	0.226925	0.841111
H147	H	0.746378	-0.267829	0.334615
H148	H	1.246378	0.232171	0.834615
Br149	Br	0.417381	0.021360	-0.025202
Br150	Br	0.917381	0.521360	0.474798
H151	H	0.891167	-0.243367	0.304205
H152	H	1.391167	0.256633	0.804205
Br153	Br	1.230360	-0.043780	0.856135
Br154	Br	1.730360	0.456220	1.356135
Br155	Br	0.733509	0.032595	-0.039121
Br156	Br	1.233509	0.532595	0.460879
H157	H	1.116719	-0.629369	0.226767
H158	H	1.616719	-0.129369	0.726767
Br159	Br	1.357701	0.109851	0.699248
Br160	Br	1.857701	0.609851	1.199248
Br161	Br	0.950965	-0.380841	0.734073
Br162	Br	1.450965	0.119159	1.234073
Br163	Br	0.990614	-0.333018	0.918366
Br164	Br	1.490614	0.166982	1.418366
Br165	Br	1.383341	0.140771	0.568766
Br166	Br	1.883341	0.640771	1.068766
Br167	Br	1.343702	0.092955	0.384469
Br168	Br	1.843702	0.592955	0.884469
H169	H	0.588340	0.027365	-0.032612
H170	H	1.088340	0.527365	0.467388
H171	H	1.085801	-0.218197	0.522773
H172	H	1.585801	0.281803	1.022773
H173	H	1.248515	-0.021875	0.780065
H174	H	1.748515	0.478125	1.280065
