data_functionalizedCrystal
_audit_creation_method	'MofGen! by Chris Wilmer'
_symmetry_space_group_name_H-M	'P1'
_symmetry_Int_Tables_number	1
_symmetry_cell_setting	triclinic
loop_
_symmetry_equiv_pos_as_xyz
  x,y,z
_cell_length_a	28.938199
_cell_length_b	28.937346
_cell_length_c	28.934044
_cell_angle_alpha	60.005004
_cell_angle_beta	60.009897
_cell_angle_gamma	59.994060
loop_
_atom_site_label
_atom_site_type_symbol
_atom_site_fract_x
_atom_site_fract_y
_atom_site_fract_z
O1	O	0.064043	-0.675186	0.564597
O2	O	0.024124	-0.525682	0.454913
O3	O	0.118795	-0.620275	0.454833
O4	O	-0.030629	-0.580593	0.564678
O5	O	0.150204	-0.588870	0.486157
O6	O	0.055533	-0.494276	0.486238
O7	O	0.095452	-0.643780	0.595921
Cu8	Cu	0.078360	-0.566161	0.543940
Cu9	Cu	0.041215	-0.603301	0.506895
O10	O	0.000780	-0.549187	0.596002
N11	N	0.104487	-0.540042	0.569998
N12	N	0.015094	-0.629425	0.480837
C13	C	0.165467	-0.323909	0.630915
C14	C	0.165587	-0.479117	0.786068
C15	C	0.165481	-0.479095	0.630906
C16	C	0.320696	-0.479083	0.630835
C17	C	0.182557	-0.375118	0.647971
C18	C	0.182626	-0.462038	0.734858
C19	C	0.269485	-0.462018	0.647928
C20	C	0.182566	-0.462025	0.647966
C21	C	0.143714	-0.258726	0.609206
C22	C	0.143738	-0.500820	0.609192
C23	C	0.204309	-0.440300	0.669680
C24	C	0.415481	-0.462740	0.580919
C25	C	0.474732	-0.482485	0.561145
C26	C	0.474757	-0.578356	0.597704
C27	C	0.415508	-0.558609	0.617479
C28	C	0.157989	-0.229089	0.550957
C29	C	0.138212	-0.169834	0.531225
C30	C	0.089890	-0.169857	0.627992
C31	C	0.109667	-0.229112	0.647725
C32	C	0.085482	-0.486515	0.623535
C33	C	0.065722	-0.506265	0.603789
C34	C	0.162467	-0.554625	0.555370
C35	C	0.182230	-0.534875	0.575110
C36	C	0.085661	-0.486557	0.880902
C37	C	0.065952	-0.506323	0.940155
C38	C	0.162734	-0.554693	0.940102
C39	C	0.182441	-0.534928	0.880847
C40	C	0.143904	-0.500859	0.851249
C41	C	0.385871	-0.500801	0.609083
C42	C	-0.110907	-0.668480	0.441278
C43	C	-0.024049	-0.668588	0.441475
C44	C	-0.045729	-0.690282	0.419668
C45	C	-0.062146	-0.785032	0.469507
C46	C	-0.042446	-0.844287	0.489286
C47	C	0.053426	-0.844399	0.452899
C48	C	0.033725	-0.785144	0.433120
C49	C	-0.140617	-0.682751	0.499509
C50	C	-0.199867	-0.662928	0.519152
C51	C	-0.199694	-0.614571	0.422330
C52	C	-0.140443	-0.634393	0.402687
C53	C	-0.038320	-0.610337	0.427144
C54	C	-0.018610	-0.590621	0.446974
C55	C	0.029642	-0.687402	0.495454
C56	C	0.009933	-0.707121	0.475630
C57	C	-0.038148	-0.610347	0.324832
C58	C	-0.018301	-0.590634	0.265579
C59	C	0.030035	-0.687421	0.265643
C60	C	0.010190	-0.707133	0.324897
C61	C	-0.023903	-0.668595	0.354491
C62	C	-0.024062	-0.755463	0.441426
N63	N	0.503527	-0.540005	0.569810
O64	O	0.684453	-0.545211	0.434650
O65	O	0.684643	-0.655237	0.584005
O66	O	0.684567	-0.654986	0.489282
O67	O	0.684529	-0.545462	0.529373
O68	O	0.590438	-0.623674	0.520735
O69	O	0.590513	-0.623924	0.615457
O70	O	0.590323	-0.513899	0.466102
Cu71	Cu	0.581823	-0.566053	0.543652
Cu72	Cu	0.693143	-0.603083	0.506456
O73	O	0.590399	-0.514149	0.560825
N74	N	0.771439	-0.629131	0.480292
N75	N	0.104456	-0.141061	0.570015
O76	O	-0.030629	0.039964	0.564688
O77	O	0.118732	0.039984	0.454661
O78	O	0.023980	0.039958	0.454946
O79	O	0.064123	0.039990	0.564403
O80	O	0.055392	-0.054179	0.486321
O81	O	0.150144	-0.054153	0.486036
O82	O	0.000784	-0.054173	0.596063
Cu83	Cu	0.078332	-0.062759	0.543914
Cu84	Cu	0.041183	0.048570	0.506810
O85	O	0.095535	-0.054147	0.595778
N86	N	0.015053	0.126872	0.480710
N87	N	0.104760	-0.540096	0.968910
O88	O	0.099447	-0.675167	1.149923
O89	O	-0.010552	-0.525757	1.149951
O90	O	-0.010297	-0.620493	1.149918
O91	O	0.099192	-0.580431	1.149956
O92	O	0.021064	-0.589100	1.055785
O93	O	0.020809	-0.494365	1.055818
O94	O	0.130808	-0.643774	1.055790
Cu95	Cu	0.078672	-0.566203	1.047209
Cu96	Cu	0.041584	-0.603328	1.158532
O97	O	0.130553	-0.549038	1.055823
N98	N	0.015495	-0.629442	1.236831
C99	C	0.036087	-0.491140	0.455465
C100	C	0.153325	-0.608283	0.455364
C101	C	0.083488	-0.678322	0.595370
C102	C	-0.033750	-0.561180	0.595470
C103	C	0.637601	-0.654732	0.618548
C104	C	0.637509	-0.654422	0.501245
C105	C	0.637362	-0.514403	0.431560
C106	C	0.637458	-0.514713	0.548862
C107	C	0.153215	-0.006966	0.455158
C108	C	0.035916	-0.007114	0.455550
C109	C	-0.033739	-0.007106	0.595527
C110	C	0.083600	-0.007076	0.595174
C111	C	-0.010020	-0.491238	1.102888
C112	C	-0.009698	-0.608550	1.102828
C113	C	0.130276	-0.678293	1.102853
C114	C	0.129961	-0.560974	1.102892
H115	H	0.018524	-0.494668	0.964293
H116	H	0.637649	-0.689271	0.661445
C117	C	0.024310	-0.007130	0.409096
H118	H	-0.013167	-0.007142	0.422941
H119	H	0.028513	0.025696	0.376903
H120	H	0.050421	-0.039963	0.398794
C121	C	0.067528	-0.729815	0.233097
H122	H	0.073169	-0.767328	0.259249
H123	H	0.049486	-0.724104	0.209922
H124	H	0.103067	-0.724174	0.210046
H125	H	0.196022	-0.006699	0.420530
H126	H	-0.044080	-0.617108	1.102779
H127	H	-0.076633	-0.007113	0.630069
C128	C	0.095208	-0.007067	0.641631
H129	H	0.132688	-0.007064	0.627789
H130	H	0.069098	0.025759	0.651942
H131	H	0.091009	-0.039901	0.673821
C132	C	0.507306	-0.440617	0.530159
H133	H	0.481170	-0.403359	0.527986
H134	H	0.530441	-0.450528	0.550331
H135	H	0.530396	-0.442130	0.493033
H136	H	0.637525	-0.688829	0.492664
H137	H	-0.044554	-0.448327	1.102896
C138	C	0.637281	-0.467735	0.373618
H139	H	0.637273	-0.481410	0.349837
H140	H	0.604437	-0.435587	0.378604
H141	H	0.670091	-0.457425	0.356662
C142	C	0.176932	-0.736259	1.102840
H143	H	0.163262	-0.760039	1.102831
H144	H	0.209092	-0.731302	1.070016
H145	H	0.187217	-0.753201	1.135673
C146	C	0.176432	-0.549397	1.102896
H147	H	0.162600	-0.511914	1.102900
H148	H	0.186751	-0.575510	1.135718
H149	H	0.208613	-0.553615	1.070061
H150	H	0.194117	-0.582425	0.964198
C151	C	0.043269	-0.449080	0.848347
H152	H	0.063346	-0.439352	0.808811
H153	H	0.020157	-0.469183	0.858068
H154	H	0.020157	-0.415576	0.858071
C155	C	0.246511	-0.550659	0.848232
H156	H	0.266637	-0.573773	0.874347
H157	H	0.256218	-0.570758	0.825113
H158	H	0.256205	-0.517146	0.825121
C159	C	0.637437	-0.468229	0.560446
H160	H	0.637393	-0.435279	0.527737
H161	H	0.604629	-0.459446	0.591339
H162	H	0.670284	-0.481284	0.569399
C163	C	0.043141	-0.449055	0.661020
H164	H	0.005616	-0.443359	0.666726
H165	H	0.048858	-0.467153	0.696526
H166	H	0.048820	-0.413535	0.642928
H167	H	0.018285	-0.494604	0.615454
C168	C	0.095001	-0.736337	0.641911
H169	H	0.062267	-0.736489	0.674830
H170	H	0.103965	-0.765106	0.628885
H171	H	0.125870	-0.743201	0.650736
C172	C	0.204813	-0.592088	0.517883
H173	H	0.242338	-0.597775	0.512169
H174	H	0.199134	-0.627605	0.535970
H175	H	0.199094	-0.573985	0.482375
C176	C	-0.091726	-0.549759	0.642069
H177	H	-0.115474	-0.512293	0.628343
H178	H	-0.108690	-0.575918	0.652384
H179	H	-0.086781	-0.554011	0.674229
C180	C	0.211298	-0.619703	0.408761
H181	H	0.211389	-0.586936	0.375868
H182	H	0.240091	-0.628657	0.421750
H183	H	0.218174	-0.650558	0.399907
C184	C	0.246311	-0.550606	0.559333
H185	H	0.266405	-0.573719	0.536209
H186	H	0.256008	-0.517097	0.539232
H187	H	0.256054	-0.570719	0.592826
H188	H	0.498884	-0.625426	0.604536
C189	C	0.382939	-0.600478	0.648462
H190	H	0.343406	-0.580443	0.659043
H191	H	0.392635	-0.619209	0.624084
H192	H	0.392676	-0.627610	0.681385
C193	C	0.382882	-0.399151	0.571687
H194	H	0.409006	-0.379313	0.552086
H195	H	0.359749	-0.385251	0.549990
H196	H	0.359787	-0.393658	0.607294
H197	H	0.149834	-0.145702	0.483792
C198	C	0.195437	-0.261661	0.508586
H199	H	0.201098	-0.235522	0.471068
H200	H	0.230963	-0.284772	0.514256
H201	H	0.177343	-0.284779	0.514289
H202	H	0.098041	-0.253238	0.695156
C203	C	0.052443	-0.137280	0.670362
H204	H	0.046775	-0.163419	0.707880
H205	H	0.070529	-0.114158	0.664659
H206	H	0.016913	-0.114173	0.664692
H207	H	-0.029909	-0.543201	0.241439
H208	H	-0.065911	-0.578960	0.348925
H209	H	0.021795	-0.754566	0.349042
H210	H	-0.030233	-0.543188	0.435308
C211	C	0.067026	-0.729787	0.533016
H212	H	0.076726	-0.709704	0.542770
H213	H	0.046879	-0.752871	0.566492
H214	H	0.100544	-0.752932	0.512951
C215	C	0.025631	-0.771196	0.491388
H216	H	0.048696	-0.791322	0.514565
H217	H	-0.007888	-0.780866	0.511425
H218	H	0.045783	-0.780930	0.457889
C219	C	0.075620	-0.752619	0.402233
H220	H	0.112856	-0.778785	0.400126
H221	H	0.074173	-0.729512	0.365089
H222	H	0.065682	-0.729501	0.422436
H223	H	0.100481	-0.868567	0.446139
C224	C	-0.084338	-0.876815	0.520188
H225	H	-0.064328	-0.916357	0.530776
H226	H	-0.111500	-0.867072	0.553093
H227	H	-0.103026	-0.867092	0.495755
C228	C	-0.125708	-0.752387	0.478635
H229	H	-0.145566	-0.778486	0.498187
H230	H	-0.139638	-0.729258	0.500345
H231	H	-0.131135	-0.729280	0.442997
H232	H	-0.065985	-0.578958	0.399332
H233	H	-0.116569	-0.710512	0.530934
H234	H	0.027560	-0.448192	0.421017
H235	H	-0.223743	-0.586821	0.390905
C236	C	-0.232553	-0.678618	0.583209
H237	H	-0.272070	-0.661928	0.589380
H238	H	-0.222885	-0.718593	0.599870
H239	H	-0.222873	-0.665001	0.599892
C240	C	-0.107760	-0.618703	0.338630
H241	H	-0.133837	-0.595567	0.318460
H242	H	-0.084634	-0.598639	0.328965
H243	H	-0.084652	-0.652229	0.328945
