data_functionalizedCrystal
_audit_creation_method	'MofGen! by Chris Wilmer'
_symmetry_space_group_name_H-M	'P1'
_symmetry_Int_Tables_number	1
_symmetry_cell_setting	triclinic
loop_
_symmetry_equiv_pos_as_xyz
  x,y,z
_cell_length_a	14.586319
_cell_length_b	16.109301
_cell_length_c	16.109301
_cell_angle_alpha	96.538519
_cell_angle_beta	90.007381
_cell_angle_gamma	90.002176
loop_
_atom_site_label
_atom_site_type_symbol
_atom_site_fract_x
_atom_site_fract_y
_atom_site_fract_z
O1	O	0.076185	-1.103127	0.106869
O2	O	0.409519	-0.769794	0.440202
O3	O	0.742852	-0.436460	0.773536
O4	O	0.076200	-0.861065	0.120168
O5	O	0.409534	-0.527732	0.453502
O6	O	0.742867	-0.194398	0.786835
O7	O	0.076183	-0.988746	-0.007512
O8	O	0.409516	-0.655412	0.325821
O9	O	0.742850	-0.322079	0.659154
O10	O	0.076203	-0.975446	0.234550
O11	O	0.409536	-0.642113	0.567883
O12	O	0.742869	-0.308780	0.901216
O13	O	-0.076298	-0.988745	-0.007520
O14	O	0.257036	-0.655411	0.325813
O15	O	0.590369	-0.322078	0.659146
O16	O	-0.076281	-0.861064	0.120160
O17	O	0.257053	-0.527731	0.453494
O18	O	0.590386	-0.194397	0.786827
O19	O	-0.076295	-1.103126	0.106861
O20	O	0.257038	-0.769793	0.440194
O21	O	0.590371	-0.436459	0.773528
Cu22	Cu	-0.090211	-0.982095	0.113510
Cu23	Cu	0.243123	-0.648761	0.446843
Cu24	Cu	0.576456	-0.315428	0.780177
Cu25	Cu	0.090115	-0.982096	0.113520
Cu26	Cu	0.423449	-0.648763	0.446853
Cu27	Cu	0.756782	-0.315429	0.780186
O28	O	-0.076278	-0.975445	0.234542
O29	O	0.257055	-0.642112	0.567875
O30	O	0.590388	-0.308779	0.901208
C31	C	-0.000038	-0.830090	0.119626
C32	C	0.333295	-0.496756	0.452959
C33	C	0.666628	-0.163423	0.786292
C34	C	-0.000033	-0.737794	0.118011
C35	C	0.333300	-0.404461	0.451344
C36	C	0.666634	-0.071128	0.784677
N37	N	0.216947	-0.982097	0.113520
N38	N	0.550281	-0.648764	0.446853
N39	N	0.883614	-0.315431	0.780187
C40	C	-0.000058	-0.988206	-0.038491
C41	C	0.333276	-0.654873	0.294842
C42	C	0.666609	-0.321540	0.628176
C43	C	-0.000059	-0.986591	-0.130786
C44	C	0.333274	-0.653258	0.202547
C45	C	0.666608	-0.319925	0.535880
N46	N	-0.217042	-0.982100	0.113503
N47	N	0.116291	-0.648767	0.446836
N48	N	0.449624	-0.315433	0.780170
C49	C	0.451946	-1.038743	0.057093
C50	C	0.785279	-0.705410	0.390426
C51	C	1.118613	-0.372077	0.723759
C52	C	0.547927	-1.038746	0.057091
C53	C	0.881261	-0.705413	0.390424
C54	C	1.214594	-0.372079	0.723757
C55	C	0.547952	-0.925451	0.169936
C56	C	0.881285	-0.592118	0.503270
C57	C	1.214619	-0.258784	0.836603
C58	C	0.451972	-0.925453	0.169942
C59	C	0.785306	-0.592120	0.503275
C60	C	1.118639	-0.258787	0.836608
C61	C	0.403972	-0.982099	0.113515
C62	C	0.737305	-0.648765	0.446848
C63	C	1.070639	-0.315432	0.780182
C64	C	0.595933	-0.982099	0.113508
C65	C	0.929266	-0.648765	0.446841
C66	C	1.262599	-0.315432	0.780175
C67	C	0.700000	-0.982101	0.113506
C68	C	1.033333	-0.648768	0.446839
C69	C	1.366667	-0.315434	0.780173
C70	C	0.299898	-0.982098	0.113518
C71	C	0.633232	-0.648764	0.446851
C72	C	0.966565	-0.315431	0.780184
C73	C	-0.000055	-1.134101	0.107404
C74	C	0.333278	-0.800768	0.440737
C75	C	0.666612	-0.467435	0.774071
C76	C	-0.000054	-1.226397	0.109019
C77	C	0.333279	-0.893063	0.442352
C78	C	0.666612	-0.559730	0.775686
C79	C	-0.000038	-0.515522	0.190018
C80	C	0.333296	-0.182188	0.523352
C81	C	0.666629	0.151145	0.856685
C82	C	-0.000044	-0.428801	0.188494
C83	C	0.333290	-0.095468	0.521828
C84	C	0.666623	0.237865	0.855161
C85	C	-0.000052	-0.448676	0.037006
C86	C	0.333281	-0.115342	0.370339
C87	C	0.666614	0.217991	0.703672
C88	C	-0.000053	-0.535394	0.038530
C89	C	0.333281	-0.202061	0.371864
C90	C	0.666614	0.131272	0.705197
C91	C	-0.000041	-0.568815	0.115039
C92	C	0.333292	-0.235482	0.448373
C93	C	0.666626	0.097852	0.781706
C94	C	-0.000046	-0.395376	0.111990
C95	C	0.333287	-0.062042	0.445324
C96	C	0.666620	0.271291	0.778657
C97	C	-0.000053	-0.301350	0.110337
C98	C	0.333280	0.031984	0.443671
C99	C	0.666614	0.365317	0.777004
C100	C	-0.000036	-0.662847	0.116693
C101	C	0.333297	-0.329514	0.450026
C102	C	0.666631	0.003820	0.783359
C103	C	-0.000049	-1.058599	-0.353059
C104	C	0.333284	-0.725266	-0.019725
C105	C	0.666618	-0.391932	0.313608
C106	C	-0.000041	-1.057075	-0.439779
C107	C	0.333292	-0.723742	-0.106446
C108	C	0.666625	-0.390408	0.226888
C109	C	-0.000036	-0.905586	-0.419905
C110	C	0.333298	-0.572253	-0.086571
C111	C	0.666631	-0.238919	0.246762
C112	C	-0.000037	-0.907111	-0.333186
C113	C	0.333297	-0.573778	0.000147
C114	C	0.666630	-0.240444	0.333481
C115	C	-0.000048	-0.983620	-0.299766
C116	C	0.333285	-0.650287	0.033568
C117	C	0.666619	-0.316953	0.366901
C118	C	-0.000039	-0.980571	-0.473205
C119	C	0.333294	-0.647238	-0.139871
C120	C	0.666627	-0.313904	0.193462
C121	C	-0.000031	-0.978918	-0.567231
C122	C	0.333302	-0.645585	-0.233897
C123	C	0.666636	-0.312251	0.099436
C124	C	-0.000055	-0.985273	-0.205734
C125	C	0.333279	-0.651940	0.127600
C126	C	0.666612	-0.318607	0.460933
C127	C	-0.000035	-0.975984	0.265521
C128	C	0.333298	-0.642651	0.598854
C129	C	0.666631	-0.309318	0.932187
C130	C	-0.000028	-0.977600	0.357816
C131	C	0.333305	-0.644266	0.691149
C132	C	0.666638	-0.310933	1.024483
H133	H	0.412866	-1.084869	0.011148
H134	H	0.746200	-0.751535	0.344481
H135	H	1.079533	-0.418202	0.677815
Cl136	Cl	-0.000061	-1.154781	-0.311047
Cl137	Cl	0.333272	-0.821448	0.022286
Cl138	Cl	0.666606	-0.488114	0.355619
Cl139	Cl	0.608234	-1.109962	-0.013842
Cl140	Cl	0.941567	-0.776628	0.319492
Cl141	Cl	1.274900	-0.443295	0.652825
H142	H	-0.000035	-0.542730	0.252317
H143	H	0.333298	-0.209396	0.585650
H144	H	0.666632	0.123937	0.918983
H145	H	-0.000058	-0.578788	-0.022530
H146	H	0.333275	-0.245455	0.310803
H147	H	0.666609	0.087878	0.644136
Cl148	Cl	0.608300	-0.854240	0.240866
Cl149	Cl	0.941633	-0.520907	0.574199
Cl150	Cl	1.274966	-0.187573	0.907533
Cl151	Cl	-0.000061	-0.406655	-0.059172
Cl152	Cl	0.333272	-0.073322	0.274162
Cl153	Cl	0.666606	0.260012	0.607495
H154	H	0.412909	-0.879326	0.215891
H155	H	0.746243	-0.545993	0.549225
H156	H	1.079576	-0.212659	0.882558
Cl157	Cl	-0.000027	-0.812844	-0.266184
Cl158	Cl	0.333306	-0.479510	0.067150
Cl159	Cl	0.666639	-0.146177	0.400483
Cl160	Cl	-0.000022	-0.809409	-0.461926
Cl161	Cl	0.333312	-0.476076	-0.128592
Cl162	Cl	0.666645	-0.142742	0.204741
H163	H	-0.000043	-0.385413	0.249550
H164	H	0.333290	-0.052080	0.582883
H165	H	0.666624	0.281254	0.916217
Cl166	Cl	-0.000041	-1.151339	-0.506773
Cl167	Cl	0.333293	-0.818006	-0.173440
Cl168	Cl	0.666626	-0.484672	0.159893
