data_functionalizedCrystal
_audit_creation_method	'MofGen! by Chris Wilmer'
_symmetry_space_group_name_H-M	'P1'
_symmetry_Int_Tables_number	1
_symmetry_cell_setting	triclinic
loop_
_symmetry_equiv_pos_as_xyz
  x,y,z
_cell_length_a	13.635800
_cell_length_b	13.167930
_cell_length_c	9.582880
_cell_angle_alpha	83.023828
_cell_angle_beta	111.207034
_cell_angle_gamma	74.245432
loop_
_atom_site_label
_atom_site_type_symbol
_atom_site_fract_x
_atom_site_fract_y
_atom_site_fract_z
V1	V	2.069924	-0.148420	0.487212
O2	O	2.050599	0.007599	0.456664
O3	O	2.056842	-0.294741	0.504339
O4	O	2.065116	-0.145932	0.690367
O5	O	2.042267	-0.142240	0.269348
V6	V	2.307784	-0.129783	0.458668
O7	O	2.209110	-0.189303	0.549824
O8	O	2.393697	-0.088900	0.396055
O9	O	2.209263	0.016539	0.441540
O10	O	2.385808	-0.285802	0.489216
O11	O	2.394139	-0.135963	0.676531
O12	O	2.200989	-0.132271	0.255513
V13	V	2.569924	-0.148420	0.487212
O14	O	2.550599	0.007599	0.456664
O15	O	2.556842	-0.294741	0.504339
O16	O	2.565116	-0.145932	0.690367
O17	O	2.542267	-0.142240	0.269348
V18	V	2.807784	-0.129783	0.458668
O19	O	2.709110	-0.189303	0.549824
O20	O	2.893697	-0.088900	0.396055
O21	O	2.709263	0.016539	0.441540
O22	O	2.885808	-0.285802	0.489216
O23	O	2.894139	-0.135963	0.676531
O24	O	2.700989	-0.132271	0.255513
C25	C	1.981420	-0.330418	0.501933
C26	C	2.011496	-0.450036	0.517291
C27	C	1.999009	-0.644346	0.267797
C28	C	2.027267	-0.756738	0.282220
C29	C	2.096278	-0.787212	0.560559
C30	C	2.068020	-0.674820	0.546136
C31	C	2.019384	-0.603391	0.399750
C32	C	1.991118	-0.490998	0.385328
C33	C	2.060136	-0.521474	0.663666
C34	C	2.088394	-0.633865	0.678089
C35	C	1.991974	-0.140595	0.739228
C36	C	2.028758	-0.139529	0.905443
C37	C	2.116356	0.052209	0.443944
C38	C	2.075900	0.171827	0.428596
C39	C	2.105802	-0.137611	0.206645
C40	C	2.058636	-0.138671	0.040427
C41	C	2.481420	-0.330418	0.501933
C42	C	2.511496	-0.450036	0.517291
C43	C	2.491974	-0.140595	0.739228
C44	C	2.528758	-0.139529	0.905443
C45	C	2.616356	0.052209	0.443944
C46	C	2.575900	0.171827	0.428596
C47	C	2.605802	-0.137611	0.206645
C48	C	2.558636	-0.138671	0.040427
C49	C	2.617836	-0.511689	0.532741
C50	C	2.646116	-0.624086	0.547195
C51	C	2.568052	-0.674827	0.546187
C52	C	2.461705	-0.613166	0.530740
C53	C	2.433429	-0.500772	0.516297
C54	C	2.642054	0.233479	0.413149
C55	C	2.604047	0.345876	0.398703
C56	C	2.499888	0.396616	0.399714
C57	C	2.433728	0.334956	0.415157
C58	C	2.471732	0.222563	0.429592
H59	H	1.959394	-0.586186	0.148602
O60	O	2.332510	0.384398	0.415926
C61	C	2.263390	0.463544	0.275842
H62	H	2.317619	0.489934	0.222439
H63	H	2.210098	0.537019	0.298929
H64	H	2.206561	0.427681	0.192885
O65	O	2.407350	0.162831	0.444670
C66	C	2.307262	0.231732	0.442431
H67	H	2.320511	0.308161	0.478049
H68	H	2.282244	0.187340	0.526487
H69	H	2.238099	0.255408	0.320951
H70	H	2.135895	-0.845389	0.679740
H71	H	2.346834	-0.450581	0.503710
H72	H	1.951511	-0.432840	0.266132
O73	O	2.743239	0.184384	0.412059
C74	C	2.793471	0.262917	0.395356
H75	H	2.726040	0.346718	0.339158
H76	H	2.840440	0.242388	0.319637
H77	H	2.854552	0.263147	0.513764
O78	O	2.007398	-0.796647	0.154145
C79	C	1.934052	-0.855527	0.146307
H80	H	1.939029	-0.883857	0.266684
H81	H	1.959031	-0.929283	0.099317
H82	H	1.844790	-0.801055	0.066582
H83	H	2.657933	0.396064	0.386132
H84	H	2.468955	0.488135	0.387958
O85	O	2.749469	-0.684047	0.562449
C86	C	2.804143	-0.763875	0.703494
H87	H	2.766234	-0.737026	0.786911
H88	H	2.897016	-0.774827	0.755284
H89	H	2.793390	-0.844320	0.682340
H90	H	2.076721	-0.488117	0.771112
H91	H	2.128000	-0.692038	0.797272
H92	H	2.591091	-0.766346	0.557949
O93	O	2.693719	-0.462510	0.533538
C94	C	2.723922	-0.478815	0.409837
H95	H	2.707295	-0.554041	0.373899
H96	H	2.816616	-0.490921	0.447605
H97	H	2.672279	-0.404671	0.307982
O98	O	2.385760	-0.662297	0.529782
C99	C	2.285815	-0.583784	0.512999
H100	H	2.304659	-0.510555	0.553469
H101	H	2.247870	-0.620564	0.585512
H102	H	2.224101	-0.556747	0.386449
