data_functionalizedCrystal
_audit_creation_method	'MofGen! by Chris Wilmer'
_symmetry_space_group_name_H-M	'P1'
_symmetry_Int_Tables_number	1
_symmetry_cell_setting	triclinic
loop_
_symmetry_equiv_pos_as_xyz
  x,y,z
_cell_length_a	14.519709
_cell_length_b	26.210047
_cell_length_c	14.519709
_cell_angle_alpha	89.996435
_cell_angle_beta	83.680145
_cell_angle_gamma	90.003438
loop_
_atom_site_label
_atom_site_type_symbol
_atom_site_fract_x
_atom_site_fract_y
_atom_site_fract_z
O1	O	1.223875	0.042364	0.120878
O2	O	0.955398	0.042379	0.135115
O3	O	1.096755	0.042367	-0.006242
O4	O	1.082518	0.042377	0.262235
O5	O	1.096728	-0.042492	-0.006220
O6	O	0.955371	-0.042479	0.135137
O7	O	1.223848	-0.042494	0.120900
Cu8	Cu	1.089607	-0.050235	0.128020
Cu9	Cu	1.089639	0.050120	0.127994
O10	O	1.082491	-0.042482	0.262257
C11	C	0.921025	-0.000048	0.134462
C12	C	0.818643	-0.000042	0.132474
C13	C	0.443748	-0.000065	0.125154
C14	C	0.548056	-0.000059	0.127187
C15	C	0.631192	-0.000053	0.128814
C16	C	0.735507	-0.000047	0.130847
N17	N	1.089591	-0.120819	0.128038
C18	C	1.152225	-0.473338	0.065416
C19	C	1.152246	-0.686997	0.065403
O20	O	1.205464	-0.714624	0.012163
N21	N	1.089644	-0.713713	0.127974
C22	C	1.027029	-0.687010	0.190549
O23	O	0.973776	-0.714636	0.243763
C24	C	1.027005	-0.473353	0.190556
C25	C	1.089617	-0.446640	0.127987
C26	C	1.214832	-0.446626	0.002851
C27	C	1.214830	-0.393214	0.002858
C28	C	1.152221	-0.366515	0.065430
C29	C	1.089614	-0.393228	0.127995
C30	C	0.964385	-0.446651	0.253126
C31	C	0.964383	-0.393233	0.253121
C32	C	1.026996	-0.366521	0.190552
C33	C	1.027003	-0.313118	0.190574
N34	N	1.089605	-0.286403	0.128002
C35	C	1.152214	-0.313101	0.065431
C36	C	1.027047	-0.799184	0.190542
C37	C	1.027054	-0.852598	0.190541
C38	C	1.152270	-0.852581	0.065394
C39	C	1.152267	-0.799166	0.065399
C40	C	1.089649	-0.772468	0.127970
C41	C	1.152205	-0.200933	0.065451
C42	C	1.152199	-0.147517	0.065466
C43	C	1.026980	-0.147539	0.190610
C44	C	1.026989	-0.200950	0.190598
C45	C	1.089604	-0.227646	0.128011
O46	O	0.973806	-0.285459	0.243779
O47	O	1.205445	-0.285466	0.012211
C48	C	1.152228	-0.526750	0.065408
C49	C	1.089621	-0.553463	0.127973
C50	C	1.027013	-0.526764	0.190545
C51	C	1.089628	-0.606877	0.127972
C52	C	1.152237	-0.633575	0.065401
C53	C	1.214839	-0.606860	0.002830
C54	C	1.214836	-0.553448	0.002837
C55	C	0.964411	-0.553480	0.253116
C56	C	0.964419	-0.606891	0.253104
C57	C	1.027028	-0.633590	0.190533
C58	C	1.258221	-0.000066	0.121553
C59	C	1.360602	-0.000069	0.123541
C60	C	1.096078	-0.000063	-0.040591
C61	C	1.094089	-0.000063	-0.142972
N62	N	1.089662	0.120704	0.127969
C63	C	1.086770	-0.000049	-0.517868
C64	C	1.088803	-0.000053	-0.413560
C65	C	1.090430	-0.000056	-0.330423
C66	C	1.092463	-0.000059	-0.226109
C67	C	1.083168	-0.000051	0.296606
C68	C	1.085156	-0.000048	0.398987
H69	H	1.203189	-0.125769	0.014515
H70	H	0.976013	-0.222700	0.241556
H71	H	0.976054	-0.777450	0.241497
H72	H	0.976008	-0.125793	0.241558
O73	O	0.903522	-0.367379	0.313996
C74	C	0.779283	-0.373038	0.438080
C75	C	0.848169	-0.402380	0.369203
H76	H	0.734499	-0.401323	0.482720
H77	H	0.819117	-0.348047	0.484313
H78	H	0.733191	-0.348016	0.398146
H79	H	0.894278	-0.427429	0.409062
H80	H	0.808276	-0.427339	0.322972
O81	O	0.903504	-0.632758	0.313924
C82	C	0.779332	-0.627122	0.438076
C83	C	0.848257	-0.597768	0.369244
H84	H	0.734659	-0.598846	0.482834
H85	H	0.733135	-0.652112	0.398197
H86	H	0.819226	-0.652147	0.484200
H87	H	0.808438	-0.572715	0.323104
H88	H	0.894453	-0.572810	0.409181
O89	O	1.213126	-0.773181	0.004718
C90	C	1.338917	-0.712798	-0.014735
C91	C	1.270092	-0.742208	0.054109
H92	H	1.384979	-0.687741	0.025170
H93	H	1.383735	-0.741020	-0.059476
H94	H	1.298937	-0.687831	-0.060878
H95	H	1.309997	-0.767175	0.100311
H96	H	1.225274	-0.713958	0.098785
H97	H	1.265815	-0.468359	-0.048107
O98	O	1.213047	-0.878464	0.004480
C99	C	1.266764	-0.894832	-0.155764
C100	C	1.197908	-0.865475	-0.086881
H101	H	1.254535	-0.884349	-0.229644
H102	H	1.340669	-0.884320	-0.143673
H103	H	1.256019	-0.937593	-0.144964
H104	H	1.208569	-0.822707	-0.097640
H105	H	1.124028	-0.876029	-0.098990
H106	H	0.913401	-0.468393	0.304075
O107	O	1.275689	-0.527582	-0.058036
C108	C	1.399921	-0.533223	-0.182128
C109	C	1.331039	-0.562575	-0.113248
H110	H	1.444703	-0.561502	-0.226771
H111	H	1.360084	-0.508231	-0.228357
H112	H	1.446016	-0.508201	-0.142195
H113	H	1.284927	-0.587624	-0.153105
H114	H	1.370935	-0.587535	-0.067020
H115	H	0.976079	-0.874344	0.241500
O116	O	1.275528	-0.632824	-0.058046
C117	C	1.294933	-0.693154	-0.183909
C118	C	1.226113	-0.663769	-0.115035
H119	H	1.255008	-0.718189	-0.229989
H120	H	1.339673	-0.664915	-0.228704
H121	H	1.341079	-0.718141	-0.143970
H122	H	1.179907	-0.638782	-0.154899
H123	H	1.181438	-0.692036	-0.070240
H124	H	1.203191	-0.222663	0.014486
H125	H	0.913426	-0.531746	0.304068
H126	H	1.265811	-0.371468	-0.048093
