data_functionalizedCrystal
_audit_creation_method	'MofGen! by Chris Wilmer'
_symmetry_space_group_name_H-M	'P1'
_symmetry_Int_Tables_number	1
_symmetry_cell_setting	triclinic
loop_
_symmetry_equiv_pos_as_xyz
  x,y,z
_cell_length_a	14.908782
_cell_length_b	14.908520
_cell_length_c	19.805399
_cell_angle_alpha	93.270609
_cell_angle_beta	93.283594
_cell_angle_gamma	89.837842
loop_
_atom_site_label
_atom_site_type_symbol
_atom_site_fract_x
_atom_site_fract_y
_atom_site_fract_z
Zn1	Zn	1.353893	-0.437247	-0.342898
Zn2	Zn	1.345114	-0.587606	-0.236600
Zn3	Zn	1.203538	-0.428602	-0.235873
Zn4	Zn	1.194828	-0.578893	-0.355891
O5	O	1.274343	-0.508087	-0.292816
O6	O	1.478548	-0.464456	-0.323664
O7	O	1.326305	-0.566543	-0.141790
O8	O	1.230803	-0.303926	-0.244328
O9	O	1.472098	-0.574925	-0.245568
O10	O	1.341268	-0.310277	-0.322959
O11	O	1.222290	-0.449723	-0.141255
O12	O	1.076563	-0.441274	-0.256927
O13	O	1.215957	-0.560074	-0.448882
O14	O	1.070164	-0.551692	-0.345104
O15	O	1.332822	-0.456007	-0.439336
O16	O	1.317858	-0.712273	-0.258167
O17	O	1.207444	-0.705872	-0.345809
C18	C	1.040740	-0.494600	-0.302347
C19	C	0.940802	-0.488852	-0.306441
C20	C	0.746300	-0.592924	-0.232674
C21	C	0.652399	-0.587526	-0.236519
C22	C	0.659098	-0.472664	-0.317980
C23	C	0.752999	-0.478061	-0.314135
C24	C	0.796596	-0.538193	-0.271480
C25	C	0.890499	-0.543585	-0.267631
C26	C	0.897196	-0.428728	-0.349095
C27	C	0.803296	-0.423330	-0.352941
C28	C	1.260778	-0.741698	-0.303490
C29	C	1.255056	-0.841643	-0.308076
C30	C	1.359399	-1.036062	-0.225497
C31	C	1.354026	-1.129969	-0.229803
C32	C	1.238944	-1.123367	-0.320999
C33	C	1.244317	-1.029460	-0.316692
C34	C	1.304545	-0.985810	-0.268939
C35	C	1.309912	-0.891901	-0.264630
C36	C	1.194835	-0.885301	-0.355828
C37	C	1.189463	-0.979208	-0.360135
C38	C	1.508859	-0.521627	-0.283248
C39	C	1.608795	-0.527397	-0.279170
C40	C	1.274397	-0.508033	-0.469354
C41	C	1.274420	-0.508010	-0.544584
C42	C	1.287986	-0.273564	-0.282113
C43	C	1.293800	-0.173625	-0.277552
C44	C	1.335273	-0.453820	-0.574958
C45	C	1.335283	-0.453794	-0.645645
C46	C	1.274445	-0.507964	-0.685956
C47	C	1.213585	-0.562157	-0.655577
C48	C	1.213571	-0.562177	-0.584892
C49	C	1.213641	-0.562076	-0.940645
C50	C	1.213662	-0.562054	-1.011335
C51	C	1.335353	-0.453693	-1.001398
C52	C	1.335339	-0.453713	-0.930713
C53	C	1.274477	-0.507902	-0.900340
C54	C	1.274465	-0.507928	-0.823693
C55	C	1.274460	-0.507944	-0.762602
C56	C	1.274345	-0.508078	-0.116959
C57	C	1.274511	-0.507858	-0.041711
H58	H	0.925994	-0.592545	-0.232898
H59	H	0.781797	-0.641880	-0.197938
Br60	Br	1.428478	-1.198166	-0.170847
H61	H	0.623585	-0.423715	-0.352714
H62	H	1.150167	-0.844375	-0.391200
Br63	Br	1.131012	-0.635669	-0.710285
H64	H	1.189915	-1.158923	-0.359882
H65	H	0.938158	-0.384158	-0.380691
Br66	Br	0.584141	-0.661811	-0.183856
Br67	Br	1.107734	-1.038455	-0.424943
Br68	Br	1.417851	-0.380306	-0.520257
Br69	Br	1.131091	-0.635577	-1.066044
H70	H	0.767786	-0.374376	-0.387671
Br71	Br	1.391644	-0.832663	-0.199818
Br72	Br	1.441117	-0.976818	-0.160679
H73	H	1.384838	-0.409669	-0.670372
H74	H	1.384883	-0.409606	-0.897894
Br75	Br	1.417953	-0.380149	-1.042622
H76	H	1.164096	-0.606214	-0.915924
Br77	Br	1.130977	-0.635718	-0.543668
