data_functionalizedCrystal
_audit_creation_method	'MofGen! by Chris Wilmer'
_symmetry_space_group_name_H-M	'P1'
_symmetry_Int_Tables_number	1
_symmetry_cell_setting	triclinic
loop_
_symmetry_equiv_pos_as_xyz
  x,y,z
_cell_length_a	12.759401
_cell_length_b	15.296720
_cell_length_c	12.759400
_cell_angle_alpha	80.351640
_cell_angle_beta	89.985155
_cell_angle_gamma	99.664394
loop_
_atom_site_label
_atom_site_type_symbol
_atom_site_fract_x
_atom_site_fract_y
_atom_site_fract_z
Zn1	Zn	1.503391	-0.510017	0.521031
Zn2	Zn	2.003391	-0.010017	1.021031
Zn3	Zn	1.533709	-0.359171	0.666336
Zn4	Zn	2.033709	0.140829	1.166336
Zn5	Zn	1.358113	-0.359187	0.490676
Zn6	Zn	1.858113	0.140813	0.990676
Zn7	Zn	1.327688	-0.509984	0.696663
Zn8	Zn	1.827688	-0.009984	1.196663
O9	O	1.430725	-0.434590	0.593676
O10	O	1.930725	0.065410	1.093676
O11	O	1.654432	-0.490014	0.540319
O12	O	2.154432	0.009986	1.040319
O13	O	1.535837	-0.232935	0.617639
O14	O	2.035837	0.267065	1.117639
O15	O	1.377430	-0.379216	0.347685
O16	O	1.877430	0.120784	0.847685
O17	O	1.676707	-0.379188	0.647073
O18	O	2.176707	0.120812	1.147073
O19	O	1.484164	-0.490030	0.369988
O20	O	1.984164	0.009970	0.869988
O21	O	1.406828	-0.232947	0.488581
O22	O	1.906828	0.267053	0.988581
O23	O	1.207058	-0.379184	0.517988
O24	O	1.707058	0.120816	1.017988
O25	O	1.325574	-0.636227	0.698761
O26	O	1.825574	-0.136227	1.198761
O27	O	1.184704	-0.489974	0.669326
O28	O	1.684704	0.010026	1.169326
O29	O	1.454662	-0.636251	0.569725
O30	O	1.954662	-0.136251	1.069725
O31	O	1.506335	-0.379156	0.817376
O32	O	2.006335	0.120844	1.317376
O33	O	1.354973	-0.489957	0.839657
O34	O	1.854973	0.010043	1.339657
C35	C	1.157760	-0.434578	0.593655
C36	C	1.657760	0.065422	1.093655
C37	C	1.040981	-0.434594	0.593675
C38	C	1.540981	0.065406	1.093675
C39	C	0.974526	-0.492186	0.672565
C40	C	1.474526	0.007814	1.172565
C41	C	0.864800	-0.492196	0.672580
C42	C	1.364800	0.007804	1.172580
C43	C	0.887994	-0.377013	0.514811
C44	C	1.387994	0.122987	1.014811
C45	C	0.997717	-0.377008	0.514792
C46	C	1.497717	0.122992	1.014792
C47	C	0.961134	-0.558684	0.763654
C48	C	1.461134	-0.058684	1.263654
C49	C	0.851408	-0.558694	0.763670
C50	C	1.351408	-0.058694	1.263670
C51	C	1.383342	-0.669886	0.641012
C52	C	1.883342	-0.169886	1.141012
C53	C	1.363150	-0.770155	0.661183
C54	C	1.863150	-0.270155	1.161183
C55	C	1.575079	-1.052849	0.449323
C56	C	2.075079	-0.552849	0.949323
C57	C	1.594057	-0.958641	0.430373
C58	C	2.094057	-0.458641	0.930373
C59	C	1.536332	-0.911515	0.488074
C60	C	2.036332	-0.411515	0.988074
C61	C	1.459626	-0.958606	0.564729
C62	C	1.959626	-0.458606	1.064729
C63	C	1.440652	-1.052823	0.583687
C64	C	1.940652	-0.552823	1.083687
C65	C	1.401905	-0.911489	0.622437
C66	C	1.901905	-0.411489	1.122437
C67	C	1.325199	-0.958581	0.699092
C68	C	1.825199	-0.458581	1.199092
C69	C	1.306228	-1.052789	0.718046
C70	C	1.806228	-0.552789	1.218046
C71	C	1.363953	-1.099915	0.660345
C72	C	1.863953	-0.599915	1.160345
C73	C	1.420878	-0.817272	0.603479
C74	C	1.920878	-0.317272	1.103479
C75	C	1.286452	-0.817247	0.737842
C76	C	1.786452	-0.317247	1.237842
C77	C	1.267474	-0.911455	0.756792
C78	C	1.767474	-0.411455	1.256792
C79	C	1.704756	-0.434603	0.593699
C80	C	2.204756	0.065397	1.093699
C81	C	1.821532	-0.434608	0.593709
C82	C	2.321532	0.065392	1.093709
C83	C	1.430667	-0.434571	0.866640
C84	C	1.930667	0.065429	1.366640
C85	C	1.430732	-0.434593	0.983421
C86	C	1.930732	0.065407	1.483421
C87	C	1.477985	-0.200209	0.546449
C88	C	1.977985	0.299791	1.046449
C89	C	1.498380	-0.099940	0.525982
C90	C	1.998380	0.400060	1.025982
C91	C	1.430809	-0.434628	0.319651
C92	C	1.930809	0.065372	0.819651
C93	C	1.430844	-0.434645	0.202878
C94	C	1.930844	0.065355	0.702878
C95	C	1.509608	-0.376962	1.026659
C96	C	2.009608	0.123038	1.526659
C97	C	1.509667	-0.376990	1.136389
C98	C	2.009667	0.123010	1.636389
C99	C	1.351964	-0.492282	1.159633
C100	C	1.851964	0.007718	1.659633
C101	C	1.351910	-0.492258	1.049906
C102	C	1.851910	0.007742	1.549906
C103	C	1.600654	-0.310397	1.013240
C104	C	2.100654	0.189603	1.513240
C105	C	1.600713	-0.310425	1.122970
C106	C	2.100713	0.189575	1.622970
H107	H	0.852756	-0.330130	0.450587
H108	H	1.352756	0.169870	0.950587
H109	H	1.051821	-0.330117	0.450547
H110	H	1.551821	0.169883	0.950547
O111	O	1.637302	-1.103690	0.387084
O112	O	2.137302	-0.603690	0.887084
H113	H	1.682083	-1.146623	0.442742
H114	H	2.182083	-0.646623	0.942742
O115	O	1.343478	-1.201529	0.680787
O116	O	1.843478	-0.701529	1.180787
H117	H	1.396505	-1.226382	0.627785
H118	H	1.896505	-0.726382	1.127785
H119	H	1.243777	-1.091128	0.780472
H120	H	1.743777	-0.591128	1.280472
O121	O	0.788620	-0.646663	0.742926
O122	O	1.288620	-0.146663	1.242926
H123	H	0.804339	-0.702157	0.805718
H124	H	1.304339	-0.202157	1.305718
O125	O	0.981952	-0.651269	0.753572
O126	O	1.481952	-0.151269	1.253572
H127	H	1.068955	-0.651207	0.753574
H128	H	1.568955	-0.151207	1.253574
O129	O	1.676787	-0.907855	0.347704
O130	O	2.176787	-0.407855	0.847704
H131	H	1.638435	-0.864930	0.285612
H132	H	2.138435	-0.364930	0.785612
H133	H	1.205019	-0.949810	0.819205
H134	H	1.705019	-0.449810	1.319205
O135	O	1.266953	-0.554471	1.231347
O136	O	1.766953	-0.054471	1.731347
H137	H	1.212100	-0.594546	1.182844
H138	H	1.712100	-0.094546	1.682844
O139	O	1.224155	-0.766425	0.800048
O140	O	1.724155	-0.266425	1.300048
H141	H	1.167630	-0.814997	0.856535
H142	H	1.667630	-0.314997	1.356535
H143	H	1.287691	-0.539193	1.014705
H144	H	1.787691	-0.039193	1.514705
H145	H	1.000220	-0.533539	0.835837
H146	H	1.500220	-0.033539	1.335837
H147	H	1.678213	-0.329159	0.987165
H148	H	2.178213	0.170841	1.487165
H149	H	1.584920	-0.244002	0.965906
H150	H	2.084920	0.255998	1.465906
O151	O	0.816959	-0.533735	0.866382
O152	O	1.316959	-0.033735	1.366382
H153	H	0.887114	-0.521499	0.916651
H154	H	1.387114	-0.021499	1.416651
H155	H	1.593069	-0.240548	1.138743
H156	H	2.093069	0.259452	1.638743
O157	O	1.503605	-0.766483	0.520807
O158	O	2.003605	-0.266483	1.020807
H159	H	1.481969	-0.784573	0.441987
H160	H	1.981969	-0.284573	0.941987
O161	O	1.556785	-0.809904	0.467631
O162	O	2.056785	-0.309904	0.967631
H163	H	1.619812	-0.785075	0.404627
H164	H	2.119812	-0.285075	0.904627
O165	O	1.696401	-0.343650	1.174649
O166	O	2.196401	0.156350	1.674649
H167	H	1.747089	-0.361238	1.113308
H168	H	2.247089	0.138762	1.613308
