data_functionalizedCrystal
_audit_creation_method	'MofGen! by Chris Wilmer'
_symmetry_space_group_name_H-M	'P1'
_symmetry_Int_Tables_number	1
_symmetry_cell_setting	triclinic
loop_
_symmetry_equiv_pos_as_xyz
  x,y,z
_cell_length_a	16.992694
_cell_length_b	13.339070
_cell_length_c	15.455313
_cell_angle_alpha	93.394339
_cell_angle_beta	87.142206
_cell_angle_gamma	103.148759
loop_
_atom_site_label
_atom_site_type_symbol
_atom_site_fract_x
_atom_site_fract_y
_atom_site_fract_z
O1	O	1.090408	0.214131	-0.072012
O2	O	0.861603	0.211734	-0.072038
O3	O	0.949746	0.063546	-0.072026
O4	O	1.002265	0.362319	-0.072025
O5	O	0.944697	0.071983	0.072236
O6	O	0.856554	0.220171	0.072223
O7	O	1.085360	0.222568	0.072249
Cu8	Cu	0.970496	0.222140	0.085408
Cu9	Cu	0.976466	0.212163	-0.085197
O10	O	0.997216	0.370756	0.072237
C11	C	0.829195	0.212871	0.000089
C12	C	0.740151	0.203676	0.000079
C13	C	0.709211	0.292390	0.000080
C14	C	0.625543	0.283745	0.000092
C15	C	0.572817	0.186386	0.000097
C16	C	0.603762	0.097666	0.000099
C17	C	0.687429	0.106311	0.000093
C18	C	0.321423	0.150552	0.000120
C19	C	0.237751	0.141912	0.000123
C20	C	0.259538	0.327993	0.000118
C21	C	0.343205	0.336630	0.000107
C22	C	0.374143	0.247910	0.000114
N23	N	0.487295	0.177547	0.000107
N24	N	0.459663	0.256750	0.000110
C25	C	0.938350	0.029358	0.000103
C26	C	0.911906	-0.085082	0.000097
C27	C	1.117519	-0.433251	0.000120
C28	C	1.142367	-0.325728	0.000131
C29	C	1.084754	-0.265562	0.000122
C30	C	1.002289	-0.312927	0.000103
C31	C	0.977439	-0.420460	0.000099
C32	C	0.944673	-0.252771	0.000101
C33	C	0.862209	-0.300136	0.000081
C34	C	0.837363	-0.407658	0.000077
C35	C	0.894976	-0.467825	0.000086
C36	C	0.969524	-0.145238	0.000105
C37	C	0.829443	-0.132447	0.000083
C38	C	0.804596	-0.239969	0.000072
C39	C	1.117767	0.221431	0.000120
C40	C	1.206811	0.230626	0.000124
C41	C	1.008612	0.404944	0.000106
C42	C	1.035056	0.519384	0.000107
N43	N	0.966302	0.229157	0.205403
N44	N	0.980664	0.205137	-0.205192
C45	C	1.003772	0.166228	0.250803
C46	C	1.000610	0.171545	0.341610
C47	C	0.959983	0.239798	0.387017
C48	C	0.922508	0.302729	0.341611
C49	C	0.925665	0.297406	0.250805
C50	C	0.946347	0.262746	0.658596
C51	C	0.943195	0.268067	0.749408
C52	C	1.021296	0.136880	0.749401
C53	C	1.024454	0.131568	0.658594
C54	C	0.986976	0.194496	0.613196
N55	N	0.956752	0.245237	0.479836
N56	N	0.990202	0.189051	0.520378
H57	H	0.346601	0.078309	0.000126
C58	C	0.225503	0.425576	0.000123
H59	H	0.168124	0.406488	0.000134
H60	H	0.245443	0.462282	-0.050183
H61	H	0.241938	0.468158	0.050437
C62	C	1.048469	0.091160	0.200860
H63	H	1.044993	0.097009	0.140276
H64	H	1.024340	0.022598	0.215746
H65	H	1.103661	0.107576	0.215738
C66	C	0.545767	-0.009428	0.000102
H67	H	0.491506	-0.001873	0.000097
H68	H	0.553248	-0.043298	0.050408
H69	H	0.556760	-0.049178	-0.050212
H70	H	0.712618	0.034071	0.000092
C71	C	1.233069	-0.273634	0.000143
H72	H	1.263823	-0.324864	0.000138
H73	H	1.243916	-0.229012	0.050450
H74	H	1.247433	-0.234897	-0.050170
H75	H	0.194822	0.062627	0.000126
H76	H	0.782529	-0.083459	0.000080
C77	C	0.713889	-0.292074	0.000052
H78	H	0.683132	-0.240849	0.000040
H79	H	0.699519	-0.330820	0.050354
H80	H	0.703054	-0.336690	-0.050266
H81	H	1.164418	-0.482247	0.000134
C82	C	0.905151	0.331990	0.608666
H83	H	0.912845	0.319049	0.548082
H84	H	0.928265	0.402287	0.623550
H85	H	0.848922	0.317346	0.623551
C86	C	1.062510	0.067654	0.799336
H87	H	1.087161	0.026248	0.759288
H88	H	1.023239	0.024524	0.834767
H89	H	1.102569	0.109486	0.834751
H90	H	0.889423	0.358298	0.378586
H91	H	1.031120	0.120303	0.378574
H92	H	1.036667	-0.106684	0.000121
C93	C	0.867645	-0.586101	0.000079
H94	H	0.913769	-0.615145	0.000089
H95	H	0.837917	-0.611004	-0.050231
H96	H	0.834398	-0.605122	0.050389
H97	H	0.895152	0.348649	0.213842
H98	H	0.770215	-0.446220	0.000068
C99	C	0.898448	0.343089	0.799354
H100	H	0.876558	0.379782	0.759312
H101	H	0.935218	0.390395	0.834792
H102	H	0.855937	0.305348	0.834763
H103	H	1.057536	0.075991	0.621626
H104	H	0.600356	0.355985	0.000092
H105	H	0.752136	0.371670	0.000076
H106	H	1.104990	-0.178013	0.000131
H107	H	0.386130	0.415910	0.000093
