data_functionalizedCrystal
_audit_creation_method	'MofGen! by Chris Wilmer'
_symmetry_space_group_name_H-M	'P1'
_symmetry_Int_Tables_number	1
_symmetry_cell_setting	triclinic
loop_
_symmetry_equiv_pos_as_xyz
  x,y,z
_cell_length_a	18.215407
_cell_length_b	13.032721
_cell_length_c	18.215399
_cell_angle_alpha	97.151969
_cell_angle_beta	89.983176
_cell_angle_gamma	97.205008
loop_
_atom_site_label
_atom_site_type_symbol
_atom_site_fract_x
_atom_site_fract_y
_atom_site_fract_z
Zn1	Zn	1.087859	-0.416014	-0.453318
Zn2	Zn	1.072150	-0.590784	-0.345880
Zn3	Zn	0.964795	-0.416056	-0.330269
Zn4	Zn	0.949140	-0.590718	-0.468899
O5	O	1.018486	-0.503393	-0.399592
O6	O	1.188759	-0.439208	-0.439079
O7	O	1.057887	-0.567650	-0.240829
O8	O	0.994246	-0.269811	-0.333537
O9	O	1.177218	-0.567610	-0.360145
O10	O	1.084661	-0.269781	-0.423941
O11	O	0.979013	-0.439278	-0.229360
O12	O	0.859735	-0.439215	-0.348646
O13	O	0.967564	-0.567499	-0.569813
O14	O	0.848233	-0.567539	-0.450497
O15	O	1.069481	-0.439144	-0.558365
O16	O	1.042707	-0.737014	-0.375254
O17	O	0.952331	-0.736966	-0.465635
C18	C	0.827281	-0.503375	-0.399569
C19	C	0.745481	-0.503393	-0.399579
C20	C	0.551308	-0.570316	-0.452563
C21	C	0.474449	-0.570319	-0.452573
C22	C	0.486415	-0.436489	-0.346638
C23	C	0.563273	-0.436481	-0.346632
C24	C	0.595717	-0.503401	-0.399594
C25	C	0.442000	-0.503412	-0.399609
C26	C	0.358666	-0.503415	-0.399619
C27	C	0.679056	-0.503396	-0.399586
C28	C	0.994136	-0.774908	-0.423845
C29	C	0.983786	-0.891063	-0.434246
C30	C	1.023927	-0.942838	-0.394197
C31	C	1.013231	-1.062890	-0.404945
C32	C	1.210437	-0.503412	-0.399615
C33	C	1.292235	-0.503420	-0.399625
C34	C	1.018528	-0.503309	-0.591537
C35	C	1.018546	-0.503274	-0.673333
C36	C	1.042952	-0.230818	-0.375260
C37	C	1.053377	-0.114662	-0.364891
C38	C	0.977521	-0.436385	-0.855552
C39	C	0.977535	-0.436364	-0.932409
C40	C	1.059671	-0.570038	-0.944341
C41	C	1.059652	-0.570063	-0.867486
C42	C	1.018578	-0.503231	-0.823093
C43	C	1.018612	-0.503185	-0.976805
C44	C	1.018628	-0.503162	-1.060136
C45	C	1.018561	-0.503255	-0.739756
C46	C	1.018493	-0.503401	-0.208386
C47	C	1.018644	-0.503142	-0.126565
H48	H	0.599432	-0.381984	-0.303498
H49	H	1.095668	-1.070116	-0.322646
O50	O	0.933247	-0.944088	-0.484599
C51	C	0.862249	-0.917622	-0.466083
H52	H	0.867749	-0.838377	-0.430746
H53	H	0.829538	-0.913989	-0.518843
H54	H	0.832048	-0.979099	-0.433690
H55	H	1.093087	-0.624501	-0.841058
H56	H	0.944076	-0.381967	-0.819409
O57	O	0.937639	-0.371329	-0.963816
C58	C	0.901369	-0.312372	-0.908152
H59	H	0.931826	-0.308773	-0.853048
H60	H	0.900914	-0.230027	-0.923012
H61	H	0.842041	-0.350638	-0.903385
O62	O	1.099557	-0.634852	-0.987571
C63	C	1.090758	-0.620514	-1.062367
H64	H	1.073896	-0.539861	-1.065667
H65	H	1.145253	-0.627596	-1.092213
H66	H	1.046010	-0.682491	-1.089705
H67	H	0.438294	-0.624807	-0.495706
O68	O	0.582709	-0.635344	-0.504085
C69	C	0.527026	-0.694422	-0.550828
H70	H	0.476078	-0.651626	-0.549602
H71	H	0.548244	-0.705662	-0.609803
H72	H	0.511730	-0.773747	-0.530879
O73	O	0.962689	-1.115912	-0.455301
C74	C	0.891691	-1.089446	-0.436786
H75	H	0.897191	-1.010200	-0.401448
H76	H	0.858980	-1.085812	-0.489545
H77	H	0.861490	-1.150923	-0.404392
H78	H	1.066215	-0.898288	-0.351955
O79	O	0.454944	-0.371342	-0.295254
C80	C	0.483081	-0.267215	-0.302140
H81	H	0.504691	-0.262037	-0.360475
H82	H	0.437165	-0.215579	-0.291246
H83	H	0.530137	-0.239828	-0.260268
