data_functionalizedCrystal
_audit_creation_method	'MofGen! by Chris Wilmer'
_symmetry_space_group_name_H-M	'P1'
_symmetry_Int_Tables_number	1
_symmetry_cell_setting	triclinic
loop_
_symmetry_equiv_pos_as_xyz
  x,y,z
_cell_length_a	23.532350
_cell_length_b	23.532357
_cell_length_c	9.130313
_cell_angle_alpha	90.005376
_cell_angle_beta	90.002583
_cell_angle_gamma	97.173233
loop_
_atom_site_label
_atom_site_type_symbol
_atom_site_fract_x
_atom_site_fract_y
_atom_site_fract_z
O1	O	-0.755268	0.068977	0.121626
O2	O	-0.589398	0.079015	0.121673
O3	O	-0.677349	-0.008939	0.121618
O4	O	-0.667316	0.156930	0.121681
O5	O	-0.677343	-0.008934	-0.121981
O6	O	-0.589392	0.079020	-0.121926
O7	O	-0.755262	0.068982	-0.121973
Cu8	Cu	-0.672326	0.074001	-0.144192
Cu9	Cu	-0.672333	0.073995	0.143892
O10	O	-0.667310	0.156936	-0.121918
C11	C	-0.568178	0.078767	-0.000121
C12	C	-0.504959	0.078014	-0.000104
C13	C	-0.112942	0.073286	-0.132957
C14	C	-0.053543	0.072570	-0.132964
O15	O	-0.022821	0.072183	-0.245892
N16	N	-0.023838	0.072212	-0.000179
C17	C	-0.053536	0.072564	0.132621
O18	O	-0.022815	0.072194	0.245564
C19	C	-0.112935	0.073277	0.132626
C20	C	-0.142636	0.073640	-0.000167
C21	C	-0.142644	0.073649	-0.265740
C22	C	-0.202039	0.074367	-0.265733
C23	C	-0.231733	0.074721	-0.132943
C24	C	-0.202031	0.074358	-0.000160
C25	C	-0.142632	0.073625	0.265425
C26	C	-0.202035	0.074337	0.265418
C27	C	-0.231737	0.074701	0.132625
C28	C	-0.291120	0.075429	0.132637
N29	N	-0.320825	0.075787	-0.000148
C30	C	-0.291132	0.075433	-0.132938
C31	C	0.071206	0.071068	0.132600
C32	C	0.130604	0.070360	0.132597
C33	C	0.130593	0.070364	-0.132989
C34	C	0.071194	0.071076	-0.132984
C35	C	0.041501	0.071426	-0.000184
C36	C	-0.415866	0.076940	-0.132913
C37	C	-0.475266	0.077660	-0.132894
C38	C	-0.475250	0.077652	0.132691
C39	C	-0.415854	0.076936	0.132673
C40	C	-0.386164	0.076578	-0.000141
O41	O	-0.321879	0.075815	0.245507
O42	O	-0.321861	0.075796	-0.245862
C43	C	-0.677095	-0.030153	-0.000186
C44	C	-0.676341	-0.093371	-0.000199
C45	C	-0.671607	-0.485385	0.132667
C46	C	-0.670890	-0.544784	0.132675
O47	O	-0.670503	-0.575503	0.245604
N48	N	-0.670531	-0.574492	-0.000109
C49	C	-0.670884	-0.544797	-0.132910
O50	O	-0.670512	-0.575521	-0.245852
C51	C	-0.671597	-0.485398	-0.132917
C52	C	-0.671961	-0.455694	-0.000124
C53	C	-0.671971	-0.455680	0.265448
C54	C	-0.672690	-0.396285	0.265439
C55	C	-0.673044	-0.366594	0.132648
C56	C	-0.672680	-0.396299	-0.000133
C57	C	-0.671945	-0.455704	-0.265716
C58	C	-0.672658	-0.396301	-0.265712
C59	C	-0.673023	-0.366597	-0.132919
C60	C	-0.673752	-0.307213	-0.132933
N61	N	-0.674111	-0.277505	-0.000149
C62	C	-0.673757	-0.307196	0.132641
C63	C	-0.669385	-0.669538	-0.132885
C64	C	-0.668676	-0.728937	-0.132879
C65	C	-0.668681	-0.728919	0.132706
C66	C	-0.669394	-0.669520	0.132699
C67	C	-0.669744	-0.639830	-0.000101
C68	C	-0.675266	-0.182462	0.132612
C69	C	-0.675987	-0.123062	0.132591
C70	C	-0.675978	-0.123084	-0.132993
C71	C	-0.675260	-0.182479	-0.132973
C72	C	-0.674902	-0.212167	-0.000159
O73	O	-0.674138	-0.276457	-0.245805
O74	O	-0.674121	-0.276464	0.245565
C75	C	0.223519	0.069235	-0.000179
C76	C	0.160303	0.070003	-0.000194
C77	C	-0.667564	0.178150	-0.000111
C78	C	-0.668319	0.241368	-0.000087
N79	N	-0.672325	0.074005	-0.346814
C80	C	-0.706663	0.108363	-0.423477
C81	C	-0.706672	0.108353	-0.576814
C82	C	-0.637999	0.039625	-0.576812
C83	C	-0.637994	0.039633	-0.423478
C84	C	-0.740994	0.142736	-0.346813
C85	C	-0.775335	0.177097	-0.423476
C86	C	-0.775343	0.177086	-0.576813
C87	C	-0.741011	0.142714	-0.653487
N88	N	-0.672339	0.073987	0.346515
H89	H	0.154783	0.070073	0.240731
Br90	Br	0.030914	0.071547	0.312845
Br91	Br	-0.740981	0.142756	-0.138714
Br92	Br	-0.515560	0.078130	0.312897
H93	H	-0.499446	0.077958	-0.241035
H94	H	-0.391698	0.076654	-0.241062
Br95	Br	-0.821933	0.223735	-0.319424
H96	H	-0.676269	-0.098900	-0.241108
Br97	Br	-0.242339	0.074858	-0.445962
Br98	Br	-0.102356	0.073171	-0.445980
Br99	Br	-0.668197	-0.769224	0.312925
Br100	Br	-0.674779	-0.222796	-0.313192
H101	H	-0.671681	-0.479847	0.373589
Br102	Br	-0.669889	-0.629213	0.312923
Br103	Br	-0.673131	-0.356011	-0.445951
H104	H	-0.668387	-0.753118	-0.241012
Br105	Br	0.030891	0.071570	-0.313209
Br106	Br	-0.821953	0.223712	-0.680853
H107	H	-0.118460	0.073328	0.373560
H108	H	-0.741026	0.142703	-0.778344
Br109	Br	-0.591407	-0.007018	-0.680869
H110	H	-0.669671	-0.645369	-0.241033
Br111	Br	-0.591407	-0.007011	-0.319426
Br112	Br	-0.671448	-0.496002	-0.445947
Br113	Br	0.170903	0.069883	-0.313206
H114	H	-0.226208	0.074622	0.373562
H115	H	-0.676285	-0.098879	0.240732
Br116	Br	-0.674780	-0.222742	0.312862
Br117	Br	-0.375542	0.076453	0.312893
H118	H	-0.672984	-0.372105	0.373573
