data_functionalizedCrystal
_audit_creation_method	'MofGen! by Chris Wilmer'
_symmetry_space_group_name_H-M	'P1'
_symmetry_Int_Tables_number	1
_symmetry_cell_setting	triclinic
loop_
_symmetry_equiv_pos_as_xyz
  x,y,z
_cell_length_a	19.902436
_cell_length_b	17.917603
_cell_length_c	17.917559
_cell_angle_alpha	60.139256
_cell_angle_beta	90.004460
_cell_angle_gamma	63.031398
loop_
_atom_site_label
_atom_site_type_symbol
_atom_site_fract_x
_atom_site_fract_y
_atom_site_fract_z
Zr1	Zr	0.685655	0.806770	-0.128996
O2	O	0.589240	0.951811	-0.249539
O3	O	0.710604	0.654540	-0.087342
O4	O	0.722778	0.796386	-0.242748
O5	O	0.572705	0.820662	0.023107
O6	O	0.833355	0.796373	-0.242738
O7	O	0.577066	0.809965	-0.094133
O8	O	0.811579	0.542635	0.035255
O9	O	0.594482	1.074399	-0.254886
O10	O	0.809334	0.719806	-0.075249
O11	O	0.723556	0.727800	0.012239
O12	O	0.737889	0.894806	-0.170732
O13	O	0.652111	0.902799	-0.083244
Zr14	Zr	0.855058	0.823809	0.058005
Zr15	Zr	0.862014	0.806748	-0.128979
Zr16	Zr	0.678699	0.823830	0.057989
Zr17	Zr	0.694014	1.002284	-0.137523
Zr18	Zr	0.846698	0.628295	0.066532
O19	O	0.830109	0.976038	0.016352
O20	O	0.840000	0.951780	-0.249516
O21	O	0.579349	0.976069	0.016329
O22	O	0.951472	0.678767	0.178548
O23	O	0.961363	0.654509	-0.087319
O24	O	0.700713	0.678798	0.178525
O25	O	0.968008	0.809917	-0.094097
O26	O	0.817935	0.834192	0.171757
O27	O	0.707357	0.834206	0.171747
O28	O	0.963646	0.820614	0.023143
O29	O	0.734664	1.074382	-0.254873
O30	O	0.806049	0.556196	0.183882
O31	O	0.946231	0.556179	0.183895
O32	O	0.951760	0.542618	0.035267
O33	O	0.588952	1.087960	-0.106258
O34	O	0.729134	1.087943	-0.106245
O35	O	0.802824	0.735773	0.099741
O36	O	0.888602	0.727779	0.012254
O37	O	0.817157	0.902779	-0.083229
O38	O	0.731379	0.910772	0.004258
C39	C	0.759900	0.570731	-0.024829
C40	C	0.756351	0.487730	-0.021209
C41	C	0.749868	0.335765	-0.014598
C42	C	0.790843	0.294809	-0.056390
C43	C	0.787235	0.210250	-0.052712
C44	C	0.753474	0.420331	-0.018275
C45	C	0.549758	0.815316	-0.035516
C46	C	0.474889	0.815325	-0.035522
C47	C	0.202884	0.815277	-0.035486
C48	C	0.186296	0.925694	-0.095454
C49	C	0.264148	0.925738	-0.095762
C50	C	0.337829	0.815302	-0.035504
C51	C	0.334464	0.754305	-0.073253
C52	C	0.256283	0.755006	-0.073692
C53	C	0.252114	0.765033	0.062292
C54	C	0.329133	0.767189	0.062051
C55	C	0.414096	0.815310	-0.035514
C56	C	0.126618	0.815265	-0.035480
C57	C	0.990954	0.815262	-0.035475
C58	C	1.065823	0.815253	-0.035468
C59	C	0.779058	0.793949	-0.269384
C60	C	0.782011	0.786706	-0.348764
C61	C	0.780813	1.059847	-0.046162
C62	C	0.784361	1.142848	-0.049782
C63	C	0.753292	0.857090	-0.576867
C64	C	0.787419	0.773492	-0.494121
C65	C	0.784409	0.780847	-0.413238
C66	C	0.756301	0.849738	-0.657759
C67	C	0.761655	0.836630	0.198394
C68	C	0.758702	0.843872	0.277773
C69	C	0.980498	0.570704	-0.024809
C70	C	1.051818	0.487694	-0.021182
C71	C	0.751199	0.592071	0.209060
C72	C	0.744697	0.516313	0.292060
C73	C	0.971797	0.592044	0.209080
C74	C	1.040164	0.516277	0.292087
C75	C	0.568916	1.038534	-0.280071
C76	C	0.500549	1.114301	-0.363078
C77	C	0.560215	1.059874	-0.046182
C78	C	0.488894	1.142884	-0.049809
C79	C	0.789514	1.038507	-0.280051
C80	C	0.796016	1.114265	-0.363050
C81	C	1.043934	0.444549	-0.065162
C82	C	1.110942	0.366561	-0.061772
C83	C	1.185832	0.331715	-0.014396
C84	C	1.193714	0.374868	0.029585
C85	C	1.126708	0.452859	0.026189
C86	C	0.783020	0.484899	0.376721
C87	C	0.776908	0.413728	0.454715
C88	C	0.732477	0.373967	0.448046
C89	C	0.694149	0.405388	0.363376
C90	C	0.700257	0.476563	0.285384
C91	C	1.117052	0.476524	0.285400
C92	C	1.181298	0.405342	0.363386
C93	C	1.168653	0.373911	0.448058
C94	C	1.091757	0.413672	0.454743
C95	C	1.027513	0.484857	0.376758
C96	C	0.423661	1.154064	-0.356391
C97	C	0.359416	1.225270	-0.434378
C98	C	0.372061	1.256705	-0.519051
C99	C	0.448957	1.216939	-0.525735
C100	C	0.513200	1.145741	-0.447749
C101	C	0.496779	1.186037	-0.005837
C102	C	0.429773	1.264044	-0.009249
C103	C	0.354883	1.298892	-0.056627
C104	C	0.347000	1.255736	-0.100604
C105	C	0.414006	1.177735	-0.097198
C106	C	0.840453	1.154004	-0.356353
C107	C	0.846578	1.225177	-0.434332
C108	C	0.808260	1.256615	-0.519009
C109	C	0.763821	1.216869	-0.525705
C110	C	0.757701	1.145692	-0.447726
H111	H	0.712081	0.307324	0.023940
C112	C	0.281182	1.384692	-0.060361
N113	N	0.225673	1.449315	-0.063167
H114	H	0.575805	1.113365	-0.453204
H115	H	0.148067	0.973451	-0.070571
C116	C	0.942936	0.528576	0.384128
N117	N	0.879233	0.561504	0.389686
C118	C	0.710771	0.961235	-0.590505
N119	N	0.678743	1.039675	-0.600768
H120	H	0.286016	1.284122	-0.139179
H121	H	0.818892	0.696398	-0.484025
C122	C	0.895461	1.268890	-0.426947
N123	N	0.932278	1.301814	-0.421382
C124	C	0.405318	1.130265	-0.145562
N125	N	0.398769	1.094512	-0.181991
C126	C	0.462854	1.251520	-0.618883
N127	N	0.473318	1.277561	-0.689044
C128	C	0.274837	1.268998	-0.427005
N129	N	0.211133	1.301932	-0.421449
C130	C	0.882616	1.119430	-0.263215
N131	N	0.914381	1.093389	-0.193066
C132	C	0.708802	1.102000	-0.455109
N133	N	0.671967	1.069098	-0.460677
H134	H	0.340298	0.787785	-0.144383
H135	H	0.813249	1.314573	-0.582497
H136	H	0.982962	0.472918	-0.103751
H137	H	0.319743	1.314680	-0.582545
H138	H	0.216130	0.805038	0.094302
H139	H	0.828632	0.323253	-0.094933
H140	H	1.081473	0.388070	0.523693
H141	H	0.669051	0.502130	0.216452
H142	H	0.557752	1.157670	0.032749
C143	C	0.329535	0.827354	0.100214
N144	N	0.329843	0.872670	0.128959
H145	H	0.732624	1.242477	-0.594659
C146	C	0.438462	1.311494	0.039141
N147	N	0.445008	1.347229	0.075590
C148	C	0.399656	0.658838	0.126962
N149	N	0.452775	0.577222	0.175850
C150	C	1.259533	0.245915	-0.010662
N151	N	1.315041	0.181287	-0.007849
C152	C	0.263785	0.989872	-0.061991
N153	N	0.263500	1.038200	-0.036572
H154	H	1.254699	0.346485	0.068157
H155	H	0.266920	0.964578	-0.167966
C156	C	0.138499	0.977991	-0.192422
N157	N	0.102501	1.017378	-0.265459
H158	H	0.270617	0.673731	-0.032574
C159	C	0.212786	0.801406	-0.170740
N160	N	0.180027	0.836358	-0.243839
C161	C	0.404467	0.644338	-0.016886
N162	N	0.457219	0.561526	0.025541
C163	C	1.135393	0.500301	0.074585
N164	N	1.141941	0.536030	0.111040
H165	H	0.266866	0.683754	0.107124
C166	C	1.102252	0.319099	-0.110147
N167	N	1.095705	0.283350	-0.146582
H168	H	0.727510	0.316012	0.511559
C169	C	0.819084	0.379168	0.547843
N170	N	0.850854	0.353138	0.617985
C171	C	0.645281	0.361635	0.356056
N172	N	0.608478	0.328673	0.350545
H173	H	1.220972	0.315946	0.511552
H174	H	0.819201	0.517266	0.382168
C175	C	1.265877	0.361608	0.356013
N176	N	1.329580	0.328667	0.350458
H177	H	1.127363	0.502104	0.216463
H178	H	0.413349	1.128473	-0.287454
