data_functionalizedCrystal
_audit_creation_method	'MofGen! by Chris Wilmer'
_symmetry_space_group_name_H-M	'P1'
_symmetry_Int_Tables_number	1
_symmetry_cell_setting	triclinic
loop_
_symmetry_equiv_pos_as_xyz
  x,y,z
_cell_length_a	16.120484
_cell_length_b	12.759395
_cell_length_c	12.759387
_cell_angle_alpha	90.020509
_cell_angle_beta	92.863576
_cell_angle_gamma	87.073025
loop_
_atom_site_label
_atom_site_type_symbol
_atom_site_fract_x
_atom_site_fract_y
_atom_site_fract_z
Zn1	Zn	-0.331828	-1.584987	-0.615167
Zn2	Zn	0.168172	-1.084987	-0.115167
Zn3	Zn	-0.471265	-1.575935	-0.448379
Zn4	Zn	0.028735	-1.075935	0.051621
Zn5	Zn	-0.331874	-1.409282	-0.439506
Zn6	Zn	0.168126	-0.909282	0.060494
Zn7	Zn	-0.471205	-1.400339	-0.624015
Zn8	Zn	0.028795	-0.900339	-0.124015
O9	O	-0.401543	-1.492636	-0.531767
O10	O	0.098457	-0.992636	-0.031767
O11	O	-0.350331	-1.730807	-0.593052
O12	O	0.149669	-1.230807	-0.093052
O13	O	-0.452818	-1.553783	-0.300184
O14	O	0.047182	-1.053783	0.199816
O15	O	-0.215202	-1.440121	-0.455392
O16	O	0.284798	-0.940121	0.044608
O17	O	-0.452774	-1.724157	-0.470514
O18	O	0.047226	-1.224157	0.029486
O19	O	-0.215169	-1.569211	-0.584449
O20	O	0.284831	-1.069211	-0.084449
O21	O	-0.350408	-1.431344	-0.293665
O22	O	0.149592	-0.931344	0.206335
O23	O	-0.350350	-1.261075	-0.463971
O24	O	0.149650	-0.761075	0.036029
O25	O	-0.452673	-1.424878	-0.769859
O26	O	0.047327	-0.924878	-0.269859
O27	O	-0.452717	-1.254504	-0.599529
O28	O	0.047283	-0.754504	-0.099529
O29	O	-0.350273	-1.560539	-0.763359
O30	O	0.149727	-1.060539	-0.263359
O31	O	-0.587922	-1.545111	-0.479094
O32	O	-0.087922	-1.045111	0.020906
O33	O	-0.587879	-1.416101	-0.608132
O34	O	-0.087879	-0.916101	-0.108132
C35	C	-0.401533	-1.219669	-0.531748
C36	C	0.098467	-0.719669	-0.031748
C37	C	-0.401549	-1.102891	-0.531766
C38	C	0.098451	-0.602891	-0.031766
C39	C	-0.618150	-1.478681	-0.545559
C40	C	-0.118150	-0.978681	-0.045559
C41	C	-0.710816	-1.472808	-0.551495
C42	C	-0.210816	-0.972808	-0.051495
C43	C	-0.401461	-1.492720	-0.805795
C44	C	0.098539	-0.992720	-0.305795
C45	C	-0.401426	-1.492756	-0.922570
C46	C	0.098574	-0.992756	-0.422570
C47	C	-0.880477	-1.462090	-0.562353
C48	C	-0.380477	-0.962090	-0.062353
C49	C	-0.921768	-1.523370	-0.501198
C50	C	-0.421768	-1.023370	-0.001198
C51	C	-1.016173	-1.517406	-0.507239
C52	C	-0.516173	-1.017406	-0.007239
C53	C	-0.786063	-1.468052	-0.556313
C54	C	-0.286063	-0.968052	-0.056313
C55	C	-0.184090	-1.506673	-0.517944
C56	C	0.315910	-1.006673	-0.017944
C57	C	-0.091424	-1.512655	-0.512053
C58	C	0.408576	-1.012655	-0.012053
C59	C	-0.401554	-1.766669	-0.531786
C60	C	0.098446	-1.266669	-0.031786
C61	C	-0.401558	-1.883445	-0.531794
C62	C	0.098442	-1.383445	-0.031794
C63	C	-0.508315	-1.096077	-0.672716
C64	C	-0.008315	-0.596077	-0.172716
C65	C	-0.561705	-1.037808	-0.743194
C66	C	-0.061705	-0.537808	-0.243194
C67	C	-0.561715	-0.928086	-0.743207
C68	C	-0.061715	-0.428086	-0.243207
C69	C	-0.508328	-0.876630	-0.672737
C70	C	-0.008328	-0.376630	-0.172737
C71	C	-0.454938	-0.934899	-0.602259
C72	C	0.045062	-0.434899	-0.102259
C73	C	-0.454935	-1.044623	-0.602251
C74	C	0.045065	-0.544623	-0.102251
C75	C	-0.348169	-0.941713	-0.461316
C76	C	0.151831	-0.441713	0.038684
C77	C	-0.348161	-1.051436	-0.461296
C78	C	0.151839	-0.551436	0.038704
C79	C	-0.294781	-0.890258	-0.390846
C80	C	0.205219	-0.390258	0.109154
C81	C	-0.241394	-0.948526	-0.320361
C82	C	0.258606	-0.448526	0.179639
C83	C	-0.241387	-1.058255	-0.320350
C84	C	0.258613	-0.558255	0.179650
C85	C	-0.294771	-1.109704	-0.390818
C86	C	0.205229	-0.609704	0.109182
C87	C	-0.294805	-1.634028	-0.915821
C88	C	0.205195	-1.134028	-0.415821
C89	C	-0.241481	-1.704680	-0.967306
C90	C	0.258519	-1.204680	-0.467306
C91	C	-0.241451	-1.704707	-1.077026
C92	C	0.258549	-1.204707	-0.577026
C93	C	-0.294748	-1.634074	-1.135263
C94	C	0.205252	-1.134074	-0.635263
C95	C	-0.348071	-1.563422	-1.083777
C96	C	0.151929	-1.063422	-0.583777
C97	C	-0.348098	-1.563404	-0.974055
C98	C	0.151902	-1.063404	-0.474055
C99	C	-0.454688	-1.422147	-1.090526
C100	C	0.045312	-0.922147	-0.590526
C101	C	-0.454723	-1.422123	-0.980807
C102	C	0.045277	-0.922123	-0.480807
C103	C	-0.507985	-1.351514	-1.148763
C104	C	-0.007985	-0.851514	-0.648763
C105	C	-0.561313	-1.280866	-1.097278
C106	C	-0.061313	-0.780866	-0.597278
C107	C	-0.561342	-1.280842	-0.987551
C108	C	-0.061342	-0.780842	-0.487551
C109	C	-0.508047	-1.351472	-0.929321
C110	C	-0.008047	-0.851472	-0.429321
C111	C	-0.401564	-1.492616	-0.258801
C112	C	0.098436	-0.992616	0.241199
C113	C	-0.401364	-1.492798	-0.142012
C114	C	0.098636	-0.992798	0.357988
H115	H	-0.886218	-1.580310	-0.444303
H116	H	-0.386218	-1.080310	0.055697
C117	C	-0.620432	-1.094417	-0.820703
C118	C	-0.120432	-0.594417	-0.320703
N119	N	-0.664665	-1.137053	-0.879083
N120	N	-0.164665	-0.637053	-0.379083
H121	H	-0.508334	-0.787289	-0.672763
H122	H	-0.008334	-0.287289	-0.172763
H123	H	-0.916025	-1.405153	-0.619241
H124	H	-0.416025	-0.905153	-0.119241
C125	C	-0.508072	-1.351451	-0.808626
C126	C	-0.008072	-0.851451	-0.308626
N127	N	-0.508086	-1.351434	-0.717716
N128	N	-0.008086	-0.851434	-0.217716
H129	H	-0.294790	-0.800916	-0.390866
H130	H	0.205210	-0.300916	0.109134
C131	C	-0.294839	-1.634011	-0.795126
C132	C	0.205161	-1.134011	-0.295126
N133	N	-0.294862	-1.634000	-0.704217
N134	N	0.205138	-1.134000	-0.204217
C135	C	-0.620447	-0.863989	-0.820736
C136	C	-0.120447	-0.363989	-0.320736
N137	N	-0.664685	-0.815711	-0.879129
N138	N	-0.164685	-0.315711	-0.379129
H139	H	-0.508318	-1.185418	-0.672704
H140	H	-0.008318	-0.685418	-0.172704
C141	C	-0.182673	-0.891918	-0.242855
C142	C	0.317327	-0.391918	0.257145
N143	N	-0.138444	-0.849277	-0.184475
N144	N	0.361556	-0.349277	0.315525
C145	C	-0.182653	-1.122342	-0.242817
C146	C	0.317347	-0.622342	0.257183
N147	N	-0.138413	-1.170608	-0.184416
N148	N	0.361587	-0.670608	0.315584
H149	H	-0.294711	-1.634094	-1.224602
H150	H	0.205289	-1.134094	-0.724602
H151	H	-0.294773	-1.199045	-0.390812
H152	H	0.205227	-0.699045	0.109188
H153	H	-0.198086	-1.762186	-0.919878
H154	H	0.301914	-1.262186	-0.419878
H155	H	-0.604756	-1.223298	-0.945638
H156	H	-0.104756	-0.723298	-0.445638
C157	C	-0.507956	-1.351554	-1.269458
C158	C	-0.007956	-0.851554	-0.769458
N159	N	-0.507942	-1.351590	-1.360367
N160	N	-0.007942	-0.851590	-0.860367
H161	H	-0.198025	-1.762231	-1.118945
H162	H	0.301975	-1.262231	-0.618945
C163	C	-0.619927	-1.203169	-1.161344
C164	C	-0.119927	-0.703169	-0.661344
N165	N	-0.664075	-1.144647	-1.209603
N166	N	-0.164075	-0.644647	-0.709603
