data_functionalizedCrystal
_audit_creation_method	'MofGen! by Chris Wilmer'
_symmetry_space_group_name_H-M	'P1'
_symmetry_Int_Tables_number	1
_symmetry_cell_setting	triclinic
loop_
_symmetry_equiv_pos_as_xyz
  x,y,z
_cell_length_a	15.538191
_cell_length_b	11.792241
_cell_length_c	14.185569
_cell_angle_alpha	76.753184
_cell_angle_beta	97.875798
_cell_angle_gamma	65.732755
loop_
_atom_site_label
_atom_site_type_symbol
_atom_site_fract_x
_atom_site_fract_y
_atom_site_fract_z
O1	O	1.226838	-0.333383	-0.083428
O2	O	0.953247	-0.202607	-0.083428
O3	O	1.096684	-0.435953	-0.083421
O4	O	1.083402	-0.100037	-0.083435
O5	O	1.139056	-0.504880	0.083416
O6	O	0.995620	-0.271534	0.083409
O7	O	1.269211	-0.402310	0.083409
Cu8	Cu	1.136284	-0.343215	0.098642
Cu9	Cu	1.086174	-0.261702	-0.098662
O10	O	1.125774	-0.168964	0.083402
C11	C	0.939408	-0.223388	-0.000010
C12	C	0.835042	-0.182633	-0.000009
C13	C	0.545184	-0.587531	-0.000008
C14	C	0.447114	-0.549205	-0.000010
C15	C	0.425769	-0.333634	-0.000019
C16	C	0.523842	-0.371943	-0.000012
C17	C	0.583541	-0.498893	-0.000008
C18	C	0.562199	-0.283305	-0.000011
C19	C	0.660261	-0.321610	-0.000010
C20	C	0.719966	-0.448553	-0.000008
C21	C	0.681604	-0.537198	-0.000006
C22	C	0.502495	-0.156353	-0.000023
C23	C	0.540852	-0.067715	-0.000023
C24	C	0.638918	-0.106023	-0.000013
C25	C	0.698623	-0.232966	-0.000012
C26	C	0.677280	-0.017378	-0.000016
C27	C	0.775343	-0.055683	-0.000014
C28	C	0.796685	-0.271271	-0.000010
C29	C	1.117036	-0.512357	-0.000003
C30	C	1.114539	-0.637324	-0.000004
C31	C	1.109944	-0.866104	-0.000021
C32	C	1.112497	-0.738792	-0.000012
C33	C	1.283050	-0.381528	-0.000012
C34	C	1.387413	-0.422281	-0.000019
C35	C	1.105422	-0.092559	-0.000019
C36	C	1.107917	0.032410	-0.000024
N37	N	1.171536	-0.400551	0.237415
N38	N	1.050930	-0.204378	-0.237434
C39	C	0.947360	-0.035974	0.605054
C40	C	0.974069	-0.079400	0.710077
C41	C	1.101108	-0.285981	0.710044
C42	C	1.074406	-0.242574	0.605019
C43	C	0.997532	-0.117569	0.552532
C44	C	1.124579	-0.324170	0.552497
C45	C	1.097882	-0.280763	0.447481
C46	C	1.021013	-0.155762	0.394987
C47	C	0.970836	-0.074163	0.447516
C48	C	1.201457	-0.449171	0.604986
C49	C	1.251630	-0.530766	0.552464
C50	C	1.224929	-0.487364	0.447447
C51	C	1.148060	-0.362362	0.394952
C52	C	1.275107	-0.568963	0.394918
C53	C	1.248410	-0.525557	0.289902
C54	C	1.121363	-0.318956	0.289937
H55	H	0.628656	0.085989	-0.000029
C56	C	0.886265	0.063333	0.389770
H57	H	0.877549	0.077488	0.319704
H58	H	0.901216	0.127627	0.406971
H59	H	0.827847	0.069693	0.406996
C60	C	0.817539	0.041815	-0.000013
H61	H	0.767942	0.122903	-0.000007
H62	H	0.840574	0.055387	-0.058193
H63	H	0.870127	0.007310	0.058174
H64	H	1.058758	-0.217170	0.247200
H65	H	0.999281	-0.120420	0.309477
C66	C	0.862797	0.101530	0.547312
H67	H	0.836738	0.143916	0.593630
H68	H	0.813054	0.093805	0.506352
H69	H	0.886442	0.151707	0.506340
H70	H	0.933206	-0.012943	0.752835
H71	H	1.163702	-0.387760	0.752791
C72	C	1.230829	-0.496923	0.720501
H73	H	1.283806	-0.583048	0.744238
H74	H	1.176720	-0.497550	0.744278
H75	H	1.250101	-0.439635	0.744252
C76	C	1.336183	-0.668266	0.610205
H77	H	1.344893	-0.682436	0.680271
H78	H	1.394601	-0.674656	0.592977
H79	H	1.321203	-0.732542	0.592997
C80	C	1.359665	-0.706457	0.452661
H81	H	1.368377	-0.720622	0.522726
H82	H	1.418081	-0.712839	0.435430
H83	H	1.344693	-0.770742	0.435458
H84	H	1.289267	-0.592000	0.247138
C85	C	0.827833	-0.490698	-0.000008
H86	H	0.857890	-0.578994	-0.000013
H87	H	0.860855	-0.483592	0.058169
H88	H	0.831297	-0.435516	-0.058197
H89	H	0.492231	0.035649	-0.000030
H90	H	0.845299	-0.374648	-0.000000
H91	H	0.730217	-0.640576	0.000004
H92	H	0.415888	-0.621394	-0.000013
C93	C	0.610859	-0.727173	-0.000008
H94	H	0.573971	-0.774480	-0.000014
H95	H	0.664337	-0.770635	0.058168
H96	H	0.634771	-0.722543	-0.058199
C97	C	0.394628	-0.114211	-0.000024
H98	H	0.364564	-0.025906	-0.000040
H99	H	0.391159	-0.169387	0.058158
H100	H	0.361610	-0.121320	-0.058208
H101	H	0.377148	-0.230269	-0.000027
