data_functionalizedCrystal
_audit_creation_method	'MofGen! by Chris Wilmer'
_symmetry_space_group_name_H-M	'P1'
_symmetry_Int_Tables_number	1
_symmetry_cell_setting	triclinic
loop_
_symmetry_equiv_pos_as_xyz
  x,y,z
_cell_length_a	18.215407
_cell_length_b	16.625546
_cell_length_c	18.215399
_cell_angle_alpha	90.029176
_cell_angle_beta	90.017368
_cell_angle_gamma	90.019912
loop_
_atom_site_label
_atom_site_type_symbol
_atom_site_fract_x
_atom_site_fract_y
_atom_site_fract_z
Zn1	Zn	1.125084	-0.321065	0.416061
Zn2	Zn	1.625084	0.178935	0.916061
Zn3	Zn	1.124998	-0.455905	0.292992
Zn4	Zn	1.624998	0.044095	0.792992
Zn5	Zn	1.002017	-0.321084	0.293014
Zn6	Zn	1.502017	0.178916	0.793014
Zn7	Zn	1.001988	-0.455853	0.416022
Zn8	Zn	1.501988	0.044147	0.916022
O9	O	1.063522	-0.388477	0.354522
O10	O	1.563522	0.111523	0.854522
O11	O	1.228057	-0.338965	0.399743
O12	O	1.728057	0.161035	0.899743
O13	O	1.108660	-0.438051	0.190011
O14	O	1.608660	0.061949	0.690011
O15	O	1.018390	-0.208249	0.309362
O16	O	1.518390	0.291751	0.809362
O17	O	1.227994	-0.438032	0.309325
O18	O	1.727994	0.061968	0.809325
O19	O	1.108807	-0.208235	0.399764
O20	O	1.608807	0.291765	0.899764
O21	O	1.018306	-0.338998	0.190027
O22	O	1.518306	0.161002	0.690027
O23	O	0.899029	-0.338948	0.309324
O24	O	1.399029	0.161052	0.809324
O25	O	1.018341	-0.437943	0.519012
O26	O	1.518341	0.062057	1.019012
O27	O	0.899008	-0.437962	0.399698
O28	O	1.399008	0.062038	0.899698
O29	O	1.108779	-0.338915	0.519040
O30	O	1.608779	0.161085	1.019040
O31	O	1.108632	-0.568731	0.309287
O32	O	1.608632	-0.068731	0.809287
O33	O	1.018257	-0.568693	0.399677
O34	O	1.518257	-0.068693	0.899677
C35	C	0.872315	-0.388452	0.354510
C36	C	1.372315	0.111548	0.854510
C37	C	0.790517	-0.388461	0.354521
C38	C	1.290517	0.111539	0.854521
C39	C	0.602355	-0.336983	0.401677
C40	C	1.102355	0.163017	0.901677
C41	C	0.525496	-0.336990	0.401679
C42	C	1.025496	0.163010	0.901679
C43	C	0.525441	-0.439993	0.307381
C44	C	1.025441	0.060007	0.807381
C45	C	0.602298	-0.439982	0.307376
C46	C	1.102298	0.060018	0.807376
C47	C	0.640753	-0.388478	0.354527
C48	C	1.140753	0.111522	0.854527
C49	C	0.487037	-0.388496	0.354536
C50	C	0.987037	0.111504	0.854536
C51	C	0.403703	-0.388504	0.354538
C52	C	0.903703	0.111496	0.854538
C53	C	0.724092	-0.388469	0.354524
C54	C	1.224092	0.111531	0.854524
C55	C	1.063452	-0.597968	0.354492
C56	C	1.563452	-0.097968	0.854492
C57	C	1.063490	-0.687589	0.354503
C58	C	1.563490	-0.187589	0.854503
C59	C	1.063618	-1.015764	0.354580
C60	C	1.563618	-0.515764	0.854580
C61	C	1.063580	-0.924456	0.354560
C62	C	1.563580	-0.424456	0.854560
C63	C	1.063553	-0.851680	0.354541
C64	C	1.563553	-0.351680	0.854541
C65	C	1.063516	-0.760365	0.354522
C66	C	1.563516	-0.260365	0.854522
C67	C	1.255475	-0.388502	0.354536
C68	C	1.755475	0.111498	0.854536
C69	C	1.337273	-0.388513	0.354541
C70	C	1.837273	0.111487	0.854541
C71	C	1.063567	-0.388421	0.546475
C72	C	1.563567	0.111579	1.046475
C73	C	1.063586	-0.388398	0.628274
C74	C	1.563586	0.111602	1.128274
C75	C	1.063612	-0.178168	0.354569
C76	C	1.563612	0.321832	0.854569
C77	C	1.063650	-0.088547	0.354590
C78	C	1.563650	0.411453	0.854590
C79	C	1.063519	-0.388474	0.163316
C80	C	1.563519	0.111526	0.663316
C81	C	1.063643	-0.388271	0.081518
C82	C	1.563643	0.111729	0.581518
C83	C	1.110694	-0.336785	0.816484
C84	C	1.610694	0.163215	1.316484
C85	C	1.110703	-0.336762	0.893343
C86	C	1.610703	0.163238	1.393343
C87	C	1.016530	-0.439885	0.893302
C88	C	1.516530	0.060115	1.393302
C89	C	1.016518	-0.439904	0.816445
C90	C	1.516518	0.060096	1.316445
C91	C	1.063604	-0.388355	0.778038
C92	C	1.563604	0.111645	1.278038
C93	C	1.063625	-0.388313	0.931754
C94	C	1.563625	0.111687	1.431754
C95	C	1.063634	-0.388288	1.015088
C96	C	1.563634	0.111712	1.515088
C97	C	1.063594	-0.388379	0.694699
C98	C	1.563594	0.111621	1.194699
H99	H	0.494121	-0.481927	0.268993
H100	H	0.994121	0.018073	0.768993
H101	H	1.149033	-0.294809	0.785216
H102	H	1.649033	0.205191	1.285216
C103	C	0.974736	-0.485650	1.011102
C104	C	1.474736	0.014350	1.511102
C105	C	0.964780	-0.496552	0.935522
C106	C	1.464780	0.003448	1.435522
H107	H	0.942791	-0.520640	1.037164
H108	H	1.442791	-0.020640	1.537164
H109	H	0.963987	-0.431478	1.023707
H110	H	1.463987	0.068522	1.523707
H111	H	1.024183	-0.497453	1.023693
H112	H	1.524183	0.002547	1.523693
H113	H	0.915334	-0.484743	0.922930
H114	H	1.415334	0.015257	1.422930
H115	H	0.975524	-0.550737	0.922912
H116	H	1.475524	-0.050737	1.422912
C117	C	0.923436	-0.541848	0.824118
C118	C	1.423436	-0.041848	1.324118
C119	C	0.964755	-0.496598	0.774179
C120	C	1.464755	0.003402	1.274179
H121	H	0.891484	-0.576848	0.798023
H122	H	1.391484	-0.076848	1.298023
H123	H	0.895303	-0.506710	0.854099
H124	H	1.395303	-0.006710	1.354099
H125	H	0.955500	-0.572684	0.854094
H126	H	1.455500	-0.072684	1.354094
H127	H	0.932691	-0.465757	0.744206
H128	H	1.432691	0.034243	1.244206
H129	H	0.992890	-0.531740	0.744186
H130	H	1.492890	-0.031740	1.244186
C131	C	1.203794	-0.234841	0.885658
C132	C	1.703794	0.265159	1.385658
C133	C	1.162469	-0.280078	0.935603
C134	C	1.662469	0.219922	1.435603
H135	H	1.235756	-0.199849	0.911750
H136	H	1.735756	0.300151	1.411750
H137	H	1.171739	-0.204004	0.855685
H138	H	1.671739	0.295996	1.355685
H139	H	1.231922	-0.269993	0.855676
H140	H	1.731922	0.230007	1.355676
H141	H	1.134337	-0.244926	0.965582
H142	H	1.634337	0.255074	1.465582
H143	H	1.194528	-0.310918	0.965589
H144	H	1.694528	0.189082	1.465589
C145	C	0.626068	-0.297869	0.526355
C146	C	1.126068	0.202131	1.026355
C147	C	0.644625	-0.280366	0.453501
C148	C	1.144625	0.219634	0.953501
H149	H	0.652160	-0.262910	0.558347
H150	H	1.152160	0.237090	1.058347
H151	H	0.638661	-0.352050	0.537033
H152	H	1.138661	0.147950	1.037033
H153	H	0.574797	-0.290505	0.533095
H154	H	1.074797	0.209495	1.033095
H155	H	0.695895	-0.287736	0.446759
H156	H	1.195895	0.212264	0.946759
H157	H	0.632036	-0.226172	0.442818
H158	H	1.132036	0.273828	0.942818
C159	C	0.407706	-0.291268	0.443557
C160	C	0.907706	0.208732	0.943557
C161	C	0.483287	-0.280388	0.453509
C162	C	0.983287	0.219612	0.953509
H163	H	0.381650	-0.256318	0.475553
H164	H	0.881650	0.243682	0.975553
H165	H	0.395106	-0.345453	0.454240
H166	H	0.895106	0.154547	0.954240
H167	H	0.395102	-0.279396	0.394128
H168	H	0.895102	0.220604	0.894128
H169	H	0.495892	-0.292266	0.502936
H170	H	0.995892	0.207734	1.002936
H171	H	0.495892	-0.226191	0.442831
H172	H	0.995892	0.273809	0.942831
C173	C	0.594530	-0.541808	0.214168
C174	C	1.094530	-0.041808	0.714168
C175	C	0.644512	-0.496592	0.255547
C176	C	1.144512	0.003408	0.755547
H177	H	0.620592	-0.576756	0.182176
H178	H	1.120592	-0.076756	0.682176
H179	H	0.564550	-0.506646	0.186077
H180	H	1.064550	-0.006646	0.686077
H181	H	0.564557	-0.572698	0.246192
H182	H	1.064557	-0.072698	0.746192
H183	H	0.674481	-0.465697	0.223523
H184	H	1.174481	0.034303	0.723523
H185	H	0.674504	-0.531758	0.283641
H186	H	1.174504	-0.031758	0.783641
