data_functionalizedCrystal
_audit_creation_method	'MofGen! by Chris Wilmer'
_symmetry_space_group_name_H-M	'P1'
_symmetry_Int_Tables_number	1
_symmetry_cell_setting	triclinic
loop_
_symmetry_equiv_pos_as_xyz
  x,y,z
_cell_length_a	17.699083
_cell_length_b	17.699083
_cell_length_c	16.776229
_cell_angle_alpha	89.992455
_cell_angle_beta	89.998886
_cell_angle_gamma	83.283015
loop_
_atom_site_label
_atom_site_type_symbol
_atom_site_fract_x
_atom_site_fract_y
_atom_site_fract_z
O1	O	1.004078	0.095713	-0.066178
O2	O	0.783700	0.108165	-0.066204
O3	O	0.900116	-0.008250	-0.066183
O4	O	0.887663	0.212128	-0.066199
O5	O	0.900100	-0.008257	0.066393
O6	O	0.783685	0.108158	0.066372
O7	O	1.004063	0.095706	0.066398
Zn8	Zn	0.893871	0.101931	0.087435
Zn9	Zn	0.893892	0.101940	-0.087241
O10	O	0.887648	0.212121	0.066378
C11	C	0.755495	0.107716	0.000081
C12	C	0.671477	0.106377	0.000071
C13	C	0.899662	-0.036451	0.000105
C14	C	0.898323	-0.120469	0.000105
C15	C	0.622856	0.174710	0.000066
C16	C	0.543913	0.173448	0.000077
C17	C	0.513592	0.103852	0.000086
C18	C	0.562219	0.035513	0.000093
C19	C	0.641161	0.036776	0.000088
C20	C	0.243856	0.030418	0.000113
C21	C	0.164908	0.029160	0.000115
C22	C	0.146608	0.167090	0.000101
C23	C	0.225550	0.168353	0.000097
C24	C	0.274170	0.100015	0.000108
C25	C	0.359769	0.101384	0.000098
C26	C	0.427995	0.102481	0.000090
C27	C	0.966656	-0.169090	0.000114
C28	C	0.965394	-0.248033	0.000107
C29	C	0.895798	-0.278354	0.000096
C30	C	0.827459	-0.229727	0.000085
C31	C	0.828722	-0.150785	0.000086
C32	C	0.822364	-0.548090	0.000078
C33	C	0.821106	-0.627038	0.000078
C34	C	0.959036	-0.645338	0.000099
C35	C	0.960299	-0.566396	0.000100
C36	C	0.891961	-0.517776	0.000084
C37	C	0.893330	-0.432177	0.000090
C38	C	0.894427	-0.363951	0.000096
C39	C	1.032268	0.096156	0.000112
C40	C	1.116286	0.097494	0.000116
C41	C	0.888102	0.240322	0.000087
C42	C	0.889440	0.324340	0.000082
N43	N	0.893863	0.101924	0.206646
N44	N	0.893906	0.101941	-0.206452
C45	C	0.945428	0.050396	0.248372
C46	C	0.945432	0.050396	0.331824
C47	C	0.893875	0.101927	0.373549
C48	C	0.842305	0.153457	0.331817
C49	C	0.842297	0.153454	0.248366
C50	C	0.842332	0.153472	0.668364
C51	C	0.842345	0.153473	0.751820
C52	C	0.945466	0.050414	0.751822
C53	C	0.945459	0.050411	0.668372
C54	C	0.893887	0.101938	0.626647
C55	C	0.893882	0.101937	0.536158
C56	C	0.893882	0.101932	0.464036
H57	H	0.504328	0.229092	0.000072
N58	N	0.746040	-0.659748	0.000057
H59	H	0.742435	-0.692097	0.049203
H60	H	0.702981	-0.616930	0.000014
H61	H	0.537526	-0.021154	0.000112
H62	H	0.987419	0.008438	0.365798
H63	H	0.987444	0.008452	0.634402
N64	N	0.752393	-0.262425	0.000068
H65	H	0.761960	-0.319812	0.000071
H66	H	0.722491	-0.244634	0.049211
N67	N	0.258253	0.243417	0.000076
H68	H	0.215472	0.286516	0.000074
H69	H	0.290612	0.246945	0.049220
H70	H	0.800322	0.195412	0.365793
N71	N	1.001041	-0.005180	0.203372
H72	H	1.033706	-0.037823	0.242472
H73	H	0.972128	-0.038606	0.168757
H74	H	0.800308	0.195412	0.214393
H75	H	1.016971	-0.541714	0.000113
H76	H	0.647537	0.231384	0.000058
N77	N	1.001092	-0.005165	0.796825
H78	H	0.993275	0.002652	0.856022
H79	H	0.992454	-0.058849	0.782247
N80	N	0.748658	-0.495658	0.000064
H81	H	0.760013	-0.441047	0.000060
H82	H	0.718333	-0.505462	-0.049090
N83	N	1.041724	-0.136393	0.000131
H84	H	1.045331	-0.104039	-0.049011
H85	H	1.045269	-0.104095	0.049313
H86	H	0.107012	0.222734	0.000097
H87	H	0.140225	-0.027517	0.000124
H88	H	0.800358	0.195437	0.785791
H89	H	0.283434	-0.025228	0.000123
N90	N	0.755020	-0.098340	0.000071
H91	H	0.710739	-0.129525	0.000065
H92	H	0.752532	-0.065191	0.049218
N93	N	0.786707	0.209041	0.623366
H94	H	0.754049	0.241685	0.662464
H95	H	0.815606	0.242467	0.588727
H96	H	1.021038	-0.287618	0.000116
N97	N	0.693601	-0.036929	0.000097
H98	H	0.683866	-0.067300	-0.049045
H99	H	0.748190	-0.025508	0.000127
N100	N	1.032747	-0.697778	0.000116
H101	H	1.021391	-0.752389	0.000111
H102	H	1.063094	-0.687969	-0.049025
