data_functionalizedCrystal
_audit_creation_method	'MofGen! by Chris Wilmer'
_symmetry_space_group_name_H-M	'P1'
_symmetry_Int_Tables_number	1
_symmetry_cell_setting	triclinic
loop_
_symmetry_equiv_pos_as_xyz
  x,y,z
_cell_length_a	6.817900
_cell_length_b	23.752963
_cell_length_c	11.102182
_cell_angle_alpha	95.116904
_cell_angle_beta	108.603774
_cell_angle_gamma	100.066732
loop_
_atom_site_label
_atom_site_type_symbol
_atom_site_fract_x
_atom_site_fract_y
_atom_site_fract_z
V1	V	-4.068749	-0.079168	-0.397004
O2	O	-4.072598	0.003798	-0.388679
O3	O	-4.003498	-0.156971	-0.395026
O4	O	-4.046179	-0.077953	-0.569814
O5	O	-4.029622	-0.075767	-0.212681
V6	V	-4.551213	-0.069244	-0.374868
O7	O	-4.332329	-0.100937	-0.445561
O8	O	-4.737830	-0.047475	-0.326310
O9	O	-4.393257	0.008559	-0.376845
O10	O	-4.664760	-0.152211	-0.383192
O11	O	-4.707736	-0.072645	-0.559190
O12	O	-4.350576	-0.070459	-0.202057
C13	C	-3.843564	-0.175938	-0.388954
C14	C	-3.871673	-0.239543	-0.388489
C15	C	-3.898006	-0.075142	-0.611911
C16	C	-3.960725	-0.074663	-0.753189
C17	C	-4.022058	-0.126831	-0.838216
C18	C	-4.081008	-0.126375	-0.970960
C19	C	-4.017276	-0.021576	-0.933636
C20	C	-3.958342	-0.022034	-0.800896
C21	C	-4.024441	-0.179461	-0.790510
C22	C	-4.085775	-0.231633	-0.875538
C23	C	-4.144725	-0.231177	-1.008282
C24	C	-4.142342	-0.178547	-1.055998
C25	C	-3.990366	-0.625783	-0.269008
C26	C	-4.016798	-0.685546	-0.268554
O27	O	-3.983125	-0.709506	-0.169277
N28	N	-4.085759	-0.723608	-0.384791
C29	C	-4.128310	-0.701904	-0.501492
O30	O	-4.189395	-0.739767	-0.600319
C31	C	-4.101892	-0.642143	-0.501945
C32	C	-4.032909	-0.604083	-0.385699
C33	C	-3.921390	-0.587724	-0.152771
C34	C	-3.894956	-0.527965	-0.153226
C35	C	-3.937498	-0.506265	-0.269917
C36	C	-4.006475	-0.544324	-0.386153
C37	C	-4.144457	-0.620441	-0.618645
C38	C	-4.118034	-0.560674	-0.619088
C39	C	-4.049051	-0.522615	-0.502842
C40	C	-4.022583	-0.462866	-0.503299
N41	N	-3.953623	-0.424804	-0.387061
C42	C	-3.911081	-0.446504	-0.270370
C43	C	-4.183789	-0.827407	-0.500531
C44	C	-4.210192	-0.887168	-0.500078
C45	C	-4.098683	-0.870805	-0.267140
C46	C	-4.072265	-0.811043	-0.267593
C47	C	-4.114828	-0.789345	-0.384293
C48	C	-3.855570	-0.321006	-0.271334
C49	C	-3.829130	-0.261243	-0.271798
C50	C	-3.940652	-0.277611	-0.504736
C51	C	-3.967079	-0.337369	-0.504272
C52	C	-3.924539	-0.359065	-0.387561
O53	O	-4.056224	-0.438864	-0.602525
O54	O	-3.850027	-0.408636	-0.171560
C55	C	-4.216532	0.027523	-0.382914
C56	C	-4.167662	0.091127	-0.383387
C57	C	-4.162090	-0.073273	-0.159953
C58	C	-4.078610	-0.073748	-0.018674
H59	H	-4.087725	-0.274483	-0.836680
C60	C	-4.211158	-0.287878	-1.100389
C61	C	-4.200577	-0.334062	-1.030190
C62	C	-4.261722	-0.386305	-1.114992
H63	H	-4.352228	-0.291789	-1.157133
H64	H	-4.118704	-0.288079	-1.148778
H65	H	-4.293029	-0.333861	-0.981824
H66	H	-4.059525	-0.330170	-0.973451
H67	H	-4.169268	-0.386506	-1.163380
H68	H	-4.402790	-0.390210	-1.171730
H69	H	-4.254533	-0.417646	-1.067373
H70	H	-4.023217	-0.368359	-0.598928
C71	C	-4.206331	-0.178169	-1.200161
C72	C	-4.260522	-0.235121	-1.264416
C73	C	-4.319445	-0.234795	-1.397215
H74	H	-4.324687	-0.160578	-1.227617
H75	H	-4.091157	-0.156913	-1.219205
H76	H	-4.375686	-0.256369	-1.245382
H77	H	-4.142197	-0.252722	-1.237000
H78	H	-4.204270	-0.213539	-1.416259
H79	H	-4.437795	-0.217202	-1.424657
H80	H	-4.356201	-0.273435	-1.440828
H81	H	-4.015340	0.021273	-0.972498
C82	C	-3.820011	-0.486553	-0.027145
C83	C	-3.805916	-0.429567	-0.052490
C84	C	-3.736867	-0.391407	0.063631
H85	H	-3.918051	-0.494777	0.016792
H86	H	-3.684659	-0.491093	0.024875
H87	H	-3.941248	-0.425029	-0.104489
H88	H	-3.707868	-0.421325	-0.096409
H89	H	-3.601516	-0.395947	0.115651
H90	H	-3.834916	-0.399636	0.107559
H91	H	-3.727276	-0.352737	0.046451
H92	H	-3.908400	0.020447	-0.731664
C93	C	-3.754328	-0.220017	-0.145450
C94	C	-3.722795	-0.251818	-0.043166
C95	C	-3.653924	-0.213864	0.073238
H96	H	-3.624928	-0.194489	-0.136521
H97	H	-3.858430	-0.198232	-0.144793
H98	H	-3.618699	-0.273594	-0.043822
H99	H	-3.852166	-0.277344	-0.052052
H100	H	-3.758027	-0.192079	0.073895
H101	H	-3.524530	-0.188338	0.082153
H102	H	-3.632539	-0.235436	0.142650
H103	H	-3.820926	-0.338663	-0.176296
C104	C	-3.874969	-0.611162	-0.025927
C105	C	-3.808862	-0.565029	0.075755
C106	C	-3.766030	-0.586592	0.192631
H107	H	-3.999536	-0.635985	-0.024780
H108	H	-3.766150	-0.632253	-0.016759
H109	H	-3.917672	-0.543948	0.066589
H110	H	-3.684283	-0.540202	0.074649
H111	H	-3.657211	-0.607682	0.201800
H112	H	-3.890604	-0.611415	0.193766
H113	H	-3.721153	-0.555294	0.261637
H114	H	-4.016092	-0.780058	-0.172935
H115	H	-4.200628	-0.651419	-0.713305
H116	H	-4.218445	-0.809746	-0.595567
C117	C	-4.052082	-0.894337	-0.140394
C118	C	-3.839820	-0.872143	-0.064219
C119	C	-3.796818	-0.893818	0.052529
H120	H	-4.141364	-0.883058	-0.096535
H121	H	-4.077582	-0.935380	-0.156735
H122	H	-3.814340	-0.831109	-0.047875
H123	H	-3.750492	-0.883420	-0.108038
H124	H	-3.822318	-0.934860	0.036189
H125	H	-3.886112	-0.882537	0.096377
H126	H	-3.652791	-0.878766	0.104224
H127	H	-4.266330	-0.918151	-0.594737
H128	H	-4.152720	-0.543012	-0.714122
H129	H	-3.976438	-0.179839	-0.682425
H130	H	-3.975275	-0.259932	-0.599743
