data_functionalizedCrystal
_audit_creation_method	'MofGen! by Chris Wilmer'
_symmetry_space_group_name_H-M	'P1'
_symmetry_Int_Tables_number	1
_symmetry_cell_setting	triclinic
loop_
_symmetry_equiv_pos_as_xyz
  x,y,z
_cell_length_a	19.902436
_cell_length_b	19.377369
_cell_length_c	19.377372
_cell_angle_alpha	62.058157
_cell_angle_beta	89.995401
_cell_angle_gamma	48.638491
loop_
_atom_site_label
_atom_site_type_symbol
_atom_site_fract_x
_atom_site_fract_y
_atom_site_fract_z
Zr1	Zr	0.526322	0.759546	0.055744
O2	O	0.370486	0.943943	-0.042163
O3	O	0.586787	0.607751	0.064398
O4	O	0.528954	0.806579	-0.072981
O5	O	0.459501	0.696646	0.227879
O6	O	0.639516	0.806593	-0.072993
O7	O	0.428320	0.745115	0.095216
O8	O	0.742970	0.450926	0.172752
O9	O	0.356047	1.052313	-0.017866
O10	O	0.679751	0.658122	0.093885
O11	O	0.620509	0.621940	0.192900
O12	O	0.552418	0.856034	0.031155
O13	O	0.493176	0.819851	0.130169
Zr14	Zr	0.752387	0.682267	0.267307
Zr15	Zr	0.702657	0.759569	0.055724
Zr16	Zr	0.576052	0.682243	0.267327
Zr17	Zr	0.503293	0.932383	0.094495
Zr18	Zr	0.775415	0.509429	0.228556
O19	O	0.691921	0.834062	0.258653
O20	O	0.621212	0.943976	-0.042191
O21	O	0.441196	0.834028	0.258681
O22	O	0.908222	0.497870	0.365213
O23	O	0.837513	0.607784	0.064369
O24	O	0.657497	0.497836	0.365242
O25	O	0.819208	0.745167	0.095171
O26	O	0.749755	0.635234	0.396031
O27	O	0.639192	0.635219	0.396044
O28	O	0.850389	0.696698	0.227835
O29	O	0.496210	1.052331	-0.017882
O30	O	0.782499	0.389481	0.340932
O31	O	0.922661	0.389500	0.340916
O32	O	0.883133	0.450945	0.172736
O33	O	0.395576	0.990867	0.150315
O34	O	0.535738	0.990886	0.150299
O35	O	0.726291	0.585779	0.291896
O36	O	0.785533	0.621962	0.192881
O37	O	0.658199	0.819873	0.130150
O38	O	0.598958	0.783690	0.229165
C39	C	0.668160	0.504713	0.113053
C40	C	0.677936	0.431339	0.096603
C41	C	0.555887	0.095174	0.301201
C42	C	0.565202	0.026112	0.285814
C43	C	0.627046	0.063893	0.182450
C44	C	0.617740	0.132956	0.197832
C45	C	0.582159	0.148591	0.257208
C46	C	0.644013	0.186373	0.153839
C47	C	0.634703	0.255434	0.169216
C48	C	0.599120	0.271079	0.228587
C49	C	0.572849	0.217653	0.272586
C50	C	0.679587	0.170743	0.094458
C51	C	0.705860	0.224160	0.050465
C52	C	0.696556	0.293216	0.065847
C53	C	0.660974	0.308860	0.125218
C54	C	0.722828	0.346642	0.021849
C55	C	0.713517	0.415704	0.037227
C56	C	0.651664	0.377922	0.140596
C57	C	0.418786	0.720877	0.161550
C58	C	0.343927	0.720867	0.161559
C59	C	0.206840	0.720894	0.161536
C60	C	0.258641	0.596057	0.201104
C61	C	0.180729	0.596122	0.200808
C62	C	0.071869	0.720919	0.161515
C63	C	0.042075	0.811191	0.065338
C64	C	0.120487	0.810387	0.065543
C65	C	0.155211	0.756516	0.217439
C66	C	0.079040	0.753829	0.219172
C67	C	-0.004416	0.720940	0.161498
C68	C	0.283121	0.720878	0.161546
C69	C	0.859922	0.720936	0.161500
C70	C	0.934781	0.720946	0.161491
C71	C	0.577150	0.817600	-0.103133
C72	C	0.556038	0.850417	-0.192956
C73	C	0.610549	0.937099	0.209997
C74	C	0.600772	1.010473	0.226448
C75	C	0.818908	0.441822	-0.324651
C76	C	0.799049	0.472685	-0.409062
C77	C	0.666123	0.679290	-0.474538
C78	C	0.685974	0.648443	-0.390132
C79	C	0.762367	0.529707	-0.315193
C80	C	0.629433	0.736329	-0.380674
C81	C	0.649280	0.705484	-0.296274
C82	C	0.725667	0.586754	-0.221333
C83	C	0.782214	0.498863	-0.230794
C84	C	0.553036	0.855064	-0.455613
C85	C	0.496495	0.942950	-0.446156
C86	C	0.516345	0.912106	-0.361755
C87	C	0.592733	0.793376	-0.286813
C88	C	0.459799	0.999997	-0.352294
C89	C	0.479645	0.969153	-0.267894
C90	C	0.612579	0.762531	-0.202414
C91	C	0.701559	0.624212	0.426184
C92	C	0.722671	0.591395	0.516006
C93	C	0.888728	0.504742	0.113028
C94	C	0.973363	0.431378	0.096569
C95	C	0.730364	0.408019	0.377712
C96	C	0.761252	0.301828	0.451084
C97	C	0.950932	0.408049	0.377687
C98	C	1.056679	0.301868	0.451050
C99	C	0.327776	1.033764	-0.054636
C100	C	0.222029	1.139945	-0.127999
C101	C	0.389981	0.937070	0.210022
C102	C	0.305346	1.010434	0.226482
C103	C	0.548344	1.033793	-0.054661
C104	C	0.517456	1.139984	-0.128033
C105	C	0.957889	0.415805	0.037155
C106	C	1.037400	0.346888	0.021672
C107	C	1.132386	0.293539	0.065608
C108	C	1.147858	0.309119	0.125025
C109	C	1.068345	0.378042	0.140502
C110	C	0.830977	0.233081	0.537224
C111	C	0.859997	0.133310	0.606174
C112	C	0.819297	0.102284	0.588982
C113	C	0.749564	0.171041	0.502834
C114	C	0.720539	0.270815	0.433886
C115	C	1.137270	0.270891	0.433817
C116	C	1.236634	0.171135	0.502744
C117	C	1.255405	0.102353	0.588901
C118	C	1.174805	0.133337	0.606133
C119	C	1.075443	0.233096	0.537209
C120	C	0.141437	1.170930	-0.110765
C121	C	0.042071	1.270707	-0.179687
C122	C	0.023299	1.339493	-0.265843
C123	C	0.103900	1.308504	-0.283076
C124	C	0.203264	1.208734	-0.214154
C125	C	0.320816	1.026018	0.285888
C126	C	0.241297	1.094962	0.301352
C127	C	0.146310	1.148314	0.257414
C128	C	0.130840	1.132730	0.198000
C129	C	0.210356	1.063794	0.182533
C130	C	0.558175	1.170977	-0.110814
C131	C	0.529172	1.270743	-0.179749
C132	C	0.459444	1.339519	-0.265900
C133	C	0.418725	1.308518	-0.283119
C134	C	0.447734	1.208749	-0.214186
H135	H	0.591536	0.327319	0.241103
H136	H	0.434294	1.039624	-0.507180
H137	H	0.614950	1.114992	-0.040670
H138	H	0.435831	1.420754	-0.322022
H139	H	1.080960	0.390709	0.188886
H140	H	0.079667	0.903156	0.033343
H141	H	0.842939	0.021039	0.645132
H142	H	-0.036142	0.904003	0.033596
H143	H	0.036673	0.789266	0.021814
H144	H	0.543876	0.230382	0.320936
H145	H	1.197122	0.237420	0.052998
H146	H	1.302251	0.145921	0.488697
H147	H	0.153358	0.787535	0.022091
H148	H	0.088602	1.364522	-0.353233
H149	H	0.880550	0.459247	0.001364
H150	H	0.536879	0.880173	-0.524335
H151	H	0.414568	1.183528	-0.228218
H152	H	0.268880	1.183510	-0.228198
H153	H	1.122004	0.326882	0.363668
H154	H	0.716432	0.145764	0.488848
H155	H	1.225205	0.265674	0.160793
H156	H	0.197748	1.051108	0.134161
H157	H	0.663768	0.326780	0.363748
H158	H	0.398154	0.982579	0.321676
H159	H	1.336318	0.021126	0.645016
H160	H	1.190105	0.077320	0.676292
H161	H	0.214354	0.695110	0.288131
H162	H	0.103100	0.687700	0.290116
H163	H	1.009829	0.258303	0.551251
H164	H	0.156704	1.114929	-0.040618
H165	H	0.321942	0.526767	0.271512
H166	H	0.053492	1.176179	0.162230
H167	H	-0.023545	1.295919	-0.165638
H168	H	0.002119	0.843170	0.195130
H169	H	-0.057615	1.420730	-0.321956
H170	H	0.253913	1.107636	0.349733
H171	H	0.562334	1.295969	-0.165712
H172	H	0.081572	1.204444	0.270017
H173	H	0.864126	0.258328	0.551239
H174	H	1.024785	0.334213	-0.026708
H175	H	0.114660	0.848210	0.189028
H176	H	0.361950	1.364530	-0.353272
H177	H	0.526913	0.107904	0.349552
H178	H	0.622690	0.390652	0.188946
H179	H	0.397594	1.096671	-0.413319
H180	H	0.543802	-0.017378	0.321640
H181	H	0.916779	0.077337	0.676314
H182	H	0.656013	0.051158	0.134103
H183	H	0.687159	0.114514	0.081935
H184	H	0.751789	0.333911	-0.026502
H185	H	0.734910	0.459199	0.001402
H186	H	0.205938	0.527213	0.271072
H187	H	0.296562	0.567542	0.161765
H188	H	0.734826	0.211425	0.002118
H189	H	0.674790	0.665845	-0.141393
H190	H	0.180466	0.567567	0.161142
H191	H	0.741819	0.561643	-0.152611
H192	H	0.844425	0.402176	-0.169773
H193	H	0.881120	0.345135	-0.263631
H194	H	0.603922	0.775964	-0.535563
H195	H	0.845095	0.401109	-0.416754
H196	H	0.433600	1.040718	-0.260196
