data_functionalizedCrystal
_audit_creation_method	'MofGen! by Chris Wilmer'
_symmetry_space_group_name_H-M	'P1'
_symmetry_Int_Tables_number	1
_symmetry_cell_setting	triclinic
loop_
_symmetry_equiv_pos_as_xyz
  x,y,z
_cell_length_a	10.967874
_cell_length_b	10.489741
_cell_length_c	9.482900
_cell_angle_alpha	99.430409
_cell_angle_beta	68.707142
_cell_angle_gamma	84.625916
loop_
_atom_site_label
_atom_site_type_symbol
_atom_site_fract_x
_atom_site_fract_y
_atom_site_fract_z
O1	O	1.746329	0.087452	-0.558387
O2	O	1.368078	0.120097	-0.463630
O3	O	1.565809	-0.082180	-0.513155
O4	O	1.548598	0.289729	-0.508861
O5	O	1.525647	-0.040934	-0.261303
O6	O	1.327915	0.161343	-0.211778
O7	O	1.706167	0.128699	-0.306535
Cu8	Cu	1.513374	0.148787	-0.236160
Cu9	Cu	1.560870	0.100008	-0.534004
O10	O	1.508436	0.330976	-0.257009
C11	C	1.299561	0.141461	-0.325570
C12	C	1.155240	0.143654	-0.289415
C13	C	1.111702	0.123265	-0.403763
C14	C	0.962539	0.125531	-0.366398
C15	C	1.544428	-0.109035	-0.386905
C16	C	1.540538	-0.250503	-0.385933
C17	C	1.414729	-0.313405	-0.354426
C18	C	1.454359	-0.387666	-0.245139
C19	C	1.493985	-0.428308	-0.493453
C20	C	1.580204	-0.322883	-0.276556
C21	C	1.619831	-0.363533	-0.524977
C22	C	1.659547	-0.437765	-0.415682
C23	C	1.774684	0.107334	-0.444598
C24	C	1.919007	0.105139	-0.480763
C25	C	1.529817	0.357830	-0.383263
C26	C	1.533708	0.499296	-0.384245
N27	N	1.479977	0.183094	-0.026675
N28	N	1.594278	0.065690	-0.743492
C29	C	1.551011	0.110121	0.027732
C30	C	1.523233	0.138675	0.202107
H31	H	0.992156	0.086012	-0.606331
O32	O	1.691430	-0.034019	0.158085
C33	C	1.814399	-0.011664	0.164095
H34	H	1.796796	0.056130	0.279099
H35	H	1.869449	0.035880	0.064643
C36	C	1.919759	-0.226316	0.008402
C37	C	1.898139	-0.143058	0.149658
H38	H	1.971417	-0.307365	-0.000510
H39	H	1.836914	-0.241376	0.004348
H40	H	1.965629	-0.186680	-0.074459
H41	H	1.852256	-0.182688	0.232516
H42	H	1.980978	-0.128008	0.153726
O43	O	1.623508	-0.268327	-0.166874
C44	C	1.536614	-0.280676	-0.019765
H45	H	1.481224	-0.365522	-0.033666
H46	H	1.462276	-0.186046	0.039965
C47	C	1.684970	-0.203176	0.096098
C48	C	1.616947	-0.307392	0.079024
H49	H	1.734521	-0.219649	0.157040
H50	H	1.743510	-0.194850	-0.003011
H51	H	1.623009	-0.124326	0.145867
H52	H	1.678909	-0.386236	0.029239
H53	H	1.558419	-0.315731	0.178128
H54	H	1.398593	0.266705	0.055839
H55	H	1.082083	0.162795	-0.163856
O56	O	1.291209	-0.249193	-0.323281
C57	C	1.200776	-0.338265	-0.299282
H58	H	1.241797	-0.425768	-0.263183
H59	H	1.185675	-0.373425	-0.411152
C60	C	1.016597	-0.162397	-0.215051
C61	C	1.066975	-0.269863	-0.170701
H62	H	0.934060	-0.120203	-0.135741
H63	H	1.077523	-0.102386	-0.231225
H64	H	1.004024	-0.191712	-0.308277
H65	H	1.079563	-0.240545	-0.077487
H66	H	1.006047	-0.329867	-0.154508
O67	O	1.198887	0.100666	-0.553575
C68	C	1.165462	0.198307	-0.625451
H69	H	1.105721	0.289490	-0.533421
H70	H	1.103616	0.160401	-0.692261
C71	C	1.366569	0.121008	-0.851065
C72	C	1.293203	0.233004	-0.738032
H73	H	1.445364	0.142407	-0.920516
H74	H	1.389086	0.055222	-0.802644
H75	H	1.315016	0.089430	-0.906723
H76	H	1.344750	0.264569	-0.682364
H77	H	1.270697	0.298796	-0.786446
O78	O	0.875302	0.148591	-0.216563
C79	C	0.881354	0.272602	-0.137830
H80	H	0.921956	0.336363	-0.225067
H81	H	0.949393	0.260384	-0.072574
C82	C	0.691338	0.260126	0.085010
C83	C	0.741197	0.338443	-0.022135
H84	H	0.604885	0.300739	0.156382
H85	H	0.687263	0.176576	0.031970
H86	H	0.748050	0.249951	0.139374
H87	H	0.684495	0.348604	-0.076510
H88	H	0.745259	0.421997	0.030899
H89	H	1.384384	-0.399268	-0.126821
O90	O	1.783026	-0.501771	-0.446285
C91	C	1.827957	-0.447331	-0.331701
H92	H	1.739115	-0.396720	-0.221988
H93	H	1.893772	-0.372771	-0.375491
C94	C	2.017261	-0.619113	-0.430334
C95	C	1.908143	-0.556961	-0.295578
H96	H	2.066728	-0.686735	-0.408055
H97	H	1.986993	-0.655788	-0.507536
H98	H	2.072091	-0.556966	-0.466812
H99	H	1.853307	-0.619103	-0.259113
H100	H	1.938403	-0.520298	-0.218369
H101	H	1.632385	0.026501	-0.054778
H102	H	1.441844	0.222291	0.284617
O103	O	1.450253	-0.482946	-0.602697
C104	C	1.321123	-0.418825	-0.569870
H105	H	1.304138	-0.316546	-0.495818
H106	H	1.245340	-0.477378	-0.504358
C107	C	1.326242	-0.533471	-0.813488
C108	C	1.305386	-0.407845	-0.722548
H109	H	1.316531	-0.526702	-0.907665
H110	H	1.413238	-0.576675	-0.835603
H111	H	1.263087	-0.582252	-0.758877
H112	H	1.368551	-0.359072	-0.777150
H113	H	1.218400	-0.364633	-0.700445
H114	H	1.689761	-0.351898	-0.643289
