data_functionalizedCrystal
_audit_creation_method	'MofGen! by Chris Wilmer'
_symmetry_space_group_name_H-M	'P1'
_symmetry_Int_Tables_number	1
_symmetry_cell_setting	triclinic
loop_
_symmetry_equiv_pos_as_xyz
  x,y,z
_cell_length_a	19.288840
_cell_length_b	15.995292
_cell_length_c	18.366186
_cell_angle_alpha	89.996953
_cell_angle_beta	89.983729
_cell_angle_gamma	83.297316
loop_
_atom_site_label
_atom_site_type_symbol
_atom_site_fract_x
_atom_site_fract_y
_atom_site_fract_z
O1	O	0.921617	0.104354	-0.060666
O2	O	0.719388	0.118467	-0.060640
O3	O	0.826051	-0.010502	-0.060655
O4	O	0.814953	0.233323	-0.060651
O5	O	0.826033	-0.010508	0.060444
O6	O	0.719370	0.118461	0.060459
O7	O	0.921599	0.104348	0.060433
Zn8	Zn	0.820481	0.111403	0.079673
Zn9	Zn	0.820505	0.111412	-0.079880
O10	O	0.814935	0.233317	0.060448
C11	C	0.693501	0.118013	-0.000087
C12	C	0.616393	0.116661	-0.000078
C13	C	0.580198	0.116014	-0.066091
C14	C	0.507748	0.114734	-0.066100
C15	C	0.471498	0.114083	-0.000092
C16	C	0.507701	0.114735	0.065930
C17	C	0.580149	0.116023	0.065937
C18	C	0.362039	0.062995	0.050469
C19	C	0.289593	0.061701	0.050459
C20	C	0.248044	0.110112	-0.000111
C21	C	0.278952	0.159807	-0.050683
C22	C	0.351400	0.161096	-0.050676
C23	C	0.392940	0.112686	-0.000092
C24	C	0.133290	0.108079	-0.066138
C25	C	0.060839	0.106804	-0.066144
C26	C	0.060794	0.106796	0.065887
C27	C	0.133244	0.108079	0.065892
C28	C	0.169488	0.108717	-0.000123
C29	C	0.825591	-0.041699	-0.000107
C30	C	0.824236	-0.134646	-0.000112
C31	C	0.819258	-0.472366	-0.000105
C32	C	0.896245	-0.449352	0.000155
C33	C	0.897708	-0.352682	-0.000120
C34	C	0.821728	-0.304819	-0.000108
C35	C	0.783249	-0.333767	-0.069255
C36	C	0.782322	-0.430554	-0.069310
C37	C	0.780729	-0.430412	0.068403
C38	C	0.783582	-0.333931	0.069314
C39	C	0.823120	-0.210129	-0.000113
C40	C	0.817864	-0.567056	-0.000106
C41	C	0.947485	0.104802	-0.000121
C42	C	1.024593	0.106155	-0.000136
C43	C	0.815396	0.264514	-0.000102
C44	C	0.816750	0.357462	-0.000101
N45	N	0.820470	0.111397	0.188564
N46	N	0.820522	0.111411	-0.188772
C47	C	0.867716	0.054318	0.226658
C48	C	0.867720	0.054314	0.302886
C49	C	0.820485	0.111404	0.341017
C50	C	0.773230	0.168488	0.302914
C51	C	0.773223	0.168484	0.226688
C52	C	0.811372	0.187698	0.461779
C53	C	0.811384	0.187703	0.538004
C54	C	0.820505	0.111415	0.576125
C55	C	0.829628	0.035119	0.538011
C56	C	0.829620	0.035115	0.461784
C57	C	0.820488	0.111414	0.423672
C58	C	0.867759	0.054326	0.696873
C59	C	0.867758	0.054322	0.773103
C60	C	0.773271	0.168503	0.773129
C61	C	0.773269	0.168500	0.696901
C62	C	0.820516	0.111413	0.658778
H63	H	0.609618	0.116550	0.119695
C64	C	0.707717	-0.290417	-0.072723
N65	N	0.650828	-0.257762	-0.075334
H66	H	0.734748	0.214966	0.195671
C67	C	0.708658	-0.289104	0.074967
N68	N	0.652221	-0.255342	0.079219
C69	C	0.706067	-0.449918	-0.073552
N70	N	0.648633	-0.464499	-0.076754
C71	C	0.620062	0.116714	-0.138709
N72	N	0.650090	0.117239	-0.193406
C73	C	0.173160	0.108795	-0.138755
N74	N	0.203187	0.109338	-0.193451
C75	C	0.704177	-0.449029	0.069052
N76	N	0.646521	-0.463060	0.069538
H77	H	0.245124	0.199232	-0.091859
H78	H	0.925762	-0.478482	-0.049162
C79	C	0.919704	-0.008472	0.344798
N80	N	0.958861	-0.055759	0.376363
H81	H	0.809985	-0.313808	-0.120722
H82	H	0.734799	0.214983	0.665883
C83	C	0.938422	-0.327139	0.066841
N84	N	0.969092	-0.307906	0.117276
C85	C	0.721269	0.231284	0.344860
N86	N	0.682127	0.278580	0.376453
C87	C	0.813303	-0.468712	0.139208
N88	N	0.837846	-0.497560	0.192535
C89	C	0.839646	-0.048809	0.419862
N90	N	0.847193	-0.112022	0.388286
C91	C	0.938679	-0.327970	-0.067213
N92	N	0.969538	-0.309357	-0.117751
C93	C	0.818355	-0.466922	-0.139144
N94	N	0.845499	-0.494310	-0.191743
C95	C	0.936328	-0.487339	0.067144
N96	N	0.966519	-0.515958	0.117602
H97	H	0.811601	-0.315477	0.120468
C98	C	0.919683	-0.008488	0.184727
N99	N	0.958823	-0.055797	0.153143
C100	C	0.801342	0.271629	0.579922
N101	N	0.793774	0.334845	0.611493
C102	C	0.839660	-0.048806	0.579937
N103	N	0.847216	-0.112015	0.611520
C104	C	0.919725	-0.008478	0.654935
N105	N	0.958865	-0.055784	0.623349
H106	H	0.803933	0.249825	0.430748
C107	C	0.721312	0.231304	0.815069
N108	N	0.682175	0.278606	0.846662
C109	C	0.467926	0.114017	-0.138722
N110	N	0.437934	0.113475	-0.193422
C111	C	0.385390	0.215803	-0.106272
N112	N	0.410990	0.257027	-0.148135
C113	C	0.919724	-0.008488	0.815006
N114	N	0.958862	-0.055801	0.846568
H115	H	0.395862	0.023570	0.091652
H116	H	0.031369	0.106283	-0.119903
H117	H	0.162715	0.108600	0.119647
C118	C	0.020923	0.106081	0.138497
N119	N	-0.009112	0.105545	0.193189
C120	C	0.467825	0.114017	0.138539
N121	N	0.437789	0.113479	0.193230
C122	C	0.255601	0.007044	0.106094
N123	N	0.229999	-0.034121	0.148004
