data_functionalizedCrystal
_audit_creation_method	'MofGen! by Chris Wilmer'
_symmetry_space_group_name_H-M	'P1'
_symmetry_Int_Tables_number	1
_symmetry_cell_setting	triclinic
loop_
_symmetry_equiv_pos_as_xyz
  x,y,z
_cell_length_a	21.295417
_cell_length_b	12.759401
_cell_length_c	12.759393
_cell_angle_alpha	90.020566
_cell_angle_beta	89.961905
_cell_angle_gamma	89.971285
loop_
_atom_site_label
_atom_site_type_symbol
_atom_site_fract_x
_atom_site_fract_y
_atom_site_fract_z
Zn1	Zn	-0.250609	-1.606151	-0.593954
Zn2	Zn	-0.355891	-1.605994	-0.418251
Zn3	Zn	-0.250636	-1.430450	-0.418290
Zn4	Zn	-0.355841	-1.430393	-0.593889
O5	O	-0.303244	-1.518247	-0.506096
O6	O	-0.264584	-1.753151	-0.570657
O7	O	-0.341961	-1.582665	-0.271235
O8	O	-0.162543	-1.453846	-0.441636
O9	O	-0.341935	-1.753035	-0.441569
O10	O	-0.162523	-1.582933	-0.570696
O11	O	-0.264631	-1.453694	-0.271264
O12	O	-0.264582	-1.283421	-0.441573
O13	O	-0.341849	-1.453750	-0.740919
O14	O	-0.341876	-1.283380	-0.570585
O15	O	-0.264536	-1.582878	-0.740967
O16	O	-0.443974	-1.582610	-0.441506
O17	O	-0.443937	-1.453597	-0.570547
C18	C	-0.303227	-1.245279	-0.506077
C19	C	-0.303235	-1.128503	-0.506094
C20	C	-0.263030	-1.073702	-0.573413
C21	C	-0.263034	-0.963978	-0.573418
C22	C	-0.343453	-0.963866	-0.438782
C23	C	-0.343445	-1.073588	-0.438773
C24	C	-0.188832	-0.814092	-0.611201
C25	C	-0.148633	-0.759287	-0.678536
C26	C	-0.139039	-0.794950	-0.781077
C27	C	-0.169654	-0.885416	-0.816304
C28	C	-0.209858	-0.940216	-0.748974
C29	C	-0.219440	-0.904554	-0.646418
C30	C	-0.417648	-1.223475	-0.401001
C31	C	-0.457856	-1.278276	-0.333675
C32	C	-0.467456	-1.242615	-0.231133
C33	C	-0.436852	-1.152146	-0.195910
C34	C	-0.396644	-1.097345	-0.263235
C35	C	-0.387043	-1.133013	-0.365777
C36	C	-0.466796	-1.518109	-0.506038
C37	C	-0.536764	-1.518146	-0.506048
C38	C	-0.569629	-1.585383	-0.438926
C39	C	-0.635371	-1.585432	-0.438949
C40	C	-0.668246	-1.518226	-0.506084
C41	C	-0.635374	-1.450985	-0.573220
C42	C	-0.569632	-1.450945	-0.573202
N43	N	-0.771510	-1.426319	-0.514087
N44	N	-0.833961	-1.426360	-0.514099
C45	C	-0.866321	-1.518344	-0.506145
N46	N	-0.833870	-1.610287	-0.498159
N47	N	-0.771413	-1.610245	-0.498142
C48	C	-0.739532	-1.518262	-0.506112
C49	C	-0.970472	-1.585639	-0.439044
C50	C	-1.036215	-1.585690	-0.439075
C51	C	-1.036216	-1.451233	-0.573341
C52	C	-0.970474	-1.451192	-0.573315
C53	C	-0.937605	-1.518393	-0.506161
C54	C	-0.139054	-1.518414	-0.506178
C55	C	-0.069086	-1.518485	-0.506212
C56	C	-0.303184	-1.518325	-0.780130
C57	C	-0.303158	-1.518359	-0.896906
C58	C	-0.303256	-0.792280	-0.506112
C59	C	-0.303246	-0.909057	-0.506109
C60	C	-0.262894	-1.585601	-0.951795
C61	C	-0.262867	-1.585619	-1.061519
C62	C	-0.343373	-1.451149	-1.061457
C63	C	-0.343396	-1.451127	-0.951734
C64	C	-0.188599	-1.623265	-1.211513
C65	C	-0.148341	-1.690524	-1.266405
C66	C	-0.138691	-1.793041	-1.230816
C67	C	-0.169309	-1.828321	-1.140335
C68	C	-0.209572	-1.761068	-1.085449
C69	C	-0.219209	-1.658536	-1.121037
C70	C	-0.417666	-1.413492	-0.801738
C71	C	-0.457932	-1.346243	-0.746850
C72	C	-0.467588	-1.243724	-0.782437
C73	C	-0.436981	-1.208448	-0.872921
C74	C	-0.396715	-1.275697	-0.927810
C75	C	-0.387058	-1.378215	-0.892214
C76	C	-0.303259	-1.518229	-0.233129
C77	C	-0.303107	-1.518399	-0.116353
H78	H	-0.482767	-1.351952	-0.362357
H79	H	-0.409830	-1.252525	-0.484497
F80	F	-0.242440	-1.036490	-0.786458
H81	H	-0.409803	-1.496969	-0.772748
H82	H	-1.062973	-1.640449	-0.384418
F83	F	-0.096258	-0.736616	-0.852741
F84	F	-0.242157	-1.798608	-0.989160
F85	F	-0.199030	-0.776140	-0.502058
H86	H	-1.062982	-1.396517	-0.628008
H87	H	-0.161845	-0.914440	-0.899808
F88	F	-0.220233	-1.132143	-0.645059
H89	H	-0.123706	-0.685630	-0.649845
H90	H	-0.943713	-1.396437	-0.627968
H91	H	-0.542869	-1.640105	-0.384248
H92	H	-0.376191	-0.919140	-0.383973
F93	F	-0.364058	-1.001074	-0.225735
H94	H	-0.371793	-1.246967	-1.001487
F95	F	-0.115756	-1.652974	-1.362699
F96	F	-0.447258	-1.099337	-0.910802
F97	F	-0.447073	-1.114183	-0.086775
F98	F	-0.490512	-1.383794	-0.650554
H99	H	-0.500214	-1.287225	-0.176329
H100	H	-0.230128	-1.640343	-0.907157
F101	F	-0.670356	-1.656997	-0.367504
H102	H	-0.161454	-1.911804	-1.111371
H103	H	-0.500382	-1.188975	-0.737742
F104	F	-0.935488	-1.657159	-0.367574
H105	H	-0.662145	-1.396267	-0.627884
H106	H	-0.542873	-1.396192	-0.627863
H107	H	-0.105912	-1.847803	-1.275517
H108	H	-0.196447	-1.539785	-1.240494
H109	H	-0.376135	-1.396414	-1.106111
