data_functionalizedCrystal
_audit_creation_method	'MofGen! by Chris Wilmer'
_symmetry_space_group_name_H-M	'P1'
_symmetry_Int_Tables_number	1
_symmetry_cell_setting	triclinic
loop_
_symmetry_equiv_pos_as_xyz
  x,y,z
_cell_length_a	10.540539
_cell_length_b	11.792254
_cell_length_c	10.268362
_cell_angle_alpha	90.004525
_cell_angle_beta	90.003141
_cell_angle_gamma	84.362045
loop_
_atom_site_label
_atom_site_type_symbol
_atom_site_fract_x
_atom_site_fract_y
_atom_site_fract_z
O1	O	0.174069	1.507353	0.108293
O2	O	0.674069	2.007353	0.608293
O3	O	0.191984	1.177061	0.108295
O4	O	0.691984	1.677061	0.608295
O5	O	-0.001705	1.349743	0.108292
O6	O	0.498295	1.849743	0.608292
O7	O	0.367757	1.334672	0.108295
O8	O	0.867757	1.834672	0.608295
O9	O	-0.001713	1.349727	-0.108309
O10	O	0.498287	1.849727	0.391691
O11	O	0.191976	1.177046	-0.108306
O12	O	0.691976	1.677046	0.391694
O13	O	0.174061	1.507338	-0.108308
O14	O	0.674061	2.007338	0.391692
Cu15	Cu	0.183017	1.342191	-0.128084
Cu16	Cu	0.683017	1.842191	0.371916
Cu17	Cu	0.183027	1.342209	0.128071
Cu18	Cu	0.683027	1.842209	0.628071
O19	O	0.367749	1.334657	-0.108305
O20	O	0.867749	1.834657	0.391695
C21	C	0.190851	1.134760	-0.000005
C22	C	0.690851	1.634760	0.499995
C23	C	0.187473	1.008738	-0.000004
C24	C	0.687473	1.508738	0.499996
C25	C	-0.049008	1.348605	-0.000006
C26	C	0.450992	1.848605	0.499994
C27	C	-0.189945	1.345223	0.000001
C28	C	0.310055	1.845223	0.500001
C29	C	0.184729	0.906394	0.000001
C30	C	0.684729	1.406394	0.500001
C31	C	0.181297	0.777999	0.000002
C32	C	0.681297	1.277999	0.500002
C33	C	-0.372957	1.215653	0.000488
C34	C	0.127043	1.715653	0.500488
C35	C	-0.226349	1.219081	0.000001
C36	C	0.273651	1.719081	0.500001
C37	C	-0.251802	1.405920	-0.123689
C38	C	0.248198	1.905920	0.376311
C39	C	-0.398333	1.401615	-0.123793
C40	C	0.101667	1.901615	0.376207
C41	C	-0.398850	1.404198	0.122522
C42	C	0.101150	1.904198	0.622522
C43	C	-0.251872	1.405360	0.124158
C44	C	0.248128	1.905360	0.624158
C45	C	0.415052	1.335794	-0.000004
C46	C	0.915052	1.835794	0.499996
C47	C	0.555989	1.339176	-0.000003
C48	C	1.055989	1.839176	0.499997
C49	C	0.175193	1.549639	-0.000005
C50	C	0.675193	2.049639	0.499995
C51	C	0.178571	1.675661	0.000002
C52	C	0.678571	2.175661	0.500002
N53	N	0.183010	1.342186	-0.308250
N54	N	0.683010	1.842186	0.191750
C55	C	0.183024	1.342203	-0.573921
C56	C	0.683024	1.842203	-0.073921
C57	C	0.183020	1.342190	-0.426083
C58	C	0.683020	1.842190	0.073917
N59	N	0.183024	1.342222	0.308237
N60	N	0.683024	1.842222	0.808237
H61	H	-0.183590	1.171321	0.088666
H62	H	0.316410	1.671321	0.588666
Cl63	Cl	-0.472847	1.541674	-0.132476
Cl64	Cl	0.027153	2.041674	0.367524
Cl65	Cl	-0.441659	1.332332	-0.266539
Cl66	Cl	0.058341	1.832332	0.233461
H67	H	-0.184442	1.170973	-0.088813
H68	H	0.315558	1.670973	0.411187
H69	H	-0.227945	1.497328	0.131626
H70	H	0.272055	1.997328	0.631626
Cl71	Cl	-0.419896	1.138806	-0.135287
Cl72	Cl	0.080104	1.638806	0.364713
Cl73	Cl	-0.217751	1.548943	-0.130798
Cl74	Cl	0.282249	2.048943	0.369202
H75	H	-0.401394	1.165830	0.089188
H76	H	0.098606	1.665830	0.589188
H77	H	-0.209071	1.363744	-0.215734
H78	H	0.290929	1.863744	0.284266
Cl79	Cl	-0.447337	1.341164	0.267265
Cl80	Cl	0.052663	1.841164	0.767265
H81	H	-0.210868	1.360949	0.215660
H82	H	0.289132	1.860949	0.715660
H83	H	-0.446368	1.495310	0.123354
H84	H	0.053632	1.995310	0.623354
