data_functionalizedCrystal
_audit_creation_method	'MofGen! by Chris Wilmer'
_symmetry_space_group_name_H-M	'P1'
_symmetry_Int_Tables_number	1
_symmetry_cell_setting	triclinic
loop_
_symmetry_equiv_pos_as_xyz
  x,y,z
_cell_length_a	15.698487
_cell_length_b	14.809374
_cell_length_c	14.809374
_cell_angle_alpha	60.797835
_cell_angle_beta	89.999658
_cell_angle_gamma	67.426642
loop_
_atom_site_label
_atom_site_type_symbol
_atom_site_fract_x
_atom_site_fract_y
_atom_site_fract_z
Zr1	Zr	0.940906	0.955222	-0.203689
O2	O	0.836558	1.113140	-0.350847
O3	O	0.958121	0.777456	-0.145613
O4	O	0.992965	0.926604	-0.332153
O5	O	0.791032	0.993488	-0.031908
O6	O	1.133147	0.926607	-0.332156
O7	O	0.801713	0.963992	-0.164306
O8	O	1.070817	0.659808	0.001531
O9	O	0.853363	1.260287	-0.365595
O10	O	1.087927	0.857927	-0.136510
O11	O	0.975340	0.879937	-0.037700
O12	O	1.016365	1.055539	-0.257328
O13	O	0.903777	1.077549	-0.158519
Zr14	Zr	1.147444	1.002269	0.007467
Zr15	Zr	1.164479	0.955227	-0.203693
Zr16	Zr	0.923870	1.002264	0.007471
Zr17	Zr	0.967707	1.189903	-0.227211
Zr18	Zr	1.120642	0.767587	0.030988
O19	O	1.130228	1.180035	-0.050610
O20	O	1.154451	1.113147	-0.350852
O21	O	0.812336	1.180028	-0.050605
O22	O	1.251791	0.844350	0.154624
O23	O	1.276014	0.777463	-0.145618
O24	O	0.933899	0.844343	0.154630
O25	O	1.297317	0.964003	-0.164315
O26	O	1.095384	1.030887	0.135931
O27	O	0.955202	1.030883	0.135933
O28	O	1.286636	0.993498	-0.031916
O29	O	1.031074	1.260291	-0.365598
O30	O	1.057276	0.697200	0.169375
O31	O	1.234987	0.697204	0.169372
O32	O	1.248528	0.659812	0.001528
O33	O	0.839822	1.297679	-0.197751
O34	O	1.017533	1.297683	-0.197754
O35	O	1.071984	0.901951	0.061105
O36	O	1.184572	0.879941	-0.037704
O37	O	1.113009	1.077554	-0.158522
O38	O	1.000422	1.099564	-0.059713
C39	C	1.010650	0.685195	-0.068689
C40	C	0.999272	0.585566	-0.058704
C41	C	0.764518	0.978739	-0.098107
C42	C	0.669605	0.978737	-0.098105
C43	C	1.050050	0.530230	-0.103268
C44	C	1.038292	0.427259	-0.092949
C45	C	0.495823	0.978757	-0.098117
C46	C	0.592526	0.978751	-0.098113
C47	C	1.323831	0.978751	-0.098116
C48	C	1.418744	0.978753	-0.098118
C49	C	1.065483	0.919903	-0.362240
C50	C	1.072715	0.899932	-0.451883
C51	C	1.077699	1.272296	-0.127533
C52	C	1.089077	1.371924	-0.137519
C53	C	1.040440	0.989058	-0.551783
C54	C	1.047914	0.968420	-0.644435
C55	C	1.022866	1.037587	0.166018
C56	C	1.015634	1.057558	0.255660
C57	C	1.290307	0.685201	-0.068694
C58	C	1.373841	0.585574	-0.058710
C59	C	0.989341	0.744037	0.195439
C60	C	0.970731	0.664379	0.295068
C61	C	1.268998	0.744043	0.195435
C62	C	1.345301	0.664387	0.295062
C63	C	0.819352	1.213447	-0.391657
C64	C	0.743049	1.293103	-0.491284
C65	C	0.798043	1.272290	-0.127528
C66	C	0.714508	1.371916	-0.137512
C67	C	1.099008	1.213454	-0.391662
C68	C	1.117618	1.293111	-0.491291
C69	C	1.362623	0.527296	-0.105606
C70	C	1.441108	0.433695	-0.096246
C71	C	1.530808	0.398369	-0.039984
C72	C	1.542025	0.456658	0.006913
C73	C	1.463543	0.550262	-0.002454
C74	C	1.012439	0.638464	0.393439
C75	C	0.994949	0.563632	0.487057
C76	C	0.935758	0.514710	0.482303
C77	C	0.894046	0.540631	0.383921
C78	C	0.911530	0.615469	0.290304
C79	C	1.439912	0.615491	0.290270
C80	C	1.511617	0.540657	0.383871
C81	C	1.488709	0.514715	0.482262
C82	C	1.394088	0.563620	0.487051
C83	C	1.322385	0.638458	0.393451
C84	C	0.648438	1.342011	-0.486494
C85	C	0.576736	1.416874	-0.580097
C86	C	0.599646	1.442821	-0.678489
C87	C	0.694266	1.393910	-0.683278
C88	C	0.765967	1.319055	-0.589676
C89	C	0.725728	1.430203	-0.090626
C90	C	0.647248	1.523824	-0.100012
C91	C	0.557548	1.559152	-0.156278
C92	C	0.546331	1.500860	-0.203170
C93	C	0.624811	1.407246	-0.193790
C94	C	1.176814	1.342011	-0.486502
C95	C	1.194318	1.416848	-0.580104
C96	C	1.152620	1.442789	-0.678494
C97	C	1.093421	1.393881	-0.683281
C98	C	1.075923	1.319039	-0.589679
H99	H	1.102233	0.559082	-0.149056
H100	H	0.947096	0.556706	-0.012909
H101	H	0.986112	0.398403	-0.047150
O102	O	1.048483	1.421834	-0.789406
H103	H	1.004393	1.375242	-0.777021
H104	H	1.141263	0.400773	-0.183310
O105	O	0.472908	1.660122	-0.166383
H106	H	0.408645	1.674909	-0.213390
H107	H	1.242520	1.456663	-0.576187
O108	O	0.522309	1.523572	-0.779445
H109	H	0.452673	1.553214	-0.759573
O110	O	0.996509	1.110374	-0.574223
H111	H	0.974009	1.172522	-0.661496
H112	H	0.843001	1.279233	-0.593588
O113	O	0.822474	1.392124	-0.029956
H114	H	0.817079	1.448407	0.001048
H115	H	1.594706	0.322148	-0.032364
H116	H	0.656399	1.571272	-0.061821
O117	O	0.718970	1.421891	-0.789402
H118	H	0.653209	1.482148	-0.853674
H119	H	0.877567	0.636556	0.210211
H120	H	1.081084	0.876830	-0.627493
O121	O	1.566053	0.433983	0.583212
H122	H	1.552667	0.358591	0.636236
H123	H	1.458583	0.636600	0.210164
O124	O	1.076280	0.691223	0.398590
H125	H	1.137494	0.665247	0.364501
H126	H	1.289594	0.556052	-0.151433
O127	O	1.428999	0.370828	-0.146820
H128	H	1.353435	0.411110	-0.187496
H129	H	0.473287	1.529639	-0.248982
H130	H	1.615070	0.427882	0.052721
H131	H	0.629766	1.320889	-0.406386
H132	H	0.499698	1.456685	-0.576178
H133	H	1.588656	0.500844	0.379953
O134	O	0.612703	1.344371	-0.244351
H135	H	0.537141	1.384665	-0.285039
H136	H	1.027717	1.279232	-0.593593
O137	O	1.221805	1.314026	-0.380385
H138	H	1.265918	1.360597	-0.392796
H139	H	0.982468	1.149148	-0.761283
O140	O	1.116646	0.778613	-0.429433
H141	H	1.115615	0.781441	-0.505728
H142	H	1.166876	1.503732	-0.754703
H143	H	1.472689	0.597703	0.035742
O144	O	1.039960	0.535661	0.593163
H145	H	1.084072	0.582235	0.580734
O146	O	1.369382	0.535618	0.593178
H147	H	1.435141	0.475348	0.657451
O148	O	1.220335	0.691169	0.398626
H149	H	1.216460	0.660535	0.482773
O150	O	0.830233	0.487821	0.378820
H151	H	0.769037	0.513759	0.412945
H152	H	0.921529	0.453774	0.558540
