data_functionalizedCrystal
_audit_creation_method	'MofGen! by Chris Wilmer'
_symmetry_space_group_name_H-M	'P1'
_symmetry_Int_Tables_number	1
_symmetry_cell_setting	triclinic
loop_
_symmetry_equiv_pos_as_xyz
  x,y,z
_cell_length_a	14.971482
_cell_length_b	10.540510
_cell_length_c	13.448316
_cell_angle_alpha	89.995897
_cell_angle_beta	89.993798
_cell_angle_gamma	84.062960
loop_
_atom_site_label
_atom_site_type_symbol
_atom_site_fract_x
_atom_site_fract_y
_atom_site_fract_z
O1	O	1.187869	0.165403	-0.082673
O2	O	1.687869	0.665403	0.417327
O3	O	0.927578	0.185218	-0.082678
O4	O	1.427578	0.685218	0.417322
O5	O	1.063676	-0.009466	-0.082675
O6	O	1.563676	0.490534	0.417325
O7	O	1.051771	0.360087	-0.082676
O8	O	1.551771	0.860087	0.417324
O9	O	1.063659	-0.009478	0.082709
O10	O	1.563659	0.490522	0.582709
O11	O	0.927561	0.185206	0.082706
O12	O	1.427561	0.685206	0.582706
O13	O	1.187852	0.165391	0.082710
O14	O	1.687852	0.665391	0.582710
Cu15	Cu	1.057705	0.175297	0.097809
Cu16	Cu	1.557705	0.675297	0.597809
Cu17	Cu	1.057725	0.175312	-0.097776
Cu18	Cu	1.557725	0.675312	0.402224
O19	O	1.051754	0.360075	0.082708
O20	O	1.551754	0.860075	0.582708
C21	C	0.894240	0.184327	0.000014
C22	C	1.394240	0.684327	0.500014
C23	C	0.794928	0.181674	0.000012
C24	C	1.294928	0.681674	0.500012
C25	C	0.748267	0.180418	0.090164
C26	C	1.248267	0.680418	0.590164
C27	C	0.654955	0.177905	0.090165
C28	C	1.154955	0.677905	0.590165
C29	C	0.608304	0.176657	0.000013
C30	C	1.108304	0.676657	0.500013
C31	C	0.654972	0.177909	-0.090146
C32	C	1.154972	0.677909	0.409854
C33	C	0.748284	0.180413	-0.090146
C34	C	1.248284	0.680413	0.409854
C35	C	0.460481	0.172693	-0.090139
C36	C	0.960481	0.672693	0.409861
C37	C	0.367163	0.170191	-0.090140
C38	C	0.867163	0.670191	0.409860
C39	C	0.367152	0.170185	0.090171
C40	C	0.867152	0.670185	0.590171
C41	C	0.460464	0.172689	0.090171
C42	C	0.960464	0.672689	0.590171
C43	C	0.507125	0.173943	0.000012
C44	C	1.007125	0.673943	0.500012
C45	C	1.062780	-0.056766	0.000015
C46	C	1.562780	0.443234	0.500015
C47	C	1.060126	-0.197685	0.000009
C48	C	1.560126	0.302315	0.500009
C49	C	1.154672	-0.416216	0.000389
C50	C	1.654672	0.083784	0.500389
C51	C	1.157504	-0.269652	0.000011
C52	C	1.657504	0.230348	0.500011
C53	C	1.010288	-0.241870	-0.094432
C54	C	1.510288	0.258130	0.405568
C55	C	1.008147	-0.388607	-0.094506
C56	C	1.508147	0.111393	0.405494
C57	C	1.006099	-0.388406	0.093566
C58	C	1.506099	0.111594	0.593566
C59	C	1.010718	-0.242118	0.094809
C60	C	1.510718	0.257882	0.594809
C61	C	1.221190	0.166282	0.000017
C62	C	1.721190	0.666282	0.500017
C63	C	1.320502	0.168935	0.000012
C64	C	1.820502	0.668935	0.500012
C65	C	1.052650	0.407375	0.000016
C66	C	1.552650	0.907375	0.500016
C67	C	1.055304	0.548294	0.000015
C68	C	1.555304	1.048294	0.500015
N69	N	1.057697	0.175287	0.235373
N70	N	1.557697	0.675287	0.735373
N71	N	1.057740	0.175312	-0.235341
N72	N	1.557740	0.675312	0.264659
C73	C	1.117980	0.089116	0.287415
C74	C	1.617980	0.589116	0.787415
C75	C	1.117986	0.089115	0.391518
C76	C	1.617986	0.589115	0.891518
C77	C	1.057712	0.175292	0.443578
C78	C	1.557712	0.675292	0.943578
C79	C	0.997422	0.261466	0.391529
C80	C	1.497422	0.761466	0.891529
C81	C	0.997413	0.261460	0.287428
C82	C	1.497413	0.761460	0.787428
C83	C	0.997447	0.261475	0.608509
C84	C	1.497447	0.761475	1.108509
C85	C	0.997457	0.261483	0.712618
C86	C	1.497457	0.761483	1.212618
C87	C	1.118020	0.089130	0.712600
C88	C	1.618020	0.589130	1.212600
C89	C	1.118010	0.089124	0.608498
C90	C	1.618010	0.589124	1.108498
C91	C	1.057722	0.175300	0.556457
C92	C	1.557722	0.675300	1.056457
H93	H	0.329156	0.169163	0.163582
H94	H	0.829156	0.669163	0.663582
F95	F	0.317516	0.168861	-0.186089
F96	F	0.817516	0.668861	0.313911
F97	F	1.058111	-0.205257	0.186133
F98	F	1.558111	0.294743	0.686133
F99	F	0.510140	0.174024	-0.186097
F100	F	1.010140	0.674024	0.313903
F101	F	0.605297	0.176585	0.186117
F102	F	1.105297	0.676585	0.686117
F103	F	1.182165	-0.002586	0.553092
F104	F	1.682165	0.497414	1.053092
F105	F	0.910537	-0.416273	0.094399
F106	F	1.410537	0.083727	0.594399
H107	H	1.196499	-0.240756	0.067709
H108	H	1.696499	0.259244	0.567709
F109	F	0.605324	0.176542	-0.186092
F110	F	1.105324	0.676542	0.313908
H111	H	1.167066	0.018946	0.245035
H112	H	1.667066	0.518946	0.745035
F113	F	0.797907	0.181754	0.186117
F114	F	1.297907	0.681754	0.686117
H115	H	0.786274	0.181438	-0.163557
H116	H	1.286274	0.681438	0.336443
H117	H	0.948323	0.331628	0.245057
H118	H	1.448323	0.831628	0.745057
F119	F	1.204253	-0.471622	0.088916
F120	F	1.704253	0.028378	0.588916
F121	F	1.182183	-0.002584	0.767990
F122	F	1.682183	0.497416	1.267990
F123	F	1.203985	-0.473632	-0.087634
F124	F	1.703985	0.026368	0.412366
H125	H	1.042220	-0.429205	-0.165101
H126	H	1.542220	0.070795	0.334899
F127	F	1.208786	-0.233094	-0.088629
F128	F	1.708786	0.266906	0.411371
H129	H	0.498443	0.173713	0.163581
H130	H	0.998443	0.673713	0.663581
F131	F	1.055546	-0.202053	-0.186298
F132	F	1.555546	0.297947	0.313702
F133	F	0.912952	-0.417585	-0.100115
F134	F	1.412952	0.082415	0.399885
H135	H	1.167072	0.018948	0.433890
H136	H	1.667072	0.518948	0.933890
F137	F	0.916588	-0.178861	-0.099031
F138	F	1.416588	0.321139	0.400969
F139	F	0.933277	0.353192	0.553127
F140	F	1.433277	0.853192	1.053127
H141	H	1.037037	-0.430945	0.165153
H142	H	1.537037	0.069055	0.665153
F143	F	0.917791	-0.176931	0.102263
F144	F	1.417791	0.323069	0.602263
H145	H	0.948375	0.331656	0.755000
H146	H	1.448375	0.831656	1.255000
F147	F	0.933269	0.353178	0.446936
F148	F	1.433269	0.853178	0.946936
