data_functionalizedCrystal
_audit_creation_method	'MofGen! by Chris Wilmer'
_symmetry_space_group_name_H-M	'P1'
_symmetry_Int_Tables_number	1
_symmetry_cell_setting	triclinic
loop_
_symmetry_equiv_pos_as_xyz
  x,y,z
_cell_length_a	12.759401
_cell_length_b	12.759399
_cell_length_c	12.759401
_cell_angle_alpha	89.993746
_cell_angle_beta	89.999907
_cell_angle_gamma	89.981451
loop_
_atom_site_label
_atom_site_type_symbol
_atom_site_fract_x
_atom_site_fract_y
_atom_site_fract_z
Zn1	Zn	1.606062	0.418352	0.593987
Zn2	Zn	1.606009	0.594003	0.418317
Zn3	Zn	1.430419	0.418347	0.418328
Zn4	Zn	1.430350	0.593998	0.593960
O5	O	1.518210	0.506175	0.506148
O6	O	1.753076	0.441656	0.570690
O7	O	1.582723	0.570702	0.271297
O8	O	1.453770	0.271327	0.441646
O9	O	1.753037	0.570706	0.441626
O10	O	1.582814	0.271330	0.570702
O11	O	1.453718	0.441648	0.271306
O12	O	1.283389	0.441644	0.441620
O13	O	1.453652	0.570699	0.740984
O14	O	1.283338	0.570694	0.570656
O15	O	1.582747	0.441652	0.741004
O16	O	1.582656	0.741023	0.441600
O17	O	1.453600	0.741020	0.570644
C18	C	1.245243	0.506169	0.506137
C19	C	1.128466	0.506192	0.506157
C20	C	1.518143	0.779142	0.506141
C21	C	1.518211	0.895919	0.506173
C22	C	1.518198	0.506175	0.780181
C23	C	1.518192	0.506175	0.896958
C24	C	1.792243	0.506182	0.506160
C25	C	1.909020	0.506185	0.506165
C26	C	1.963904	0.438995	0.573356
C27	C	2.073628	0.439000	0.573354
C28	C	2.073574	0.573389	0.438963
C29	C	1.963852	0.573388	0.438970
C30	C	1.963936	0.361403	0.650942
C31	C	2.073660	0.361408	0.650941
C32	C	1.585484	0.950748	0.439057
C33	C	1.585547	1.060472	0.439095
C34	C	1.451054	1.060529	0.573369
C35	C	1.450998	0.950807	0.573335
C36	C	1.663129	0.950716	0.361532
C37	C	1.663192	1.060440	0.361570
C38	C	1.518302	1.232142	0.506192
C39	C	1.518330	1.115365	0.506245
C40	C	1.450991	0.573380	1.061536
C41	C	1.450982	0.573367	0.951812
C42	C	1.585408	0.438984	0.951833
C43	C	1.585410	0.438992	1.061555
C44	C	1.373384	0.650968	1.061523
C45	C	1.373376	0.650956	0.951799
C46	C	1.518211	0.506198	1.233181
C47	C	1.518203	0.506196	1.116404
H48	H	2.118232	0.628106	0.384257
H49	H	1.744466	0.920863	0.383381
N50	N	1.765588	1.105427	0.400214
H51	H	1.815017	1.046461	0.418864
H52	H	1.797893	1.149982	0.343326
H53	H	1.640124	0.384268	0.907162
H54	H	1.396229	0.906166	0.627996
N55	N	1.624590	0.905698	0.259107
H56	H	1.606012	0.964649	0.209642
H57	H	1.681491	0.861090	0.226871
N58	N	1.378563	1.119729	0.645805
H59	H	1.388807	1.197558	0.635645
H60	H	1.303532	1.100622	0.629384
N61	N	1.265638	0.622062	1.101009
H62	H	1.236830	0.681239	1.144993
H63	H	1.217609	0.609133	1.039439
H64	H	1.641479	1.090272	0.280192
H65	H	1.640133	0.384276	1.106225
N66	N	1.411958	0.753349	1.106596
H67	H	1.430593	0.802811	1.047672
H68	H	1.355056	0.785625	1.151168
H69	H	1.929927	0.284109	0.621807
N70	N	1.271004	0.612324	0.906740
H71	H	1.212018	0.659143	0.931155
H72	H	1.274822	0.613704	0.827690
N73	N	1.904652	0.645859	0.366505
H74	H	1.859116	0.694542	0.409205
H75	H	1.956105	0.688357	0.323951
N76	N	1.924479	0.390276	0.758716
H77	H	1.986012	0.403168	0.806806
H78	H	1.880456	0.455900	0.753944
N79	N	2.118730	0.400010	0.753323
H80	H	2.094326	0.353178	0.812288
H81	H	2.197780	0.398615	0.749492
H82	H	1.395197	0.732309	0.922004
N83	N	2.113154	0.253632	0.622083
H84	H	2.051636	0.205535	0.609198
H85	H	2.157157	0.258395	0.556460
