data_functionalizedCrystal
_audit_creation_method	'MofGen! by Chris Wilmer'
_symmetry_space_group_name_H-M	'P1'
_symmetry_Int_Tables_number	1
_symmetry_cell_setting	triclinic
loop_
_symmetry_equiv_pos_as_xyz
  x,y,z
_cell_length_a	23.532407
_cell_length_b	27.731996
_cell_length_c	22.010155
_cell_angle_alpha	89.998256
_cell_angle_beta	89.994271
_cell_angle_gamma	82.735067
loop_
_atom_site_label
_atom_site_type_symbol
_atom_site_fract_x
_atom_site_fract_y
_atom_site_fract_z
O1	O	0.755125	0.058674	-0.050495
O2	O	1.088459	0.392007	0.282839
O3	O	1.421792	0.725340	0.616172
O4	O	0.589242	0.067164	-0.050505
O5	O	0.922575	0.400498	0.282828
O6	O	1.255909	0.733831	0.616161
O7	O	0.677351	-0.007472	-0.050486
O8	O	1.010685	0.325862	0.282847
O9	O	1.344018	0.659195	0.616180
O10	O	0.667016	0.133310	-0.050513
O11	O	1.000350	0.466643	0.282820
O12	O	1.333683	0.799976	0.616153
O13	O	0.677335	-0.007460	0.050564
O14	O	1.010669	0.325873	0.383897
O15	O	1.344002	0.659206	0.717231
O16	O	0.589226	0.067175	0.050545
O17	O	0.922559	0.400509	0.383878
O18	O	1.255893	0.733842	0.717212
O19	O	0.755109	0.058685	0.050556
O20	O	1.088443	0.392018	0.383889
O21	O	1.421776	0.725352	0.717222
Cu22	Cu	0.672166	0.062931	0.059777
Cu23	Cu	1.005500	0.396265	0.393110
Cu24	Cu	1.338833	0.729598	0.726444
Cu25	Cu	0.672185	0.062918	-0.059727
Cu26	Cu	1.005519	0.396251	0.273607
Cu27	Cu	1.338852	0.729585	0.606940
O28	O	0.667000	0.133321	0.050537
O29	O	1.000334	0.466654	0.383870
O30	O	1.333667	0.799987	0.717204
C31	C	0.568019	0.066954	0.000019
C32	C	0.901352	0.400287	0.333352
C33	C	1.234685	0.733620	0.666685
C34	C	0.504803	0.066303	0.000015
C35	C	0.838136	0.399637	0.333349
C36	C	1.171470	0.732970	0.666682
C37	C	0.238746	0.019455	0.000041
C38	C	0.572079	0.352788	0.333374
C39	C	0.905413	0.686122	0.666707
C40	C	0.298145	0.020059	0.000040
C41	C	0.631478	0.353392	0.333374
C42	C	0.964811	0.686725	0.666707
O43	O	0.334977	-0.017106	0.000069
O44	O	0.668310	0.316228	0.333402
O45	O	1.001644	0.649561	0.666735
N46	N	0.320666	0.064430	0.000028
N47	N	0.654000	0.397763	0.333361
N48	N	0.987333	0.731096	0.666694
C49	C	0.283786	0.108200	0.000022
C50	C	0.617119	0.441533	0.333355
C51	C	0.950452	0.774866	0.666688
O52	O	0.308396	0.145996	0.000011
O53	O	0.641730	0.479329	0.333345
O54	O	0.975063	0.812663	0.666678
C55	C	0.224388	0.107595	0.000026
C56	C	0.557721	0.440929	0.333360
C57	C	0.891055	0.774262	0.666693
C58	C	0.201870	0.063221	0.000033
C59	C	0.535203	0.396555	0.333366
C60	C	0.868537	0.729888	0.666699
C61	C	0.216227	-0.024915	0.000048
C62	C	0.549561	0.308418	0.333381
C63	C	0.882894	0.641751	0.666714
C64	C	0.156832	-0.025519	0.000047
C65	C	0.490166	0.307814	0.333380
C66	C	0.823499	0.641148	0.666714
C67	C	0.119956	0.018248	0.000039
C68	C	0.453290	0.351581	0.333372
C69	C	0.786623	0.684914	0.666706
C70	C	0.142475	0.062618	0.000032
C71	C	0.475809	0.395951	0.333365
C72	C	0.809142	0.729284	0.666699
C73	C	0.187509	0.151365	0.000024
C74	C	0.520842	0.484698	0.333358
C75	C	0.854175	0.818031	0.666691
C76	C	0.128108	0.150757	0.000030
C77	C	0.461441	0.484090	0.333363
C78	C	0.794774	0.817423	0.666696
C79	C	0.105589	0.106383	0.000036
C80	C	0.438923	0.439716	0.333369
C81	C	0.772256	0.773049	0.666703
C82	C	0.046205	0.105781	0.000023
C83	C	0.379538	0.439114	0.333356
C84	C	0.712871	0.772447	0.666690
N85	N	0.023683	0.061410	0.000036
N86	N	0.357016	0.394743	0.333369
N87	N	0.690350	0.728076	0.666702
C88	C	0.060559	0.017643	0.000044
C89	C	0.393892	0.350977	0.333377
C90	C	0.727226	0.684310	0.666710
C91	C	0.408525	0.109465	0.000013
C92	C	0.741859	0.442799	0.333346
C93	C	1.075192	0.776132	0.666680
C94	C	0.467922	0.110070	0.000004
C95	C	0.801255	0.443404	0.333337
C96	C	1.134588	0.776737	0.666671
C97	C	0.482277	0.021929	0.000024
C98	C	0.815610	0.355263	0.333357
C99	C	1.148943	0.688596	0.666691
C100	C	0.422879	0.021325	0.000029
C101	C	0.756212	0.354658	0.333362
C102	C	1.089546	0.687991	0.666695
C103	C	0.386004	0.065095	0.000026
C104	C	0.719337	0.398428	0.333359
C105	C	1.052670	0.731761	0.666692
C106	C	-0.064175	0.016379	0.000041
C107	C	0.269158	0.349712	0.333375
C108	C	0.602492	0.683045	0.666708
C109	C	-0.123576	0.015779	0.000038
C110	C	0.209758	0.349112	0.333371
C111	C	0.543091	0.682446	0.666705
C112	C	-0.137925	0.103920	0.000021
C113	C	0.195408	0.437253	0.333355
C114	C	0.528741	0.770587	0.666688
C115	C	-0.078530	0.104520	0.000021
C116	C	0.254803	0.437853	0.333355
C117	C	0.588137	0.771187	0.666688
C118	C	-0.041656	0.060745	0.000033
C119	C	0.291678	0.394079	0.333367
C120	C	0.625011	0.727412	0.666700
O121	O	0.009338	0.142926	-0.000003
O122	O	0.342671	0.476259	0.333331
O123	O	0.676005	0.809592	0.666664
O124	O	0.035940	-0.020147	0.000062
O125	O	0.369273	0.313186	0.333395
O126	O	0.702607	0.646520	0.666728
C127	C	0.677131	-0.025474	0.000041
C128	C	1.010464	0.307860	0.333374
C129	C	1.343798	0.641193	0.666707
C130	C	0.676491	-0.079131	0.000047
C131	C	1.009825	0.254202	0.333380
C132	C	1.343158	0.587536	0.666714
C133	C	0.672477	-0.411860	-0.055066
C134	C	1.005810	-0.078526	0.278268
C135	C	1.339144	0.254807	0.611601
C136	C	0.670049	-0.613522	-0.055076
C137	C	1.003382	-0.280188	0.278257
C138	C	1.336715	0.053145	0.611590
O139	O	0.669718	-0.639598	-0.101922
O140	O	1.003051	-0.306265	0.231411
O141	O	1.336384	0.027069	0.564744
N142	N	0.669738	-0.638733	0.000006
N143	N	1.003072	-0.305400	0.333339
N144	N	1.336405	0.027934	0.666672
C145	C	0.670031	-0.613526	0.055094
C146	C	1.003365	-0.280192	0.388428
C147	C	1.336698	0.053141	0.721761
O148	O	0.669706	-0.639596	0.101945
O149	O	1.003039	-0.306263	0.435278
O150	O	1.336373	0.027071	0.768611
C151	C	0.672456	-0.411864	0.055104
C152	C	1.005789	-0.078531	0.388438
C153	C	1.339122	0.254803	0.721771
C154	C	0.672772	-0.386656	0.000019
C155	C	1.006105	-0.053322	0.333352
C156	C	1.339438	0.280011	0.666685
C157	C	0.672792	-0.386651	-0.110147
C158	C	1.006126	-0.053318	0.223187
C159	C	1.339459	0.280015	0.556520
C160	C	0.673403	-0.336239	-0.110143
C161	C	1.006736	-0.002906	0.223190
C162	C	1.340069	0.330428	0.556523
C163	C	0.673697	-0.311035	-0.055059
C164	C	1.007031	0.022298	0.278274
C165	C	1.340364	0.355631	0.611608
C166	C	0.673382	-0.336244	0.000022
C167	C	1.006715	-0.002910	0.333355
C168	C	1.340048	0.330423	0.666689
C169	C	0.672744	-0.386657	0.110192
C170	C	1.006078	-0.053324	0.443526
C171	C	1.339411	0.280010	0.776859
C172	C	0.673349	-0.336238	0.110190
C173	C	1.006682	-0.002905	0.443523
C174	C	1.340016	0.330429	0.776857
C175	C	0.673665	-0.311030	0.055104
C176	C	1.006999	0.022303	0.388438
C177	C	1.340332	0.355637	0.721771
C178	C	0.674287	-0.260628	0.055110
C179	C	1.007620	0.072706	0.388443
C180	C	1.340953	0.406039	0.721776
N181	N	0.674597	-0.235416	0.000028
N182	N	1.007930	0.097917	0.333361
N183	N	1.341264	0.431250	0.666694
C184	C	0.674302	-0.260620	-0.055057
C185	C	1.007636	0.072713	0.278277
C186	C	1.340969	0.406047	0.611610
C187	C	0.668760	-0.719401	0.055085
C188	C	1.002093	-0.386067	0.388418
C189	C	1.335426	-0.052734	0.721752
C190	C	0.668155	-0.769816	0.055083
C191	C	1.001488	-0.436483	0.388416
C192	C	1.334821	-0.103149	0.721749
C193	C	0.668171	-0.769809	-0.055088
C194	C	1.001504	-0.436475	0.278245
C195	C	1.334838	-0.103142	0.611578
C196	C	0.668780	-0.719393	-0.055085
C197	C	1.002113	-0.386059	0.278248
C198	C	1.335447	-0.052726	0.611581
C199	C	0.669070	-0.694189	0.000003
C200	C	1.002403	-0.360856	0.333336
C201	C	1.335737	-0.027523	0.666670
C202	C	0.675584	-0.154751	-0.055046
C203	C	1.008917	0.178582	0.278288
C204	C	1.342251	0.511916	0.611621
C205	C	0.676197	-0.104335	-0.055037
C206	C	1.009530	0.228999	0.278296
C207	C	1.342863	0.562332	0.611629
C208	C	0.676177	-0.104346	0.055133
C209	C	1.009511	0.228987	0.388466
C210	C	1.342844	0.562320	0.721800
C211	C	0.675568	-0.154759	0.055125
C212	C	1.008901	0.178575	0.388459
C213	C	1.342235	0.511908	0.721792
C214	C	0.675269	-0.179959	0.000031
C215	C	1.008603	0.153374	0.333364
C216	C	1.341936	0.486707	0.666698
O217	O	0.674612	-0.234520	0.101931
O218	O	1.007945	0.098814	0.435264
O219	O	1.341278	0.432147	0.768598
O220	O	0.674615	-0.234539	-0.101900
O221	O	1.007949	0.098794	0.231433
O222	O	1.341282	0.432127	0.564767
C223	C	0.671867	-0.462272	-0.055069
C224	C	1.005200	-0.128938	0.278264
C225	C	1.338533	0.204395	0.611598
C226	C	0.671551	-0.487480	0.000012
C227	C	1.004885	-0.154147	0.333346
C228	C	1.338218	0.179187	0.666679
C229	C	0.671846	-0.462276	0.055097
C230	C	1.005179	-0.128943	0.388430
C231	C	1.338513	0.204390	0.721763
C232	C	0.670946	-0.537895	0.000010
C233	C	1.004280	-0.204562	0.333343
C234	C	1.337613	0.128771	0.666677
C235	C	0.670652	-0.563099	-0.055075
C236	C	1.003985	-0.229766	0.278259
C237	C	1.337318	0.103568	0.611592
C238	C	0.670962	-0.537888	-0.110157
C239	C	1.004295	-0.204554	0.223177
C240	C	1.337629	0.128779	0.556510
C241	C	0.671572	-0.487475	-0.110153
C242	C	1.004905	-0.154142	0.223180
C243	C	1.338239	0.179191	0.556513
C244	C	0.671536	-0.487488	0.110179
C245	C	1.004869	-0.154154	0.443512
C246	C	1.338202	0.179179	0.776845
C247	C	0.670926	-0.537900	0.110171
C248	C	1.004260	-0.204567	0.443504
C249	C	1.337593	0.128767	0.776838
C250	C	0.670632	-0.563104	0.055087
C251	C	1.003965	-0.229770	0.388420
C252	C	1.337298	0.103563	0.721753
C253	C	0.776333	0.058896	0.000030
C254	C	1.109666	0.392229	0.333364
C255	C	1.443000	0.725562	0.666697
C256	C	0.839548	0.059546	0.000030
C257	C	1.172882	0.392879	0.333363
C258	C	1.506215	0.726212	0.666697
C259	C	0.667221	0.151323	0.000008
C260	C	1.000554	0.484656	0.333342
C261	C	1.333887	0.817990	0.666675
C262	C	0.667860	0.204980	-0.000002
C263	C	1.001193	0.538313	0.333332
C264	C	1.334527	0.871647	0.666665
N265	N	0.672157	0.062940	0.143830
N266	N	1.005490	0.396274	0.477163
N267	N	1.338824	0.729607	0.810496
N268	N	0.672199	0.062905	-0.143779
N269	N	1.005532	0.396238	0.189554
N270	N	1.338866	0.729572	0.522888
C271	C	0.711202	0.029874	0.563617
C272	C	1.044535	0.363207	0.896951
C273	C	1.377869	0.696541	1.230284
C274	C	0.711205	0.029871	0.627225
C275	C	1.044538	0.363204	0.960558
C276	C	1.377871	0.696537	1.293892
O277	O	0.744379	0.001763	0.660123
O278	O	1.077713	0.335096	0.993457
O279	O	1.411046	0.668429	1.326790
N280	N	0.672185	0.062908	0.659037
N281	N	1.005518	0.396241	0.992370
N282	N	1.338852	0.729575	1.325703
C283	C	0.633156	0.095947	0.627238
C284	C	0.966489	0.429281	0.960571
C285	C	1.299823	0.762614	1.293904
O286	O	0.599966	0.124048	0.660137
O287	O	0.933300	0.457381	0.993470
O288	O	1.266633	0.790714	1.326803
C289	C	0.633151	0.095948	0.563631
C290	C	0.966484	0.429281	0.896964
C291	C	1.299818	0.762615	1.230298
C292	C	0.672177	0.062912	0.531823
C293	C	1.005511	0.396245	0.865156
C294	C	1.338844	0.729578	1.198489
C295	C	0.750225	-0.003160	0.531809
C296	C	1.083558	0.330173	0.865142
C297	C	1.416891	0.663507	1.198475
C298	C	0.750223	-0.003156	0.468206
C299	C	1.083556	0.330177	0.801539
C300	C	1.416889	0.663511	1.134872
C301	C	0.711198	0.029882	0.436411
C302	C	1.044531	0.363215	0.769744
C303	C	1.377865	0.696549	1.103078
C304	C	0.672175	0.062916	0.468219
C305	C	1.005509	0.396249	0.801553
C306	C	1.338842	0.729583	1.134886
C307	C	0.594120	0.128985	0.531833
C308	C	0.927453	0.462318	0.865166
C309	C	1.260787	0.795651	1.198500
C310	C	0.594118	0.128982	0.468222
C311	C	0.927451	0.462316	0.801556
C312	C	1.260785	0.795649	1.134889
C313	C	0.633144	0.095946	0.436414
C314	C	0.966478	0.429279	0.769747
C315	C	1.299811	0.762613	1.103081
C316	C	0.633148	0.095958	0.372822
C317	C	0.966482	0.429291	0.706155
C318	C	1.299815	0.762625	1.039488
N319	N	0.672168	0.062921	0.341010
N320	N	1.005502	0.396254	0.674343
N321	N	1.338835	0.729587	1.007676
C322	C	0.711193	0.029883	0.372804
C323	C	1.044526	0.363216	0.706138
C324	C	1.377860	0.696549	1.039471
C325	C	0.633169	0.095943	0.760815
C326	C	0.966502	0.429276	1.094149
C327	C	1.299835	0.762610	1.427482
C328	C	0.633176	0.095945	0.824421
C329	C	0.966509	0.429278	1.157754
C330	C	1.299842	0.762612	1.491087
C331	C	0.711224	0.029867	0.824404
C332	C	1.044557	0.363201	1.157737
C333	C	1.377891	0.696534	1.491070
C334	C	0.711219	0.029868	0.760797
C335	C	1.044552	0.363201	1.094130
C336	C	1.377886	0.696535	1.427464
C337	C	0.672189	0.062906	0.729004
C338	C	1.005522	0.396239	1.062337
C339	C	1.338855	0.729572	1.395670
C340	C	0.711186	0.029894	0.239233
C341	C	1.044519	0.363227	0.572566
C342	C	1.377853	0.696561	0.905900
C343	C	0.711182	0.029902	0.175624
C344	C	1.044515	0.363236	0.508958
C345	C	1.377849	0.696569	0.842291
C346	C	0.633132	0.095978	0.175647
C347	C	0.966465	0.429311	0.508980
C348	C	1.299799	0.762645	0.842314
C349	C	0.633138	0.095971	0.239250
C350	C	0.966471	0.429305	0.572583
C351	C	1.299804	0.762638	0.905917
C352	C	0.672167	0.062925	0.271042
C353	C	1.005500	0.396259	0.604375
C354	C	1.338834	0.729592	0.937708
O355	O	0.599989	0.124050	0.339883
O356	O	0.933323	0.457383	0.673216
O357	O	1.266656	0.790717	1.006549
O358	O	0.744372	0.001783	0.339898
O359	O	1.077705	0.335116	0.673231
O360	O	1.411039	0.668450	1.006564
H361	H	0.138504	-0.061653	0.000055
H362	H	0.471838	0.271681	0.333388
H363	H	0.805171	0.605014	0.666721
H364	H	0.098086	0.186400	0.000030
H365	H	0.431419	0.519733	0.333363
H366	H	0.764752	0.853067	0.666697
F367	F	0.673735	-0.309416	-0.168774
F368	F	1.007068	0.023917	0.164560
F369	F	1.340402	0.357250	0.497893
H370	H	0.671777	-0.466972	0.155036
H371	H	1.005110	-0.133639	0.488369
H372	H	1.338443	0.199695	0.821703
H373	H	0.671829	-0.466955	-0.155010
H374	H	1.005162	-0.133622	0.178324
H375	H	1.338496	0.199711	0.511657
H376	H	0.601403	0.122851	0.850315
H377	H	0.934736	0.456184	1.183648
H378	H	1.268070	0.789518	1.516981
F379	F	0.752725	-0.005277	0.273059
F380	F	1.086059	0.328056	0.606392
F381	F	1.419392	0.661389	0.939725
H382	H	0.670725	-0.558418	-0.155008
H383	H	1.004058	-0.225084	0.178325
H384	H	1.337391	0.108249	0.511658
H385	H	0.742964	0.003000	0.149728
H386	H	1.076297	0.336334	0.483061
H387	H	1.409630	0.669667	0.816394
F388	F	0.791757	-0.038319	0.434358
F389	F	1.125090	0.295014	0.767692
F390	F	1.458423	0.628347	1.101025
H391	H	0.670673	-0.558421	0.155032
H392	H	1.004007	-0.225087	0.488365
H393	H	1.337340	0.108246	0.821698
F394	F	0.552574	0.164146	0.434390
F395	F	0.885907	0.497479	0.767723
F396	F	1.219240	0.830812	1.101056
F397	F	-0.147537	-0.031452	0.000041
F398	F	0.185796	0.301882	0.333374
F399	F	0.519130	0.635215	0.666708
F400	F	-0.024939	-0.030211	0.000054
F401	F	0.308395	0.303122	0.333387
F402	F	0.641728	0.636456	0.666720
F403	F	0.791763	-0.038327	0.565638
F404	F	1.125096	0.295006	0.898972
F405	F	1.458430	0.628340	1.232305
F406	F	0.667829	-0.796640	0.113712
F407	F	1.001162	-0.463307	0.447045
F408	F	1.334495	-0.129974	0.780379
F409	F	0.673657	-0.309418	0.168824
F410	F	1.006991	0.023916	0.502158
F411	F	1.340324	0.357249	0.835491
H412	H	0.601365	0.122877	0.265149
H413	H	0.934698	0.456210	0.598482
H414	H	1.268031	0.789544	0.931816
H415	H	0.742997	0.002967	0.734902
H416	H	1.076331	0.336300	1.068236
H417	H	1.409664	0.669634	1.401569
F418	F	0.675242	-0.181589	0.113753
F419	F	1.008575	0.151744	0.447086
F420	F	1.341909	0.485077	0.780420
H421	H	0.669037	-0.698871	-0.099941
H422	H	1.002370	-0.365538	0.233392
H423	H	1.335703	-0.032205	0.566726
F424	F	0.752757	-0.005295	0.858254
F425	F	1.086090	0.328038	1.191587
F426	F	1.419423	0.661371	1.524921
F427	F	0.591602	0.131139	0.141799
F428	F	0.924935	0.464472	0.475132
F429	F	1.258268	0.797806	0.808466
F430	F	0.398919	-0.025903	0.000037
F431	F	0.732253	0.307430	0.333371
F432	F	1.065586	0.640763	0.666704
F433	F	0.255466	-0.071502	0.000058
F434	F	0.588799	0.261831	0.333391
F435	F	0.922132	0.595164	0.666725
F436	F	0.521534	-0.024651	0.000032
F437	F	0.854867	0.308682	0.333365
F438	F	1.188200	0.642015	0.666699
F439	F	0.369284	0.156054	0.000003
F440	F	0.702617	0.489388	0.333337
F441	F	1.035950	0.822721	0.666670
F442	F	0.211461	0.198594	0.000017
F443	F	0.544794	0.531928	0.333351
F444	F	0.878127	0.865261	0.666684
F445	F	0.491880	0.157299	-0.000014
F446	F	0.825214	0.490632	0.333319
F447	F	1.158547	0.823966	0.666652
F448	F	-0.054564	0.151747	0.000006
F449	F	0.278770	0.485081	0.333340
F450	F	0.612103	0.818414	0.666673
H451	H	-0.167960	0.139553	0.000012
H452	H	0.165373	0.472887	0.333345
H453	H	0.498706	0.806220	0.666678
H454	H	0.668999	-0.698885	0.099947
H455	H	1.002332	-0.365552	0.433280
H456	H	1.335665	-0.032218	0.766614
F457	F	0.552582	0.164146	0.565675
F458	F	0.885916	0.497479	0.899008
F459	F	1.219249	0.830812	1.232341
H460	H	0.676455	-0.083813	-0.099897
H461	H	1.009789	0.249521	0.233437
H462	H	1.343122	0.582854	0.566770
H463	H	0.672488	-0.407173	0.155049
H464	H	1.005821	-0.073840	0.488382
H465	H	1.339155	0.259494	0.821716
H466	H	0.676420	-0.083817	0.099981
H467	H	1.009753	0.249517	0.433315
H468	H	1.343087	0.582850	0.766648
H469	H	0.672550	-0.407167	-0.155006
H470	H	1.005884	-0.073833	0.178328
H471	H	1.339217	0.259500	0.511661
F472	F	0.675266	-0.181565	-0.113683
F473	F	1.008600	0.151769	0.219650
F474	F	1.341933	0.485102	0.552984
F475	F	0.667856	-0.796641	-0.113714
F476	F	1.001189	-0.463307	0.219620
F477	F	1.334522	-0.129974	0.552953
F478	F	0.591628	0.131111	0.726983
F479	F	0.924961	0.464445	1.060317
F480	F	1.258295	0.797778	1.393650
