data_functionalizedCrystal
_audit_creation_method	'MofGen! by Chris Wilmer'
_symmetry_space_group_name_H-M	'P1'
_symmetry_Int_Tables_number	1
_symmetry_cell_setting	triclinic
loop_
_symmetry_equiv_pos_as_xyz
  x,y,z
_cell_length_a	10.654541
_cell_length_b	15.995350
_cell_length_c	9.730217
_cell_angle_alpha	89.998981
_cell_angle_beta	89.999932
_cell_angle_gamma	83.988152
loop_
_atom_site_label
_atom_site_type_symbol
_atom_site_fract_x
_atom_site_fract_y
_atom_site_fract_z
O1	O	1.666302	0.117591	-0.114240
O2	O	1.300677	0.128798	-0.114252
O3	O	1.493484	0.001365	-0.114244
O4	O	1.473495	0.245024	-0.114248
O5	O	1.493478	0.001364	0.114336
O6	O	1.300671	0.128797	0.114328
O7	O	1.666296	0.117590	0.114340
Zn8	Zn	1.483483	0.123193	0.150626
Zn9	Zn	1.483491	0.123195	-0.150538
O10	O	1.473489	0.245023	0.114332
C11	C	1.253887	0.127975	0.000037
C12	C	1.114475	0.125514	0.000032
C13	C	1.084514	0.277895	0.000013
C14	C	1.004039	0.352926	-0.000002
C15	C	0.873052	0.350609	-0.000003
C16	C	0.822537	0.273253	0.000015
C17	C	0.903011	0.198222	0.000030
C18	C	1.034000	0.200547	0.000027
C19	C	0.932972	0.045843	0.000059
C20	C	1.063961	0.048158	0.000050
C21	C	0.882458	-0.031513	0.000077
C22	C	0.962933	-0.106546	0.000082
C23	C	1.093928	-0.104226	0.000082
C24	C	1.144435	-0.026873	0.000065
C25	C	1.492655	-0.029835	0.000043
C26	C	1.490177	-0.122800	0.000035
C27	C	1.481280	-0.460599	0.000039
C28	C	1.343966	-0.413961	-0.000477
C29	C	1.346444	-0.317257	0.000038
C30	C	1.485693	-0.293013	0.000037
C31	C	1.553418	-0.333698	0.130567
C32	C	1.549969	-0.430354	0.130676
C33	C	1.552812	-0.430694	-0.129262
C34	C	1.552779	-0.333749	-0.130988
C35	C	1.488195	-0.198301	0.000039
C36	C	1.478783	-0.555311	0.000046
C37	C	1.713087	0.118413	0.000048
C38	C	1.852498	0.120874	0.000044
C39	C	1.474318	0.276223	0.000042
C40	C	1.476796	0.369188	0.000041
N41	N	1.483487	0.123192	0.356163
N42	N	1.483497	0.123190	-0.356075
C43	C	1.654287	0.010383	0.356160
C44	C	1.739695	-0.046019	0.428098
C45	C	1.739708	-0.046019	0.571978
C46	C	1.654301	0.010387	0.643922
C47	C	1.568892	0.066788	0.571984
C48	C	1.568891	0.066785	0.428101
C49	C	1.398088	0.179592	0.571987
C50	C	1.398079	0.179598	0.428107
C51	C	1.312681	0.235998	0.643932
C52	C	1.227276	0.292405	0.571993
C53	C	1.227268	0.292404	0.428105
C54	C	1.312671	0.236000	0.356169
H55	H	0.775800	-0.033395	0.000083
H56	H	1.289324	-0.433873	0.092604
N57	N	1.279204	-0.282697	0.117620
N58	N	1.230306	-0.330010	0.199564
H59	H	1.182817	-0.305604	0.282614
H60	H	1.500579	-0.448942	0.228250
H61	H	1.650782	-0.462017	0.136597
H62	H	0.715878	0.271373	0.000030
H63	H	1.157738	0.338323	0.630580
N64	N	1.654283	0.010389	0.790891
N65	N	1.578020	0.060748	0.855110
H66	H	1.577999	0.060748	0.958909
H67	H	1.251090	-0.024976	0.000049
H68	H	0.921792	-0.169523	0.000095
N69	N	1.826917	-0.103633	0.354587
N70	N	1.826899	-0.103629	0.226124
H71	H	1.888497	-0.144320	0.174208
H72	H	1.503264	-0.306787	-0.227550
N73	N	1.680178	-0.313755	-0.140859
N74	N	1.769150	-0.371275	-0.141195
H75	H	1.859132	-0.357155	-0.148154
N76	N	1.176109	-0.180878	0.000116
N77	N	1.130984	-0.249933	0.000141
H78	H	1.189019	-0.304071	0.000169
H79	H	1.293208	-0.289143	-0.093531
N80	N	1.826931	-0.103631	0.645490
N81	N	1.787098	-0.155849	0.725789
H82	H	1.848697	-0.196537	0.777711
H83	H	1.312676	0.235997	0.239014
N84	N	1.218316	0.280248	0.000017
N85	N	1.290154	0.213251	0.000034
H86	H	1.384654	0.214912	0.000038
H87	H	1.312689	0.235991	0.761086
N88	N	1.275131	-0.437605	-0.117917
N89	N	1.326464	-0.489108	-0.202605
H90	H	1.277851	-0.505809	-0.285554
H91	H	1.655721	-0.318979	0.135420
N92	N	1.494395	-0.298434	0.252417
N93	N	1.402468	-0.243350	0.243463
H94	H	1.360775	-0.218445	0.329516
H95	H	1.507920	-0.451494	-0.228196
N96	N	1.140006	0.350018	0.354648
N97	N	1.063761	0.400368	0.418906
H98	H	1.002129	0.441060	0.367032
N99	N	1.679828	-0.469779	-0.130364
N100	N	1.752217	-0.458226	-0.032672
H101	H	1.841921	-0.485829	-0.033439
N102	N	1.055660	0.431933	-0.000009
N103	N	1.172614	0.433996	-0.000007
H104	H	1.209070	0.489795	-0.000009
N105	N	0.790825	0.427241	-0.000034
N106	N	0.673876	0.425153	-0.000041
H107	H	0.615800	0.479274	-0.000064
N108	N	1.654307	0.010424	0.209191
N109	N	1.751324	0.024906	0.144998
H110	H	1.751344	0.024944	0.041199
