data_functionalizedCrystal
_audit_creation_method	'MofGen! by Chris Wilmer'
_symmetry_space_group_name_H-M	'P1'
_symmetry_Int_Tables_number	1
_symmetry_cell_setting	triclinic
loop_
_symmetry_equiv_pos_as_xyz
  x,y,z
_cell_length_a	19.805407
_cell_length_b	18.050589
_cell_length_c	18.050591
_cell_angle_alpha	90.013707
_cell_angle_beta	90.009790
_cell_angle_gamma	90.028221
loop_
_atom_site_label
_atom_site_type_symbol
_atom_site_fract_x
_atom_site_fract_y
_atom_site_fract_z
Zn1	Zn	1.034662	-0.295740	0.419953
Zn2	Zn	1.034592	-0.419913	0.295773
Zn3	Zn	0.921496	-0.295741	0.295776
Zn4	Zn	0.921436	-0.419892	0.419919
O5	O	0.978047	-0.357822	0.357855
O6	O	1.129369	-0.312219	0.403494
O7	O	1.019586	-0.403451	0.191849
O8	O	0.936561	-0.191817	0.312263
O9	O	1.129318	-0.403449	0.312259
O10	O	1.019704	-0.191815	0.403496
O11	O	0.936494	-0.312223	0.191851
O12	O	0.826771	-0.312202	0.312230
O13	O	0.936460	-0.403414	0.523848
O14	O	0.826728	-0.403415	0.403438
O15	O	1.019646	-0.312199	0.523873
O16	O	1.019528	-0.523835	0.312226
O17	O	0.936393	-0.523820	0.403436
C18	C	0.802191	-0.357807	0.357831
C19	C	0.726959	-0.357819	0.357839
C20	C	0.977965	-0.550774	0.357843
C21	C	0.977992	-0.633320	0.357863
C22	C	0.691609	-0.405385	0.405254
C23	C	0.620921	-0.405387	0.405264
C24	C	0.585583	-0.357825	0.357855
C25	C	0.620937	-0.310254	0.310438
C26	C	0.691624	-0.310249	0.310432
C27	C	0.335864	-0.310270	0.310463
C28	C	0.265172	-0.310280	0.310471
C29	C	0.265161	-0.405408	0.405295
C30	C	0.335848	-0.405403	0.405289
C31	C	0.371196	-0.357829	0.357875
C32	C	0.447844	-0.357827	0.357865
C33	C	0.508936	-0.357830	0.357861
C34	C	0.932827	-0.832789	0.407445
C35	C	0.916340	-0.882217	0.339678
C36	C	0.978058	-0.784450	0.357872
C37	C	0.994579	-0.882103	0.425648
C38	C	0.978121	-0.930435	0.357888
C39	C	0.961538	-0.832791	0.290069
C40	C	1.039807	-0.832672	0.376084
C41	C	1.023342	-0.882079	0.308270
C42	C	0.978020	-0.700352	0.357864
C43	C	0.978159	-1.014531	0.357888
C44	C	1.154589	-0.357836	0.357880
C45	C	1.229821	-0.357843	0.357890
C46	C	0.978054	-0.357804	0.551561
C47	C	0.978058	-0.357796	0.634107
C48	C	0.978147	-0.164116	0.357884
C49	C	0.978190	-0.081570	0.357896
C50	C	1.023299	-0.308206	0.882946
C51	C	1.039823	-0.375957	0.833537
C52	C	0.978057	-0.357824	0.931227
C53	C	0.961566	-0.290063	0.833554
C54	C	0.978059	-0.357807	0.785242
C55	C	0.994613	-0.425611	0.882906
C56	C	0.916327	-0.339671	0.882927
C57	C	0.932827	-0.407469	0.833540
C58	C	0.978058	-0.357833	1.015325
C59	C	0.978058	-0.357806	0.701145
C60	C	0.978040	-0.357849	1.164903
C61	C	0.978056	-0.357835	1.082357
H62	H	0.592143	-0.444120	0.443874
C63	C	0.798343	-0.370148	0.886226
C64	C	0.845875	-0.318922	0.912250
H65	H	0.754850	-0.357328	0.904329
H66	H	0.810003	-0.418312	0.903093
H67	H	0.797933	-0.369534	0.833604
H68	H	0.846288	-0.319540	0.964871
H69	H	0.834212	-0.270746	0.895387
H70	H	0.864151	-0.903996	0.324287
H71	H	0.947529	-0.811220	0.232742
H72	H	1.061620	-0.903585	0.266306
H73	H	1.091984	-0.810896	0.391507
C74	C	0.965945	-0.886457	0.554819
C75	C	1.013415	-0.911342	0.503013
H76	H	0.977574	-0.904503	0.602582
H77	H	0.922420	-0.904153	0.541548
H78	H	0.965658	-0.833835	0.555468
H79	H	1.013699	-0.963964	0.502360
H80	H	1.056952	-0.893649	0.516288
C81	C	0.966452	-0.554958	0.886531
C82	C	1.013532	-0.502979	0.912049
H83	H	0.978133	-0.602717	0.904530
H84	H	0.966555	-0.555429	0.833913
H85	H	0.922741	-0.541982	0.903855
H86	H	1.057243	-0.515952	0.894719
H87	H	1.013436	-0.502510	0.964677
H88	H	0.894521	-0.811145	0.449308
C89	C	0.328735	-0.499430	0.499029
C90	C	0.374690	-0.457682	0.457405
H91	H	0.352715	-0.531700	0.531208
H92	H	0.301148	-0.527794	0.466628
H93	H	0.301181	-0.467108	0.527490
H94	H	0.402241	-0.490004	0.428939
H95	H	0.402288	-0.429316	0.489810
C96	C	0.156797	-0.447655	0.447425
C97	C	0.226304	-0.457695	0.457423
H98	H	0.132811	-0.479933	0.479609
H99	H	0.145197	-0.458452	0.397516
H100	H	0.145242	-0.397772	0.458384
H101	H	0.237859	-0.507578	0.446459
H102	H	0.237908	-0.446903	0.507343
C103	C	1.139597	-0.270830	0.887306
C104	C	1.074983	-0.251645	0.912240
H105	H	1.171504	-0.235916	0.905396
H106	H	1.140235	-0.270745	0.834691
H107	H	1.150875	-0.318839	0.904933
H108	H	1.063703	-0.203638	0.894608
H109	H	1.074344	-0.251722	0.964866
H110	H	0.236401	-0.271545	0.271865
C111	C	1.128012	-0.467125	0.830245
C112	C	1.110298	-0.396683	0.804252
H113	H	1.171523	-0.479914	0.812173
H114	H	1.095922	-0.502404	0.813326
H115	H	1.128614	-0.466826	0.882868
H116	H	1.109690	-0.396984	0.751630
H117	H	1.142396	-0.361395	0.821167
C118	C	0.771062	-0.505298	0.415398
C119	C	0.730449	-0.457668	0.457368
H120	H	0.795034	-0.537577	0.447575
H121	H	0.802231	-0.476971	0.387166
H122	H	0.743460	-0.533657	0.382998
H123	H	0.758051	-0.429305	0.489765
H124	H	0.699276	-0.485999	0.485613
C125	C	0.771149	-0.210330	0.300275
C126	C	0.730480	-0.257963	0.258309
H127	H	0.795132	-0.178046	0.268095
H128	H	0.802309	-0.238654	0.328501
H129	H	0.743584	-0.181976	0.332681
H130	H	0.758046	-0.286321	0.225907
H131	H	0.699317	-0.229636	0.230071
C132	C	0.328765	-0.216238	0.216734
C133	C	0.374712	-0.257979	0.258345
H134	H	0.352752	-0.183957	0.184555
H135	H	0.301211	-0.187887	0.249143
H136	H	0.301177	-0.248565	0.188273
H137	H	0.402297	-0.225652	0.286810
H138	H	0.402277	-0.286332	0.225931
H139	H	0.592159	-0.271525	0.271840
C140	C	0.881207	-0.463270	0.726864
C141	C	0.881176	-0.464161	0.804432
H142	H	0.849319	-0.498267	0.708895
H143	H	0.924922	-0.475754	0.709211
H144	H	0.869390	-0.415184	0.709884
H145	H	0.892998	-0.512245	0.821413
H146	H	0.837452	-0.451682	0.822093
H147	H	0.947617	-0.232767	0.811873
