data_functionalizedCrystal
_audit_creation_method	'MofGen! by Chris Wilmer'
_symmetry_space_group_name_H-M	'P1'
_symmetry_Int_Tables_number	1
_symmetry_cell_setting	triclinic
loop_
_symmetry_equiv_pos_as_xyz
  x,y,z
_cell_length_a	13.339070
_cell_length_b	13.185407
_cell_length_c	16.053802
_cell_angle_alpha	88.298640
_cell_angle_beta	86.730022
_cell_angle_gamma	96.198611
loop_
_atom_site_label
_atom_site_type_symbol
_atom_site_fract_x
_atom_site_fract_y
_atom_site_fract_z
O1	O	0.248578	1.376354	-0.069418
O2	O	0.153841	1.087522	-0.069420
O3	O	0.339448	1.198790	-0.069422
O4	O	0.062970	1.265087	-0.069416
O5	O	0.329264	1.192655	0.069437
O6	O	0.143657	1.081388	0.069439
O7	O	0.238394	1.370220	0.069441
Zn8	Zn	0.189408	1.224830	0.091487
Zn9	Zn	0.202826	1.232912	-0.091466
O10	O	0.052786	1.258952	0.069443
C11	C	0.139144	1.046732	0.000009
C12	C	0.110538	0.934328	0.000008
C13	C	0.383552	0.562466	0.000006
C14	C	0.410432	0.668075	0.000012
C15	C	0.335461	0.734643	0.000011
C16	C	0.233605	0.695592	0.000004
C17	C	0.206721	0.589973	0.000004
C18	C	0.158630	0.762150	0.000009
C19	C	0.056774	0.723099	0.000002
C20	C	0.029896	0.617490	0.000002
C21	C	0.104867	0.550921	0.000003
C22	C	0.185514	0.867770	0.000009
C23	C	0.008683	0.895276	0.000007
C24	C	-0.018197	0.789668	0.000001
C25	C	0.023238	1.273218	0.000014
C26	C	-0.079976	1.306599	0.000016
C27	C	-0.515432	1.047045	0.000003
C28	C	-0.418460	1.015678	0.000014
C29	C	-0.333834	1.088406	0.000015
C30	C	-0.346190	1.192506	0.000003
C31	C	-0.443172	1.223876	-0.000002
C32	C	-0.261575	1.265236	0.000010
C33	C	-0.273930	1.369336	-0.000001
C34	C	-0.370904	1.400701	-0.000007
C35	C	-0.455529	1.327973	-0.000007
C36	C	-0.164593	1.233867	0.000015
C37	C	-0.092333	1.410697	0.000011
C38	C	-0.189305	1.442064	-0.000001
C39	C	0.368997	1.184524	0.000005
C40	C	0.472211	1.151143	-0.000002
C41	C	0.253090	1.411010	0.000010
C42	C	0.281697	1.523414	0.000005
N43	N	0.180254	1.219321	0.216347
N44	N	0.211990	1.238427	-0.216326
C45	C	0.259215	1.266696	0.260040
C46	C	0.252805	1.262855	0.347447
C47	C	0.167430	1.211644	0.391159
C48	C	0.088464	1.164263	0.347460
C49	C	0.094878	1.168099	0.260055
C50	C	0.139439	1.194881	0.652569
C51	C	0.133029	1.191051	0.739981
C52	C	0.297372	1.289642	0.739961
C53	C	0.303776	1.293479	0.652555
C54	C	0.224812	1.246093	0.608863
N55	N	0.160874	1.207719	0.480503
N56	N	0.231372	1.250012	0.519521
H57	H	0.444580	0.508257	0.000031
Br58	Br	0.022509	1.509406	0.000017
Br59	Br	0.375083	1.336210	0.200726
Br60	Br	0.032276	1.130576	0.593278
Br61	Br	-0.012284	1.103792	0.200757
H62	H	-0.052365	0.949477	0.000009
Br63	Br	-0.027401	1.094751	0.406780
H64	H	-0.380959	1.485465	-0.000007
H65	H	-0.154544	1.149108	0.000028
Br66	Br	0.323742	0.920754	0.000020
Br67	Br	0.548658	0.721066	0.000029
H68	H	-0.408407	0.930920	0.000019
Br69	Br	-0.108338	0.564493	0.000006
H70	H	0.082987	0.464925	-0.000006
Br71	Br	0.359970	1.327146	0.406748
H72	H	0.361661	1.328220	0.775543
Br73	Br	-0.156425	0.736658	-0.000012
Br74	Br	-0.202227	1.045835	0.000029
Br75	Br	0.419640	1.362984	0.593229
Br76	Br	0.017149	1.121550	0.799299
H77	H	0.357353	0.820634	0.000016
H78	H	-0.584340	0.987842	0.000008
Br79	Br	-0.587141	1.370541	-0.000035
H80	H	-0.199379	1.526824	-0.000016
