data_functionalizedCrystal
_audit_creation_method	'MofGen! by Chris Wilmer'
_symmetry_space_group_name_H-M	'P1'
_symmetry_Int_Tables_number	1
_symmetry_cell_setting	triclinic
loop_
_symmetry_equiv_pos_as_xyz
  x,y,z
_cell_length_a	14.044220
_cell_length_b	14.044220
_cell_length_c	12.503552
_cell_angle_alpha	93.839891
_cell_angle_beta	93.839943
_cell_angle_gamma	86.811122
loop_
_atom_site_label
_atom_site_type_symbol
_atom_site_fract_x
_atom_site_fract_y
_atom_site_fract_z
O1	O	0.225121	-1.282207	-0.089210
O2	O	0.558454	-0.948873	0.244123
O3	O	0.891788	-0.615540	0.577456
O4	O	0.216814	-1.005537	-0.089237
O5	O	0.550147	-0.672204	0.244096
O6	O	0.883480	-0.338870	0.577429
O7	O	0.082632	-1.139718	-0.089214
O8	O	0.415966	-0.806385	0.244120
O9	O	0.749299	-0.473052	0.577453
O10	O	0.359303	-1.148025	-0.089234
O11	O	0.692636	-0.814692	0.244099
O12	O	1.025969	-0.481359	0.577433
O13	O	0.092732	-1.129615	0.089427
O14	O	0.426065	-0.796282	0.422760
O15	O	0.759399	-0.462949	0.756094
O16	O	0.226914	-0.995434	0.089403
O17	O	0.560247	-0.662100	0.422737
O18	O	0.893580	-0.328767	0.756070
O19	O	0.235221	-1.272104	0.089430
O20	O	0.568554	-0.938770	0.422764
O21	O	0.901888	-0.605437	0.756097
Cu22	Cu	0.231989	-1.132846	0.105728
Cu23	Cu	0.565323	-0.799513	0.439062
Cu24	Cu	0.898656	-0.466180	0.772395
Cu25	Cu	0.220045	-1.144794	-0.105535
Cu26	Cu	0.553379	-0.811461	0.227798
Cu27	Cu	0.886712	-0.478128	0.561131
O28	O	0.369402	-1.137922	0.089407
O29	O	0.702736	-0.804589	0.422740
O30	O	1.036069	-0.471255	0.756073
C31	C	0.052060	-1.131031	0.000107
C32	C	0.385394	-0.797698	0.333440
C33	C	0.718727	-0.464365	0.666773
C34	C	-0.054082	-1.120187	0.000107
C35	C	0.279251	-0.786853	0.333440
C36	C	0.612584	-0.453520	0.666774
C37	C	0.218228	-0.964864	0.000080
C38	C	0.551561	-0.631530	0.333413
C39	C	0.884895	-0.298197	0.666746
C40	C	0.207383	-0.858721	0.000070
C41	C	0.540716	-0.525388	0.333403
C42	C	0.874049	-0.192055	0.666736
C43	C	0.233807	-1.312777	0.000111
C44	C	0.567140	-0.979444	0.333444
C45	C	0.900473	-0.646110	0.666778
C46	C	0.244651	-1.418920	0.000114
C47	C	0.577985	-1.085586	0.333447
C48	C	0.911318	-0.752253	0.666781
C49	C	-0.248421	-1.100361	0.000090
C50	C	0.084912	-0.767028	0.333423
C51	C	0.418246	-0.433695	0.666756
C52	C	-0.299551	-1.177275	0.000094
C53	C	0.033783	-0.843942	0.333427
C54	C	0.367116	-0.510609	0.666761
C55	C	-0.407687	-1.166244	0.000084
C56	C	-0.074354	-0.832911	0.333418
C57	C	0.258979	-0.499578	0.666751
C58	C	-0.140274	-1.111391	0.000099
C59	C	0.193059	-0.778058	0.333433
C60	C	0.526392	-0.444724	0.666766
C61	C	0.399974	-1.146609	0.000084
C62	C	0.733308	-0.813276	0.333417
C63	C	1.066641	-0.479943	0.666751
C64	C	0.506117	-1.157454	0.000077
C65	C	0.839450	-0.824121	0.333410
C66	C	1.172783	-0.490788	0.666743
N67	N	0.240390	-1.124449	0.254319
N68	N	0.573724	-0.791116	0.587653
N69	N	0.907057	-0.457783	0.920986
C70	C	0.187558	-0.664382	0.000092
C71	C	0.520891	-0.331049	0.333426
C72	C	0.854224	0.002284	0.666759
C73	C	0.264472	-0.613253	0.000091
C74	C	0.597805	-0.279919	0.333425
C75	C	0.931139	0.053414	0.666758
C76	C	0.253441	-0.505116	0.000104
C77	C	0.586775	-0.171782	0.333437
C78	C	0.920108	0.161551	0.666771
C79	C	0.198587	-0.772529	0.000080
C80	C	0.531921	-0.439196	0.333413
C81	C	0.865254	-0.105863	0.666746
N82	N	0.211637	-1.153198	-0.254126
N83	N	0.544971	-0.819865	0.079207
N84	N	0.878304	-0.486531	0.412540
C85	C	0.199276	-1.165545	0.526760
C86	C	0.532609	-0.832211	0.860093
C87	C	0.865942	-0.498878	1.193426
C88	C	0.252749	-1.112106	0.473426
C89	C	0.586082	-0.778772	0.806760
C90	C	0.919416	-0.445439	1.140093
C91	C	0.245871	-1.118975	0.351504
C92	C	0.579204	-0.785642	0.684837
C93	C	0.912538	-0.452309	1.018171
C94	C	0.206153	-1.158676	0.648693
C95	C	0.539486	-0.825343	0.982027
C96	C	0.872820	-0.492009	1.315360
H97	H	-0.285859	-1.026234	0.000080
H98	H	0.047475	-0.692901	0.333413
H99	H	0.380808	-0.359568	0.666747
O100	O	0.352942	-0.657863	0.000255
O101	O	0.686275	-0.324530	0.333588
O102	O	1.019609	0.008804	0.666921
C103	C	0.408083	-0.625902	0.092750
C104	C	0.741416	-0.292569	0.426084
C105	C	1.074750	0.040765	0.759417
H106	H	0.358663	-0.597111	0.157437
H107	H	0.691997	-0.263778	0.490771
H108	H	1.025330	0.069556	0.824104
H109	H	0.455456	-0.687986	0.123780
H110	H	0.788789	-0.354653	0.457114
H111	H	1.122122	-0.021319	0.790447
H112	H	0.454718	-0.566767	0.071829
H113	H	0.788051	-0.233434	0.405162
H114	H	1.121385	0.099900	0.738496
O115	O	0.099189	-0.619578	0.000049
O116	O	0.432522	-0.286244	0.333383
O117	O	0.765855	0.047089	0.666716
C118	C	0.107712	-0.520018	0.000084
C119	C	0.441045	-0.186685	0.333417
C120	C	0.774378	0.146648	0.666751
H121	H	0.178365	-0.504967	-0.033732
H122	H	0.511699	-0.171634	0.299602
H123	H	0.845032	0.161700	0.632935
H124	H	0.046034	-0.487519	-0.051780
H125	H	0.379367	-0.154185	0.281553
H126	H	0.712701	0.179148	0.614887
H127	H	0.105627	-0.487063	0.085789
H128	H	0.438961	-0.153730	0.419122
H129	H	0.772294	0.179603	0.752456
O130	O	0.138565	-1.226418	0.472133
O131	O	0.471898	-0.893085	0.805466
O132	O	0.805232	-0.559752	1.138799
C133	C	0.163626	-1.320725	0.499504
C134	C	0.496960	-0.987391	0.832838
C135	C	0.830293	-0.654058	1.166171
H136	H	0.204954	-1.319191	0.581190
H137	H	0.538287	-0.985858	0.914523
H138	H	0.871620	-0.652524	1.247857
H139	H	0.096053	-1.361441	0.503217
H140	H	0.429386	-1.028108	0.836550
H141	H	0.762719	-0.694774	1.169883
H142	H	0.210136	-1.357801	0.436241
H143	H	0.543469	-1.024468	0.769574
H144	H	0.876803	-0.691134	1.102908
O145	O	0.313407	-1.051316	0.528300
O146	O	0.646740	-0.717983	0.861634
O147	O	0.980074	-0.384649	1.194967
C148	C	0.260923	-0.984434	0.593341
C149	C	0.594256	-0.651100	0.926674
C150	C	0.927589	-0.317767	1.260008
H151	H	0.190355	-1.015162	0.610058
H152	H	0.523688	-0.681829	0.943391
H153	H	0.857022	-0.348495	1.276725
H154	H	0.303896	-0.968338	0.672475
H155	H	0.637229	-0.635004	1.005809
H156	H	0.970563	-0.301671	1.339142
H157	H	0.246078	-0.915719	0.550086
H158	H	0.579411	-0.582386	0.883419
H159	H	0.912745	-0.249053	1.216752
O160	O	-0.254739	-1.265645	0.000161
O161	O	0.078594	-0.932312	0.333494
O162	O	0.411928	-0.598978	0.666828
C163	C	-0.155181	-1.257134	0.000142
C164	C	0.178152	-0.923801	0.333475
C165	C	0.511486	-0.590467	0.666809
H166	H	-0.136309	-1.182658	0.033949
H167	H	0.197025	-0.849325	0.367282
H168	H	0.530358	-0.515992	0.700615
H169	H	-0.116835	-1.312948	0.052022
H170	H	0.216499	-0.979614	0.385355
H171	H	0.549832	-0.646281	0.718689
H172	H	-0.131895	-1.268914	-0.085557
H173	H	0.201438	-0.935581	0.247776
H174	H	0.534772	-0.602247	0.581110
