data_functionalizedCrystal
_audit_creation_method	'MofGen! by Chris Wilmer'
_symmetry_space_group_name_H-M	'P1'
_symmetry_Int_Tables_number	1
_symmetry_cell_setting	triclinic
loop_
_symmetry_equiv_pos_as_xyz
  x,y,z
_cell_length_a	27.732048
_cell_length_b	16.974800
_cell_length_c	16.053789
_cell_angle_alpha	89.238068
_cell_angle_beta	92.912067
_cell_angle_gamma	83.017409
loop_
_atom_site_label
_atom_site_type_symbol
_atom_site_fract_x
_atom_site_fract_y
_atom_site_fract_z
O1	O	0.061535	1.048336	-0.001422
O2	O	0.069796	0.818693	0.014103
O3	O	-0.004716	0.940646	0.005843
O4	O	0.136048	0.926383	0.006839
O5	O	-0.008339	0.934749	-0.132619
O6	O	0.066173	0.812796	-0.124358
O7	O	0.057913	1.042439	-0.139884
Zn8	Zn	0.061468	0.926681	-0.154105
Zn9	Zn	0.066241	0.934450	0.028324
O10	O	0.132425	0.920486	-0.131623
C11	C	0.067739	0.786374	-0.053142
C12	C	0.067001	0.698860	-0.047226
C13	C	0.064679	0.654536	-0.119924
C14	C	0.063978	0.572308	-0.114368
C15	C	0.065603	0.534406	-0.036113
C16	C	0.067924	0.578736	0.036590
C17	C	0.068622	0.660963	0.031033
C18	C	0.063726	0.288829	-0.011400
C19	C	0.063030	0.206596	-0.005849
C20	C	0.059082	0.200175	-0.156808
C21	C	0.059783	0.282403	-0.162358
C22	C	0.062102	0.326726	-0.089655
N23	N	0.064888	0.450356	-0.030432
N24	N	0.062813	0.410776	-0.095337
C25	C	-0.024535	0.937398	-0.063370
C26	C	-0.078192	0.936496	-0.063316
C27	C	-0.416866	1.002888	-0.067762
C28	C	-0.618533	0.999543	-0.067524
O29	O	-0.649659	1.060254	-0.071592
N30	N	-0.637809	0.927230	-0.062636
C31	C	-0.606665	0.855748	-0.057802
O32	O	-0.627688	0.794164	-0.053630
C33	C	-0.405000	0.859094	-0.058033
C34	C	-0.385726	0.931411	-0.062930
C35	C	-0.397592	1.075200	-0.072657
C36	C	-0.347179	1.076035	-0.072721
C37	C	-0.316039	1.004559	-0.067890
C38	C	-0.335313	0.932247	-0.062994
C39	C	-0.373857	0.787613	-0.053193
C40	C	-0.323438	0.788456	-0.053249
C41	C	-0.304164	0.860773	-0.058146
C42	C	-0.253760	0.861605	-0.058227
N43	N	-0.234483	0.933919	-0.063115
C44	C	-0.265623	1.005395	-0.067946
C45	C	-0.712543	0.853996	-0.057682
C46	C	-0.762959	0.853159	-0.057625
C47	C	-0.774823	0.996955	-0.067346
C48	C	-0.724406	0.997791	-0.067409
C49	C	-0.693267	0.926310	-0.062570
C50	C	-0.159751	1.007144	-0.068081
C51	C	-0.109332	1.007973	-0.068148
C52	C	-0.097473	0.864177	-0.058422
C53	C	-0.147887	0.863348	-0.058360
C54	C	-0.179025	0.934838	-0.063187
O55	O	-0.222605	0.800927	-0.054151
O56	O	-0.244590	1.066971	-0.072099
C57	C	-0.467280	1.002053	-0.067698
C58	C	-0.486554	0.929741	-0.062802
C59	C	-0.455414	0.858264	-0.057971
C60	C	-0.536970	0.928904	-0.062746
C61	C	-0.568109	1.000381	-0.067577
C62	C	-0.548833	1.072694	-0.072466
C63	C	-0.498419	1.073530	-0.072529
C64	C	-0.474690	0.785951	-0.053083
C65	C	-0.525104	0.785121	-0.053020
C66	C	-0.556244	0.856598	-0.057852
C67	C	0.152244	0.923734	-0.062408
C68	C	0.205901	0.924636	-0.062457
C69	C	0.059970	1.074758	-0.072636
C70	C	0.060707	1.162272	-0.078547
N71	N	0.058210	0.921385	-0.278608
C72	C	0.086288	0.966991	-0.325375
C73	C	0.084005	0.963297	-0.412533
C74	C	0.053648	0.913992	-0.452922
C75	C	0.025567	0.868384	-0.406149
C76	C	0.027846	0.872083	-0.318993
C77	C	0.043694	0.897844	-0.713243
C78	C	0.041417	0.894147	-0.800406
C79	C	0.099855	0.989062	-0.806784
C80	C	0.102135	0.992753	-0.719626
C81	C	0.074052	0.947148	-0.672860
N82	N	0.051315	0.910213	-0.542011
N83	N	0.076382	0.950932	-0.583773
N84	N	0.069495	0.939753	0.152827
H85	H	0.062079	0.536225	-0.173567
C86	C	0.114913	1.013436	-0.463971
N87	N	0.138200	1.051193	-0.502713
H88	H	0.004982	0.834945	-0.280916
H89	H	0.064355	0.175739	0.057879
H90	H	0.111011	1.007136	-0.292497
C91	C	0.062890	0.696221	-0.206012
N92	N	0.061541	0.727616	-0.270855
C93	C	-0.169088	0.783795	-0.052979
N94	N	-0.185053	0.723875	-0.048916
C95	C	0.057992	0.324090	-0.248445
N96	N	0.056644	0.355489	-0.313286
H97	H	0.122719	1.026191	-0.844870
C98	C	0.056527	0.151413	-0.236776
N99	N	0.054600	0.114687	-0.297012
C100	C	0.066272	0.337576	0.068577
N101	N	0.068189	0.374295	0.128819
C102	C	0.069711	0.537040	0.122672
N103	N	0.071058	0.505635	0.187511
C104	C	0.071178	0.709718	0.111007
N105	N	0.073102	0.746441	0.171246
H106	H	0.126854	1.032904	-0.686748
H107	H	0.016696	0.853992	-0.833287
H108	H	-0.093643	1.066865	-0.072138
C109	C	-0.193996	1.085786	-0.073398
N110	N	-0.219789	1.145020	-0.077410
H111	H	-0.331492	1.134924	-0.076705
C112	C	0.012805	0.847670	-0.661812
N113	N	-0.010460	0.809874	-0.623071
H114	H	-0.708718	1.056679	-0.071395
C115	C	-0.007826	0.814146	-0.450580
N116	N	-0.032977	0.773289	-0.484044
C117	C	-0.431839	1.153837	-0.077982
N118	N	-0.457632	1.213072	-0.082002
C119	C	-0.546298	0.705560	-0.047634
N120	N	-0.562260	0.645637	-0.043569
C121	C	-0.784154	0.773604	-0.052249
N122	N	-0.800116	0.713680	-0.048194
C123	C	-0.809086	1.075581	-0.072654
N124	N	-0.834895	1.134798	-0.076645
C125	C	-0.678295	0.775355	-0.052359
N126	N	-0.652502	0.716122	-0.048352
H127	H	-0.298086	0.730245	-0.049308
H128	H	-0.389540	0.728724	-0.049201
C129	C	-0.063210	0.785557	-0.053102
N130	N	-0.037401	0.726340	-0.049087
H131	H	-0.574196	1.130893	-0.076403
C132	C	-0.440443	0.707316	-0.047766
N133	N	-0.414649	0.648083	-0.043764
H134	H	-0.482732	1.132418	-0.076517
