data_functionalizedCrystal
_audit_creation_method	'MofGen! by Chris Wilmer'
_symmetry_space_group_name_H-M	'P1'
_symmetry_Int_Tables_number	1
_symmetry_cell_setting	triclinic
loop_
_symmetry_equiv_pos_as_xyz
  x,y,z
_cell_length_a	12.837943
_cell_length_b	14.853567
_cell_length_c	11.295483
_cell_angle_alpha	94.104625
_cell_angle_beta	85.461227
_cell_angle_gamma	89.231935
loop_
_atom_site_label
_atom_site_type_symbol
_atom_site_fract_x
_atom_site_fract_y
_atom_site_fract_z
O1	O	1.382763	0.228927	-0.098984
O2	O	1.080941	0.217348	-0.098992
O3	O	1.239915	0.092592	-0.098991
O4	O	1.223790	0.353684	-0.098985
O5	O	1.225952	0.103530	0.099059
O6	O	1.066978	0.228287	0.099059
O7	O	1.368800	0.239866	0.099067
Cu8	Cu	1.216614	0.235075	0.117146
Cu9	Cu	1.233127	0.222139	-0.117072
O10	O	1.209827	0.364623	0.099066
C11	C	1.035334	0.218906	0.000032
C12	C	0.920240	0.207240	0.000029
C13	C	0.679482	0.347487	0.000049
C14	C	0.571341	0.336530	0.000047
C15	C	0.595813	0.174369	0.000030
C16	C	0.703954	0.185327	0.000032
C17	C	0.745785	0.271888	0.000040
C18	C	0.853929	0.282844	0.000034
C19	C	0.878399	0.120685	0.000026
C20	C	0.770257	0.109728	0.000023
C21	C	1.232203	0.064410	0.000030
C22	C	1.230014	-0.035860	0.000020
C23	C	1.126324	-0.457187	0.000040
C24	C	1.315188	-0.462449	0.000045
C25	C	1.317247	-0.368241	0.000038
C26	C	1.223843	-0.318502	0.000034
C27	C	1.128380	-0.362970	0.000037
C28	C	1.412707	-0.323764	0.000047
C29	C	1.414770	-0.229551	0.000042
C30	C	1.321366	-0.179810	0.000029
C31	C	1.225899	-0.224285	0.000030
C32	C	1.132495	-0.174546	0.000026
C33	C	1.037028	-0.219019	0.000019
C34	C	1.034976	-0.313230	0.000024
C35	C	1.323418	-0.085599	0.000024
C36	C	1.134551	-0.080329	0.000023
C37	C	1.414408	0.238308	0.000040
C38	C	1.529502	0.249974	0.000036
C39	C	1.217539	0.392804	0.000042
C40	C	1.219728	0.493073	0.000044
N41	N	1.205008	0.244174	0.281883
N42	N	1.244742	0.213033	-0.281808
C43	C	1.328293	0.147484	0.531173
C44	C	1.319529	0.154367	0.655836
C45	C	1.178712	0.264819	0.655876
C46	C	1.187475	0.257935	0.531212
C47	C	1.262270	0.199267	0.468865
C48	C	1.271038	0.192389	0.344199
C49	C	1.130216	0.302836	0.344241
C50	C	1.121452	0.309719	0.468904
H51	H	0.736183	0.039252	0.000031
C52	C	0.394704	0.391737	0.000051
C53	C	0.498458	0.419630	0.000053
H54	H	0.349710	0.443043	0.000062
H55	H	0.386882	0.352823	-0.069013
H56	H	0.377149	0.360440	0.069117
H57	H	0.516015	0.450921	-0.069018
H58	H	0.506284	0.458559	0.069124
C59	C	1.428116	0.022920	0.101841
C60	C	1.428346	-0.036717	0.000034
H61	H	1.492902	0.053091	0.101847
H62	H	1.372794	0.066023	0.101822
H63	H	1.418512	-0.009914	0.170901
H64	H	1.437942	-0.003882	-0.069026
H65	H	1.483684	-0.079826	0.000042
H66	H	0.957251	-0.349448	0.000020
H67	H	0.932395	0.059126	0.000010
C68	C	0.850129	-0.223262	0.000011
C69	C	0.934359	-0.164340	0.000017
H70	H	0.786749	-0.189501	0.000016
H71	H	0.858121	-0.263929	-0.069052
H72	H	0.848386	-0.256307	0.069078
H73	H	0.936107	-0.131300	-0.069056
H74	H	0.926365	-0.123657	0.069086
H75	H	0.713541	0.417969	0.000054
C76	C	0.590531	0.027158	-0.101788
C77	C	0.549817	0.079228	0.000026
H78	H	0.562137	-0.031580	-0.101785
H79	H	0.572643	0.054866	-0.170836
H80	H	0.664425	0.022862	-0.101780
H81	H	0.475923	0.083529	0.000013
H82	H	0.567698	0.051513	0.069091
H83	H	1.488750	-0.364268	0.000062
C84	C	1.334348	0.039427	0.305860
C85	C	1.353243	0.127880	0.275693
H86	H	1.385093	-0.000405	0.263572
H87	H	1.338562	0.036143	0.389019
H88	H	1.266577	0.022553	0.285428
H89	H	1.421011	0.144756	0.296133
H90	H	1.349038	0.131167	0.192515
C91	C	1.034471	0.023045	-0.101797
C92	C	1.031876	-0.025660	0.000014
H93	H	0.971080	0.056789	-0.101804
H94	H	1.091606	0.063013	-0.101782
H95	H	1.042468	-0.017642	-0.170854
H96	H	1.023886	0.015028	0.069071
H97	H	0.974724	-0.065632	0.000010
C98	C	1.039301	-0.599264	0.000041
C99	C	1.021389	-0.506067	0.000038
H100	H	0.974516	-0.629438	0.000047
H101	H	1.082624	-0.619596	-0.069020
H102	H	1.072896	-0.611962	0.069110
H103	H	0.987801	-0.493367	-0.069036
H104	H	0.978050	-0.485727	0.069106
C105	C	1.502078	-0.458189	0.000046
C106	C	1.417854	-0.517118	0.000050
H107	H	1.565461	-0.491944	0.000054
H108	H	1.503819	-0.425155	-0.069017
H109	H	1.494079	-0.417512	0.069113
H110	H	1.425849	-0.557791	-0.069021
H111	H	1.416114	-0.550168	0.069121
H112	H	1.060553	0.357483	0.519682
C113	C	1.601252	-0.244226	0.000038
C114	C	1.519705	-0.180671	0.000035
H115	H	1.666034	-0.214047	0.000024
H116	H	1.591655	-0.277038	0.069104
H117	H	1.601379	-0.284685	-0.069026
H118	H	1.519572	-0.140215	0.069104
H119	H	1.529304	-0.147843	-0.069038
C120	C	1.391674	-0.005464	0.492718
C121	C	1.410507	0.083012	0.462613
H122	H	1.442429	-0.045262	0.450381
H123	H	1.395921	-0.008782	0.575866
H124	H	1.323904	-0.022356	0.472303
H125	H	1.478275	0.099906	0.483036
H126	H	1.406270	0.086333	0.379446
C127	C	0.996612	0.304360	0.694322
C128	C	1.096492	0.329287	0.724431
H129	H	0.945852	0.344155	0.736655
H130	H	0.992384	0.307690	0.611173
H131	H	0.983858	0.244331	0.714738
H132	H	1.109250	0.389314	0.704007
H133	H	1.100723	0.325965	0.807599
C134	C	1.072265	0.451557	0.305895
C135	C	1.057637	0.359765	0.275753
H136	H	1.027465	0.486703	0.263608
H137	H	1.056339	0.464040	0.389054
H138	H	1.142910	0.466182	0.285445
H139	H	0.986993	0.345139	0.296211
H140	H	1.073556	0.347277	0.192575
H141	H	0.887985	0.353327	0.000043
H142	H	1.373291	0.112199	0.706564
