data_functionalizedCrystal
_audit_creation_method	'MofGen! by Chris Wilmer'
_symmetry_space_group_name_H-M	'P1'
_symmetry_Int_Tables_number	1
_symmetry_cell_setting	triclinic
loop_
_symmetry_equiv_pos_as_xyz
  x,y,z
_cell_length_a	21.295420
_cell_length_b	21.295417
_cell_length_c	21.295411
_cell_angle_alpha	90.020597
_cell_angle_beta	90.024693
_cell_angle_gamma	90.027953
loop_
_atom_site_label
_atom_site_type_symbol
_atom_site_fract_x
_atom_site_fract_y
_atom_site_fract_z
Zn1	Zn	0.962359	-0.250710	0.355918
Zn2	Zn	1.295692	0.082623	0.689252
Zn3	Zn	1.629026	0.415956	1.022585
Zn4	Zn	0.962263	-0.355962	0.250646
Zn5	Zn	1.295596	-0.022629	0.583979
Zn6	Zn	1.628929	0.310705	0.917312
Zn7	Zn	0.857082	-0.250708	0.250663
Zn8	Zn	1.190415	0.082626	0.583996
Zn9	Zn	1.523749	0.415959	0.917330
Zn10	Zn	0.857053	-0.355942	0.355877
Zn11	Zn	1.190386	-0.022609	0.689210
Zn12	Zn	1.523720	0.310724	1.022544
O13	O	0.909689	-0.303331	0.303276
O14	O	1.243022	0.030003	0.636609
O15	O	1.576356	0.363336	0.969943
O16	O	1.050435	-0.264682	0.341964
O17	O	1.383769	0.068652	0.675297
O18	O	1.717102	0.401985	1.008630
O19	O	0.948282	-0.342007	0.162558
O20	O	1.281616	-0.008674	0.495892
O21	O	1.614949	0.324660	0.829225
O22	O	0.871100	-0.162619	0.264650
O23	O	1.204433	0.170715	0.597983
O24	O	1.537766	0.504048	0.931317
O25	O	1.050365	-0.342010	0.264620
O26	O	1.383698	-0.008676	0.597953
O27	O	1.717032	0.324657	0.931287
O28	O	0.948446	-0.162621	0.341980
O29	O	1.281779	0.170713	0.675314
O30	O	1.615113	0.504046	1.008647
O31	O	0.871006	-0.264677	0.162571
O32	O	1.204340	0.068656	0.495905
O33	O	1.537673	0.401990	0.829238
O34	O	0.768989	-0.264658	0.264610
O35	O	1.102322	0.068676	0.597943
O36	O	1.435656	0.402009	0.931277
O37	O	0.871050	-0.341976	0.443972
O38	O	1.204383	-0.008643	0.777305
O39	O	1.537717	0.324691	1.110639
O40	O	0.768967	-0.341973	0.341910
O41	O	1.102301	-0.008640	0.675244
O42	O	1.435634	0.324693	1.008577
O43	O	0.948418	-0.264662	0.444002
O44	O	1.281751	0.068671	0.777335
O45	O	1.615084	0.402004	1.110669
O46	O	0.948254	-0.444049	0.264580
O47	O	1.281587	-0.110716	0.597913
O48	O	1.614921	0.222618	0.931247
O49	O	0.870957	-0.444034	0.341893
O50	O	1.204290	-0.110701	0.675227
O51	O	1.537623	0.222632	1.008560
C52	C	0.746138	-0.303314	0.303258
C53	C	1.079471	0.030020	0.636591
C54	C	1.412804	0.363353	0.969925
C55	C	0.676169	-0.303321	0.303265
C56	C	1.009503	0.030012	0.636598
C57	C	1.342836	0.363345	0.969932
C58	C	0.909609	-0.466882	0.303244
C59	C	1.242942	-0.133549	0.636577
C60	C	1.576276	0.199784	0.969911
C61	C	0.909632	-0.536850	0.303251
C62	C	1.242966	-0.203517	0.636585
C63	C	1.576299	0.129816	0.969918
C64	C	0.176717	-0.343663	0.343487
C65	C	0.510050	-0.010330	0.676820
C66	C	0.843383	0.323004	1.010154
C67	C	0.242459	-0.343663	0.343480
C68	C	0.575793	-0.010330	0.676814
C69	C	0.909126	0.323004	1.010147
C70	C	0.275330	-0.303345	0.303296
C71	C	0.608663	0.029988	0.636629
C72	C	0.941997	0.363322	0.969962
C73	C	0.242453	-0.263035	0.263103
C74	C	0.575786	0.070299	0.596436
C75	C	0.909119	0.403632	0.929770
C76	C	0.176711	-0.263040	0.263106
C77	C	0.510045	0.070293	0.596440
C78	C	0.843378	0.403626	0.929773
N79	N	0.378570	-0.248227	0.298562
N80	N	0.711903	0.085106	0.631895
N81	N	1.045237	0.418439	0.965229
N82	N	0.441021	-0.248224	0.298563
N83	N	0.774355	0.085109	0.631896
N84	N	1.107688	0.418443	0.965229
C85	C	0.473405	-0.303327	0.303282
C86	C	0.806738	0.030006	0.636616
C87	C	1.140071	0.363340	0.969949
N88	N	0.440977	-0.358435	0.308014
N89	N	0.774311	-0.025102	0.641347
N90	N	1.107644	0.308232	0.974680
N91	N	0.378520	-0.358438	0.308017
N92	N	0.711853	-0.025104	0.641350
N93	N	1.045187	0.308229	0.974683
C94	C	0.346615	-0.303335	0.303287
C95	C	0.679949	0.029999	0.636621
C96	C	1.013282	0.363332	0.969954
C97	C	0.577560	-0.343638	0.343462
C98	C	0.910893	-0.010305	0.676795
C99	C	1.244226	0.323029	1.010129
C100	C	0.643303	-0.343639	0.343451
C101	C	0.976637	-0.010306	0.676784
C102	C	1.309970	0.323027	1.010118
C103	C	0.643295	-0.263005	0.263077
C104	C	0.976629	0.070328	0.596410
C105	C	1.309962	0.403661	0.929744
C106	C	0.577553	-0.263010	0.263085
C107	C	0.910886	0.070324	0.596418
C108	C	1.244220	0.403657	0.929751
C109	C	0.544689	-0.303325	0.303281
C110	C	0.878022	0.030008	0.636614
C111	C	1.211356	0.363341	0.969947
C112	C	0.949883	-0.569661	0.343546
C113	C	1.283217	-0.236328	0.676880
C114	C	1.616550	0.097006	1.010213
C115	C	0.949906	-0.635403	0.343562
C116	C	1.283239	-0.302070	0.676895
C117	C	1.616572	0.031263	1.010228
C118	C	0.909683	-0.668333	0.303271
C119	C	1.243017	-0.334999	0.636605
C120	C	1.576350	-0.001666	0.969938
C121	C	0.869424	-0.635514	0.262974
C122	C	1.202758	-0.302181	0.596307
C123	C	1.536091	0.031152	0.929640
C124	C	0.869399	-0.569773	0.262964
C125	C	1.202732	-0.236440	0.596297
C126	C	1.536065	0.096894	0.929630
N127	N	0.904924	-0.771585	0.248180
N128	N	1.238257	-0.438252	0.581514
N129	N	1.571590	-0.104918	0.914847
N130	N	0.904952	-0.834036	0.248191
N131	N	1.238285	-0.500703	0.581525
N132	N	1.571618	-0.167370	0.914858
C133	C	0.909757	-0.866407	0.303300
C134	C	1.243090	-0.533074	0.636633
C135	C	1.576423	-0.199741	0.969966
N136	N	0.914545	-0.833968	0.358398
N137	N	1.247878	-0.500635	0.691731
N138	N	1.581212	-0.167301	1.025064
N139	N	0.914520	-0.771511	0.358386
N140	N	1.247854	-0.438177	0.691719
N141	N	1.581187	-0.104844	1.025052
C142	C	0.909706	-0.739618	0.303278
C143	C	1.243039	-0.406285	0.636611
C144	C	1.576373	-0.072951	0.969945
C145	C	0.950034	-0.970504	0.343615
C146	C	1.283368	-0.637170	0.676948
C147	C	1.616701	-0.303837	1.010281
C148	C	0.950052	-1.036247	0.343631
C149	C	1.283385	-0.702914	0.676965
C150	C	1.616719	-0.369581	1.010298
C151	C	0.869574	-1.036357	0.263038
C152	C	1.202907	-0.703024	0.596371
C153	C	1.536241	-0.369690	0.929704
C154	C	0.869553	-0.970615	0.263027
C155	C	1.202886	-0.637281	0.596360
C156	C	1.536219	-0.303948	0.929693
C157	C	0.909786	-0.937692	0.303314
C158	C	1.243120	-0.604358	0.636648
C159	C	1.576453	-0.271025	0.969981
C160	C	1.073879	-0.303348	0.303294
C161	C	1.407213	0.029985	0.636628
C162	C	1.740546	0.363319	0.969961
C163	C	1.143847	-0.303356	0.303302
C164	C	1.477181	0.029978	0.636636
C165	C	1.810514	0.363311	0.969969
C166	C	0.909741	-0.303317	0.467466
C167	C	1.243075	0.030016	0.800800
C168	C	1.576408	0.363349	1.134133
C169	C	0.909764	-0.303312	0.537434
C170	C	1.243097	0.030022	0.870768
C171	C	1.576430	0.363355	1.204101
C172	C	0.909787	-0.139140	0.303322
C173	C	1.243120	0.194193	0.636655
C174	C	1.576454	0.527526	0.969988
C175	C	0.909828	-0.069172	0.303341
C176	C	1.243162	0.264161	0.636675
C177	C	1.576495	0.597494	0.970008
C178	C	0.909673	-0.303298	0.139724
C179	C	1.243007	0.030035	0.473058
C180	C	1.576340	0.363368	0.806391
C181	C	0.909773	-0.303127	0.069757
C182	C	1.243106	0.030207	0.403090
C183	C	1.576440	0.363540	0.736423
C184	C	0.950047	-0.263053	0.570318
C185	C	1.283381	0.070281	0.903651
C186	C	1.616714	0.403614	1.236984
C187	C	0.950046	-0.263025	0.636060
C188	C	1.283380	0.070308	0.969394
C189	C	1.616713	0.403641	1.302727
C190	C	0.909769	-0.303268	0.668917
C191	C	1.243102	0.030065	1.002250
C192	C	1.576435	0.363398	1.335584
C193	C	0.869477	-0.343530	0.636026
C194	C	1.202810	-0.010197	0.969359
C195	C	1.536144	0.323137	1.302692
C196	C	0.869475	-0.343552	0.570284
C197	C	1.202808	-0.010218	0.903618
C198	C	1.536141	0.323115	1.236951
N199	N	0.904913	-0.358336	0.772133
N200	N	1.238246	-0.025003	1.105467
N201	N	1.571579	0.308331	1.438800
N202	N	0.904919	-0.358314	0.834585
N203	N	1.238252	-0.024980	1.167918
N204	N	1.571585	0.308353	1.501251
C205	C	0.909773	-0.303204	0.866992
C206	C	1.243106	0.030129	1.200325
C207	C	1.576439	0.363462	1.533658
N208	N	0.914632	-0.248117	0.834588
N209	N	1.247966	0.085216	1.167921
N210	N	1.581299	0.418549	1.501255
N211	N	0.914630	-0.248141	0.772131
N212	N	1.247963	0.085193	1.105464
N213	N	1.581296	0.418526	1.438797
C214	C	0.909766	-0.303249	0.740202
C215	C	1.243100	0.030084	1.073536
C216	C	1.576433	0.363418	1.406869
C217	C	0.950057	-0.262913	0.971161
C218	C	1.283391	0.070421	1.304494
C219	C	1.616724	0.403754	1.637827
C220	C	0.950052	-0.262884	1.036905
C221	C	1.283385	0.070449	1.370238
C222	C	1.616719	0.403782	1.703571
C223	C	0.869486	-0.343394	1.036869
C224	C	1.202819	-0.010061	1.370202
C225	C	1.536153	0.323272	1.703535
C226	C	0.869488	-0.343417	0.971126
C227	C	1.202821	-0.010084	1.304459
C228	C	1.536155	0.323249	1.637793
C229	C	0.909777	-0.303177	0.938276
C230	C	1.243110	0.030156	1.271609
C231	C	1.576444	0.363490	1.604943
H232	H	0.149963	-0.376493	0.376216
H233	H	0.483296	-0.043160	0.709549
H234	H	0.816630	0.290174	1.042882
Br235	Br	0.287078	-0.398370	0.398020
Br236	Br	0.620411	-0.065037	0.731354
Br237	Br	0.953744	0.268296	1.064687
H238	H	0.269220	-0.230208	0.230383
H239	H	0.602554	0.103125	0.563717
H240	H	0.935887	0.436458	0.897050
H241	H	0.670064	-0.376467	0.376173
H242	H	1.003398	-0.043133	0.709506
H243	H	1.336731	0.290200	1.042839
Br244	Br	0.814815	-0.398059	0.926495
Br245	Br	1.148149	-0.064725	1.259829
Br246	Br	1.481482	0.268608	1.593162
Br247	Br	0.132100	-0.208333	0.208566
Br248	Br	0.465433	0.125000	0.541899
Br249	Br	0.798766	0.458334	0.875232
H250	H	0.836673	-0.662330	0.230170
H251	H	1.170007	-0.328996	0.563504
H252	H	1.503340	0.004337	0.896837
Br253	Br	0.814809	-0.398142	0.680615
Br254	Br	1.148143	-0.064808	1.013948
Br255	Br	1.481476	0.268525	1.347281
Br256	Br	1.004634	-0.925819	0.398291
Br257	Br	1.337967	-0.592485	0.731624
Br258	Br	1.671300	-0.259152	1.064957
Br259	Br	0.814799	-0.398192	0.525653
Br260	Br	1.148132	-0.064859	0.858987
Br261	Br	1.481465	0.268474	1.192320
H262	H	0.670058	-0.230180	0.230355
H263	H	1.003391	0.103154	0.563689
H264	H	1.336725	0.436487	0.897022
H265	H	0.982853	-0.230285	0.543575
H266	H	1.316186	0.103048	0.876909
H267	H	1.649520	0.436381	1.210242
H268	H	0.982829	-1.062960	0.376447
H269	H	1.316163	-0.729627	0.709780
H270	H	1.649496	-0.396294	1.043114
Br271	Br	0.532941	-0.208300	0.208549
Br272	Br	0.866275	0.125033	0.541882
Br273	Br	1.199608	0.458367	0.875216
H274	H	0.982860	-0.230143	0.944413
H275	H	1.316193	0.103190	1.277746
H276	H	1.649526	0.436524	1.611080
Br277	Br	1.004737	-0.208252	1.081534
Br278	Br	1.338071	0.125082	1.414867
Br279	Br	1.671404	0.458415	1.748200
H280	H	0.982642	-0.542857	0.376352
H281	H	1.315976	-0.209524	0.709686
H282	H	1.649309	0.123810	1.043019
H283	H	0.982678	-0.662123	0.376382
H284	H	1.316011	-0.328790	0.709715
H285	H	1.649344	0.004544	1.043049
Br286	Br	0.814981	-1.081040	0.208360
Br287	Br	1.148315	-0.747706	0.541693
Br288	Br	1.481648	-0.414373	0.875027
H289	H	0.550800	-0.376466	0.376191
H290	H	0.884134	-0.043133	0.709525
H291	H	1.217467	0.290201	1.042858
Br292	Br	0.814921	-0.926083	0.208339
Br293	Br	1.148255	-0.592749	0.541673
Br294	Br	1.481588	-0.259416	0.875006
H295	H	0.836621	-0.543058	0.230150
H296	H	1.169954	-0.209725	0.563484
H297	H	1.503287	0.123608	0.896817
H298	H	0.982849	-0.230238	0.662839
H299	H	1.316182	0.103095	0.996173
H300	H	1.649516	0.436428	1.329506
Br301	Br	0.814814	-0.398003	1.081452
Br302	Br	1.148147	-0.064670	1.414786
Br303	Br	1.481481	0.268664	1.748119
