data_functionalizedCrystal
_audit_creation_method	'MofGen! by Chris Wilmer'
_symmetry_space_group_name_H-M	'P1'
_symmetry_Int_Tables_number	1
_symmetry_cell_setting	triclinic
loop_
_symmetry_equiv_pos_as_xyz
  x,y,z
_cell_length_a	15.995292
_cell_length_b	15.995350
_cell_length_c	13.930277
_cell_angle_alpha	89.993131
_cell_angle_beta	90.007768
_cell_angle_gamma	83.480495
loop_
_atom_site_label
_atom_site_type_symbol
_atom_site_fract_x
_atom_site_fract_y
_atom_site_fract_z
O1	O	1.111020	0.107683	0.079852
O2	O	1.444353	0.441016	0.413185
O3	O	1.777686	0.774350	0.746519
O4	O	0.867238	0.121061	0.079848
O5	O	1.200571	0.454395	0.413181
O6	O	1.533905	0.787728	0.746514
O7	O	0.995793	-0.007517	0.079849
O8	O	1.329126	0.325816	0.413182
O9	O	1.662459	0.659150	0.746516
O10	O	0.982465	0.236261	0.079851
O11	O	1.315798	0.569594	0.413184
O12	O	1.649132	0.902928	0.746517
O13	O	0.995774	-0.007497	-0.079813
O14	O	1.329107	0.325836	0.253521
O15	O	1.662441	0.659169	0.586854
O16	O	0.867219	0.121081	-0.079814
O17	O	1.200552	0.454414	0.253519
O18	O	1.533886	0.787748	0.586852
O19	O	1.111001	0.107703	-0.079810
O20	O	1.444334	0.441036	0.253524
O21	O	1.777668	0.774369	0.586857
Zn22	Zn	0.989107	0.114395	-0.105162
Zn23	Zn	1.322440	0.447728	0.228172
Zn24	Zn	1.655774	0.781062	0.561505
Zn25	Zn	0.989132	0.114369	0.105200
Zn26	Zn	1.322465	0.447702	0.438533
Zn27	Zn	1.655798	0.781036	0.771866
O28	O	0.982446	0.236281	-0.079811
O29	O	1.315779	0.569614	0.253522
O30	O	1.649113	0.902947	0.586855
C31	C	0.836033	0.120527	0.000016
C32	C	1.169366	0.453860	0.333350
C33	C	1.502699	0.787193	0.666683
C34	C	0.743080	0.118894	0.000015
C35	C	1.076413	0.452228	0.333348
C36	C	1.409747	0.785561	0.666681
C37	C	0.405341	0.112893	0.000026
C38	C	0.738675	0.446226	0.333359
C39	C	1.072008	0.779560	0.666692
C40	C	0.428654	0.205697	0.000383
C41	C	0.761987	0.539031	0.333716
C42	C	1.095320	0.872364	0.667049
C43	C	0.525329	0.207461	0.000019
C44	C	0.858663	0.540795	0.333352
C45	C	1.191996	0.874128	0.666685
C46	C	0.572897	0.115871	0.000021
C47	C	0.906231	0.449204	0.333354
C48	C	1.239564	0.782538	0.666687
C49	C	0.543785	0.069484	-0.091151
C50	C	0.877118	0.402818	0.242182
C51	C	1.210451	0.736151	0.575516
C52	C	0.446994	0.068367	-0.091223
C53	C	0.780328	0.401700	0.242110
C54	C	1.113661	0.735034	0.575443
C55	C	0.447160	0.066450	0.090342
C56	C	0.780494	0.399783	0.423675
C57	C	1.113827	0.733116	0.757009
C58	C	0.543653	0.069889	0.091543
C59	C	0.876986	0.403222	0.424876
C60	C	1.210320	0.736555	0.758210
C61	C	0.667593	0.117549	0.000015
C62	C	1.000927	0.450882	0.333348
C63	C	1.334260	0.784216	0.666681
C64	C	0.310646	0.111212	0.000025
C65	C	0.643979	0.444546	0.333358
C66	C	0.977312	0.777879	0.666692
C67	C	0.995232	-0.038702	0.000020
C68	C	1.328566	0.294632	0.333353
C69	C	1.661899	0.627965	0.666687
C70	C	0.993580	-0.131652	0.000025
C71	C	1.326914	0.201682	0.333359
C72	C	1.660247	0.535015	0.666692
C73	C	0.987648	-0.469398	0.000022
C74	C	1.320981	-0.136065	0.333355
C75	C	1.654315	0.197269	0.666689
C76	C	0.896094	-0.421945	0.000378
C77	C	1.229427	-0.088612	0.333712
C78	C	1.562760	0.244722	0.667045
C79	C	0.897746	-0.325255	0.000019
C80	C	1.231079	0.008078	0.333352
C81	C	1.564413	0.341412	0.666685
C82	C	0.990591	-0.301838	0.000024
C83	C	1.323924	0.031495	0.333358
C84	C	1.657257	0.364829	0.666691
C85	C	1.035738	-0.342914	-0.091148
C86	C	1.369071	-0.009580	0.242185
C87	C	1.702404	0.323753	0.575519
C88	C	1.033438	-0.439549	-0.091224
C89	C	1.366771	-0.106216	0.242109
C90	C	1.700105	0.227118	0.575442
C91	C	1.035351	-0.439930	0.090341
C92	C	1.368684	-0.106597	0.423674
C93	C	1.702017	0.226737	0.757008
C94	C	1.035329	-0.342985	0.091546
C95	C	1.368662	-0.009651	0.424879
C96	C	1.701996	0.323682	0.758213
C97	C	0.992259	-0.207141	0.000022
C98	C	1.325592	0.126192	0.333356
C99	C	1.658925	0.459526	0.666689
C100	C	0.985983	-0.564095	0.000018
C101	C	1.319316	-0.230762	0.333351
C102	C	1.652650	0.102571	0.666684
C103	C	1.142206	0.108237	0.000024
C104	C	1.475539	0.441571	0.333357
C105	C	1.808873	0.774904	0.666690
C106	C	1.235159	0.109870	0.000032
C107	C	1.568492	0.443203	0.333365
C108	C	1.901826	0.776536	0.666698
C109	C	0.983006	0.267466	0.000020
C110	C	1.316340	0.600799	0.333353
C111	C	1.649673	0.934132	0.666687
C112	C	0.984658	0.360416	0.000021
C113	C	1.317992	0.693749	0.333354
C114	C	1.651325	1.027082	0.666688
N115	N	0.989096	0.114412	-0.248728
N116	N	1.322429	0.447745	0.084606
N117	N	1.655763	0.781079	0.417939
C118	C	1.039924	0.165156	-0.700986
C119	C	1.373257	0.498489	-0.367652
C120	C	1.706590	0.831822	-0.034319
C121	C	0.938366	0.063548	-0.700978
C122	C	1.271699	0.396881	-0.367645
C123	C	1.605032	0.730215	-0.034311
C124	C	0.938353	0.063561	-0.600482
C125	C	1.271686	0.396895	-0.267149
C126	C	1.605019	0.730228	0.066184
C127	C	0.989127	0.114372	-0.550234
C128	C	1.322461	0.447705	-0.216900
C129	C	1.655794	0.781039	0.116433
C130	C	1.039915	0.165169	-0.600481
C131	C	1.373248	0.498502	-0.267147
C132	C	1.706581	0.831836	0.066186
C133	C	0.887573	0.012759	-0.550228
C134	C	1.220906	0.346092	-0.216894
C135	C	1.554240	0.679426	0.116439
C136	C	0.887559	0.012770	-0.449726
C137	C	1.220892	0.346103	-0.116392
C138	C	1.554226	0.679437	0.216941
C139	C	0.938330	0.063586	-0.399475
C140	C	1.271663	0.396919	-0.066142
C141	C	1.604996	0.730252	0.267191
C142	C	0.989118	0.114385	-0.449729
C143	C	1.322451	0.447719	-0.116395
C144	C	1.655785	0.781052	0.216938
C145	C	1.039893	0.165196	-0.399480
C146	C	1.373226	0.498529	-0.066147
C147	C	1.706559	0.831862	0.267187
C148	C	1.090677	0.216001	-0.449731
C149	C	1.424011	0.549334	-0.116398
C150	C	1.757344	0.882667	0.216935
C151	C	1.090685	0.215985	-0.550230
C152	C	1.424019	0.549318	-0.216897
C153	C	1.757352	0.882651	0.116436
C154	C	0.938322	0.063602	-0.298976
C155	C	1.271655	0.396935	0.034357
C156	C	1.604988	0.730268	0.367690
C157	C	1.039883	0.165209	-0.298975
C158	C	1.373217	0.498542	0.034358
C159	C	1.706550	0.831876	0.367692
N160	N	0.989149	0.114345	0.248766
N161	N	1.322483	0.447678	0.582099
N162	N	1.655816	0.781012	0.915432
H163	H	0.400665	0.241460	0.065766
H164	H	0.733999	0.574794	0.399100
H165	H	1.067332	0.908127	0.732433
H166	H	0.897033	0.022175	-0.741896
H167	H	1.230366	0.355508	-0.408563
H168	H	1.563700	0.688841	-0.075230
H169	H	0.433167	-0.001861	0.090960
H170	H	0.766500	0.331473	0.424293
H171	H	1.099834	0.664806	0.757627
H172	H	1.081227	0.206590	-0.258070
H173	H	1.414560	0.539923	0.075264
H174	H	1.747893	0.873257	0.408597
H175	H	0.432443	0.000323	-0.095364
H176	H	0.765777	0.333657	0.237970
H177	H	1.099110	0.666990	0.571303
H178	H	1.004365	-0.314517	-0.158999
H179	H	1.337699	0.018816	0.174334
H180	H	1.671032	0.352149	0.507668
F181	F	1.144719	0.270070	-0.396242
F182	F	1.478052	0.603403	-0.062908
F183	F	1.811385	0.936736	0.270425
F184	F	1.144727	0.270051	-0.603718
F185	F	1.478061	0.603385	-0.270384
F186	F	1.811394	0.936718	0.062949
F187	F	1.123581	-0.481463	0.091150
F188	F	1.456914	-0.148129	0.424483
F189	F	1.790247	0.185204	0.757816
H190	H	0.846206	-0.028598	-0.408819
H191	H	1.179540	0.304735	-0.075486
H192	H	1.512873	0.638069	0.257847
H193	H	1.081269	0.206522	-0.741905
H194	H	1.414602	0.539856	-0.408572
H195	H	1.747936	0.873189	-0.075238
F196	F	0.411929	0.110381	-0.180304
F197	F	0.745262	0.443714	0.153030
F198	F	1.078596	0.777048	0.486363
H199	H	1.103948	-0.328802	-0.094535
H200	H	1.437281	0.004531	0.238799
H201	H	1.770615	0.337865	0.572132
F202	F	0.833539	-0.041313	-0.603710
F203	F	1.166872	0.292021	-0.270377
F204	F	1.500205	0.625354	0.062957
H205	H	0.575653	0.002087	-0.094540
H206	H	0.908986	0.335420	0.238794
H207	H	1.242319	0.668753	0.572127
H208	H	0.543725	0.244025	-0.065448
H209	H	0.877058	0.577359	0.267885
H210	H	1.210392	0.910692	0.601219
F211	F	0.848271	-0.446165	0.085837
F212	F	1.181604	-0.112832	0.419171
F213	F	1.514937	0.220501	0.752504
F214	F	0.569990	0.111608	-0.179840
F215	F	0.903324	0.444942	0.153494
F216	F	1.236657	0.778275	0.486827
H217	H	0.896976	0.022235	-0.258066
H218	H	1.230309	0.355568	0.075267
H219	H	1.563643	0.688901	0.408601
H220	H	0.418841	0.095449	0.159445
H221	H	0.752175	0.428782	0.492778
H222	H	1.085508	0.762115	0.826112
F223	F	0.550210	0.254943	0.085443
F224	F	0.883544	0.588277	0.418777
F225	F	1.216877	0.921610	0.752110
F226	F	0.567964	0.114012	0.179706
F227	F	0.901298	0.447346	0.513039
F228	F	1.234631	0.780679	0.846372
F229	F	0.586743	-0.017496	0.098741
F230	F	0.920076	0.315838	0.432075
F231	F	1.253409	0.649171	0.765408
F232	F	0.390714	0.252207	-0.084595
F233	F	0.724047	0.585540	0.248738
F234	F	1.057380	0.918874	0.582071
H235	H	0.862257	-0.296834	0.065374
H236	H	1.195590	0.036500	0.398708
H237	H	1.528923	0.369833	0.732041
H238	H	0.859655	-0.441523	-0.064640
H239	H	1.192988	-0.108190	0.268693
H240	H	1.526322	0.225143	0.602027
H241	H	0.862002	-0.297375	-0.065450
H242	H	1.195336	0.035959	0.267883
H243	H	1.528669	0.369292	0.601217
F244	F	0.996230	-0.466770	0.180665
F245	F	1.329564	-0.133437	0.513998
F246	F	1.662897	0.199896	0.847332
H247	H	1.000501	-0.457835	-0.159381
H248	H	1.333834	-0.124502	0.173952
H249	H	1.667167	0.208831	0.507286
H250	H	1.100655	-0.471811	-0.095357
H251	H	1.433989	-0.138477	0.237976
H252	H	1.767322	0.194856	0.571310
H253	H	1.002321	-0.315737	0.158993
H254	H	1.335654	0.017596	0.492326
H255	H	1.668987	0.350929	0.825659
H256	H	1.103036	-0.327638	0.097055
H257	H	1.436369	0.005696	0.430388
H258	H	1.769703	0.339029	0.763722
