data_functionalizedCrystal
_audit_creation_method	'MofGen! by Chris Wilmer'
_symmetry_space_group_name_H-M	'P1'
_symmetry_Int_Tables_number	1
_symmetry_cell_setting	triclinic
loop_
_symmetry_equiv_pos_as_xyz
  x,y,z
_cell_length_a	12.594517
_cell_length_b	12.594516
_cell_length_c	12.594509
_cell_angle_alpha	90.026199
_cell_angle_beta	90.011478
_cell_angle_gamma	90.011939
loop_
_atom_site_label
_atom_site_type_symbol
_atom_site_fract_x
_atom_site_fract_y
_atom_site_fract_z
Zn1	Zn	1.627267	-0.423827	0.601595
Zn2	Zn	1.627158	-0.601837	0.423623
Zn3	Zn	1.449271	-0.423860	0.423655
Zn4	Zn	1.449253	-0.601751	0.601584
O5	O	1.538237	-0.512819	0.512614
O6	O	1.776198	-0.447463	0.577979
O7	O	1.603522	-0.578278	0.274681
O8	O	1.472935	-0.274910	0.447277
O9	O	1.776118	-0.578246	0.447223
O10	O	1.603708	-0.274886	0.578009
O11	O	1.472830	-0.447519	0.274705
O12	O	1.300323	-0.447436	0.447266
O13	O	1.472905	-0.578099	0.750531
O14	O	1.300310	-0.578131	0.577989
O15	O	1.603691	-0.447379	0.750540
O16	O	1.603505	-0.750772	0.447212
O17	O	1.472799	-0.750708	0.577959
C18	C	1.261696	-0.512779	0.512630
C19	C	1.143391	-0.512787	0.512663
C20	C	1.074161	-0.584012	0.583626
C21	C	1.003353	-0.486966	0.609800
C22	C	1.003400	-0.609913	0.486464
C23	C	1.074140	-0.415689	0.538888
C24	C	1.074194	-0.538702	0.415507
C25	C	1.003417	-0.441590	0.441645
C26	C	1.538167	-0.789360	0.512604
C27	C	1.538235	-0.907665	0.512635
C28	C	1.467137	-0.976923	0.583698
C29	C	1.441204	-1.047786	0.486580
C30	C	1.564265	-1.047601	0.609770
C31	C	1.512250	-0.976971	0.415465
C32	C	1.635357	-0.976779	0.538721
C33	C	1.609460	-1.047610	0.441535
C34	C	1.815858	-0.512860	0.512599
C35	C	1.934163	-0.512878	0.512592
C36	C	1.538308	-0.512726	0.790235
C37	C	1.538339	-0.512686	0.908541
C38	C	1.538336	-0.235198	0.512648
C39	C	1.538378	-0.116893	0.512662
C40	C	1.538227	-0.512835	0.236073
C41	C	1.538403	-0.512575	0.117768
C42	C	1.467227	-0.583744	0.977789
C43	C	1.564347	-0.609757	1.048564
C44	C	1.441294	-0.486609	1.048565
C45	C	1.635510	-0.538750	0.977757
C46	C	1.512391	-0.415556	0.977752
C47	C	1.609579	-0.441532	1.048495
H48	H	1.105335	-0.560619	0.333398
H49	H	1.490381	-0.333487	0.946625
O50	O	1.343276	-0.460468	1.085547
C51	C	1.268534	-0.535673	1.049544
H52	H	1.300031	-0.576259	0.975013
H53	H	1.254615	-0.597627	1.114026
C54	C	1.124459	-0.429459	1.115329
C55	C	1.163141	-0.479301	1.023784
H56	H	1.059445	-0.394688	1.099443
H57	H	1.174813	-0.378793	1.139589
H58	H	1.112868	-0.481096	1.169056
H59	H	1.174743	-0.427663	0.970064
H60	H	1.112785	-0.529957	0.999514
O61	O	1.590721	-0.707694	1.085561
C62	C	1.692378	-0.735677	1.047963
H63	H	1.710781	-0.688617	0.972889
H64	H	1.754238	-0.716813	1.111321
C65	C	1.672396	-0.913095	1.114928
C66	C	1.694995	-0.855302	1.022715
H67	H	1.674013	-0.986886	1.099358
H68	H	1.603909	-0.894242	1.140262
H69	H	1.723950	-0.897363	1.167718
H70	H	1.643434	-0.871024	0.969933
H71	H	1.763473	-0.874160	0.997372
H72	H	1.105226	-0.644128	0.643714
H73	H	1.669647	-1.078453	0.381382
O74	O	1.681283	-0.369658	1.085347
C75	C	1.628534	-0.292490	1.146963
H76	H	1.541292	-0.289304	1.123046
H77	H	1.635033	-0.314205	1.234590
C78	C	1.787141	-0.187084	1.157585
C79	C	1.679989	-0.183163	1.128203
H80	H	1.818882	-0.119646	1.146018
H81	H	1.822680	-0.239075	1.116076
H82	H	1.792541	-0.205183	1.230606
H83	H	1.674591	-0.165078	1.055181
H84	H	1.644450	-0.131167	1.169699
O85	O	1.343230	-1.084950	0.460436
C86	C	1.268430	-1.048920	0.535524
H87	H	1.310701	-1.028974	0.613057
H88	H	1.227081	-0.974917	0.503829
C89	C	1.133560	-1.160971	0.460403
C90	C	1.185477	-1.136481	0.555632
H91	H	1.082387	-1.214980	0.472804
H92	H	1.183953	-1.185243	0.409811
H93	H	1.099111	-1.099295	0.433999
H94	H	1.219935	-1.198154	0.582027
H95	H	1.135087	-1.112222	0.606229
H96	H	0.972551	-0.381327	0.381603
H97	H	0.972236	-0.465078	0.691933
H98	H	0.972321	-0.692013	0.464338
H99	H	1.105084	-0.333565	0.561110
H100	H	1.406904	-0.945884	0.643707
O101	O	1.485907	-0.939942	0.317525
C102	C	1.486130	-0.827999	0.318698
H103	H	1.474226	-0.798659	0.403503
H104	H	1.565347	-0.797641	0.287140
C105	C	1.410067	-0.822400	0.143890
C106	C	1.395437	-0.786363	0.248048
H107	H	1.354127	-0.796715	0.100306
H108	H	1.409920	-0.897818	0.143097
H109	H	1.476084	-0.797098	0.117606
H110	H	1.329428	-0.811676	0.274335
H111	H	1.395571	-0.710948	0.248844
O112	O	1.733207	-0.939585	0.565254
C113	C	1.760281	-0.975527	0.667747
H114	H	1.684845	-0.995450	0.713613
H115	H	1.811973	-1.049526	0.661078
C116	C	1.914583	-0.863447	0.670424
C117	C	1.821930	-0.887908	0.726760
H118	H	1.952615	-0.809402	0.706825
H119	H	1.896345	-0.839234	0.601370
H120	H	1.957647	-0.925120	0.664871
H121	H	1.778862	-0.826239	0.732301
H122	H	1.840161	-0.912108	0.795816
O123	O	1.590344	-1.084489	0.707834
C124	C	1.515083	-1.048494	0.782477
H125	H	1.474504	-0.974021	0.750899
H126	H	1.453131	-1.113019	0.796360
C127	C	1.621211	-1.114082	0.926700
C128	C	1.571378	-1.022608	0.887919
H129	H	1.655934	-1.098118	0.991744
H130	H	1.671915	-1.138336	0.876412
H131	H	1.569575	-1.167844	0.938261
H132	H	1.623015	-0.968853	0.876346
H133	H	1.520684	-0.998343	0.938208
H134	H	1.407136	-0.643929	0.946744
H135	H	1.717630	-0.560853	0.946785
