data_functionalizedCrystal
_audit_creation_method	'MofGen! by Chris Wilmer'
_symmetry_space_group_name_H-M	'P1'
_symmetry_Int_Tables_number	1
_symmetry_cell_setting	triclinic
loop_
_symmetry_equiv_pos_as_xyz
  x,y,z
_cell_length_a	10.540491
_cell_length_b	9.616153
_cell_length_c	14.519709
_cell_angle_alpha	90.003203
_cell_angle_beta	95.907094
_cell_angle_gamma	89.993553
loop_
_atom_site_label
_atom_site_type_symbol
_atom_site_fract_x
_atom_site_fract_y
_atom_site_fract_z
O1	O	-1.684603	0.115636	0.129751
O2	O	-1.184603	0.615636	0.629751
O3	O	-1.315057	0.115642	0.142043
O4	O	-0.815057	0.615642	0.642043
O5	O	-1.509628	0.115626	0.001710
O6	O	-1.009628	0.615626	0.501710
O7	O	-1.490032	0.115651	0.270084
O8	O	-0.990032	0.615651	0.770084
O9	O	-1.509601	-0.115665	0.001713
O10	O	-1.009601	0.384335	0.501713
O11	O	-1.315030	-0.115650	0.142046
O12	O	-0.815030	0.384350	0.642046
O13	O	-1.684577	-0.115656	0.129754
O14	O	-1.184577	0.384344	0.629754
Zn15	Zn	-1.499799	-0.152375	0.135901
Zn16	Zn	-0.999799	0.347625	0.635901
Zn17	Zn	-1.499834	0.152361	0.135897
Zn18	Zn	-0.999834	0.652361	0.635897
O19	O	-1.490005	-0.115640	0.270087
O20	O	-0.990005	0.384360	0.770087
C21	C	-1.267749	-0.000003	0.141133
C22	C	-0.767749	0.499997	0.641133
C23	C	-1.126826	-0.000001	0.138403
C24	C	-0.626826	0.499999	0.638403
C25	C	-0.908373	0.000542	0.235896
C26	C	-0.408373	0.500542	0.735896
C27	C	-1.054940	0.000011	0.238808
C28	C	-0.554940	0.500011	0.738808
C29	C	-1.082575	-0.132081	0.087011
C30	C	-0.582575	0.367919	0.587011
C31	C	-0.935835	-0.132182	0.084810
C32	C	-0.435835	0.367818	0.584810
C33	C	-0.936081	0.130840	0.082716
C34	C	-0.436081	0.630840	0.582716
C35	C	-1.082375	0.132575	0.087471
C36	C	-0.582375	0.632575	0.587471
N37	N	-1.499784	-0.360350	0.135903
N38	N	-0.999784	0.139650	0.635903
C39	C	-1.395389	-0.580711	0.210720
C40	C	-0.895389	-0.080711	0.710720
C41	C	-1.395614	-0.419544	0.211000
C42	C	-0.895614	0.080456	0.711000
C43	C	-1.632287	-0.418799	0.157777
C44	C	-1.132287	0.081201	0.657777
C45	C	-1.631718	-0.580017	0.158307
C46	C	-1.131718	-0.080017	0.658307
C47	C	-1.473001	-0.580270	0.038966
C48	C	-0.973001	-0.080270	0.538966
C49	C	-1.469948	-0.419043	0.039594
C50	C	-0.969948	0.080957	0.539594
C51	C	-0.731882	-0.000004	0.130677
C52	C	-0.231882	0.499996	0.630677
C53	C	-0.872799	0.000013	0.133443
C54	C	-0.372799	0.500013	0.633443
C55	C	-1.508701	-0.000020	-0.032653
C56	C	-1.008701	0.499980	0.467347
C57	C	-1.505965	-0.000021	-0.135048
C58	C	-1.005965	0.499979	0.364952
N59	N	-1.499859	0.360336	0.135888
N60	N	-0.999859	0.860336	0.635888
C61	C	-1.495890	0.000016	-0.509997
C62	C	-0.995890	0.500016	-0.009997
C63	C	-1.498688	0.000005	-0.405674
C64	C	-0.998688	0.500005	0.094326
C65	C	-1.500927	-0.000004	-0.322526
C66	C	-1.000927	0.499996	0.177474
C67	C	-1.503725	-0.000012	-0.218197
C68	C	-1.003725	0.499988	0.281803
C69	C	-1.490932	0.000009	0.304450
C70	C	-0.990932	0.500009	0.804450
C71	C	-1.493669	0.000019	0.406846
C72	C	-0.993669	0.500019	0.906846
H73	H	-1.130719	-0.137001	0.013095
H74	H	-0.630719	0.362999	0.513095
F75	F	-1.091519	-0.123948	0.291676
F76	F	-0.591519	0.376052	0.791676
F77	F	-1.572575	-0.630098	-0.033836
F78	F	-1.072575	-0.130098	0.466164
F79	F	-1.266249	-0.631412	0.193774
F80	F	-0.766249	-0.131412	0.693774
H81	H	-1.711896	-0.619011	0.105998
H82	H	-1.211896	-0.119011	0.605998
F83	F	-1.736331	-0.368684	0.088481
F84	F	-1.236331	0.131316	0.588481
F85	F	-0.882781	-0.261219	0.130727
F86	F	-0.382781	0.238781	0.630727
H87	H	-0.893221	0.230950	0.114379
H88	H	-0.393221	0.730950	0.614379
F89	F	-0.906775	-0.140095	-0.013337
F90	F	-0.406775	0.359905	0.486663
H91	H	-1.656472	-0.378402	0.227689
H92	H	-1.156472	0.121598	0.727689
H93	H	-1.412327	-0.621203	0.282220
H94	H	-0.912327	-0.121203	0.782220
H95	H	-1.412780	-0.380958	0.282908
H96	H	-0.912780	0.119042	0.782908
H97	H	-1.083887	0.094694	0.279013
H98	H	-0.583887	0.594694	0.779013
F99	F	-1.122410	-0.260554	0.133663
F100	F	-0.622410	0.239446	0.633663
H101	H	-1.655351	-0.617599	0.229018
H102	H	-1.155351	-0.117599	0.729018
H103	H	-0.866031	0.095265	0.275012
H104	H	-0.366031	0.595265	0.775012
H105	H	-0.864458	-0.093636	0.274789
H106	H	-0.364458	0.406364	0.774789
F107	F	-1.119341	0.260296	0.136322
F108	F	-0.619341	0.760296	0.636322
F109	F	-1.349427	-0.633477	0.011762
F110	F	-0.849427	-0.133477	0.511762
H111	H	-1.372477	-0.380843	0.023013
H112	H	-0.872477	0.119157	0.523013
H113	H	-1.132192	0.140544	0.014168
H114	H	-0.632192	0.640544	0.514168
F115	F	-0.908137	0.131995	-0.015812
F116	F	-0.408137	0.631995	0.484188
H117	H	-1.541072	-0.378755	-0.018766
H118	H	-1.041072	0.121245	0.481234
H119	H	-1.297130	-0.380029	0.197841
H120	H	-0.797130	0.119971	0.697841
