data_functionalizedCrystal
_audit_creation_method	'MofGen! by Chris Wilmer'
_symmetry_space_group_name_H-M	'P1'
_symmetry_Int_Tables_number	1
_symmetry_cell_setting	triclinic
loop_
_symmetry_equiv_pos_as_xyz
  x,y,z
_cell_length_a	10.723024
_cell_length_b	15.538191
_cell_length_c	9.798715
_cell_angle_alpha	89.999989
_cell_angle_beta	89.996609
_cell_angle_gamma	65.869982
loop_
_atom_site_label
_atom_site_type_symbol
_atom_site_fract_x
_atom_site_fract_y
_atom_site_fract_z
O1	O	1.596023	0.131734	-0.113468
O2	O	1.227016	0.144344	-0.113471
O3	O	1.483350	0.001374	-0.113475
O4	O	1.339689	0.274704	-0.113464
O5	O	1.483336	0.001373	0.113507
O6	O	1.227002	0.144343	0.113511
O7	O	1.596009	0.131734	0.113514
Zn8	Zn	1.411503	0.138038	0.149551
Zn9	Zn	1.411522	0.138039	-0.149508
O10	O	1.339675	0.274704	0.113518
C11	C	1.180936	0.143426	0.000019
C12	C	1.043656	0.140680	0.000017
C13	C	0.931530	0.220679	0.000020
C14	C	0.789643	0.217843	0.000018
C15	C	1.498374	-0.033625	0.000011
C16	C	1.543145	-0.137909	-0.000002
C17	C	1.098353	-0.428574	0.000023
C18	C	1.140454	-0.526568	0.000027
C19	C	1.377262	-0.547481	0.000028
C20	C	1.335181	-0.449487	0.000018
C21	C	1.195724	-0.390041	0.000017
C22	C	1.432552	-0.410953	0.000012
C23	C	1.390474	-0.312968	0.000009
C24	C	1.251024	-0.253516	0.000012
C25	C	1.153646	-0.292055	0.000014
C26	C	1.572008	-0.470401	0.000023
C27	C	1.669379	-0.431867	0.000017
C28	C	1.627302	-0.333880	0.000004
C29	C	1.487852	-0.274428	0.000007
C30	C	1.724680	-0.295341	0.000002
C31	C	1.682601	-0.197355	-0.000001
C32	C	1.445773	-0.176443	0.000004
C33	C	1.642090	0.132651	0.000021
C34	C	1.779369	0.135397	0.000014
C35	C	1.324652	0.309702	0.000029
C36	C	1.279880	0.413987	0.000033
N37	N	1.411500	0.138037	0.353651
N38	N	1.411539	0.138032	-0.353608
C39	C	1.519250	0.077744	0.421426
C40	C	1.519272	0.077741	0.578589
H41	H	0.875594	0.066908	0.000003
O42	O	1.033051	0.056406	-0.000170
C43	C	1.097075	0.005019	-0.117747
H44	H	1.175593	0.031103	-0.156938
H45	H	1.150378	-0.073090	-0.091314
H46	H	1.017030	0.015490	-0.200064
O47	O	1.301467	0.199490	0.423373
C48	C	1.247311	0.148777	0.506012
H49	H	1.329954	0.075523	0.527261
H50	H	1.210133	0.187806	0.606556
H51	H	1.158057	0.141996	0.451045
H52	H	0.940578	0.291268	0.000031
H53	H	1.332214	-0.128038	-0.000007
H54	H	1.761891	-0.165981	-0.000004
O55	O	1.210307	-0.158346	0.000190
C56	C	1.261160	-0.131335	0.117762
H57	H	1.354552	-0.193902	0.156957
H58	H	1.291216	-0.070919	0.091319
H59	H	1.178836	-0.107340	0.200078
H60	H	1.040087	-0.243651	0.000004
O61	O	1.629145	0.016158	0.351675
C62	C	1.588418	-0.042056	0.269018
H63	H	1.474122	-0.005144	0.247804
H64	H	1.646919	-0.056535	0.168457
H65	H	1.611280	-0.111559	0.323950
O66	O	1.860157	-0.353051	0.000250
C67	C	1.921909	-0.335443	0.117784
H68	H	1.841051	-0.302381	0.199946
H69	H	2.003289	-0.404622	0.157252
H70	H	1.971321	-0.285089	0.091196
O71	O	1.612951	-0.565590	0.000266
C72	C	1.691974	-0.604063	0.117809
H73	H	1.665627	-0.547410	0.199974
H74	H	1.669098	-0.665109	0.157264
H75	H	1.805093	-0.630780	0.091239
O76	O	0.962829	-0.370955	0.000067
C77	C	0.885899	-0.425974	0.000023
H78	H	0.950591	-0.498885	0.043006
H79	H	0.790912	-0.390340	0.065908
H80	H	0.853985	-0.433184	-0.108876
O81	O	1.046037	-0.564155	0.000090
C82	C	1.113075	-0.663387	0.000058
H83	H	1.220586	-0.685755	0.043025
H84	H	1.053440	-0.693946	0.065962
H85	H	1.119405	-0.690701	-0.108836
O86	O	0.674712	0.299462	0.000078
C87	C	0.558632	0.278461	0.000037
H88	H	0.587195	0.204640	0.043007
H89	H	0.475321	0.332017	0.065934
H90	H	0.519515	0.281743	-0.108860
O91	O	1.512762	-0.605135	-0.000158
C92	C	1.574507	-0.587573	-0.117740
H93	H	1.510287	-0.513457	-0.156932
H94	H	1.681395	-0.593787	-0.091313
H95	H	1.581771	-0.641273	-0.200053
O96	O	1.629334	0.016025	0.647962
C97	C	1.650858	-0.077046	0.613173
H98	H	1.602908	-0.077225	0.509401
H99	H	1.765254	-0.122848	0.608411
H100	H	1.601819	-0.106325	0.693574
O101	O	1.301628	0.199662	0.576730
C102	C	1.342382	0.257875	0.494095
H103	H	1.456663	0.220929	0.472806
H104	H	1.283828	0.272420	0.393570
H105	H	1.319609	0.327347	0.549085
O106	O	1.804825	-0.489656	-0.000227
C107	C	1.836243	-0.546982	-0.117763
H108	H	1.756367	-0.511522	-0.199924
H109	H	1.941450	-0.557344	-0.157231
H110	H	1.836319	-0.618432	-0.091177
