data_functionalizedCrystal
_audit_creation_method	'MofGen! by Chris Wilmer'
_symmetry_space_group_name_H-M	'P1'
_symmetry_Int_Tables_number	1
_symmetry_cell_setting	triclinic
loop_
_symmetry_equiv_pos_as_xyz
  x,y,z
_cell_length_a	9.616153
_cell_length_b	16.992694
_cell_length_c	16.992695
_cell_angle_alpha	90.668223
_cell_angle_beta	89.997656
_cell_angle_gamma	89.998654
loop_
_atom_site_label
_atom_site_type_symbol
_atom_site_fract_x
_atom_site_fract_y
_atom_site_fract_z
O1	O	0.115473	-1.050853	-0.166914
O2	O	0.615473	-0.550853	0.333086
O3	O	0.115514	-0.822453	-0.165082
O4	O	0.615514	-0.322453	0.334918
O5	O	0.115482	-0.935738	-0.051798
O6	O	0.615482	-0.435738	0.448202
O7	O	0.115504	-0.937569	-0.280198
O8	O	0.615504	-0.437569	0.219802
O9	O	-0.115809	-0.935721	-0.051800
O10	O	0.384191	-0.435721	0.448200
O11	O	-0.115778	-0.822437	-0.165084
O12	O	0.384222	-0.322437	0.334916
O13	O	-0.115819	-1.050837	-0.166915
O14	O	0.384181	-0.550837	0.333085
Zn15	Zn	-0.152521	-0.936634	-0.166000
Zn16	Zn	0.347479	-0.436634	0.334000
Zn17	Zn	0.152216	-0.936656	-0.165998
Zn18	Zn	0.652216	-0.436656	0.334002
O19	O	-0.115787	-0.937553	-0.280200
O20	O	0.384213	-0.437553	0.219800
C21	C	-0.000127	-0.793085	-0.162727
C22	C	0.499873	-0.293085	0.337273
C23	C	-0.000112	-0.705600	-0.155699
C24	C	0.499888	-0.205600	0.344301
N25	N	-0.360495	-0.936625	-0.166001
N26	N	0.139505	-0.436625	0.333999
C27	C	-0.000175	-1.080205	-0.169270
C28	C	0.499825	-0.580205	0.330730
C29	C	-0.000181	-1.167690	-0.176299
C30	C	0.499819	-0.667690	0.323701
C31	C	-0.580849	-0.875819	-0.226375
C32	C	-0.080849	-0.375819	0.273625
C33	C	-0.419681	-0.875973	-0.226622
C34	C	0.080319	-0.375973	0.273378
C35	C	-0.418958	-1.019888	-0.189089
C36	C	0.081042	-0.519888	0.310911
C37	C	-0.580175	-1.019563	-0.189522
C38	C	-0.080175	-0.519563	0.310478
C39	C	-0.580411	-0.914977	-0.082373
C40	C	-0.080411	-0.414977	0.417627
C41	C	-0.419184	-0.913118	-0.082808
C42	C	0.080816	-0.413118	0.417192
N43	N	0.360190	-0.936671	-0.165991
N44	N	0.860190	-0.436671	0.334009
C45	C	-0.000163	-0.933374	-0.022439
C46	C	0.499837	-0.433374	0.477561
C47	C	-0.000161	-0.926345	0.065046
C48	C	0.499839	-0.426345	0.565046
C49	C	-0.000106	-0.659610	-0.223517
C50	C	0.499894	-0.159610	0.276483
C51	C	-0.000126	-0.577409	-0.216908
C52	C	0.499874	-0.077409	0.283092
C53	C	-0.000141	-0.541201	-0.142480
C54	C	0.499859	-0.041201	0.357520
C55	C	-0.000151	-0.587198	-0.074657
C56	C	0.499849	-0.087198	0.425343
C57	C	-0.000141	-0.669397	-0.081267
C58	C	0.499859	-0.169397	0.418733
C59	C	-0.000181	-0.295886	-0.115086
C60	C	0.499819	0.204114	0.384914
C61	C	-0.000187	-0.213681	-0.108481
C62	C	0.499813	0.286319	0.391519
C63	C	-0.000165	-0.203898	-0.250732
C64	C	0.499835	0.296102	0.249268
C65	C	-0.000146	-0.286099	-0.257336
C66	C	0.499854	0.213901	0.242664
C67	C	-0.000163	-0.332089	-0.189512
C68	C	0.499837	0.167911	0.310488
N69	N	-0.000157	-0.457178	-0.135723
N70	N	0.499843	0.042822	0.364277
N71	N	-0.000157	-0.416110	-0.196270
N72	N	0.499843	0.083890	0.303730
C73	C	-0.000139	-0.939917	-0.309559
C74	C	0.499861	-0.439917	0.190441
C75	C	-0.000132	-0.946945	-0.397044
C76	C	0.499868	-0.446945	0.102956
C77	C	-0.000175	-0.994163	0.111037
C78	C	0.499825	-0.494163	0.611037
C79	C	-0.000161	-0.987554	0.193238
C80	C	0.499839	-0.487554	0.693238
C81	C	-0.000142	-0.913127	0.229446
C82	C	0.499858	-0.413127	0.729446
C83	C	-0.000125	-0.845303	0.183449
C84	C	0.499875	-0.345303	0.683449
C85	C	-0.000129	-0.851913	0.101250
C86	C	0.499871	-0.351913	0.601250
C87	C	-0.000118	-0.885732	0.474760
C88	C	0.499882	-0.385732	0.974760
C89	C	-0.000118	-0.879127	0.556966
C90	C	0.499882	-0.379127	1.056966
C91	C	-0.000151	-1.021379	0.566749
C92	C	0.499849	-0.521379	1.066749
C93	C	-0.000164	-1.027982	0.484547
C94	C	0.499836	-0.527982	0.984547
C95	C	-0.000139	-0.960159	0.438558
C96	C	0.499861	-0.460159	0.938558
N97	N	-0.000132	-0.906369	0.313468
N98	N	0.499868	-0.406369	0.813468
N99	N	-0.000139	-0.966917	0.354537
N100	N	0.499861	-0.466917	0.854537
H101	H	-0.380156	-0.814248	-0.212107
H102	H	0.119844	-0.314248	0.287893
O103	O	-0.634481	-0.894649	-0.307961
O104	O	-0.134481	-0.394649	0.192039
H105	H	-0.545401	-0.906876	-0.347803
H106	H	-0.045401	-0.406876	0.152197
O107	O	-0.000083	-0.798849	0.596024
O108	O	0.499917	-0.298849	1.096024
H109	H	-0.000050	-0.752796	0.550235
H110	H	0.499950	-0.252796	1.050235
H111	H	-0.380974	-0.851843	-0.065407
H112	H	0.119026	-0.351843	0.434593
O113	O	-0.000223	-0.174623	-0.028202
O114	O	0.499777	0.325377	0.471798
H115	H	0.094031	-0.192747	0.004648
H116	H	0.594031	0.307253	0.504648
O117	O	-0.632259	-0.793813	-0.207382
O118	O	-0.132259	-0.293813	0.292618
H119	H	-0.700392	-0.795547	-0.154704
H120	H	-0.200392	-0.295547	0.345296
O121	O	-0.000183	-1.108256	0.445490
O122	O	0.499817	-0.608256	0.945490
H123	H	0.094079	-1.114670	0.408265
H124	H	0.594079	-0.614670	0.908265
H125	H	-0.000169	-1.076596	0.604202
H126	H	0.499831	-0.576596	1.104202
H127	H	-0.621139	-0.855307	-0.061449
H128	H	-0.121139	-0.355307	0.438551
H129	H	-0.000098	-0.830505	0.437325
H130	H	0.499902	-0.330505	0.937325
O131	O	-0.000165	-0.325153	-0.337611
O132	O	0.499835	0.174847	0.162389
H133	H	-0.000186	-0.279362	-0.383660
H134	H	0.499814	0.220638	0.116340
H135	H	-0.000101	-0.784703	0.212936
H136	H	0.499899	-0.284703	0.712936
O137	O	-0.000198	-1.060704	0.242838
O138	O	0.499802	-0.560704	0.742838
H139	H	0.094050	-1.096095	0.229397
H140	H	0.594050	-0.596095	0.729397
H141	H	-0.000154	-0.166444	-0.305950
H142	H	0.499846	0.333556	0.194050
H143	H	-0.618539	-0.959293	-0.037376
H144	H	-0.118539	-0.459293	0.462624
H145	H	-0.000093	-0.689084	-0.284124
H146	H	0.499907	-0.189084	0.215876
O147	O	-0.000199	-0.345486	-0.041938
O148	O	0.499801	0.154514	0.458062
H149	H	-0.000199	-0.306495	0.010925
H150	H	0.499801	0.193505	0.510925
O151	O	-0.368551	-0.895025	-0.308672
O152	O	0.131449	-0.395025	0.191328
H153	H	-0.407600	-0.953894	-0.327053
H154	H	0.092400	-0.453894	0.172947
O155	O	-0.365478	-1.044565	-0.269201
O156	O	0.134522	-0.544565	0.230799
H157	H	-0.250162	-1.047068	-0.267902
H158	H	0.249838	-0.547068	0.232098
O159	O	-0.000129	-0.778768	0.051639
O160	O	0.499871	-0.278768	0.551639
H161	H	-0.000132	-0.725903	0.090625
H162	H	0.499868	-0.225903	0.590625
O163	O	-0.000126	-0.527803	-0.290055
O164	O	0.499874	-0.027803	0.209945
H165	H	0.094159	-0.541224	-0.325422
H166	H	0.594159	-0.041224	0.174578
O167	O	-0.629980	-1.043842	-0.270504
O168	O	-0.129980	-0.543842	0.229496
H169	H	-0.538917	-1.055700	-0.308990
H170	H	-0.038917	-0.555700	0.191010
H171	H	-0.000183	-0.557710	-0.014056
H172	H	0.499817	-0.057710	0.485944
H173	H	-0.619176	-1.066532	-0.147551
H174	H	-0.119176	-0.566532	0.352449
O175	O	-0.000181	-1.074439	0.071984
O176	O	0.499819	-0.574439	0.571984
H177	H	-0.000170	-1.120486	0.117778
H178	H	0.499830	-0.620486	0.617778
H179	H	-0.380618	-1.066461	-0.146494
H180	H	0.119382	-0.566461	0.353506
H181	H	-0.000145	-0.706842	-0.026042
H182	H	0.499855	-0.206842	0.473958
H183	H	-0.378901	-0.954160	-0.035370
H184	H	0.121099	-0.454160	0.464630
