data_functionalizedCrystal
_audit_creation_method	'MofGen! by Chris Wilmer'
_symmetry_space_group_name_H-M	'P1'
_symmetry_Int_Tables_number	1
_symmetry_cell_setting	triclinic
loop_
_symmetry_equiv_pos_as_xyz
  x,y,z
_cell_length_a	14.519709
_cell_length_b	14.519709
_cell_length_c	16.776229
_cell_angle_alpha	89.992406
_cell_angle_beta	89.998478
_cell_angle_gamma	83.680145
loop_
_atom_site_label
_atom_site_type_symbol
_atom_site_fract_x
_atom_site_fract_y
_atom_site_fract_z
O1	O	1.223871	0.120893	-0.066186
O2	O	1.723871	0.620893	0.433814
O3	O	0.955394	0.135130	-0.066211
O4	O	1.455394	0.635130	0.433789
O5	O	1.096751	-0.006227	-0.066191
O6	O	1.596751	0.493773	0.433809
O7	O	1.082514	0.262250	-0.066206
O8	O	1.582514	0.762250	0.433794
O9	O	1.096732	-0.006236	0.066386
O10	O	1.596732	0.493764	0.566386
O11	O	0.955375	0.135121	0.066366
O12	O	1.455375	0.635121	0.566366
O13	O	1.223852	0.120885	0.066390
O14	O	1.723852	0.620885	0.566390
Zn15	Zn	1.089611	0.128002	0.087427
Zn16	Zn	1.589611	0.628002	0.587427
Zn17	Zn	1.089635	0.128013	-0.087248
Zn18	Zn	1.589635	0.628013	0.412752
O19	O	1.082495	0.262241	0.066370
O20	O	1.582495	0.762241	0.566370
C21	C	1.096078	-0.040591	0.000098
C22	C	1.596078	0.459409	0.500098
C23	C	1.094090	-0.142972	0.000098
C24	C	1.594090	0.357028	0.500098
C25	C	0.921025	0.134462	0.000074
C26	C	1.421025	0.634462	0.500074
C27	C	0.818643	0.132474	0.000065
C28	C	1.318643	0.632474	0.500065
C29	C	0.443748	0.125154	0.000102
C30	C	0.943748	0.625154	0.500102
C31	C	0.548056	0.127187	0.000092
C32	C	1.048056	0.627187	0.500092
C33	C	0.631192	0.128814	0.000083
C34	C	1.131192	0.628814	0.500083
C35	C	0.735507	0.130847	0.000074
C36	C	1.235507	0.630847	0.500074
C37	C	1.086770	-0.517868	0.000077
C38	C	1.586770	-0.017868	0.500077
C39	C	1.088803	-0.413560	0.000083
C40	C	1.588803	0.086440	0.500083
C41	C	1.090430	-0.330423	0.000088
C42	C	1.590430	0.169577	0.500088
C43	C	1.092463	-0.226109	0.000093
C44	C	1.592463	0.273891	0.500093
C45	C	1.258221	0.121553	0.000103
C46	C	1.758221	0.621553	0.500103
C47	C	1.360602	0.123541	0.000107
C48	C	1.860602	0.623541	0.500107
C49	C	1.083168	0.296605	0.000080
C50	C	1.583168	0.796605	0.500080
C51	C	1.085156	0.398987	0.000075
C52	C	1.585156	0.898987	0.500075
N53	N	1.089600	0.127993	0.206639
N54	N	1.589600	0.627993	0.706639
N55	N	1.089653	0.128014	-0.206459
N56	N	1.589653	0.628014	0.293541
C57	C	1.152212	0.065426	0.248365
C58	C	1.652212	0.565426	0.748365
C59	C	1.152217	0.065425	0.331817
C60	C	1.652217	0.565425	0.831817
C61	C	1.089614	0.127997	0.373542
C62	C	1.589614	0.627997	0.873542
C63	C	1.026996	0.190567	0.331810
C64	C	1.526996	0.690567	0.831810
C65	C	1.026987	0.190562	0.248359
C66	C	1.526987	0.690562	0.748359
C67	C	1.027029	0.190585	0.668357
C68	C	1.527029	0.690585	1.168357
C69	C	1.027045	0.190586	0.751813
C70	C	1.527045	0.690586	1.251813
C71	C	1.152260	0.065448	0.751815
C72	C	1.652260	0.565448	1.251815
C73	C	1.152251	0.065444	0.668364
C74	C	1.652251	0.565444	1.168364
C75	C	1.089629	0.128010	0.626640
C76	C	1.589629	0.628010	1.126640
C77	C	1.089623	0.128009	0.536151
C78	C	1.589623	0.628009	1.036151
C79	C	1.089624	0.128003	0.464028
C80	C	1.589624	0.628003	0.964028
H81	H	1.203195	0.014477	0.214398
H82	H	1.703195	0.514477	0.714398
H83	H	0.976018	0.241510	0.365787
H84	H	1.476018	0.741510	0.865787
H85	H	0.976062	0.241541	0.785784
H86	H	1.476062	0.741541	1.285784
C87	C	0.971417	0.246161	0.540440
C88	C	1.471417	0.746161	1.040440
C89	C	0.958212	0.259371	0.622499
C90	C	1.458212	0.759371	1.122499
H91	H	0.928929	0.288630	0.512129
H92	H	1.428929	0.788630	1.012129
H93	H	1.032973	0.256306	0.526761
H94	H	1.532973	0.756306	1.026761
H95	H	0.961289	0.184590	0.526778
H96	H	1.461289	0.684590	1.026778
H97	H	0.968347	0.320941	0.636163
H98	H	1.468347	0.820941	1.136163
H99	H	0.896642	0.249233	0.636184
H100	H	1.396642	0.749233	1.136184
C101	C	1.276034	-0.058256	0.743432
C102	C	1.776034	0.441744	1.243432
C103	C	1.221086	-0.003340	0.797680
C104	C	1.721086	0.496660	1.297680
H105	H	1.318526	-0.100717	0.771747
H106	H	1.818526	0.399283	1.271747
H107	H	1.237591	-0.091512	0.710891
H108	H	1.737591	0.408488	1.210891
H109	H	1.309262	-0.019782	0.710876
H110	H	1.809262	0.480218	1.210876
H111	H	1.187852	-0.041814	0.830233
H112	H	1.687852	0.458186	1.330233
H113	H	1.259534	0.029918	0.830234
H114	H	1.759534	0.529918	1.330234
H115	H	0.976001	0.241509	0.214386
H116	H	1.476001	0.741509	0.714386
H117	H	1.203200	0.014478	0.365790
H118	H	1.703200	0.514478	0.865790
H119	H	1.203231	0.014495	0.634394
H120	H	1.703231	0.514495	1.134394
