data_functionalizedCrystal
_audit_creation_method	'MofGen! by Chris Wilmer'
_symmetry_space_group_name_H-M	'P1'
_symmetry_Int_Tables_number	1
_symmetry_cell_setting	triclinic
loop_
_symmetry_equiv_pos_as_xyz
  x,y,z
_cell_length_a	15.995350
_cell_length_b	15.995343
_cell_length_c	14.472310
_cell_angle_alpha	89.991294
_cell_angle_beta	90.001162
_cell_angle_gamma	83.490779
loop_
_atom_site_label
_atom_site_type_symbol
_atom_site_fract_x
_atom_site_fract_y
_atom_site_fract_z
O1	O	0.107890	1.111001	-0.076744
O2	O	0.121224	0.867224	-0.076765
O3	O	-0.007331	0.995776	-0.076753
O4	O	0.236445	0.982449	-0.076756
O5	O	-0.007323	0.995743	0.076929
O6	O	0.121232	0.867191	0.076917
O7	O	0.107897	1.110968	0.076938
Cu8	Cu	0.114565	0.989076	0.090960
Cu9	Cu	0.114556	0.989116	-0.090787
O10	O	0.236452	0.982416	0.076926
C11	C	0.120678	0.836013	0.000073
C12	C	0.119028	0.743062	0.000065
C13	C	0.116035	0.572876	0.000077
C14	C	0.023238	0.549530	0.000078
C15	C	0.021492	0.452852	0.000432
C16	C	0.113086	0.405316	0.000088
C17	C	0.159750	0.434389	0.087673
C18	C	0.160851	0.531181	0.087741
C19	C	0.162201	0.531129	-0.087030
C20	C	0.158776	0.434635	-0.088176
C21	C	0.111425	0.310618	0.000098
C22	C	0.117699	0.667574	0.000074
C23	C	-0.038522	0.995209	0.000086
C24	C	-0.131472	0.993557	0.000081
C25	C	-0.469220	0.987625	0.000083
C26	C	-0.421783	0.896073	-0.000269
C27	C	-0.325093	0.897725	0.000077
C28	C	-0.301659	0.990567	0.000082
C29	C	-0.342734	1.035705	0.087844
C30	C	-0.439369	1.033405	0.087917
C31	C	-0.439736	1.035334	-0.086848
C32	C	-0.342791	1.035313	-0.088008
C33	C	-0.206962	0.992235	0.000084
C34	C	-0.563917	0.985960	0.000088
C35	C	0.267643	0.982983	0.000085
C36	C	0.360594	0.984635	0.000084
C37	C	0.108444	1.142179	0.000098
C38	C	0.110093	1.235130	0.000101
N39	N	0.114571	0.989055	0.218791
N40	N	0.114544	0.989144	-0.218618
C41	C	0.114553	0.989114	0.592882
C42	C	0.183109	0.920098	0.553710
C43	C	0.183359	0.920257	0.446622
C44	C	0.114562	0.989084	0.407291
C45	C	0.133641	1.076449	0.446136
C46	C	0.134128	1.076061	0.553257
C47	C	0.026714	0.971545	0.553410
C48	C	0.027299	0.969541	0.446283
C49	C	0.114565	0.989073	0.302403
C50	C	0.114551	0.989132	0.697770
H51	H	-0.012734	0.577551	-0.062720
H52	H	-0.471619	1.100621	0.091902
H53	H	-0.296673	0.862242	-0.062835
F54	F	0.246135	0.391567	-0.095441
F55	F	-0.288662	0.850996	0.082438
H56	H	0.171929	0.854948	0.579492
F57	F	-0.463287	0.990344	0.173659
F58	F	0.251489	0.549416	-0.088116
F59	F	-0.447670	0.848315	0.081302
F60	F	-0.042508	1.030984	0.411303
H61	H	0.228902	0.545754	0.091485
H62	H	0.124793	0.416091	-0.152972
H63	H	-0.315544	1.002311	-0.152932
H64	H	0.085036	1.129033	0.420657
F65	F	-0.324274	1.124859	0.092118
H66	H	-0.460278	1.005416	-0.153366
H67	H	-0.314348	1.004327	0.153150
F68	F	-0.026007	0.428731	0.082987
F69	F	-0.039970	1.037329	0.586520
F70	F	-0.322711	1.123809	-0.094935
F71	F	0.247862	0.392765	0.091611
H72	H	0.247926	0.931163	0.580620
F73	F	-0.481253	1.123562	-0.087617
F74	F	0.168544	0.835364	0.412293
F75	F	-0.446005	0.848258	-0.082533
H76	H	0.248543	0.931477	0.420988
F77	F	0.217860	1.096297	0.585906
F78	F	0.117910	0.408112	0.173195
H79	H	0.196971	1.092301	0.419299
F80	F	-0.026252	0.428007	-0.081616
F81	F	0.071279	1.145144	0.587128
H82	H	-0.012142	0.578501	0.062793
F83	F	0.002746	0.890070	0.588756
H84	H	0.128918	0.557953	0.153462
F85	F	0.123929	0.568097	-0.173830
H86	H	0.012820	0.905275	0.420895
