data_functionalizedCrystal
_audit_creation_method	'MofGen! by Chris Wilmer'
_symmetry_space_group_name_H-M	'P1'
_symmetry_Int_Tables_number	1
_symmetry_cell_setting	triclinic
loop_
_symmetry_equiv_pos_as_xyz
  x,y,z
_cell_length_a	16.120530
_cell_length_b	18.101395
_cell_length_c	16.120704
_cell_angle_alpha	87.105894
_cell_angle_beta	89.859679
_cell_angle_gamma	87.126665
loop_
_atom_site_label
_atom_site_type_symbol
_atom_site_fract_x
_atom_site_fract_y
_atom_site_fract_z
Zn1	Zn	1.247280	-0.375364	0.534562
Zn2	Zn	1.254240	-0.493211	0.395505
Zn3	Zn	1.115301	-0.362802	0.388481
Zn4	Zn	1.108171	-0.492572	0.527474
O5	O	1.181248	-0.430987	0.461505
O6	O	1.364568	-0.396521	0.522022
O7	O	1.241706	-0.470922	0.278209
O8	O	1.132879	-0.260840	0.407885
O9	O	1.369681	-0.483103	0.419858
O10	O	1.229844	-0.270069	0.515210
O11	O	1.139628	-0.375111	0.273048
O12	O	0.997991	-0.374492	0.401012
O13	O	1.120728	-0.482013	0.644779
O14	O	0.992753	-0.469833	0.503130
O15	O	1.222931	-0.395901	0.649986
O16	O	1.234793	-0.596754	0.412985
O17	O	1.127477	-0.596285	0.509941
C18	C	0.965200	-0.420730	0.450540
C19	C	0.872772	-0.416361	0.445869
C20	C	0.703546	-0.408367	0.437348
C21	C	0.659788	-0.453664	0.485724
C22	C	0.565625	-0.449216	0.480983
C23	C	0.797718	-0.412814	0.442088
C24	C	1.181138	-0.623391	0.461475
C25	C	1.181166	-0.705707	0.461494
C26	C	1.181346	-1.004809	0.461548
C27	C	1.113966	-0.973233	0.522718
C28	C	1.113672	-0.887592	0.522501
C29	C	1.181257	-0.856421	0.461522
C30	C	1.161992	-0.882669	0.372683
C31	C	1.161559	-0.968311	0.373048
C32	C	1.268170	-0.978290	0.488453
C33	C	1.267555	-0.892698	0.490349
C34	C	1.181208	-0.772559	0.461502
C35	C	1.181393	-1.088671	0.461562
C36	C	1.398140	-0.441284	0.472514
C37	C	1.490567	-0.445672	0.477205
C38	C	1.170258	-0.440287	0.678398
C39	C	1.165574	-0.444250	0.770825
C40	C	1.181380	-0.237833	0.461555
C41	C	1.181437	-0.155523	0.461576
C42	C	1.205477	-0.410599	0.983807
C43	C	1.156995	-0.451454	0.940043
C44	C	1.161770	-0.447445	0.845882
C45	C	1.200703	-0.414608	1.077977
C46	C	1.192195	-0.421747	1.245456
C47	C	1.196895	-0.417805	1.153030
H48	H	0.670290	-0.366251	0.392373
C49	C	0.704024	-0.509945	0.545639
C50	C	0.683832	-0.581430	0.526352
C51	C	0.724562	-0.633293	0.581528
H52	H	0.762347	-0.505612	0.540946
H53	H	0.687014	-0.500975	0.600848
H54	H	0.700847	-0.590397	0.471157
H55	H	0.625516	-0.585787	0.531050
H56	H	0.707551	-0.624323	0.636737
H57	H	0.782883	-0.628953	0.576832
H58	H	0.710861	-0.681801	0.568455
C59	C	1.286971	-0.870544	0.577632
C60	C	1.296160	-0.934140	0.630594
C61	C	1.314015	-0.913764	0.711014
H62	H	1.337018	-0.844967	0.576987
H63	H	1.242791	-0.839167	0.596911
H64	H	1.340337	-0.965505	0.611320
H65	H	1.246121	-0.959726	0.631264
H66	H	1.269834	-0.882387	0.730292
H67	H	1.364061	-0.888185	0.710360
H68	H	1.320244	-0.956909	0.746960
C69	C	1.265477	-0.359902	0.939364
C70	C	1.220915	-0.308131	0.887081
C71	C	1.276162	-0.261427	0.846108
H72	H	1.295298	-0.334722	0.979107
H73	H	1.303356	-0.388522	0.907278
H74	H	1.183050	-0.279514	0.919165
H75	H	1.191096	-0.333290	0.847323
H76	H	1.314041	-0.290048	0.814022
H77	H	1.305979	-0.236253	0.885857
H78	H	1.245935	-0.226300	0.810624
H79	H	1.125345	-0.997288	0.588655
C80	C	1.129006	-0.864319	0.610215
C81	C	1.138630	-0.927419	0.663885
C82	C	1.152737	-0.906013	0.744700
H83	H	1.177973	-0.837284	0.611107
H84	H	1.083068	-0.834038	0.627743
H85	H	1.184564	-0.957688	0.646362
H86	H	1.089672	-0.954462	0.663019
H87	H	1.106799	-0.875732	0.762228
H88	H	1.201703	-0.878977	0.745583
H89	H	1.159261	-0.948822	0.781126
C90	C	1.337617	-0.864747	0.435879
C91	C	1.394246	-0.830043	0.484776
C92	C	1.458791	-0.804280	0.434618
H93	H	1.365135	-0.905266	0.410266
H94	H	1.315468	-0.830278	0.394303
H95	H	1.416394	-0.864510	0.526337
H96	H	1.366754	-0.789515	0.510389
H97	H	1.436642	-0.769811	0.393042
H98	H	1.486301	-0.844804	0.409007
H99	H	1.497217	-0.780725	0.467786
H100	H	1.209721	-0.862317	0.325670
H101	H	1.049907	-0.991114	0.504752
C102	C	1.027702	-0.855517	0.498203
C103	C	0.975821	-0.913262	0.483662
C104	C	0.896621	-0.883743	0.461261
H105	H	1.005341	-0.827362	0.541891
H106	H	1.031532	-0.824485	0.449168
H107	H	0.971989	-0.944282	0.532691
H108	H	0.998156	-0.941422	0.439970
H109	H	0.900451	-0.852710	0.412226
H110	H	0.874268	-0.855588	0.504952
H111	H	0.861412	-0.922917	0.451384
C112	C	1.096927	-0.502235	0.984264
C113	C	1.116030	-0.575480	0.964106
C114	C	1.060712	-0.622281	1.004819
H115	H	1.101612	-0.498337	1.042588
H116	H	1.041754	-0.488202	0.967217
H117	H	1.171189	-0.589509	0.981157
H118	H	1.111339	-0.579402	0.905789
H119	H	1.005539	-0.608247	0.987772
H120	H	1.065402	-0.618375	1.063141
H121	H	1.073661	-0.671981	0.991141
H122	H	1.098224	-0.984486	0.350774
H123	H	1.099355	-0.857434	0.350103
C124	C	1.224479	-0.995763	0.309809
C125	C	1.262718	-0.935235	0.271444
C126	C	1.320669	-0.960489	0.213173
H127	H	1.265322	-1.027933	0.337025
H128	H	1.197001	-1.021773	0.269077
H129	H	1.290195	-0.909236	0.312170
H130	H	1.221896	-0.903058	0.244211
H131	H	1.293191	-0.986500	0.172441
H132	H	1.361507	-0.992660	0.240396
H133	H	1.346616	-0.919425	0.187130
C134	C	1.335144	-1.005662	0.429268
C135	C	1.394438	-1.050848	0.473647
C136	C	1.456146	-1.076071	0.419154
H137	H	1.310799	-1.033290	0.387955
H138	H	1.361140	-0.964487	0.403522
H139	H	1.368446	-1.092016	0.499380
H140	H	1.418806	-1.023235	0.514957
H141	H	1.482142	-1.034896	0.393408
H142	H	1.431793	-1.103697	0.377844
H143	H	1.496388	-1.106727	0.449258
H144	H	1.286603	-1.003572	0.552365
