data_functionalizedCrystal
_audit_creation_method	'MofGen! by Chris Wilmer'
_symmetry_space_group_name_H-M	'P1'
_symmetry_Int_Tables_number	1
_symmetry_cell_setting	triclinic
loop_
_symmetry_equiv_pos_as_xyz
  x,y,z
_cell_length_a	17.639929
_cell_length_b	12.645331
_cell_length_c	17.640968
_cell_angle_alpha	78.779715
_cell_angle_beta	65.676070
_cell_angle_gamma	78.803852
loop_
_atom_site_label
_atom_site_type_symbol
_atom_site_fract_x
_atom_site_fract_y
_atom_site_fract_z
Zn1	Zn	-0.233874	1.792494	-0.399594
Zn2	Zn	-0.399554	1.792394	-0.233933
Zn3	Zn	-0.261762	1.585414	-0.261800
Zn4	Zn	-0.371648	1.644998	-0.371722
O5	O	-0.316710	1.703825	-0.316762
O6	O	-0.255859	1.940831	-0.377621
O7	O	-0.404625	1.739960	-0.122297
O8	O	-0.142738	1.587989	-0.303405
O9	O	-0.377583	1.940757	-0.255910
O10	O	-0.122249	1.740130	-0.404642
O11	O	-0.303390	1.587892	-0.142771
O12	O	-0.276332	1.444968	-0.276379
O13	O	-0.330022	1.689542	-0.490752
O14	O	-0.357064	1.488744	-0.357139
O15	O	-0.228801	1.797907	-0.511229
O16	O	-0.511177	1.797737	-0.228885
O17	O	-0.490675	1.689445	-0.330118
C18	C	-0.316697	1.428391	-0.316759
C19	C	-0.316707	1.310568	-0.316773
C20	C	-0.530825	1.750078	-0.273471
C21	C	-0.622418	1.769969	-0.254978
C22	C	-0.367623	1.293264	-0.367463
C23	C	-0.367923	1.170720	-0.367222
C24	C	-0.357483	1.128826	-0.225126
C25	C	-0.357859	1.251601	-0.225404
C26	C	-0.225033	1.251465	-0.356996
C27	C	-0.225127	1.129378	-0.358813
C28	C	-0.762152	1.854439	-0.176261
C29	C	-0.676085	1.835742	-0.193644
C30	C	-0.654804	1.722871	-0.298957
C31	C	-0.740870	1.741562	-0.281586
C32	C	-0.794539	1.807346	-0.220237
C33	C	-0.773257	1.694470	-0.325562
C34	C	-0.859316	1.713156	-0.308189
C35	C	-0.912990	1.778934	-0.246841
C36	C	-0.880598	1.826032	-0.202864
C37	C	-0.719588	1.628680	-0.386907
C38	C	-0.751974	1.581587	-0.430883
C39	C	-0.838034	1.600279	-0.413515
C40	C	-0.891708	1.666057	-0.352166
C41	C	-0.870426	1.553181	-0.457491
C42	C	-0.956486	1.571867	-0.440118
C43	C	-0.977768	1.684743	-0.334793
C44	C	-0.101755	1.657424	-0.360241
C45	C	-0.010154	1.637651	-0.378769
C46	C	-0.273188	1.750382	-0.531731
C47	C	-0.254642	1.770221	-0.623338
C48	C	-0.316723	1.980335	-0.316766
C49	C	-0.316729	2.098167	-0.316768
C50	C	-0.457156	1.553415	-0.871313
C51	C	-0.439718	1.572078	-0.957394
C52	C	-0.334325	1.684908	-0.978705
C53	C	-0.351751	1.666251	-0.892625
C54	C	-0.413168	1.600504	-0.838935
C55	C	-0.307763	1.713340	-0.860246
C56	C	-0.325191	1.694689	-0.774173
C57	C	-0.386607	1.628948	-0.720478
C58	C	-0.430596	1.581853	-0.752862
C59	C	-0.246350	1.779093	-0.913936
C60	C	-0.202362	1.826182	-0.881558
C61	C	-0.219786	1.807524	-0.795484
C62	C	-0.281202	1.741784	-0.741789
C63	C	-0.175797	1.854619	-0.763101
C64	C	-0.193225	1.835968	-0.677027
C65	C	-0.298630	1.723132	-0.655716
C66	C	-0.360003	1.657498	-0.102642
C67	C	-0.378317	1.637813	-0.011082
H68	H	-0.340434	1.151482	-0.434610
H69	H	-0.232165	1.794279	-0.984022
H70	H	-0.186886	1.260177	-0.320294
F71	F	-0.486540	1.521950	-0.991849
H72	H	-0.284322	1.738442	-1.022429
F73	F	-0.137003	1.896155	-0.938706
H74	H	-0.611098	1.669305	-0.348906
H75	H	-0.649515	1.613456	-0.401042
F76	F	-0.331874	1.346114	-0.455759
H77	H	-0.125797	1.908159	-0.806826
H78	H	-0.400798	1.613768	-0.650392
F79	F	-0.813300	1.483164	-0.522777
H80	H	-0.805851	1.908019	-0.126312
F81	F	-1.004579	1.798859	-0.228375
F82	F	-0.455423	1.347457	-0.331138
F83	F	-0.456259	1.146362	-0.330573
F84	F	-0.312718	1.263959	-0.173084
F85	F	-0.146410	1.886089	-0.642565
F86	F	-0.495957	1.511868	-0.695718
F87	F	-0.446118	1.301545	-0.183613
F88	F	-0.990957	1.521736	-0.486916
F89	F	-0.522517	1.483430	-0.814169
H90	H	-0.708268	1.528022	-0.480832
F91	F	-0.363990	1.653147	-0.598572
H92	H	-0.424380	1.107517	-0.192957
F93	F	-0.180882	1.303558	-0.444074
F94	F	-0.311501	1.064241	-0.173398
H95	H	-0.183781	1.078651	-0.326027
F96	F	-0.185363	1.104558	-0.447080
F97	F	-1.034889	1.754769	-0.269505
H98	H	-0.924297	1.879612	-0.152915
F99	F	-0.641623	1.885859	-0.146826
