data_functionalizedCrystal
_audit_creation_method	'MofGen! by Chris Wilmer'
_symmetry_space_group_name_H-M	'P1'
_symmetry_Int_Tables_number	1
_symmetry_cell_setting	triclinic
loop_
_symmetry_equiv_pos_as_xyz
  x,y,z
_cell_length_a	31.640172
_cell_length_b	31.640171
_cell_length_c	20.919319
_cell_angle_alpha	117.428691
_cell_angle_beta	89.996802
_cell_angle_gamma	59.992468
loop_
_atom_site_label
_atom_site_type_symbol
_atom_site_fract_x
_atom_site_fract_y
_atom_site_fract_z
Zr1	Zr	0.409145	0.458567	0.081101
O2	O	0.344167	0.541714	0.179562
O3	O	0.429080	0.371914	0.050875
O4	O	0.432368	0.453500	0.179484
O5	O	0.338267	0.465346	-0.050449
O6	O	0.501924	0.453492	0.179471
O7	O	0.340879	0.460127	0.050953
O8	O	0.496043	0.307549	-0.050588
O9	O	0.344149	0.611290	0.179610
O10	O	0.489472	0.408848	0.038025
O11	O	0.435614	0.412749	-0.037640
O12	O	0.439485	0.508807	0.113781
O13	O	0.385627	0.512708	0.038116
Zr14	Zr	0.515915	0.466878	-0.080645
Zr15	Zr	0.520080	0.458554	0.081079
Zr16	Zr	0.404980	0.466891	-0.080623
Zr17	Zr	0.409117	0.569533	0.081177
Zr18	Zr	0.515943	0.355912	-0.080721
O19	O	0.495980	0.553531	-0.050419
O20	O	0.501902	0.541695	0.179531
O21	O	0.338245	0.553549	-0.050388
O22	O	0.580893	0.383731	-0.179106
O23	O	0.586815	0.371896	0.050844
O24	O	0.423158	0.383749	-0.179076
O25	O	0.586792	0.460099	0.050905
O26	O	0.492692	0.471944	-0.179028
O27	O	0.423135	0.471952	-0.179015
O28	O	0.584181	0.465318	-0.050497
O29	O	0.432327	0.611279	0.179593
O30	O	0.492732	0.314165	-0.179137
O31	O	0.580911	0.314155	-0.179154
O32	O	0.584221	0.307539	-0.050605
O33	O	0.340839	0.617906	0.051061
O34	O	0.429017	0.617896	0.051044
O35	O	0.485575	0.416638	-0.113325
O36	O	0.539433	0.412737	-0.037660
O37	O	0.489446	0.512696	0.038096
O38	O	0.435588	0.516597	-0.037569
C39	C	0.462565	0.323921	0.000133
C40	C	0.462577	0.276813	0.000100
C41	C	0.434416	-0.057379	-0.039275
C42	C	0.434442	0.119578	-0.039342
O43	O	0.410553	0.144173	-0.072964
N44	N	0.462559	0.139670	0.000147
C45	C	0.490674	0.115519	0.039651
O46	O	0.514594	0.136665	0.073231
C47	C	0.490651	-0.061441	0.039713
C48	C	0.462528	-0.081527	0.000228
C49	C	0.406296	-0.077466	-0.078758
C50	C	0.406288	-0.121701	-0.078737
C51	C	0.434399	-0.145848	-0.039234
C52	C	0.462520	-0.125761	0.000248
C53	C	0.518769	-0.085594	0.079212
C54	C	0.518762	-0.129838	0.079222
C55	C	0.490639	-0.149924	0.039737
C56	C	0.490623	-0.194143	0.039771
N57	N	0.462506	-0.214236	0.000283
C58	C	0.434394	-0.190089	-0.039220
C59	C	0.490684	0.208425	0.039617
C60	C	0.490689	0.252666	0.039603
C61	C	0.434457	0.256721	-0.039391
C62	C	0.434450	0.212483	-0.039372
C63	C	0.462567	0.188333	0.000129
C64	C	0.434378	-0.282984	-0.039174
C65	C	0.434371	-0.327221	-0.039147
C66	C	0.490604	-0.331275	0.039843
C67	C	0.490610	-0.287040	0.039820
C68	C	0.462496	-0.262896	0.000306
O69	O	0.514504	-0.218769	0.073369
O70	O	0.410487	-0.211252	-0.072808
C71	C	0.434425	-0.013145	-0.039295
C72	C	0.462545	0.006942	0.000187
C73	C	0.490657	-0.017205	0.039690
C74	C	0.462550	0.051182	0.000173
C75	C	0.434438	0.075330	-0.039330
C76	C	0.406321	0.055237	-0.078819
C77	C	0.406313	0.011003	-0.078798
C78	C	0.518774	0.002887	0.079179
C79	C	0.518779	0.047122	0.079156
C80	C	0.490667	0.071270	0.039653
C81	C	0.323767	0.462738	0.000255
C82	C	0.276672	0.462744	0.000264
C83	C	0.010758	0.410540	-0.039331
C84	C	-0.166228	0.410531	-0.039346
O85	O	-0.166923	0.366157	-0.073005
N86	N	-0.214450	0.462707	0.000199
C87	C	-0.218425	0.514891	0.039746
O88	O	-0.263503	0.559271	0.073375
C89	C	-0.041440	0.514900	0.039756
C90	C	0.006781	0.462719	0.000215
C91	C	0.058978	0.358364	-0.078870
C92	C	0.103221	0.358367	-0.078863
C93	C	0.099245	0.410546	-0.039316
C94	C	0.051025	0.462722	0.000222
C95	C	-0.045416	0.567083	0.079299
C96	C	-0.001165	0.567081	0.079296
C97	C	0.047057	0.514900	0.039755
C98	C	0.091292	0.514904	0.039776
N99	N	0.139515	0.462727	0.000231
C100	C	0.143491	0.410548	-0.039315
C101	C	-0.311343	0.514882	0.039739
C102	C	-0.355589	0.514880	0.039738
C103	C	-0.303388	0.410520	-0.039356
C104	C	-0.259142	0.410522	-0.039350
C105	C	-0.263121	0.462705	0.000194
C106	C	0.236404	0.410558	-0.039296
C107	C	0.280649	0.410565	-0.039282
C108	C	0.228444	0.514925	0.039808
C109	C	0.184203	0.514918	0.039798
C110	C	0.188186	0.462730	0.000240
O111	O	0.092027	0.559255	0.073410
O112	O	0.188572	0.366175	-0.072952
C113	C	-0.033486	0.410537	-0.039339
C114	C	-0.081706	0.462714	0.000200
C115	C	-0.085682	0.514893	0.039746
C116	C	-0.125952	0.462712	0.000199
C117	C	-0.121975	0.410532	-0.039348
C118	C	-0.073753	0.358356	-0.078893
C119	C	-0.029509	0.358358	-0.078885
C120	C	-0.133904	0.567070	0.079291
C121	C	-0.178146	0.567063	0.079281
C122	C	-0.174169	0.514884	0.039735
C123	C	0.601292	0.462706	0.000201
C124	C	0.648387	0.462701	0.000192
C125	C	0.467739	0.452310	0.202520
C126	C	0.469507	0.448777	0.271176
C127	C	0.462495	0.601524	0.000323
C128	C	0.462483	0.648631	0.000356
C129	C	0.480817	0.426154	0.657482
C130	C	0.479157	0.429479	0.592976
C131	C	0.452231	0.483320	0.600271
C132	C	0.426967	0.533839	0.672077
C133	C	0.428630	0.530513	0.736582
C134	C	0.445907	0.495970	0.407487
C135	C	0.444244	0.499292	0.342975
C136	C	0.496435	0.394932	0.263878
C137	C	0.498093	0.391611	0.328387
C138	C	0.472832	0.442130	0.400188
C139	C	0.450532	0.486719	0.534336
C140	C	0.474534	0.438730	0.466121
C141	C	0.457321	0.473135	0.797936
C142	C	0.455554	0.476670	0.729281
C143	C	0.601328	0.323905	0.000106
C144	C	0.648434	0.276792	0.000064
C145	C	0.457356	0.334333	-0.202159
C146	C	0.455600	0.290759	-0.270847
C147	C	0.596118	0.334317	-0.202186
C148	C	0.641457	0.290737	-0.270884
C149	C	0.328941	0.591128	0.202642
C150	C	0.283603	0.634707	0.271339
C151	C	0.323732	0.601540	0.000350
C152	C	0.276625	0.648653	0.000392
C153	C	0.467704	0.591112	0.202615
C154	C	0.469460	0.634686	0.271303
C155	C	0.644478	0.252636	0.039558
C156	C	0.688735	0.208374	0.039534
C157	C	0.736950	0.188264	0.000011
C158	C	0.740906	0.212424	-0.039484
C159	C	0.696648	0.256689	-0.039455
C160	C	0.480854	0.272327	-0.342618
C161	C	0.479201	0.231391	-0.407164
C162	C	0.452298	0.208885	-0.399938
C163	C	0.427041	0.227321	-0.328160
C164	C	0.428690	0.268259	-0.263616
C165	C	0.690867	0.268236	-0.263648
C166	C	0.733471	0.227294	-0.328191
C167	C	0.726666	0.208852	-0.399968
C168	C	0.677251	0.231358	-0.407201
C169	C	0.634647	0.272302	-0.342660
C170	C	0.234193	0.657214	0.264104
C171	C	0.191588	0.698170	0.328647
C172	C	0.198394	0.716615	0.400423
C173	C	0.247809	0.694106	0.407657
C174	C	0.290413	0.653154	0.343115
C175	C	0.280582	0.672813	-0.039096
C176	C	0.236325	0.717087	-0.039054
C177	C	0.188111	0.737197	0.000471
C178	C	0.184155	0.713036	0.039963
C179	C	0.228412	0.668765	0.039926
C180	C	0.496368	0.657179	0.264053
C181	C	0.498028	0.698116	0.328587
C182	C	0.472777	0.716562	0.400370
C183	C	0.445868	0.694065	0.407619
C184	C	0.444211	0.653125	0.343085
H185	H	0.383389	-0.138053	-0.110893
H186	H	0.405136	0.208991	-0.322288
H187	H	0.541660	-0.149500	0.111387
Br188	Br	0.511078	0.365663	0.456224
H189	H	0.513504	-0.270679	0.071981
Br190	Br	0.530718	0.326374	0.166433
Br191	Br	0.223058	0.585737	0.093463
Br192	Br	0.140568	0.772193	0.488009
Br193	Br	0.394415	0.293267	-0.166215
Br194	Br	-0.139311	0.637892	0.132966
Br195	Br	0.241706	0.749867	-0.092656
Br196	Br	0.513483	0.206378	-0.504567
Br197	Br	0.224943	0.632190	0.166701
Br198	Br	0.528752	-0.364053	0.093455
H199	H	-0.219880	0.368032	-0.071554
Br200	Br	-0.006570	0.637905	0.132963
H201	H	0.144893	0.729417	0.072143
H202	H	0.319837	0.656442	-0.071287
H203	H	0.383404	-0.057811	-0.110929
Br204	Br	0.700117	0.293258	-0.166245
Br205	Br	0.118758	0.585734	0.093480
H206	H	0.541666	-0.016771	0.111346
Br207	Br	-0.298000	0.339705	-0.093025
H208	H	0.422314	0.543138	0.348923
H209	H	0.685505	0.188708	0.071696
H210	H	0.605223	0.269008	0.071752
Br211	Br	0.128052	0.797280	0.000514
Br212	Br	0.517372	0.302858	-0.352445
H213	H	0.151357	0.716490	0.322742
H214	H	0.502740	0.382311	0.651533
Br215	Br	0.396305	0.289502	-0.093001
Br216	Br	0.257037	0.719143	0.505075
Br217	Br	0.797009	0.128190	-0.000020
H218	H	0.330643	0.634829	0.349015
Br219	Br	0.702028	0.289463	-0.093064
H220	H	0.425337	0.537107	0.465942
Br221	Br	0.390428	0.606909	0.681979
Br222	Br	0.450064	0.153325	-0.487543
H223	H	0.225183	0.649096	0.072079
H224	H	0.761361	0.175512	-0.452515
H225	H	0.411468	-0.343572	-0.071300
H226	H	0.773703	0.208973	-0.322288
Br227	Br	0.530643	0.632154	0.166641
Br228	Br	0.668023	0.206323	-0.504619
Br229	Br	0.534547	0.728642	0.318732
Br230	Br	0.528839	0.175664	0.093242
H231	H	0.474130	0.749898	0.452911
H232	H	0.594417	0.290617	-0.348561
H233	H	0.422297	0.634816	0.348999
Br234	Br	0.396223	-0.250225	-0.092800
Br235	Br	0.396281	0.185228	-0.092960
H236	H	0.513583	0.269023	0.071765
Br237	Br	0.556937	-0.058345	0.132805
Br238	Br	0.368144	-0.016250	-0.132388
H239	H	0.383429	0.074908	-0.110980
H240	H	0.541679	0.063476	0.111316
Br241	Br	0.411595	0.719110	0.505045
H242	H	0.780168	0.196045	-0.071662
Br243	Br	-0.421029	0.585699	0.093417
H244	H	0.319913	0.368071	-0.071484
H245	H	0.428608	0.530557	0.540268
Br246	Br	0.241816	0.339730	-0.092981
H247	H	0.142482	0.315875	-0.111058
H248	H	0.062224	0.315871	-0.111077
H249	H	-0.314591	0.557378	0.071946
H250	H	0.009752	0.315867	-0.111085
Br251	Br	-0.243588	0.637886	0.132953
Br252	Br	0.534632	0.318539	0.318481
Br253	Br	-0.068366	0.287541	-0.132558
H254	H	-0.084674	0.609574	0.111497
H255	H	0.408059	0.571648	0.795044
H256	H	0.499731	0.388344	0.534516
