data_functionalizedCrystal
_audit_creation_method	'MofGen! by Chris Wilmer'
_symmetry_space_group_name_H-M	'P1'
_symmetry_Int_Tables_number	1
_symmetry_cell_setting	triclinic
loop_
_symmetry_equiv_pos_as_xyz
  x,y,z
_cell_length_a	16.992694
_cell_length_b	13.339070
_cell_length_c	16.053919
_cell_angle_alpha	87.944664
_cell_angle_beta	92.715508
_cell_angle_gamma	76.851237
loop_
_atom_site_label
_atom_site_type_symbol
_atom_site_fract_x
_atom_site_fract_y
_atom_site_fract_z
O1	O	1.091729	-0.222436	0.069339
O2	O	0.862924	-0.220042	0.069363
O3	O	0.951066	-0.071852	0.069335
O4	O	1.003587	-0.370627	0.069367
O5	O	0.943374	-0.063654	-0.069522
O6	O	0.855232	-0.211845	-0.069494
O7	O	1.084037	-0.214239	-0.069518
Zn8	Zn	0.968413	-0.211740	-0.091553
Zn9	Zn	0.978548	-0.222541	0.091397
O10	O	0.995895	-0.362429	-0.069490
C11	C	0.829195	-0.212862	-0.000063
C12	C	0.740151	-0.203668	-0.000054
C13	C	0.938348	-0.029347	-0.000096
C14	C	0.911904	0.085094	-0.000102
C15	C	0.709211	-0.292382	-0.000045
C16	C	0.625543	-0.283736	-0.000058
C17	C	0.572817	-0.186376	-0.000073
C18	C	0.603761	-0.097655	-0.000084
C19	C	0.687428	-0.106301	-0.000078
C20	C	0.321421	-0.150539	-0.000099
C21	C	0.237750	-0.141899	-0.000103
C22	C	0.259538	-0.327982	-0.000078
C23	C	0.343205	-0.336620	-0.000066
C24	C	0.374142	-0.247899	-0.000082
N25	N	0.487294	-0.177536	-0.000083
N26	N	0.459663	-0.256739	-0.000078
C27	C	1.117766	-0.221419	-0.000091
C28	C	1.206810	-0.230613	-0.000094
C29	C	1.117514	0.433267	-0.000163
C30	C	1.142362	0.325746	-0.000162
C31	C	1.084750	0.265577	-0.000147
C32	C	1.002285	0.312941	-0.000133
C33	C	0.977434	0.420474	-0.000141
C34	C	0.944670	0.252784	-0.000125
C35	C	0.862205	0.300148	-0.000111
C36	C	0.837359	0.407670	-0.000119
C37	C	0.894971	0.467838	-0.000134
C38	C	0.969521	0.145251	-0.000117
C39	C	0.829441	0.132458	-0.000095
C40	C	0.804593	0.239979	-0.000096
C41	C	1.008611	0.595067	-0.000085
C42	C	1.035051	0.480632	-0.000156
N43	N	0.961502	-0.204369	-0.216411
C44	C	0.925887	-0.166099	-0.740035
C45	C	0.930724	-0.171295	-0.652630
C46	C	0.995137	-0.240302	-0.608935
C47	C	1.054720	-0.304110	-0.652650
C48	C	1.049884	-0.298909	-0.740054
C49	C	1.016249	-0.262976	-0.347530
C50	C	1.021079	-0.268175	-0.260120
C51	C	0.897084	-0.135357	-0.260106
C52	C	0.892252	-0.130166	-0.347512
C53	C	0.951836	-0.193970	-0.391219
N54	N	1.000082	-0.245617	-0.519592
N55	N	0.946894	-0.188649	-0.480560
N56	N	0.985464	-0.229904	0.216256
H57	H	0.752137	-0.371664	-0.000032
Cl58	Cl	1.135699	-0.390859	-0.597719
H59	H	1.073531	-0.324376	-0.224547
H60	H	1.064767	-0.314931	-0.383107
Cl61	Cl	1.189930	0.508911	-0.000198
H62	H	0.712617	-0.034061	-0.000085
H63	H	0.874744	0.555391	-0.000132
H64	H	0.770211	0.446230	-0.000114
H65	H	0.600357	-0.355977	-0.000049
H66	H	0.346600	-0.078295	-0.000113
Cl67	Cl	1.073186	0.085721	-0.000133
Cl68	Cl	0.811269	-0.043415	-0.402436
H69	H	0.873432	-0.109910	-0.775605
Cl70	Cl	0.537476	0.024743	-0.000109
H71	H	0.848574	-0.083410	-0.224510
H72	H	1.098399	-0.350866	-0.775641
H73	H	0.386131	-0.415902	-0.000044
H74	H	0.737449	0.278558	-0.000086
H75	H	0.234339	-0.400213	-0.000067
H76	H	0.194820	-0.062613	-0.000115
Cl77	Cl	1.115989	0.130405	-0.000140
Cl78	Cl	1.246028	0.266209	-0.000160
Cl79	Cl	0.757008	0.056826	-0.000082
Cl80	Cl	0.855806	-0.091108	-0.597684
