data_functionalizedCrystal
_audit_creation_method	'MofGen! by Chris Wilmer'
_symmetry_space_group_name_H-M	'P1'
_symmetry_Int_Tables_number	1
_symmetry_cell_setting	triclinic
loop_
_symmetry_equiv_pos_as_xyz
  x,y,z
_cell_length_a	16.625548
_cell_length_b	16.120444
_cell_length_c	16.625539
_cell_angle_alpha	87.130642
_cell_angle_beta	90.020568
_cell_angle_gamma	92.927662
loop_
_atom_site_label
_atom_site_type_symbol
_atom_site_fract_x
_atom_site_fract_y
_atom_site_fract_z
Zn1	Zn	1.216382	-0.331884	0.472171
Zn2	Zn	1.549715	0.001450	0.805504
Zn3	Zn	1.883049	0.334783	1.138838
Zn4	Zn	1.209438	-0.471309	0.344170
Zn5	Zn	1.542772	-0.137975	0.677503
Zn6	Zn	1.876105	0.195358	1.010836
Zn7	Zn	1.081542	-0.331916	0.337353
Zn8	Zn	1.414876	0.001418	0.670686
Zn9	Zn	1.748209	0.334751	1.004020
Zn10	Zn	1.074670	-0.471261	0.478957
Zn11	Zn	1.408003	-0.137928	0.812291
Zn12	Zn	1.741336	0.195406	1.145624
O13	O	1.145508	-0.401592	0.408163
O14	O	1.478842	-0.068259	0.741496
O15	O	1.812175	0.265074	1.074829
O16	O	1.328293	-0.350386	0.455204
O17	O	1.661626	-0.017052	0.788537
O18	O	1.994960	0.316281	1.121871
O19	O	1.192443	-0.452851	0.230435
O20	O	1.525776	-0.119518	0.563768
O21	O	1.859110	0.213815	0.897101
O22	O	1.105211	-0.215245	0.349544
O23	O	1.438545	0.118088	0.682877
O24	O	1.771878	0.451422	1.016211
O25	O	1.323192	-0.452821	0.361162
O26	O	1.656525	-0.119487	0.694496
O27	O	1.989858	0.213846	1.027829
O28	O	1.204278	-0.215222	0.448594
O29	O	1.537611	0.118112	0.781928
O30	O	1.870944	0.451445	1.115261
O31	O	1.098478	-0.350440	0.225427
O32	O	1.431812	-0.017106	0.558760
O33	O	1.765145	0.316227	0.892093
O34	O	0.967799	-0.350393	0.356125
O35	O	1.301132	-0.017060	0.689458
O36	O	1.634465	0.316273	1.022791
O37	O	1.093498	-0.452739	0.590888
O38	O	1.426831	-0.119406	0.924221
O39	O	1.760165	0.213928	1.257555
O40	O	0.962749	-0.452770	0.460161
O41	O	1.296083	-0.119436	0.793494
O42	O	1.629416	0.213897	1.126827
O43	O	1.197613	-0.350339	0.585902
O44	O	1.530947	-0.017006	0.919235
O45	O	1.864280	0.316328	1.252569
O46	O	1.185779	-0.587969	0.367743
O47	O	1.519112	-0.254636	0.701076
O48	O	1.852446	0.078698	1.034409
O49	O	1.086765	-0.587934	0.466770
O50	O	1.420098	-0.254600	0.800104
O51	O	1.753432	0.078733	1.133437
C52	C	0.936018	-0.401580	0.408140
C53	C	1.269351	-0.068247	0.741473
C54	C	1.602685	0.265086	1.074806
C55	C	0.846396	-0.401595	0.408150
C56	C	1.179729	-0.068262	0.741483
C57	C	1.513063	0.265071	1.074817
C58	C	0.518220	-0.401601	0.408185
C59	C	0.851553	-0.068268	0.741518
C60	C	1.184887	0.265066	1.074851
C61	C	0.609529	-0.401597	0.408172
C62	C	0.942862	-0.068264	0.741506
C63	C	1.276195	0.265070	1.074839
C64	C	0.682305	-0.401599	0.408167
C65	C	1.015639	-0.068265	0.741500
C66	C	1.348972	0.265068	1.074833
C67	C	0.773620	-0.401594	0.408156
C68	C	1.106953	-0.068260	0.741489
C69	C	1.440286	0.265073	1.074822
C70	C	1.134795	-0.618202	0.418750
C71	C	1.468128	-0.284868	0.752084
C72	C	1.801461	0.048465	1.085417
C73	C	1.130285	-0.710868	0.423306
C74	C	1.463618	-0.377535	0.756640
C75	C	1.796952	-0.044201	1.089973
C76	C	1.169099	-0.921808	0.384700
C77	C	1.502433	-0.588475	0.718034
C78	C	1.835766	-0.255142	1.051367
C79	C	1.122066	-0.880525	0.431634
C80	C	1.455400	-0.547192	0.764967
C81	C	1.788733	-0.213858	1.098300
C82	C	1.126641	-0.786119	0.426999
C83	C	1.459974	-0.452786	0.760332
C84	C	1.793307	-0.119452	1.093666
C85	C	1.164526	-1.016223	0.389334
C86	C	1.497859	-0.682890	0.722667
C87	C	1.831193	-0.349556	1.056001
C88	C	1.355816	-0.401605	0.408187
C89	C	1.689150	-0.068272	0.741520
C90	C	2.022483	0.265062	1.074853
C91	C	1.445437	-0.401610	0.408197
C92	C	1.778771	-0.068277	0.741530
C93	C	2.112104	0.265056	1.074863
C94	C	1.145564	-0.401530	0.618469
C95	C	1.478897	-0.068197	0.951802
C96	C	1.812230	0.265136	1.285135
C97	C	1.145587	-0.401504	0.708089
C98	C	1.478921	-0.068170	1.041422
C99	C	1.812254	0.265163	1.374755
C100	C	1.156286	-0.184137	0.397552
C101	C	1.489619	0.149196	0.730885
C102	C	1.822952	0.482529	1.064218
C103	C	1.160878	-0.091471	0.393030
C104	C	1.494212	0.241863	0.726363
C105	C	1.827545	0.575196	1.059697
C106	C	1.145502	-0.401594	0.198672
C107	C	1.478836	-0.068261	0.532005
C108	C	1.812169	0.265073	0.865339
C109	C	1.145646	-0.401386	0.109041
C110	C	1.478980	-0.068052	0.442375
C111	C	1.812313	0.265281	0.775708
C112	C	1.145629	-0.401410	1.036260
C113	C	1.478962	-0.068077	1.369593
C114	C	1.812296	0.265256	1.702927
C115	C	1.145615	-0.401439	0.944953
C116	C	1.478948	-0.068106	1.278286
C117	C	1.812282	0.265228	1.611619
C118	C	1.145609	-0.401458	0.872177
C119	C	1.478942	-0.068124	1.205511
C120	C	1.812275	0.265209	1.538844
C121	C	1.145594	-0.401485	0.780864
C122	C	1.478927	-0.068152	1.114198
C123	C	1.812260	0.265182	1.447531
H124	H	1.078365	-0.916083	0.475295
H125	H	1.411698	-0.582749	0.808628
H126	H	1.745032	-0.249416	1.141962
C127	C	1.184995	-0.823834	0.271536
C128	C	1.518328	-0.490501	0.604869
C129	C	1.851661	-0.157167	0.938203
C130	C	1.228084	-0.873814	0.325754
C131	C	1.561418	-0.540481	0.659087
C132	C	1.894751	-0.207147	0.992420
H133	H	1.221408	-0.794201	0.235141
H134	H	1.554741	-0.460868	0.568475
H135	H	1.888075	-0.127535	0.901808
H136	H	1.156094	-0.785534	0.300381
H137	H	1.489428	-0.452200	0.633714
H138	H	1.822761	-0.118867	0.967047
H139	H	1.148268	-0.857876	0.242306
H140	H	1.481601	-0.524542	0.575640
H141	H	1.814934	-0.191209	0.908973
H142	H	1.264807	-0.839772	0.354988
H143	H	1.598141	-0.506438	0.688321
H144	H	1.931474	-0.173105	1.021654
H145	H	1.256998	-0.912119	0.296906
H146	H	1.590332	-0.578785	0.630239
H147	H	1.923665	-0.245452	0.963572
