data_functionalizedCrystal
_audit_creation_method	'MofGen! by Chris Wilmer'
_symmetry_space_group_name_H-M	'P1'
_symmetry_Int_Tables_number	1
_symmetry_cell_setting	triclinic
loop_
_symmetry_equiv_pos_as_xyz
  x,y,z
_cell_length_a	19.288859
_cell_length_b	14.519731
_cell_length_c	13.596369
_cell_angle_alpha	89.999010
_cell_angle_beta	89.992880
_cell_angle_gamma	83.411289
loop_
_atom_site_label
_atom_site_type_symbol
_atom_site_fract_x
_atom_site_fract_y
_atom_site_fract_z
O1	O	0.921774	0.115009	-0.081813
O2	O	1.421774	0.615009	0.418187
O3	O	0.719569	0.130534	-0.081811
O4	O	1.219569	0.630534	0.418189
O5	O	0.826025	-0.011500	-0.081803
O6	O	1.326025	0.488500	0.418197
O7	O	0.815318	0.257042	-0.081821
O8	O	1.315318	0.757042	0.418179
O9	O	0.826011	-0.011491	0.081780
O10	O	1.326011	0.488509	0.581780
O11	O	0.719555	0.130543	0.081772
O12	O	1.219555	0.630543	0.581772
O13	O	0.921760	0.115018	0.081770
O14	O	1.421760	0.615018	0.581770
Zn15	Zn	0.820655	0.122782	0.107743
Zn16	Zn	1.320655	0.622782	0.607743
Zn17	Zn	0.820674	0.122770	-0.107784
Zn18	Zn	1.320674	0.622770	0.392216
O19	O	0.815304	0.257051	0.081762
O20	O	1.315304	0.757051	0.581762
C21	C	0.693684	0.130040	-0.000019
C22	C	1.193684	0.630040	0.499981
C23	C	0.616575	0.128543	-0.000018
C24	C	1.116575	0.628543	0.499982
C25	C	0.052802	0.201757	-0.000024
C26	C	0.552802	0.701757	0.499976
C27	C	0.125253	0.203171	-0.000030
C28	C	0.625253	0.703171	0.499970
C29	C	0.169655	0.119832	-0.000022
C30	C	0.669655	0.619832	0.499978
C31	C	0.141601	0.035073	-0.000035
C32	C	0.641601	0.535073	0.499965
C33	C	0.069150	0.033661	-0.000039
C34	C	0.569150	0.533661	0.499961
C35	C	0.290694	0.057682	0.057296
C36	C	0.790694	0.557682	0.557296
C37	C	0.363142	0.059097	0.057307
C38	C	0.863142	0.559097	0.557307
C39	C	0.393117	0.124184	-0.000012
C40	C	0.893117	0.624184	0.499988
C41	C	0.350633	0.187871	-0.057329
C42	C	0.850633	0.687871	0.442671
C43	C	0.278182	0.186459	-0.057334
C44	C	0.778182	0.686459	0.442666
C45	C	0.248217	0.121354	-0.000018
C46	C	0.748217	0.621354	0.499982
C47	C	0.499724	0.210472	-0.000012
C48	C	0.999724	0.710472	0.499988
C49	C	0.572178	0.211883	-0.000024
C50	C	1.072178	0.711883	0.499976
C51	C	0.588524	0.043782	-0.000019
C52	C	1.088524	0.543782	0.499981
C53	C	0.516071	0.042373	-0.000018
C54	C	1.016071	0.542373	0.499982
C55	C	0.471676	0.125721	-0.000010
C56	C	0.971676	0.625721	0.499990
C57	C	0.825516	-0.045852	-0.000011
C58	C	1.325516	0.454148	0.499989
C59	C	0.824013	-0.148222	-0.000011
C60	C	1.324013	0.351778	0.499989
C61	C	0.822792	-0.231359	-0.000013
C62	C	1.322792	0.268641	0.499987
C63	C	0.821265	-0.335658	-0.000020
C64	C	1.321265	0.164342	0.499980
C65	C	0.820054	-0.418789	-0.000027
C66	C	1.320054	0.081211	0.499973
C67	C	0.818528	-0.523095	-0.000032
C68	C	1.318528	-0.023095	0.499968
C69	C	0.947645	0.115512	-0.000024
C70	C	1.447645	0.615512	0.499976
C71	C	1.024755	0.117008	-0.000031
C72	C	1.524755	0.617008	0.499969
C73	C	0.815813	0.291403	-0.000032
C74	C	1.315813	0.791403	0.499968
C75	C	0.817316	0.393774	-0.000039
C76	C	1.317316	0.893774	0.499961
N77	N	0.820648	0.122789	0.254835
N78	N	1.320648	0.622789	0.754835
C79	C	0.820651	0.122792	0.343833
C80	C	1.320651	0.622792	0.843833
C81	C	0.820657	0.122786	0.455484
C82	C	1.320657	0.622786	0.955484
C83	C	0.820666	0.122776	0.544475
C84	C	1.320666	0.622776	1.044475
C85	C	0.820673	0.122772	0.656133
C86	C	1.320673	0.622772	1.156133
N87	N	0.820682	0.122762	0.745124
N88	N	1.320682	0.622762	1.245124
H89	H	0.148094	0.272186	-0.000015
H90	H	0.648094	0.772186	0.499985
H91	H	0.375036	0.240873	-0.104002
H92	H	0.875036	0.740873	0.395998
H93	H	0.016659	0.269625	-0.000023
H94	H	0.516659	0.769625	0.499977
H95	H	0.397728	0.007244	0.103983
H96	H	0.897728	0.507244	0.603983
Cl97	Cl	0.480810	-0.064174	-0.000030
Cl98	Cl	0.980810	0.435826	0.499970
Cl99	Cl	0.644337	-0.060989	-0.000025
Cl100	Cl	1.144337	0.439011	0.499975
H101	H	0.463575	0.278339	-0.000008
H102	H	0.963575	0.778339	0.499992
Cl103	Cl	0.197419	-0.069696	-0.000030
Cl104	Cl	0.697419	0.430304	0.499970
Cl105	Cl	0.253024	-0.024195	0.129303
Cl106	Cl	0.753024	0.475805	0.629303
H107	H	0.243594	0.238313	-0.104005
H108	H	0.743594	0.738313	0.395995
Cl109	Cl	0.033889	-0.072889	-0.000051
Cl110	Cl	0.533889	0.427111	0.499949
H111	H	0.595011	0.280898	-0.000026
H112	H	1.095011	0.780898	0.499974
