data_functionalizedCrystal
_audit_creation_method	'MofGen! by Chris Wilmer'
_symmetry_space_group_name_H-M	'P1'
_symmetry_Int_Tables_number	1
_symmetry_cell_setting	triclinic
loop_
_symmetry_equiv_pos_as_xyz
  x,y,z
_cell_length_a	10.723024
_cell_length_b	14.519709
_cell_length_c	9.798715
_cell_angle_alpha	89.995905
_cell_angle_beta	89.996609
_cell_angle_gamma	84.074007
loop_
_atom_site_label
_atom_site_type_symbol
_atom_site_fract_x
_atom_site_fract_y
_atom_site_fract_z
O1	O	1.655978	0.129347	-0.113485
O2	O	1.292710	0.141728	-0.113490
O3	O	1.483975	0.001349	-0.113475
O4	O	1.464712	0.269727	-0.113500
O5	O	1.483961	0.001348	0.113507
O6	O	1.292695	0.141728	0.113492
O7	O	1.655963	0.129347	0.113497
Zn8	Zn	1.474327	0.135537	0.149533
Zn9	Zn	1.474346	0.135538	-0.149526
O10	O	1.464698	0.269727	0.113482
C11	C	1.246211	0.140827	0.000000
C12	C	1.107682	0.138132	-0.000001
C13	C	1.031965	0.216681	-0.000009
C14	C	0.888788	0.213896	-0.000011
C15	C	1.483070	-0.033016	0.000016
C16	C	1.480380	-0.135411	0.000017
C17	C	1.470476	-0.510357	-0.000019
C18	C	1.473227	-0.406035	-0.000009
C19	C	1.475428	-0.322887	0.000000
C20	C	1.478179	-0.218559	0.000008
C21	C	1.702462	0.130248	0.000003
C22	C	1.840991	0.132944	-0.000004
C23	C	1.465603	0.304091	-0.000012
C24	C	1.468293	0.406486	-0.000022
N25	N	1.474323	0.135537	0.353632
N26	N	1.474359	0.135532	-0.353626
C27	C	1.554633	0.076335	0.421415
C28	C	1.554653	0.076332	0.578578
H29	H	1.066508	0.068822	-0.000030
H30	H	1.623371	0.025649	0.363098
C31	C	1.647537	0.007857	0.657315
H32	H	1.635359	0.016833	0.752616
H33	H	1.730918	0.018241	0.633947
H34	H	1.633620	-0.053756	0.633973
C35	C	1.381436	0.203995	0.432399
H36	H	1.331037	0.241130	0.369492
H37	H	1.426601	0.242552	0.488142
H38	H	1.329338	0.170529	0.488139
C39	C	1.087575	0.310316	-0.000020
H40	H	1.176511	0.299904	-0.000027
H41	H	1.060260	0.344408	0.079127
H42	H	1.060272	0.344401	-0.079190
C43	C	0.800905	0.304741	-0.000020
H44	H	0.716203	0.290952	-0.000010
H45	H	0.816145	0.339660	-0.079174
H46	H	0.816134	0.339654	0.079144
C47	C	0.928861	0.042093	-0.000002
H48	H	0.880300	-0.009057	-0.000009
H49	H	0.980246	0.039636	0.079148
H50	H	0.980243	0.039643	-0.079169
H51	H	1.405604	0.186222	0.588092
