data_functionalizedCrystal
_audit_creation_method	'MofGen! by Chris Wilmer'
_symmetry_space_group_name_H-M	'P1'
_symmetry_Int_Tables_number	1
_symmetry_cell_setting	triclinic
loop_
_symmetry_equiv_pos_as_xyz
  x,y,z
_cell_length_a	19.121275
_cell_length_b	25.639240
_cell_length_c	19.121605
_cell_angle_alpha	92.475404
_cell_angle_beta	90.117648
_cell_angle_gamma	87.594745
loop_
_atom_site_label
_atom_site_type_symbol
_atom_site_fract_x
_atom_site_fract_y
_atom_site_fract_z
Zn1	Zn	1.088573	-0.231583	0.350600
Zn2	Zn	1.421907	0.101751	0.683934
Zn3	Zn	1.755240	0.435084	1.017267
Zn4	Zn	1.083476	-0.322579	0.233347
Zn5	Zn	1.416809	0.010754	0.566681
Zn6	Zn	1.750142	0.344088	0.900014
Zn7	Zn	0.966348	-0.231281	0.238381
Zn8	Zn	1.299681	0.102052	0.571714
Zn9	Zn	1.633015	0.435385	0.905048
Zn10	Zn	0.971290	-0.315108	0.355550
Zn11	Zn	1.304623	0.018225	0.688883
Zn12	Zn	1.637957	0.351558	1.022217
O13	O	1.027422	-0.275138	0.294470
O14	O	1.360755	0.058195	0.627803
O15	O	1.694088	0.391529	0.961136
O16	O	1.185999	-0.246906	0.330868
O17	O	1.519332	0.086427	0.664202
O18	O	1.852666	0.419761	0.997535
O19	O	1.063737	-0.313469	0.135909
O20	O	1.397070	0.019865	0.469242
O21	O	1.730403	0.353198	0.802575
O22	O	0.982627	-0.158157	0.253302
O23	O	1.315960	0.175176	0.586636
O24	O	1.649293	0.508510	0.919969
O25	O	1.182254	-0.313761	0.244723
O26	O	1.515587	0.019573	0.578056
O27	O	1.848920	0.352906	0.911390
O28	O	1.072425	-0.158378	0.335749
O29	O	1.405758	0.174955	0.669083
O30	O	1.739092	0.508288	1.002416
O31	O	0.977683	-0.246393	0.139607
O32	O	1.311017	0.086941	0.472940
O33	O	1.644350	0.420274	0.806274
O34	O	0.868901	-0.239149	0.258102
O35	O	1.202235	0.094185	0.591435
O36	O	1.535568	0.427518	0.924769
O37	O	0.991049	-0.301028	0.453000
O38	O	1.324383	0.032305	0.786333
O39	O	1.657716	0.365639	1.119667
O40	O	0.872532	-0.300736	0.344186
O41	O	1.205866	0.032597	0.677519
O42	O	1.539199	0.365930	1.010852
O43	O	1.077217	-0.239662	0.449363
O44	O	1.410551	0.093671	0.782697
O45	O	1.743884	0.427005	1.116030
O46	O	1.068529	-0.394752	0.249523
O47	O	1.401862	-0.061419	0.582856
O48	O	1.735195	0.271914	0.916189
O49	O	0.986106	-0.389264	0.339305
O50	O	1.319440	-0.055930	0.672638
O51	O	1.652773	0.277403	1.005971
C52	C	0.845280	-0.269100	0.302228
C53	C	1.178614	0.064234	0.635561
C54	C	1.511947	0.397567	0.968894
C55	C	0.767360	-0.266528	0.305563
C56	C	1.100693	0.066805	0.638896
C57	C	1.434027	0.400138	0.972230
C58	C	1.027320	-0.410979	0.294419
C59	C	1.360654	-0.077646	0.627752
C60	C	1.693987	0.255688	0.961086
C61	C	1.027342	-0.469094	0.294418
C62	C	1.360675	-0.135760	0.627751
C63	C	1.694009	0.197573	0.961085
C64	C	0.728797	-0.300076	0.262212
C65	C	1.062130	0.033258	0.595546
C66	C	1.395464	0.366591	0.928879
C67	C	0.655583	-0.297660	0.265356
C68	C	0.988917	0.035674	0.598689
C69	C	1.322250	0.369007	0.932022
C70	C	0.620933	-0.261694	0.311847
C71	C	0.954267	0.071640	0.645180
C72	C	1.287600	0.404973	0.978513
C73	C	0.659501	-0.228145	0.355202
C74	C	0.992835	0.105189	0.688536
C75	C	1.326168	0.438522	1.021869
C76	C	0.732714	-0.230564	0.352062
C77	C	1.066048	0.102770	0.685395
C78	C	1.399381	0.436103	1.018729
C79	C	0.399976	-0.252654	0.323579
C80	C	0.733310	0.080680	0.656912
C81	C	1.066643	0.414013	0.990245
C82	C	0.326758	-0.250236	0.326714
C83	C	0.660091	0.083097	0.660047
C84	C	0.993425	0.416431	0.993381
C85	C	0.322845	-0.319752	0.236868
C86	C	0.656178	0.013581	0.570201
C87	C	0.989512	0.346914	0.903535
C88	C	0.396059	-0.322166	0.233729
C89	C	0.729392	0.011168	0.567062
C90	C	1.062726	0.344501	0.900396
C91	C	0.434621	-0.288619	0.277087
C92	C	0.767954	0.044715	0.610420
C93	C	1.101288	0.378048	0.943754
C94	C	0.546097	-0.259222	0.315059
C95	C	0.879430	0.074111	0.648392
C96	C	1.212764	0.407445	0.981726
C97	C	0.509456	-0.291093	0.273878
C98	C	0.842790	0.042240	0.607211
C99	C	1.176123	0.375573	0.940544
C100	C	1.074205	-0.829532	0.337480
C101	C	1.407539	-0.496199	0.670813
C102	C	1.740872	-0.162866	1.004146
C103	C	1.074227	-0.884137	0.337493
C104	C	1.407560	-0.550804	0.670826
C105	C	1.740893	-0.217470	1.004160
O106	O	1.113952	-0.912436	0.374054
O107	O	1.447285	-0.579103	0.707388
O108	O	1.780618	-0.245769	1.040721
N109	N	1.027522	-0.911378	0.294533
N110	N	1.360855	-0.578045	0.627867
N111	N	1.694188	-0.244711	0.961200
C112	C	0.980788	-0.884011	0.251563
C113	C	1.314121	-0.550678	0.584896
C114	C	1.647454	-0.217345	0.918229
O115	O	0.941063	-0.912196	0.215024
O116	O	1.274396	-0.578863	0.548357
O117	O	1.607730	-0.245529	0.881690
C118	C	0.980764	-0.829408	0.251553
C119	C	1.314097	-0.496074	0.584887
C120	C	1.647430	-0.162741	0.918220
C121	C	1.027476	-0.802170	0.294511
C122	C	1.360810	-0.468836	0.627844
C123	C	1.694143	-0.135503	0.961177
C124	C	1.120914	-0.802295	0.380434
C125	C	1.454247	-0.468961	0.713768
C126	C	1.787581	-0.135628	1.047101
C127	C	1.120893	-0.747694	0.380420
C128	C	1.454227	-0.414360	0.713753
C129	C	1.787560	-0.081027	1.047086
C130	C	1.074164	-0.720331	0.337451
C131	C	1.407498	-0.386998	0.670784
C132	C	1.740831	-0.053664	1.004117
C133	C	1.027456	-0.747569	0.294496
C134	C	1.360789	-0.414236	0.627830
C135	C	1.694123	-0.080902	0.961163
C136	C	0.934027	-0.802042	0.208587
C137	C	1.267360	-0.468708	0.541920
C138	C	1.600693	-0.135375	0.875254
C139	C	0.934006	-0.747434	0.208582
C140	C	1.267340	-0.414101	0.541915
C141	C	1.600673	-0.080767	0.875248
C142	C	0.980719	-0.720196	0.251539
C143	C	1.314052	-0.386863	0.584872
C144	C	1.647386	-0.053530	0.918206
C145	C	0.980706	-0.665605	0.251513
C146	C	1.314040	-0.332272	0.584846
C147	C	1.647373	0.001061	0.918179
N148	N	1.027411	-0.638364	0.294473
N149	N	1.360744	-0.305031	0.627806
N150	N	1.694078	0.028302	0.961139
C151	C	1.074140	-0.665727	0.337442
C152	C	1.407474	-0.332394	0.670775
C153	C	1.740807	0.000939	1.004108
C154	C	0.980841	-0.998683	0.251586
C155	C	1.314174	-0.665350	0.584919
C156	C	1.647508	-0.332016	0.918253
C157	C	0.980868	-1.053286	0.251591
C158	C	1.314201	-0.719953	0.584924
C159	C	1.647535	-0.386619	0.918258
C160	C	1.074306	-1.053408	0.337523
C161	C	1.407640	-0.720074	0.670856
C162	C	1.740973	-0.386741	1.004189
C163	C	1.074282	-0.998804	0.337514
C164	C	1.407616	-0.665471	0.670847
C165	C	1.740949	-0.332137	1.004180
C166	C	1.027546	-0.971442	0.294546
C167	C	1.360879	-0.638109	0.627879
C168	C	1.694213	-0.304775	0.961213
C169	C	1.074094	-0.551062	0.337407
C170	C	1.407427	-0.217728	0.670741
C171	C	1.740761	0.115605	1.004074
C172	C	1.074071	-0.496456	0.337387
C173	C	1.407404	-0.163123	0.670720
C174	C	1.740738	0.170210	1.004054
C175	C	0.980631	-0.496339	0.251458
C176	C	1.313964	-0.163006	0.584792
C177	C	1.647297	0.170328	0.918125
C178	C	0.980655	-0.550940	0.251476
C179	C	1.313989	-0.217607	0.584809
C180	C	1.647322	0.115727	0.918142
C181	C	1.027390	-0.578300	0.294456
C182	C	1.360723	-0.244967	0.627789
C183	C	1.694056	0.088367	0.961123
O184	O	0.941000	-0.637272	0.214972
O185	O	1.274333	-0.303938	0.548306
O186	O	1.607666	0.029395	0.881639
O187	O	1.113852	-0.637536	0.373981
O188	O	1.447185	-0.304202	0.707315
O189	O	1.780519	0.029131	1.040648
C190	C	1.210274	-0.281200	0.286682
C191	C	1.543608	0.052133	0.620015
C192	C	1.876941	0.385467	0.953349
C193	C	1.288195	-0.283783	0.283363
C194	C	1.621529	0.049550	0.616697
C195	C	1.954862	0.382883	0.950030
C196	C	1.035253	-0.269545	0.477331
C197	C	1.368587	0.063788	0.810664
C198	C	1.701920	0.397121	1.143997
C199	C	1.038591	-0.267162	0.555255
C200	C	1.371924	0.066171	0.888589
C201	C	1.705257	0.399505	1.221922
C202	C	1.027543	-0.138767	0.294535
C203	C	1.360877	0.194567	0.627868
C204	C	1.694210	0.527900	0.961202
C205	C	1.027595	-0.080653	0.294563
C206	C	1.360928	0.252680	0.627896
C207	C	1.694262	0.586013	0.961230
C208	C	1.019661	-0.280672	0.112318
C209	C	1.352994	0.052661	0.445652
C210	C	1.686328	0.385994	0.778985
C211	C	1.016459	-0.282913	0.034389
C212	C	1.349793	0.050421	0.367722
C213	C	1.683126	0.383754	0.701055
C214	C	1.059752	-0.252084	0.995884
C215	C	1.393085	0.081249	1.329217
C216	C	1.726418	0.414583	1.662551
C217	C	1.056612	-0.254326	0.922666
C218	C	1.389945	0.079008	1.255999
C219	C	1.723278	0.412341	1.589332
C220	C	1.010175	-0.287393	0.887954
C221	C	1.343509	0.045940	1.221287
C222	C	1.676842	0.379273	1.554620
C223	C	0.966881	-0.318225	0.926464
C224	C	1.300214	0.015108	1.259797
C225	C	1.633548	0.348441	1.593130
C226	C	0.970025	-0.315986	0.999680
C227	C	1.303359	0.017347	1.333014
C228	C	1.636692	0.350680	1.666347
C229	C	0.998441	-0.295755	0.666982
C230	C	1.331774	0.037578	1.000315
C231	C	1.665107	0.370912	1.333648
C232	C	0.995298	-0.297991	0.593760
C233	C	1.328632	0.035343	0.927093
C234	C	1.661965	0.368676	1.260426
C235	C	1.085030	-0.234091	0.589967
C236	C	1.418363	0.099242	0.923300
C237	C	1.751697	0.432575	1.256634
C238	C	1.088167	-0.231853	0.663185
C239	C	1.421500	0.101481	0.996519
C240	C	1.754834	0.434814	1.329852
C241	C	1.044876	-0.262687	0.701689
C242	C	1.378209	0.070646	1.035022
C243	C	1.711542	0.403980	1.368355
C244	C	1.006963	-0.289684	0.813113
C245	C	1.340296	0.043649	1.146447
C246	C	1.673629	0.376982	1.479780
C247	C	1.048092	-0.260398	0.776528
C248	C	1.381425	0.072935	1.109861
C249	C	1.714759	0.406268	1.443194
H250	H	0.757003	-0.329362	0.224351
H251	H	1.090337	0.003972	0.557685
H252	H	1.423670	0.337305	0.891018
H253	H	0.631284	-0.198862	0.393059
H254	H	0.964617	0.134471	0.726393
H255	H	1.297951	0.467804	1.059726
H256	H	0.969153	-0.316607	0.784843
H257	H	1.302486	0.016726	1.118176
H258	H	1.635820	0.350059	1.451509
H259	H	1.158929	-0.725520	0.415401
H260	H	1.492262	-0.392186	0.748735
H261	H	1.825596	-0.058853	1.082068
Cl262	Cl	0.908505	-0.359798	0.882825
Cl263	Cl	1.241838	-0.026464	1.216159
Cl264	Cl	1.575171	0.306869	1.549492
H265	H	0.291440	-0.347065	0.201569
H266	H	0.624773	-0.013732	0.534903
H267	H	0.958107	0.319602	0.868236
Cl268	Cl	0.944020	-0.334521	0.715376
Cl269	Cl	1.277353	-0.001187	1.048709
Cl270	Cl	1.610686	0.332146	1.382043
Cl271	Cl	0.915600	-0.354745	1.048086
Cl272	Cl	1.248933	-0.021412	1.381420
Cl273	Cl	1.582266	0.311921	1.714753
Cl274	Cl	1.132848	-0.585449	0.391438
Cl275	Cl	1.466182	-0.252115	0.724771
Cl276	Cl	1.799515	0.081218	1.058105
Cl277	Cl	0.936918	-0.339566	0.550123
Cl278	Cl	1.270251	-0.006232	0.883456
Cl279	Cl	1.603584	0.327101	1.216789
Cl280	Cl	1.106470	-0.218831	0.820167
Cl281	Cl	1.439803	0.114502	1.153500
Cl282	Cl	1.773136	0.447836	1.486833
Cl283	Cl	1.146586	-0.190311	0.706816
Cl284	Cl	1.479919	0.143023	1.040150
Cl285	Cl	1.813253	0.476356	1.373483
Cl286	Cl	1.118125	-0.210505	1.039515
Cl287	Cl	1.451458	0.122828	1.372848
Cl288	Cl	1.784791	0.456162	1.706182
H289	H	0.624188	-0.324978	0.230054
H290	H	0.957522	0.008356	0.563388
H291	H	1.290855	0.341689	0.896721
Cl292	Cl	1.111039	-0.215568	0.874263
Cl293	Cl	1.444373	0.117765	1.207596
Cl294	Cl	1.777706	0.451099	1.540930
Cl295	Cl	0.439613	-0.367367	0.175259
Cl296	Cl	0.772946	-0.034034	0.508592
Cl297	Cl	1.106279	0.299300	0.841926
H298	H	0.764111	-0.203245	0.387362
H299	H	1.097445	0.130088	0.720696
H300	H	1.430778	0.463421	1.054029
Cl301	Cl	0.283199	-0.205015	0.385161
Cl302	Cl	0.616532	0.128318	0.718494
Cl303	Cl	0.949866	0.461652	1.051827
H304	H	0.537671	-0.320379	0.236028
H305	H	0.871005	0.012954	0.569361
H306	H	1.204338	0.346287	0.902695
H307	H	0.431365	-0.225338	0.358885
H308	H	0.764698	0.107996	0.692218
H309	H	1.098031	0.441329	1.025551
Cl310	Cl	0.502531	-0.214009	0.373505
Cl311	Cl	0.835864	0.119324	0.706838
Cl312	Cl	1.169198	0.452657	1.040171
Cl313	Cl	1.132801	-0.462218	0.391394
Cl314	Cl	1.466134	-0.128885	0.724727
Cl315	Cl	1.799468	0.204449	1.058060
Cl316	Cl	1.139446	-0.195328	0.541559
Cl317	Cl	1.472779	0.138006	0.874893
Cl318	Cl	1.806112	0.471339	1.208226
Cl319	Cl	1.133051	-1.087817	0.391543
Cl320	Cl	1.466384	-0.754484	0.724876
Cl321	Cl	1.799718	-0.421150	1.058209
Cl322	Cl	1.133008	-0.964568	0.391521
Cl323	Cl	1.466341	-0.631234	0.724854
Cl324	Cl	1.799674	-0.297901	1.058187
Cl325	Cl	1.179665	-0.836684	0.434462
Cl326	Cl	1.512999	-0.503350	0.767795
Cl327	Cl	1.846332	-0.170017	1.101129
Cl328	Cl	0.922150	-1.087522	0.197575
Cl329	Cl	1.255483	-0.754188	0.530908
Cl330	Cl	1.588817	-0.420855	0.864242
Cl331	Cl	0.875248	-0.713039	0.154561
Cl332	Cl	1.208582	-0.379706	0.487895
Cl333	Cl	1.541915	-0.046373	0.821228
Cl334	Cl	0.922086	-0.964291	0.197559
Cl335	Cl	1.255419	-0.630957	0.530892
Cl336	Cl	1.588752	-0.297624	0.864225
H337	H	0.895988	-0.824209	0.173606
H338	H	1.229322	-0.490876	0.506939
H339	H	1.562655	-0.157543	0.840273
H340	H	0.942623	-0.573118	0.216491
H341	H	1.275957	-0.239785	0.549824
H342	H	1.609290	0.093548	0.883157
Cl343	Cl	0.921888	-0.461930	0.197443
Cl344	Cl	1.255222	-0.128597	0.530777
Cl345	Cl	1.588555	0.204737	0.864110
