data_functionalizedCrystal
_audit_creation_method	'MofGen! by Chris Wilmer'
_symmetry_space_group_name_H-M	'P1'
_symmetry_Int_Tables_number	1
_symmetry_cell_setting	triclinic
loop_
_symmetry_equiv_pos_as_xyz
  x,y,z
_cell_length_a	26.809956
_cell_length_b	10.654541
_cell_length_c	10.654555
_cell_angle_alpha	95.513259
_cell_angle_beta	89.993064
_cell_angle_gamma	89.992438
loop_
_atom_site_label
_atom_site_type_symbol
_atom_site_fract_x
_atom_site_fract_y
_atom_site_fract_z
O1	O	0.041461	-1.667861	0.176366
O2	O	0.041465	-1.302382	0.193175
O3	O	0.041463	-1.493517	0.002032
O4	O	0.041463	-1.476726	0.367509
O5	O	-0.041496	-1.493481	0.002061
O6	O	-0.041494	-1.302346	0.193204
O7	O	-0.041498	-1.667825	0.176395
Zn8	Zn	-0.054668	-1.485080	0.184804
Zn9	Zn	0.054635	-1.485127	0.184766
O10	O	-0.041496	-1.476690	0.367538
C11	C	-0.000014	-1.255566	0.191956
C12	C	-0.000012	-1.116123	0.188266
N13	N	-0.129264	-1.485056	0.184830
C14	C	-0.000015	-1.492263	-0.044751
C15	C	-0.000012	-1.488566	-0.184194
C16	C	-0.473891	-1.569751	0.100149
C17	C	-0.682768	-1.569781	0.100130
O18	O	-0.709773	-1.641740	0.028138
N19	N	-0.708891	-1.485134	0.184738
C20	C	-0.682790	-1.400468	0.269352
O21	O	-0.709802	-1.328463	0.341307
C22	C	-0.473914	-1.400433	0.269364
C23	C	-0.447794	-1.485094	0.184758
C24	C	-0.447771	-1.654404	0.015549
C25	C	-0.395555	-1.654401	0.015560
C26	C	-0.369458	-1.569744	0.100169
C27	C	-0.395578	-1.485091	0.184769
C28	C	-0.447814	-1.315763	0.353970
C29	C	-0.395592	-1.315759	0.353964
C30	C	-0.369472	-1.400420	0.269358
C31	C	-0.317265	-1.400430	0.269388
N32	N	-0.291142	-1.485077	0.184780
C33	C	-0.317239	-1.569734	0.100170
C34	C	-0.792454	-1.400494	0.269341
C35	C	-0.844673	-1.400504	0.269340
C36	C	-0.844647	-1.569815	0.100116
C37	C	-0.792427	-1.569810	0.100125
C38	C	-0.766331	-1.485141	0.184733
C39	C	-0.207581	-1.569721	0.100199
C40	C	-0.155360	-1.569713	0.100220
C41	C	-0.155390	-1.400398	0.269439
C42	C	-0.207607	-1.400409	0.269423
C43	C	-0.233701	-1.485075	0.184792
O44	O	-0.290228	-1.328499	0.341333
O45	O	-0.290219	-1.641710	0.028207
C46	C	-0.526107	-1.569755	0.100139
C47	C	-0.552227	-1.485102	0.184738
C48	C	-0.526130	-1.400445	0.269348
C49	C	-0.604445	-1.485112	0.184737
C50	C	-0.630542	-1.569768	0.100127
C51	C	-0.604420	-1.654415	0.015519
C52	C	-0.552203	-1.654411	0.015529
C53	C	-0.552252	-1.315798	0.353956
C54	C	-0.604469	-1.315810	0.353940
C55	C	-0.630565	-1.400466	0.269330
N56	N	0.129231	-1.485161	0.184731
C57	C	-0.000018	-1.714641	0.177614
C58	C	-0.000016	-1.854084	0.181305
C59	C	-0.000006	-1.088161	0.416829
C60	C	-0.000000	-1.008671	0.529372
C61	C	0.000000	-0.877653	0.525896
C62	C	-0.000006	-0.826123	0.409865
C63	C	-0.000011	-0.905613	0.297323
C64	C	-0.000010	-1.036633	0.300811
C65	C	-0.000021	-0.933574	0.068762
C66	C	-0.000018	-1.064593	0.072235
C67	C	-0.000028	-0.882044	-0.047268
C68	C	-0.000029	-0.961534	-0.159814
C69	C	-0.000029	-1.092560	-0.156333
C70	C	-0.000024	-1.144082	-0.040308
C71	C	-0.090461	-1.481587	-0.446193
C72	C	-0.135683	-1.483298	-0.380662
C73	C	-0.135683	-1.486767	-0.249644
C74	C	-0.090456	-1.488520	-0.184152
C75	C	-0.045234	-1.486809	-0.249682
C76	C	-0.045239	-1.483344	-0.380704
C77	C	0.045210	-1.486854	-0.249724
C78	C	0.045211	-1.483395	-0.380744
C79	C	0.090436	-1.488608	-0.184232
C80	C	0.135659	-1.486905	-0.249764
C81	C	0.135657	-1.483438	-0.380791
C82	C	0.090433	-1.481683	-0.446274
C83	C	-0.000016	-1.477944	0.414321
C84	C	-0.000016	-1.481641	0.553764
H85	H	-0.134095	-1.638659	0.031324
H86	H	0.090433	-1.491425	-0.077549
Br87	Br	-0.757044	-1.285577	0.384179
H88	H	-0.865936	-1.331579	0.338247
H89	H	-0.090460	-1.491329	-0.077467
H90	H	-0.469074	-1.246824	0.422863
Br91	Br	-0.000019	-1.321892	-0.035575
H92	H	-0.172506	-1.488137	-0.196286
Br93	Br	-0.090464	-1.476914	-0.624010
Br94	Br	-0.197059	-1.480899	-0.469546
H95	H	0.172483	-1.482034	-0.434136
Br96	Br	-0.360180	-1.200838	0.468792
Br97	Br	-0.000042	-1.200429	-0.309079
Br98	Br	0.197031	-1.489293	-0.160879
Br99	Br	0.000000	-0.769769	0.678632
Br100	Br	0.000007	-1.078609	0.686834
Br101	Br	0.090427	-1.476991	-0.624089
Br102	Br	-0.000017	-0.648311	0.405151
H103	H	-0.000034	-0.919567	-0.254277
Br104	Br	-0.242986	-1.684625	-0.014658
H105	H	-0.469014	-1.723342	-0.053356
Br106	Br	-0.756985	-1.684711	-0.014701
Br107	Br	-0.360112	-1.769295	-0.099272
H108	H	-0.625676	-1.723351	-0.053370
H109	H	-0.865903	-1.638748	0.031225
H110	H	-0.228874	-1.331483	0.338328
Br111	Br	-0.000031	-0.704233	-0.051988
H112	H	-0.134134	-1.331475	0.338331
H113	H	-0.530941	-1.723350	-0.053365
H114	H	-0.625732	-1.246871	0.422847
H115	H	0.000005	-1.194841	0.419670
Br116	Br	-0.516842	-1.200896	0.468793
