data_functionalizedCrystal
_audit_creation_method	'MofGen! by Chris Wilmer'
_symmetry_space_group_name_H-M	'P1'
_symmetry_Int_Tables_number	1
_symmetry_cell_setting	triclinic
loop_
_symmetry_equiv_pos_as_xyz
  x,y,z
_cell_length_a	16.992694
_cell_length_b	19.188930
_cell_length_c	16.053802
_cell_angle_alpha	92.551696
_cell_angle_beta	87.249047
_cell_angle_gamma	86.906503
loop_
_atom_site_label
_atom_site_type_symbol
_atom_site_fract_x
_atom_site_fract_y
_atom_site_fract_z
O1	O	1.043197	0.145267	-0.069340
O2	O	1.543197	0.645267	0.430660
O3	O	0.814918	0.143642	-0.069364
O4	O	1.314918	0.643642	0.430636
O5	O	0.935644	0.043185	-0.069335
O6	O	1.435644	0.543185	0.430665
O7	O	0.922471	0.245724	-0.069369
O8	O	1.422471	0.745724	0.430631
O9	O	0.928999	0.048690	0.069522
O10	O	1.428999	0.548690	0.569522
O11	O	0.808273	0.149147	0.069493
O12	O	1.308273	0.649147	0.569493
O13	O	1.036552	0.150772	0.069517
O14	O	1.536552	0.650772	0.569517
Zn15	Zn	0.921357	0.150834	0.091552
Zn16	Zn	1.421357	0.650834	0.591552
Zn17	Zn	0.930113	0.143581	-0.091399
Zn18	Zn	1.430113	0.643581	0.408601
O19	O	0.915826	0.251229	0.069488
O20	O	1.415826	0.751229	0.569488
C21	C	0.782390	0.144306	0.000061
C22	C	1.282390	0.644306	0.500061
C23	C	0.695368	0.138072	0.000053
C24	C	1.195368	0.638072	0.500053
C25	C	0.644922	0.198212	0.000043
C26	C	1.144922	0.698212	0.500043
C27	C	0.563155	0.192351	0.000056
C28	C	1.063155	0.692351	0.500056
C29	C	0.531836	0.126351	0.000072
C30	C	1.031836	0.626351	0.500072
C31	C	0.582288	0.066208	0.000084
C32	C	1.082288	0.566208	0.500084
C33	C	0.664054	0.072069	0.000077
C34	C	1.164054	0.572069	0.500077
C35	C	0.288320	0.102059	0.000098
C36	C	0.788320	0.602059	0.500098
C37	C	0.206548	0.096203	0.000102
C38	C	0.706548	0.596203	0.500102
C39	C	0.187420	0.222347	0.000076
C40	C	0.687420	0.722347	0.500076
C41	C	0.269188	0.228202	0.000064
C42	C	0.769188	0.728202	0.500064
C43	C	0.319633	0.168059	0.000081
C44	C	0.819633	0.668059	0.500081
N45	N	0.448257	0.120359	0.000082
N46	N	0.948257	0.620359	0.500082
N47	N	0.403210	0.174051	0.000076
N48	N	0.903210	0.674051	0.500076
C49	C	0.931895	0.019902	0.000096
C50	C	1.431895	0.519902	0.500096
C51	C	0.930614	-0.057677	0.000103
C52	C	1.430614	0.442323	0.500103
C53	C	1.001452	-0.098456	0.000114
C54	C	1.501452	0.401544	0.500114
C55	C	1.000250	-0.171350	0.000101
C56	C	1.500250	0.328650	0.500101
C57	C	0.928204	-0.203463	0.000093
C58	C	1.428204	0.296537	0.500093
C59	C	0.857356	-0.162676	0.000076
C60	C	1.357356	0.337324	0.500076
C61	C	0.858561	-0.089783	0.000081
C62	C	1.358561	0.410217	0.500081
N63	N	0.870872	-0.312817	0.047342
N64	N	1.370872	0.187183	0.547342
N65	N	0.869732	-0.382063	0.047339
N66	N	1.369732	0.117937	0.547339
C67	C	0.924569	-0.423085	0.000075
C68	C	1.424569	0.076915	0.500075
N69	N	0.980600	-0.392247	-0.047175
N70	N	1.480600	0.107753	0.452825
N71	N	0.981742	-0.322995	-0.047168
N72	N	1.481742	0.177005	0.452832
C73	C	0.926889	-0.282503	0.000086
C74	C	1.426889	0.217497	0.500086
C75	C	0.994108	-0.542905	0.000071
C76	C	1.494108	-0.042905	0.500071
C77	C	0.992903	-0.615801	0.000052
C78	C	1.492903	-0.115801	0.500052
C79	C	0.850007	-0.607124	0.000036
C80	C	1.350007	-0.107124	0.500036
C81	C	0.851215	-0.534230	0.000046
C82	C	1.351215	-0.034230	0.500046
C83	C	0.923267	-0.502125	0.000068
C84	C	1.423267	-0.002125	0.500068
C85	C	1.069080	0.150109	0.000090
C86	C	1.569080	0.650109	0.500090
C87	C	1.156102	0.156342	0.000093
C88	C	1.656102	0.656342	0.500093
C89	C	0.919575	0.274513	0.000055
C90	C	1.419575	0.774513	0.500055
C91	C	0.920856	0.352091	0.000043
C92	C	1.420856	0.852091	0.500043
N93	N	0.915388	0.155784	0.216410
N94	N	1.415388	0.655784	0.716410
N95	N	0.936088	0.138625	-0.216258
N96	N	1.436088	0.638625	0.283742
C97	C	0.966776	0.113057	0.260117
C98	C	1.466776	0.613057	0.760117
C99	C	0.962607	0.116526	0.347523
C100	C	1.462607	0.616526	0.847523
C101	C	0.907054	0.162727	0.391220
C102	C	1.407054	0.662727	0.891220
C103	C	0.855661	0.205456	0.347508
C104	C	1.355661	0.705456	0.847508
C105	C	0.859826	0.201983	0.260104
C106	C	1.359826	0.701983	0.760104
C107	C	0.888860	0.177881	0.652626
C108	C	1.388860	0.677881	1.152626
C109	C	0.884700	0.181353	0.740036
C110	C	1.384700	0.681353	1.240036
C111	C	0.991646	0.092421	0.740045
C112	C	1.491646	0.592421	1.240045
C113	C	0.995810	0.088955	0.652639
C114	C	1.495810	0.588955	1.152639
C115	C	0.944414	0.131681	0.608934
C116	C	1.444414	0.631681	1.108934
N117	N	0.902794	0.166276	0.480563
N118	N	1.402794	0.666276	0.980563
N119	N	0.948671	0.128128	0.519593
N120	N	1.448671	0.628128	1.019593
H121	H	1.060123	-0.072320	0.000129
H122	H	1.560123	0.427680	0.500129
H123	H	1.033489	0.057635	0.775637
H124	H	1.533489	0.557635	1.275637
H125	H	1.057937	-0.204558	0.000107
H126	H	1.557937	0.295442	0.500107
H127	H	0.798696	-0.188827	0.000068
H128	H	1.298696	0.311173	0.500068
H129	H	0.839460	0.218978	0.775611
H130	H	1.339460	0.718978	1.275611
H131	H	0.791346	-0.633270	0.000025
H132	H	1.291346	-0.133270	0.500025
H133	H	0.181053	0.042455	0.000114
H134	H	0.681053	0.542455	0.500114
C135	C	0.843696	0.295067	0.625705
C136	C	1.343696	0.795067	1.125705
C137	C	0.832373	0.224855	0.604596
C138	C	1.332373	0.724855	1.104596
H139	H	0.808824	0.324068	0.596048
H140	H	1.308824	0.824068	1.096048
H141	H	0.833270	0.303738	0.684007
H142	H	1.333270	0.803738	1.184007
H143	H	0.896672	0.305014	0.611361
H144	H	1.396672	0.805014	1.111361
H145	H	0.779398	0.214906	0.618946
H146	H	1.279398	0.714906	1.118946
H147	H	0.842793	0.216180	0.546281
H148	H	1.342793	0.716180	1.046281
H149	H	0.705127	0.023097	0.000084
H150	H	1.205127	0.523097	0.500084
C151	C	1.077871	-0.705614	-0.071331
C152	C	1.577871	-0.205614	0.428669
C153	C	1.070777	-0.660625	0.000059
C154	C	1.570777	-0.160625	0.500059
H155	H	1.125951	-0.733283	-0.071328
H156	H	1.625951	-0.233283	0.428672
H157	H	1.034797	-0.735168	-0.071337
H158	H	1.534797	-0.235168	0.428663
H159	H	1.077688	-0.678897	-0.119742
H160	H	1.577688	-0.178897	0.380258
H161	H	1.070954	-0.687342	0.048471
H162	H	1.570954	-0.187342	0.548471
H163	H	1.113862	-0.631067	0.000073
H164	H	1.613862	-0.131067	0.500073
C165	C	0.709852	-0.532978	0.000042
C166	C	1.209852	-0.032978	0.500042
C167	C	0.773345	-0.489401	0.000049
C168	C	1.273345	0.010599	0.500049
H169	H	0.661777	-0.505301	0.000047
H170	H	1.161777	-0.005301	0.500047
H171	H	0.714668	-0.563498	-0.048381
H172	H	1.214668	-0.063498	0.451619
H173	H	0.710044	-0.559680	0.048465
H174	H	1.210044	-0.059680	0.548465
H175	H	0.773156	-0.462702	-0.048378
H176	H	1.273156	0.037298	0.451622
H177	H	0.768527	-0.458869	0.048476
H178	H	1.268527	0.041131	0.548476
H179	H	1.004451	0.081734	0.383108
H180	H	1.504451	0.581734	0.883108
H181	H	1.012016	0.075438	0.224544
H182	H	1.512016	0.575438	0.724544
C183	C	0.717196	-0.088530	0.000065
C184	C	1.217196	0.411470	0.500065
C185	C	0.780690	-0.044954	0.000077
C186	C	1.280690	0.455046	0.500077
H187	H	0.669121	-0.060852	0.000069
H188	H	1.169121	0.439148	0.500069
H189	H	0.722013	-0.119049	-0.048358
H190	H	1.222013	0.380951	0.451642
H191	H	0.717385	-0.115234	0.048487
H192	H	1.217385	0.384766	0.548487
H193	H	0.780503	-0.018254	-0.048348
H194	H	1.280503	0.481746	0.451652
H195	H	0.775870	-0.014424	0.048506
H196	H	1.275870	0.485576	0.548506
H197	H	1.052778	-0.516763	0.000085
H198	H	1.552778	-0.016763	0.500085
C199	C	1.101095	0.001391	0.661430
C200	C	1.601095	0.501391	1.161430
C201	C	1.056871	0.038165	0.604609
C202	C	1.556871	0.538165	1.104609
H203	H	1.138789	-0.029966	0.631777
H204	H	1.638789	0.470034	1.131777
H205	H	1.127567	0.033390	0.695506
H206	H	1.627567	0.533390	1.195506
H207	H	1.066918	-0.024201	0.695536
H208	H	1.566918	0.475799	1.195536
H209	H	1.091047	0.063760	0.570507
H210	H	1.591047	0.563760	1.070507
H211	H	1.030397	0.006161	0.570519
H212	H	1.530397	0.506161	1.070519
C213	C	0.801796	0.250275	0.481487
C214	C	1.301796	0.750275	0.981487
C215	C	0.794597	0.256244	0.395539
C216	C	1.294597	0.756244	0.895539
H217	H	0.764101	0.281634	0.511136
H218	H	1.264101	0.781634	1.011136
H219	H	0.792759	0.203782	0.495824
H220	H	1.292759	0.703782	0.995824
H221	H	0.853408	0.261372	0.495790
H222	H	1.353408	0.761372	0.995790
H223	H	0.742986	0.245141	0.381234
H224	H	1.242986	0.745141	0.881234
H225	H	0.803628	0.302747	0.381196
H226	H	1.303628	0.802747	0.881196
H227	H	0.556782	0.012469	0.000109
H228	H	1.056782	0.512469	0.500109
H229	H	0.817980	0.236775	0.224519
H230	H	1.317980	0.736775	0.724519
C231	C	0.422147	0.055025	0.000098
C232	C	0.922147	0.555025	0.500098
C233	C	0.343764	0.035950	0.000104
C234	C	0.843764	0.535950	0.500104
H235	H	0.456377	0.014209	0.000104
H236	H	0.956377	0.514209	0.500104
H237	H	0.433924	0.079978	-0.048324
H238	H	0.933924	0.579978	0.451676
H239	H	0.429301	0.083817	0.048521
H240	H	0.929301	0.583817	0.548521
H241	H	0.336608	0.007163	-0.048323
H242	H	0.836608	0.507163	0.451677
H243	H	0.331984	0.010987	0.048531
H244	H	0.831984	0.510987	0.548531
C245	C	0.617793	0.322310	0.000027
C246	C	1.117793	0.822310	0.500027
C247	C	0.679343	0.270762	0.000028
C248	C	1.179343	0.770762	0.500028
H249	H	0.639043	0.367100	0.000025
H250	H	1.139043	0.867100	0.500025
H251	H	0.588611	0.315481	-0.048390
H252	H	1.088611	0.815481	0.451610
H253	H	0.583989	0.319313	0.048456
H254	H	1.083989	0.819313	0.548456
H255	H	0.713144	0.273756	-0.048404
H256	H	1.213144	0.773756	0.451596
H257	H	0.708538	0.277593	0.048450
H258	H	1.208538	0.777593	0.548450
C259	C	0.463512	0.256104	-0.071341
C260	C	0.963512	0.756104	0.428659
C261	C	0.507705	0.258459	0.000036
C262	C	1.007705	0.758459	0.500036
H263	H	0.429278	0.296917	-0.071349
H264	H	0.929278	0.796917	0.428651
H265	H	0.498118	0.253844	-0.119756
H266	H	0.998118	0.753844	0.380244
H267	H	0.433158	0.215957	-0.071315
H268	H	0.933158	0.715957	0.428685
H269	H	0.538064	0.298603	0.000008
H270	H	1.038064	0.798603	0.500008
H271	H	0.473096	0.260726	0.048464
H272	H	0.973096	0.760726	0.548464
H273	H	0.294682	0.281946	0.000042
H274	H	0.794682	0.781946	0.500042
H275	H	0.146339	0.271312	0.000064
H276	H	0.646339	0.771312	0.500064
