data_functionalizedCrystal
_audit_creation_method	'MofGen! by Chris Wilmer'
_symmetry_space_group_name_H-M	'P1'
_symmetry_Int_Tables_number	1
_symmetry_cell_setting	triclinic
loop_
_symmetry_equiv_pos_as_xyz
  x,y,z
_cell_length_a	18.101390
_cell_length_b	13.897449
_cell_length_c	13.897448
_cell_angle_alpha	89.981028
_cell_angle_beta	89.968763
_cell_angle_gamma	90.018199
loop_
_atom_site_label
_atom_site_type_symbol
_atom_site_fract_x
_atom_site_fract_y
_atom_site_fract_z
Zn1	Zn	-0.418719	-1.474678	-0.383945
Zn2	Zn	0.081281	-0.974678	0.116055
Zn3	Zn	-0.294881	-1.474580	-0.545269
Zn4	Zn	0.205119	-0.974580	-0.045269
Zn5	Zn	-0.294895	-1.313375	-0.383993
Zn6	Zn	0.205105	-0.813375	0.116007
Zn7	Zn	-0.418684	-1.313349	-0.545203
Zn8	Zn	0.081316	-0.813349	-0.045203
O9	O	-0.356795	-1.393996	-0.464603
O10	O	0.143205	-0.893996	0.035397
O11	O	-0.402301	-1.609647	-0.405352
O12	O	0.097699	-1.109647	0.094648
O13	O	-0.191250	-1.453165	-0.523922
O14	O	0.308750	-0.953165	-0.023922
O15	O	-0.311340	-1.334824	-0.249005
O16	O	0.188660	-0.834824	0.250995
O17	O	-0.311318	-1.609574	-0.523876
O18	O	0.188682	-1.109574	-0.023876
O19	O	-0.402314	-1.453333	-0.248970
O20	O	0.097686	-0.953333	0.251030
O21	O	-0.191260	-1.334728	-0.405434
O22	O	0.308740	-0.834728	0.094566
O23	O	-0.311306	-1.178390	-0.405370
O24	O	0.188694	-0.678390	0.094630
O25	O	-0.522322	-1.334781	-0.523765
O26	O	-0.022322	-0.834781	-0.023765
O27	O	-0.402254	-1.178371	-0.523811
O28	O	0.097746	-0.678371	-0.023811
O29	O	-0.522348	-1.453309	-0.405289
O30	O	-0.022348	-0.953309	0.094711
O31	O	-0.311284	-1.453140	-0.680242
O32	O	0.188716	-0.953140	-0.180242
O33	O	-0.402241	-1.334685	-0.680194
O34	O	0.097759	-0.834685	-0.180194
C35	C	-0.356778	-1.143381	-0.464590
C36	C	0.143222	-0.643381	0.035410
C37	C	-0.356788	-1.036167	-0.464607
C38	C	0.143212	-0.536167	0.035393
C39	C	-0.356773	-1.393925	-0.715217
C40	C	0.143227	-0.893925	-0.215217
C41	C	-0.356789	-1.393983	-0.822431
C42	C	0.143211	-0.893983	-0.322431
C43	C	-0.549957	-1.394053	-0.464514
C44	C	-0.049957	-0.894053	0.035486
C45	C	-0.632271	-1.394077	-0.464477
C46	C	-0.132271	-0.894077	0.035523
C47	C	-0.931362	-1.394129	-0.464417
C48	C	-0.431362	-0.894129	0.035583
C49	C	-0.900053	-1.468949	-0.390137
C50	C	-0.400053	-0.968949	0.109863
C51	C	-0.814435	-1.468716	-0.389862
C52	C	-0.314435	-0.968716	0.110138
C53	C	-0.782980	-1.394104	-0.464447
C54	C	-0.282980	-0.894104	0.035553
C55	C	-0.814054	-1.292481	-0.436832
C56	C	-0.314054	-0.792481	0.063168
C57	C	-0.899699	-1.292929	-0.436275
C58	C	-0.399699	-0.792929	0.063725
C59	C	-0.899776	-1.420037	-0.566502
C60	C	-0.399776	-0.920037	-0.066502
C61	C	-0.814126	-1.422267	-0.565982
C62	C	-0.314126	-0.922267	-0.065982
C63	C	-0.699120	-1.394084	-0.464465
C64	C	-0.199120	-0.894084	0.035535
C65	C	-1.015222	-1.394143	-0.464396
C66	C	-0.515222	-0.894143	0.035604
C67	C	-0.164384	-1.393994	-0.464621
C68	C	0.335616	-0.893994	0.035379
C69	C	-0.082071	-1.394156	-0.464386
C70	C	0.417929	-0.894156	0.035614
C71	C	-0.356812	-1.645588	-0.464616
C72	C	0.143188	-1.145588	0.035384
C73	C	-0.356820	-1.752802	-0.464622
C74	C	0.143180	-1.252802	0.035378
C75	C	-0.356808	-0.839872	-0.464611
C76	C	0.143192	-0.339872	0.035389
C77	C	-0.356795	-0.949105	-0.464606
C78	C	0.143205	-0.449105	0.035394
C79	C	-0.356835	-1.394085	-1.018726
C80	C	0.143165	-0.894085	-0.518726
C81	C	-0.356812	-1.394026	-0.909493
C82	C	0.143188	-0.894026	-0.409493
C83	C	-0.356833	-1.394092	-0.213010
C84	C	0.143167	-0.894092	0.286990
C85	C	-0.356849	-1.394134	-0.105796
C86	C	0.143151	-0.894134	0.394204
H87	H	-0.793426	-1.544071	-0.407155
H88	H	-0.293426	-1.044071	0.092845
O89	O	-0.788669	-1.361849	-0.635493
O90	O	-0.288669	-0.861849	-0.135493
C91	C	-0.810774	-1.266913	-0.614317
C92	C	-0.310774	-0.766913	-0.114317
H93	H	-0.861444	-1.268601	-0.565596
H94	H	-0.361444	-0.768601	-0.065596
H95	H	-0.824903	-1.227728	-0.683992
H96	H	-0.324903	-0.727728	-0.183992
H97	H	-0.763851	-1.227642	-0.576240
H98	H	-0.263851	-0.727642	-0.076240
H99	H	-0.920029	-1.365547	-0.621848
H100	H	-0.420029	-0.865547	-0.121848
H101	H	-0.920654	-1.544551	-0.407217
H102	H	-0.420654	-1.044551	0.092783
O103	O	-0.789840	-1.224050	-0.499318
O104	O	-0.289840	-0.724050	0.000682
C105	C	-0.818738	-1.133774	-0.472419
C106	C	-0.318738	-0.633774	0.027581
H107	H	-0.870979	-1.144703	-0.427884
H108	H	-0.370979	-0.644703	0.072116
H109	H	-0.832554	-1.090492	-0.539738
H110	H	-0.332554	-0.590492	-0.039738
H111	H	-0.776050	-1.093127	-0.427885
H112	H	-0.276050	-0.593127	0.072115
H113	H	-0.921590	-1.452015	-0.314932
H114	H	-0.421590	-0.952015	0.185068
H115	H	-0.793961	-1.451565	-0.314235
H116	H	-0.293961	-0.951565	0.185765
O117	O	-0.923589	-1.266573	-0.347315
O118	O	-0.423589	-0.766573	0.152685
C119	C	-0.966954	-1.182643	-0.354739
C120	C	-0.466954	-0.682643	0.145261
H121	H	-0.951902	-1.142492	-0.423557
H122	H	-0.451902	-0.642492	0.076443
H123	H	-0.956115	-1.134359	-0.289965
H124	H	-0.456115	-0.634359	0.210035
H125	H	-1.027909	-1.203208	-0.356696
H126	H	-0.527909	-0.703208	0.143304
O127	O	-0.924537	-1.224220	-0.497986
O128	O	-0.424537	-0.724220	0.002014
C129	C	-1.002428	-1.223943	-0.498045
C130	C	-0.502428	-0.723943	0.001955
H131	H	-1.023611	-1.297065	-0.473069
H132	H	-0.523611	-0.797065	0.026931
H133	H	-1.023322	-1.208895	-0.573940
H134	H	-0.523322	-0.708895	-0.073940
H135	H	-1.023336	-1.165645	-0.447176
H136	H	-0.523336	-0.665645	0.052824
O137	O	-0.789964	-1.511473	-0.590981
O138	O	-0.289964	-1.011473	-0.090981
C139	C	-0.818230	-1.535980	-0.682261
C140	C	-0.318230	-1.035980	-0.182261
H141	H	-0.870251	-1.492201	-0.697045
H142	H	-0.370251	-0.992201	-0.197045
H143	H	-0.832236	-1.615945	-0.683803
H144	H	-0.332236	-1.115945	-0.183803
H145	H	-0.775061	-1.519611	-0.739747
H146	H	-0.275061	-1.019611	-0.239747
O147	O	-0.788361	-1.265856	-0.348838
O148	O	-0.288361	-0.765856	0.151162
C149	C	-0.710545	-1.261908	-0.351010
C150	C	-0.210545	-0.761908	0.148990
H151	H	-0.689093	-1.309541	-0.411657
H152	H	-0.189093	-0.809541	0.088343
H153	H	-0.687594	-1.288464	-0.279396
H154	H	-0.187594	-0.788464	0.220604
H155	H	-0.692023	-1.184528	-0.363730
H156	H	-0.192023	-0.684528	0.136270
H157	H	-0.921420	-1.492843	-0.591648
H158	H	-0.421420	-0.992843	-0.091648
