data_functionalizedCrystal
_audit_creation_method	'MofGen! by Chris Wilmer'
_symmetry_space_group_name_H-M	'P1'
_symmetry_Int_Tables_number	1
_symmetry_cell_setting	triclinic
loop_
_symmetry_equiv_pos_as_xyz
  x,y,z
_cell_length_a	10.654556
_cell_length_b	11.792241
_cell_length_c	9.130313
_cell_angle_alpha	89.995332
_cell_angle_beta	89.998135
_cell_angle_gamma	84.340476
loop_
_atom_site_label
_atom_site_type_symbol
_atom_site_fract_x
_atom_site_fract_y
_atom_site_fract_z
O1	O	1.667384	0.159454	-0.121745
O2	O	2.167384	0.659454	0.378255
O3	O	1.301863	0.174635	-0.121760
O4	O	1.801863	0.674635	0.378240
O5	O	1.493494	0.001895	-0.121742
O6	O	1.993494	0.501895	0.378258
O7	O	1.475753	0.332195	-0.121763
O8	O	1.975753	0.832195	0.378237
O9	O	1.493481	0.001890	0.121857
O10	O	1.993481	0.501890	0.621857
O11	O	1.301850	0.174630	0.121839
O12	O	1.801850	0.674630	0.621839
O13	O	1.667371	0.159449	0.121854
O14	O	2.167371	0.659449	0.621854
Cu15	Cu	1.484609	0.167039	0.144089
Cu16	Cu	1.984609	0.667039	0.644089
Cu17	Cu	1.484625	0.167045	-0.143995
Cu18	Cu	1.984625	0.667045	0.356005
O19	O	1.475740	0.332190	0.121836
O20	O	1.975740	0.832190	0.621836
C21	C	1.255062	0.173516	0.000038
C22	C	1.755062	0.673516	0.500038
C23	C	1.115629	0.170177	0.000032
C24	C	1.615629	0.670177	0.500032
C25	C	1.492373	-0.040401	0.000057
C26	C	1.992373	0.459599	0.500057
C27	C	1.489037	-0.166423	0.000056
C28	C	1.989037	0.333577	0.500056
C29	C	0.919104	0.165478	-0.132742
C30	C	1.419104	0.665478	0.367258
C31	C	1.050117	0.168609	-0.132751
C32	C	1.550117	0.668609	0.367249
C33	C	1.050121	0.168603	0.132834
C34	C	1.550121	0.668603	0.632834
C35	C	0.919112	0.165464	0.132841
C36	C	1.419112	0.665464	0.632841
C37	C	1.482904	-0.397149	0.000031
C38	C	1.982904	0.102851	0.500031
C39	C	1.486312	-0.268756	0.000044
C40	C	1.986312	0.231244	0.500044
C41	C	1.714172	0.160568	0.000053
C42	C	2.214172	0.660568	0.500053
C43	C	1.853605	0.163907	0.000049
C44	C	2.353605	0.663907	0.500049
C45	C	1.476861	0.374486	0.000034
C46	C	1.976861	0.874486	0.500034
C47	C	1.480197	0.500507	0.000026
C48	C	1.980197	1.000507	0.500026
N49	N	1.484607	0.167034	0.346712
N50	N	1.984607	0.667034	0.846712
N51	N	1.484636	0.167041	-0.346617
N52	N	1.984636	0.667041	0.153383
C53	C	1.569490	0.090577	0.423372
C54	C	2.069490	0.590577	0.923372
C55	C	1.569502	0.090578	0.576709
C56	C	2.069502	0.590578	1.076709
C57	C	1.399745	0.243502	0.576712
C58	C	1.899745	0.743502	1.076712
C59	C	1.399728	0.243495	0.423378
C60	C	1.899728	0.743495	0.923378
H61	H	0.865773	0.164209	-0.240870
H62	H	1.365773	0.664209	0.259130
H63	H	1.330639	0.305756	0.639149
H64	H	1.830639	0.805756	1.139149
H65	H	1.638603	0.028317	0.360954
H66	H	2.138603	0.528317	0.860954
H67	H	1.638620	0.028318	0.639121
H68	H	2.138620	0.528318	1.139121
H69	H	1.103440	0.169886	-0.240883
H70	H	1.603440	0.669886	0.259117
C71	C	1.306403	0.327660	0.339047
C72	C	1.806403	0.827660	0.839047
N73	N	1.236132	0.391068	0.275529
N74	N	1.736132	0.891068	0.775529
H75	H	1.103472	0.169873	0.240948
H76	H	1.603472	0.669873	0.740948
C77	C	0.847058	0.163746	0.278930
C78	C	1.347058	0.663746	0.778930
N79	N	0.792787	0.162452	0.388959
N80	N	1.292787	0.662452	0.888959
