data_functionalizedCrystal
_audit_creation_method	'MofGen! by Chris Wilmer'
_symmetry_space_group_name_H-M	'P1'
_symmetry_Int_Tables_number	1
_symmetry_cell_setting	triclinic
loop_
_symmetry_equiv_pos_as_xyz
  x,y,z
_cell_length_a	14.044220
_cell_length_b	11.295483
_cell_length_c	12.837942
_cell_angle_alpha	85.469583
_cell_angle_beta	85.991091
_cell_angle_gamma	85.525227
loop_
_atom_site_label
_atom_site_type_symbol
_atom_site_fract_x
_atom_site_fract_y
_atom_site_fract_z
O1	O	1.286265	-0.098895	-0.245585
O2	O	1.009476	-0.098925	-0.236489
O3	O	1.141733	-0.098903	-0.089567
O4	O	1.154009	-0.098916	-0.392507
O5	O	1.130114	0.099146	-0.102450
O6	O	0.997858	0.099124	-0.249372
O7	O	1.274647	0.099154	-0.258468
Cu8	Cu	1.135192	0.117222	-0.255096
Cu9	Cu	1.148932	-0.116993	-0.239861
O10	O	1.142390	0.099132	-0.405390
C11	C	0.967993	0.000096	-0.238949
C12	C	0.861696	0.000084	-0.227074
N13	N	1.125534	0.281957	-0.265812
N14	N	1.158595	-0.281728	-0.229138
C15	C	0.667072	0.000109	-0.205367
C16	C	0.617046	0.000110	-0.289584
C17	C	0.508750	0.000124	-0.277506
C18	C	0.775377	0.000095	-0.217444
C19	C	1.316130	0.000131	-0.256008
C20	C	1.422428	0.000135	-0.267882
C21	C	1.131777	0.000120	-0.057005
C22	C	1.119410	0.000117	0.059216
C23	C	1.228107	0.531264	-0.151941
C24	C	1.220817	0.655926	-0.160047
C25	C	1.103658	0.655947	-0.290124
C26	C	1.110949	0.531284	-0.282018
C27	C	1.173176	0.468947	-0.212926
C28	C	1.180471	0.344282	-0.204826
C29	C	1.063309	0.344305	-0.334896
C30	C	1.056018	0.468968	-0.343002
C31	C	1.152346	0.000106	-0.437952
C32	C	1.164714	0.000102	-0.554173
C33	C	1.268089	0.000108	0.286427
C34	C	1.256474	0.000105	0.395627
C35	C	1.084564	0.000099	0.386819
C36	C	1.096180	0.000102	0.277619
C37	C	1.187945	0.000108	0.227427
C38	C	1.199560	0.000120	0.118224
C39	C	1.027651	0.000105	0.109419
C40	C	1.016036	0.000102	0.218619
H41	H	0.655549	0.000101	-0.370756
F42	F	0.616749	0.000117	-0.099276
H43	H	1.052987	0.706718	-0.346370
H44	H	1.231143	0.293528	-0.148570
H45	H	1.278782	0.480508	-0.095691
H46	H	1.005351	0.519737	-0.399253
H47	H	1.265546	0.706661	-0.110387
F48	F	1.004850	0.277972	-0.399808
F49	F	0.942350	0.000118	0.046618
F50	F	1.297223	0.000135	0.064807
F51	F	1.365750	0.000140	0.233005
H52	H	1.009853	0.000080	0.427706
F53	F	1.341775	0.000101	0.458416
H54	H	0.941323	0.000092	0.259501
