data_functionalizedCrystal
_audit_creation_method	'MofGen! by Chris Wilmer'
_symmetry_space_group_name_H-M	'P1'
_symmetry_Int_Tables_number	1
_symmetry_cell_setting	triclinic
loop_
_symmetry_equiv_pos_as_xyz
  x,y,z
_cell_length_a	19.288840
_cell_length_b	23.532357
_cell_length_c	17.766277
_cell_angle_alpha	89.988084
_cell_angle_beta	89.983415
_cell_angle_gamma	82.977153
loop_
_atom_site_label
_atom_site_type_symbol
_atom_site_fract_x
_atom_site_fract_y
_atom_site_fract_z
O1	O	0.921130	0.070979	-0.062729
O2	O	1.421130	0.570979	0.437271
O3	O	0.718835	0.080578	-0.062704
O4	O	1.218835	0.580578	0.437296
O5	O	0.826101	-0.007143	-0.062702
O6	O	1.326101	0.492857	0.437298
O7	O	0.813864	0.158700	-0.062731
O8	O	1.313864	0.658700	0.437269
O9	O	0.826082	-0.007147	0.062487
O10	O	1.326082	0.492853	0.562487
O11	O	0.718816	0.080574	0.062484
O12	O	1.218816	0.580574	0.562484
O13	O	0.921111	0.070975	0.062460
O14	O	1.421111	0.570975	0.562460
Cu15	Cu	0.819962	0.075774	0.073903
Cu16	Cu	1.319962	0.575774	0.573903
Cu17	Cu	0.819984	0.075779	-0.074147
Cu18	Cu	1.319984	0.575779	0.425853
O19	O	0.813845	0.158696	0.062457
O20	O	1.313845	0.658696	0.562457
C21	C	0.692950	0.080269	-0.000106
C22	C	1.192950	0.580269	0.499894
C23	C	0.615848	0.079349	-0.000096
C24	C	1.115848	0.579349	0.499904
C25	C	0.579657	0.078910	-0.068338
C26	C	1.079657	0.578910	0.431662
C27	C	0.507212	0.078039	-0.068347
C28	C	1.007212	0.578039	0.431653
C29	C	0.470965	0.077596	-0.000110
C30	C	0.970965	0.577596	0.499890
C31	C	0.507165	0.078039	0.068141
C32	C	1.007165	0.578039	0.568141
C33	C	0.579607	0.078916	0.068148
C34	C	1.079607	0.578916	0.568148
C35	C	0.361744	0.042847	0.052164
C36	C	0.861744	0.542847	0.552164
C37	C	0.289304	0.041967	0.052154
C38	C	0.789304	0.541967	0.552154
C39	C	0.247530	0.074895	-0.000130
C40	C	0.747530	0.574895	0.499870
C41	C	0.278206	0.108696	-0.052416
C42	C	0.778206	0.608696	0.447584
C43	C	0.350648	0.109573	-0.052409
C44	C	0.850648	0.609573	0.447591
C45	C	0.392414	0.076646	-0.000111
C46	C	0.892414	0.576646	0.499889
C47	C	0.132786	0.073512	-0.068386
C48	C	0.632786	0.573512	0.431614
C49	C	0.060340	0.072645	-0.068392
C50	C	0.560340	0.572645	0.431608
C51	C	0.060295	0.072639	0.068098
C52	C	0.560295	0.572639	0.568098
C53	C	0.132739	0.073513	0.068102
C54	C	0.632739	0.573513	0.568102
C55	C	0.168980	0.073946	-0.000142
C56	C	0.668980	0.573946	0.499858
C57	C	0.825785	-0.028362	-0.000105
C58	C	1.325785	0.471638	0.499895
C59	C	0.824865	-0.091583	-0.000098
C60	C	1.324865	0.408417	0.499902
C61	C	0.819098	-0.483603	-0.068378
C62	C	1.319098	0.016397	0.431622
C63	C	0.818223	-0.543004	-0.068382
C64	C	1.318223	-0.043004	0.431618
O65	O	0.817756	-0.573720	-0.126418
O66	O	1.317756	-0.073720	0.373582
N67	N	0.817779	-0.572719	-0.000143
N68	N	1.317779	-0.072719	0.499857
C69	C	0.818203	-0.543028	0.068105
C70	C	1.318203	-0.043028	0.568105
O71	O	0.817744	-0.573757	0.126148
O72	O	1.317744	-0.073757	0.626148
C73	C	0.819073	-0.483628	0.068108
C74	C	1.319073	0.016372	0.568108
C75	C	0.819524	-0.453917	-0.000135
C76	C	1.319524	0.046083	0.499865
C77	C	0.819548	-0.453892	-0.136616
C78	C	1.319548	0.046108	0.363384
C79	C	0.820424	-0.394495	-0.136612
C80	C	1.320424	0.105505	0.363388
C81	C	0.820850	-0.364809	-0.068369
C82	C	1.320850	0.135191	0.431631
C83	C	0.820400	-0.394520	-0.000131
C84	C	1.320400	0.105480	0.499869
C85	C	0.819492	-0.453938	0.136356
C86	C	1.319492	0.046062	0.636356
C87	C	0.820361	-0.394533	0.136353
C88	C	1.320361	0.105467	0.636353
C89	C	0.820812	-0.364822	0.068109
C90	C	1.320812	0.135178	0.568109
C91	C	0.821702	-0.305437	0.068116
C92	C	1.321702	0.194563	0.568116
N93	N	0.822146	-0.275722	-0.000123
N94	N	1.322146	0.224278	0.499877
C95	C	0.821720	-0.305409	-0.068366
C96	C	1.321720	0.194591	0.431634
C97	C	0.816375	-0.667773	0.068093
C98	C	1.316375	-0.167773	0.568093
C99	C	0.815511	-0.727174	0.068090
C100	C	1.315511	-0.227174	0.568090
C101	C	0.815530	-0.727145	-0.068398
C102	C	1.315530	-0.227145	0.431602
C103	C	0.816399	-0.667745	-0.068394
C104	C	1.316399	-0.167745	0.431606
C105	C	0.816819	-0.638059	-0.000147
C106	C	1.316819	-0.138059	0.499853
C107	C	0.823560	-0.180671	-0.068351
C108	C	1.323560	0.319329	0.431649
C109	C	0.824439	-0.121269	-0.068341
C110	C	1.324439	0.378731	0.431659
C111	C	0.824416	-0.121302	0.068146
C112	C	1.324416	0.378698	0.568146
C113	C	0.823541	-0.180699	0.068136
C114	C	1.323541	0.319301	0.568136
C115	C	0.823111	-0.210382	-0.000119
C116	C	1.323111	0.289618	0.499881
O117	O	0.822167	-0.274684	0.126122
O118	O	1.322167	0.225316	0.626122
O119	O	0.822169	-0.274672	-0.126399
O120	O	1.322169	0.225328	0.373601
C121	C	0.946996	0.071283	-0.000140
C122	C	1.446996	0.571283	0.499860
C123	C	1.024098	0.072203	-0.000155
C124	C	1.524098	0.572203	0.499845
C125	C	0.814161	0.179915	-0.000141
C126	C	1.314161	0.679915	0.499859
C127	C	0.815081	0.243135	-0.000153
C128	C	1.315081	0.743135	0.499847
N129	N	0.819951	0.075770	0.178033
N130	N	1.319951	0.575770	0.678033
N131	N	0.820000	0.075778	-0.178278
N132	N	1.320000	0.575778	0.321722
C133	C	0.867464	0.036946	0.217421
C134	C	1.367464	0.536946	0.717421
C135	C	0.867468	0.036943	0.296223
C136	C	1.367468	0.536943	0.796223
C137	C	0.819966	0.075774	0.335634
C138	C	1.319966	0.575774	0.835634
C139	C	0.772445	0.114601	0.296236
C140	C	1.272445	0.614601	0.796236
C141	C	0.772437	0.114599	0.217436
C142	C	1.272437	0.614599	0.717436
C143	C	0.810496	0.127667	0.460463
C144	C	1.310496	0.627667	0.960463
C145	C	0.810508	0.127670	0.539262
C146	C	1.310508	0.627670	1.039262
C147	C	0.819985	0.075781	0.578680
C148	C	1.319985	0.575781	1.078680
C149	C	0.829464	0.023887	0.539289
C150	C	1.329464	0.523887	1.039289
C151	C	0.829457	0.023884	0.460489
C152	C	1.329457	0.523884	0.960489
C153	C	0.819968	0.075781	0.421079
C154	C	1.319968	0.575781	0.921079
C155	C	0.867504	0.036951	0.703514
C156	C	1.367504	0.536951	1.203514
C157	C	0.867503	0.036948	0.782317
C158	C	1.367503	0.536948	1.282317
C159	C	0.772483	0.114611	0.782329
C160	C	1.272483	0.614611	1.282329
C161	C	0.772481	0.114609	0.703527
C162	C	1.272481	0.614609	1.203527
C163	C	0.819995	0.075780	0.664124
C164	C	1.319995	0.575780	1.164124
H165	H	0.609160	0.079263	-0.123908
H166	H	1.109160	0.579263	0.376092
C167	C	0.816889	-0.635068	-0.143461
C168	C	1.316889	-0.135068	0.356539
H169	H	0.816507	-0.661260	-0.184101
H170	H	1.316507	-0.161260	0.315899
H171	H	0.857737	-0.616345	-0.146306
H172	H	1.357737	-0.116345	0.353694
H173	H	0.776710	-0.607445	-0.146295
H174	H	1.276710	-0.107445	0.353705
H175	H	0.802794	0.169926	0.571328
H176	H	1.302794	0.669926	1.071328
H177	H	0.819199	-0.478056	-0.192191
H178	H	1.319199	0.021944	0.307809
C179	C	0.839893	-0.033196	0.582635
C180	C	1.339893	0.466804	1.082635
H181	H	0.845544	-0.064100	0.547890
H182	H	1.345544	0.435900	1.047890
H183	H	0.800233	-0.036274	0.613393
H184	H	1.300233	0.463726	1.113393
H185	H	0.880353	-0.034431	0.613357
H186	H	1.380353	0.465569	1.113357
C187	C	0.720231	0.157325	0.660195
C188	C	1.220231	0.657325	1.160195
H189	H	0.727028	0.151762	0.607620
H190	H	1.227028	0.651762	1.107620
H191	H	0.727508	0.195318	0.673097
H192	H	1.227508	0.695318	1.173097
H193	H	0.673916	0.151242	0.673126
H194	H	1.173916	0.651242	1.173126
H195	H	0.733767	0.146217	0.328328
H196	H	1.233767	0.646217	0.828328
C197	C	0.467392	0.077561	-0.143416
C198	C	0.967392	0.577561	0.356584
H199	H	0.499352	0.077944	-0.184058
H200	H	0.999352	0.577944	0.315942
H201	H	0.433594	0.110425	-0.146258
H202	H	0.933594	0.610425	0.353742
H203	H	0.444674	0.044011	-0.146250
H204	H	0.944674	0.544011	0.353750
C205	C	0.820907	-0.361820	-0.211681
C206	C	1.320907	0.138180	0.288319
H207	H	0.820520	-0.388013	-0.252318
H208	H	1.320520	0.111987	0.247682
H209	H	0.861756	-0.343097	-0.214533
H210	H	1.361756	0.156903	0.285467
H211	H	0.780728	-0.334197	-0.214510
H212	H	1.280728	0.165803	0.285490
C213	C	0.839872	-0.033193	0.417160
C214	C	1.339872	0.466807	0.917160
H215	H	0.845613	-0.064097	0.451914
H216	H	1.345613	0.435903	0.951914
H217	H	0.880262	-0.034400	0.386318
H218	H	1.380262	0.465600	0.886318
H219	H	0.800154	-0.036299	0.386523
H220	H	1.300154	0.463701	0.886523
H221	H	0.906159	0.005327	0.328298
H222	H	1.406159	0.505327	0.828298
C223	C	0.020529	0.072159	-0.143463
C224	C	0.520529	0.572159	0.356537
H225	H	0.052493	0.072536	-0.184102
H226	H	0.552493	0.572536	0.315898
H227	H	-0.013270	0.105021	-0.146316
H228	H	0.486730	0.605021	0.353684
H229	H	-0.002187	0.038607	-0.146289
H230	H	0.497813	0.538607	0.353711
H231	H	0.162207	0.073867	0.123672
H232	H	0.662207	0.573867	0.623672
C233	C	0.720176	0.157311	0.174107
C234	C	1.220176	0.657311	0.674107
H235	H	0.691888	0.180440	0.208862
H236	H	1.191888	0.680440	0.708862
H237	H	0.691410	0.136887	0.143382
H238	H	1.191410	0.636887	0.643382
H239	H	0.744996	0.180967	0.143354
H240	H	1.244996	0.680967	0.643354
H241	H	0.815180	-0.751326	-0.123965
H242	H	1.315180	-0.251326	0.376035
C243	C	0.172653	0.074000	-0.143450
C244	C	0.672653	0.574000	0.356550
H245	H	0.140718	0.073623	-0.184095
H246	H	0.640718	0.573623	0.315905
H247	H	0.206454	0.041138	-0.146283
H248	H	0.706454	0.541138	0.353717
H249	H	0.195371	0.107551	-0.146284
H250	H	0.695371	0.607551	0.353716
C251	C	0.619423	0.079396	0.143215
C252	C	1.119423	0.579396	0.643215
H253	H	0.667757	0.079983	0.133446
H254	H	1.167757	0.579983	0.633446
H255	H	0.613081	0.046048	0.171262
H256	H	1.113081	0.546048	0.671262
H257	H	0.602003	0.112461	0.171246
H258	H	1.102003	0.612461	0.671246
H259	H	0.906191	0.005330	0.814387
H260	H	1.406191	0.505330	1.314387
H261	H	0.375620	0.137096	-0.094981
H262	H	0.875620	0.637096	0.405019
H263	H	0.906191	0.005332	0.671431
H264	H	1.406191	0.505332	1.171431
C265	C	0.232264	0.144922	-0.109929
C266	C	0.732264	0.644922	0.390071
H267	H	0.184726	0.139566	-0.102441
H268	H	0.684726	0.639566	0.397559
H269	H	0.246107	0.133340	-0.159468
H270	H	0.746107	0.633340	0.340532
H271	H	0.237606	0.184212	-0.103348
H272	H	0.737606	0.684212	0.396652
C273	C	0.815021	-0.759850	0.143158
C274	C	1.315021	-0.259850	0.643158
H275	H	0.815395	-0.733656	0.183798
H276	H	1.315395	-0.233656	0.683798
H277	H	0.855188	-0.787478	0.145995
H278	H	1.355188	-0.287478	0.645995
H279	H	0.774161	-0.778565	0.146000
H280	H	1.274161	-0.278565	0.646000
C281	C	0.407692	0.006625	0.109679
C282	C	0.907692	0.506625	0.609679
H283	H	0.455228	0.011992	0.102201
H284	H	0.955228	0.511992	0.602201
H285	H	0.402355	-0.032664	0.103104
H286	H	0.902355	0.467336	0.603104
H287	H	0.393845	0.018212	0.159220
H288	H	0.893845	0.518212	0.659220
H289	H	0.824766	-0.097121	0.123708
H290	H	1.324766	0.402879	0.623708
H291	H	0.816719	-0.643607	0.123671
H292	H	1.316719	-0.143607	0.623671
H293	H	0.030783	0.072283	0.123657
H294	H	0.530783	0.572283	0.623657
C295	C	0.720232	0.157324	0.825671
C296	C	1.220232	0.657324	1.325671
H297	H	0.727043	0.151767	0.878244
H298	H	1.227043	0.651767	1.378244
H299	H	0.673920	0.151240	0.812778
H300	H	1.173920	0.651240	1.312778
H301	H	0.727506	0.195320	0.812742
H302	H	1.227506	0.695320	1.312742
C303	C	0.818988	-0.486606	0.211425
C304	C	1.318988	0.013394	0.711425
H305	H	0.819357	-0.460409	0.252062
H306	H	1.319357	0.039591	0.752062
H307	H	0.859155	-0.514233	0.214271
H308	H	1.359155	-0.014233	0.714271
H309	H	0.778128	-0.505320	0.214263
H310	H	1.278128	-0.005320	0.714263
H311	H	0.802767	0.169924	0.428375
H312	H	1.302767	0.669924	0.928375
H313	H	0.906151	0.005328	0.185341
H314	H	1.406151	0.505328	0.685341
H315	H	0.264335	0.014441	0.094726
H316	H	0.764335	0.514441	0.594726
C317	C	0.467289	0.077595	0.143199
C318	C	0.967289	0.577595	0.643199
H319	H	0.418960	0.077018	0.133422
H320	H	0.918960	0.577018	0.633422
H321	H	0.473626	0.110956	0.171197
H322	H	0.973626	0.610956	0.671197
H323	H	0.484672	0.044542	0.171282
H324	H	0.984672	0.544542	0.671282
C325	C	0.824931	-0.088590	-0.143412
C326	C	1.324931	0.411410	0.356588
H327	H	0.824544	-0.114780	-0.184053
H328	H	1.324544	0.385220	0.315947
H329	H	0.865783	-0.069871	-0.146256
H330	H	1.365783	0.430129	0.353744
H331	H	0.784756	-0.060964	-0.146242
H332	H	1.284756	0.439036	0.353758
C333	C	0.820826	-0.361882	0.211427
C334	C	1.320826	0.138118	0.711427
H335	H	0.820437	-0.388088	0.252065
H336	H	1.320437	0.111912	0.752065
H337	H	0.780656	-0.334256	0.214272
H338	H	1.280656	0.165744	0.714272
H339	H	0.861683	-0.343167	0.214265
H340	H	1.361683	0.156833	0.714265
H341	H	0.823180	-0.204891	0.123706
H342	H	1.323180	0.295109	0.623706
H343	H	0.823206	-0.204831	-0.123931
H344	H	1.323206	0.295169	0.376069
