data_functionalizedCrystal
_audit_creation_method	'MofGen! by Chris Wilmer'
_symmetry_space_group_name_H-M	'P1'
_symmetry_Int_Tables_number	1
_symmetry_cell_setting	triclinic
loop_
_symmetry_equiv_pos_as_xyz
  x,y,z
_cell_length_a	16.109295
_cell_length_b	13.596369
_cell_length_c	16.109304
_cell_angle_alpha	89.997583
_cell_angle_beta	96.539088
_cell_angle_gamma	89.997006
loop_
_atom_site_label
_atom_site_type_symbol
_atom_site_fract_x
_atom_site_fract_y
_atom_site_fract_z
O1	O	-1.103138	0.081718	0.106839
O2	O	-0.853138	0.331718	0.356839
O3	O	-0.603138	0.581718	0.606839
O4	O	-0.353138	0.831718	0.856839
O5	O	-0.861076	0.081734	0.120143
O6	O	-0.611076	0.331734	0.370143
O7	O	-0.361076	0.581734	0.620143
O8	O	-0.111076	0.831734	0.870143
O9	O	-0.988755	0.081726	-0.007540
O10	O	-0.738755	0.331726	0.242460
O11	O	-0.488755	0.581726	0.492460
O12	O	-0.238755	0.831726	0.742460
O13	O	-0.975459	0.081726	0.234522
O14	O	-0.725459	0.331726	0.484522
O15	O	-0.475459	0.581726	0.734522
O16	O	-0.225459	0.831726	0.984522
O17	O	-0.988740	-0.081857	-0.007533
O18	O	-0.738740	0.168143	0.242467
O19	O	-0.488740	0.418143	0.492467
O20	O	-0.238740	0.668143	0.742467
O21	O	-0.861060	-0.081849	0.120151
O22	O	-0.611060	0.168151	0.370151
O23	O	-0.361060	0.418151	0.620151
O24	O	-0.111060	0.668151	0.870151
O25	O	-1.103123	-0.081865	0.106846
O26	O	-0.853123	0.168135	0.356846
O27	O	-0.603123	0.418135	0.606846
O28	O	-0.353123	0.668135	0.856846
Zn29	Zn	-0.982089	-0.107829	0.113500
Zn30	Zn	-0.732089	0.142171	0.363500
Zn31	Zn	-0.482089	0.392171	0.613500
Zn32	Zn	-0.232089	0.642171	0.863500
Zn33	Zn	-0.982109	0.107698	0.113490
Zn34	Zn	-0.732109	0.357698	0.363490
Zn35	Zn	-0.482109	0.607698	0.613490
Zn36	Zn	-0.232109	0.857698	0.863490
O37	O	-0.975443	-0.081857	0.234529
O38	O	-0.725443	0.168143	0.484529
O39	O	-0.475443	0.418143	0.734529
O40	O	-0.225443	0.668143	0.984529
C41	C	-0.830093	-0.000055	0.119609
C42	C	-0.580093	0.249945	0.369609
C43	C	-0.330093	0.499945	0.619609
C44	C	-0.080093	0.749945	0.869609
C45	C	-0.737797	-0.000049	0.117996
C46	C	-0.487797	0.249951	0.367996
C47	C	-0.237797	0.499951	0.617996
C48	C	0.012203	0.749951	0.867996
N49	N	-0.982081	-0.254921	0.113505
N50	N	-0.732081	-0.004921	0.363505
N51	N	-0.482081	0.245079	0.613505
N52	N	-0.232081	0.495079	0.863505
C53	C	-0.515525	-0.000059	0.190008
C54	C	-0.265525	0.249941	0.440008
C55	C	-0.015525	0.499941	0.690008
C56	C	0.234475	0.749941	0.940008
C57	C	-0.428804	-0.000065	0.188485
C58	C	-0.178804	0.249935	0.438485
C59	C	0.071196	0.499935	0.688485
C60	C	0.321196	0.749935	0.938485
C61	C	-0.448677	-0.000061	0.036996
C62	C	-0.198677	0.249939	0.286996
C63	C	0.051323	0.499939	0.536996
C64	C	0.301323	0.749939	0.786996
C65	C	-0.535396	-0.000062	0.038520
C66	C	-0.285396	0.249938	0.288520
C67	C	-0.035396	0.499938	0.538520
C68	C	0.214604	0.749938	0.788520
C69	C	-0.568818	-0.000056	0.115028
C70	C	-0.318818	0.249944	0.365028
C71	C	-0.068818	0.499944	0.615028
C72	C	0.181182	0.749944	0.865028
C73	C	-0.395378	-0.000061	0.111982
C74	C	-0.145378	0.249939	0.361982
C75	C	0.104622	0.499939	0.611982
C76	C	0.354622	0.749939	0.861982
C77	C	-0.301352	-0.000068	0.110331
C78	C	-0.051352	0.249932	0.360331
C79	C	0.198648	0.499932	0.610331
C80	C	0.448648	0.749932	0.860331
C81	C	-0.662850	-0.000052	0.116679
C82	C	-0.412850	0.249948	0.366679
C83	C	-0.162850	0.499948	0.616679
C84	C	0.087150	0.749948	0.866679
C85	C	-0.982085	-0.343919	0.113507
C86	C	-0.732085	-0.093919	0.363507
C87	C	-0.482085	0.156081	0.613507
C88	C	-0.232085	0.406081	0.863507
C89	C	-0.982093	-0.455570	0.113502
C90	C	-0.732093	-0.205570	0.363502
C91	C	-0.482093	0.044430	0.613502
C92	C	-0.232093	0.294430	0.863502
C93	C	-0.982104	-0.544561	0.113492
C94	C	-0.732104	-0.294561	0.363492
C95	C	-0.482104	-0.044561	0.613492
C96	C	-0.232104	0.205439	0.863492
C97	C	-0.982113	-0.656219	0.113487
C98	C	-0.732113	-0.406219	0.363487
C99	C	-0.482113	-0.156219	0.613487
C100	C	-0.232113	0.093781	0.863487
C101	C	-0.134105	-0.000072	0.107386
C102	C	0.115895	0.249928	0.357386
C103	C	0.365895	0.499928	0.607386
C104	C	0.615895	0.749928	0.857386
C105	C	-0.226398	-0.000069	0.109014
C106	C	0.023602	0.249931	0.359014
C107	C	0.273602	0.499931	0.609014
C108	C	0.523602	0.749931	0.859014
C109	C	-0.988209	-0.000063	-0.038511
C110	C	-0.738209	0.249937	0.211489
C111	C	-0.488209	0.499937	0.461489
C112	C	-0.238209	0.749937	0.711489
C113	C	-0.986592	-0.000056	-0.130806
C114	C	-0.736592	0.249944	0.119194
C115	C	-0.486592	0.499944	0.369194
C116	C	-0.236592	0.749944	0.619194
N117	N	-0.982124	0.254790	0.113478
N118	N	-0.732124	0.504790	0.363478
N119	N	-0.482124	0.754790	0.613478
N120	N	-0.232124	1.004790	0.863478
C121	C	-0.982867	0.089110	-0.343147
C122	C	-0.732867	0.339110	-0.093147
C123	C	-0.482867	0.589110	0.156853
C124	C	-0.232867	0.839110	0.406853
C125	C	-0.981341	0.089109	-0.429867
C126	C	-0.731341	0.339109	-0.179867
C127	C	-0.481341	0.589109	0.070133
C128	C	-0.231341	0.839109	0.320133
C129	C	-0.981328	-0.089238	-0.429857
C130	C	-0.731328	0.160762	-0.179857
C131	C	-0.481328	0.410762	0.070143
C132	C	-0.231328	0.660762	0.320143
C133	C	-0.982848	-0.089237	-0.343137
C134	C	-0.732848	0.160763	-0.093137
C135	C	-0.482848	0.410763	0.156863
C136	C	-0.232848	0.660763	0.406863
C137	C	-0.983622	-0.000060	-0.299785
C138	C	-0.733622	0.249940	-0.049785
C139	C	-0.483622	0.499940	0.200215
C140	C	-0.233622	0.749940	0.450215
C141	C	-0.980576	-0.000062	-0.473225
C142	C	-0.730576	0.249938	-0.223225
C143	C	-0.480576	0.499938	0.026775
C144	C	-0.230576	0.749938	0.276775
C145	C	-0.978921	-0.000064	-0.567251
C146	C	-0.728921	0.249936	-0.317251
C147	C	-0.478921	0.499936	-0.067251
C148	C	-0.228921	0.749936	0.182749
C149	C	-0.985275	-0.000058	-0.205753
C150	C	-0.735275	0.249942	0.044247
C151	C	-0.485275	0.499942	0.294247
C152	C	-0.235275	0.749942	0.544247
C153	C	-0.975990	-0.000066	0.265501
C154	C	-0.725990	0.249934	0.515501
C155	C	-0.475990	0.499934	0.765501
C156	C	-0.225990	0.749934	1.015501
C157	C	-0.977606	-0.000066	0.357796
C158	C	-0.727606	0.249934	0.607796
C159	C	-0.477606	0.499934	0.857796
C160	C	-0.227606	0.749934	1.107796
H161	H	-0.542734	-0.000062	0.252305
H162	H	-0.292734	0.249938	0.502305
H163	H	-0.042734	0.499938	0.752305
H164	H	0.207266	0.749938	1.002305
H165	H	-0.421455	-0.000072	-0.025294
H166	H	-0.171455	0.249928	0.224706
H167	H	0.078545	0.499928	0.474706
H168	H	0.328545	0.749928	0.724706
H169	H	-0.980725	0.161719	-0.465168
H170	H	-0.730725	0.411719	-0.215168
H171	H	-0.480725	0.661719	0.034832
H172	H	-0.230725	0.911719	0.284832
H173	H	-0.578790	-0.000063	-0.022542
H174	H	-0.328790	0.249937	0.227458
H175	H	-0.078790	0.499937	0.477458
H176	H	0.171210	0.749937	0.727458
F177	F	-0.983688	0.184019	-0.297011
F178	F	-0.733688	0.434019	-0.047011
F179	F	-0.483688	0.684019	0.202989
F180	F	-0.233688	0.934019	0.452989
H181	H	-0.983458	-0.161853	-0.307831
H182	H	-0.733458	0.088147	-0.057831
H183	H	-0.483458	0.338147	0.192169
H184	H	-0.233458	0.588147	0.442169
H185	H	-0.385417	-0.000070	0.249542
H186	H	-0.135417	0.249930	0.499542
H187	H	0.114583	0.499930	0.749542
H188	H	0.364583	0.749930	0.999542
F189	F	-0.980505	-0.184141	-0.476002
F190	F	-0.730505	0.065859	-0.226002
F191	F	-0.480505	0.315859	0.023998
F192	F	-0.230505	0.565859	0.273998
