data_functionalizedCrystal
_audit_creation_method	'MofGen! by Chris Wilmer'
_symmetry_space_group_name_H-M	'P1'
_symmetry_Int_Tables_number	1
_symmetry_cell_setting	triclinic
loop_
_symmetry_equiv_pos_as_xyz
  x,y,z
_cell_length_a	19.805407
_cell_length_b	18.050589
_cell_length_c	19.805399
_cell_angle_alpha	89.977706
_cell_angle_beta	89.980427
_cell_angle_gamma	90.028221
loop_
_atom_site_label
_atom_site_type_symbol
_atom_site_fract_x
_atom_site_fract_y
_atom_site_fract_z
Zn1	Zn	1.034727	-0.295677	-0.382745
Zn2	Zn	1.284727	-0.045677	-0.132745
Zn3	Zn	1.534727	0.204323	0.117255
Zn4	Zn	1.784727	0.454323	0.367255
Zn5	Zn	1.034638	-0.419869	-0.269567
Zn6	Zn	1.284638	-0.169869	-0.019567
Zn7	Zn	1.534638	0.080131	0.230433
Zn8	Zn	1.784638	0.330131	0.480433
Zn9	Zn	0.921542	-0.295697	-0.269569
Zn10	Zn	1.171542	-0.045697	-0.019569
Zn11	Zn	1.421542	0.204303	0.230431
Zn12	Zn	1.671542	0.454303	0.480431
Zn13	Zn	0.921502	-0.419829	-0.382713
Zn14	Zn	1.171502	-0.169829	-0.132713
Zn15	Zn	1.421502	0.080171	0.117287
Zn16	Zn	1.671502	0.330171	0.367287
O17	O	0.978102	-0.357768	-0.326148
O18	O	1.228102	-0.107768	-0.076148
O19	O	1.478102	0.142232	0.173852
O20	O	1.728102	0.392232	0.423852
O21	O	1.129432	-0.312159	-0.367743
O22	O	1.379432	-0.062159	-0.117743
O23	O	1.629432	0.187841	0.132257
O24	O	1.879432	0.437841	0.382257
O25	O	1.019616	-0.403422	-0.174850
O26	O	1.269616	-0.153422	0.075150
O27	O	1.519616	0.096578	0.325150
O28	O	1.769616	0.346578	0.575150
O29	O	0.936610	-0.191770	-0.284596
O30	O	1.186610	0.058230	-0.034596
O31	O	1.436610	0.308230	0.215404
O32	O	1.686610	0.558230	0.465404
O33	O	1.129367	-0.403402	-0.284592
O34	O	1.379367	-0.153402	-0.034592
O35	O	1.629367	0.096598	0.215408
O36	O	1.879367	0.346598	0.465408
O37	O	1.019767	-0.191755	-0.367746
O38	O	1.269767	0.058245	-0.117746
O39	O	1.519767	0.308245	0.132254
O40	O	1.769767	0.558245	0.382254
O41	O	0.936524	-0.312194	-0.174852
O42	O	1.186524	-0.062194	0.075148
O43	O	1.436524	0.187806	0.325148
O44	O	1.686524	0.437806	0.575148
O45	O	0.826820	-0.312156	-0.284566
O46	O	1.076820	-0.062156	-0.034566
O47	O	1.326820	0.187844	0.215434
O48	O	1.576820	0.437844	0.465434
O49	O	0.936542	-0.403335	-0.477434
O50	O	1.186542	-0.153335	-0.227434
O51	O	1.436542	0.096665	0.022566
O52	O	1.686542	0.346665	0.272566
O53	O	0.826791	-0.403355	-0.367693
O54	O	1.076791	-0.153355	-0.117693
O55	O	1.326791	0.096645	0.132307
O56	O	1.576791	0.346645	0.382307
O57	O	1.019728	-0.312121	-0.477457
O58	O	1.269728	-0.062121	-0.227457
O59	O	1.519728	0.187879	0.022543
O60	O	1.769728	0.437879	0.272543
O61	O	1.019577	-0.523788	-0.284562
O62	O	1.269577	-0.273788	-0.034562
O63	O	1.519577	-0.023788	0.215438
O64	O	1.769577	0.226212	0.465438
O65	O	0.936456	-0.523759	-0.367690
O66	O	1.186456	-0.273759	-0.117690
O67	O	1.436456	-0.023759	0.132310
O68	O	1.686456	0.226241	0.382310
C69	C	0.802246	-0.357754	-0.326127
C70	C	1.052246	-0.107754	-0.076127
C71	C	1.302246	0.142246	0.173873
C72	C	1.552246	0.392246	0.423873
C73	C	0.727014	-0.357766	-0.326133
C74	C	0.977014	-0.107766	-0.076133
C75	C	1.227014	0.142234	0.173867
C76	C	1.477014	0.392234	0.423867
C77	C	0.691673	-0.405325	-0.369347
C78	C	0.941673	-0.155325	-0.119347
C79	C	1.191673	0.094675	0.130653
C80	C	1.441673	0.344675	0.380653
C81	C	0.620984	-0.405326	-0.369357
C82	C	0.870984	-0.155326	-0.119357
C83	C	1.120984	0.094674	0.130643
C84	C	1.370984	0.344674	0.380643
C85	C	0.585639	-0.357771	-0.326148
C86	C	0.835639	-0.107771	-0.076148
C87	C	1.085639	0.142229	0.173852
C88	C	1.335639	0.392229	0.423852
C89	C	0.620985	-0.310207	-0.282933
C90	C	0.870985	-0.060207	-0.032933
C91	C	1.120985	0.189793	0.217067
C92	C	1.370985	0.439793	0.467067
C93	C	0.691673	-0.310203	-0.282927
C94	C	0.941673	-0.060203	-0.032927
C95	C	1.191673	0.189797	0.217073
C96	C	1.441673	0.439797	0.467073
C97	C	0.335912	-0.310224	-0.282955
C98	C	0.585912	-0.060224	-0.032955
C99	C	0.835912	0.189776	0.217045
C100	C	1.085912	0.439776	0.467045
C101	C	0.265220	-0.310233	-0.282962
C102	C	0.515220	-0.060233	-0.032962
C103	C	0.765220	0.189767	0.217038
C104	C	1.015220	0.439767	0.467038
C105	C	0.265224	-0.405347	-0.369385
C106	C	0.515224	-0.155347	-0.119385
C107	C	0.765224	0.094653	0.130615
C108	C	1.015224	0.344653	0.380615
C109	C	0.335911	-0.405342	-0.369379
C110	C	0.585911	-0.155342	-0.119379
C111	C	0.835911	0.094658	0.130621
C112	C	1.085911	0.344658	0.380621
C113	C	0.371251	-0.357776	-0.326166
C114	C	0.621251	-0.107776	-0.076166
C115	C	0.871251	0.142224	0.173834
C116	C	1.121251	0.392224	0.423834
C117	C	0.447900	-0.357774	-0.326157
C118	C	0.697900	-0.107774	-0.076157
C119	C	0.947900	0.142226	0.173843
C120	C	1.197900	0.392226	0.423843
C121	C	0.508992	-0.357776	-0.326153
C122	C	0.758992	-0.107776	-0.076153
C123	C	1.008992	0.142224	0.173847
C124	C	1.258992	0.392224	0.423847
C125	C	0.978021	-0.550720	-0.326137
C126	C	1.228021	-0.300720	-0.076137
C127	C	1.478021	-0.050720	0.173863
C128	C	1.728021	0.199280	0.423863
C129	C	0.978048	-0.633266	-0.326155
C130	C	1.228048	-0.383266	-0.076155
C131	C	1.478048	-0.133266	0.173845
C132	C	1.728048	0.116734	0.423845
C133	C	0.932891	-0.832728	-0.371344
C134	C	1.182891	-0.582728	-0.121344
C135	C	1.432891	-0.332728	0.128656
C136	C	1.682891	-0.082728	0.378656
C137	C	0.916392	-0.882167	-0.309581
C138	C	1.166392	-0.632167	-0.059581
C139	C	1.416392	-0.382167	0.190419
C140	C	1.666392	-0.132167	0.440419
C141	C	0.978114	-0.784396	-0.326164
C142	C	1.228114	-0.534396	-0.076164
C143	C	1.478114	-0.284396	0.173836
C144	C	1.728114	-0.034396	0.423836
C145	C	0.994646	-0.882039	-0.387934
C146	C	1.244646	-0.632039	-0.137934
C147	C	1.494646	-0.382039	0.112066
C148	C	1.744646	-0.132039	0.362066
C149	C	0.978177	-0.930381	-0.326178
C150	C	1.228177	-0.680381	-0.076178
C151	C	1.478177	-0.430381	0.173822
C152	C	1.728177	-0.180381	0.423822
C153	C	0.961583	-0.832748	-0.264368
C154	C	1.211583	-0.582748	-0.014368
C155	C	1.461583	-0.332748	0.235632
C156	C	1.711583	-0.082748	0.485632
C157	C	1.039865	-0.832616	-0.342762
C158	C	1.289865	-0.582616	-0.092762
C159	C	1.539865	-0.332616	0.157238
C160	C	1.789865	-0.082616	0.407238
C161	C	1.023390	-0.882033	-0.280957
C162	C	1.273390	-0.632033	-0.030957
C163	C	1.523390	-0.382033	0.219043
C164	C	1.773390	-0.132033	0.469043
C165	C	0.978076	-0.700298	-0.326157
C166	C	1.228076	-0.450298	-0.076157
C167	C	1.478076	-0.200298	0.173843
C168	C	1.728076	0.049702	0.423843
C169	C	0.978215	-1.014478	-0.326178
C170	C	1.228215	-0.764478	-0.076178
C171	C	1.478215	-0.514478	0.173822
C172	C	1.728215	-0.264478	0.423822
C173	C	1.154645	-0.357783	-0.326171
C174	C	1.404645	-0.107783	-0.076171
C175	C	1.654645	0.142217	0.173829
C176	C	1.904645	0.392217	0.423829
C177	C	1.229877	-0.357789	-0.326180
C178	C	1.479877	-0.107789	-0.076180
C179	C	1.729877	0.142211	0.173820
C180	C	1.979877	0.392211	0.423820
C181	C	0.978140	-0.357721	-0.502691
C182	C	1.228140	-0.107721	-0.252691
C183	C	1.478140	0.142279	-0.002691
C184	C	1.728140	0.392279	0.247309
C185	C	0.978156	-0.357701	-0.577923
C186	C	1.228156	-0.107701	-0.327923
C187	C	1.478156	0.142299	-0.077923
C188	C	1.728156	0.392299	0.172077
C189	C	0.978203	-0.164062	-0.326175
C190	C	1.228203	0.085938	-0.076175
C191	C	1.478203	0.335938	0.173825
C192	C	1.728203	0.585938	0.423825
C193	C	0.978246	-0.081517	-0.326186
C194	C	1.228246	0.168483	-0.076186
C195	C	1.478246	0.418483	0.173814
C196	C	1.728246	0.668483	0.423814
C197	C	1.021472	-0.310204	-0.613280
C198	C	1.271472	-0.060204	-0.363280
C199	C	1.521472	0.189796	-0.113280
C200	C	1.771472	0.439796	0.136720
C201	C	1.021479	-0.310182	-0.683969
C202	C	1.271479	-0.060182	-0.433969
C203	C	1.521479	0.189818	-0.183969
C204	C	1.771479	0.439818	0.066031
C205	C	0.978173	-0.357662	-0.719299
C206	C	1.228173	-0.107662	-0.469299
C207	C	1.478173	0.142338	-0.219299
C208	C	1.728173	0.392338	0.030701
C209	C	0.934852	-0.405162	-0.683937
C210	C	1.184852	-0.155162	-0.433937
C211	C	1.434852	0.094838	-0.183937
C212	C	1.684852	0.344838	0.066063
C213	C	0.934843	-0.405180	-0.613250
C214	C	1.184843	-0.155180	-0.363250
C215	C	1.434843	0.094820	-0.113250
C216	C	1.684843	0.344820	0.136750
C217	C	0.934891	-0.405093	-0.969010
C218	C	1.184891	-0.155093	-0.719010
C219	C	1.434891	0.094907	-0.469010
C220	C	1.684891	0.344907	-0.219010
C221	C	0.934905	-0.405074	-1.039702
C222	C	1.184905	-0.155074	-0.789702
C223	C	1.434905	0.094926	-0.539702
C224	C	1.684905	0.344926	-0.289702
C225	C	1.021527	-0.310096	-1.039729
C226	C	1.271527	-0.060096	-0.789729
C227	C	1.521527	0.189904	-0.539729
C228	C	1.771527	0.439904	-0.289729
C229	C	1.021518	-0.310113	-0.969042
C230	C	1.271518	-0.060113	-0.719042
C231	C	1.521518	0.189887	-0.469042
C232	C	1.771518	0.439887	-0.219042
C233	C	0.978195	-0.357609	-0.933686
C234	C	1.228195	-0.107609	-0.683686
C235	C	1.478195	0.142391	-0.433686
C236	C	1.728195	0.392391	-0.183686
C237	C	0.978187	-0.357631	-0.857038
C238	C	1.228187	-0.107631	-0.607038
C239	C	1.478187	0.142369	-0.357038
C240	C	1.728187	0.392369	-0.107038
C241	C	0.978184	-0.357645	-0.795946
C242	C	1.228184	-0.107645	-0.545946
C243	C	1.478184	0.142355	-0.295946
C244	C	1.728184	0.392355	-0.045946
C245	C	0.978103	-0.357761	-0.150292
C246	C	1.228103	-0.107761	0.099708
C247	C	1.478103	0.142239	0.349708
C248	C	1.728103	0.392239	0.599708
C249	C	0.978218	-0.357572	-0.075061
C250	C	1.228218	-0.107572	0.174939
C251	C	1.478218	0.142428	0.424939
C252	C	1.728218	0.392428	0.674939
H253	H	0.236441	-0.444075	-0.404574
H254	H	0.486441	-0.194075	-0.154574
H255	H	0.736441	0.055925	0.095426
H256	H	0.986441	0.305925	0.345426
Br257	Br	0.938222	-0.796815	-0.177283
Br258	Br	1.188222	-0.546815	0.072717
Br259	Br	1.438222	-0.296815	0.322717
Br260	Br	1.688222	-0.046815	0.572717
H261	H	0.592202	-0.271484	-0.247754
H262	H	0.842202	-0.021484	0.002246
H263	H	1.092202	0.228516	0.252246
H264	H	1.342202	0.478516	0.502246
Br265	Br	0.383866	-0.245665	-0.224312
Br266	Br	0.633866	0.004335	0.025688
Br267	Br	0.883866	0.254335	0.275688
Br268	Br	1.133866	0.504335	0.525688
Br269	Br	0.876094	-0.469552	-0.921036
Br270	Br	1.126094	-0.219552	-0.671036
Br271	Br	1.376094	0.030448	-0.421036
Br272	Br	1.626094	0.280448	-0.171036
Br273	Br	0.383876	-0.469887	-0.428017
Br274	Br	0.633876	-0.219887	-0.178017
Br275	Br	0.883876	0.030113	0.071983
Br276	Br	1.133876	0.280113	0.321983
Br277	Br	1.080323	-0.245633	-1.087716
Br278	Br	1.330323	0.004367	-0.837716
Br279	Br	1.580323	0.254367	-0.587716
Br280	Br	1.830323	0.504367	-0.337716
H281	H	0.236444	-0.271504	-0.247777
H282	H	0.486444	-0.021504	0.002223
H283	H	0.736444	0.228496	0.252223
H284	H	0.986444	0.478496	0.502223
Br285	Br	1.087181	-0.917889	-0.217216
Br286	Br	1.337181	-0.667889	0.032784
Br287	Br	1.587181	-0.417889	0.282784
Br288	Br	1.837181	-0.167889	0.532784
Br289	Br	0.829399	-0.918439	-0.286181
Br290	Br	1.079399	-0.668439	-0.036181
Br291	Br	1.329399	-0.418439	0.213819
Br292	Br	1.579399	-0.168439	0.463819
Br293	Br	1.126836	-0.796313	-0.366189
Br294	Br	1.376836	-0.546313	-0.116189
Br295	Br	1.626836	-0.296313	0.133811
Br296	Br	1.876836	-0.046313	0.383811
H297	H	1.008603	-0.903691	-0.440167
H298	H	1.258603	-0.653691	-0.190167
H299	H	1.508603	-0.403691	0.059833
H300	H	1.758603	-0.153691	0.309833
H301	H	0.899563	-0.443850	-0.584463
H302	H	1.149563	-0.193850	-0.334463
H303	H	1.399563	0.056150	-0.084463
H304	H	1.649563	0.306150	0.165537
H305	H	1.056740	-0.271542	-0.584520
H306	H	1.306740	-0.021542	-0.334520
H307	H	1.556740	0.228458	-0.084520
H308	H	1.806740	0.478458	0.165480
H309	H	0.899589	-0.443819	-0.712708
H310	H	1.149589	-0.193819	-0.462708
H311	H	1.399589	0.056181	-0.212708
H312	H	1.649589	0.306181	0.037292
Br313	Br	1.080300	-0.245753	-0.731951
Br314	Br	1.330300	0.004247	-0.481951
Br315	Br	1.580300	0.254247	-0.231951
Br316	Br	1.830300	0.504247	0.018049
H317	H	0.899637	-0.443740	-1.068466
H318	H	1.149637	-0.193740	-0.818466
H319	H	1.399637	0.056260	-0.568466
H320	H	1.649637	0.306260	-0.318466
Br321	Br	1.080296	-0.245677	-0.921098
Br322	Br	1.330296	0.004323	-0.671098
Br323	Br	1.580296	0.254323	-0.421098
Br324	Br	1.830296	0.504323	-0.171098
H325	H	0.592212	-0.444054	-0.404545
H326	H	0.842212	-0.194054	-0.154545
H327	H	1.092212	0.055946	0.095455
H328	H	1.342212	0.305946	0.345455
Br329	Br	0.739637	-0.245652	-0.224281
Br330	Br	0.989637	0.004348	0.025719
Br331	Br	1.239637	0.254348	0.275719
Br332	Br	1.489637	0.504348	0.525719
Br333	Br	0.739634	-0.469872	-0.427985
Br334	Br	0.989634	-0.219872	-0.177985
Br335	Br	1.239634	0.030128	0.072015
Br336	Br	1.489634	0.280128	0.322015
H337	H	0.894591	-0.811078	-0.409498
H338	H	1.144591	-0.561078	-0.159498
H339	H	1.394591	-0.311078	0.090502
H340	H	1.644591	-0.061078	0.340502
