data_functionalizedCrystal
_audit_creation_method	'MofGen! by Chris Wilmer'
_symmetry_space_group_name_H-M	'P1'
_symmetry_Int_Tables_number	1
_symmetry_cell_setting	triclinic
loop_
_symmetry_equiv_pos_as_xyz
  x,y,z
_cell_length_a	10.723024
_cell_length_b	16.992695
_cell_length_c	16.053912
_cell_angle_alpha	92.708062
_cell_angle_beta	87.134691
_cell_angle_gamma	92.431954
loop_
_atom_site_label
_atom_site_type_symbol
_atom_site_fract_x
_atom_site_fract_y
_atom_site_fract_z
O1	O	1.671652	-0.112993	-0.069424
O2	O	1.309407	-0.123525	-0.069427
O3	O	1.489077	-0.004108	-0.069419
O4	O	1.491982	-0.232410	-0.069432
O5	O	1.479081	0.001815	0.069438
O6	O	1.299411	-0.117602	0.069430
O7	O	1.661656	-0.107070	0.069433
Zn8	Zn	1.478947	-0.111395	0.091478
Zn9	Zn	1.492116	-0.119200	-0.091472
O10	O	1.481986	-0.226487	0.069425
C11	C	1.257843	-0.119797	0.000001
C12	C	1.119092	-0.117504	0.000000
C13	C	1.480343	0.028086	0.000009
C14	C	1.469195	0.115190	0.000009
N15	N	1.469968	-0.106069	0.216337
C16	C	1.049863	-0.184323	-0.000004
C17	C	0.906455	-0.181955	-0.000005
C18	C	1.713220	-0.110798	0.000003
C19	C	1.851972	-0.113091	-0.000002
C20	C	1.490720	-0.258681	-0.000005
C21	C	1.501869	-0.345785	-0.000011
C22	C	1.576755	0.164852	0.000011
C23	C	1.566274	0.246695	0.000003
C24	C	1.448231	0.278874	-0.000001
C25	C	1.340663	0.229206	-0.000005
C26	C	1.351146	0.147364	-0.000003
C27	C	1.404783	0.522705	-0.000013
C28	C	1.394308	0.604553	-0.000012
C29	C	1.619921	0.622036	-0.000006
C30	C	1.630393	0.540193	0.000001
C31	C	1.522825	0.490531	-0.000007
N32	N	1.437514	0.362530	-0.000006
N33	N	1.533543	0.406876	-0.000008
C34	C	1.423774	-0.078397	0.739961
C35	C	1.430050	-0.082154	0.652555
C36	C	1.513641	-0.132054	0.608860
C37	C	1.590970	-0.178194	0.652574
C38	C	1.584700	-0.174433	0.739978
C39	C	1.541027	-0.148448	0.347455
C40	C	1.547289	-0.152207	0.260045
C41	C	1.386369	-0.056166	0.260032
C42	C	1.380101	-0.052412	0.347438
C43	C	1.457435	-0.098549	0.391145
N44	N	1.520055	-0.135896	0.519517
N45	N	1.451026	-0.094702	0.480486
N46	N	1.501095	-0.124536	0.783669
H47	H	1.096761	-0.243283	-0.000003
Cl48	Cl	1.681914	-0.232435	0.794927
H49	H	1.312034	-0.011777	0.383008
Cl50	Cl	1.701499	0.309124	0.000008
H51	H	1.726516	0.513999	0.000004
Cl52	Cl	1.755139	0.684472	0.000003
Cl53	Cl	1.245900	0.645005	-0.000012
H54	H	0.846949	-0.239158	-0.000012
Cl55	Cl	1.696063	-0.240922	0.597643
Cl56	Cl	1.332804	-0.024172	0.597611
H57	H	1.244550	0.255412	-0.000014
Cl58	Cl	1.269554	0.460284	-0.000026
H59	H	0.911471	-0.055886	-0.000003
H60	H	1.263558	0.106930	-0.000005
Cl61	Cl	1.638239	-0.206456	0.402390
Cl62	Cl	1.046694	-0.026469	0.000011
H63	H	1.355699	-0.037767	0.775531
Cl64	Cl	1.289160	0.001835	0.205081
H65	H	1.672878	0.138659	0.000019
H66	H	1.615357	-0.192847	0.224471
