data_functionalizedCrystal
_audit_creation_method	'MofGen! by Chris Wilmer'
_symmetry_space_group_name_H-M	'P1'
_symmetry_Int_Tables_number	1
_symmetry_cell_setting	triclinic
loop_
_symmetry_equiv_pos_as_xyz
  x,y,z
_cell_length_a	15.944551
_cell_length_b	12.837942
_cell_length_c	15.021413
_cell_angle_alpha	90.003212
_cell_angle_beta	90.002688
_cell_angle_gamma	90.836161
loop_
_atom_site_label
_atom_site_type_symbol
_atom_site_fract_x
_atom_site_fract_y
_atom_site_fract_z
O1	O	1.125223	-0.133685	0.073938
O2	O	1.625223	0.366315	0.573938
O3	O	0.881991	-0.150168	0.073960
O4	O	1.381991	0.349832	0.573960
O5	O	0.998214	0.008977	0.073944
O6	O	1.498214	0.508977	0.573944
O7	O	1.009000	-0.292830	0.073954
O8	O	1.509000	0.207170	0.573954
O9	O	0.998195	0.008959	-0.074120
O10	O	1.498195	0.508959	0.425880
O11	O	0.881973	-0.150186	-0.074104
O12	O	1.381973	0.349814	0.425896
O13	O	1.125204	-0.133702	-0.074126
O14	O	1.625204	0.366298	0.425874
Zn15	Zn	1.003586	-0.141947	-0.097624
Zn16	Zn	1.503586	0.358053	0.402376
Zn17	Zn	1.003610	-0.141924	0.097457
Zn18	Zn	1.503610	0.358076	0.597457
O19	O	1.008982	-0.292847	-0.074110
O20	O	1.508982	0.207153	0.425890
C21	C	0.850634	-0.149493	-0.000069
C22	C	1.350634	0.350507	0.499931
C23	C	0.757223	-0.147441	-0.000061
C24	C	1.257223	0.352559	0.499939
C25	C	0.994561	0.047589	-0.000087
C26	C	1.494561	0.547589	0.499913
C27	C	0.983693	0.162667	-0.000085
C28	C	1.483693	0.662667	0.499915
N29	N	1.003575	-0.141962	-0.230761
N30	N	1.503575	0.358038	0.269239
C31	C	0.534083	-0.043892	-0.000082
C32	C	1.034083	0.456108	0.499918
C33	C	0.476919	-0.091968	0.072923
C34	C	0.976919	0.408032	0.572923
C35	C	0.586201	-0.143730	-0.000072
C36	C	1.086201	0.356270	0.499928
C37	C	0.476925	-0.092009	-0.073056
C38	C	0.976925	0.407991	0.426944
C39	C	0.421001	-0.140137	-0.000086
C40	C	0.921001	0.359863	0.499914
C41	C	0.530267	-0.191833	0.072994
C42	C	1.030267	0.308167	0.572994
C43	C	0.530278	-0.191860	-0.073052
C44	C	1.030278	0.308140	0.426948
C45	C	0.473137	-0.240009	-0.000029
C46	C	0.973137	0.259991	0.499971
C47	C	0.681368	-0.145796	-0.000063
C48	C	1.181368	0.354204	0.499937
C49	C	0.325835	-0.138079	-0.000088
C50	C	0.825835	0.361921	0.499912
C51	C	1.156562	-0.134378	-0.000095
C52	C	1.656562	0.365622	0.499905
C53	C	1.249972	-0.136429	-0.000098
C54	C	1.749972	0.363571	0.499902
C55	C	1.012635	-0.331459	-0.000077
C56	C	1.512635	0.168541	0.499923
C57	C	1.023503	-0.446537	-0.000074
C58	C	1.523503	0.053463	0.499926
C59	C	1.114345	0.403616	-0.000078
C60	C	1.614345	0.903616	0.499922
C61	C	1.104138	0.511743	-0.000076
C62	C	1.604138	1.011743	0.499924
C63	C	0.953071	0.487048	-0.000071
C64	C	1.453071	0.987048	0.499929
C65	C	0.963278	0.378922	-0.000074
C66	C	1.463278	0.878922	0.499926
C67	C	1.043918	0.337210	-0.000078
C68	C	1.543918	0.837210	0.499922
C69	C	1.054125	0.229081	-0.000087
C70	C	1.554125	0.729081	0.499913
C71	C	0.903059	0.204389	-0.000076
C72	C	1.403059	0.704389	0.499924
C73	C	0.892851	0.312516	-0.000074
C74	C	1.392851	0.812516	0.499926
C75	C	0.950374	-0.216125	-0.529769
C76	C	1.450374	0.283875	-0.029769
C77	C	0.925907	-0.122740	-0.470411
C78	C	1.425907	0.377260	0.029589
C79	C	1.003609	-0.141919	-0.587798
C80	C	1.503609	0.358081	-0.087798
C81	C	1.028019	-0.235323	-0.470414
C82	C	1.528019	0.264677	0.029586
C83	C	1.003590	-0.141945	-0.412374
C84	C	1.503590	0.358055	0.087626
C85	C	0.979100	-0.048487	-0.529747
C86	C	1.479100	0.451513	-0.029747
C87	C	1.081250	-0.161131	-0.529755
C88	C	1.581250	0.338869	-0.029755
C89	C	1.056810	-0.067678	-0.470424
C90	C	1.556810	0.432322	0.029576
C91	C	1.003617	-0.141905	-0.688856
C92	C	1.503617	0.358095	-0.188856
C93	C	1.003582	-0.141948	-0.311319
C94	C	1.503582	0.358052	0.188681
N95	N	1.003626	-0.141901	0.230595
N96	N	1.503626	0.358099	0.730595
H97	H	0.560788	0.038965	0.000006
H98	H	1.060788	0.538965	0.500006
H99	H	1.101818	-0.004867	-0.444533
H100	H	1.601818	0.495133	0.055467
C101	C	0.825584	0.131333	-0.000078
C102	C	1.325584	0.631333	0.499922
N103	N	0.767232	0.076306	-0.000081
N104	N	1.267232	0.576306	0.499919
C105	C	0.951089	0.058232	-0.564806
C106	C	1.451089	0.558232	-0.064806
N107	N	0.929988	0.138610	-0.591214
N108	N	1.429988	0.638610	-0.091214
C109	C	1.203048	0.357730	-0.000088
C110	C	1.703048	0.857730	0.499912
N111	N	1.269861	0.323171	-0.000095
N112	N	1.769861	0.823171	0.499905
C113	C	0.445191	-0.034910	0.156298
C114	C	0.945191	0.465090	0.656298
N115	N	0.421294	0.008073	0.219091
N116	N	0.921294	0.508073	0.719091
C117	C	0.804152	0.358412	-0.000079
C118	C	1.304152	0.858412	0.499921
N119	N	0.737342	0.392980	-0.000090
N120	N	1.237342	0.892980	0.499910
C121	C	0.561837	-0.248819	0.156471
C122	C	1.061837	0.251181	0.656471
N123	N	0.585617	-0.291735	0.219347
N124	N	1.085617	0.208265	0.719347
C125	C	0.889515	-0.300788	-0.564978
C126	C	1.389515	0.199212	-0.064978
N127	N	0.843673	-0.364550	-0.591500
N128	N	1.343673	0.135450	-0.091500
C129	C	0.837194	-0.100794	-0.435190
C130	C	1.337194	0.399206	0.064810
N131	N	0.770374	-0.084271	-0.408664
N132	N	1.270374	0.415729	0.091336
H133	H	1.161487	0.565807	-0.000073
H134	H	1.661487	1.065807	0.499927
H135	H	0.453452	-0.049770	-0.134774
H136	H	0.953452	0.450230	0.365226
C137	C	0.562032	-0.248865	-0.156435
C138	C	1.062032	0.251135	0.343565
N139	N	0.585952	-0.291793	-0.219246
N140	N	1.085952	0.208207	0.280754
H141	H	0.446613	-0.322951	0.000015
H142	H	0.946613	0.177049	0.500015
C143	C	1.055925	-0.342020	-0.435208
C144	C	1.555925	0.157980	0.064792
N145	N	1.076939	-0.422388	-0.408695
N146	N	1.576939	0.077612	0.091305
C147	C	1.142829	0.183200	-0.000090
C148	C	1.642829	0.683200	0.499910
N149	N	1.209644	0.148646	-0.000087
N150	N	1.709644	0.648646	0.499913
C151	C	0.864374	0.532952	-0.000075
C152	C	1.364374	1.032952	0.499925
N153	N	0.797566	0.567527	-0.000083
N154	N	1.297566	1.067527	0.499917
C155	C	1.169938	-0.183124	-0.565010
C156	C	1.669938	0.316876	-0.065010
N157	N	1.236738	-0.199703	-0.591567
N158	N	1.736738	0.300297	-0.091567
