data_functionalizedCrystal
_audit_creation_method	'MofGen! by Chris Wilmer'
_symmetry_space_group_name_H-M	'P1'
_symmetry_Int_Tables_number	1
_symmetry_cell_setting	triclinic
loop_
_symmetry_equiv_pos_as_xyz
  x,y,z
_cell_length_a	12.645331
_cell_length_b	18.101395
_cell_length_c	12.645323
_cell_angle_alpha	90.028267
_cell_angle_beta	90.022676
_cell_angle_gamma	90.030083
loop_
_atom_site_label
_atom_site_type_symbol
_atom_site_fract_x
_atom_site_fract_y
_atom_site_fract_z
Zn1	Zn	1.620632	-0.294844	0.599421
Zn2	Zn	2.120632	0.205156	1.099421
Zn3	Zn	1.620473	-0.418694	0.422151
Zn4	Zn	2.120473	0.081306	0.922151
Zn5	Zn	1.443347	-0.294869	0.422166
Zn6	Zn	1.943347	0.205131	0.922166
Zn7	Zn	1.443287	-0.418646	0.599366
Zn8	Zn	1.943287	0.081354	1.099366
O9	O	1.531935	-0.356763	0.510776
O10	O	2.031935	0.143237	1.010776
O11	O	1.768958	-0.311283	0.575923
O12	O	2.268958	0.188717	1.075923
O13	O	1.596935	-0.402299	0.273805
O14	O	2.096935	0.097701	0.773805
O15	O	1.466956	-0.191233	0.445708
O16	O	1.966956	0.308767	0.945708
O17	O	1.768841	-0.402275	0.445683
O18	O	2.268841	0.097725	0.945683
O19	O	1.597207	-0.191214	0.575937
O20	O	2.097207	0.308786	1.075937
O21	O	1.466801	-0.311325	0.273816
O22	O	1.966801	0.188675	0.773816
O23	O	1.294992	-0.311278	0.445655
O24	O	1.794992	0.188722	0.945655
O25	O	1.466854	-0.402193	0.747721
O26	O	1.966854	0.097807	1.247721
O27	O	1.294948	-0.402217	0.575843
O28	O	1.794948	0.097783	1.075843
O29	O	1.597149	-0.311236	0.747761
O30	O	2.097149	0.188764	1.247761
O31	O	1.596877	-0.522321	0.445630
O32	O	2.096877	-0.022321	0.945630
O33	O	1.466699	-0.522285	0.575829
O34	O	1.966699	-0.022285	1.075829
C35	C	1.256505	-0.356746	0.510745
C36	C	1.756505	0.143254	1.010745
C37	C	1.138675	-0.356756	0.510757
C38	C	1.638675	0.143244	1.010757
C39	C	0.971103	-0.299284	0.429308
C40	C	1.471103	0.200716	0.929308
C41	C	1.093663	-0.299432	0.428949
C42	C	1.593663	0.200568	0.928949
C43	C	1.094129	-0.434770	0.480236
C44	C	1.594129	0.065230	0.980236
C45	C	0.971530	-0.434456	0.479680
C46	C	1.471530	0.065544	0.979680
C47	C	0.971532	-0.336957	0.623043
C48	C	1.471532	0.163043	1.123043
C49	C	1.094139	-0.335215	0.622419
C50	C	1.594139	0.164785	1.122419
C51	C	1.531793	-0.549174	0.510745
C52	C	2.031793	-0.049174	1.010745
C53	C	1.531829	-0.631488	0.510767
C54	C	2.031829	-0.131488	1.010767
C55	C	1.532062	-0.930579	0.510824
C56	C	2.032062	-0.430579	1.010824
C57	C	1.450348	-0.899262	0.592945
C58	C	1.950348	-0.399262	1.092945
C59	C	1.449960	-0.813644	0.592688
C60	C	1.949960	-0.313644	1.092688
C61	C	1.531946	-0.782196	0.510797
C62	C	2.031946	-0.282196	1.010797
C63	C	1.501694	-0.813349	0.399071
C64	C	2.001694	-0.313349	0.899071
C65	C	1.501167	-0.898994	0.399562
C66	C	2.001167	-0.398994	0.899562
C67	C	1.644207	-0.898924	0.539445
C68	C	2.144207	-0.398924	1.039445
C69	C	1.643548	-0.813273	0.541895
C70	C	2.143548	-0.313273	1.041895
C71	C	1.531883	-0.698337	0.510774
C72	C	2.031883	-0.198337	1.010774
C73	C	1.532123	-1.014438	0.510839
C74	C	2.032123	-0.514438	1.010839
C75	C	1.808440	-0.356781	0.510807
C76	C	2.308440	0.143219	1.010807
C77	C	1.926270	-0.356789	0.510821
C78	C	2.426270	0.143211	1.010821
C79	C	1.532013	-0.356706	0.787281
C80	C	2.032013	0.143294	1.287281
C81	C	1.532046	-0.356682	0.905112
C82	C	2.032046	0.143318	1.405112
C83	C	1.532106	-0.163601	0.510830
C84	C	2.032106	0.336399	1.010830
C85	C	1.532179	-0.081287	0.510854
C86	C	2.032179	0.418713	1.010854
C87	C	1.531918	-0.356767	0.235346
C88	C	2.031918	0.143233	0.735346
C89	C	1.532090	-0.356583	0.117517
C90	C	2.032090	0.143417	0.617517
C91	C	1.449825	-0.413633	1.072650
C92	C	1.949825	0.086367	1.572650
C93	C	1.450040	-0.413915	0.950090
C94	C	1.950040	0.086085	1.450090
C95	C	1.643739	-0.377863	0.949630
C96	C	2.143739	0.122137	1.449630
C97	C	1.643288	-0.378220	1.072228
C98	C	2.143288	0.121780	1.572228
C99	C	1.503631	-0.278231	1.072316
C100	C	2.003631	0.221769	1.572316
C101	C	1.501139	-0.278701	0.949710
C102	C	2.001139	0.221299	1.449710
H103	H	0.942539	-0.378842	0.683778
H104	H	1.442539	0.121158	1.183778
F105	F	1.726073	-0.326233	1.111028
F106	F	2.226073	0.173767	1.611028
H107	H	1.366755	-0.400505	1.102125
H108	H	1.866755	0.099495	1.602125
H109	H	1.124783	-0.374044	0.686401
H110	H	1.624783	0.125956	1.186401
F111	F	1.474089	-0.489073	1.112988
F112	F	1.974089	0.010927	1.612988
F113	F	1.581948	-0.222674	1.110242
F114	F	2.081948	0.277326	1.610242
F115	F	1.341784	-0.396586	0.910743
F116	F	1.841784	0.103414	1.410743
F117	F	1.474838	-0.926120	0.701581
F118	F	1.974838	-0.426120	1.201581
F119	F	1.474643	-0.489830	0.911763
F120	F	1.974643	0.010170	1.411763
H121	H	1.671788	-0.920471	0.619527
H122	H	2.171788	-0.420471	1.119527
H123	H	1.468888	-0.792579	0.675532
H124	H	1.968888	-0.292579	1.175532
F125	F	1.727339	-0.785282	0.469420
F126	F	2.227339	-0.285282	0.969420
F127	F	1.726004	-0.325269	0.911556
F128	F	2.226004	0.174731	1.411556
H129	H	1.668278	-0.434540	0.918936
H130	H	2.168278	0.065460	1.418936
F131	F	1.341308	-0.786945	0.567913
F132	F	1.841308	-0.286945	1.067913
F133	F	1.723786	-0.925405	0.461280
F134	F	2.223786	-0.425405	0.961280
F135	F	1.342361	-0.927489	0.568496
F136	F	1.842361	-0.427489	1.068496
H137	H	0.941871	-0.478752	0.536461
H138	H	1.441871	0.021248	1.036461
F139	F	0.931176	-0.263898	0.659322
F140	F	1.431176	0.236102	1.159322
H141	H	1.123262	-0.277805	0.645434
H142	H	1.623262	0.222195	1.145434
H143	H	1.122937	-0.312540	0.345787
H144	H	1.622937	0.187460	0.845787
F145	F	1.674820	-0.453085	1.109621
F146	F	2.174820	0.046915	1.609621
H147	H	1.419189	-0.919036	0.375318
H148	H	1.919189	-0.419036	0.875318
F149	F	1.399029	-0.252995	1.112708
F150	F	1.899029	0.247005	1.612708
F151	F	1.573745	-0.220204	0.909703
F152	F	2.073745	0.279796	1.409703
F153	F	1.133035	-0.223818	0.453953
F154	F	1.633035	0.276182	0.953953
F155	F	0.932619	-0.223439	0.454042
F156	F	1.432619	0.276561	0.954042
F157	F	1.393698	-0.257823	0.911689
F158	F	1.893698	0.242177	1.411689
H159	H	0.940251	-0.312246	0.346636
H160	H	1.440251	0.187754	0.846636
F161	F	1.577037	-0.786727	0.316912
F162	F	2.077037	-0.286727	0.816912
F163	F	1.132224	-0.492270	0.555406
F164	F	1.632224	0.007730	1.055406
F165	F	0.934078	-0.456436	0.372447
F166	F	1.434078	0.043564	0.872447
H167	H	1.558102	-0.919713	0.336289
H168	H	2.058102	-0.419713	0.836289
F169	F	1.395676	-0.785401	0.366812
F170	F	1.895676	-0.285401	0.866812
F171	F	1.673370	-0.786657	0.649368
F172	F	2.173370	-0.286657	1.149368
H173	H	1.124778	-0.451877	0.399076
H174	H	1.624778	0.048123	0.899076
