data_functionalizedCrystal
_audit_creation_method	'MofGen! by Chris Wilmer'
_symmetry_space_group_name_H-M	'P1'
_symmetry_Int_Tables_number	1
_symmetry_cell_setting	triclinic
loop_
_symmetry_equiv_pos_as_xyz
  x,y,z
_cell_length_a	18.050589
_cell_length_b	16.959455
_cell_length_c	16.959447
_cell_angle_alpha	90.015720
_cell_angle_beta	89.973357
_cell_angle_gamma	89.973165
loop_
_atom_site_label
_atom_site_type_symbol
_atom_site_fract_x
_atom_site_fract_y
_atom_site_fract_z
Zn1	Zn	-0.295672	-1.208339	-0.446958
Zn2	Zn	0.204328	-0.708339	0.053042
Zn3	Zn	-0.419874	-1.208243	-0.314788
Zn4	Zn	0.080126	-0.708243	0.185212
Zn5	Zn	-0.295699	-1.076167	-0.314793
Zn6	Zn	0.204301	-0.576167	0.185207
Zn7	Zn	-0.419822	-1.076113	-0.446924
Zn8	Zn	0.080178	-0.576113	0.053076
O9	O	-0.357767	-1.142216	-0.380866
O10	O	0.142233	-0.642216	0.119134
O11	O	-0.312158	-1.318937	-0.429438
O12	O	0.187842	-0.818937	0.070562
O13	O	-0.403435	-1.190705	-0.204178
O14	O	0.096565	-0.690705	0.295822
O15	O	-0.191771	-1.093763	-0.332341
O16	O	0.308229	-0.593763	0.167659
O17	O	-0.403409	-1.318866	-0.332334
O18	O	0.096591	-0.818866	0.167666
O19	O	-0.191751	-1.190869	-0.429443
O20	O	0.308249	-0.690869	0.070557
O21	O	-0.312204	-1.093670	-0.204181
O22	O	0.187796	-0.593670	0.295819
O23	O	-0.312154	-0.965549	-0.332307
O24	O	0.187846	-0.465549	0.167693
O25	O	-0.403320	-1.093671	-0.557539
O26	O	0.096680	-0.593671	-0.057539
O27	O	-0.403346	-0.965510	-0.429383
O28	O	0.096654	-0.465510	0.070617
O29	O	-0.312108	-1.190817	-0.557565
O30	O	0.187892	-0.690817	-0.057565
O31	O	-0.523792	-1.190653	-0.332300
O32	O	-0.023792	-0.690653	0.167700
O33	O	-0.523753	-1.093578	-0.429379
O34	O	-0.023753	-0.593578	0.070621
C35	C	-0.357748	-0.936849	-0.380843
C36	C	0.142252	-0.436849	0.119157
C37	C	-0.357758	-0.848993	-0.380851
C38	C	0.142242	-0.348993	0.119149
C39	C	-0.550719	-1.142120	-0.380853
C40	C	-0.050719	-0.642120	0.119147
C41	C	-0.633265	-1.142152	-0.380873
C42	C	-0.133265	-0.642152	0.119127
C43	C	-0.405199	-0.807680	-0.330221
C44	C	0.094801	-0.307680	0.169779
C45	C	-0.310321	-0.807752	-0.431487
C46	C	0.189679	-0.307752	0.068513
C47	C	-0.310326	-0.725206	-0.431495
C48	C	0.189674	-0.225206	0.068505
C49	C	-0.357767	-0.683893	-0.380864
C50	C	0.142233	-0.183893	0.119136
C51	C	-0.405204	-0.725127	-0.330226
C52	C	0.094796	-0.225127	0.169774
C53	C	-0.262884	-0.683967	-0.482127
C54	C	0.237116	-0.183967	0.017873
C55	C	-0.262887	-0.601416	-0.482136
C56	C	0.237113	-0.101416	0.017864
C57	C	-0.310332	-0.560102	-0.431509
C58	C	0.189668	-0.060102	0.068491
C59	C	-0.357772	-0.601340	-0.380869
C60	C	0.142228	-0.101340	0.119131
C61	C	-0.405213	-0.560027	-0.330238
C62	C	0.094787	-0.060027	0.169762
C63	C	-0.452657	-0.601264	-0.279602
C64	C	0.047343	-0.101264	0.220398
C65	C	-0.452650	-0.683812	-0.279598
C66	C	0.047350	-0.183812	0.220402
C67	C	-0.310340	-0.477553	-0.431512
C68	C	0.189660	0.022447	0.068488
C69	C	-0.405218	-0.477474	-0.330243
C70	C	0.094782	0.022526	0.169757
C71	C	-0.832722	-1.089414	-0.433647
C72	C	-0.332722	-0.589414	0.066353
C73	C	-0.882165	-1.070151	-0.361519
C74	C	-0.382165	-0.570151	0.138481
C75	C	-0.784395	-1.142229	-0.380884
C76	C	-0.284395	-0.642229	0.119116
C77	C	-0.882033	-1.161531	-0.453019
C78	C	-0.382033	-0.661531	0.046981
C79	C	-0.930380	-1.142303	-0.380900
C80	C	-0.430380	-0.642303	0.119100
C81	C	-0.832751	-1.122929	-0.308718
C82	C	-0.332751	-0.622929	0.191282
C83	C	-0.832615	-1.214342	-0.400267
C84	C	-0.332615	-0.714342	0.099733
C85	C	-0.882036	-1.195106	-0.328090
C86	C	-0.382036	-0.695106	0.171910
C87	C	-0.700297	-1.142185	-0.380875
C88	C	-0.200297	-0.642185	0.119125
C89	C	-1.014477	-1.142347	-0.380900
C90	C	-0.514477	-0.642347	0.119100
C91	C	-0.164061	-1.142333	-0.380896
C92	C	0.335939	-0.642333	0.119104
C93	C	-0.081515	-1.142383	-0.380909
C94	C	0.418485	-0.642383	0.119091
C95	C	-0.357705	-1.142249	-0.587034
C96	C	0.142295	-0.642249	-0.087034
C97	C	-0.357679	-1.142263	-0.674891
C98	C	0.142321	-0.642263	-0.174891
C99	C	-0.357783	-0.348384	-0.380885
C100	C	0.142217	0.151616	0.119115
C101	C	-0.357781	-0.436240	-0.380882
C102	C	0.142219	0.063760	0.119118
C103	C	-0.405091	-1.091778	-1.046356
C104	C	0.094909	-0.591778	-0.546356
C105	C	-0.310111	-1.192936	-1.046377
C106	C	0.189889	-0.692936	-0.546377
C107	C	-0.310127	-1.192915	-0.963831
C108	C	0.189873	-0.692915	-0.463831
C109	C	-0.357626	-1.142326	-0.922544
C110	C	0.142374	-0.642326	-0.422544
C111	C	-0.405110	-1.091757	-0.963802
C112	C	0.094890	-0.591757	-0.463802
C113	C	-0.262649	-1.243489	-0.922567
C114	C	0.237351	-0.743489	-0.422567
C115	C	-0.262664	-1.243470	-0.840016
C116	C	0.237336	-0.743470	-0.340016
C117	C	-0.310160	-1.192876	-0.798727
C118	C	0.189840	-0.692876	-0.298727
C119	C	-0.357645	-1.142305	-0.839990
C120	C	0.142355	-0.642305	-0.339990
C121	C	-0.405144	-1.091715	-0.798703
C122	C	0.094856	-0.591715	-0.298703
C123	C	-0.452626	-1.041139	-0.839965
C124	C	0.047374	-0.541139	-0.339965
C125	C	-0.452606	-1.041162	-0.922513
C126	C	0.047394	-0.541162	-0.422513
C127	C	-0.310180	-1.192852	-0.716178
C128	C	0.189820	-0.692852	-0.216178
C129	C	-0.405163	-1.091694	-0.716149
C130	C	0.094837	-0.591694	-0.216149
C131	C	-0.357774	-1.142228	-0.175499
C132	C	0.142226	-0.642228	0.324501
C133	C	-0.357591	-1.142368	-0.087643
C134	C	0.142409	-0.642368	0.412357
H135	H	-0.443854	-0.443843	-0.289016
H136	H	0.056146	0.056157	0.210984
Cl137	Cl	-0.250406	-1.256537	-1.098282
Cl138	Cl	0.249594	-0.756537	-0.598282
Cl139	Cl	-0.250681	-0.859689	-0.495131
Cl140	Cl	0.249319	-0.359689	0.004869
H141	H	-0.224256	-0.567848	-0.523369
H142	H	0.275744	-0.067848	-0.023369
Cl143	Cl	-0.799286	-1.020359	-0.502440
Cl144	Cl	-0.299286	-0.520359	-0.002440
H145	H	-0.271706	-0.443982	-0.472734
H146	H	0.228294	0.056018	0.027266
H147	H	-0.224257	-0.717609	-0.523345
H148	H	0.275743	-0.217609	-0.023345
H149	H	-0.903946	-1.009203	-0.345140
H150	H	-0.403946	-0.509203	0.154860
H151	H	-0.811193	-1.106562	-0.247704
H152	H	-0.311193	-0.606562	0.252296
Cl153	Cl	-0.512295	-0.977592	-0.974389
Cl154	Cl	-0.012295	-0.477592	-0.474389
Cl155	Cl	-0.915259	-1.264115	-0.259135
Cl156	Cl	-0.415259	-0.764115	0.240865
Cl157	Cl	-0.202945	-1.307089	-0.974474
Cl158	Cl	0.297055	-0.807089	-0.474474
Cl159	Cl	-0.798986	-1.308421	-0.425609
Cl160	Cl	-0.298986	-0.808421	0.074391
H161	H	-0.491281	-0.567616	-0.238375
H162	H	0.008719	-0.067616	0.261625
Cl163	Cl	-0.915459	-1.186691	-0.547193
Cl164	Cl	-0.415459	-0.686691	-0.047193
H165	H	-0.443747	-1.050598	-1.079955
H166	H	0.056253	-0.550598	-0.579955
Cl167	Cl	-0.202971	-1.307047	-0.788151
Cl168	Cl	0.297029	-0.807047	-0.288151
Cl169	Cl	-0.464876	-1.028087	-0.664251
Cl170	Cl	0.035124	-0.528087	-0.164251
H171	H	-0.491274	-0.717395	-0.238371
H172	H	0.008726	-0.217395	0.261629
H173	H	-0.491303	-0.999952	-0.806337
H174	H	0.008697	-0.499952	-0.306337
Cl175	Cl	-0.250498	-1.256433	-0.664310
Cl176	Cl	0.249502	-0.756433	-0.164310
H177	H	-0.443829	-0.841259	-0.288996
H178	H	0.056171	-0.341259	0.211004
