data_functionalizedCrystal
_audit_creation_method	'MofGen! by Chris Wilmer'
_symmetry_space_group_name_H-M	'P1'
_symmetry_Int_Tables_number	1
_symmetry_cell_setting	triclinic
loop_
_symmetry_equiv_pos_as_xyz
  x,y,z
_cell_length_a	6.817900
_cell_length_b	11.102188
_cell_length_c	14.858572
_cell_angle_alpha	93.467807
_cell_angle_beta	104.524003
_cell_angle_gamma	108.603875
loop_
_atom_site_label
_atom_site_type_symbol
_atom_site_fract_x
_atom_site_fract_y
_atom_site_fract_z
V1	V	-4.064538	-0.176639	-0.289960
V2	V	-3.564538	0.323361	0.210040
O3	O	-4.024475	0.007665	-0.284441
O4	O	-3.524475	0.507665	0.215559
O5	O	-4.041627	-0.349453	-0.287977
O6	O	-3.541627	0.150547	0.212023
O7	O	-4.020828	-0.174283	-0.416422
O8	O	-3.520828	0.325717	0.083578
O9	O	-4.045417	-0.168718	-0.155107
O10	O	-3.545417	0.331282	0.344893
V11	V	-4.544255	-0.154551	-0.273831
V12	V	-4.044255	0.345449	0.226169
O13	O	-4.334144	-0.225089	-0.325342
O14	O	-3.834144	0.274911	0.174658
O15	O	-4.724846	-0.106100	-0.238449
O16	O	-4.224846	0.393900	0.261551
O17	O	-4.343960	0.018263	-0.275814
O18	O	-3.843960	0.518263	0.224186
O19	O	-4.701715	-0.338855	-0.279350
O20	O	-4.201715	0.161145	0.220650
O21	O	-4.680772	-0.162472	-0.408684
O22	O	-4.180772	0.337528	0.091316
O23	O	-4.364758	-0.156907	-0.147369
O24	O	-3.864758	0.343093	0.352631
C25	C	-3.892677	-0.391570	-0.283403
C26	C	-3.392677	0.108430	0.216597
C27	C	-3.955262	-0.532851	-0.282625
C28	C	-3.455262	-0.032851	0.217375
C29	C	-3.938296	-0.580841	-0.197095
C30	C	-3.438296	-0.080841	0.302905
C31	C	-3.997125	-0.713590	-0.196367
C32	C	-3.497125	-0.213590	0.303633
C33	C	-4.089878	-0.750350	-0.366706
C34	C	-3.589878	-0.250350	0.133294
C35	C	-4.031063	-0.617603	-0.367434
C36	C	-3.531063	-0.117603	0.132566
C37	C	-3.866145	-0.168121	-0.447246
C38	C	-3.366145	0.331879	0.052754
C39	C	-3.911859	-0.167339	-0.550629
C40	C	-3.411859	0.332661	-0.050629
C41	C	-4.079177	-0.164478	-0.929197
C42	C	-3.579177	0.335522	-0.429197
C43	C	-4.032615	-0.165274	-0.823868
C44	C	-3.532615	0.334726	-0.323868
C45	C	-3.995520	-0.165909	-0.739916
C46	C	-3.495520	0.334091	-0.239916
C47	C	-3.948955	-0.166703	-0.634580
C48	C	-3.448955	0.333297	-0.134580
C49	C	-4.156253	0.060374	-0.280385
C50	C	-3.656253	0.560374	0.219615
C51	C	-4.072906	0.201653	-0.281170
C52	C	-3.572906	0.701653	0.218830
C53	C	-4.182784	-0.163072	-0.116540
C54	C	-3.682784	0.336928	0.383460
C55	C	-4.116307	-0.163849	-0.013156
C56	C	-3.616307	0.336151	0.486844
H57	H	-4.044894	-0.578532	-0.437087
H58	H	-3.544894	-0.078532	0.062913
Cl59	Cl	-4.185159	-0.856902	-0.473317
Cl60	Cl	-3.685159	-0.356902	0.026683
H61	H	-3.983307	-0.752656	-0.126720
H62	H	-3.483307	-0.252656	0.373280
H63	H	-3.876576	-0.511838	-0.128038
H64	H	-3.376576	-0.011838	0.371962
