data_functionalizedCrystal
_audit_creation_method	'MofGen! by Chris Wilmer'
_symmetry_space_group_name_H-M	'P1'
_symmetry_Int_Tables_number	1
_symmetry_cell_setting	triclinic
loop_
_symmetry_equiv_pos_as_xyz
  x,y,z
_cell_length_a	14.853567
_cell_length_b	9.730223
_cell_length_c	10.654550
_cell_angle_alpha	89.995747
_cell_angle_beta	84.059931
_cell_angle_gamma	89.999682
loop_
_atom_site_label
_atom_site_type_symbol
_atom_site_fract_x
_atom_site_fract_y
_atom_site_fract_z
O1	O	1.197241	-0.114195	0.163961
O2	O	0.934886	-0.114218	0.183492
O3	O	1.072096	-0.114197	-0.009076
O4	O	1.060032	-0.114216	0.356528
O5	O	1.072087	0.114383	-0.009081
O6	O	0.934877	0.114362	0.183487
O7	O	1.197232	0.114385	0.163955
Zn8	Zn	1.066053	0.150665	0.173720
Zn9	Zn	1.066065	-0.150498	0.173727
O10	O	1.060023	0.114364	0.356523
C11	C	0.901288	0.000069	0.182605
C12	C	0.801190	0.000060	0.179953
N13	N	1.066052	0.356202	0.173715
N14	N	1.066073	-0.356035	0.173723
C15	C	0.387984	0.000097	0.054353
C16	C	0.367928	0.000084	0.283127
C17	C	0.461975	0.000080	0.285621
C18	C	0.519031	0.000082	0.172479
C19	C	0.482040	0.000088	0.056843
C20	C	0.498973	0.000059	0.401255
C21	C	0.593026	0.000053	0.403753
C22	C	0.650083	0.000065	0.290609
C23	C	0.613087	0.000073	0.174969
C24	C	0.670143	0.000075	0.061826
C25	C	0.633149	0.000093	-0.053816
C26	C	0.539098	0.000100	-0.056301
C27	C	0.744134	0.000058	0.293095
C28	C	0.764199	0.000067	0.064317
C29	C	1.230830	0.000095	0.164843
C30	C	1.330928	0.000095	0.167495
C31	C	1.071205	0.000092	-0.055867
C32	C	1.068555	0.000090	-0.195283
C33	C	1.126829	0.428137	0.088482
C34	C	1.126838	0.572020	0.088482
C35	C	1.005290	0.572020	0.258960
C36	C	1.005277	0.428140	0.258953
C37	C	1.149342	0.000096	-0.275608
C38	C	1.146846	0.000079	-0.406602
C39	C	0.982770	0.000055	-0.376935
C40	C	0.985267	0.000062	-0.245942
C41	C	1.060913	0.000072	0.403314
C42	C	1.063563	0.000065	0.542730
H43	H	0.810649	0.000074	-0.027819
O44	O	0.779922	0.000098	0.405523
C45	C	0.750099	-0.000021	0.632177
C46	C	0.709451	-0.000035	0.504933
H47	H	0.693142	-0.000157	0.712583
H48	H	0.793598	0.095659	0.639155
H49	H	0.793660	-0.095661	0.638987
H50	H	0.665849	0.095541	0.498037
H51	H	0.666004	-0.095778	0.498010
H52	H	0.955781	0.369566	0.328360
H53	H	1.176327	0.630586	0.019076
O54	O	1.185891	0.358469	0.005557
C55	C	1.306482	0.373662	-0.163490
C56	C	1.239630	0.452726	-0.069659
H57	H	1.349961	0.449834	-0.224309
H58	H	1.267211	0.306357	-0.226418
H59	H	1.351810	0.306245	-0.109134
H60	H	1.194286	0.520218	-0.123912
H61	H	1.278957	0.519944	-0.006732
O62	O	1.230322	0.000045	-0.226604
C63	C	1.392799	0.000129	-0.269862
C64	C	1.301150	0.000163	-0.325521
H65	H	1.450087	0.000253	-0.349809
H66	H	1.398133	-0.095552	-0.209313
H67	H	1.398022	0.095769	-0.209242
H68	H	1.295865	-0.095413	-0.386197
H69	H	1.295856	0.095907	-0.385997
O70	O	0.946296	0.641748	0.341933
C71	C	0.894856	0.685802	0.560168
C72	C	0.961704	0.606732	0.466337
H73	H	0.907302	0.657542	0.660769
H74	H	0.822530	0.657501	0.543714
H75	H	0.905289	0.800988	0.545475
H76	H	0.951354	0.491528	0.480974
H77	H	1.034007	0.635147	0.482815
H78	H	0.679616	0.000086	-0.145936
H79	H	0.452512	0.000043	0.493369
H80	H	1.212631	0.000082	-0.471999
H81	H	0.508968	0.000148	-0.150451
H82	H	0.914959	0.000035	-0.418198
H83	H	0.919476	0.000052	-0.180538
H84	H	0.357859	0.000117	-0.039800
H85	H	0.623138	0.000038	0.497916
H86	H	0.321468	0.000071	0.375243
