data_functionalizedCrystal
_audit_creation_method	'MofGen! by Chris Wilmer'
_symmetry_space_group_name_H-M	'P1'
_symmetry_Int_Tables_number	1
_symmetry_cell_setting	triclinic
loop_
_symmetry_equiv_pos_as_xyz
  x,y,z
_cell_length_a	15.995292
_cell_length_b	15.072220
_cell_length_c	14.971494
_cell_angle_alpha	89.999404
_cell_angle_beta	83.543087
_cell_angle_gamma	90.013670
loop_
_atom_site_label
_atom_site_type_symbol
_atom_site_fract_x
_atom_site_fract_y
_atom_site_fract_z
O1	O	1.111145	0.073803	0.115039
O2	O	0.867377	0.073799	0.129331
O3	O	0.995791	0.073799	-0.008023
O4	O	0.982731	0.073803	0.252394
O5	O	0.995759	-0.073766	-0.008016
O6	O	0.867346	-0.073766	0.129339
O7	O	1.111113	-0.073762	0.115047
Zn8	Zn	0.989224	-0.097193	0.122194
Zn9	Zn	0.989266	0.097230	0.122184
O10	O	0.982699	-0.073762	0.252401
C11	C	0.836165	0.000016	0.128753
C12	C	0.743211	0.000015	0.127009
C13	C	0.405466	0.000025	0.120598
C14	C	0.428880	0.000356	0.219737
C15	C	0.525557	0.000019	0.221621
C16	C	0.573025	0.000020	0.123780
C17	C	0.543854	-0.084244	0.074219
C18	C	0.447062	-0.084311	0.073026
C19	C	0.447241	0.083498	0.070993
C20	C	0.543737	0.084608	0.074666
C21	C	0.667723	0.000015	0.125572
C22	C	0.310768	0.000024	0.118803
N23	N	0.989202	-0.229882	0.122200
C24	C	0.989264	-0.589083	0.122180
C25	C	0.920322	-0.551477	0.195430
C26	C	0.920480	-0.448651	0.195697
C27	C	0.989233	-0.410879	0.122190
C28	C	1.076621	-0.448169	0.142555
C29	C	1.076234	-0.551027	0.143076
C30	C	0.971598	-0.551185	0.028349
C31	C	0.969594	-0.448322	0.028976
C32	C	0.989220	-0.310166	0.122194
C33	C	0.989283	-0.689797	0.122179
C34	C	1.142325	0.000023	0.115625
C35	C	1.235280	0.000030	0.117369
C36	C	0.995190	0.000018	-0.041343
C37	C	0.993436	0.000022	-0.140638
N38	N	0.989295	0.229919	0.122171
C39	C	0.992631	0.080461	-0.187285
C40	C	0.990977	0.080462	-0.280582
C41	C	0.990135	0.000023	-0.327230
C42	C	0.990937	-0.080422	-0.280576
C43	C	0.992585	-0.080422	-0.187280
C44	C	0.987505	-0.080416	-0.475034
C45	C	0.985859	-0.080416	-0.568337
C46	C	0.985898	0.080468	-0.568336
C47	C	0.987546	0.080468	-0.475041
C48	C	0.988349	0.000023	-0.428393
C49	C	0.983300	0.000021	0.285721
C50	C	0.985055	0.000023	0.385016
H51	H	0.420267	-0.147301	0.107356
C52	C	0.568899	0.168827	0.123409
N53	N	0.587859	0.232259	0.160122
H54	H	0.988238	0.145968	-0.437063
C55	C	0.935739	-0.415393	0.289764
N56	N	0.947237	-0.390344	0.360619
H57	H	0.988142	-0.145923	-0.437054
H58	H	0.563935	-0.146955	0.108642
H59	H	0.993228	-0.145923	-0.149299
H60	H	0.432436	-0.088138	0.000337
H61	H	1.129153	-0.423700	0.090623
C62	C	0.588171	0.091480	-0.021818
N63	N	0.621637	0.096647	-0.094495
H64	H	0.990326	0.145963	-0.318559
C65	C	0.993558	0.168951	-0.135981
N66	N	0.994252	0.235605	-0.097340
H67	H	1.021873	-0.575504	-0.026160
H68	H	1.091788	-0.575007	0.211505
H69	H	0.990246	-0.145916	-0.318563
H70	H	0.400936	0.060786	0.257946
C71	C	0.551341	0.081655	0.274004
N72	N	0.570758	0.143156	0.313444
H73	H	0.399887	-0.059734	0.257741
H74	H	0.985242	0.145970	-0.606322
H75	H	0.543988	-0.060487	0.260676
H76	H	1.016539	-0.422614	-0.028085
C77	C	0.586833	-0.088500	-0.023035
N78	N	0.619216	-0.091711	-0.096284
C79	C	0.984926	-0.168902	-0.619647
N80	N	0.984222	-0.235552	-0.658294
C81	C	1.098127	-0.413367	0.233953
N82	N	1.114319	-0.387158	0.302799
C83	C	0.832725	-0.414591	0.179325
N84	N	0.766623	-0.388942	0.167000
C85	C	0.935364	-0.586380	0.288970
N86	N	0.946697	-0.612670	0.359424
C87	C	0.409137	0.169783	0.112952
N88	N	0.380438	0.234770	0.144568
H89	H	0.433172	0.084068	-0.001980
H90	H	1.129144	-0.575901	0.091827
H91	H	0.855158	-0.576239	0.183499
H92	H	0.909253	-0.577177	0.008762
C93	C	0.882745	-0.415404	0.008097
N94	N	0.817330	-0.390607	-0.007625
