data_functionalizedCrystal
_audit_creation_method	'MofGen! by Chris Wilmer'
_symmetry_space_group_name_H-M	'P1'
_symmetry_Int_Tables_number	1
_symmetry_cell_setting	triclinic
loop_
_symmetry_equiv_pos_as_xyz
  x,y,z
_cell_length_a	10.654550
_cell_length_b	10.723024
_cell_length_c	9.730223
_cell_angle_alpha	89.999810
_cell_angle_beta	89.996251
_cell_angle_gamma	84.476386
loop_
_atom_site_label
_atom_site_type_symbol
_atom_site_fract_x
_atom_site_fract_y
_atom_site_fract_z
O1	O	1.667808	0.175269	-0.114399
O2	O	1.302327	0.191968	-0.114377
O3	O	1.493497	0.002044	-0.114383
O4	O	1.476637	0.365194	-0.114393
O5	O	1.493495	0.002049	0.114197
O6	O	1.302324	0.191973	0.114203
O7	O	1.667805	0.175274	0.114181
Zn8	Zn	1.485065	0.183624	0.150484
Zn9	Zn	1.485067	0.183618	-0.150680
O10	O	1.476635	0.365199	0.114187
C11	C	1.255528	0.190745	-0.000084
C12	C	1.116085	0.187076	-0.000075
C13	C	1.036583	0.298901	-0.000098
C14	C	0.905562	0.295446	-0.000122
C15	C	0.933560	0.068333	-0.000106
C16	C	1.064578	0.071789	-0.000072
C17	C	1.020417	0.430023	-0.000114
C18	C	0.889397	0.426568	-0.000137
C19	C	1.492269	-0.044454	-0.000095
C20	C	1.488598	-0.183008	-0.000100
C21	C	1.595568	-0.257975	-0.000108
C22	C	1.591776	-0.401179	-0.000113
C23	C	1.714604	0.176498	-0.000115
C24	C	1.854047	0.180166	-0.000133
C25	C	1.477863	0.411696	-0.000104
C26	C	1.481534	0.550251	-0.000108
N27	N	1.485072	0.183628	0.356020
N28	N	1.485070	0.183605	-0.356216
C29	C	1.569744	0.099558	0.427943
C30	C	1.569741	0.099543	0.571826
C31	C	1.400389	0.267678	0.571850
C32	C	1.400387	0.267687	0.427970
C33	C	1.667522	0.002490	0.427931
C34	C	1.667519	0.002475	0.571814
H35	H	1.689955	-0.216139	-0.000105
C36	C	1.361081	-0.239506	-0.000101
H37	H	1.294461	-0.173903	-0.000106
H38	H	1.355046	-0.289736	0.079604
H39	H	1.355057	-0.289720	-0.079828
C40	C	1.068586	0.486433	-0.133420
H41	H	0.999374	0.509168	-0.192805
H42	H	1.126216	0.426285	-0.177702
H43	H	1.109871	0.558666	-0.111993
C44	C	1.715490	-0.488194	-0.000130
H45	H	1.696712	-0.573028	-0.000144
H46	H	1.763045	-0.472630	0.079574
H47	H	1.763031	-0.472621	-0.079858
C48	C	1.152032	-0.051214	-0.000034
H49	H	1.237439	-0.032648	-0.000003
H50	H	1.136335	-0.098450	-0.079742
H51	H	1.136287	-0.098424	0.079690
C52	C	1.307240	0.360155	0.348859
H53	H	1.256817	0.410221	0.412320
H54	H	1.254584	0.314779	0.292731
H55	H	1.352861	0.412536	0.292734
H56	H	1.389955	-0.385338	-0.000092
C57	C	1.790689	0.043546	0.367618
H58	H	1.786484	0.042163	0.270108
H59	H	1.859885	-0.012230	0.397753
H60	H	1.801668	0.126058	0.397768
H61	H	1.637019	-0.088167	0.616433
C62	C	1.307251	0.360142	0.650999
H63	H	1.319381	0.348103	0.746991
H64	H	1.223320	0.345818	0.627422
H65	H	1.321611	0.443562	0.627426
H66	H	1.646094	-0.093427	0.388881
C67	C	1.797881	0.031364	0.624577
H68	H	1.797875	0.031341	0.722214
H69	H	1.815752	0.111291	0.592052
H70	H	1.860438	-0.030738	0.592031
C71	C	0.876896	-0.058472	-0.000116
H72	H	0.787480	-0.044517	-0.000147
H73	H	0.904100	-0.104565	0.079599
H74	H	0.904140	-0.104561	-0.079833
H75	H	1.049740	0.481306	0.095551
H76	H	0.843719	0.466197	0.098546
H77	H	0.847658	0.475971	-0.095806
