data_functionalizedCrystal
_audit_creation_method	'MofGen! by Chris Wilmer'
_symmetry_space_group_name_H-M	'P1'
_symmetry_Int_Tables_number	1
_symmetry_cell_setting	triclinic
loop_
_symmetry_equiv_pos_as_xyz
  x,y,z
_cell_length_a	21.395364
_cell_length_b	21.395363
_cell_length_c	21.395355
_cell_angle_alpha	90.004913
_cell_angle_beta	90.024552
_cell_angle_gamma	90.016642
loop_
_atom_site_label
_atom_site_type_symbol
_atom_site_fract_x
_atom_site_fract_y
_atom_site_fract_z
Zn1	Zn	0.957985	-0.249261	0.354321
Zn2	Zn	1.207985	0.000739	0.604321
Zn3	Zn	1.457985	0.250739	0.854321
Zn4	Zn	1.707985	0.500739	1.104321
Zn5	Zn	0.957941	-0.354021	0.249568
Zn6	Zn	1.207941	-0.104021	0.499568
Zn7	Zn	1.457941	0.145979	0.749568
Zn8	Zn	1.707941	0.395979	0.999568
Zn9	Zn	0.853200	-0.249289	0.249557
Zn10	Zn	1.103200	0.000711	0.499557
Zn11	Zn	1.353200	0.250711	0.749557
Zn12	Zn	1.603200	0.500711	0.999557
Zn13	Zn	0.853223	-0.354032	0.354308
Zn14	Zn	1.103223	-0.104032	0.604308
Zn15	Zn	1.353223	0.145968	0.854308
Zn16	Zn	1.603223	0.395968	1.104308
O17	O	0.905587	-0.301651	0.301939
O18	O	1.155587	-0.051651	0.551939
O19	O	1.405587	0.198349	0.801939
O20	O	1.655587	0.448349	1.051939
O21	O	1.045657	-0.263141	0.340435
O22	O	1.295657	-0.013141	0.590435
O23	O	1.545657	0.236859	0.840435
O24	O	1.795657	0.486859	1.090435
O25	O	0.944019	-0.340135	0.161889
O26	O	1.194019	-0.090135	0.411889
O27	O	1.444019	0.159865	0.661889
O28	O	1.694019	0.409865	0.911889
O29	O	0.867110	-0.161607	0.263455
O30	O	1.117110	0.088393	0.513455
O31	O	1.367110	0.338393	0.763455
O32	O	1.617110	0.588393	1.013455
O33	O	1.045625	-0.340108	0.263473
O34	O	1.295625	-0.090108	0.513473
O35	O	1.545625	0.159892	0.763473
O36	O	1.795625	0.409892	1.013473
O37	O	0.944095	-0.161587	0.340424
O38	O	1.194095	0.088413	0.590424
O39	O	1.444095	0.338413	0.840424
O40	O	1.694095	0.588413	1.090424
O41	O	0.867067	-0.263188	0.161881
O42	O	1.117067	-0.013188	0.411881
O43	O	1.367067	0.236812	0.661881
O44	O	1.617067	0.486812	0.911881
O45	O	0.765526	-0.263199	0.263443
O46	O	1.015526	-0.013199	0.513443
O47	O	1.265526	0.236801	0.763443
O48	O	1.515526	0.486801	1.013443
O49	O	0.867148	-0.340127	0.441988
O50	O	1.117148	-0.090127	0.691988
O51	O	1.367148	0.159873	0.941988
O52	O	1.617148	0.409873	1.191988
O53	O	0.765542	-0.340154	0.340403
O54	O	1.015542	-0.090154	0.590403
O55	O	1.265542	0.159846	0.840403
O56	O	1.515542	0.409846	1.090403
O57	O	0.944116	-0.263152	0.441997
O58	O	1.194116	-0.013152	0.691997
O59	O	1.444116	0.236848	0.941997
O60	O	1.694116	0.486848	1.191997
O61	O	0.944041	-0.441700	0.263461
O62	O	1.194041	-0.191700	0.513461
O63	O	1.444041	0.058300	0.763461
O64	O	1.694041	0.308300	1.013461
O65	O	0.867105	-0.441708	0.340414
O66	O	1.117105	-0.191708	0.590414
O67	O	1.367105	0.058292	0.840414
O68	O	1.617105	0.308292	1.090414
C69	C	0.742800	-0.301681	0.301921
C70	C	0.992800	-0.051681	0.551921
C71	C	1.242800	0.198319	0.801921
C72	C	1.492800	0.448319	1.051921
C73	C	0.673159	-0.301709	0.301928
C74	C	0.923159	-0.051709	0.551928
C75	C	1.173159	0.198291	0.801928
C76	C	1.423159	0.448291	1.051928
C77	C	0.640485	-0.261698	0.342064
C78	C	0.890485	-0.011698	0.592064
C79	C	1.140485	0.238302	0.842064
C80	C	1.390485	0.488302	1.092064
C81	C	0.575049	-0.261682	0.342067
C82	C	0.825049	-0.011682	0.592067
C83	C	1.075049	0.238318	0.842067
C84	C	1.325049	0.488318	1.092067
C85	C	0.542290	-0.301687	0.301940
C86	C	0.792290	-0.051687	0.551940
C87	C	1.042290	0.198313	0.801940
C88	C	1.292290	0.448313	1.051940
C89	C	0.574972	-0.341701	0.261796
C90	C	0.824972	-0.091701	0.511796
C91	C	1.074972	0.158299	0.761796
C92	C	1.324972	0.408299	1.011796
C93	C	0.640406	-0.341712	0.261791
C94	C	0.890406	-0.091712	0.511791
C95	C	1.140406	0.158288	0.761791
C96	C	1.390406	0.408288	1.011791
C97	C	0.438594	-0.358112	0.296916
C98	C	0.688594	-0.108112	0.546916
C99	C	0.938594	0.141888	0.796916
C100	C	1.188594	0.391888	1.046916
C101	C	0.373162	-0.358102	0.296926
C102	C	0.623162	-0.108102	0.546926
C103	C	0.873162	0.141898	0.796926
C104	C	1.123162	0.391898	1.046926
C105	C	0.340469	-0.301653	0.301954
C106	C	0.590469	-0.051653	0.551954
C107	C	0.840469	0.198347	0.801954
C108	C	1.090469	0.448347	1.051954
C109	C	0.373218	-0.245212	0.306985
C110	C	0.623218	0.004788	0.556985
C111	C	0.873218	0.254788	0.806985
C112	C	1.123218	0.504788	1.056985
C113	C	0.438653	-0.245223	0.306979
C114	C	0.688653	0.004777	0.556979
C115	C	0.938653	0.254777	0.806979
C116	C	1.188653	0.504777	1.056979
C117	C	0.471338	-0.301679	0.301941
C118	C	0.721338	-0.051679	0.551941
C119	C	0.971338	0.198321	0.801941
C120	C	1.221338	0.448321	1.051941
C121	C	0.236843	-0.261620	0.342094
C122	C	0.486843	-0.011620	0.592094
C123	C	0.736843	0.238380	0.842094
C124	C	0.986843	0.488380	1.092094
C125	C	0.171407	-0.261603	0.342092
C126	C	0.421407	-0.011603	0.592092
C127	C	0.671407	0.238397	0.842092
C128	C	0.921407	0.488397	1.092092
C129	C	0.171330	-0.341627	0.261825
C130	C	0.421330	-0.091627	0.511825
C131	C	0.671330	0.158373	0.761825
C132	C	0.921330	0.408373	1.011825
C133	C	0.236766	-0.341639	0.261824
C134	C	0.486766	-0.091639	0.511824
C135	C	0.736766	0.158361	0.761824
C136	C	0.986766	0.408361	1.011824
C137	C	0.269518	-0.301637	0.301962
C138	C	0.519518	-0.051637	0.551962
C139	C	0.769518	0.198363	0.801962
C140	C	1.019518	0.448363	1.051962
C141	C	0.905587	-0.464438	0.301951
C142	C	1.155587	-0.214438	0.551951
C143	C	1.405587	0.035562	0.801951
C144	C	1.655587	0.285562	1.051951
C145	C	0.905644	-0.534079	0.301977
C146	C	1.155644	-0.284079	0.551977
C147	C	1.405644	-0.034079	0.801977
C148	C	1.655644	0.215921	1.051977
C149	C	0.905639	-0.301638	0.465362
C150	C	1.155639	-0.051638	0.715362
C151	C	1.405639	0.198362	0.965362
C152	C	1.655639	0.448362	1.215362
C153	C	0.905662	-0.301633	0.535003
C154	C	1.155662	-0.051633	0.785003
C155	C	1.405662	0.198367	1.035003
C156	C	1.655662	0.448367	1.285003
C157	C	1.069011	-0.301620	0.301957
C158	C	1.319011	-0.051620	0.551957
C159	C	1.569011	0.198380	0.801957
C160	C	1.819011	0.448380	1.051957
C161	C	1.138652	-0.301608	0.301964
C162	C	1.388652	-0.051608	0.551964
C163	C	1.638652	0.198392	0.801964
C164	C	1.888652	0.448392	1.051964
C165	C	0.905605	-0.138227	0.301940
C166	C	1.155605	0.111773	0.551940
C167	C	1.405605	0.361773	0.801940
C168	C	1.655605	0.611773	1.051940
C169	C	0.905612	-0.068586	0.301941
C170	C	1.155612	0.181414	0.551941
C171	C	1.405612	0.431414	0.801941
C172	C	1.655612	0.681414	1.051941
C173	C	0.865556	-0.035882	0.342002
C174	C	1.115556	0.214118	0.592002
C175	C	1.365556	0.464118	0.842002
C176	C	1.615556	0.714118	1.092002
C177	C	0.865562	0.029554	0.342011
C178	C	1.115562	0.279554	0.592011
C179	C	1.365562	0.529554	0.842011
C180	C	1.615562	0.779554	1.092011
C181	C	0.905617	0.062282	0.301947
C182	C	1.155617	0.312282	0.551947
C183	C	1.405617	0.562282	0.801947
C184	C	1.655617	0.812282	1.051947
C185	C	0.945682	0.029570	0.261882
C186	C	1.195682	0.279570	0.511882
C187	C	1.445682	0.529570	0.761882
C188	C	1.695682	0.779570	1.011882
C189	C	0.945679	-0.035864	0.261879
C190	C	1.195679	0.214136	0.511879
C191	C	1.445679	0.464136	0.761879
C192	C	1.695679	0.714136	1.011879
C193	C	0.910549	0.165949	0.245503
C194	C	1.160549	0.415949	0.495503
C195	C	1.410549	0.665949	0.745503
C196	C	1.660549	0.915949	0.995503
C197	C	0.910547	0.231382	0.245505
C198	C	1.160547	0.481382	0.495505
C199	C	1.410547	0.731382	0.745505
C200	C	1.660547	0.981382	0.995505
C201	C	0.905629	0.264103	0.301957
C202	C	1.155629	0.514103	0.551957
C203	C	1.405629	0.764103	0.801957
C204	C	1.655629	1.014103	1.051957
C205	C	0.900700	0.231383	0.358408
C206	C	1.150700	0.481383	0.608408
C207	C	1.400700	0.731383	0.858408
C208	C	1.650700	0.981383	1.108408
C209	C	0.900697	0.165949	0.358405
C210	C	1.150697	0.415949	0.608405
C211	C	1.400697	0.665949	0.858405
C212	C	1.650697	0.915949	1.108405
C213	C	0.905625	0.133235	0.301946
C214	C	1.155625	0.383235	0.551946
C215	C	1.405625	0.633235	0.801946
C216	C	1.655625	0.883235	1.051946
C217	C	0.865577	0.367760	0.342031
C218	C	1.115577	0.617760	0.592031
C219	C	1.365577	0.867760	0.842031
C220	C	1.615577	1.117760	1.092031
C221	C	0.865588	0.433197	0.342041
C222	C	1.115588	0.683197	0.592041
C223	C	1.365588	0.933197	0.842041
C224	C	1.615588	1.183197	1.092041
C225	C	0.945704	0.433212	0.261907
C226	C	1.195704	0.683212	0.511907
C227	C	1.445704	0.933212	0.761907
C228	C	1.695704	1.183212	1.011907
C229	C	0.945697	0.367776	0.261903
C230	C	1.195697	0.617776	0.511903
C231	C	1.445697	0.867776	0.761903
C232	C	1.695697	1.117776	1.011903
C233	C	0.905630	0.335054	0.301964
C234	C	1.155630	0.585054	0.551964
C235	C	1.405630	0.835054	0.801964
C236	C	1.655630	1.085054	1.051964
C237	C	0.905572	-0.301618	0.139151
C238	C	1.155572	-0.051618	0.389151
C239	C	1.405572	0.198382	0.639151
C240	C	1.655572	0.448382	0.889151
C241	C	0.905671	-0.301447	0.069510
C242	C	1.155671	-0.051447	0.319510
C243	C	1.405671	0.198553	0.569510
C244	C	1.655671	0.448553	0.819510
C245	C	0.945737	-0.261550	0.567722
C246	C	1.195737	-0.011550	0.817722
C247	C	1.445737	0.238450	1.067722
C248	C	1.695737	0.488450	1.317722
C249	C	0.945737	-0.261523	0.633158
C250	C	1.195737	-0.011523	0.883158
C251	C	1.445737	0.238477	1.133158
C252	C	1.695737	0.488477	1.383158
C253	C	0.905666	-0.301590	0.665872
C254	C	1.155666	-0.051590	0.915872
C255	C	1.405666	0.198410	1.165872
C256	C	1.655666	0.448410	1.415872
C257	C	0.865583	-0.341675	0.633145
C258	C	1.115583	-0.091675	0.883145
C259	C	1.365583	0.158325	1.133145
C260	C	1.615583	0.408325	1.383145
C261	C	0.865580	-0.341696	0.567711
C262	C	1.115580	-0.091696	0.817711
C263	C	1.365580	0.158304	1.067711
C264	C	1.615580	0.408304	1.317711
C265	C	0.900719	-0.358006	0.769551
C266	C	1.150719	-0.108006	1.019551
C267	C	1.400719	0.141994	1.269551
C268	C	1.650719	0.391994	1.519551
C269	C	0.900726	-0.357986	0.834984
C270	C	1.150726	-0.107986	1.084984
C271	C	1.400726	0.142014	1.334984
C272	C	1.650726	0.392014	1.584984
C273	C	0.905670	-0.301524	0.867692
C274	C	1.155670	-0.051524	1.117692
C275	C	1.405670	0.198476	1.367692
C276	C	1.655670	0.448476	1.617692
C277	C	0.910621	-0.245080	0.834960
C278	C	1.160621	0.004920	1.084960
C279	C	1.410621	0.254920	1.334960
C280	C	1.660621	0.504920	1.584960
C281	C	0.910619	-0.245101	0.769526
C282	C	1.160619	0.004899	1.019526
C283	C	1.410619	0.254899	1.269526
C284	C	1.660619	0.504899	1.519526
C285	C	0.905664	-0.301571	0.736824
C286	C	1.155664	-0.051571	0.986824
C287	C	1.405664	0.198429	1.236824
C288	C	1.655664	0.448429	1.486824
C289	C	0.945747	-0.261409	0.971364
C290	C	1.195747	-0.011409	1.221364
C291	C	1.445747	0.238591	1.471364
C292	C	1.695747	0.488591	1.721364
C293	C	0.945742	-0.261381	1.036801
C294	C	1.195742	-0.011381	1.286801
C295	C	1.445742	0.238619	1.536801
C296	C	1.695742	0.488619	1.786801
C297	C	0.865592	-0.341538	1.036787
C298	C	1.115592	-0.091538	1.286787
C299	C	1.365592	0.158462	1.536787
C300	C	1.615592	0.408462	1.786787
C301	C	0.865594	-0.341561	0.971351
C302	C	1.115594	-0.091561	1.221351
C303	C	1.365594	0.158439	1.471351
C304	C	1.615594	0.408439	1.721351
C305	C	0.905675	-0.301497	0.938644
C306	C	1.155675	-0.051497	1.188644
C307	C	1.405675	0.198503	1.438644
C308	C	1.655675	0.448503	1.688644
H309	H	0.346602	-0.199245	0.311079
H310	H	0.596602	0.050755	0.561079
H311	H	0.846602	0.300755	0.811079
H312	H	1.096602	0.550755	1.061079
Cl313	Cl	0.894508	-0.428944	0.876126
Cl314	Cl	1.144508	-0.178944	1.126126
Cl315	Cl	1.394508	0.071056	1.376126
Cl316	Cl	1.644508	0.321056	1.626126
H317	H	0.832928	-0.062520	0.374621
H318	H	1.082928	0.187480	0.624621
H319	H	1.332928	0.437480	0.874621
H320	H	1.582928	0.687480	1.124621
H321	H	0.832959	-0.374155	1.063422
H322	H	1.082959	-0.124155	1.313422
H323	H	1.332959	0.125845	1.563422
H324	H	1.582959	0.375845	1.813422
Cl325	Cl	0.815231	0.474311	0.392413
Cl326	Cl	1.065231	0.724311	0.642413
Cl327	Cl	1.315231	0.974311	0.892413
Cl328	Cl	1.565231	1.224311	1.142413
H329	H	0.465207	-0.404083	0.292821
H330	H	0.715207	-0.154083	0.542821
H331	H	0.965207	0.095917	0.792821
H332	H	1.215207	0.345917	1.042821
Cl333	Cl	0.278021	-0.211328	0.392547
Cl334	Cl	0.528021	0.038672	0.642547
Cl335	Cl	0.778021	0.288672	0.892547
Cl336	Cl	1.028021	0.538672	1.142547
H337	H	0.832955	-0.374296	0.659785
H338	H	1.082955	-0.124296	0.909785
H339	H	1.332955	0.125704	1.159785
H340	H	1.582955	0.375704	1.409785
H341	H	0.978376	-0.228737	1.063439
H342	H	1.228376	0.021263	1.313439
H343	H	1.478376	0.271263	1.563439
H344	H	1.728376	0.521263	1.813439
Cl345	Cl	0.533965	-0.211378	0.392526
Cl346	Cl	0.783965	0.038622	0.642526
Cl347	Cl	1.033965	0.288622	0.892526
Cl348	Cl	1.283965	0.538622	1.142526
Cl349	Cl	0.815212	-0.391956	0.930217
Cl350	Cl	1.065212	-0.141956	1.180217
Cl351	Cl	1.315212	0.108044	1.430217
Cl352	Cl	1.565212	0.358044	1.680217
H353	H	0.144805	-0.229017	0.374774
H354	H	0.394805	0.020983	0.624774
H355	H	0.644805	0.270983	0.874774
H356	H	0.894805	0.520983	1.124774
H357	H	0.914648	-0.199102	0.861590
H358	H	1.164648	0.050898	1.111590
H359	H	1.414648	0.300898	1.361590
H360	H	1.664648	0.550898	1.611590
Cl361	Cl	0.894522	-0.428997	0.728438
Cl362	Cl	1.144522	-0.178997	0.978438
Cl363	Cl	1.394522	0.071003	1.228438
Cl364	Cl	1.644522	0.321003	1.478438
H365	H	0.346502	-0.404059	0.292832
H366	H	0.596502	-0.154059	0.542832
H367	H	0.846502	0.095941	0.792832
H368	H	1.096502	0.345941	1.042832
Cl369	Cl	0.815195	-0.392091	0.526576
Cl370	Cl	1.065195	-0.142091	0.776576
Cl371	Cl	1.315195	0.107909	1.026576
Cl372	Cl	1.565195	0.357909	1.276576
H373	H	0.667148	-0.229125	0.374747
H374	H	0.917148	0.020875	0.624747
H375	H	1.167148	0.270875	0.874747
H376	H	1.417148	0.520875	1.124747
H377	H	0.667009	-0.374295	0.229106
H378	H	0.917009	-0.124295	0.479106
H379	H	1.167009	0.125705	0.729106
H380	H	1.417009	0.375705	0.979106
Cl381	Cl	0.479821	-0.174272	0.313300
Cl382	Cl	0.729821	0.075728	0.563300
Cl383	Cl	0.979821	0.325728	0.813300
Cl384	Cl	1.229821	0.575728	1.063300
Cl385	Cl	0.130154	-0.391916	0.211375
Cl386	Cl	0.380154	-0.141916	0.461375
Cl387	Cl	0.630154	0.108084	0.711375
Cl388	Cl	0.880154	0.358084	0.961375
H389	H	0.263369	-0.374223	0.229144
H390	H	0.513369	-0.124223	0.479144
H391	H	0.763369	0.125777	0.729144
H392	H	1.013369	0.375777	0.979144
Cl393	Cl	0.533790	-0.391991	0.211348
Cl394	Cl	0.783790	-0.141991	0.461348
Cl395	Cl	1.033790	0.108009	0.711348
Cl396	Cl	1.283790	0.358009	0.961348
H397	H	0.978313	0.341148	0.229277
H398	H	1.228313	0.591148	0.479277
H399	H	1.478313	0.841148	0.729277
H400	H	1.728313	1.091148	0.979277
H401	H	0.832942	0.056186	0.374635
H402	H	1.082942	0.306186	0.624635
H403	H	1.332942	0.556186	0.874635
H404	H	1.582942	0.806186	1.124635
H405	H	0.896692	0.139312	0.404371
H406	H	1.146692	0.389312	0.654371
H407	H	1.396692	0.639312	0.904371
H408	H	1.646692	0.889312	1.154371
Cl409	Cl	0.894433	0.272511	0.429374
Cl410	Cl	1.144433	0.522511	0.679374
Cl411	Cl	1.394433	0.772511	0.929374
Cl412	Cl	1.644433	1.022511	1.179374
H413	H	0.832961	0.341116	0.374660
H414	H	1.082961	0.591116	0.624660
H415	H	1.332961	0.841116	0.874660
H416	H	1.582961	1.091116	1.124660
H417	H	0.978321	0.459859	0.229289
H418	H	1.228321	0.709859	0.479289
H419	H	1.478321	0.959859	0.729289
H420	H	1.728321	1.209859	0.979289
Cl421	Cl	0.916821	0.272508	0.174545
Cl422	Cl	1.166821	0.522508	0.424545
Cl423	Cl	1.416821	0.772508	0.674545
Cl424	Cl	1.666821	1.022508	0.924545
H425	H	0.978299	-0.062492	0.229256
H426	H	1.228299	0.187508	0.479256
H427	H	1.478299	0.437508	0.729256
H428	H	1.728299	0.687508	0.979256
H429	H	0.914556	0.139312	0.199530
H430	H	1.164556	0.389312	0.449530
H431	H	1.414556	0.639312	0.699530
H432	H	1.664556	0.889312	0.949530
Cl433	Cl	0.996040	0.070714	0.211519
Cl434	Cl	1.246040	0.320714	0.461519
Cl435	Cl	1.496040	0.570714	0.711519
Cl436	Cl	1.746040	0.820714	0.961519
H437	H	0.978370	-0.228880	0.659802
H438	H	1.228370	0.021120	0.909802
H439	H	1.478370	0.271120	1.159802
H440	H	1.728370	0.521120	1.409802
Cl441	Cl	0.996122	-0.211180	0.526608
Cl442	Cl	1.246122	0.038820	0.776608
Cl443	Cl	1.496122	0.288820	1.026608
Cl444	Cl	1.746122	0.538820	1.276608
H445	H	0.914648	-0.199142	0.742878
H446	H	1.164648	0.050858	0.992878
H447	H	1.414648	0.300858	1.242878
H448	H	1.664648	0.550858	1.492878
Cl449	Cl	0.996131	-0.211040	0.930243
Cl450	Cl	1.246131	0.038960	1.180243
Cl451	Cl	1.496131	0.288960	1.430243
Cl452	Cl	1.746131	0.538960	1.680243
