data_functionalizedCrystal
_audit_creation_method	'MofGen! by Chris Wilmer'
_symmetry_space_group_name_H-M	'P1'
_symmetry_Int_Tables_number	1
_symmetry_cell_setting	triclinic
loop_
_symmetry_equiv_pos_as_xyz
  x,y,z
_cell_length_a	13.635800
_cell_length_b	7.190339
_cell_length_c	7.076093
_cell_angle_alpha	109.695115
_cell_angle_beta	117.701465
_cell_angle_gamma	60.611724
loop_
_atom_site_label
_atom_site_type_symbol
_atom_site_fract_x
_atom_site_fract_y
_atom_site_fract_z
V1	V	-1.822569	0.291701	0.663510
O2	O	-1.774576	-0.017518	0.652431
O3	O	-1.843280	0.581760	0.657480
O4	O	-1.695237	0.285678	0.953571
O5	O	-1.923644	0.280614	0.354291
V6	V	-2.071928	0.254896	0.626707
O7	O	-1.936535	0.372435	0.744243
O8	O	-2.183061	0.174162	0.545974
O9	O	-1.939614	-0.035163	0.632737
O10	O	-2.178619	0.564115	0.637786
O11	O	-2.029551	0.265983	0.935926
O12	O	-2.087657	0.260919	0.336646
V13	V	-1.322569	0.291701	0.663510
O14	O	-1.274576	-0.017518	0.652431
O15	O	-1.343280	0.581760	0.657480
O16	O	-1.195237	0.285678	0.953571
O17	O	-1.423644	0.280614	0.354291
V18	V	-1.571928	0.254896	0.626707
O19	O	-1.436535	0.372435	0.744243
O20	O	-1.683061	0.174162	0.545974
O21	O	-1.439614	-0.035163	0.632737
O22	O	-1.678619	0.564115	0.637786
O23	O	-1.529551	0.265983	0.935926
O24	O	-1.587657	0.260919	0.336646
C25	C	-1.780048	0.652521	0.646638
C26	C	-1.838005	0.894096	0.643590
C27	C	-1.591204	0.274825	1.024318
C28	C	-1.526846	0.271761	1.265891
C29	C	-2.023363	0.271767	0.265887
C30	C	-2.077145	0.274826	0.024313
C31	C	-1.280048	0.652521	0.646638
C32	C	-1.338005	0.894096	0.643590
