data_functionalizedCrystal
_audit_creation_method	'MofGen! by Chris Wilmer'
_symmetry_space_group_name_H-M	'P1'
_symmetry_Int_Tables_number	1
_symmetry_cell_setting	triclinic
loop_
_symmetry_equiv_pos_as_xyz
  x,y,z
_cell_length_a	18.215407
_cell_length_b	19.805405
_cell_length_c	19.805399
_cell_angle_alpha	89.969291
_cell_angle_beta	89.983915
_cell_angle_gamma	90.026858
loop_
_atom_site_label
_atom_site_type_symbol
_atom_site_fract_x
_atom_site_fract_y
_atom_site_fract_z
Zn1	Zn	1.125037	-0.269461	-0.382697
Zn2	Zn	1.625037	0.230539	0.117303
Zn3	Zn	1.124950	-0.382653	-0.269505
Zn4	Zn	1.624950	0.117347	0.230495
Zn5	Zn	1.001978	-0.269484	-0.269523
Zn6	Zn	1.501978	0.230516	0.230477
Zn7	Zn	1.001932	-0.382615	-0.382654
Zn8	Zn	1.501932	0.117385	0.117346
O9	O	1.063474	-0.326053	-0.326095
O10	O	1.563474	0.173947	0.173905
O11	O	1.228010	-0.284483	-0.367693
O12	O	1.728010	0.215517	0.132307
O13	O	1.108620	-0.367666	-0.174791
O14	O	1.608620	0.132334	0.325209
O15	O	1.018357	-0.174764	-0.284562
O16	O	1.518357	0.325236	0.215438
O17	O	1.227946	-0.367644	-0.284531
O18	O	1.727946	0.132356	0.215469
O19	O	1.108768	-0.174748	-0.367710
O20	O	1.608768	0.325252	0.132290
O21	O	1.018273	-0.284521	-0.174804
O22	O	1.518273	0.215479	0.325196
O23	O	0.898987	-0.284484	-0.284520
O24	O	1.398987	0.215516	0.215480
O25	O	1.018280	-0.367579	-0.477376
O26	O	1.518280	0.132421	0.022624
O27	O	0.898954	-0.367601	-0.367636
O28	O	1.398954	0.132399	0.132364
O29	O	1.108724	-0.284446	-0.477408
O30	O	1.608724	0.215554	0.022592
O31	O	1.108576	-0.477364	-0.284489
O32	O	1.608576	0.022636	0.215511
O33	O	1.018195	-0.477336	-0.367619
O34	O	1.518195	0.022664	0.132381
C35	C	0.872268	-0.326042	-0.326075
C36	C	1.372268	0.173958	0.173925
C37	C	0.790469	-0.326053	-0.326083
C38	C	1.290469	0.173947	0.173917
C39	C	0.602277	-0.369400	-0.369308
C40	C	1.102277	0.130600	0.130692
C41	C	0.525418	-0.369402	-0.369316
C42	C	1.025418	0.130598	0.130684
C43	C	0.525423	-0.282719	-0.282897
C44	C	1.025423	0.217281	0.217103
C45	C	0.602281	-0.282714	-0.282892
C46	C	1.102281	0.217286	0.217108
C47	C	0.640706	-0.326058	-0.326097
C48	C	1.140706	0.173942	0.173903
C49	C	0.486989	-0.326065	-0.326110
C50	C	0.986989	0.173935	0.173890
C51	C	0.403656	-0.326067	-0.326119
C52	C	0.903656	0.173933	0.173881
C53	C	0.724044	-0.326055	-0.326089
C54	C	1.224044	0.173945	0.173911
C55	C	1.063391	-0.501909	-0.326062
C56	C	1.563391	-0.001909	0.173938
C57	C	1.063423	-0.577141	-0.326071
C58	C	1.563423	-0.077141	0.173929
C59	C	1.110530	-0.612477	-0.282831
C60	C	1.610530	-0.112477	0.217169
C61	C	1.110562	-0.683166	-0.282845
C62	C	1.610562	-0.183166	0.217155
C63	C	1.063482	-0.718517	-0.326098
C64	C	1.563482	-0.218517	0.173902
C65	C	1.016372	-0.683176	-0.369343
C66	C	1.516372	-0.183176	0.130657
C67	C	1.016345	-0.612488	-0.369331
C68	C	1.516345	-0.112488	0.130669
C69	C	1.016481	-0.968249	-0.369393
C70	C	1.516481	-0.468249	0.130607
C71	C	1.016510	-1.038941	-0.369400
C72	C	1.516510	-0.538941	0.130600
C73	C	1.110697	-1.038926	-0.282908
C74	C	1.610697	-0.538926	0.217092
C75	C	1.110670	-0.968239	-0.282896
C76	C	1.610670	-0.468239	0.217104
C77	C	1.063564	-0.932904	-0.326143
C78	C	1.563564	-0.432904	0.173857
C79	C	1.063532	-0.856256	-0.326127
C80	C	1.563532	-0.356256	0.173873
C81	C	1.063510	-0.795164	-0.326111
C82	C	1.563510	-0.295164	0.173889
C83	C	1.255427	-0.326065	-0.326115
C84	C	1.755427	0.173935	0.173885
C85	C	1.337226	-0.326070	-0.326123
C86	C	1.837226	0.173930	0.173877
C87	C	1.063506	-0.326006	-0.502638
C88	C	1.563506	0.173994	-0.002638
C89	C	1.063520	-0.325986	-0.577870
C90	C	1.563520	0.174014	-0.077870
C91	C	1.063577	-0.149510	-0.326143
C92	C	1.563577	0.350490	0.173857
C93	C	1.063621	-0.074278	-0.326163
C94	C	1.563621	0.425722	0.173837
C95	C	1.016490	-0.282689	-0.613220
C96	C	1.516490	0.217311	-0.113220
C97	C	1.016500	-0.282675	-0.683909
C98	C	1.516500	0.217325	-0.183909
C99	C	1.063545	-0.325957	-0.719245
C100	C	1.563545	0.174043	-0.219245
C101	C	1.110577	-0.369259	-0.683890
C102	C	1.610577	0.130741	-0.183890
C103	C	1.110563	-0.369275	-0.613203
C104	C	1.610563	0.130725	-0.113203
C105	C	1.110636	-0.369196	-0.968963
C106	C	1.610636	0.130804	-0.468963
C107	C	1.110648	-0.369175	-1.039656
C108	C	1.610648	0.130825	-0.539656
C109	C	1.016573	-0.282596	-1.039669
C110	C	1.516573	0.217404	-0.539669
C111	C	1.016558	-0.282612	-0.968982
C112	C	1.516558	0.217388	-0.468982
C113	C	1.063588	-0.325917	-0.933633
C114	C	1.563588	0.174083	-0.433633
C115	C	1.063575	-0.325931	-0.856984
C116	C	1.563575	0.174069	-0.356984
C117	C	1.063562	-0.325939	-0.795893
C118	C	1.563562	0.174061	-0.295893
C119	C	1.063484	-0.326051	-0.150239
C120	C	1.563484	0.173949	0.349761
C121	C	1.063613	-0.325880	-0.075007
C122	C	1.563613	0.174120	0.424993
H123	H	1.148920	-0.711933	-0.247634
H124	H	1.648920	-0.211933	0.252366
O125	O	0.970794	-0.240550	-0.718143
O126	O	1.470794	0.259450	-0.218143
C127	C	0.929259	-0.202361	-0.671796
C128	C	1.429259	0.297639	-0.171796
H129	H	0.959396	-0.200033	-0.621412
H130	H	1.459396	0.299967	-0.121412
H131	H	0.921448	-0.149026	-0.692236
H132	H	1.421448	0.350974	-0.192236
H133	H	0.873348	-0.227140	-0.664264
H134	H	1.373348	0.272860	-0.164264
H135	H	0.978173	-1.067722	-0.404627
H136	H	1.478173	-0.567722	0.095373
O137	O	0.970857	-0.240471	-1.073904
O138	O	1.470857	0.259529	-0.573904
C139	C	0.929321	-0.202284	-1.027556
C140	C	1.429321	0.297716	-0.527556
H141	H	0.959460	-0.199955	-0.977173
H142	H	1.459460	0.300045	-0.477173
H143	H	0.921506	-0.148950	-1.047994
H144	H	1.421506	0.351050	-0.547994
H145	H	0.873412	-0.227067	-1.020022
H146	H	1.373412	0.272933	-0.520022
O147	O	1.156370	-0.411288	-1.073878
O148	O	1.656370	0.088712	-0.573878
C149	C	1.197889	-0.449503	-1.027521
C150	C	1.697889	0.050497	-0.527521
H151	H	1.167735	-0.451858	-0.977129
H152	H	1.667735	0.048142	-0.477129
H153	H	1.205705	-0.502827	-1.047934
H154	H	1.705705	-0.002827	-0.547934
H155	H	1.253797	-0.424728	-1.020016
H156	H	1.753797	0.075272	-0.520016
H157	H	0.494133	-0.404694	-0.404504
H158	H	0.994133	0.095306	0.095496
O159	O	1.156300	-0.578066	-0.240907
O160	O	1.656300	-0.078066	0.259093
C161	C	1.203803	-0.537127	-0.279476
C162	C	1.703803	-0.037127	0.220524
H163	H	1.177807	-0.526518	-0.330745
H164	H	1.677807	-0.026518	0.169255
H165	H	1.213667	-0.487433	-0.251904
H166	H	1.713667	0.012567	0.248096
H167	H	1.258345	-0.564324	-0.286965
H168	H	1.758345	-0.064324	0.213035
H169	H	0.978252	-0.247366	-0.940214
H170	H	1.478252	0.252634	-0.440214
H171	H	1.148866	-0.404527	-0.584421
H172	H	1.648866	0.095473	-0.084421
O173	O	0.970718	-0.717484	-0.411456
O174	O	1.470718	-0.217484	0.088544
C175	C	0.986737	-0.700141	-0.478926
C176	C	1.486737	-0.200141	0.021074
H177	H	1.045520	-0.680662	-0.482389
H178	H	1.545520	-0.180662	0.017611
H179	H	0.980393	-0.746609	-0.512366
H180	H	1.480393	-0.246609	-0.012366
H181	H	0.947254	-0.659127	-0.496580
H182	H	1.447254	-0.159127	0.003420
H183	H	1.148922	-0.404464	-0.940191
H184	H	1.648922	0.095536	-0.440191
H185	H	1.148878	-0.404503	-0.712667
H186	H	1.648878	0.095497	-0.212667
H187	H	0.633560	-0.404692	-0.404489
H188	H	1.133560	0.095308	0.095511
O189	O	0.487982	-0.240681	-0.240951
O190	O	0.987982	0.259319	0.259049
C191	C	0.411905	-0.249966	-0.250232
C192	C	0.911905	0.250034	0.249768
H193	H	0.401393	-0.302230	-0.272303
H194	H	0.901393	0.197770	0.227697
H195	H	0.382678	-0.245309	-0.199543
H196	H	0.882678	0.254691	0.300457
H197	H	0.390127	-0.209867	-0.286352
H198	H	0.890127	0.290133	0.213648
H199	H	0.633570	-0.247415	-0.247705
H200	H	1.133570	0.252585	0.252295
O201	O	0.970684	-0.933853	-0.411301
O202	O	1.470684	-0.433853	0.088699
C203	C	0.923154	-0.893039	-0.372715
C204	C	1.423154	-0.393039	0.127285
H205	H	0.949144	-0.882467	-0.321443
H206	H	1.449144	-0.382467	0.178557
H207	H	0.913252	-0.843320	-0.400268
H208	H	1.413252	-0.343320	0.099732
H209	H	0.868632	-0.920327	-0.365234
H210	H	1.368632	-0.420327	0.134766
H211	H	1.149004	-0.939458	-0.247673
H212	H	1.649004	-0.439458	0.252327
H213	H	1.149056	-1.067704	-0.247696
H214	H	1.649056	-0.567704	0.252304
H215	H	0.977987	-0.583718	-0.404542
H216	H	1.477987	-0.083718	0.095458
H217	H	0.978184	-0.247440	-0.584454
H218	H	1.478184	0.252560	-0.084454
