data_functionalizedCrystal
_audit_creation_method	'MofGen! by Chris Wilmer'
_symmetry_space_group_name_H-M	'P1'
_symmetry_Int_Tables_number	1
_symmetry_cell_setting	triclinic
loop_
_symmetry_equiv_pos_as_xyz
  x,y,z
_cell_length_a	14.044191
_cell_length_b	14.044190
_cell_length_c	10.065875
_cell_angle_alpha	99.589132
_cell_angle_beta	80.446775
_cell_angle_gamma	93.191777
loop_
_atom_site_label
_atom_site_type_symbol
_atom_site_fract_x
_atom_site_fract_y
_atom_site_fract_z
O1	O	1.289956	0.217353	-0.113453
O2	O	1.623289	0.550687	0.219880
O3	O	1.956622	0.884020	0.553213
O4	O	1.013285	0.209039	-0.113470
O5	O	1.346618	0.542372	0.219864
O6	O	1.679951	0.875705	0.553197
O7	O	1.147461	0.074863	-0.113435
O8	O	1.480794	0.408196	0.219899
O9	O	1.814127	0.741529	0.553232
O10	O	1.155780	0.351529	-0.113488
O11	O	1.489113	0.684863	0.219845
O12	O	1.822446	1.018196	0.553179
O13	O	1.121885	0.100560	0.113547
O14	O	1.455218	0.433894	0.446881
O15	O	1.788551	0.767227	0.780214
O16	O	0.987709	0.234736	0.113513
O17	O	1.321042	0.568070	0.446846
O18	O	1.654375	0.901403	0.780179
O19	O	1.264380	0.243051	0.113529
O20	O	1.597713	0.576384	0.446862
O21	O	1.931046	0.909718	0.780195
Zn22	Zn	1.121983	0.242974	0.149559
Zn23	Zn	1.455317	0.576307	0.482892
Zn24	Zn	1.788650	0.909640	0.816226
Zn25	Zn	1.155681	0.209116	-0.149500
Zn26	Zn	1.489014	0.542449	0.183834
Zn27	Zn	1.822348	0.875783	0.517167
O28	O	1.130203	0.377227	0.113494
O29	O	1.463537	0.710560	0.446827
O30	O	1.796870	1.043894	0.780161
C31	C	0.964875	0.218251	0.000020
C32	C	1.298208	0.551584	0.333353
C33	C	1.631542	0.884918	0.666686
C34	C	0.858732	0.207403	0.000015
C35	C	1.192065	0.540736	0.333348
C36	C	1.525399	0.874070	0.666681
C37	C	1.131036	0.052090	0.000060
C38	C	1.464369	0.385423	0.333393
C39	C	1.797702	0.718757	0.666727
C40	C	1.120187	-0.054052	0.000071
C41	C	1.453521	0.279281	0.333405
C42	C	1.786854	0.612614	0.666738
C43	C	0.613275	0.264504	0.000017
C44	C	0.946608	0.597837	0.333351
C45	C	1.279941	0.931171	0.666684
C46	C	0.664397	0.187589	0.000030
C47	C	0.997730	0.520922	0.333363
C48	C	1.331064	0.854255	0.666697
C49	C	0.772535	0.198616	0.000021
C50	C	1.105868	0.531949	0.333355
C51	C	1.439202	0.865283	0.666688
C52	C	0.505127	0.253478	0.000026
C53	C	0.838460	0.586811	0.333359
C54	C	1.171793	0.920145	0.666692
C55	C	1.177293	-0.299515	0.000021
C56	C	1.510627	0.033818	0.333354
C57	C	1.843960	0.367152	0.666688
C58	C	1.100376	-0.248391	0.000026
C59	C	1.433710	0.084943	0.333359
C60	C	1.767043	0.418276	0.666693
C61	C	1.111402	-0.140251	0.000051
C62	C	1.444735	0.193083	0.333385
C63	C	1.778068	0.526416	0.666718
C64	C	1.166270	-0.407665	-0.000004
C65	C	1.499603	-0.074331	0.333329
C66	C	1.832936	0.259002	0.666663
C67	C	1.312790	0.233839	0.000036
C68	C	1.646123	0.567172	0.333370
C69	C	1.979456	0.900505	0.666703
C70	C	1.418934	0.244685	0.000032
C71	C	1.752267	0.578019	0.333366
C72	C	2.085600	0.911352	0.666699
C73	C	1.146629	0.399999	-0.000004
C74	C	1.479962	0.733333	0.333330
C75	C	1.813295	1.066666	0.666663
C76	C	1.157478	0.506141	-0.000024
C77	C	1.490812	0.839474	0.333309
C78	C	1.824145	1.172807	0.666643
N79	N	1.098993	0.266081	0.353659
N80	N	1.432326	0.599414	0.686992
N81	N	1.765659	0.932748	1.020325
N82	N	1.178679	0.186002	-0.353599
N83	N	1.512012	0.519335	-0.020266
N84	N	1.845345	0.852669	0.313067
C85	C	1.147675	0.217149	0.421450
C86	C	1.481009	0.550482	0.754783
C87	C	1.814342	0.883816	1.088117
C88	C	1.129989	0.234941	0.578613
C89	C	1.463322	0.568274	0.911946
C90	C	1.796656	0.901608	1.245279
H91	H	0.626961	0.113447	-0.000052
H92	H	0.960294	0.446780	0.333281
H93	H	1.293627	0.780113	0.666615
O94	O	1.057447	0.307906	0.655826
O95	O	1.390781	0.641239	0.989160
O96	O	1.724114	0.974573	1.322493
H97	H	0.985007	0.286548	0.628514
H98	H	1.318340	0.619881	0.961848
H99	H	1.651673	0.953215	1.295181
O100	O	0.662869	0.362695	-0.000005
O101	O	0.996202	0.696029	0.333328
O102	O	1.329535	1.029362	0.666662
H103	H	0.652279	0.391546	-0.092523
H104	H	0.985612	0.724879	0.240810
H105	H	1.318945	1.058213	0.574143
H106	H	1.026245	-0.285838	0.000014
H107	H	1.359578	0.047496	0.333347
H108	H	1.692912	0.380829	0.666681
H109	H	1.233451	0.130930	0.588094
H110	H	1.566785	0.464264	0.921427
H111	H	1.900118	0.797597	1.254761
H112	H	1.251418	-0.262070	0.000040
H113	H	1.584752	0.071264	0.333373
H114	H	1.918085	0.404597	0.666706
O115	O	1.220202	0.144177	0.344228
O116	O	1.553535	0.477511	0.677561
O117	O	1.886868	0.810844	1.010895
H118	H	1.222701	0.141643	0.232904
H119	H	1.556034	0.474976	0.566238
H120	H	1.889367	0.808310	0.899571
O121	O	1.026440	0.339027	0.430881
O122	O	1.359774	0.672360	0.764214
O123	O	1.693107	1.005694	1.097547
H124	H	1.023940	0.341561	0.542204
H125	H	1.357274	0.674894	0.875538
H126	H	1.690607	1.008227	1.208871
