data_functionalizedCrystal
_audit_creation_method	'MofGen! by Chris Wilmer'
_symmetry_space_group_name_H-M	'P1'
_symmetry_Int_Tables_number	1
_symmetry_cell_setting	triclinic
loop_
_symmetry_equiv_pos_as_xyz
  x,y,z
_cell_length_a	14.519709
_cell_length_b	14.519709
_cell_length_c	13.596369
_cell_angle_alpha	90.000816
_cell_angle_beta	90.000208
_cell_angle_gamma	83.680144
loop_
_atom_site_label
_atom_site_type_symbol
_atom_site_fract_x
_atom_site_fract_y
_atom_site_fract_z
O1	O	-0.120893	-1.223868	0.081637
O2	O	-0.135129	-0.955392	0.081668
O3	O	0.006227	-1.096748	0.081661
O4	O	-0.262249	-1.082512	0.081645
O5	O	0.006235	-1.096734	-0.081922
O6	O	-0.135122	-0.955377	-0.081914
O7	O	-0.120885	-1.223854	-0.081946
Zn8	Zn	-0.128002	-1.089614	-0.107902
Zn9	Zn	-0.128012	-1.089632	0.107625
O10	O	-0.262242	-1.082498	-0.081938
C11	C	-0.134462	-0.921025	-0.000119
C12	C	-0.132474	-0.818643	-0.000106
C13	C	-0.125154	-0.443748	-0.000147
C14	C	-0.127187	-0.548056	-0.000135
C15	C	-0.128814	-0.631192	-0.000126
C16	C	-0.130847	-0.735507	-0.000116
C17	C	-0.296605	-1.083168	-0.000149
C18	C	-0.398987	-1.085156	-0.000156
C19	C	-0.773883	-1.092476	-0.000118
C20	C	-0.669575	-1.090443	-0.000129
C21	C	-0.586438	-1.088816	-0.000138
C22	C	-0.482123	-1.086783	-0.000147
C23	C	0.040591	-1.096078	-0.000126
C24	C	0.142972	-1.094090	-0.000113
N25	N	-0.127995	-1.089608	-0.254994
C26	C	-0.121553	-0.258221	-0.000154
C27	C	-0.123541	-0.360602	-0.000152
C28	C	-0.128013	-1.089631	-0.656285
C29	C	-0.128011	-1.089622	-0.544634
C30	C	-0.128005	-1.089620	-0.455643
C31	C	-0.128001	-1.089610	-0.343985
N32	N	-0.128012	-1.089645	0.254717
