data_functionalizedCrystal
_audit_creation_method	'MofGen! by Chris Wilmer'
_symmetry_space_group_name_H-M	'P1'
_symmetry_Int_Tables_number	1
_symmetry_cell_setting	triclinic
loop_
_symmetry_equiv_pos_as_xyz
  x,y,z
_cell_length_a	21.395362
_cell_length_b	12.645330
_cell_length_c	21.395355
_cell_angle_alpha	90.012330
_cell_angle_beta	90.043940
_cell_angle_gamma	90.033572
loop_
_atom_site_label
_atom_site_type_symbol
_atom_site_fract_x
_atom_site_fract_y
_atom_site_fract_z
Zn1	Zn	0.957916	-0.421713	0.354613
Zn2	Zn	0.957842	-0.598962	0.249846
Zn3	Zn	0.853131	-0.421762	0.249814
Zn4	Zn	0.853124	-0.598984	0.354551
O5	O	0.905503	-0.510355	0.302206
O6	O	1.045584	-0.445196	0.340754
O7	O	0.943924	-0.575468	0.162164
O8	O	0.867065	-0.273408	0.263728
O9	O	1.045530	-0.575420	0.263783
O10	O	0.944050	-0.273372	0.340723
O11	O	0.866993	-0.445280	0.162140
O12	O	0.765452	-0.445301	0.263668
O13	O	0.867053	-0.575457	0.442237
O14	O	0.765447	-0.575505	0.340618
O15	O	0.944043	-0.445217	0.442282
O16	O	0.943918	-0.747312	0.263724
O17	O	0.866981	-0.747328	0.340650
C18	C	0.742716	-0.510411	0.302133
C19	C	0.673074	-0.510461	0.302117
C20	C	0.640375	-0.578348	0.342125
C21	C	0.574940	-0.578322	0.342153
C22	C	0.542206	-0.510420	0.302162
C23	C	0.574913	-0.442520	0.262151
C24	C	0.640348	-0.442540	0.262129
C25	C	0.438480	-0.501880	0.245756
C26	C	0.373047	-0.501867	0.245777
C27	C	0.340386	-0.510351	0.302231
C28	C	0.373165	-0.518870	0.358665
C29	C	0.438599	-0.518890	0.358643
C30	C	0.471254	-0.510390	0.302182
C31	C	0.236734	-0.578213	0.342272
C32	C	0.171297	-0.578180	0.342301
C33	C	0.171272	-0.442383	0.262294
C34	C	0.236707	-0.442411	0.262271
C35	C	0.269434	-0.510332	0.302259
C36	C	0.905458	-0.785785	0.302197
C37	C	0.905495	-0.903615	0.302214
C38	C	0.857295	-1.071233	0.350758
C39	C	0.857048	-0.948674	0.350602
C40	C	0.887617	-0.948193	0.236177
C41	C	0.887323	-1.070792	0.236472
C42	C	0.971870	-1.070679	0.319173
C43	C	0.971463	-0.948073	0.320616
C44	C	1.068927	-0.510300	0.302279
C45	C	1.138568	-0.510276	0.302311
C46	C	0.905555	-0.510334	0.465629
C47	C	0.905578	-0.510325	0.535271
C48	C	0.905566	-0.233850	0.302228
C49	C	0.905593	-0.116020	0.302238
C50	C	0.905488	-0.510300	0.139418
C51	C	0.905587	-0.510011	0.069778
C52	C	0.945665	-0.442506	0.568008
C53	C	0.945664	-0.442460	0.633444
C54	C	0.905582	-0.510252	0.666139
C55	C	0.865488	-0.578076	0.633393
C56	C	0.865485	-0.578112	0.567959
C57	C	0.900619	-0.605707	0.769809
C58	C	0.900626	-0.605673	0.835242
C59	C	0.905586	-0.510140	0.867960
C60	C	0.910553	-0.414639	0.835237
C61	C	0.910550	-0.414676	0.769803
C62	C	0.905580	-0.510220	0.737091
C63	C	0.945675	-0.442266	0.971650
C64	C	0.945669	-0.442219	1.037087
C65	C	0.865496	-0.577844	1.037035
C66	C	0.865498	-0.577882	0.971600
C67	C	0.905591	-0.510095	0.938911
H68	H	0.667017	-0.633653	0.374688
H69	H	0.984945	-0.918934	0.369216
C70	C	0.872155	-0.907944	0.416748
H71	H	0.872026	-0.832815	0.416740
H72	H	0.841549	-0.933152	0.445236
H73	H	0.912218	-0.932730	0.429071
H74	H	0.832859	-0.633114	0.944945
C75	C	0.474402	-0.492489	0.183656
H76	H	0.445510	-0.487410	0.150051
H77	H	0.499945	-0.431036	0.184544
H78	H	0.499906	-0.553225	0.178060
C79	C	0.989763	-0.367687	0.935690
H80	H	1.013630	-0.327275	0.964562
H81	H	1.017055	-0.408235	0.910185
H82	H	0.965796	-0.321521	0.910145
H83	H	0.896586	-0.683435	0.861880
C84	C	0.538963	-0.652939	0.386200
H85	H	0.567826	-0.693376	0.410021
H86	H	0.513504	-0.612390	0.413536
H87	H	0.513371	-0.699082	0.362222
H88	H	0.920975	-1.100419	0.199087
H89	H	0.832838	-0.633337	0.541305
H90	H	0.921680	-0.919005	0.199037
C91	C	0.872259	-1.110981	0.417125
H92	H	0.842579	-1.083057	0.445704
H93	H	0.870442	-1.186030	0.417869
H94	H	0.912991	-1.088361	0.428753
H95	H	0.896413	-0.683481	0.743176
C96	C	0.135273	-0.367679	0.218312
H97	H	0.091619	-0.377389	0.224055
H98	H	0.146045	-0.296483	0.227555
H99	H	0.145938	-0.383088	0.176190
C100	C	0.791332	-1.112999	0.335801
H101	H	0.762440	-1.085568	0.365339
H102	H	0.779576	-1.091166	0.294974
H103	H	0.791286	-1.188043	0.337876
C104	C	0.989757	-0.367933	0.532051
H105	H	0.984018	-0.377670	0.488391
H106	H	0.980604	-0.296705	0.542766
H107	H	1.031854	-0.383435	0.542806
H108	H	0.465285	-0.525824	0.404593
C109	C	0.337246	-0.528199	0.420768
H110	H	0.293581	-0.526954	0.412702
H111	H	0.347960	-0.592788	0.440735
H112	H	0.348029	-0.470593	0.447175
H113	H	0.144674	-0.633460	0.374884
H114	H	0.263381	-0.633513	0.374837
H115	H	0.839674	-0.917599	0.221575
C116	C	1.022636	-0.906650	0.276349
H117	H	1.004358	-0.861502	0.245927
H118	H	1.052850	-0.868278	0.299720
H119	H	1.042264	-0.964626	0.256074
H120	H	1.007853	-1.099637	0.283834
C121	C	0.272679	-0.367748	0.218253
H122	H	0.243814	-0.327310	0.194435
H123	H	0.298254	-0.321625	0.242255
H124	H	0.298153	-0.408252	0.190903
C125	C	0.989768	-0.367615	1.073098
H126	H	1.013648	-0.327259	1.044256
H127	H	0.965815	-0.321413	1.098603
H128	H	1.017058	-0.408155	1.098647
C129	C	0.821402	-0.652650	0.669355
H130	H	0.827150	-0.642925	0.713015
H131	H	0.779307	-0.637160	0.658603
H132	H	0.830560	-0.723883	0.658641
H133	H	0.988178	-1.101533	0.366510
H134	H	0.838874	-1.099500	0.222129
H135	H	0.346364	-0.494937	0.199825
C136	C	0.821412	-0.652422	1.072992
H137	H	0.827157	-0.642694	1.116652
H138	H	0.779316	-0.636937	1.062238
H139	H	0.830574	-0.723653	1.062278
C140	C	0.538910	-0.367830	0.218162
H141	H	0.495256	-0.377547	0.223901
H142	H	0.549675	-0.296629	0.227400
H143	H	0.549581	-0.383247	0.176043
H144	H	0.807914	-0.919458	0.339381
C145	C	0.676318	-0.367867	0.218115
H146	H	0.647454	-0.327425	0.194298
H147	H	0.701895	-0.321749	0.242118
H148	H	0.701792	-0.408369	0.190762
C149	C	0.989766	-0.367865	0.669463
H150	H	1.013646	-0.327505	0.640623
H151	H	0.965816	-0.321667	0.694972
H152	H	1.017056	-0.408413	0.695007
H153	H	0.914593	-0.336915	0.743162
H154	H	0.914593	-0.336848	0.861874
