data_functionalizedCrystal
_audit_creation_method	'MofGen! by Chris Wilmer'
_symmetry_space_group_name_H-M	'P1'
_symmetry_Int_Tables_number	1
_symmetry_cell_setting	triclinic
loop_
_symmetry_equiv_pos_as_xyz
  x,y,z
_cell_length_a	21.295418
_cell_length_b	21.295417
_cell_length_c	12.759393
_cell_angle_alpha	89.960626
_cell_angle_beta	89.960238
_cell_angle_gamma	90.046319
loop_
_atom_site_label
_atom_site_type_symbol
_atom_site_fract_x
_atom_site_fract_y
_atom_site_fract_z
Zn1	Zn	0.962331	-0.250305	-0.594554
Zn2	Zn	1.462331	0.249695	-0.094554
Zn3	Zn	0.962241	-0.355589	-0.418850
Zn4	Zn	1.462241	0.144411	0.081150
Zn5	Zn	0.857062	-0.250367	-0.418824
Zn6	Zn	1.357062	0.249633	0.081176
Zn7	Zn	0.857024	-0.355569	-0.594423
Zn8	Zn	1.357024	0.144431	-0.094423
O9	O	0.909664	-0.302958	-0.506663
O10	O	1.409664	0.197042	-0.006663
O11	O	1.050409	-0.264254	-0.571312
O12	O	1.550409	0.235746	-0.071312
O13	O	0.948267	-0.341666	-0.271826
O14	O	1.448267	0.158334	0.228174
O15	O	0.871079	-0.162269	-0.442179
O16	O	1.371079	0.337731	0.057821
O17	O	1.050342	-0.341606	-0.442223
O18	O	1.550342	0.158394	0.057777
O19	O	0.948421	-0.162224	-0.571286
O20	O	1.448421	0.337776	-0.071286
O21	O	0.870992	-0.264359	-0.271807
O22	O	1.370992	0.235641	0.228193
O23	O	0.768967	-0.264340	-0.442052
O24	O	1.268967	0.235660	0.057948
O25	O	0.871015	-0.341571	-0.741462
O26	O	1.371015	0.158429	-0.241462
O27	O	0.768939	-0.341632	-0.571064
O28	O	1.268939	0.158368	-0.071064
O29	O	0.948384	-0.264234	-0.741557
O30	O	1.448384	0.235766	-0.241557
O31	O	0.948230	-0.443676	-0.442097
O32	O	1.448230	0.056324	0.057903
O33	O	0.870927	-0.443661	-0.571089
O34	O	1.370927	0.056339	-0.071089
C35	C	0.746113	-0.302991	-0.506542
C36	C	1.246113	0.197009	-0.006542
C37	C	0.676145	-0.303020	-0.506515
C38	C	1.176145	0.196980	-0.006515
C39	C	0.643280	-0.343319	-0.573591
C40	C	1.143280	0.156681	-0.073591
C41	C	0.577537	-0.343304	-0.573638
C42	C	1.077537	0.156696	-0.073638
C43	C	0.544662	-0.302996	-0.506591
C44	C	1.044662	0.197004	-0.006591
C45	C	0.577535	-0.262689	-0.439510
C46	C	1.077535	0.237311	0.060490
C47	C	0.643276	-0.262701	-0.439472
C48	C	1.143276	0.237299	0.060528
N49	N	0.441390	-0.298086	-0.414700
N50	N	0.941390	0.201914	0.085300
N51	N	0.378938	-0.298078	-0.414738
N52	N	0.878938	0.201922	0.085262
C53	C	0.346587	-0.302956	-0.506702
C54	C	0.846587	0.197044	-0.006702
N55	N	0.379047	-0.307854	-0.598627
N56	N	0.879047	0.192146	-0.098627
N57	N	0.441504	-0.307865	-0.598587
N58	N	0.941504	0.192135	-0.098587
C59	C	0.473377	-0.302978	-0.506625
C60	C	0.973377	0.197022	-0.006625
C61	C	0.242437	-0.343240	-0.573835
C62	C	0.742437	0.156760	-0.073835
C63	C	0.176694	-0.343220	-0.573884
C64	C	0.676694	0.156780	-0.073884
C65	C	0.176692	-0.262608	-0.439746
C66	C	0.676692	0.237392	0.060254
C67	C	0.242435	-0.262625	-0.439707
C68	C	0.742435	0.237375	0.060293
C69	C	0.275303	-0.302944	-0.506750
C70	C	0.775303	0.197056	-0.006750
C71	C	0.909582	-0.466509	-0.506605
C72	C	1.409582	0.033491	-0.006605
C73	C	0.909604	-0.536477	-0.506615
C74	C	1.409604	-0.036477	-0.006615
C75	C	0.949891	-0.569331	-0.439517
C76	C	1.449891	-0.069331	0.060483
C77	C	0.949921	-0.635073	-0.439541
C78	C	1.449921	-0.135073	0.060459
C79	C	0.909652	-0.667960	-0.506651
C80	C	1.409652	-0.167960	-0.006651
C81	C	0.869362	-0.635099	-0.573762
C82	C	1.369362	-0.135099	-0.073762
C83	C	0.869338	-0.569357	-0.573744
C84	C	1.369338	-0.069357	-0.073744
N85	N	0.854584	-0.771240	-0.514620
N86	N	1.354584	-0.271240	-0.014620
N87	N	0.854609	-0.833692	-0.514631
N88	N	1.354609	-0.333692	-0.014631
C89	C	0.909722	-0.866035	-0.506711
C90	C	1.409722	-0.366035	-0.006711
N91	N	0.964812	-0.833567	-0.498760
N92	N	1.464812	-0.333567	0.001240
N93	N	0.964786	-0.771110	-0.498743
N94	N	1.464786	-0.271110	0.001257
C95	C	0.909674	-0.739245	-0.506679
C96	C	1.409674	-0.239245	-0.006679
C97	C	0.950045	-0.970174	-0.439636
C98	C	1.450045	-0.470174	0.060364
C99	C	0.950076	-1.035917	-0.439667
C100	C	1.450076	-0.535917	0.060333
C101	C	0.869511	-1.035941	-0.573882
C102	C	1.369511	-0.535941	-0.073882
C103	C	0.869486	-0.970199	-0.573857
C104	C	1.369486	-0.470199	-0.073857
C105	C	0.909752	-0.937319	-0.506728
C106	C	1.409752	-0.437319	-0.006728
C107	C	1.073855	-0.302925	-0.506785
C108	C	1.573855	0.197075	-0.006785
C109	C	1.143823	-0.302911	-0.506837
C110	C	1.643823	0.197089	-0.006837
C111	C	0.909705	-0.302894	-0.780696
C112	C	1.409705	0.197106	-0.280696
C113	C	0.909723	-0.302866	-0.897473
C114	C	1.409723	0.197134	-0.397473
C115	C	0.909764	-0.138767	-0.506744
C116	C	1.409764	0.361233	-0.006744
C117	C	0.909807	-0.068799	-0.506779
C118	C	1.409807	0.431201	-0.006779
C119	C	0.869503	-0.262605	-0.952331
C120	C	1.369503	0.237395	-0.452331
C121	C	0.869522	-0.262587	-1.062055
C122	C	1.369522	0.237413	-0.562055
C123	C	0.949986	-0.343091	-1.062054
C124	C	1.449986	0.156909	-0.562054
C125	C	0.949963	-0.343113	-0.952331
C126	C	1.449963	0.156887	-0.452331
C127	C	0.829262	-0.222359	-0.897473
C128	C	1.329262	0.277641	-0.397473
C129	C	0.789039	-0.182094	-0.952331
C130	C	1.289039	0.317906	-0.452331
C131	C	0.789058	-0.182075	-1.062055
C132	C	1.289058	0.317925	-0.562055
C133	C	0.829300	-0.222321	-1.116921
C134	C	1.329300	0.277679	-0.616921
C135	C	0.909660	-0.302976	-0.233695
C136	C	1.409660	0.197024	0.266305
C137	C	0.909764	-0.302826	-0.116919
C138	C	1.409764	0.197174	0.383081
H139	H	0.269193	-0.229812	-0.385081
H140	H	0.769193	0.270188	0.114919
H141	H	0.149926	-0.229786	-0.385160
H142	H	0.649926	0.270214	0.114840
H143	H	0.670037	-0.376149	-0.628184
H144	H	1.170037	0.123851	-0.128184
H145	H	0.550774	-0.376120	-0.628263
H146	H	1.050774	0.123880	-0.128263
H147	H	0.550763	-0.229869	-0.384921
H148	H	1.050763	0.270131	0.115079
H149	H	0.670034	-0.229883	-0.384851
H150	H	1.170034	0.270117	0.115149
Cl151	Cl	0.818891	-1.077278	-0.658258
Cl152	Cl	1.318891	-0.577278	-0.158258
Cl153	Cl	0.818833	-0.928895	-0.658208
Cl154	Cl	1.318833	-0.428895	-0.158208
H155	H	0.829311	-0.222304	-1.206266
H156	H	1.329311	0.277696	-0.706266
Cl157	Cl	0.818741	-0.676441	-0.658134
Cl158	Cl	1.318741	-0.176441	-0.158134
H159	H	0.756303	-0.149294	-1.106718
H160	H	1.256303	0.350706	-0.606718
Cl161	Cl	0.283761	-0.393922	-0.658122
Cl162	Cl	0.783761	0.106078	-0.158122
H163	H	0.982750	-0.375856	-1.106734
H164	H	1.482750	0.124144	-0.606734
Cl165	Cl	0.135377	-0.393883	-0.658222
Cl166	Cl	0.635377	0.106117	-0.158222
Cl167	Cl	1.000521	-0.528000	-0.355142
Cl168	Cl	1.500521	-0.028000	0.144858
Cl169	Cl	0.738451	-0.131504	-0.883359
Cl170	Cl	1.238451	0.368496	-0.383359
H171	H	0.982886	-1.062665	-0.385030
H172	H	1.482886	-0.562665	0.114970
H173	H	0.982722	-0.375888	-0.907665
H174	H	1.482722	0.124112	-0.407665
Cl175	Cl	0.829238	-0.222377	-0.759534
Cl176	Cl	1.329238	0.277623	-0.259534
H177	H	0.982730	-0.661828	-0.384902
H178	H	1.482730	-0.161828	0.115098
Cl179	Cl	1.000664	-0.928836	-0.355247
Cl180	Cl	1.500664	-0.428836	0.144753
H181	H	0.836531	-0.542608	-0.628384
H182	H	1.336531	-0.042608	-0.128384
