data_functionalizedCrystal
_audit_creation_method	'MofGen! by Chris Wilmer'
_symmetry_space_group_name_H-M	'P1'
_symmetry_Int_Tables_number	1
_symmetry_cell_setting	triclinic
loop_
_symmetry_equiv_pos_as_xyz
  x,y,z
_cell_length_a	16.992694
_cell_length_b	15.455438
_cell_length_c	16.974813
_cell_angle_alpha	96.320491
_cell_angle_beta	87.024634
_cell_angle_gamma	87.147035
loop_
_atom_site_label
_atom_site_type_symbol
_atom_site_fract_x
_atom_site_fract_y
_atom_site_fract_z
O1	O	1.036212	0.084052	0.171425
O2	O	0.807933	0.083948	0.169581
O3	O	0.928821	0.075919	0.055439
O4	O	0.915324	0.092082	0.285568
O5	O	0.935696	-0.068798	0.048933
O6	O	0.814808	-0.060769	0.163076
O7	O	1.043087	-0.060665	0.164920
Cu8	Cu	0.929575	-0.073930	0.163404
Cu9	Cu	0.921445	0.097214	0.171097
O10	O	0.922199	-0.052635	0.279062
C11	C	0.782169	0.011427	0.163955
C12	C	0.695155	0.010939	0.156874
C13	C	0.931873	0.001485	0.022604
C14	C	0.930715	-0.004700	-0.065543
C15	C	0.644613	0.015738	0.225205
C16	C	0.562856	0.015258	0.218545
C17	C	0.531643	0.009986	0.143554
C18	C	0.582192	0.005184	0.075218
C19	C	0.663947	0.005658	0.081878
C20	C	0.288168	0.008024	0.115951
C21	C	0.206407	0.007554	0.109296
C22	C	0.187077	0.017626	0.252625
C23	C	0.268834	0.018104	0.259278
C24	C	0.319376	0.013298	0.190942
N25	N	0.448075	0.009498	0.136745
N26	N	0.402943	0.013779	0.197751
C27	C	1.068851	0.011859	0.170546
C28	C	1.155864	0.012352	0.177628
N29	N	0.935300	-0.194304	0.157992
C30	C	0.883933	-0.236310	0.206464
C31	C	0.888285	-0.327404	0.202370
C32	C	0.944000	-0.376491	0.149800
C33	C	0.995372	-0.334479	0.101327
C34	C	0.991024	-0.243386	0.105425
C35	C	0.962750	-0.649308	0.132128
C36	C	0.967093	-0.740407	0.128031
C37	C	0.860006	-0.733325	0.229076
C38	C	0.855660	-0.642231	0.233167
C39	C	0.907034	-0.600227	0.184696
N40	N	0.948448	-0.469604	0.145612
N41	N	0.902590	-0.507116	0.188889
N42	N	0.915726	0.217587	0.176503
C43	C	0.926425	0.071279	-0.103403
C44	C	0.925332	0.065465	-0.186226
C45	C	0.928535	-0.016329	-0.231187
C46	C	0.932823	-0.092314	-0.193321
C47	C	0.933910	-0.086499	-0.110499
C48	C	0.925680	-0.042179	-0.479268
C49	C	0.924595	-0.047988	-0.562095
C50	C	0.917102	0.109792	-0.554995
C51	C	0.918195	0.115599	-0.472172
C52	C	0.922478	0.039615	-0.434313
N53	N	0.927420	-0.022274	-0.315846
N54	N	0.923587	0.045560	-0.349655
C55	C	0.919147	0.021801	0.311897
C56	C	0.920305	0.027991	0.400044
H57	H	0.670020	0.020031	0.286271
C58	C	0.922902	0.161253	-0.053953
H59	H	0.920183	0.205670	-0.088366
H60	H	0.968879	0.166577	-0.024648
H61	H	0.877454	0.167026	-0.018347
C62	C	0.831781	-0.373611	0.255684
H63	H	0.842355	-0.434892	0.245723
H64	H	0.778795	-0.359532	0.244391
H65	H	0.839346	-0.354923	0.309839
H66	H	0.921842	0.127335	-0.217048
H67	H	0.915588	0.182204	-0.435570
H68	H	0.935426	-0.158912	-0.229934
H69	H	0.810292	-0.602266	0.275973
H70	H	0.294241	0.022407	0.320345
C71	C	0.172070	0.001747	0.026804
H72	H	0.116140	0.002163	0.032629
H73	H	0.191841	-0.050712	-0.003815
H74	H	0.187035	0.050225	0.000715
C75	C	0.507263	0.020539	0.293710
H76	H	0.537561	0.023758	0.339326
H77	H	0.477374	-0.029902	0.291828
H78	H	0.472563	0.071035	0.296357
H79	H	0.929184	-0.104051	-0.448454
H80	H	0.818180	-0.767533	0.268539
C81	C	1.019252	-0.603115	0.078805
H82	H	1.053048	-0.645399	0.046903
H83	H	1.050061	-0.565425	0.111019
H84	H	0.989502	-0.570031	0.045578
C85	C	0.912380	0.193367	-0.596641
H86	H	0.912184	0.178193	-0.652405
H87	H	0.956726	0.226511	-0.584762
H88	H	0.865301	0.226954	-0.578456
C89	C	1.028380	-0.794402	0.070200
H90	H	1.058358	-0.756340	0.041923
H91	H	1.002023	-0.832381	0.033780
H92	H	1.062577	-0.827787	0.099225
H93	H	1.040740	-0.374451	0.058526
C94	C	0.938631	-0.170075	-0.068852
H95	H	0.940389	-0.219622	-0.107490
H96	H	0.893501	-0.170859	-0.033540
H97	H	0.984926	-0.171314	-0.039843
C98	C	0.131484	0.022908	0.327790
H99	H	0.161783	0.026122	0.373405
H100	H	0.101592	-0.027532	0.325907
H101	H	0.096787	0.073406	0.330439
C102	C	0.343754	0.002744	0.040784
H103	H	0.313452	-0.000455	-0.004829
H104	H	0.378452	-0.047748	0.038132
H105	H	0.373643	0.053190	0.042669
C106	C	0.547859	-0.000613	-0.007271
H107	H	0.491930	-0.000199	-0.001452
H108	H	0.567633	-0.053069	-0.037894
H109	H	0.562827	0.047869	-0.033353
H110	H	0.705099	0.001751	0.026235
H111	H	0.838561	-0.196349	0.249268
C112	C	0.928109	-0.137965	-0.611551
H113	H	0.930807	-0.182386	-0.577141
H114	H	0.973550	-0.143744	-0.647159
H115	H	0.882124	-0.143275	-0.640854
H116	H	1.032853	-0.209187	0.065956
