data_functionalizedCrystal
_audit_creation_method	'MofGen! by Chris Wilmer'
_symmetry_space_group_name_H-M	'P1'
_symmetry_Int_Tables_number	1
_symmetry_cell_setting	triclinic
loop_
_symmetry_equiv_pos_as_xyz
  x,y,z
_cell_length_a	17.038272
_cell_length_b	10.723024
_cell_length_c	9.198806
_cell_angle_alpha	90.002012
_cell_angle_beta	90.001650
_cell_angle_gamma	92.210287
loop_
_atom_site_label
_atom_site_type_symbol
_atom_site_fract_x
_atom_site_fract_y
_atom_site_fract_z
O1	O	1.038865	-0.271121	-0.120705
O2	O	0.811211	-0.266816	-0.120747
O3	O	0.930289	-0.087878	-0.120720
O4	O	0.919787	-0.450059	-0.120732
O5	O	0.930279	-0.087877	0.121065
O6	O	0.811201	-0.266815	0.121038
O7	O	1.038856	-0.271120	0.121081
Cu8	Cu	0.925027	-0.268967	0.143136
Cu9	Cu	0.925039	-0.268969	-0.142803
O10	O	0.919777	-0.450058	0.121053
C11	C	0.782056	-0.262900	0.000140
C12	C	0.695198	-0.251218	0.000123
N13	N	0.925025	-0.268966	0.344250
C14	C	0.929520	-0.041307	0.000171
C15	C	0.927233	0.097459	0.000166
C16	C	0.645677	-0.358473	0.000121
C17	C	0.564066	-0.347489	0.000141
C18	C	0.531977	-0.229248	0.000154
C19	C	0.581505	-0.121985	0.000161
C20	C	0.663115	-0.132970	0.000151
C21	C	0.286005	-0.190440	0.000194
C22	C	0.204389	-0.179463	0.000200
C23	C	0.186955	-0.404968	0.000183
C24	C	0.268567	-0.415943	0.000164
C25	C	0.318088	-0.308679	0.000179
C26	C	0.448558	-0.218018	0.000170
C27	C	0.401506	-0.319911	0.000173
C28	C	1.068010	-0.275036	0.000190
C29	C	1.154868	-0.286718	0.000197
C30	C	0.920546	-0.496629	0.000159
C31	C	0.922833	-0.635394	0.000155
C32	C	0.993863	0.166278	0.000176
C33	C	0.991501	0.309700	0.000170
N34	N	0.925047	-0.268961	-0.343917
C35	C	0.975023	-0.193483	0.416459
C36	C	0.975035	-0.193480	0.583871
H37	H	0.671797	-0.454757	0.000109
H38	H	0.178266	-0.083172	0.000209
Cl39	Cl	0.858944	-0.368734	0.440145
H40	H	0.294687	-0.512227	0.000137
Cl41	Cl	0.834758	0.273287	0.000152
Cl42	Cl	1.079573	0.401026	0.000195
H43	H	0.146627	-0.492295	0.000174
Cl44	Cl	1.084640	0.093322	0.000184
H45	H	1.017816	-0.128856	0.354342
H46	H	0.326315	-0.103097	0.000207
Cl47	Cl	0.836457	0.170414	0.000134
H48	H	0.523748	-0.434828	0.000137
Cl49	Cl	1.041130	-0.093708	0.679737
Cl50	Cl	0.858958	-0.368750	0.560227
Cl51	Cl	0.541165	0.026662	0.000186
Cl52	Cl	0.441847	-0.468551	0.000161
Cl53	Cl	0.725371	0.001872	0.000160
Cl54	Cl	0.408211	-0.069377	0.000179
