data_functionalizedCrystal
_audit_creation_method	'MofGen! by Chris Wilmer'
_symmetry_space_group_name_H-M	'P1'
_symmetry_Int_Tables_number	1
_symmetry_cell_setting	triclinic
loop_
_symmetry_equiv_pos_as_xyz
  x,y,z
_cell_length_a	17.699077
_cell_length_b	19.188930
_cell_length_c	16.776229
_cell_angle_alpha	89.988225
_cell_angle_beta	89.993415
_cell_angle_gamma	83.212679
loop_
_atom_site_label
_atom_site_type_symbol
_atom_site_fract_x
_atom_site_fract_y
_atom_site_fract_z
O1	O	1.003965	0.088275	-0.066287
O2	O	0.783571	0.099766	-0.066292
O3	O	0.900128	-0.007628	-0.066273
O4	O	0.887408	0.195669	-0.066305
O5	O	0.900113	-0.007635	0.066303
O6	O	0.783556	0.099760	0.066285
O7	O	1.003950	0.088268	0.066290
Zn8	Zn	0.893750	0.094013	0.087337
Zn9	Zn	0.893770	0.094021	-0.087339
O10	O	0.887393	0.195662	0.066272
C11	C	0.755367	0.099352	-0.000004
C12	C	0.671350	0.098119	-0.000005
C13	C	0.631875	0.097534	0.072263
C14	C	0.552934	0.096364	0.072264
C15	C	0.513469	0.095784	-0.000004
C16	C	0.552950	0.096367	-0.072278
C17	C	0.631890	0.097531	-0.072278
C18	C	0.234592	0.091668	-0.072279
C19	C	0.155646	0.090505	-0.072273
C20	C	0.155637	0.090501	0.072264
C21	C	0.234577	0.091666	0.072263
C22	C	0.274051	0.092244	-0.000010
C23	C	0.359648	0.093512	-0.000010
C24	C	0.427872	0.094522	-0.000005
C25	C	0.899708	-0.033643	0.000017
C26	C	0.898472	-0.111149	0.000024
C27	C	0.966864	-0.155998	0.000029
C28	C	0.965702	-0.228823	0.000016
C29	C	0.896145	-0.256796	0.000014
C30	C	0.827744	-0.211937	0.000004
C31	C	0.828907	-0.139114	0.000009
N32	N	0.842971	-0.364862	0.045131
N33	N	0.841870	-0.434041	0.045129
C34	C	0.892634	-0.476208	-0.000002
N35	N	0.944553	-0.446583	-0.045119
N36	N	0.945656	-0.377398	-0.045113
C37	C	0.894875	-0.335760	0.000009
C38	C	0.959771	-0.600023	-0.000012
C39	C	0.958607	-0.672849	-0.000029
C40	C	0.820646	-0.655962	-0.000033
C41	C	0.821813	-0.583137	-0.000024
C42	C	0.891378	-0.555173	-0.000009
C43	C	1.032154	0.088682	0.000000
C44	C	1.116171	0.089915	-0.000004
C45	C	0.887812	0.221677	-0.000021
C46	C	0.889049	0.299183	-0.000033
N47	N	0.893742	0.094006	0.206548
N48	N	0.893785	0.094022	-0.206550
C49	C	0.945369	0.046472	0.248273
C50	C	0.945373	0.046471	0.331725
C51	C	0.893753	0.094009	0.373451
C52	C	0.842121	0.141546	0.331720
C53	C	0.842113	0.141543	0.248269
C54	C	0.842148	0.141560	0.668267
C55	C	0.842161	0.141561	0.751724
C56	C	0.945408	0.046488	0.751723
C57	C	0.945401	0.046485	0.668272
C58	C	0.893766	0.094019	0.626549
C59	C	0.893761	0.094018	0.536060
C60	C	0.893761	0.094014	0.463938
H61	H	0.266705	0.092141	0.131112
N62	N	0.749594	-0.684526	-0.000021
N63	N	0.703533	-0.670754	0.055865
H64	H	0.653350	-0.690930	0.055872
H65	H	0.987411	0.007764	0.365698
N66	N	0.789387	0.190111	0.374326
N67	N	0.743294	0.232548	0.337059
H68	H	0.706049	0.266850	0.367147
H69	H	0.987407	0.007763	0.214306
H70	H	0.766121	-0.546620	-0.000023
H71	H	0.800072	0.180250	0.214297
N72	N	0.998120	-0.002085	0.625656
N73	N	0.974248	-0.045401	0.579111
H74	H	1.011481	-0.079707	0.549015
H75	H	0.987450	0.007781	0.785704
H76	H	1.021397	-0.265345	0.000018
N77	N	1.030827	-0.571454	-0.000024
N78	N	1.046872	-0.532689	-0.055906
H79	H	1.097056	-0.512514	-0.055917
N80	N	0.274899	0.092245	-0.146108
N81	N	0.273213	0.042916	-0.194480
H82	H	0.301679	0.043320	-0.246628
N83	N	0.789399	0.190115	0.625667
N84	N	0.743315	0.232554	0.662934
H85	H	0.706056	0.266849	0.632846
N86	N	0.672170	0.098143	0.146092
N87	N	0.636910	0.097626	0.210612
H88	H	0.665366	0.098058	0.262757
N89	N	0.789424	0.190128	0.794334
N90	N	0.743326	0.232565	0.757073
H91	H	0.706082	0.266864	0.787166
N92	N	0.759036	-0.093308	-0.000000
N93	N	0.696934	-0.118288	-0.000010
H94	H	0.647586	-0.085937	-0.000017
H95	H	0.520799	0.095876	0.131112
H96	H	0.123516	0.090032	-0.131126
N97	N	0.115301	0.089910	0.146085
N98	N	0.044820	0.088871	0.146080
H99	H	0.016333	0.088457	0.198215
H100	H	0.520811	0.095889	-0.131120
H101	H	0.664029	0.098009	-0.131126
N102	N	1.037921	-0.127435	0.000051
N103	N	1.083967	-0.141233	0.055940
H104	H	1.134152	-0.121060	0.055955
N105	N	0.756699	-0.240519	-0.000005
N106	N	0.755668	-0.305540	-0.000009
H107	H	0.705491	-0.325727	-0.000019
H108	H	1.014302	-0.709365	-0.000029
