data_functionalizedCrystal
_audit_creation_method	'MofGen! by Chris Wilmer'
_symmetry_space_group_name_H-M	'P1'
_symmetry_Int_Tables_number	1
_symmetry_cell_setting	triclinic
loop_
_symmetry_equiv_pos_as_xyz
  x,y,z
_cell_length_a	29.839134
_cell_length_b	29.839131
_cell_length_c	18.101389
_cell_angle_alpha	90.028941
_cell_angle_beta	90.028730
_cell_angle_gamma	90.030088
loop_
_atom_site_label
_atom_site_type_symbol
_atom_site_fract_x
_atom_site_fract_y
_atom_site_fract_z
Zn1	Zn	0.686769	-0.178962	0.418872
Zn2	Zn	0.686700	-0.254079	0.295007
Zn3	Zn	0.611643	-0.178957	0.295023
Zn4	Zn	0.611608	-0.254059	0.418786
O5	O	0.649180	-0.216514	0.356922
O6	O	0.749627	-0.188937	0.402470
O7	O	0.676730	-0.244120	0.191376
O8	O	0.621652	-0.116090	0.311494
O9	O	0.749576	-0.244125	0.311467
O10	O	0.676847	-0.116094	0.402485
O11	O	0.621585	-0.188928	0.191388
O12	O	0.548771	-0.188909	0.311412
O13	O	0.621592	-0.244091	0.522431
O14	O	0.548745	-0.244086	0.402340
O15	O	0.676812	-0.188918	0.522493
O16	O	0.676696	-0.316943	0.311384
O17	O	0.621525	-0.316929	0.402324
C18	C	0.532457	-0.216495	0.356869
C19	C	0.482523	-0.216498	0.356863
C20	C	0.649111	-0.333237	0.356860
C21	C	0.649123	-0.383171	0.356858
C22	C	0.172875	-0.245287	0.404210
C23	C	-0.014798	-0.245300	0.404243
O24	O	-0.039066	-0.269757	0.444468
N25	N	-0.038262	-0.216531	0.356978
C26	C	-0.014806	-0.187754	0.309704
O27	O	-0.039070	-0.163281	0.269508
C28	C	0.172867	-0.187739	0.309676
C29	C	0.196329	-0.216514	0.356939
C30	C	0.196338	-0.274059	0.451470
C31	C	0.243253	-0.274058	0.451459
C32	C	0.266706	-0.245284	0.404187
C33	C	0.243244	-0.216512	0.356927
C34	C	0.196322	-0.158961	0.262406
C35	C	0.243243	-0.158959	0.262405
C36	C	0.266705	-0.187733	0.309668
C37	C	0.313613	-0.187737	0.309644
N38	N	0.337077	-0.216506	0.356910
C39	C	0.313624	-0.245280	0.404181
C40	C	-0.113336	-0.187764	0.309722
C41	C	-0.160254	-0.187768	0.309728
C42	C	-0.160243	-0.245314	0.404268
C43	C	-0.113324	-0.245312	0.404257
C44	C	-0.089872	-0.216534	0.356987
C45	C	0.412150	-0.245274	0.404153
C46	C	0.459070	-0.245271	0.404135
C47	C	0.459054	-0.187724	0.309598
C48	C	0.412139	-0.187729	0.309613
C49	C	0.388688	-0.216505	0.356896
O50	O	0.337910	-0.163289	0.269447
O51	O	0.337897	-0.269742	0.444383
C52	C	0.125960	-0.245289	0.404222
C53	C	0.102498	-0.216517	0.356962
C54	C	0.125951	-0.187744	0.309690
C55	C	0.055580	-0.216521	0.356968
C56	C	0.032127	-0.245295	0.404240
C57	C	0.055591	-0.274064	0.451505
C58	C	0.102507	-0.274063	0.451493
C59	C	0.102486	-0.158974	0.262425
C60	C	0.055571	-0.158979	0.262440
C61	C	0.032118	-0.187752	0.309711
C62	C	0.677914	-0.692782	0.404368
C63	C	0.677962	-0.880455	0.404413
O64	O	0.702374	-0.904691	0.444762
N65	N	0.649256	-0.903956	0.357004
C66	C	0.620534	-0.880537	0.309584
O67	O	0.596115	-0.904832	0.269267
C68	C	0.620483	-0.692864	0.309544
C69	C	0.649194	-0.669365	0.356951
C70	C	0.706622	-0.669282	0.451772
C71	C	0.706611	-0.622367	0.451757
C72	C	0.677892	-0.598951	0.404340
C73	C	0.649184	-0.622450	0.356936
C74	C	0.591759	-0.669446	0.262129
C75	C	0.591748	-0.622525	0.262124
C76	C	0.620459	-0.599026	0.309531
C77	C	0.620453	-0.552118	0.309504
N78	N	0.649160	-0.528617	0.356913
C79	C	0.677879	-0.552033	0.404331
C80	C	0.620563	-0.979067	0.309608
C81	C	0.620576	-1.025985	0.309617
C82	C	0.678004	-1.025900	0.404447
C83	C	0.677993	-0.978981	0.404433
C84	C	0.649269	-0.955566	0.357017
C85	C	0.677854	-0.453507	0.404296
C86	C	0.677842	-0.406587	0.404275
C87	C	0.620413	-0.406677	0.309449
C88	C	0.620426	-0.453592	0.309466
C89	C	0.649149	-0.477006	0.356896
O90	O	0.596051	-0.527852	0.269182
O91	O	0.702287	-0.527729	0.444654
C92	C	0.677924	-0.739697	0.404383
C93	C	0.649216	-0.763196	0.356980
C94	C	0.620496	-0.739780	0.309562
C95	C	0.649229	-0.810114	0.356989
C96	C	0.677948	-0.833530	0.404406
C97	C	0.706654	-0.810029	0.451815
C98	C	0.706644	-0.763113	0.451801
C99	C	0.591790	-0.763281	0.262153
C100	C	0.591804	-0.810197	0.262171
C101	C	0.620523	-0.833613	0.309589
C102	C	0.766358	-0.216534	0.356976
C103	C	0.816293	-0.216542	0.356999
C104	C	0.649206	-0.216503	0.550084
C105	C	0.649217	-0.216498	0.632398
C106	C	0.649261	-0.099336	0.357001
C107	C	0.649295	-0.049401	0.357035
C108	C	0.649180	-0.216493	0.164512
C109	C	0.649256	-0.216371	0.082198
C110	C	0.649243	-0.216414	0.931489
C111	C	0.614380	-0.251017	0.900125
C112	C	0.614474	-0.251177	0.814506
C113	C	0.649230	-0.216456	0.783107
C114	C	0.696562	-0.229311	0.814215
C115	C	0.696367	-0.229538	0.899859
C116	C	0.637186	-0.168878	0.899926
C117	C	0.636133	-0.169153	0.814275
C118	C	0.649225	-0.216478	0.699247
C119	C	0.649251	-0.216392	1.015349
H120	H	0.478170	-0.268705	0.442623
H121	H	-0.179346	-0.268743	0.442758
H122	H	0.597051	-0.472726	0.270858
H123	H	0.262352	-0.297488	0.489947
H124	H	0.121577	-0.135543	0.223930
H125	H	0.701389	-1.044973	0.443055
H126	H	0.706960	-0.263690	0.792763
H127	H	0.729989	-0.603237	0.490362
H128	H	0.730009	-0.688343	0.490389
H129	H	0.723235	-0.204899	0.793879
H130	H	0.177247	-0.297490	0.489969
H131	H	-0.179353	-0.164342	0.271234
H132	H	0.723223	-0.205429	0.920610
H133	H	0.701372	-0.959851	0.443036
H134	H	0.177227	-0.135530	0.223917
H135	H	0.603272	-0.157167	0.921512
H136	H	0.659673	-0.142003	0.792902
H137	H	0.568424	-0.829326	0.223560
H138	H	0.706589	-0.264287	0.919834
H139	H	0.597201	-1.045114	0.271006
H140	H	0.597172	-0.960005	0.270994
H141	H	0.568379	-0.688571	0.223525
H142	H	0.601301	-0.159459	0.793942
H143	H	0.568356	-0.603462	0.223513
H144	H	0.662578	-0.143097	0.920213
H145	H	0.568403	-0.744220	0.223541
H146	H	-0.094224	-0.268742	0.442745
H147	H	0.393062	-0.268706	0.442657
H148	H	0.121606	-0.297494	0.489980
H149	H	0.597031	-0.387604	0.270839
H150	H	0.730023	-0.743984	0.490404
H151	H	0.262336	-0.135521	0.223915
H152	H	-0.094246	-0.164329	0.271225
H153	H	0.730040	-0.829103	0.490422
H154	H	0.701224	-0.387456	0.442879
H155	H	0.579376	-0.243133	0.793472
H156	H	0.579176	-0.243054	0.920709
H157	H	0.478158	-0.164299	0.271108
H158	H	0.393035	-0.164299	0.271126
H159	H	0.036487	-0.297494	0.489993
H160	H	0.036472	-0.135548	0.223946
H161	H	0.701240	-0.472565	0.442923
H162	H	0.622261	-0.286037	0.921641
H163	H	0.622434	-0.286412	0.794014
