data_functionalizedCrystal
_audit_creation_method	'MofGen! by Chris Wilmer'
_symmetry_space_group_name_H-M	'P1'
_symmetry_Int_Tables_number	1
_symmetry_cell_setting	triclinic
loop_
_symmetry_equiv_pos_as_xyz
  x,y,z
_cell_length_a	11.026607
_cell_length_b	17.038272
_cell_length_c	9.482900
_cell_angle_alpha	100.012096
_cell_angle_beta	78.636152
_cell_angle_gamma	99.848786
loop_
_atom_site_label
_atom_site_type_symbol
_atom_site_fract_x
_atom_site_fract_y
_atom_site_fract_z
O1	O	1.662374	0.322506	-0.120910
O2	O	1.305163	0.284676	-0.120910
O3	O	1.481644	0.189477	-0.120899
O4	O	1.485893	0.417705	-0.120922
O5	O	1.445807	0.208914	0.120891
O6	O	1.269325	0.304112	0.120880
O7	O	1.626537	0.341943	0.120880
Cu8	Cu	1.444659	0.324802	0.142957
Cu9	Cu	1.487041	0.301816	-0.142988
O10	O	1.450056	0.437141	0.120868
C11	C	1.241313	0.287415	-0.000015
C12	C	1.104451	0.266610	-0.000015
C13	C	1.459863	0.169523	-0.000004
C14	C	1.448341	0.081107	-0.000004
C15	C	1.036577	0.324055	-0.000022
C16	C	0.895123	0.302554	-0.000021
C17	C	1.554125	0.045899	-0.000003
C18	C	1.543294	-0.037179	-0.000016
C19	C	1.426676	-0.085048	-0.000021
C20	C	1.320885	-0.049835	-0.000027
C21	C	1.331719	0.033241	-0.000024
C22	C	1.388403	-0.336201	-0.000041
C23	C	1.377576	-0.419281	-0.000040
C24	C	1.599987	-0.406621	-0.000032
C25	C	1.610809	-0.323543	-0.000020
C26	C	1.505019	-0.288338	-0.000034
C27	C	1.415602	-0.169967	-0.000031
C28	C	1.516096	-0.203421	-0.000034
C29	C	1.690388	0.339203	-0.000018
C30	C	1.827251	0.360008	-0.000028
C31	C	1.471837	0.457095	-0.000030
C32	C	1.483360	0.545511	-0.000039
N33	N	1.414859	0.340969	0.344075
N34	N	1.516850	0.285644	-0.344106
C35	C	1.478242	0.306580	0.416279
C36	C	1.453458	0.320039	0.583695
H37	H	1.083189	0.389155	-0.000020
H38	H	1.342241	0.380373	0.406201
N39	N	1.657387	-0.075154	-0.000006
H40	H	1.732905	-0.032223	0.000010
H41	H	1.644440	-0.102146	0.089628
N42	N	1.274306	-0.298235	-0.000050
H43	H	1.198787	-0.341166	-0.000046
H44	H	1.260669	-0.256839	0.089585
N45	N	1.195107	-0.101466	-0.000028
H46	H	1.135092	-0.082570	0.089603
H47	H	1.161768	-0.096961	-0.089719
N48	N	1.217627	0.071219	-0.000034
H49	H	1.142105	0.028290	-0.000036
H50	H	1.203988	0.112615	0.089598
N51	N	0.833398	0.216316	0.000005
H52	H	0.741096	0.213180	0.000008
H53	H	0.872246	0.181837	-0.089625
H54	H	1.057843	0.201507	-0.000046
N55	N	0.888968	0.446248	-0.000022
H56	H	0.981269	0.449386	-0.000020
H57	H	0.876688	0.466314	-0.089660
N58	N	1.679905	0.097526	0.000017
H59	H	1.745273	0.062612	0.000013
H60	H	1.702532	0.125071	-0.089615
N61	N	1.613034	0.233435	0.573628
H62	H	1.617106	0.231218	0.465693
H63	H	1.697482	0.256896	0.600134
N64	N	1.736588	-0.271915	-0.000006
H65	H	1.801960	-0.306826	-0.000007
H66	H	1.759216	-0.244369	-0.089636
H67	H	1.686115	-0.435294	-0.000024
H68	H	1.282604	-0.458253	-0.000021
N69	N	1.574396	0.254356	0.334004
H70	H	1.578458	0.252133	0.226070
H71	H	1.658856	0.277799	0.360491
N72	N	1.641869	-0.151793	-0.000013
H73	H	1.707247	-0.186699	-0.000006
H74	H	1.664498	-0.124249	-0.089644
H75	H	1.380835	0.359444	0.645814
N76	N	1.289821	-0.221597	-0.000012
H77	H	1.224442	-0.186690	-0.000005
H78	H	1.293769	-0.263542	-0.089649
