data_functionalizedCrystal
_audit_creation_method	'MofGen! by Chris Wilmer'
_symmetry_space_group_name_H-M	'P1'
_symmetry_Int_Tables_number	1
_symmetry_cell_setting	triclinic
loop_
_symmetry_equiv_pos_as_xyz
  x,y,z
_cell_length_a	10.540535
_cell_length_b	11.792241
_cell_length_c	10.268362
_cell_angle_alpha	90.005428
_cell_angle_beta	89.997809
_cell_angle_gamma	95.641471
loop_
_atom_site_label
_atom_site_type_symbol
_atom_site_fract_x
_atom_site_fract_y
_atom_site_fract_z
O1	O	1.685370	-0.159932	-0.108230
O2	O	1.315907	-0.175009	-0.108248
O3	O	1.509604	-0.002323	-0.108229
O4	O	1.491673	-0.332618	-0.108248
O5	O	1.509587	-0.002316	0.108371
O6	O	1.315890	-0.175001	0.108353
O7	O	1.685353	-0.159925	0.108371
Cu8	Cu	1.500620	-0.167463	0.128139
Cu9	Cu	1.500640	-0.167471	-0.128016
O10	O	1.491656	-0.332611	0.108352
C11	C	1.268599	-0.173876	0.000050
C12	C	1.127662	-0.170496	0.000043
C13	C	1.091402	-0.044415	0.000056
C14	C	0.944813	-0.040858	0.000561
C15	C	0.918129	-0.228046	0.123504
C16	C	1.064885	-0.230729	0.123595
C17	C	1.064783	-0.232572	-0.122729
C18	C	0.918455	-0.226740	-0.124338
C19	C	1.508469	0.039974	0.000071
C20	C	1.505098	0.165997	0.000069
C21	C	1.732661	-0.161058	0.000070
C22	C	1.873598	-0.164438	0.000068
C23	C	1.492790	-0.374908	0.000050
C24	C	1.496162	-0.500931	0.000042
N25	N	1.500615	-0.167456	0.308305
C26	C	1.498899	0.396725	0.000047
C27	C	1.502343	0.268331	0.000059
N28	N	1.500655	-0.167469	-0.308182
C29	C	1.500633	-0.167469	0.573976
C30	C	1.500619	-0.167465	0.426138
H31	H	0.869114	-0.316932	-0.132181
H32	H	1.133535	0.003999	-0.088450
H33	H	0.887361	-0.184400	0.215725
H34	H	1.107377	-0.193232	-0.216322
H35	H	1.135008	0.003194	0.088450
C36	C	0.907314	0.025130	0.119364
C37	C	1.016709	0.061952	0.190970
C38	C	0.982214	0.122729	0.300437
H39	H	0.866226	0.089294	0.092207
H40	H	0.850806	-0.022797	0.172221
H41	H	1.073196	0.109877	0.138123
H42	H	1.057811	-0.002188	0.218160
H43	H	0.925706	0.074802	0.353293
H44	H	0.941125	0.186887	0.273267
H45	H	1.056431	0.147711	0.349041
C46	C	1.118683	-0.173653	0.247202
C47	C	1.181743	-0.251672	0.319538
C48	C	1.231296	-0.199134	0.433420
H49	H	1.177082	-0.110065	0.225028
H50	H	1.051111	-0.148695	0.297574
H51	H	1.249307	-0.276613	0.269176
H52	H	1.123370	-0.315262	0.341746
H53	H	1.163724	-0.174176	0.483792
H54	H	1.289690	-0.135547	0.411234
H55	H	1.274077	-0.252064	0.482521
C56	C	1.094945	-0.354035	0.130686
C57	C	0.981009	-0.425793	0.134865
C58	C	1.008644	-0.539385	0.141427
H59	H	1.142565	-0.371589	0.056065
H60	H	1.143343	-0.364863	0.206947
H61	H	0.932631	-0.414971	0.058612
H62	H	0.933373	-0.408275	0.209482
H63	H	1.057042	-0.550213	0.217688
H64	H	1.056266	-0.556927	0.066804
H65	H	0.931344	-0.588086	0.144275
H66	H	1.086665	-0.325336	-0.123928
C67	C	0.880389	-0.165252	-0.246215
C68	C	0.799741	-0.239840	-0.322350
C69	C	0.764637	-0.183242	-0.434632
H70	H	0.837108	-0.101460	-0.222188
H71	H	0.954572	-0.140071	-0.294779
H72	H	0.725570	-0.265004	-0.273795
H73	H	0.842995	-0.303633	-0.346411
H74	H	0.838820	-0.158061	-0.483196
H75	H	0.721362	-0.119452	-0.410592
H76	H	0.709924	-0.233844	-0.486309
C77	C	0.905647	0.025388	-0.117353
C78	C	0.773209	0.028546	-0.116847
C79	C	0.737090	0.089554	-0.225460
H80	H	0.946234	0.100908	-0.114107
H81	H	0.930380	-0.010906	-0.194628
H82	H	0.748489	0.064843	-0.039593
H83	H	0.732591	-0.046956	-0.120112
H84	H	0.761823	0.053260	-0.302734
H85	H	0.777685	0.165070	-0.222204
H86	H	0.647227	0.091696	-0.225137
H87	H	0.870476	-0.319035	0.127742
