data_functionalizedCrystal
_audit_creation_method	'MofGen! by Chris Wilmer'
_symmetry_space_group_name_H-M	'P1'
_symmetry_Int_Tables_number	1
_symmetry_cell_setting	triclinic
loop_
_symmetry_equiv_pos_as_xyz
  x,y,z
_cell_length_a	14.908742
_cell_length_b	13.897448
_cell_length_c	14.908308
_cell_angle_alpha	93.267188
_cell_angle_beta	96.760659
_cell_angle_gamma	86.724243
loop_
_atom_site_label
_atom_site_type_symbol
_atom_site_fract_x
_atom_site_fract_y
_atom_site_fract_z
Zn1	Zn	1.354248	-0.494143	-0.431772
Zn2	Zn	1.687582	-0.160810	-0.098439
Zn3	Zn	2.020915	0.172523	0.234895
Zn4	Zn	1.362892	-0.646655	-0.280418
Zn5	Zn	1.696226	-0.313322	0.052915
Zn6	Zn	2.029559	0.020011	0.386249
Zn7	Zn	1.211622	-0.476589	-0.289179
Zn8	Zn	1.544955	-0.143256	0.044154
Zn9	Zn	1.878289	0.190078	0.377487
Zn10	Zn	1.202865	-0.646601	-0.440481
Zn11	Zn	1.536198	-0.313268	-0.107148
Zn12	Zn	1.869531	0.020066	0.226185
O13	O	1.282907	-0.565997	-0.360463
O14	O	1.616240	-0.232664	-0.027129
O15	O	1.949574	0.100670	0.306204
O16	O	1.482056	-0.521744	-0.404383
O17	O	1.815390	-0.188410	-0.071050
O18	O	2.148723	0.144923	0.262283
O19	O	1.350109	-0.616772	-0.154918
O20	O	1.683442	-0.283439	0.178416
O21	O	2.016775	0.049895	0.511749
O22	O	1.230589	-0.343940	-0.308117
O23	O	1.563922	-0.010607	0.025217
O24	O	1.897256	0.322726	0.358550
O25	O	1.488407	-0.633794	-0.293184
O26	O	1.821741	-0.300460	0.040149
O27	O	2.155074	0.032873	0.373483
O28	O	1.335376	-0.356837	-0.412879
O29	O	1.668709	-0.023504	-0.079546
O30	O	2.002043	0.309829	0.253788
O31	O	1.238971	-0.491825	-0.161355
O32	O	1.572304	-0.158492	0.171979
O33	O	1.905638	0.174842	0.505312
O34	O	1.083799	-0.491772	-0.316562
O35	O	1.417132	-0.158439	0.016772
O36	O	1.750466	0.174895	0.350105
O37	O	1.215664	-0.633701	-0.565989
O38	O	1.548997	-0.300368	-0.232655
O39	O	1.882330	0.032966	0.100678
O40	O	1.077365	-0.616679	-0.427722
O41	O	1.410698	-0.283346	-0.094389
O42	O	1.744032	0.049988	0.238944
O43	O	1.326884	-0.521691	-0.559590
O44	O	1.660218	-0.188358	-0.226257
O45	O	1.993551	0.144976	0.107077
O46	O	1.341617	-0.781625	-0.301629
O47	O	1.674950	-0.448292	0.031705
O48	O	2.008284	-0.114959	0.365038
O49	O	1.224045	-0.781585	-0.419227
O50	O	1.557379	-0.448252	-0.085893
O51	O	1.890712	-0.114919	0.247440
C52	C	1.047740	-0.552316	-0.374038
C53	C	1.381073	-0.218982	-0.040705
C54	C	1.714407	0.114351	0.292628
C55	C	0.947133	-0.546487	-0.379867
C56	C	1.280466	-0.213154	-0.046534
C57	C	1.613800	0.120180	0.286799
C58	C	0.802017	-0.480048	-0.446062
C59	C	1.135351	-0.146714	-0.112729
C60	C	1.468684	0.186619	0.220605
C61	C	0.896546	-0.485516	-0.440590
C62	C	1.229879	-0.152183	-0.107256
C63	C	1.563213	0.181151	0.226077
C64	C	0.903185	-0.601996	-0.324615
C65	C	1.236518	-0.268663	0.008718
C66	C	1.569852	0.064671	0.342051
C67	C	0.808656	-0.596527	-0.330088
C68	C	1.141990	-0.263194	0.003246
C69	C	1.475323	0.070139	0.336579
C70	C	0.758076	-0.535550	-0.390812
C71	C	1.091409	-0.202217	-0.057479
C72	C	1.424742	0.131116	0.275855
C73	C	0.663546	-0.530077	-0.396279
C74	C	0.996879	-0.196744	-0.062946
C75	C	1.330212	0.136589	0.270387
C76	C	0.670186	-0.646562	-0.280310
C77	C	1.003519	-0.313228	0.053023
C78	C	1.336853	0.020105	0.386356
C79	C	0.764715	-0.652030	-0.274838
C80	C	1.098048	-0.318697	0.058495
C81	C	1.431381	0.014637	0.391829
C82	C	1.282842	-0.816606	-0.360440
C83	C	1.616176	-0.483273	-0.027107
C84	C	1.949509	-0.149939	0.306226
C85	C	1.282896	-0.923824	-0.360456
C86	C	1.616229	-0.590491	-0.027123
C87	C	1.949562	-0.257158	0.306210
C88	C	1.282988	-1.120128	-0.360508
C89	C	1.616321	-0.786795	-0.027174
C90	C	1.949654	-0.453462	0.306159
C91	C	1.282934	-1.010891	-0.360482
C92	C	1.616267	-0.677558	-0.027149
C93	C	1.949600	-0.344224	0.306185
C94	C	1.518992	-0.579733	-0.346835
C95	C	1.852325	-0.246400	-0.013501
C96	C	2.185659	0.086934	0.319832
C97	C	1.619598	-0.585586	-0.341027
C98	C	1.952931	-0.252253	-0.007694
C99	C	2.286264	0.081080	0.325639
C100	C	1.269333	-0.579648	-0.596550
C101	C	1.602666	-0.246315	-0.263216
C102	C	1.935999	0.087019	0.070117
C103	C	1.263548	-0.585465	-0.697156
C104	C	1.596882	-0.252132	-0.363823
C105	C	1.930215	0.081201	-0.030489
C106	C	1.282995	-0.314412	-0.360504
C107	C	1.616329	0.018921	-0.027170
C108	C	1.949662	0.352255	0.306163
C109	C	1.283033	-0.207202	-0.360521
C110	C	1.616366	0.126132	-0.027188
C111	C	1.949699	0.459465	0.306146
C112	C	1.368490	-0.479738	-0.879545
C113	C	1.701824	-0.146404	-0.546211
C114	C	2.035157	0.186929	-0.212878
C115	C	1.363058	-0.485200	-0.974073
C116	C	1.696391	-0.151867	-0.640740
C117	C	2.029725	0.181466	-0.307406
C118	C	1.247248	-0.601847	-0.980743
C119	C	1.580581	-0.268514	-0.647410
C120	C	1.913915	0.064819	-0.314076
C121	C	1.252680	-0.596385	-0.886215
C122	C	1.586013	-0.263051	-0.552881
C123	C	1.919347	0.070282	-0.219548
C124	C	1.313304	-0.535329	-0.835619
C125	C	1.646638	-0.201996	-0.502285
C126	C	1.979971	0.131338	-0.168952
C127	C	1.318740	-0.529872	-0.741088
C128	C	1.652074	-0.196539	-0.407755
C129	C	1.985407	0.136795	-0.074422
C130	C	1.202926	-0.646513	-0.747760
C131	C	1.536260	-0.313180	-0.414427
C132	C	1.869593	0.020153	-0.081093
C133	C	1.197494	-0.651976	-0.842288
C134	C	1.530827	-0.318643	-0.508955
C135	C	1.864161	0.014691	-0.175622
C136	C	1.296480	-0.552333	-0.125291
C137	C	1.629814	-0.218999	0.208042
C138	C	1.963147	0.114334	0.541376
C139	C	1.302440	-0.546254	-0.024675
C140	C	1.635773	-0.212921	0.308658
C141	C	1.969107	0.120413	0.641991
H142	H	0.760834	-0.430388	-0.495497
H143	H	1.094168	-0.097055	-0.162164
H144	H	1.427501	0.236279	0.171169
Br145	Br	0.971845	-0.684757	-0.242222
Br146	Br	1.305178	-0.351423	0.091111
Br147	Br	1.638511	-0.018090	0.424444
Br148	Br	0.594901	-0.447319	-0.478685
Br149	Br	0.928234	-0.113985	-0.145351
Br150	Br	1.261568	0.219348	0.187982
Br151	Br	0.956179	-0.410193	-0.515579
Br152	Br	1.289512	-0.076860	-0.182246
Br153	Br	1.622846	0.256473	0.151088
Br154	Br	0.833367	-0.734785	-0.192434
Br155	Br	1.166701	-0.401451	0.140899
Br156	Br	1.500034	-0.068118	0.474232
Br157	Br	1.437953	-0.409748	-1.033686
Br158	Br	1.771286	-0.076415	-0.700352
Br159	Br	2.104620	0.256918	-0.367019
Br160	Br	1.450776	-0.396894	-0.810874
Br161	Br	1.784109	-0.063561	-0.477540
Br162	Br	2.117443	0.269772	-0.144207
Br163	Br	0.610547	-0.721882	-0.205315
Br164	Br	0.943881	-0.388549	0.128018
Br165	Br	1.277214	-0.055216	0.461351
H166	H	1.157992	-0.691782	-0.711986
H167	H	1.491325	-0.358449	-0.378652
H168	H	1.824659	-0.025116	-0.045319
H169	H	1.368105	-0.480159	-0.699894
H170	H	1.701438	-0.146825	-0.366561
H171	H	2.034772	0.186508	-0.033228
H172	H	1.197890	-0.651555	-1.021954
H173	H	1.531224	-0.318222	-0.688621
H174	H	1.864557	0.015111	-0.355288
Br175	Br	1.115220	-0.734829	-0.910962
Br176	Br	1.448553	-0.401496	-0.577629
Br177	Br	1.781886	-0.068163	-0.244295
