data_functionalizedCrystal
_audit_creation_method	'MofGen! by Chris Wilmer'
_symmetry_space_group_name_H-M	'P1'
_symmetry_Int_Tables_number	1
_symmetry_cell_setting	triclinic
loop_
_symmetry_equiv_pos_as_xyz
  x,y,z
_cell_length_a	10.686220
_cell_length_b	18.050589
_cell_length_c	18.050583
_cell_angle_alpha	89.968090
_cell_angle_beta	94.355416
_cell_angle_gamma	94.409750
loop_
_atom_site_label
_atom_site_type_symbol
_atom_site_fract_x
_atom_site_fract_y
_atom_site_fract_z
Zn1	Zn	1.928980	-0.208408	-0.332940
Zn2	Zn	1.928824	-0.332628	-0.208767
Zn3	Zn	1.717981	-0.217987	-0.218280
Zn4	Zn	1.717897	-0.342103	-0.342428
O5	O	1.823421	-0.275282	-0.275604
O6	O	2.105537	-0.216912	-0.308516
O7	O	1.900825	-0.317465	-0.106105
O8	O	1.746071	-0.112788	-0.233501
O9	O	2.105422	-0.308176	-0.217287
O10	O	1.901091	-0.105750	-0.317741
O11	O	1.745920	-0.233239	-0.113095
O12	O	1.541393	-0.242426	-0.242701
O13	O	1.745928	-0.324324	-0.445093
O14	O	1.541331	-0.333613	-0.333911
O15	O	1.901009	-0.226099	-0.438122
O16	O	1.900744	-0.437814	-0.226486
O17	O	1.745776	-0.444775	-0.324687
C18	C	1.495577	-0.290087	-0.290368
C19	C	1.355324	-0.296439	-0.296702
C20	C	1.823268	-0.468241	-0.275598
C21	C	1.823319	-0.550784	-0.275616
C22	C	1.739130	-0.754043	-0.328996
C23	C	1.708378	-0.804884	-0.262615
C24	C	1.823443	-0.701909	-0.275620
C25	C	1.854257	-0.798147	-0.342005
C26	C	1.823560	-0.847889	-0.275630
C27	C	1.792630	-0.751665	-0.209206
C28	C	1.938562	-0.744922	-0.288639
C29	C	1.907854	-0.795738	-0.222210
C30	C	1.823372	-0.617814	-0.275615
C31	C	1.823631	-0.931982	-0.275627
C32	C	2.152544	-0.260419	-0.260782
C33	C	2.292797	-0.254085	-0.254466
C34	C	1.823476	-0.275200	-0.469307
C35	C	1.823500	-0.275165	-0.551852
C36	C	1.823608	-0.081567	-0.275624
C37	C	1.823688	0.000982	-0.275633
C38	C	1.907918	-0.221723	-0.747508
C39	C	1.792832	-0.208749	-0.802092
C40	C	1.823551	-0.275150	-0.702980
C41	C	1.938683	-0.288075	-0.795476
C42	C	1.823610	-0.275133	-0.848962
C43	C	1.708404	-0.262144	-0.756479
C44	C	1.854332	-0.341498	-0.749855
C45	C	1.739167	-0.328553	-0.804420
C46	C	1.823518	-0.275157	-0.618883
C47	C	1.823629	-0.275127	-0.933058
C48	C	1.823438	-0.275306	-0.082651
C49	C	1.823658	-0.275121	-0.000096
H50	H	1.301553	-0.337567	-0.337707
H51	H	1.346562	-0.212965	-0.213459
C52	C	1.496076	-0.238161	-0.796793
C53	C	1.576957	-0.247285	-0.733255
H54	H	1.414928	-0.228990	-0.782453
H55	H	1.528197	-0.197301	-0.824685
H56	H	1.490236	-0.282010	-0.826327
H57	H	1.582805	-0.203433	-0.703724
H58	H	1.544828	-0.288148	-0.705352
H59	H	1.766501	-0.731293	-0.153058
C60	C	1.971557	-0.091266	-0.740374
C61	C	2.004075	-0.160705	-0.713936
H62	H	2.030912	-0.053597	-0.719643
H63	H	1.971715	-0.090554	-0.792983
H64	H	1.889995	-0.082550	-0.726415
H65	H	2.085634	-0.169423	-0.727900
H66	H	2.003930	-0.161418	-0.661316
H67	H	1.667725	-0.735614	-0.374080
H68	H	1.611080	-0.831066	-0.251614
C69	C	2.068670	-0.632064	-0.302683
C70	C	2.069881	-0.709573	-0.303529
H71	H	2.149745	-0.610243	-0.311876
H72	H	2.008540	-0.617166	-0.340115
H73	H	2.046924	-0.616219	-0.255479
H74	H	2.091619	-0.725419	-0.350735
H75	H	2.130031	-0.724478	-0.266095
C76	C	1.971665	-0.796909	-0.091801
C77	C	2.004172	-0.820445	-0.161220
H78	H	2.031121	-0.812169	-0.054148
H79	H	1.971660	-0.744293	-0.091209
H80	H	1.890174	-0.818316	-0.082963
H81	H	2.085660	-0.799033	-0.170060
H82	H	2.004190	-0.873071	-0.161813
C83	C	1.800902	-0.804872	-0.473583
C84	C	1.889389	-0.825774	-0.417786
H85	H	1.822591	-0.821922	-0.520368
H86	H	1.719756	-0.826241	-0.463972
H87	H	1.800366	-0.752274	-0.474257
H88	H	1.889918	-0.878372	-0.417109
H89	H	1.970556	-0.804408	-0.427399
C90	C	1.644312	-0.389422	-0.915319
C91	C	1.642779	-0.389538	-0.837820
H92	H	1.584807	-0.427071	-0.935939
H93	H	1.623166	-0.342401	-0.933949
H94	H	1.726000	-0.398729	-0.928627
H95	H	1.561092	-0.380225	-0.824512
H96	H	1.663917	-0.436569	-0.819183
H97	H	1.880384	-0.397596	-0.726939
H98	H	1.766815	-0.152633	-0.824992
C99	C	2.158237	-0.246837	-0.789965
C100	C	2.070087	-0.302849	-0.818831
H101	H	2.239361	-0.255958	-0.804379
H102	H	2.135812	-0.200072	-0.808642
H103	H	2.159333	-0.246503	-0.737294
H104	H	2.068985	-0.303180	-0.871503
H105	H	2.092518	-0.349626	-0.800157
