data_functionalizedCrystal
_audit_creation_method	'MofGen! by Chris Wilmer'
_symmetry_space_group_name_H-M	'P1'
_symmetry_Int_Tables_number	1
_symmetry_cell_setting	triclinic
loop_
_symmetry_equiv_pos_as_xyz
  x,y,z
_cell_length_a	13.635800
_cell_length_b	11.102244
_cell_length_c	11.102313
_cell_angle_alpha	91.946531
_cell_angle_beta	71.393896
_cell_angle_gamma	71.395130
loop_
_atom_site_label
_atom_site_type_symbol
_atom_site_fract_x
_atom_site_fract_y
_atom_site_fract_z
V1	V	2.055764	-0.175839	-0.396253
O2	O	2.035283	0.008449	-0.388714
O3	O	2.044149	-0.348659	-0.393540
O4	O	2.044155	-0.173135	-0.569075
O5	O	2.035277	-0.168290	-0.211964
V6	V	2.294315	-0.153796	-0.374211
O7	O	2.193434	-0.224192	-0.444604
O8	O	2.381744	-0.105443	-0.325860
O9	O	2.194327	0.019023	-0.376925
O10	O	2.373494	-0.338084	-0.381751
O11	O	2.373500	-0.161345	-0.558501
O12	O	2.194321	-0.156501	-0.201390
V13	V	2.555764	-0.175839	-0.396253
O14	O	2.535283	0.008449	-0.388714
O15	O	2.544149	-0.348659	-0.393540
O16	O	2.544155	-0.173135	-0.569075
O17	O	2.535277	-0.168290	-0.211964
V18	V	2.794315	-0.153796	-0.374211
O19	O	2.693434	-0.224192	-0.444604
O20	O	2.881744	-0.105443	-0.325860
O21	O	2.694327	0.019023	-0.376925
O22	O	2.873494	-0.338084	-0.381751
O23	O	2.873500	-0.161345	-0.558501
O24	O	2.694321	-0.156501	-0.201390
C25	C	1.969304	-0.390789	-0.387288
C26	C	2.000535	-0.532071	-0.386222
C27	C	1.969311	-0.166889	-0.611198
C28	C	2.000544	-0.165821	-0.752481
C29	C	1.985121	-0.580305	-0.269341
C30	C	2.014473	-0.713058	-0.268354
C31	C	2.074649	-0.749330	-0.501138
C32	C	2.045304	-0.616581	-0.502124
C33	C	1.950375	-0.559364	-0.134945
C34	C	1.979727	-0.692117	-0.133957
C35	C	1.985133	-0.048933	-0.800700
C36	C	2.014468	-0.047927	-0.933448
C37	C	2.074629	-0.280709	-0.969749
C38	C	2.045287	-0.281713	-0.837002
C39	C	1.950405	0.085462	-0.779743
C40	C	1.979739	0.086468	-0.912492
C41	C	2.100843	0.061146	-0.383173
C42	C	2.059232	0.202427	-0.384248
C43	C	2.469304	-0.390789	-0.387288
C44	C	2.500535	-0.532071	-0.386222
C45	C	2.607211	-0.604919	-0.392060
C46	C	2.636552	-0.737670	-0.391069
C47	C	2.452530	-0.724712	-0.378395
C48	C	2.423192	-0.591965	-0.379395
C49	C	2.713454	-0.612400	-0.399372
C50	C	2.742795	-0.745151	-0.398381
C51	C	2.100836	-0.162751	-0.159260
C52	C	2.059221	-0.163812	-0.017976
C53	C	2.469311	-0.166889	-0.611198
C54	C	2.500544	-0.165821	-0.752481
C55	C	2.600843	0.061146	-0.383173
C56	C	2.559232	0.202427	-0.384248
C57	C	2.600836	-0.162751	-0.159260
C58	C	2.559221	-0.163812	-0.017976
C59	C	2.607221	-0.171658	-0.825328
C60	C	2.636556	-0.170629	-0.958073
C61	C	2.452528	-0.157933	-0.945113
C62	C	2.423192	-0.158952	-0.812368
C63	C	2.713470	-0.178993	-0.832813
C64	C	2.742805	-0.177965	-0.965558
H65	H	2.057866	-0.577316	-0.597300
H66	H	1.858469	0.141661	-0.730700
H67	H	2.336333	-0.532659	-0.374656
H68	H	1.903716	-0.715135	-0.077229
C69	C	2.132858	0.056158	-0.780543
C70	C	2.021949	0.134554	-0.722301
H71	H	2.177027	0.086470	-0.745086
H72	H	2.141189	-0.029674	-0.765608
H73	H	2.155578	0.058530	-0.870436
H74	H	1.999226	0.132175	-0.632409
H75	H	2.013612	0.220409	-0.737226
H76	H	2.389554	-0.152338	-0.993889
C77	C	2.109023	-0.645757	-0.052215
C78	C	2.075838	-0.745859	-0.084011
H79	H	2.168354	-0.678939	-0.021377
H80	H	2.132414	-0.607506	-0.126349
H81	H	2.048809	-0.582947	0.012663
H82	H	2.136050	-0.808664	-0.148897
H83	H	2.052451	-0.784129	-0.009868
C84	C	2.886648	-0.864231	-0.322953
C85	C	2.777401	-0.778884	-0.281174
H86	H	2.908003	-0.885052	-0.250592
H87	H	2.892303	-0.940408	-0.370519
H88	H	2.933730	-0.825102	-0.376067
H89	H	2.730318	-0.818017	-0.228068
H90	H	2.771737	-0.702694	-0.233587
H91	H	2.045011	0.133457	-0.945449
C92	C	2.763904	0.009109	-0.863427
C93	C	2.726603	-0.062545	-0.769223
H94	H	2.772003	0.081001	-0.824165
H95	H	2.833096	-0.043272	-0.924393
H96	H	2.711898	0.038211	-0.905596
H97	H	2.778613	-0.091655	-0.727061
H98	H	2.657401	-0.010154	-0.708235
H99	H	1.857615	-0.506563	-0.088529
C100	C	1.825746	0.277483	-0.890752
C101	C	1.879092	0.149979	-0.952376
H102	H	1.763616	0.316687	-0.915384
H103	H	1.802025	0.278942	-0.800274
H104	H	1.875416	0.323296	-0.914826
H105	H	1.829424	0.104163	-0.928294
H106	H	1.902811	0.148513	-1.042874
H107	H	2.336329	-0.154201	-0.753060
C108	C	2.808163	-0.369946	-1.117416
C109	C	2.839784	-0.302008	-1.036941
H110	H	2.868032	-0.446517	-1.161496
H111	H	2.746892	-0.391242	-1.067254
H112	H	2.788140	-0.318159	-1.178090
H113	H	2.859800	-0.353791	-0.976260
H114	H	2.901074	-0.280715	-1.087106
H115	H	2.761166	-0.273772	-0.808348
H116	H	2.111103	-0.818154	-0.595501
C117	C	2.267686	-0.698569	-0.365970
C118	C	2.367517	-0.790549	-0.370883
H119	H	2.215204	-0.739216	-0.361338
H120	H	2.240825	-0.635460	-0.292169
H121	H	2.279326	-0.658667	-0.441084
H122	H	2.355879	-0.830445	-0.295765
H123	H	2.394383	-0.853681	-0.444691
C124	C	2.790622	-0.902347	-0.580832
C125	C	2.831768	-0.823285	-0.525473
H126	H	2.845547	-0.950579	-0.659294
H127	H	2.771279	-0.959367	-0.523507
H128	H	2.727142	-0.850708	-0.597258
H129	H	2.895244	-0.874926	-0.509038
H130	H	2.851126	-0.766259	-0.582810
H131	H	2.769387	-0.593180	-0.491801
H132	H	2.713488	-0.559173	-0.309764
C133	C	2.107897	-0.511717	-0.886236
C134	C	2.062361	-0.410209	-0.784008
H135	H	2.118485	-0.591050	-0.853521
H136	H	2.059203	-0.502531	-0.933059
H137	H	2.176898	-0.510422	-0.941448
H138	H	1.993357	-0.411498	-0.728801
H139	H	2.111057	-0.419398	-0.737165
H140	H	1.999704	-0.520269	-0.088473
H141	H	2.761037	-0.087727	-0.994662
H142	H	2.111060	-0.375064	-1.038582
