data_functionalizedCrystal
_audit_creation_method	'MofGen! by Chris Wilmer'
_symmetry_space_group_name_H-M	'P1'
_symmetry_Int_Tables_number	1
_symmetry_cell_setting	triclinic
loop_
_symmetry_equiv_pos_as_xyz
  x,y,z
_cell_length_a	29.839125
_cell_length_b	19.805407
_cell_length_c	19.805405
_cell_angle_alpha	89.974605
_cell_angle_beta	89.982556
_cell_angle_gamma	90.014690
loop_
_atom_site_label
_atom_site_type_symbol
_atom_site_fract_x
_atom_site_fract_y
_atom_site_fract_z
Zn1	Zn	-0.254039	-1.034693	-0.269576
Zn2	Zn	-0.178909	-1.034620	-0.382741
Zn3	Zn	-0.178918	-0.921520	-0.269570
Zn4	Zn	-0.254007	-0.921471	-0.382727
O5	O	-0.216468	-0.978076	-0.326154
O6	O	-0.244082	-1.129400	-0.284597
O7	O	-0.116043	-1.019608	-0.367732
O8	O	-0.188900	-0.936584	-0.174854
O9	O	-0.188885	-1.129347	-0.367739
O10	O	-0.244091	-1.019731	-0.174859
O11	O	-0.116049	-0.936513	-0.284585
O12	O	-0.188869	-0.826797	-0.284571
O13	O	-0.316878	-0.936500	-0.367714
O14	O	-0.244036	-0.826761	-0.367707
O15	O	-0.316901	-1.019684	-0.284583
O16	O	-0.188854	-1.019560	-0.477456
O17	O	-0.244028	-0.936430	-0.477445
C18	C	-0.216450	-0.802220	-0.326137
C19	C	-0.216454	-0.726988	-0.326147
C20	C	-0.245132	-0.691643	-0.369500
C21	C	-0.245137	-0.620955	-0.369500
C22	C	-0.216461	-0.585613	-0.326150
C23	C	-0.187781	-0.620963	-0.282791
C24	C	-0.187779	-0.691650	-0.282789
C25	C	-0.187791	-0.335890	-0.282801
C26	C	-0.187795	-0.265197	-0.282809
C27	C	-0.245150	-0.265194	-0.369513
C28	C	-0.245147	-0.335881	-0.369510
C29	C	-0.216469	-0.371225	-0.326150
C30	C	-0.216465	-0.447874	-0.326149
C31	C	-0.216463	-0.508966	-0.326153
C32	C	-0.333646	-0.978095	-0.326147
C33	C	-0.383581	-0.978102	-0.326145
C34	C	-0.693239	-1.021462	-0.282745
C35	C	-0.880913	-1.021495	-0.282687
O36	O	-0.905190	-1.058310	-0.245852
N37	N	-0.904366	-0.978192	-0.325964
C38	C	-0.880898	-0.934874	-0.369254
O39	O	-0.905153	-0.898038	-0.406057
C40	C	-0.693226	-0.934838	-0.369308
C41	C	-0.669775	-0.978149	-0.326034
C42	C	-0.669788	-1.064768	-0.239474
C43	C	-0.622873	-1.064762	-0.239491
C44	C	-0.599408	-1.021449	-0.282780
C45	C	-0.622860	-0.978142	-0.326051
C46	C	-0.669759	-0.891517	-0.412595
C47	C	-0.622838	-0.891511	-0.412603
C48	C	-0.599387	-0.934822	-0.369329
C49	C	-0.552480	-0.934823	-0.369357
N50	N	-0.529026	-0.978126	-0.326081
C51	C	-0.552491	-1.021439	-0.282793
C52	C	-0.979429	-0.934898	-0.369224
C53	C	-1.026347	-0.934907	-0.369211
C54	C	-1.026358	-1.021527	-0.282644
C55	C	-0.979439	-1.021521	-0.282660
C56	C	-0.955976	-0.978201	-0.325948
C57	C	-0.453965	-1.021423	-0.282833
C58	C	-0.407045	-1.021415	-0.282856
C59	C	-0.407038	-0.934793	-0.369421
C60	C	-0.453954	-0.934803	-0.369401
C61	C	-0.477416	-0.978121	-0.326101
O62	O	-0.528173	-0.898022	-0.406169
O63	O	-0.528228	-1.058259	-0.245985
C64	C	-0.740155	-1.021468	-0.282728
C65	C	-0.763606	-0.978161	-0.325999
C66	C	-0.740142	-0.934848	-0.369287
C67	C	-0.810524	-0.978171	-0.325986
C68	C	-0.833988	-1.021484	-0.282698
C69	C	-0.810535	-1.064787	-0.239422
C70	C	-0.763619	-1.064781	-0.239439
C71	C	-0.763595	-0.891545	-0.412564
C72	C	-0.810511	-0.891555	-0.412543
C73	C	-0.833975	-0.934868	-0.369255
C74	C	-0.099745	-0.978097	-0.326111
C75	C	-0.049811	-0.978220	-0.325923
C76	C	-0.216446	-0.978000	-0.502010
C77	C	-0.216452	-0.978029	-0.577242
C78	C	-0.216481	-0.154619	-0.326166
C79	C	-0.216476	-0.229851	-0.326160
C80	C	-0.187753	-1.021357	-0.612569
C81	C	-0.187763	-1.021386	-0.683257
C82	C	-0.216470	-0.978083	-0.718617
C83	C	-0.245172	-0.934753	-0.683285
C84	C	-0.245164	-0.934728	-0.612598
C85	C	-0.245205	-0.934853	-0.968358
C86	C	-0.245210	-0.934880	-1.039050
C87	C	-0.187804	-1.021511	-1.039018
C88	C	-0.187796	-1.021486	-0.968330
C89	C	-0.216500	-0.978159	-0.933004
C90	C	-0.216489	-0.978129	-0.856356
C91	C	-0.216478	-0.978109	-0.795264
C92	C	-0.216500	-0.978171	-0.149611
C93	C	-0.216513	-0.978212	-0.074379
H94	H	-0.268482	-0.720413	-0.404804
Br95	Br	-1.058211	-1.080309	-0.223895
Br96	Br	-0.284061	-0.572988	-0.428338
H97	H	-0.960329	-0.899622	-0.404478
Br98	Br	-0.148850	-1.080315	-1.086964
Br99	Br	-0.148874	-0.217233	-0.223972
H100	H	-0.268548	-0.899498	-0.712081
H101	H	-0.164374	-1.056617	-0.583783
Br102	Br	-0.148815	-1.080195	-0.731199
H103	H	-0.164436	-0.364658	-0.247500
Br104	Br	-0.284117	-0.875928	-0.564653
Br105	Br	-0.284070	-0.217224	-0.428362
H106	H	-0.688845	-0.856249	-0.447833
Br107	Br	-0.842389	-1.123572	-0.180677
H108	H	-1.045437	-0.899647	-0.404457
H109	H	-0.268497	-0.364653	-0.404813
H110	H	-0.164434	-0.592182	-0.247492
Br111	Br	-0.485781	-0.876029	-0.428135
H112	H	-0.829601	-0.856288	-0.447789
H113	H	-0.164428	-0.720427	-0.247482
H114	H	-0.387953	-1.056687	-0.247617
Br115	Br	-0.590998	-0.832714	-0.471352
Br116	Br	-0.284172	-0.876107	-1.087039
H117	H	-0.473062	-1.056694	-0.247572
H118	H	-0.960348	-1.056787	-0.247421
Br119	Br	-0.148834	-1.080255	-0.920345
H120	H	-0.603783	-1.100029	-0.204252
H121	H	-0.688888	-1.100039	-0.204219
H122	H	-0.744495	-0.856275	-0.447816
H123	H	-0.268576	-0.899573	-0.939601
H124	H	-0.387925	-0.899531	-0.404668
H125	H	-0.744530	-1.100049	-0.204200
