data_functionalizedCrystal
_audit_creation_method	'MofGen! by Chris Wilmer'
_symmetry_space_group_name_H-M	'P1'
_symmetry_Int_Tables_number	1
_symmetry_cell_setting	triclinic
loop_
_symmetry_equiv_pos_as_xyz
  x,y,z
_cell_length_a	20.919309
_cell_length_b	19.377369
_cell_length_c	19.377372
_cell_angle_alpha	62.058157
_cell_angle_beta	89.208239
_cell_angle_gamma	45.771252
loop_
_atom_site_label
_atom_site_type_symbol
_atom_site_fract_x
_atom_site_fract_y
_atom_site_fract_z
Zr1	Zr	0.533632	0.707127	0.072388
O2	O	0.375632	0.907045	-0.030446
O3	O	0.594937	0.549310	0.082955
O4	O	0.536301	0.753898	-0.056253
O5	O	0.465883	0.650882	0.242411
O6	O	0.648399	0.742901	-0.052769
O7	O	0.434269	0.702457	0.108761
O8	O	0.753290	0.376931	0.196248
O9	O	0.360992	1.016852	-0.006606
O10	O	0.689192	0.590423	0.115382
O11	O	0.629128	0.560141	0.212523
O12	O	0.560090	0.801016	0.048624
O13	O	0.500026	0.770734	0.145766
Zr14	Zr	0.762837	0.607334	0.291101
Zr15	Zr	0.712416	0.689589	0.077945
Zr16	Zr	0.584053	0.624872	0.285544
Zr17	Zr	0.510284	0.882258	0.110411
Zr18	Zr	0.786186	0.432203	0.253078
O19	O	0.701532	0.765151	0.280534
O20	O	0.629840	0.882107	-0.022546
O21	O	0.447324	0.790088	0.272634
O22	O	0.920837	0.407416	0.393935
O23	O	0.849145	0.524373	0.090855
O24	O	0.666629	0.432354	0.386035
O25	O	0.830586	0.663579	0.121078
O26	O	0.760169	0.560563	0.419742
O27	O	0.648070	0.571559	0.416258
O28	O	0.862200	0.612004	0.254728
O29	O	0.503102	1.002912	-0.002189
O30	O	0.793367	0.311549	0.365678
O31	O	0.935477	0.297609	0.370095
O32	O	0.895399	0.362991	0.200664
O33	O	0.401070	0.951470	0.162825
O34	O	0.543180	0.937530	0.167241
O35	O	0.736379	0.513445	0.314864
O36	O	0.796443	0.543727	0.217723
O37	O	0.667341	0.754320	0.150966
O38	O	0.607277	0.724037	0.248107
C39	C	0.677440	0.438168	0.134184
C40	C	0.687352	0.363821	0.118042
C41	C	0.563608	0.039811	0.318781
C42	C	0.573053	-0.030179	0.303688
C43	C	0.635756	0.001443	0.202280
C44	C	0.626321	0.071433	0.217368
C45	C	0.590245	0.090612	0.275618
C46	C	0.652958	0.122233	0.174205
C47	C	0.643518	0.192222	0.189288
C48	C	0.607442	0.211410	0.247534
C49	C	0.580806	0.160600	0.290702
C50	C	0.689026	0.103060	0.115950
C51	C	0.715664	0.153861	0.072787
C52	C	0.706231	0.223843	0.087875
C53	C	0.670155	0.243032	0.146121
C54	C	0.732867	0.274653	0.044708
C55	C	0.723428	0.344642	0.059791
C56	C	0.660715	0.313020	0.161204
C57	C	0.424603	0.679168	0.174794
C58	C	0.348704	0.686614	0.172436
C59	C	0.380433	0.580189	0.206169
C60	C	0.309114	0.587191	0.203952
C61	C	0.206066	0.700622	0.167995
C62	C	0.174337	0.807055	0.134261
C63	C	0.245657	0.800049	0.136484
C64	C	-0.012644	0.727273	0.159543
C65	C	-0.083964	0.734272	0.157320
C66	C	0.050819	0.514407	0.227013
C67	C	0.122132	0.507413	0.229228
C68	C	0.090399	0.613844	0.195499
C69	C	0.133164	0.707784	0.165725
C70	C	0.163302	0.606679	0.197775
C71	C	0.871866	0.635293	0.188695
C72	C	0.947765	0.627847	0.191053
C73	C	0.585166	0.760119	-0.084881
C74	C	0.563761	0.795039	-0.175371
C75	C	0.619029	0.876293	0.229305
C76	C	0.609117	0.950640	0.245447
C77	C	0.830283	0.360263	-0.298754
C78	C	0.810148	0.393105	-0.383793
C79	C	0.675376	0.612948	-0.453473
C80	C	0.695502	0.580124	-0.368438
C81	C	0.772956	0.453780	-0.291084
C82	C	0.638176	0.673641	-0.360768
C83	C	0.658298	0.640820	-0.275741
C84	C	0.735746	0.514482	-0.198384
C85	C	0.793078	0.420959	-0.206057
C86	C	0.560717	0.799985	-0.438124
C87	C	0.503391	0.893502	-0.430454
C88	C	0.523517	0.860681	-0.345426
C89	C	0.600966	0.734343	-0.268068
C90	C	0.466185	0.954204	-0.337753
C91	C	0.486307	0.921383	-0.252726
C92	C	0.621087	0.701522	-0.183041
C93	C	0.711303	0.554342	0.448370
C94	C	0.732708	0.519422	0.538860
C95	C	0.901072	0.416231	0.141134
C96	C	0.986883	0.334437	0.127351
C97	C	0.740509	0.335279	0.400809
C98	C	0.771826	0.226012	0.475158
C99	C	0.964140	0.313342	0.407759
C100	C	1.071356	0.196629	0.484467
C101	C	0.332329	1.001119	-0.044270
C102	C	0.225113	1.117832	-0.120978
C103	C	0.395397	0.898230	0.222355
C104	C	0.309587	0.980024	0.236138
C105	C	0.555960	0.979182	-0.037320
C106	C	0.524643	1.088449	-0.111669
C107	C	0.971194	0.320405	0.067448
C108	C	1.051809	0.243569	0.054480
C109	C	1.148115	0.180761	0.101419
C110	C	1.163801	0.194800	0.161325
C111	C	1.083184	0.271641	0.174288
C112	C	0.842519	0.150321	0.563503
C113	C	0.871942	0.047660	0.633371
C114	C	0.830676	0.020687	0.614892
C115	C	0.759975	0.096389	0.526539
C116	C	0.730547	0.199054	0.456673
C117	C	1.153066	0.157626	0.469783
C118	C	1.253810	0.047974	0.541852
C119	C	1.272843	-0.022678	0.628603
C120	C	1.191123	0.016334	0.643286
C121	C	1.090380	0.125988	0.571219
C122	C	0.143402	1.156844	-0.106292
C123	C	0.042655	1.266517	-0.178356
C124	C	0.023622	1.337173	-0.265106
C125	C	0.105343	1.298157	-0.279791
C126	C	0.206087	1.188490	-0.207726
C127	C	0.325272	0.994067	0.296033
C128	C	0.244649	1.070931	0.308983
C129	C	0.148342	1.133743	0.262041
C130	C	0.132658	1.119699	0.202138
C131	C	0.213278	1.042843	0.189185
C132	C	0.565928	1.115386	-0.093162
C133	C	0.536522	1.218041	-0.163014
C134	C	0.465825	1.293761	-0.251371
C135	C	0.424541	1.266816	-0.269877
C136	C	0.453953	1.164158	-0.200027
H137	H	0.551356	-0.071538	0.338838
C138	C	0.210770	0.917096	0.099420
H139	H	0.268009	0.896671	0.105915
H140	H	0.160244	0.981629	0.037634
H141	H	0.182553	0.945182	0.131876
H142	H	1.213749	0.118194	0.090857
C143	C	0.590187	0.751916	-0.538563
H144	H	0.586416	0.758071	-0.590301
H145	H	0.526284	0.795590	-0.540173
H146	H	0.605319	0.787817	-0.537714
H147	H	0.892781	0.371550	0.029211
C148	C	1.034542	0.228127	-0.011406
H149	H	0.965645	0.276522	-0.037489
H150	H	1.047348	0.256048	-0.057394
H151	H	1.079972	0.142275	0.020028
H152	H	1.354878	-0.111963	0.687277
C153	C	0.346769	1.350123	-0.367069
H154	H	0.335163	1.415125	-0.406009
H155	H	0.373236	1.300760	-0.384764
H156	H	0.283911	1.385908	-0.370396
C157	C	0.196017	1.027388	0.123310
H158	H	0.127116	1.075796	0.097220
H159	H	0.208837	1.055291	0.077327
H160	H	0.241438	0.941538	0.154749
C161	C	1.100458	0.287051	0.240194
H162	H	1.169364	0.238625	0.266296
H163	H	1.055040	0.372889	0.208784
H164	H	1.087650	0.259115	0.286178
H165	H	0.534232	0.055427	0.366215
C166	C	0.949720	-0.035605	0.730548
H167	H	0.970091	-0.004844	0.731538
H168	H	0.918869	-0.034092	0.767205
H169	H	1.008199	-0.119250	0.752846
H170	H	1.206635	-0.041207	0.713928
C171	C	0.887906	0.179984	0.583849
H172	H	0.934209	0.120203	0.646476
H173	H	0.923431	0.176445	0.551653
H174	H	0.834071	0.261605	0.565989
C175	C	0.408518	1.134550	-0.220387
H176	H	0.436154	1.062567	-0.166139
H177	H	0.336025	1.203988	-0.246616
H178	H	0.425360	1.118813	-0.260964
C179	C	0.873211	0.290232	-0.392229
H180	H	0.850131	0.327871	-0.453946
H181	H	0.943708	0.235805	-0.362751
H182	H	0.864679	0.243568	-0.365206
H183	H	0.665125	-0.014177	0.154849
C184	C	0.699410	0.026077	0.099353
H185	H	0.724696	0.021945	0.058471
H186	H	0.745772	-0.056305	0.154606
H187	H	0.634155	0.065119	0.074726
C188	C	0.621057	0.334099	0.225296
H189	H	0.619263	0.383046	0.228103
H190	H	0.553919	0.376832	0.203737
H191	H	0.665547	0.255409	0.283600
H192	H	0.441885	1.377348	-0.308239
C193	C	0.261923	1.086351	0.374884
H194	H	0.330832	1.037914	0.400994
H195	H	0.216512	1.172188	0.343467
H196	H	0.249100	1.058434	0.420862
C197	C	0.643697	1.032107	0.004021
H198	H	0.664073	1.062858	0.005025
H199	H	0.612841	1.033619	0.040673
H200	H	0.702173	0.948464	0.026314
H201	H	1.023855	0.157730	0.583187
C202	C	1.343686	0.005073	0.525683
H203	H	1.317917	0.062848	0.463692
H204	H	1.379132	0.001660	0.560078
H205	H	1.389449	-0.075755	0.543289
C206	C	0.541148	0.181679	0.354793
H207	H	0.539354	0.230626	0.357600
H208	H	0.474010	0.224412	0.333235
H209	H	0.585637	0.102989	0.413097
C210	C	0.755348	0.132754	0.008719
H211	H	0.757162	0.083789	0.005921
H212	H	0.710888	0.211424	-0.049584
H213	H	0.822497	0.090000	0.030309
C214	C	0.581930	1.247672	-0.142641
H215	H	0.628229	1.187884	-0.080012
H216	H	0.617462	1.244124	-0.174830
H217	H	0.528103	1.329291	-0.160497
H218	H	0.762231	0.259038	-0.002727
C219	C	0.863060	-0.092252	0.691750
H220	H	0.911081	-0.133469	0.747008
H221	H	0.804381	-0.063914	0.695008
H222	H	0.893723	-0.149066	0.680655
H223	H	1.137588	0.215138	0.399151
H224	H	0.247207	0.514322	0.227055
C225	C	0.714603	0.066696	0.506221
H226	H	0.742271	-0.005299	0.560487
H227	H	0.642108	0.136099	0.479994
H228	H	0.731465	0.050938	0.465657
C229	C	0.752740	0.400511	0.012323
H230	H	0.775589	0.379052	-0.024520
H231	H	0.694562	0.489178	-0.023841
H232	H	0.806171	0.367749	0.056052
C233	C	0.652792	0.282298	0.359496
H234	H	0.632443	0.251515	0.358504
H235	H	0.594310	0.365945	0.337183
H236	H	0.683663	0.280768	0.322850
H237	H	-0.058415	1.426468	-0.323778
H238	H	0.089833	1.355698	-0.350431
H239	H	0.158881	1.099322	-0.035662
H240	H	0.440326	0.996371	-0.493446
H241	H	-0.023872	1.298264	-0.166383
H242	H	0.599752	0.268406	0.259810
H243	H	0.272615	1.156732	-0.219695
H244	H	0.464339	0.487819	0.235454
C245	C	0.344017	0.470127	0.241050
H246	H	0.415600	0.401574	0.262771
H247	H	0.330143	0.450101	0.288738
H248	H	0.307850	0.486480	0.194518
H249	H	0.403684	0.942926	0.334268
H250	H	0.206033	0.415053	0.258489
H251	H	0.076645	0.427758	0.254474
H252	H	0.082705	1.196320	0.272596
H253	H	0.054235	1.170852	0.163921
H254	H	-0.167876	0.826647	0.128035
H255	H	-0.038498	0.813943	0.132060
H256	H	0.090430	0.899410	0.104989
H257	H	0.049254	0.800140	0.136449
H258	H	0.544336	0.826703	-0.507356
C259	C	0.878279	0.281982	-0.120963
H260	H	0.909541	0.230981	-0.137705
H261	H	0.928434	0.260738	-0.085119
H262	H	0.849413	0.268489	-0.087575
C263	C	0.706304	0.562545	-0.097944
H264	H	0.710082	0.556397	-0.046209
H265	H	0.691212	0.526602	-0.098772
H266	H	0.770201	0.518904	-0.096347
C267	C	0.915484	0.221286	-0.213660
H268	H	0.946745	0.170286	-0.230402
H269	H	0.965639	0.200042	-0.177816
H270	H	0.886618	0.207793	-0.180272
H271	H	0.752123	0.487763	-0.129151
H272	H	0.439623	0.997534	-0.246483
H273	H	0.403116	1.057073	-0.400746
H274	H	1.242223	0.143651	0.199539
