data_functionalizedCrystal
_audit_creation_method	'MofGen! by Chris Wilmer'
_symmetry_space_group_name_H-M	'P1'
_symmetry_Int_Tables_number	1
_symmetry_cell_setting	triclinic
loop_
_symmetry_equiv_pos_as_xyz
  x,y,z
_cell_length_a	12.759401
_cell_length_b	25.639240
_cell_length_c	12.759393
_cell_angle_alpha	90.044235
_cell_angle_beta	90.019377
_cell_angle_gamma	90.034465
loop_
_atom_site_label
_atom_site_type_symbol
_atom_site_fract_x
_atom_site_fract_y
_atom_site_fract_z
Zn1	Zn	1.606124	-0.208096	0.593914
Zn2	Zn	1.605963	-0.295543	0.418195
Zn3	Zn	1.430426	-0.208126	0.418250
Zn4	Zn	1.430359	-0.295505	0.593834
O5	O	1.518218	-0.251817	0.506048
O6	O	1.753123	-0.219700	0.570614
O7	O	1.582638	-0.283975	0.271181
O8	O	1.453828	-0.134957	0.441609
O9	O	1.753005	-0.283946	0.441515
O10	O	1.582912	-0.134935	0.570668
O11	O	1.453671	-0.219750	0.271222
O12	O	1.283396	-0.219713	0.441531
O13	O	1.453714	-0.283882	0.740865
O14	O	1.283347	-0.283911	0.570532
O15	O	1.582847	-0.219663	0.740924
O16	O	1.582573	-0.368703	0.441437
O17	O	1.453558	-0.368675	0.570478
C18	C	1.245250	-0.251812	0.506030
C19	C	1.128474	-0.251822	0.506047
C20	C	1.518069	-0.387660	0.505966
C21	C	1.518102	-0.445774	0.505966
C22	C	0.963954	-0.218427	0.573385
C23	C	1.073678	-0.218425	0.573373
C24	C	1.073539	-0.285225	0.438734
C25	C	0.963817	-0.285229	0.438752
C26	C	0.964035	-0.179859	0.651114
C27	C	1.073759	-0.179857	0.651103
C28	C	1.585465	-0.806087	0.573370
C29	C	1.585496	-0.860692	0.573392
O30	O	1.642595	-0.888886	0.630617
N31	N	1.518363	-0.888057	0.506150
C32	C	1.451188	-0.860814	0.438889
O33	O	1.394088	-0.889104	0.381697
C34	C	1.451152	-0.806211	0.438874
C35	C	1.518297	-0.778849	0.506113
C36	C	1.652604	-0.778725	0.640605
C37	C	1.652574	-0.724125	0.640582
C38	C	1.585406	-0.696886	0.573324
C39	C	1.518267	-0.724248	0.506090
C40	C	1.383972	-0.778970	0.371620
C41	C	1.383941	-0.724363	0.371611
C42	C	1.451086	-0.697001	0.438850
C43	C	1.451069	-0.642409	0.438810
N44	N	1.518202	-0.615045	0.506052
C45	C	1.585370	-0.642283	0.573309
C46	C	1.451266	-0.975485	0.438928
C47	C	1.451306	-1.030087	0.438937
C48	C	1.585614	-1.029961	0.573441
C49	C	1.585578	-0.975357	0.573426
C50	C	1.518399	-0.948120	0.506170
C51	C	1.585303	-0.527618	0.573255
C52	C	1.585270	-0.473012	0.573223
C53	C	1.450959	-0.473144	0.438723
C54	C	1.450995	-0.527744	0.438751
C55	C	1.518171	-0.554980	0.506025
O56	O	1.393997	-0.614180	0.381617
O57	O	1.642450	-0.613986	0.630501
C58	C	1.792251	-0.251824	0.506067
C59	C	1.909027	-0.251827	0.506075
C60	C	1.518291	-0.251765	0.780082
C61	C	1.518323	-0.251742	0.896858
C62	C	1.518395	-0.115444	0.506154
C63	C	1.518471	-0.057330	0.506199
C64	C	1.518205	-0.251832	0.233081
C65	C	1.518377	-0.251707	0.116305
C66	C	1.585572	-0.218300	0.951753
C67	C	1.585597	-0.218281	1.061477
C68	C	1.451120	-0.285151	1.061403
C69	C	1.451091	-0.285167	0.951680
C70	C	1.663214	-0.179695	0.951796
C71	C	1.663239	-0.179676	1.061521
H72	H	0.919100	-0.312431	0.383951
N73	N	1.311539	-0.808477	0.299114
H74	H	1.354258	-0.831137	0.250460
H75	H	1.268994	-0.782898	0.256585
N76	N	1.624732	-0.128711	1.106640
H77	H	1.681627	-0.112604	1.151221
H78	H	1.560647	-0.135319	1.151140
N79	N	1.725029	-0.808098	0.713180
H80	H	1.767539	-0.782471	0.755772
H81	H	1.773702	-0.830756	0.670491
H82	H	1.118162	-0.312421	0.383924
N83	N	1.657765	-0.556981	0.645814
H84	H	1.706495	-0.579635	0.603176
H85	H	1.614994	-0.579601	0.694472
N86	N	1.378611	-0.321205	1.120522
H87	H	1.303554	-0.313083	1.101421
H88	H	1.388913	-0.316108	1.198344
H89	H	1.744603	-0.190520	1.091295
H90	H	1.707246	-0.701850	0.695336
H91	H	1.641471	-0.139205	0.922058
H92	H	1.740476	-0.194210	0.917755
N93	N	0.924618	-0.194292	0.758839
H94	H	0.986170	-0.200733	0.806899
H95	H	0.880580	-0.226949	0.753950
N96	N	0.918971	-0.128889	0.612725
H97	H	0.874368	-0.135440	0.548640
H98	H	0.977957	-0.104281	0.594220
N99	N	1.311485	-0.694991	0.299058
H100	H	1.354192	-0.672341	0.250396
H101	H	1.262771	-0.672366	0.341772
H102	H	1.107811	-0.194405	0.728339
N103	N	1.113271	-0.126206	0.622432
H104	H	1.086962	-0.099957	0.675283
H105	H	1.086886	-0.116578	0.550367
H106	H	1.640253	-0.953082	0.628178
N107	N	1.657695	-0.443501	0.645746
H108	H	1.700245	-0.469045	0.688358
H109	H	1.614890	-0.420840	0.694321
H110	H	1.640304	-1.052148	0.628208
H111	H	1.396641	-1.052361	0.384173
H112	H	1.396564	-0.953311	0.384151
H113	H	1.396329	-0.550024	0.383991
H114	H	1.396274	-0.450958	0.383960
N115	N	1.378519	-0.321216	0.892471
H116	H	1.335927	-0.342383	0.943852
H117	H	1.421205	-0.345428	0.846909
