data_functionalizedCrystal
_audit_creation_method	'MofGen! by Chris Wilmer'
_symmetry_space_group_name_H-M	'P1'
_symmetry_Int_Tables_number	1
_symmetry_cell_setting	triclinic
loop_
_symmetry_equiv_pos_as_xyz
  x,y,z
_cell_length_a	6.817900
_cell_length_b	17.078472
_cell_length_c	10.992410
_cell_angle_alpha	95.080907
_cell_angle_beta	108.764651
_cell_angle_gamma	99.306020
loop_
_atom_site_label
_atom_site_type_symbol
_atom_site_fract_x
_atom_site_fract_y
_atom_site_fract_z
V1	V	-4.066459	-0.109767	-0.400464
O2	O	-4.074672	0.005275	-0.392974
O3	O	-3.997069	-0.217650	-0.397597
O4	O	-4.044786	-0.108079	-0.575179
O5	O	-4.026625	-0.105055	-0.214163
V6	V	-4.549343	-0.096007	-0.378196
O7	O	-4.329118	-0.139952	-0.449310
O8	O	-4.736882	-0.065822	-0.329351
O9	O	-4.395527	0.011876	-0.381063
O10	O	-4.658527	-0.211049	-0.385687
O11	O	-4.706574	-0.100719	-0.564497
O12	O	-4.347810	-0.097695	-0.203482
C13	C	-3.836098	-0.243950	-0.391247
C14	C	-3.860829	-0.332145	-0.390068
C15	C	-4.054756	-0.377620	-0.395918
C16	C	-4.077984	-0.460490	-0.394817
C17	C	-3.907279	-0.497882	-0.387858
C18	C	-3.713339	-0.452401	-0.382011
C19	C	-3.690117	-0.369534	-0.383121
C20	C	-3.957184	-0.745286	-0.383861
C21	C	-3.980420	-0.828159	-0.382748
C22	C	-4.345066	-0.836242	-0.395556
C23	C	-4.321823	-0.753373	-0.396657
C24	C	-4.127889	-0.707899	-0.390818
N25	N	-3.931016	-0.582587	-0.386729
N26	N	-4.104159	-0.623196	-0.391956
C27	C	-3.896966	-0.104180	-0.617768
C28	C	-3.960390	-0.103513	-0.760597
C29	C	-3.830158	-0.097439	-0.955727
C30	C	-3.764163	-0.098461	-0.807243
C31	C	-4.124349	-0.181738	-0.837609
C32	C	-4.188964	-0.181046	-0.986176
C33	C	-4.132676	-0.029574	-0.948322
C34	C	-4.062129	-0.029203	-0.799310
C35	C	-4.219838	0.038171	-0.387410
C36	C	-4.174347	0.126366	-0.388598
C37	C	-4.158971	-0.101597	-0.160886
C38	C	-4.074785	-0.102260	-0.018056
H39	H	-4.502961	-0.873275	-0.400310
H40	H	-4.310423	-0.032417	-0.989160
N41	N	-3.663526	-0.164887	-0.776002
N42	N	-3.597231	-0.177187	-0.660768
H43	H	-3.526156	-0.224104	-0.638702
H44	H	-3.640196	-0.042214	-0.753968
N45	N	-3.770341	-0.162945	-1.015872
N46	N	-3.802313	-0.171201	-1.135242
H47	H	-3.760078	-0.217466	-1.177727
H48	H	-3.737611	-0.040805	-0.974623
N49	N	-4.036845	-0.250962	-0.805446
N50	N	-4.143383	-0.319535	-0.856929
H51	H	-4.081575	-0.368424	-0.834218
H52	H	-3.532205	-0.332509	-0.378363
H53	H	-4.055624	0.029828	-0.968751
H54	H	-3.574353	-0.482853	-0.376353
N55	N	-4.139385	-0.250092	-1.044131
N56	N	-4.057391	-0.298453	-0.974785
H57	H	-4.022368	-0.347219	-1.015708
H58	H	-4.271886	-0.188260	-0.808798
N59	N	-4.413560	-0.189576	-1.039688
N60	N	-4.491520	-0.136013	-1.097196
H61	H	-4.650138	-0.142044	-1.134991
H62	H	-4.193761	-0.347181	-0.401573
H63	H	-3.944069	0.028664	-0.747020
N64	N	-4.276068	-0.506952	-0.400799
N65	N	-4.372932	-0.562854	-0.492588
H66	H	-4.512838	-0.595668	-0.496816
H67	H	-4.460838	-0.722935	-0.402334
N68	N	-3.806064	-0.866371	-0.375631
N69	N	-3.735146	-0.902948	-0.282604
H70	H	-3.612017	-0.929939	-0.277574
N71	N	-3.759068	-0.698860	-0.377881
N72	N	-3.596371	-0.696652	-0.282496
H73	H	-3.456438	-0.663863	-0.278274
N74	N	-4.240884	-0.028048	-0.758500
N75	N	-4.296464	-0.082219	-0.699964
H76	H	-4.422720	-0.081409	-0.671143
