data_functionalizedCrystal
_audit_creation_method	'MofGen! by Chris Wilmer'
_symmetry_space_group_name_H-M	'P1'
_symmetry_Int_Tables_number	1
_symmetry_cell_setting	triclinic
loop_
_symmetry_equiv_pos_as_xyz
  x,y,z
_cell_length_a	15.297328
_cell_length_b	15.298708
_cell_length_c	15.299448
_cell_angle_alpha	91.589441
_cell_angle_beta	91.593244
_cell_angle_gamma	107.408256
loop_
_atom_site_label
_atom_site_type_symbol
_atom_site_fract_x
_atom_site_fract_y
_atom_site_fract_z
Zn1	Zn	-0.065912	1.415675	-0.276902
Zn2	Zn	0.434088	1.915675	0.223098
Zn3	Zn	-0.244763	1.365335	-0.165662
Zn4	Zn	0.255237	1.865335	0.334338
Zn5	Zn	-0.116189	1.236845	-0.165645
Zn6	Zn	0.383811	1.736845	0.334355
Zn7	Zn	-0.236048	1.245500	-0.335680
Zn8	Zn	0.263952	1.745500	0.164320
O9	O	-0.165728	1.315839	-0.235972
O10	O	0.334272	1.815839	0.264028
O11	O	-0.072242	1.533989	-0.237554
O12	O	0.427758	2.033989	0.262446
O13	O	-0.252396	1.323601	-0.047945
O14	O	0.247604	1.823601	0.452055
O15	O	0.015492	1.278012	-0.155799
O16	O	0.515492	1.778012	0.344201
O17	O	-0.203644	1.497005	-0.155826
O18	O	0.296356	1.997005	0.344174
O19	O	0.052431	1.409398	-0.237539
O20	O	0.552431	1.909398	0.262461
O21	O	-0.157933	1.229200	-0.047933
O22	O	0.342067	1.729200	0.452067
O23	O	-0.149483	1.113001	-0.212793
O24	O	0.350517	1.613001	0.287207
O25	O	-0.188791	1.292764	-0.445598
O26	O	0.311209	1.792764	0.054402
O27	O	-0.237543	1.119360	-0.337716
O28	O	0.262457	1.619360	0.162284
O29	O	-0.063792	1.417790	-0.402414
O30	O	0.436208	1.917790	0.097586
O31	O	-0.368619	1.331994	-0.212820
O32	O	0.131381	1.831994	0.287180
O33	O	-0.362216	1.243952	-0.337732
O34	O	0.137784	1.743952	0.162268
C35	C	-0.198024	1.083772	-0.281632
C36	C	0.301976	1.583772	0.218368
C37	C	-0.211857	0.984493	-0.301189
C38	C	0.288143	1.484493	0.198811
C39	C	-0.067038	0.691424	-0.096444
C40	C	0.432962	1.191424	0.403556
C41	C	-0.054036	0.784702	-0.078068
C42	C	0.445964	1.284702	0.421932
C43	C	-0.093490	0.834654	-0.133847
C44	C	0.406510	1.334654	0.366153
C45	C	-0.145949	0.791320	-0.208004
C46	C	0.354051	1.291320	0.291996
C47	C	-0.158947	0.698035	-0.226385
C48	C	0.341053	1.198035	0.273615
C49	C	-0.185399	0.841265	-0.263788
C50	C	0.314601	1.341265	0.236212
C51	C	-0.237858	0.797931	-0.337945
C52	C	0.262142	1.297931	0.162055
C53	C	-0.250854	0.704654	-0.356322
C54	C	0.249146	1.204654	0.143678
C55	C	-0.211400	0.654702	-0.300544
C56	C	0.288600	1.154702	0.199456
C57	C	-0.172401	0.934550	-0.245407
C58	C	0.327599	1.434550	0.254593
C59	C	-0.264310	0.941161	-0.375348
C60	C	0.235690	1.441161	0.124652
C61	C	-0.277312	0.847883	-0.393723
C62	C	0.222688	1.347883	0.106277
C63	C	-0.397824	1.283477	-0.281670
C64	C	0.102176	1.783477	0.218330
C65	C	-0.497099	1.269721	-0.301231
C66	C	0.002901	1.769721	0.198769
C67	C	-0.540446	1.217366	-0.375434
C68	C	-0.040446	1.717366	0.124566
C69	C	-0.633717	1.204447	-0.393821
C70	C	-0.133717	1.704447	0.106179
C71	C	-0.683648	1.243887	-0.338009
C72	C	-0.183648	1.743887	0.161991
C73	C	-0.640299	1.296248	-0.263807
C74	C	-0.140299	1.796248	0.236193
C75	C	-0.547021	1.309163	-0.245416
C76	C	-0.047021	1.809163	0.254584
C77	C	-0.690223	1.335683	-0.207990
C78	C	-0.190223	1.835683	0.292010
C79	C	-0.646874	1.388044	-0.133789
C80	C	-0.146874	1.888044	0.366211
C81	C	-0.553605	1.400957	-0.115401
C82	C	-0.053605	1.900957	0.384599
C83	C	-0.503674	1.361517	-0.171212
C84	C	-0.003674	1.861517	0.328788
C85	C	-0.783501	1.322769	-0.226382
C86	C	-0.283501	1.822769	0.273618
C87	C	-0.790076	1.414565	-0.096363
C88	C	-0.290076	1.914565	0.403637
C89	C	-0.696805	1.427484	-0.077977
C90	C	-0.196805	1.927484	0.422023
C91	C	0.067282	1.348355	-0.190110
C92	C	0.567282	1.848355	0.309890
C93	C	0.166576	1.362211	-0.170567
C94	C	0.666576	1.862211	0.329433
C95	C	-0.119711	1.361858	-0.455381
C96	C	0.380289	1.861858	0.044619
C97	C	-0.100101	1.381469	-0.548880
C98	C	0.399899	1.881469	-0.048880
C99	C	-0.133307	1.548812	-0.190135
C100	C	0.366693	2.048812	0.309865
C101	C	-0.119491	1.648091	-0.170603
C102	C	0.380509	2.148091	0.329397
C103	C	-0.025806	1.455777	-0.570320
C104	C	0.474194	1.955777	-0.070320
C105	C	-0.007371	1.474197	-0.658166
C106	C	0.492629	1.974197	-0.158166
C107	C	-0.063234	1.418313	-0.724581
C108	C	0.436766	1.918313	-0.224581
C109	C	-0.137535	1.344007	-0.703143
C110	C	0.362465	1.844007	-0.203143
C111	C	-0.155967	1.325582	-0.615288
C112	C	0.344033	1.825582	-0.115288
C113	C	-0.193395	1.288118	-0.769550
C114	C	0.306605	1.788118	-0.269550
C115	C	-0.267696	1.213811	-0.748111
C116	C	0.232304	1.713811	-0.248111
C117	C	-0.286125	1.195390	-0.660264
C118	C	0.213875	1.695390	-0.160264
C119	C	-0.230263	1.251273	-0.593849
C120	C	0.269737	1.751273	-0.093849
C121	C	-0.174963	1.306543	-0.857404
C122	C	0.325037	1.806543	-0.357404
C123	C	-0.305124	1.176348	-0.902373
C124	C	0.194876	1.676348	-0.402373
C125	C	-0.323559	1.157928	-0.814526
C126	C	0.176441	1.657928	-0.314526
C127	C	-0.211495	1.270059	-0.017394
C128	C	0.288505	1.770059	0.482606
C129	C	-0.230829	1.250656	0.076188
C130	C	0.269171	1.750656	0.576188
H131	H	-0.293562	0.669377	-0.416710
H132	H	0.206438	1.169377	0.083290
H133	H	-0.129685	0.969824	-0.185029
H134	H	0.370315	1.469824	0.314971
H135	H	-0.661499	1.470117	-0.017561
H136	H	-0.161499	1.970117	0.482439
H137	H	-0.245270	1.236282	-0.522315
H138	H	0.254730	1.736282	-0.022315
H139	H	-0.669007	1.161807	-0.454231
H140	H	-0.169007	1.661807	0.045769
Cl141	Cl	-0.343264	0.793394	-0.486943
Cl142	Cl	0.156736	1.293394	0.013057
Cl143	Cl	-0.077144	0.951919	-0.110744
Cl144	Cl	0.422856	1.451919	0.389256
H145	H	-0.499788	1.185253	-0.420866
H146	H	0.000212	1.685253	0.079134
H147	H	-0.384055	1.097427	-0.797058
H148	H	0.115945	1.597427	-0.297058
Cl149	Cl	-0.852842	1.464143	-0.026191
Cl150	Cl	-0.352842	1.964143	0.473809
Cl151	Cl	-0.081559	1.399953	-0.884345
Cl152	Cl	0.418441	1.899953	-0.384345
H153	H	-0.346624	1.134882	-0.642813
H154	H	0.153376	1.634882	-0.142813
Cl155	Cl	-0.040060	1.441474	-0.835018
Cl156	Cl	0.459940	1.941474	-0.335018
H157	H	-0.350607	1.130838	-0.956450
H158	H	0.149393	1.630838	-0.456450
H159	H	-0.011327	0.819977	-0.017688
H160	H	0.488673	1.319977	0.482312
H161	H	-0.296433	0.981833	-0.420770
H162	H	0.203567	1.481833	0.079230
H163	H	-0.518313	1.443584	-0.054976
H164	H	-0.018313	1.943584	0.445024
Cl165	Cl	-0.837985	1.256947	-0.319661
Cl166	Cl	-0.337985	1.756947	0.180339
H167	H	-0.034915	0.650746	-0.051040
H168	H	0.465085	1.150746	0.448960
Cl169	Cl	-0.227738	0.537435	-0.323645
Cl170	Cl	0.272262	1.037435	0.176355
H171	H	0.053124	1.534698	-0.675614
H172	H	0.553124	2.034698	-0.175614
H173	H	-0.427723	1.372037	-0.156249
H174	H	0.072277	1.872037	0.343751
Cl175	Cl	-0.800890	1.227695	-0.361156
Cl176	Cl	-0.300890	1.727695	0.138844
H177	H	0.019673	1.501266	-0.516238
H178	H	0.519673	2.001266	-0.016238
