data_functionalizedCrystal
_audit_creation_method	'MofGen! by Chris Wilmer'
_symmetry_space_group_name_H-M	'P1'
_symmetry_Int_Tables_number	1
_symmetry_cell_setting	triclinic
loop_
_symmetry_equiv_pos_as_xyz
  x,y,z
_cell_length_a	13.339071
_cell_length_b	11.804783
_cell_length_c	16.109301
_cell_angle_alpha	103.294345
_cell_angle_beta	80.454621
_cell_angle_gamma	80.564407
loop_
_atom_site_label
_atom_site_type_symbol
_atom_site_fract_x
_atom_site_fract_y
_atom_site_fract_z
O1	O	1.323922	0.099057	-0.397573
O2	O	1.029414	0.099052	-0.342870
O3	O	1.184761	0.099042	-0.251061
O4	O	1.168576	0.099066	-0.489382
O5	O	1.221179	-0.098995	-0.289442
O6	O	1.065832	-0.098985	-0.381251
O7	O	1.360340	-0.098980	-0.435954
Cu8	Cu	1.216411	-0.117065	-0.412107
Cu9	Cu	1.173343	0.117137	-0.366717
O10	O	1.204994	-0.098971	-0.527763
C11	C	1.009937	0.000033	-0.352820
C12	C	0.897645	0.000031	-0.325276
N13	N	1.246711	-0.281790	-0.444033
C14	C	0.856978	0.000018	-0.239384
C15	C	0.751473	0.000021	-0.213502
C16	C	0.686627	0.000028	-0.273511
C17	C	0.727295	0.000033	-0.359406
C18	C	0.832809	0.000039	-0.385289
C19	C	0.662458	0.000049	-0.419416
C20	C	0.703126	0.000054	-0.505311
C21	C	0.808630	0.000059	-0.531190
C22	C	0.873476	0.000052	-0.471181
C23	C	0.556944	0.000044	-0.393533
C24	C	0.532775	0.000065	-0.539438
C25	C	0.638280	0.000061	-0.565320
C26	C	1.070256	-0.655830	-0.258105
C27	C	1.047315	-0.531180	-0.233943
C28	C	1.097162	-0.468826	-0.286464
C29	C	1.169954	-0.531135	-0.363150
C30	C	1.192903	-0.655797	-0.387311
C31	C	1.219809	-0.468793	-0.415670
C32	C	1.292601	-0.531102	-0.492356
C33	C	1.315545	-0.655752	-0.516513
C34	C	1.265699	-0.718105	-0.463992
C35	C	1.196860	-0.344131	-0.391509
C36	C	1.319507	-0.344098	-0.520715
C37	C	1.342447	-0.468748	-0.544877
C38	C	1.379817	0.000042	-0.426004
C39	C	1.492108	0.000052	-0.453546
C40	C	1.202315	0.000023	-0.239125
C41	C	1.200350	0.000022	-0.146377
N42	N	1.143052	0.281862	-0.334786
C43	C	1.187439	0.000051	-0.539698
C44	C	1.189403	0.000061	-0.632445
C45	C	1.287956	0.000042	0.055670
C46	C	1.286100	0.000052	0.142821
C47	C	1.101789	0.000044	0.165503
C48	C	1.103645	0.000043	0.078356
C49	C	1.196732	0.000036	0.023440
C50	C	1.193021	0.000047	0.197738
C51	C	1.191007	0.000057	0.292230
C52	C	1.198745	0.000027	-0.071058
H53	H	0.600721	0.000031	-0.252432
H54	H	1.284369	-0.819605	-0.483664
C55	C	1.352105	-0.305719	-0.661732
C56	C	1.374306	-0.275578	-0.578458
H57	H	1.385941	-0.263417	-0.697376
H58	H	1.279143	-0.285303	-0.657218
H59	H	1.376195	-0.388878	-0.687083
H60	H	1.350210	-0.192419	-0.553104
H61	H	1.447284	-0.295986	-0.582970
H62	H	0.718368	0.000019	-0.143566
C63	C	1.469946	0.000073	0.042011
C64	C	1.390271	0.000056	-0.004690
H65	H	1.533110	0.000093	0.004749
H66	H	1.478096	-0.068985	0.063088
H67	H	1.452671	0.069135	0.089860
H68	H	1.407543	-0.069012	-0.052535
H69	H	1.382122	0.069120	-0.025780
C70	C	1.029449	0.000017	-0.214290
C71	C	0.928256	0.000010	-0.173430
H72	H	1.073454	0.000005	-0.173568
H73	H	1.029064	0.069078	-0.235113
H74	H	1.054464	-0.069042	-0.261891
H75	H	0.903239	0.069074	-0.125833
H76	H	0.928638	-0.069059	-0.152594
C77	C	0.919792	0.000050	0.179172
C78	C	0.999471	0.000047	0.225867
H79	H	0.856623	0.000058	0.216441
H80	H	0.937047	-0.069007	0.131333
H81	H	0.911657	0.069114	0.158088
H82	H	1.007612	-0.069022	0.246946
H83	H	0.982213	0.069111	0.273723
C84	C	1.372218	0.101870	0.247379
C85	C	1.386377	0.000060	0.178245
H86	H	1.434131	0.101879	0.269243
H87	H	1.316529	0.101863	0.292553
H88	H	1.356409	0.170918	0.227220
H89	H	1.402179	-0.068988	0.198406
H90	H	1.442083	0.000056	0.133063
C91	C	1.504286	-0.608900	-0.608679
C92	C	1.422468	-0.537245	-0.629165
H93	H	1.553689	-0.651180	-0.660715
H94	H	1.477876	-0.663861	-0.580861
H95	H	1.536792	-0.560247	-0.570577
H96	H	1.389957	-0.585898	-0.667261
H97	H	1.448880	-0.482277	-0.656995
C98	C	0.997515	-0.290286	-0.181515
C99	C	1.071937	-0.331809	-0.259912
H100	H	0.981934	-0.205694	-0.165128
H101	H	1.024081	-0.318472	-0.137136
H102	H	0.936051	-0.318518	-0.189121
H103	H	1.133404	-0.303584	-0.252305
H104	H	1.045374	-0.303610	-0.304302
H105	H	0.959389	0.000043	-0.492252
C106	C	0.980081	0.101847	0.013240
C107	C	1.003362	0.000040	0.042925
H108	H	0.918169	0.101850	-0.008627
H109	H	1.035777	0.101839	-0.031933
H110	H	0.970490	0.170897	0.060156
H111	H	1.012961	-0.069011	-0.003992
H112	H	0.947652	0.000036	0.088103
H113	H	0.523842	0.000040	-0.323596
H114	H	1.029686	-0.706610	-0.215347
H115	H	0.841735	0.000080	-0.601128
H116	H	0.671407	0.000065	-0.635258
H117	H	0.479977	0.000071	-0.588302
H118	H	1.137591	-0.293412	-0.329071
H119	H	0.988051	-0.480458	-0.171504
H120	H	1.374826	-0.706480	-0.578950
