data_functionalizedCrystal
_audit_creation_method	'MofGen! by Chris Wilmer'
_symmetry_space_group_name_H-M	'P1'
_symmetry_Int_Tables_number	1
_symmetry_cell_setting	triclinic
loop_
_symmetry_equiv_pos_as_xyz
  x,y,z
_cell_length_a	19.188931
_cell_length_b	15.944551
_cell_length_c	15.021413
_cell_angle_alpha	89.996935
_cell_angle_beta	89.994243
_cell_angle_gamma	96.678241
loop_
_atom_site_label
_atom_site_type_symbol
_atom_site_fract_x
_atom_site_fract_y
_atom_site_fract_z
O1	O	0.926420	-0.104855	-0.074002
O2	O	1.259753	0.228479	0.259331
O3	O	1.593086	0.561812	0.592665
O4	O	0.723145	-0.118971	-0.074011
O5	O	1.056478	0.214362	0.259322
O6	O	1.389812	0.547695	0.592656
O7	O	0.830333	0.010382	-0.073998
O8	O	1.163667	0.343716	0.259335
O9	O	1.497000	0.677049	0.592669
O10	O	0.819231	-0.234209	-0.074015
O11	O	1.152565	0.099125	0.259319
O12	O	1.485898	0.432458	0.592652
O13	O	0.830316	0.010364	0.074066
O14	O	1.163650	0.343697	0.407399
O15	O	1.496983	0.677031	0.740733
O16	O	0.723128	-0.118990	0.074053
O17	O	1.056461	0.214343	0.407387
O18	O	1.389795	0.547677	0.740720
O19	O	0.926403	-0.104873	0.074062
O20	O	1.259736	0.228460	0.407396
O21	O	1.593069	0.561793	0.740729
Zn22	Zn	0.824763	-0.111935	0.097566
Zn23	Zn	1.158096	0.221399	0.430900
Zn24	Zn	1.491429	0.554732	0.764233
Zn25	Zn	0.824785	-0.111910	-0.097515
Zn26	Zn	1.158118	0.221423	0.235819
Zn27	Zn	1.491452	0.554757	0.569152
O28	O	0.819214	-0.234227	0.074050
O29	O	1.152548	0.099106	0.407383
O30	O	1.485881	0.432439	0.740716
C31	C	0.697124	-0.118524	0.000020
C32	C	1.030458	0.214810	0.333353
C33	C	1.363791	0.548143	0.666687
C34	C	0.619616	-0.117151	0.000017
C35	C	0.952950	0.216182	0.333350
C36	C	1.286283	0.549515	0.666684
C37	C	0.829864	0.041665	0.000034
C38	C	1.163197	0.374999	0.333367
C39	C	1.496531	0.708332	0.666701
C40	C	0.828482	0.134906	0.000035
C41	C	1.161816	0.468240	0.333368
C42	C	1.495149	0.801573	0.666701
C43	C	0.952423	-0.105321	0.000029
C44	C	1.285757	0.228012	0.333363
C45	C	1.619090	0.561346	0.666696
C46	C	1.029931	-0.106693	0.000027
C47	C	1.363265	0.226640	0.333360
C48	C	1.696598	0.559973	0.666693
C49	C	1.074659	-0.030793	0.000024
C50	C	1.407993	0.302541	0.333357
C51	C	1.741326	0.635874	0.666691
C52	C	1.147486	-0.032082	0.000029
C53	C	1.480820	0.301251	0.333363
C54	C	1.814153	0.634585	0.666696
C55	C	1.175583	-0.109276	0.000019
C56	C	1.508916	0.224057	0.333353
C57	C	1.842249	0.557390	0.666686
C58	C	1.130845	-0.185187	0.000027
C59	C	1.464178	0.148146	0.333360
C60	C	1.797512	0.481480	0.666694
C61	C	1.058019	-0.183895	0.000031
C62	C	1.391353	0.149438	0.333364
C63	C	1.724686	0.482771	0.666697
N64	N	1.283736	-0.168276	-0.050388
N65	N	1.617069	0.165058	0.282945
N66	N	1.950402	0.498391	0.616278
N67	N	1.352917	-0.169497	-0.050394
N68	N	1.686251	0.163836	0.282940
N69	N	2.019584	0.497170	0.616273
C70	C	1.395001	-0.113172	0.000010
C71	C	1.728335	0.220161	0.333344
C72	C	2.061668	0.553495	0.666677
N73	N	1.365291	-0.055566	0.050409
N74	N	1.698625	0.277767	0.383742
N75	N	2.031958	0.611101	0.717075
N76	N	1.296103	-0.054342	0.050410
N77	N	1.629437	0.278992	0.383744
N78	N	1.962770	0.612325	0.717077
C79	C	1.254549	-0.110685	0.000016
C80	C	1.587882	0.222648	0.333349
C81	C	1.921215	0.555982	0.666683
C82	C	1.518697	-0.038664	0.000015
C83	C	1.852030	0.294669	0.333348
C84	C	2.185364	0.628003	0.666681
C85	C	1.591525	-0.039956	0.000025
C86	C	1.924858	0.293377	0.333359
C87	C	2.258192	0.626710	0.666692
C88	C	1.574882	-0.193063	0.000014
C89	C	1.908215	0.140270	0.333347
C90	C	2.241549	0.473603	0.666681
C91	C	1.502056	-0.191769	0.000012
C92	C	1.835389	0.141565	0.333346
C93	C	2.168722	0.474898	0.666679
C94	C	1.473968	-0.114567	0.000008
C95	C	1.807301	0.218767	0.333342
C96	C	2.140634	0.552100	0.666675
C97	C	0.819684	-0.265510	0.000015
C98	C	1.153017	0.067823	0.333349
C99	C	1.486350	0.401157	0.666682
C100	C	0.821065	-0.358751	0.000009
C101	C	1.154399	-0.025418	0.333342
C102	C	1.487732	0.307916	0.666676
N103	N	0.824752	-0.111951	0.230704
N104	N	1.158086	0.221383	0.564037
N105	N	1.491419	0.554716	0.897370
C106	C	0.758739	0.349502	0.000019
C107	C	1.092072	0.682835	0.333352
C108	C	1.425406	1.016169	0.666686
C109	C	0.791117	0.410631	0.073025
C110	C	1.124450	0.743965	0.406359
C111	C	1.457784	1.077298	0.739692
C112	C	0.825982	0.305623	0.000028
C113	C	1.159316	0.638956	0.333361
C114	C	1.492649	0.972290	0.666694
C115	C	0.791150	0.410633	-0.072954
C116	C	1.124483	0.743967	0.260379
C117	C	1.457816	1.077300	0.593712
C118	C	0.823563	0.470527	0.000017
C119	C	1.156896	0.803860	0.333350
C120	C	1.490230	1.137193	0.666684
C121	C	0.858379	0.365524	0.073094
C122	C	1.191712	0.698857	0.406427
C123	C	1.525046	1.032191	0.739761
C124	C	0.858402	0.365519	-0.072951
C125	C	1.191735	0.698853	0.260382
C126	C	1.525069	1.032186	0.593715
C127	C	0.890829	0.426631	0.000073
C128	C	1.224162	0.759965	0.333406
C129	C	1.557496	1.093298	0.666739
C130	C	0.827374	0.210626	0.000034
C131	C	1.160708	0.543959	0.333368
C132	C	1.494041	0.877292	0.666701
C133	C	0.822176	0.565522	0.000017
C134	C	1.155510	0.898856	0.333350
C135	C	1.488843	1.232189	0.666683
N136	N	0.824801	-0.111887	-0.230652
N137	N	1.158134	0.221446	0.102681
N138	N	1.491468	0.554779	0.436014
C139	C	0.775181	-0.171736	0.470381
C140	C	1.108514	0.161597	0.803714
C141	C	1.441848	0.494931	1.137048
C142	C	0.838271	-0.187807	0.529717
C143	C	1.171604	0.145526	0.863051
C144	C	1.504937	0.478860	1.196384
C145	C	0.824770	-0.111930	0.412311
C146	C	1.158104	0.221404	0.745644
C147	C	1.491437	0.554737	1.078977
C148	C	0.761697	-0.095877	0.529716
C149	C	1.095031	0.237456	0.863050
C150	C	1.428364	0.570789	1.196383
C151	C	0.824782	-0.111911	0.587735
C152	C	1.158115	0.221422	0.921068
C153	C	1.491448	0.554756	1.254401
C154	C	0.887892	-0.128038	0.470340
C155	C	1.221225	0.205295	0.803674
C156	C	1.554559	0.538629	1.137007
C157	C	0.811277	-0.036076	0.470334
C158	C	1.144610	0.297258	0.803668
C159	C	1.477944	0.630591	1.137001
C160	C	0.874413	-0.052114	0.529644
C161	C	1.207746	0.281219	0.862977
C162	C	1.541079	0.614552	1.196310
C163	C	0.824763	-0.111942	0.311253
C164	C	1.158096	0.221391	0.644587
C165	C	1.491429	0.554724	0.977920
C166	C	0.824797	-0.111898	0.688790
C167	C	1.158130	0.221436	1.022123
C168	C	1.491463	0.554769	1.355457
H169	H	1.051795	0.032071	0.000024
H170	H	1.385128	0.365404	0.333357
H171	H	1.718462	0.698738	0.666691
H172	H	0.762707	0.430611	-0.134680
H173	H	1.096040	0.763945	0.198654
H174	H	1.429373	1.097278	0.531987
Cl175	Cl	0.970271	-0.149104	0.430248
Cl176	Cl	1.303605	0.184229	0.763581
Cl177	Cl	1.636938	0.517562	1.096914
H178	H	1.495827	0.024199	0.000015
H179	H	1.829160	0.357532	0.333349
H180	H	2.162493	0.690865	0.666682
H181	H	0.886826	0.345503	-0.134673
H182	H	1.220159	0.678836	0.198660
H183	H	1.553493	1.012170	0.531994
H184	H	0.886789	0.345632	0.134883
H185	H	1.220122	0.678966	0.468216
H186	H	1.553456	1.012299	0.801549
H187	H	0.849694	-0.251947	0.555800
H188	H	1.183027	0.081387	0.889134
H189	H	1.516361	0.414720	1.222467
H190	H	0.916399	-0.001527	0.555501
H191	H	1.249733	0.331806	0.888834
H192	H	1.583066	0.665140	1.222168
Cl193	Cl	0.793610	0.062920	0.430027
Cl194	Cl	1.126943	0.396253	0.763360
Cl195	Cl	1.460277	0.729587	1.096694
Cl196	Cl	0.710501	-0.249881	0.430200
Cl197	Cl	1.043834	0.083453	0.763534
Cl198	Cl	1.377168	0.416786	1.096867
H199	H	1.183911	0.029727	0.000024
H200	H	1.517244	0.363061	0.333358
H201	H	1.850577	0.696394	0.666691
Cl202	Cl	1.166165	-0.282231	0.000018
Cl203	Cl	1.499498	0.051102	0.333351
Cl204	Cl	1.832831	0.384435	0.666685
Cl205	Cl	0.747197	0.441502	0.168314
Cl206	Cl	1.080531	0.774836	0.501647
Cl207	Cl	1.413864	1.108169	0.834981
Cl208	Cl	1.001787	-0.279322	0.000031
Cl209	Cl	1.335120	0.054012	0.333365
Cl210	Cl	1.668454	0.387345	0.666698
Cl211	Cl	0.977077	0.478153	0.000136
Cl212	Cl	1.310410	0.811486	0.333470
Cl213	Cl	1.643744	1.144819	0.666803
Cl214	Cl	0.672566	0.297755	0.000122
Cl215	Cl	1.005899	0.631088	0.333455
Cl216	Cl	1.339233	0.964421	0.666788
Cl217	Cl	0.679339	-0.074925	0.569986
Cl218	Cl	1.012672	0.258408	0.903320
Cl219	Cl	1.346006	0.591741	1.236653
Cl220	Cl	1.610196	-0.290109	0.000016
Cl221	Cl	1.943529	0.043224	0.333349
Cl222	Cl	2.276863	0.376558	0.666683
H223	H	1.627942	0.021854	0.000030
H224	H	1.961276	0.355187	0.333363
H225	H	2.294609	0.688520	0.666696
H226	H	1.465637	-0.253575	0.000009
H227	H	1.798970	0.079758	0.333342
H228	H	2.132304	0.413091	0.666675
