data_functionalizedCrystal
_audit_creation_method	'MofGen! by Chris Wilmer'
_symmetry_space_group_name_H-M	'P1'
_symmetry_Int_Tables_number	1
_symmetry_cell_setting	triclinic
loop_
_symmetry_equiv_pos_as_xyz
  x,y,z
_cell_length_a	20.875641
_cell_length_b	20.016444
_cell_length_c	20.875641
_cell_angle_alpha	62.442929
_cell_angle_beta	90.154292
_cell_angle_gamma	57.588623
loop_
_atom_site_label
_atom_site_type_symbol
_atom_site_fract_x
_atom_site_fract_y
_atom_site_fract_z
Zr1	Zr	0.643701	0.677584	-0.058393
O2	O	0.541276	0.816958	-0.160806
O3	O	0.675099	0.538211	-0.027002
O4	O	0.680007	0.667356	-0.155905
O5	O	0.532498	0.695881	0.069783
O6	O	0.789440	0.659287	-0.152034
O7	O	0.536369	0.687813	-0.031903
O8	O	0.780661	0.428270	0.078551
O9	O	0.541276	0.926898	-0.160801
O10	O	0.770159	0.589515	-0.010719
O11	O	0.685601	0.601558	0.062279
O12	O	0.691379	0.753610	-0.089488
O13	O	0.606822	0.765652	-0.016490
Zr14	Zr	0.812060	0.677584	0.109960
Zr15	Zr	0.818234	0.664715	-0.052218
Zr16	Zr	0.637527	0.690452	0.103785
Zr17	Zr	0.643701	0.852926	-0.058384
Zr18	Zr	0.812060	0.502242	0.109952
O19	O	0.780661	0.816957	0.078569
O20	O	0.789440	0.798660	-0.152027
O21	O	0.532498	0.835254	0.069790
O22	O	0.914485	0.538210	0.212373
O23	O	0.923263	0.519913	-0.018223
O24	O	0.666321	0.556508	0.203594
O25	O	0.923263	0.659286	-0.018216
O26	O	0.775754	0.687812	0.207472
O27	O	0.666321	0.695881	0.203601
O28	O	0.919392	0.667355	0.083470
O29	O	0.680007	0.916669	-0.155894
O30	O	0.775754	0.438499	0.207461
O31	O	0.914484	0.428270	0.212368
O32	O	0.919392	0.418042	0.083459
O33	O	0.536369	0.937126	-0.031891
O34	O	0.675099	0.926897	-0.026984
O35	O	0.764381	0.601558	0.141055
O36	O	0.848939	0.589515	0.068057
O37	O	0.770159	0.753609	-0.010712
O38	O	0.685602	0.765652	0.062286
C39	C	0.727880	0.458258	0.025773
C40	C	0.727880	0.383821	0.025770
C41	C	0.772020	0.206266	-0.012322
C42	C	0.772023	0.136318	-0.012316
C43	C	0.683739	0.148905	0.063894
C44	C	0.683742	0.218846	0.063892
C45	C	0.727881	0.247528	0.025780
C46	C	0.727880	0.107640	0.025787
C47	C	0.727882	0.031800	0.025794
C48	C	0.727880	0.323371	0.025774
C49	C	0.509566	0.693680	0.018060
C50	C	0.435472	0.699144	0.015439
C51	C	0.441783	0.616057	0.055320
C52	C	0.372161	0.621196	0.052856
C53	C	0.296230	0.709422	0.010505
C54	C	0.289920	0.792515	-0.029377
C55	C	0.359541	0.787376	-0.026908
C56	C	0.083600	0.733978	-0.001285
C57	C	0.013978	0.739111	-0.003753
C58	C	0.096223	0.567791	0.078481
C59	C	0.165842	0.562659	0.080943
C60	C	0.159527	0.645752	0.041064
N61	N	0.225064	0.714676	0.007983
N62	N	0.230691	0.640497	0.043591
C63	C	0.946195	0.661487	0.033507
C64	C	1.020288	0.656024	0.036128
C65	C	0.735603	0.661488	-0.177076
C66	C	0.738224	0.656025	-0.245925
C67	C	0.727880	0.896909	0.025794
C68	C	0.727880	0.971346	0.025797
C69	C	0.698334	0.739112	-0.319387
C70	C	0.700807	0.733973	-0.384075
C71	C	0.743165	0.645746	-0.375299
C72	C	0.783060	0.562653	-0.301830
C73	C	0.780591	0.567793	-0.237143
C74	C	0.754963	0.621189	-0.564352
C75	C	0.757427	0.616056	-0.629046
C76	C	0.675175	0.787376	-0.711287
C77	C	0.672706	0.792508	-0.646595
C78	C	0.712604	0.709415	-0.573132
N79	N	0.745692	0.640491	-0.441420
N80	N	0.710081	0.714671	-0.507013
C81	C	0.720158	0.693680	0.228643
C82	C	0.717537	0.699143	0.297492
C83	C	0.946194	0.442161	0.033496
C84	C	1.020288	0.362261	0.036114
C85	C	0.720158	0.474354	0.228633
C86	C	0.717537	0.405380	0.297479
C87	C	0.938472	0.458258	0.236356
C88	C	1.009945	0.383820	0.307823
C89	C	0.517289	0.896910	-0.184789
C90	C	0.445816	0.971347	-0.256256
C91	C	0.509566	0.913006	0.018071
C92	C	0.435472	0.992906	0.015453
C93	C	0.735603	0.880813	-0.177066
C94	C	0.738224	0.949788	-0.245912
C95	C	1.013961	0.324739	-0.003784
C96	C	1.083574	0.249673	-0.001340
C97	C	1.159513	0.212127	0.041007
C98	C	1.165838	0.249656	0.080907
C99	C	1.096226	0.324725	0.078457
C100	C	0.757428	0.372989	0.370936
C101	C	0.754962	0.308191	0.435630
C102	C	0.712609	0.275780	0.426864
C103	C	0.672713	0.308177	0.353399
C104	C	0.675175	0.372979	0.288707
C105	C	1.087655	0.342577	0.303280
C106	C	1.154818	0.272644	0.370425
C107	C	1.144270	0.243951	0.442111
C108	C	1.066552	0.285201	0.446652
C109	C	0.999390	0.355138	0.379508
C110	C	0.368106	1.012599	-0.251713
C111	C	0.300942	1.082554	-0.318858
C112	C	0.311491	1.111251	-0.390544
C113	C	0.389209	1.069995	-0.395085
C114	C	0.456370	1.000047	-0.327941
C115	C	0.441799	1.030435	0.055344
C116	C	0.372187	1.105519	0.052882
C117	C	0.296249	1.143068	0.010533
C118	C	0.289923	1.105535	-0.029363
C119	C	0.359535	1.030457	-0.026905
C120	C	0.780584	0.982178	-0.237121
C121	C	0.783062	1.046977	-0.301802
C122	C	0.743175	1.079389	-0.375273
C123	C	0.700814	1.046992	-0.384061
C124	C	0.698341	0.982189	-0.319381
H125	H	0.647797	0.252442	0.094922
F126	F	1.055338	0.254654	0.522952
F127	F	0.819001	0.092409	-0.052870
F128	F	0.522612	0.990489	0.100419
F129	F	0.916687	0.399021	0.384355
F130	F	1.237524	0.228751	0.365576
H131	H	1.101389	0.355267	0.110952
H132	H	1.216189	0.151000	0.042996
F133	F	0.522592	0.522153	0.100392
F134	F	0.632716	0.875804	-0.789474
F135	F	0.823041	0.947694	-0.158934
F136	F	0.378883	0.532763	0.095310
H137	H	0.354372	0.999904	-0.059388
H138	H	0.519644	0.966459	-0.331649
H139	H	0.710611	0.223014	0.479547
H140	H	1.198964	0.187003	0.496778
H141	H	0.377353	1.136066	0.085374
F142	F	0.222168	1.222972	0.007925
H143	H	0.647801	0.125545	0.094922
F144	F	0.828146	1.081449	-0.292432
H145	H	0.228085	1.136119	-0.063843
F146	F	0.240003	1.185698	-0.461999
F147	F	0.745813	1.148360	-0.444105
H148	H	0.237667	1.116133	-0.315145
F149	F	0.246652	0.468756	0.126018
F150	F	1.246665	0.209684	0.125975
H151	H	0.791916	0.399372	0.378088
H152	H	0.787453	0.281821	0.495443
F153	F	0.102936	0.479363	0.120923
F154	F	0.802513	0.522149	-0.619700
H155	H	0.813073	0.500134	-0.177327
H156	H	0.787451	0.553529	-0.504543
F157	F	0.356861	0.982070	-0.175426
F158	F	0.627641	0.273673	0.344081
F159	F	0.400423	1.100545	-0.471385
H160	H	0.663843	0.955824	-0.326549
H161	H	1.096259	0.365927	0.244916
H162	H	0.668339	1.073392	-0.443890
H163	H	0.642693	0.399343	0.228896
H164	H	0.807963	0.229615	-0.043354
H165	H	-0.047851	0.810959	-0.038244
F166	F	0.076870	0.822414	-0.043730
F167	F	0.209106	0.886413	-0.074445
F168	F	0.352822	0.875809	-0.069352
H169	H	0.817553	0.490817	-0.294689
F170	F	0.653248	0.833016	-0.328736
H171	H	0.668326	0.801630	-0.443889
H172	H	0.638216	0.864352	-0.653749
H173	H	0.952135	0.355307	-0.038277
F174	F	1.076826	0.209742	-0.043806
