data_functionalizedCrystal
_audit_creation_method	'MofGen! by Chris Wilmer'
_symmetry_space_group_name_H-M	'P1'
_symmetry_Int_Tables_number	1
_symmetry_cell_setting	triclinic
loop_
_symmetry_equiv_pos_as_xyz
  x,y,z
_cell_length_a	14.044220
_cell_length_b	14.971486
_cell_length_c	14.048226
_cell_angle_alpha	90.006640
_cell_angle_beta	90.001356
_cell_angle_gamma	88.401503
loop_
_atom_site_label
_atom_site_type_symbol
_atom_site_fract_x
_atom_site_fract_y
_atom_site_fract_z
O1	O	-1.257954	-0.215664	-0.079060
O2	O	-0.981976	-0.207881	-0.079084
O3	O	-1.127361	-0.082155	-0.079065
O4	O	-1.112568	-0.341390	-0.079080
O5	O	-1.127344	-0.082146	0.079256
O6	O	-0.981958	-0.207872	0.079237
O7	O	-1.257936	-0.215654	0.079261
Zn8	Zn	-1.119944	-0.211762	0.104386
Zn9	Zn	-1.119967	-0.211774	-0.104209
O10	O	-1.112550	-0.341380	0.079241
C11	C	-1.126691	-0.048774	0.000095
C12	C	-1.124708	0.050680	0.000094
C13	C	-0.946648	-0.204470	0.000073
C14	C	-0.841411	-0.194309	0.000064
C15	C	-1.293263	-0.219065	0.000101
C16	C	-1.398500	-0.229227	0.000104
C17	C	-0.648729	-0.175732	0.000084
C18	C	-0.591177	-0.247799	0.000084
C19	C	-0.483962	-0.237463	0.000095
C20	C	-0.755954	-0.186067	0.000073
C21	C	-1.113220	-0.374762	0.000079
C22	C	-1.115203	-0.474215	0.000074
N23	N	-1.119935	-0.211753	0.246746
C24	C	-1.210119	0.101176	0.000102
C25	C	-1.208250	0.194623	0.000093
C26	C	-1.120970	0.237571	0.000082
C27	C	-1.035554	0.187067	0.000071
C28	C	-1.037423	0.093623	0.000074
C29	C	-1.031663	0.381836	0.000067
C30	C	-1.029793	0.475288	0.000066
C31	C	-1.202490	0.482837	0.000086
C32	C	-1.204360	0.389392	0.000089
C33	C	-1.118942	0.338895	0.000080
N34	N	-1.119984	-0.211776	-0.246570
C35	C	-1.184333	-0.156108	0.296573
C36	C	-1.184339	-0.156108	0.396231
C37	C	-1.119952	-0.211758	0.446060
C38	C	-1.055548	-0.267406	0.396226
C39	C	-1.055538	-0.267400	0.296570
C40	C	-1.055575	-0.267414	0.603941
C41	C	-1.055587	-0.267421	0.703603
C42	C	-1.184377	-0.156122	0.703601
C43	C	-1.184366	-0.156117	0.603945
C44	C	-1.119963	-0.211766	0.554118
H45	H	-0.617481	-0.106277	0.000093
O46	O	-1.246730	-0.101964	0.248090
C47	C	-1.195865	-0.042681	0.190511
H48	H	-1.121747	-0.072384	0.175563
H49	H	-1.235408	-0.031646	0.120439
H50	H	-1.189310	0.023923	0.228969
H51	H	-1.003098	-0.312711	0.256002
O52	O	-0.992938	-0.321491	0.751862
C53	C	-0.936096	-0.370612	0.686517
H54	H	-0.934990	-0.333854	0.615481
H55	H	-0.860411	-0.378154	0.715320
H56	H	-0.966922	-0.439548	0.675909
O57	O	-0.628488	-0.330653	-0.000115
C58	C	-0.685036	-0.340892	-0.082115
H59	H	-0.661512	-0.292302	-0.139401
H60	H	-0.676351	-0.412280	-0.109666
H61	H	-0.762971	-0.326376	-0.063587
O62	O	-1.246947	-0.101977	0.555687
C63	C	-1.303808	-0.052876	0.621032
H64	H	-1.264956	-0.048743	0.692078
H65	H	-1.318189	0.017401	0.592244
H66	H	-1.374258	-0.087581	0.631612
O67	O	-1.285443	0.531921	-0.000083
C68	C	-1.289532	0.586199	-0.082073
H69	H	-1.241101	0.555887	-0.139385
H70	H	-1.365884	0.590589	-0.109588
H71	H	-1.264921	0.656010	-0.063545
O72	O	-0.954481	0.044527	-0.000100
C73	C	-0.950419	-0.009776	-0.082085
H74	H	-0.998863	0.020523	-0.139390
H75	H	-0.874076	-0.014181	-0.109618
H76	H	-0.975033	-0.079579	-0.063544
H77	H	-0.958722	0.510253	0.000072
O78	O	-0.948601	0.332917	0.000098
C79	C	-0.871164	0.390859	0.000066
H80	H	-0.895141	0.458581	0.030040
H81	H	-0.811308	0.361223	0.046025
H82	H	-0.844424	0.399626	-0.075892
H83	H	-1.281192	0.066215	0.000117
O84	O	-1.246843	-0.102086	0.752145
C85	C	-1.233061	-0.114033	0.850788
H86	H	-1.157734	-0.141408	0.864404
H87	H	-1.243541	-0.047136	0.888670
H88	H	-1.286762	-0.163213	0.879056
H89	H	-1.277800	0.235734	0.000101
O90	O	-1.289224	0.347813	0.000061
C91	C	-1.364215	0.412418	0.000092
H92	H	-1.337579	0.477919	-0.029888
H93	H	-1.425150	0.388049	-0.045863
H94	H	-1.390555	0.423526	0.076050
H95	H	-0.964489	0.222043	0.000056
O96	O	-1.246997	-0.102039	0.444484
C97	C	-1.303816	-0.052913	0.379134
H98	H	-1.304905	-0.089670	0.308088
H99	H	-1.379509	-0.045368	0.407916
H100	H	-1.272983	0.016021	0.368556
O101	O	-0.993146	-0.321519	0.555432
C102	C	-1.043968	-0.380795	0.497788
H103	H	-1.118102	-0.351123	0.482857
H104	H	-1.004413	-0.391764	0.427711
H105	H	-1.050484	-0.447428	0.536181
H106	H	-1.003118	-0.312714	0.436803
