data_functionalizedCrystal
_audit_creation_method	'MofGen! by Chris Wilmer'
_symmetry_space_group_name_H-M	'P1'
_symmetry_Int_Tables_number	1
_symmetry_cell_setting	triclinic
loop_
_symmetry_equiv_pos_as_xyz
  x,y,z
_cell_length_a	14.519731
_cell_length_b	13.596369
_cell_length_c	14.519731
_cell_angle_alpha	89.998627
_cell_angle_beta	96.311147
_cell_angle_gamma	90.006024
loop_
_atom_site_label
_atom_site_type_symbol
_atom_site_fract_x
_atom_site_fract_y
_atom_site_fract_z
O1	O	1.223867	0.081796	-0.120977
O2	O	1.723867	0.581796	0.379023
O3	O	0.955394	0.081798	-0.135193
O4	O	1.455394	0.581798	0.364807
O5	O	1.096739	0.081788	0.006151
O6	O	1.596739	0.581788	0.506151
O7	O	1.082523	0.081806	-0.262322
O8	O	1.582523	0.581806	0.237678
O9	O	1.096721	-0.081795	0.006143
O10	O	1.596721	0.418205	0.506143
O11	O	0.955377	-0.081785	-0.135201
O12	O	1.455377	0.418215	0.364799
O13	O	1.223850	-0.081787	-0.120985
O14	O	1.723850	0.418213	0.379015
Zn15	Zn	1.089610	-0.107759	-0.128094
Zn16	Zn	1.589610	0.392241	0.371906
Zn17	Zn	1.089633	0.107769	-0.128084
Zn18	Zn	1.589633	0.607769	0.371916
O19	O	1.082505	-0.081777	-0.262330
O20	O	1.582505	0.418223	0.237670
C21	C	0.921026	0.000006	-0.134531
C22	C	1.421026	0.500006	0.365469
C23	C	0.818645	0.000007	-0.132535
C24	C	1.318645	0.500007	0.367465
N25	N	1.089602	-0.254850	-0.128101
N26	N	1.589602	0.245150	0.371899
C27	C	0.735501	0.000010	-0.130913
C28	C	1.235501	0.500010	0.369087
C29	C	0.631192	0.000011	-0.128887
C30	C	1.131192	0.500011	0.371113
C31	C	0.548053	0.000011	-0.127278
C32	C	1.048053	0.500011	0.372722
C33	C	0.443738	0.000013	-0.125252
C34	C	0.943738	0.500013	0.374748
C35	C	1.089606	-0.343848	-0.128103
C36	C	1.589606	0.156152	0.371897
C37	C	1.089615	-0.455500	-0.128097
C38	C	1.589615	0.044500	0.371903
C39	C	1.089627	-0.544490	-0.128086
C40	C	1.589627	-0.044490	0.371914
C41	C	1.089638	-0.656149	-0.128081
C42	C	1.589638	-0.156149	0.371919
C43	C	1.258218	0.000006	-0.121648
C44	C	1.758218	0.500006	0.378352
C45	C	1.360598	0.000012	-0.123643
C46	C	1.860598	0.500012	0.376357
C47	C	1.096064	-0.000004	0.040507
C48	C	1.596064	0.499996	0.540507
C49	C	1.094068	-0.000005	0.142887
C50	C	1.594068	0.499995	0.642887
N51	N	1.089650	0.254861	-0.128070
N52	N	1.589650	0.754861	0.371930
C53	C	1.083180	0.000017	-0.296685
C54	C	1.583180	0.500017	0.203315
C55	C	1.085176	0.000024	-0.399066
C56	C	1.585176	0.500024	0.100934
C57	C	1.092446	-0.000002	0.226031
C58	C	1.592446	0.499998	0.726031
C59	C	1.090419	0.000005	0.330340
C60	C	1.590419	0.500005	0.830340
C61	C	1.088811	0.000012	0.413479
C62	C	1.588811	0.500012	0.913479
C63	C	1.086785	0.000017	0.517795
C64	C	1.586785	0.500017	1.017795
