data_functionalizedCrystal
_audit_creation_method	'MofGen! by Chris Wilmer'
_symmetry_space_group_name_H-M	'P1'
_symmetry_Int_Tables_number	1
_symmetry_cell_setting	triclinic
loop_
_symmetry_equiv_pos_as_xyz
  x,y,z
_cell_length_a	25.639239
_cell_length_b	25.639242
_cell_length_c	25.639233
_cell_angle_alpha	89.977834
_cell_angle_beta	90.018747
_cell_angle_gamma	89.965787
loop_
_atom_site_label
_atom_site_type_symbol
_atom_site_fract_x
_atom_site_fract_y
_atom_site_fract_z
Zn1	Zn	-0.208277	-0.799225	0.295742
Zn2	Zn	0.291723	-0.299225	0.795742
Zn3	Zn	-0.295696	-0.799149	0.208307
Zn4	Zn	0.204304	-0.299149	0.708307
Zn5	Zn	-0.208269	-0.711801	0.208306
Zn6	Zn	0.291731	-0.211801	0.708306
Zn7	Zn	-0.295676	-0.711746	0.295696
Zn8	Zn	0.204324	-0.211746	0.795696
O9	O	-0.251979	-0.755480	0.252013
O10	O	0.248021	-0.255480	0.752013
O11	O	-0.219884	-0.872380	0.284163
O12	O	0.280116	-0.372380	0.784163
O13	O	-0.284103	-0.787553	0.135141
O14	O	0.215897	-0.287553	0.635141
O15	O	-0.135105	-0.723453	0.219924
O16	O	0.364895	-0.223453	0.719924
O17	O	-0.284111	-0.872324	0.219924
O18	O	0.215889	-0.372324	0.719924
O19	O	-0.135111	-0.787683	0.284163
O20	O	0.364889	-0.287683	0.784163
O21	O	-0.219871	-0.723379	0.135141
O22	O	0.280129	-0.223379	0.635141
O23	O	-0.219853	-0.638629	0.219880
O24	O	0.280147	-0.138629	0.719880
O25	O	-0.284078	-0.723360	0.368868
O26	O	0.215922	-0.223360	0.868868
O27	O	-0.284070	-0.638589	0.284085
O28	O	0.215930	-0.138589	0.784085
O29	O	-0.219866	-0.787630	0.368901
O30	O	0.280134	-0.287630	0.868901
O31	O	-0.368858	-0.787499	0.219880
O32	O	0.131142	-0.287499	0.719880
O33	O	-0.368844	-0.723286	0.284085
O34	O	0.131156	-0.223286	0.784085
C35	C	-0.251959	-0.619638	0.251977
C36	C	0.248041	-0.119638	0.751977
C37	C	-0.251963	-0.561524	0.251975
C38	C	0.248037	-0.061524	0.751975
C39	C	-0.251970	-0.755497	0.388386
C40	C	0.248030	-0.255497	0.888386
C41	C	-0.251966	-0.755504	0.446500
C42	C	0.248034	-0.255504	0.946500
C43	C	-0.387822	-0.755392	0.251989
C44	C	0.112178	-0.255392	0.751989
C45	C	-0.445936	-0.755403	0.251996
C46	C	0.054064	-0.255403	0.751996
C47	C	-0.806294	-0.789004	0.218638
C48	C	-0.306294	-0.289004	0.718638
C49	C	-0.860898	-0.789024	0.218645
C50	C	-0.360898	-0.289024	0.718645
O51	O	-0.889131	-0.817502	0.190257
O52	O	-0.389131	-0.317502	0.690257
N53	N	-0.888218	-0.755572	0.252048
N54	N	-0.388218	-0.255572	0.752048
C55	C	-0.860932	-0.722102	0.285449
C56	C	-0.360932	-0.222102	0.785449
O57	O	-0.889184	-0.693651	0.313861
O58	O	-0.389184	-0.193651	0.813861
C59	C	-0.806328	-0.722085	0.285444
C60	C	-0.306328	-0.222085	0.785444
C61	C	-0.779011	-0.755535	0.252036
C62	C	-0.279011	-0.255535	0.752036
C63	C	-0.778976	-0.822452	0.185233
C64	C	-0.278976	-0.322452	0.685233
C65	C	-0.724376	-0.822431	0.185226
C66	C	-0.224376	-0.322431	0.685226
C67	C	-0.697093	-0.788962	0.218623
C68	C	-0.197093	-0.288962	0.718623
C69	C	-0.724410	-0.755514	0.252028
C70	C	-0.224410	-0.255514	0.752028
C71	C	-0.779042	-0.688617	0.318847
C72	C	-0.279042	-0.188617	0.818847
C73	C	-0.724435	-0.688603	0.318840
C74	C	-0.224435	-0.188603	0.818840
C75	C	-0.697118	-0.722053	0.285432
C76	C	-0.197118	-0.222053	0.785432
C77	C	-0.642527	-0.722024	0.285418
C78	C	-0.142527	-0.222024	0.785418
N79	N	-0.615206	-0.755475	0.252016
N80	N	-0.115206	-0.255475	0.752016
C81	C	-0.642490	-0.788944	0.218618
C82	C	-0.142490	-0.288944	0.718618
C83	C	-0.975602	-0.722141	0.285457
C84	C	-0.475602	-0.222141	0.785457
C85	C	-1.030204	-0.722155	0.285459
C86	C	-0.530204	-0.222155	0.785459
C87	C	-1.030167	-0.789078	0.218656
C88	C	-0.530167	-0.289078	0.718656
C89	C	-0.975564	-0.789061	0.218652
C90	C	-0.475564	-0.289061	0.718652
C91	C	-0.948282	-0.755593	0.252055
C92	C	-0.448282	-0.255593	0.752055
C93	C	-0.527824	-0.788897	0.218605
C94	C	-0.027824	-0.288897	0.718605
C95	C	-0.473219	-0.788872	0.218599
C96	C	0.026781	-0.288872	0.718599
C97	C	-0.473261	-0.721951	0.285403
C98	C	0.026739	-0.221951	0.785403
C99	C	-0.527862	-0.721974	0.285408
C100	C	-0.027862	-0.221974	0.785408
C101	C	-0.555142	-0.755452	0.252007
C102	C	-0.055142	-0.255452	0.752007
O103	O	-0.614260	-0.693562	0.313793
O104	O	-0.114260	-0.193562	0.813793
O105	O	-0.614231	-0.817396	0.190216
O106	O	-0.114231	-0.317396	0.690216
C107	C	-0.115606	-0.755583	0.252048
C108	C	0.384394	-0.255583	0.752048
C109	C	-0.057492	-0.755627	0.252064
C110	C	0.442508	-0.255627	0.752064
C111	C	-0.252000	-0.891853	0.252049
C112	C	0.248000	-0.391853	0.752049
C113	C	-0.252009	-0.949967	0.252064
C114	C	0.247991	-0.449967	0.752064
C115	C	-0.285473	-0.201149	0.285413
C116	C	0.214527	0.298851	0.785413
C117	C	-0.285477	-0.146544	0.285421
C118	C	0.214523	0.353456	0.785421
O119	O	-0.313943	-0.118297	0.313821
O120	O	0.186057	0.381703	0.813821
N121	N	-0.251994	-0.119241	0.252047
N122	N	0.248006	0.380759	0.752047
C123	C	-0.218502	-0.146545	0.218666
C124	C	0.281498	0.353455	0.718666
O125	O	-0.190022	-0.118308	0.190280
O126	O	0.309978	0.381692	0.690280
C127	C	-0.218496	-0.201149	0.218661
C128	C	0.281504	0.298851	0.718661
C129	C	-0.251985	-0.228449	0.252034
C130	C	0.248015	0.271551	0.752034
C131	C	-0.318959	-0.228449	0.318783
C132	C	0.181041	0.271551	0.818783
C133	C	-0.318956	-0.283049	0.318774
C134	C	0.181044	0.216951	0.818774
C135	C	-0.285468	-0.310350	0.285395
C136	C	0.214532	0.189650	0.785395
C137	C	-0.251983	-0.283049	0.252024
C138	C	0.248017	0.216951	0.752024
C139	C	-0.185002	-0.228452	0.185283
C140	C	0.314998	0.271548	0.685283
C141	C	-0.185000	-0.283059	0.185281
C142	C	0.315000	0.216941	0.685281
C143	C	-0.218488	-0.310359	0.218654
C144	C	0.281512	0.189641	0.718654
C145	C	-0.218492	-0.364950	0.218636
C146	C	0.281508	0.135050	0.718636
N147	N	-0.251974	-0.392253	0.252010
N148	N	0.248026	0.107747	0.752010
C149	C	-0.285463	-0.364953	0.285389
C150	C	0.214537	0.135047	0.785389
C151	C	-0.218515	-0.031875	0.218680
C152	C	0.281485	0.468125	0.718680
C153	C	-0.218523	0.022728	0.218683
C154	C	0.281477	0.522728	0.718683
C155	C	-0.285497	0.022725	0.285438
C156	C	0.214503	0.522725	0.785438
C157	C	-0.285492	-0.031878	0.285433
C158	C	0.214508	0.468122	0.785433
C159	C	-0.251998	-0.059178	0.252054
C160	C	0.248002	0.440822	0.752054
C161	C	-0.285455	-0.479618	0.285368
C162	C	0.214545	0.020382	0.785368
C163	C	-0.285451	-0.534223	0.285354
C164	C	0.214549	-0.034223	0.785354
C165	C	-0.218475	-0.534216	0.218601
C166	C	0.281525	-0.034216	0.718601
C167	C	-0.218481	-0.479615	0.218612
C168	C	0.281519	0.020385	0.718612
C169	C	-0.251972	-0.452318	0.252000
C170	C	0.248028	0.047682	0.752000
O171	O	-0.190038	-0.393232	0.190252
O172	O	0.309962	0.106768	0.690252
O173	O	-0.313933	-0.393197	0.313776
O174	O	0.186067	0.106803	0.813776
C175	C	-0.251951	-0.755494	0.116170
C176	C	0.248049	-0.255494	0.616170
C177	C	-0.251807	-0.755588	0.058057
C178	C	0.248193	-0.255588	0.558057
C179	C	-0.218432	-0.789012	0.806886
C180	C	0.281568	-0.289012	1.306886
C181	C	-0.218417	-0.789019	0.861491
C182	C	0.281583	-0.289019	1.361491
O183	O	-0.189967	-0.817466	0.889747
O184	O	0.310033	-0.317466	1.389747
N185	N	-0.251844	-0.755562	0.888783
N186	N	0.248156	-0.255562	1.388783
C187	C	-0.285283	-0.722093	0.861468
C188	C	0.214717	-0.222093	1.361468
O189	O	-0.313713	-0.693636	0.889695
O190	O	0.186287	-0.193636	1.389695
C191	C	-0.285294	-0.722084	0.806864
C192	C	0.214706	-0.222084	1.306864
C193	C	-0.251870	-0.755547	0.779575
C194	C	0.248130	-0.255547	1.279575
C195	C	-0.185009	-0.822472	0.779597
C196	C	0.314991	-0.322472	1.279597
C197	C	-0.185025	-0.822466	0.724997
C198	C	0.314975	-0.322466	1.224997
C199	C	-0.218462	-0.789000	0.697685
C200	C	0.281538	-0.289000	1.197685
C201	C	-0.251885	-0.755541	0.724974
C202	C	0.248115	-0.255541	1.224974
C203	C	-0.318731	-0.688613	0.779550
C204	C	0.181269	-0.188613	1.279550
C205	C	-0.318739	-0.688607	0.724943
C206	C	0.181261	-0.188607	1.224943
C207	C	-0.285314	-0.722069	0.697654
C208	C	0.214686	-0.222069	1.197654
C209	C	-0.285338	-0.722070	0.643063
C210	C	0.214662	-0.222070	1.143063
N211	N	-0.251912	-0.755526	0.615771
N212	N	0.248088	-0.255526	1.115771
C213	C	-0.218474	-0.788992	0.643082
C214	C	0.281526	-0.288992	1.143082
C215	C	-0.285256	-0.722113	0.976138
C216	C	0.214744	-0.222113	1.476138
C217	C	-0.285247	-0.722124	1.030741
C218	C	0.214753	-0.222124	1.530741
C219	C	-0.218381	-0.789049	1.030760
C220	C	0.281619	-0.289049	1.530760
C221	C	-0.218392	-0.789041	0.976157
C222	C	0.281608	-0.289041	1.476157
C223	C	-0.251829	-0.755570	0.948846
C224	C	0.248171	-0.255570	1.448846
C225	C	-0.218509	-0.788977	0.528417
C226	C	0.281491	-0.288977	1.028417
C227	C	-0.218529	-0.788970	0.473811
C228	C	0.281471	-0.288970	0.973811
C229	C	-0.285393	-0.722043	0.473797
C230	C	0.214607	-0.222043	0.973797
C231	C	-0.285375	-0.722052	0.528397
C232	C	0.214625	-0.222052	1.028397
C233	C	-0.251929	-0.755521	0.555706
C234	C	0.248071	-0.255521	1.055706
O235	O	-0.313773	-0.693635	0.614771
O236	O	0.186227	-0.193635	1.114771
O237	O	-0.190044	-0.817439	0.614847
O238	O	0.309956	-0.317439	1.114847
H239	H	-0.550030	-0.816159	0.191408
H240	H	-0.050030	-0.316159	0.691408
H241	H	-0.801275	-0.661376	0.346049
H242	H	-0.301275	-0.161376	0.846049
H243	H	-0.157806	-0.849714	0.702783
H244	H	0.342194	-0.349714	1.202783
C245	C	-0.182090	-0.061539	0.182518
C246	C	0.317910	0.438461	0.682518
C247	C	-0.148605	-0.092909	0.212173
C248	C	0.351395	0.407091	0.712173
C249	C	-0.115039	-0.120235	0.178879
C250	C	0.384961	0.379765	0.678879
H251	H	-0.201994	-0.082860	0.159687
H252	H	0.298006	0.417140	0.659687
H253	H	-0.162122	-0.037471	0.162653
H254	H	0.337878	0.462529	0.662653
H255	H	-0.168570	-0.116975	0.232029
H256	H	0.331430	0.383025	0.732029
H257	H	-0.128690	-0.071601	0.235002
H258	H	0.371310	0.428399	0.735002
H259	H	-0.095071	-0.096166	0.159014
H260	H	0.404929	0.403834	0.659014
H261	H	-0.134947	-0.141553	0.156050
H262	H	0.365053	0.358447	0.656050
H263	H	-0.092312	-0.141519	0.198995
H264	H	0.407688	0.358481	0.698995
C265	C	-0.443603	-0.685705	0.321729
C266	C	0.056397	-0.185705	0.821729
C267	C	-0.412224	-0.715287	0.355269
C268	C	0.087776	-0.215287	0.855269
C269	C	-0.384898	-0.681920	0.388747
C270	C	0.115102	-0.181920	0.888747
H271	H	-0.422287	-0.662921	0.301763
H272	H	0.077713	-0.162921	0.801763
H273	H	-0.467671	-0.665793	0.341660
H274	H	0.032329	-0.165793	0.841660
H275	H	-0.388159	-0.735190	0.335340
H276	H	0.111841	-0.235190	0.835340
H277	H	-0.433526	-0.738069	0.375246
H278	H	0.066474	-0.238069	0.875246
H279	H	-0.408966	-0.662008	0.408678
H280	H	0.091034	-0.162008	0.908678
H281	H	-0.363586	-0.659137	0.368777
H282	H	0.136414	-0.159137	0.868777
H283	H	-0.363608	-0.701986	0.411511
H284	H	0.136392	-0.201986	0.911511
C285	C	-0.694816	-0.858813	0.148940
C286	C	-0.194816	-0.358813	0.648940
C287	C	-0.730405	-0.888135	0.119709
C288	C	-0.230405	-0.388135	0.619709
C289	C	-0.703198	-0.921665	0.086283
C290	C	-0.203198	-0.421665	0.586283
H291	H	-0.673540	-0.838886	0.126085
H292	H	-0.173540	-0.338886	0.626085
H293	H	-0.673499	-0.881602	0.168953
H294	H	-0.173499	-0.381602	0.668953
H295	H	-0.751713	-0.865349	0.099698
H296	H	-0.251713	-0.365349	0.599698
H297	H	-0.751683	-0.908072	0.142551
H298	H	-0.251683	-0.408072	0.642551
H299	H	-0.681881	-0.944454	0.106296
H300	H	-0.181881	-0.444454	0.606296
H301	H	-0.681923	-0.901734	0.063431
H302	H	-0.181923	-0.401734	0.563431
H303	H	-0.727341	-0.941568	0.066450
H304	H	-0.227341	-0.441568	0.566450
C305	C	-0.355373	-0.312714	0.354927
C306	C	0.144627	0.187286	0.854927
C307	C	-0.388853	-0.344023	0.325268
C308	C	0.111147	0.155977	0.825268
C309	C	-0.422411	-0.371348	0.358558
C310	C	0.077589	0.128652	0.858558
H311	H	-0.335463	-0.334077	0.377752
H312	H	0.164537	0.165923	0.877752
H313	H	-0.375345	-0.288646	0.374798
H314	H	0.124655	0.211354	0.874798
H315	H	-0.368883	-0.368088	0.305405
H316	H	0.131117	0.131912	0.805405
H317	H	-0.408775	-0.322673	0.302444
H318	H	0.091225	0.177327	0.802444
H319	H	-0.442382	-0.347281	0.378429
H320	H	0.057618	0.152719	0.878429
H321	H	-0.402496	-0.392708	0.381381
H322	H	0.097504	0.107292	0.881381
H323	H	-0.445134	-0.392591	0.338439
H324	H	0.054866	0.107409	0.838439
H325	H	-0.702225	-0.661350	0.346042
H326	H	-0.202225	-0.161350	0.846042
C327	C	-0.808599	-0.858893	0.149075
C328	C	-0.308599	-0.358893	0.649075
C329	C	-0.839871	-0.892408	0.178736
C330	C	-0.339871	-0.392408	0.678736
C331	C	-0.867148	-0.926004	0.145449
C332	C	-0.367148	-0.426004	0.645449
H333	H	-0.829982	-0.839012	0.126243
H334	H	-0.329982	-0.339012	0.626243
H335	H	-0.784502	-0.878837	0.129211
H336	H	-0.284502	-0.378837	0.629211
H337	H	-0.863966	-0.872466	0.198591
H338	H	-0.363966	-0.372466	0.698591
H339	H	-0.818501	-0.912299	0.201567
H340	H	-0.318501	-0.412299	0.701567
H341	H	-0.843051	-0.945948	0.125585
H342	H	-0.343051	-0.445948	0.625585
H343	H	-0.888529	-0.906120	0.122619
H344	H	-0.388529	-0.406120	0.622619
H345	H	-0.888366	-0.948751	0.165569
H346	H	-0.388366	-0.448751	0.665569
H347	H	-0.191258	0.044951	0.191502
H348	H	0.308742	0.544951	0.691502
H349	H	-0.191174	-0.816288	0.953941
H350	H	0.308826	-0.316288	1.453941
H351	H	-0.191310	-0.816221	0.451595
H352	H	0.308690	-0.316221	0.951595
C353	C	-0.355381	-0.198909	0.355045
C354	C	0.144619	0.301091	0.855045
C355	C	-0.384709	-0.234515	0.384254
C356	C	0.115291	0.265485	0.884254
C357	C	-0.418276	-0.207326	0.417658
C358	C	0.081724	0.292674	0.917658
H359	H	-0.335481	-0.177625	0.377915
H360	H	0.164519	0.322375	0.877915
H361	H	-0.378164	-0.177600	0.335017
H362	H	0.121836	0.322400	0.835017
H363	H	-0.361928	-0.255814	0.404281
H364	H	0.138072	0.244186	0.904281
H365	H	-0.404619	-0.255799	0.361398
H366	H	0.095381	0.244201	0.861398
H367	H	-0.441060	-0.186018	0.397630
H368	H	0.058940	0.313982	0.897630
H369	H	-0.398373	-0.186044	0.440524
H370	H	0.101627	0.313956	0.940524
H371	H	-0.438183	-0.231480	0.437477
H372	H	0.061817	0.268520	0.937477
H373	H	-0.191272	-0.816229	0.550645
H374	H	0.308728	-0.316229	1.050645
H375	H	-0.550105	-0.694738	0.312613
H376	H	-0.050105	-0.194738	0.812613
C377	C	-0.321830	-0.563769	0.321648
C378	C	0.178170	-0.063769	0.821648
C379	C	-0.351146	-0.528169	0.350892
C380	C	0.148854	-0.028169	0.850892
C381	C	-0.384657	-0.555364	0.384335
C382	C	0.115343	-0.055364	0.884335
H383	H	-0.344628	-0.585048	0.301663
H384	H	0.155372	-0.085048	0.801663
H385	H	-0.301874	-0.585081	0.344490
H386	H	0.198126	-0.085081	0.844490
H387	H	-0.371100	-0.506865	0.328052
H388	H	0.128900	-0.006865	0.828052
H389	H	-0.328362	-0.506888	0.370887
H390	H	0.171638	-0.006888	0.870887
H391	H	-0.364701	-0.576677	0.407178
H392	H	0.135299	-0.076677	0.907178
H393	H	-0.407451	-0.576643	0.364346
H394	H	0.092549	-0.076643	0.864346
H395	H	-0.404548	-0.531214	0.404185
H396	H	0.095452	-0.031214	0.904185
C397	C	-0.321459	-0.685771	1.060434
C398	C	0.178541	-0.185771	1.560434
C399	C	-0.291848	-0.652291	1.091786
C400	C	0.208152	-0.152291	1.591786
C401	C	-0.325189	-0.618798	1.119151
C402	C	0.174811	-0.118798	1.619151
H403	H	-0.341388	-0.665791	1.036405
H404	H	0.158612	-0.165791	1.536405
H405	H	-0.344229	-0.705744	1.081768
H406	H	0.155771	-0.205744	1.581768
H407	H	-0.269087	-0.632319	1.070455
H408	H	0.230913	-0.132319	1.570455
H409	H	-0.271920	-0.672256	1.115825
H410	H	0.228080	-0.172256	1.615825
H411	H	-0.347959	-0.638771	1.140485
H412	H	0.152041	-0.138771	1.640485
H413	H	-0.345116	-0.598822	1.095118
H414	H	0.154884	-0.098822	1.595118
H415	H	-0.305103	-0.596081	1.140431
H416	H	0.194897	-0.096081	1.640431
C417	C	-1.059926	-0.685919	0.321759
C418	C	-0.559926	-0.185919	0.821759
C419	C	-1.091239	-0.715508	0.355300
C420	C	-0.591239	-0.215508	0.855300
C421	C	-1.118628	-0.682146	0.388745
C422	C	-0.618628	-0.182146	0.888745
H423	H	-1.035912	-0.665973	0.341696
H424	H	-0.535912	-0.165973	0.841696
H425	H	-1.081289	-0.663165	0.301753
H426	H	-0.581289	-0.163165	0.801753
H427	H	-1.069878	-0.738252	0.375303
H428	H	-0.569878	-0.238252	0.875303
H429	H	-1.115262	-0.735453	0.335378
H430	H	-0.615262	-0.235453	0.835378
H431	H	-1.139991	-0.659393	0.368740
H432	H	-0.639991	-0.159393	0.868740
H433	H	-1.094610	-0.662202	0.408679
H434	H	-0.594610	-0.162202	0.908679
H435	H	-1.139880	-0.702218	0.411504
H436	H	-0.639880	-0.202218	0.911504
H437	H	-0.191153	-0.816298	1.053007
H438	H	0.308847	-0.316298	1.553007
H439	H	-0.157734	-0.206233	0.158106
H440	H	0.342266	0.293767	0.658106
C441	C	-0.148617	-0.312603	0.148979
C442	C	0.351383	0.187397	0.648979
C443	C	-0.119305	-0.277003	0.119747
C444	C	0.380695	0.222997	0.619747
C445	C	-0.085792	-0.304199	0.086294
C446	C	0.414208	0.195801	0.586294
H447	H	-0.125818	-0.333930	0.168956
H448	H	0.374182	0.166070	0.668956
H449	H	-0.168572	-0.333868	0.126129
H450	H	0.331428	0.166132	0.626129
H451	H	-0.099352	-0.255747	0.142594
H452	H	0.400648	0.244253	0.642594
H453	H	-0.142091	-0.255674	0.099759
H454	H	0.357909	0.244326	0.599759
H455	H	-0.105746	-0.325463	0.063444
H456	H	0.394254	0.174537	0.563444
H457	H	-0.062996	-0.325525	0.106276
H458	H	0.437004	0.174475	0.606276
H459	H	-0.065903	-0.280048	0.066453
H460	H	0.434097	0.219952	0.566453
C461	C	-0.946002	-0.825438	0.182362
C462	C	-0.446002	-0.325438	0.682362
C463	C	-0.981589	-0.854757	0.153125
C464	C	-0.481589	-0.354757	0.653125
C465	C	-0.954379	-0.888280	0.119694
C466	C	-0.454379	-0.388280	0.619694
H467	H	-0.924726	-0.805507	0.159511
H468	H	-0.424726	-0.305507	0.659511
H469	H	-0.924684	-0.848229	0.202372
H470	H	-0.424684	-0.348229	0.702372
H471	H	-1.002898	-0.831969	0.133117
H472	H	-0.502898	-0.331969	0.633117
H473	H	-1.002866	-0.874699	0.175963
H474	H	-0.502866	-0.374699	0.675963
H475	H	-0.933062	-0.911071	0.139704
H476	H	-0.433062	-0.411071	0.639704
H477	H	-0.933104	-0.868344	0.096846
H478	H	-0.433104	-0.368344	0.596846
H479	H	-0.978521	-0.908180	0.099856
H480	H	-0.478521	-0.408180	0.599856
C481	C	-0.321731	-0.449957	0.321679
C482	C	0.178269	0.050043	0.821679
C483	C	-0.292184	-0.418653	0.355263
C484	C	0.207816	0.081347	0.855263
C485	C	-0.325585	-0.391327	0.388721
C486	C	0.174415	0.108673	0.888721
H487	H	-0.344495	-0.428591	0.301702
H488	H	0.155505	0.071409	0.801702
H489	H	-0.341663	-0.474025	0.341580
H490	H	0.158337	0.025975	0.841580
H491	H	-0.272261	-0.394588	0.335363
H492	H	0.227739	0.105412	0.835363
H493	H	-0.269421	-0.440006	0.375251
H494	H	0.230579	0.059994	0.875251
H495	H	-0.345517	-0.415395	0.408622
H496	H	0.154483	0.084605	0.908622
H497	H	-0.348347	-0.369964	0.368740
H498	H	0.151653	0.130036	0.868740
H499	H	-0.305541	-0.370088	0.411514
H500	H	0.194459	0.129912	0.911514
H501	H	-0.191211	-0.556454	0.191422
H502	H	0.308789	-0.056454	0.691422
H503	H	-0.312597	-0.694809	0.550617
H504	H	0.187403	-0.194809	1.050617
H505	H	-0.953392	-0.694883	0.312656
H506	H	-0.453392	-0.194883	0.812656
C507	C	-0.321867	-0.061422	0.321727
C508	C	0.178133	0.438578	0.821727
C509	C	-0.351185	-0.025819	0.350966
C510	C	0.148815	0.474181	0.850966
C511	C	-0.384694	-0.053012	0.384413
C512	C	0.115306	0.446988	0.884413
H513	H	-0.344664	-0.082705	0.301745
H514	H	0.155336	0.417295	0.801745
H515	H	-0.301910	-0.082730	0.344573
H516	H	0.198090	0.417270	0.844573
H517	H	-0.371140	-0.004520	0.328124
H518	H	0.128860	0.495480	0.828124
H519	H	-0.328402	-0.004535	0.370959
H520	H	0.171598	0.495465	0.870959
H521	H	-0.364737	-0.074321	0.407259
H522	H	0.135263	0.425679	0.907259
H523	H	-0.407488	-0.074295	0.364427
H524	H	0.092512	0.425705	0.864427
H525	H	-0.404587	-0.028860	0.404259
H526	H	0.095413	0.471140	0.904259
C527	C	-0.321796	0.052466	0.321664
C528	C	0.178204	0.552466	0.821664
C529	C	-0.314618	0.106127	0.314534
C530	C	0.185382	0.606127	0.814534
C531	C	-0.348040	0.133542	0.347898
C532	C	0.151960	0.633542	0.847898
H533	H	-0.356937	0.043607	0.313985
H534	H	0.143063	0.543607	0.813985
H535	H	-0.314188	0.043527	0.356818
H536	H	0.185812	0.543527	0.856818
H537	H	-0.322230	0.115063	0.279388
H538	H	0.177770	0.615063	0.779388
H539	H	-0.279484	0.115002	0.322217
H540	H	0.220516	0.615002	0.822217
H541	H	-0.340433	0.124603	0.383052
H542	H	0.159567	0.624603	0.883052
H543	H	-0.383179	0.124679	0.340216
H544	H	0.116821	0.624679	0.840216
H545	H	-0.343171	0.169954	0.343068
H546	H	0.156829	0.669954	0.843068
H547	H	-0.191213	-0.457387	0.191436
H548	H	0.308787	0.042613	0.691436
H549	H	-0.312619	-0.694798	0.451550
H550	H	0.187381	-0.194798	0.951550
H551	H	-0.312487	-0.694857	0.953905
H552	H	0.187513	-0.194857	1.453905
H553	H	-0.157777	-0.849723	0.801828
H554	H	0.342223	-0.349723	1.301828
C555	C	-0.355038	-0.652220	0.809074
C556	C	0.144962	-0.152220	1.309074
C557	C	-0.384306	-0.622903	0.773459
C558	C	0.115694	-0.122903	1.273459
C559	C	-0.417754	-0.589364	0.800636
C560	C	0.082246	-0.089364	1.300636
H561	H	-0.377869	-0.672140	0.830382
H562	H	0.122131	-0.172140	1.330382
H563	H	-0.335039	-0.629428	0.830357
H564	H	0.164961	-0.129428	1.330357
H565	H	-0.404304	-0.645692	0.752184
H566	H	0.095696	-0.145692	1.252184
H567	H	-0.361489	-0.602973	0.752150
H568	H	0.138511	-0.102973	1.252150
H569	H	-0.397754	-0.566572	0.821919
H570	H	0.102246	-0.066572	1.321919
H571	H	-0.440581	-0.609288	0.821943
H572	H	0.059419	-0.109288	1.321943
H573	H	-0.437613	-0.569465	0.776475
H574	H	0.062387	-0.069465	1.276475
C575	C	-0.355076	-0.652355	0.695222
C576	C	0.144924	-0.152355	1.195222
C577	C	-0.388591	-0.681931	0.663872
C578	C	0.111409	-0.181931	1.163872
C579	C	-0.422067	-0.648556	0.636480
C580	C	0.077933	-0.148556	1.136480
H581	H	-0.375030	-0.632416	0.719235
H582	H	0.124970	-0.132416	1.219235
H583	H	-0.335092	-0.629595	0.673885
H584	H	0.164908	-0.129595	1.173885
H585	H	-0.408573	-0.704681	0.685207
H586	H	0.091427	-0.204681	1.185207
H587	H	-0.368651	-0.701868	0.639849
H588	H	0.131349	-0.201868	1.139849
H589	H	-0.402083	-0.625797	0.615143
H590	H	0.097917	-0.125797	1.115143
H591	H	-0.442018	-0.628619	0.660497
H592	H	0.057982	-0.128619	1.160497
H593	H	-0.444808	-0.668618	0.615202
H594	H	0.055192	-0.168618	1.115202
H595	H	-0.450979	-0.816111	0.191392
H596	H	0.049021	-0.316111	0.691392
H597	H	-1.052391	-0.816333	0.191464
H598	H	-0.552391	-0.316333	0.691464
