data_functionalizedCrystal
_audit_creation_method	'MofGen! by Chris Wilmer'
_symmetry_space_group_name_H-M	'P1'
_symmetry_Int_Tables_number	1
_symmetry_cell_setting	triclinic
loop_
_symmetry_equiv_pos_as_xyz
  x,y,z
_cell_length_a	13.262522
_cell_length_b	13.339070
_cell_length_c	16.776229
_cell_angle_alpha	89.996888
_cell_angle_beta	74.077118
_cell_angle_gamma	99.428816
loop_
_atom_site_label
_atom_site_type_symbol
_atom_site_fract_x
_atom_site_fract_y
_atom_site_fract_z
O1	O	1.432431	0.136428	-0.376820
O2	O	1.131162	0.151262	-0.311510
O3	O	1.247221	-0.003565	-0.336667
O4	O	1.316373	0.291254	-0.351663
O5	O	1.247196	-0.003574	-0.204086
O6	O	1.131138	0.151252	-0.178928
O7	O	1.432407	0.136418	-0.244239
Zn8	Zn	1.281769	0.143833	-0.190533
Zn9	Zn	1.281800	0.143846	-0.365215
O10	O	1.316348	0.291244	-0.219081
C11	C	1.091803	0.150425	-0.236689
C12	C	0.974559	0.147936	-0.211273
C13	C	0.919472	0.146763	-0.127057
C14	C	0.809313	0.144415	-0.103170
C15	C	0.754232	0.143247	-0.163496
C16	C	0.809320	0.144427	-0.247714
C17	C	0.919488	0.146768	-0.271603
C18	C	0.754249	0.143252	-0.308042
C19	C	0.809337	0.144432	-0.392259
C20	C	0.919495	0.146774	-0.416145
C21	C	0.974576	0.147941	-0.355818
C22	C	0.644081	0.140911	-0.284153
C23	C	0.644097	0.140916	-0.428698
C24	C	0.754256	0.143265	-0.452586
C25	C	1.235527	-0.041308	-0.267845
C26	C	1.200709	-0.153756	-0.260300
C27	C	1.471440	-0.517409	-0.318990
C28	C	1.504157	-0.411759	-0.326075
C29	C	1.428298	-0.347253	-0.309632
C30	C	1.319716	-0.388408	-0.286103
C31	C	1.286995	-0.494069	-0.279011
C32	C	1.243853	-0.323913	-0.269653
C33	C	1.135271	-0.365067	-0.246123
C34	C	1.102557	-0.470718	-0.239033
C35	C	1.178416	-0.535224	-0.255476
C36	C	1.276574	-0.218252	-0.276745
C37	C	1.092129	-0.194911	-0.236765
C38	C	1.059412	-0.300562	-0.229680
C39	C	1.471766	0.137254	-0.319061
C40	C	1.589010	0.139743	-0.344483
C41	C	1.328042	0.328987	-0.287905
C42	C	1.362860	0.441436	-0.295455
N43	N	1.281754	0.143824	-0.071319
N44	N	1.281821	0.143847	-0.484431
C45	C	1.333175	0.075295	-0.040748
C46	C	1.333181	0.075295	0.042703
C47	C	1.281771	0.143828	0.095580
C48	C	1.230344	0.212360	0.065005
C49	C	1.230332	0.212355	-0.018443
C50	C	1.230388	0.212380	0.401543
C51	C	1.230406	0.212382	0.484995
C52	C	1.333236	0.075320	0.462689
C53	C	1.333224	0.075315	0.379241
C54	C	1.281793	0.143843	0.348674
C55	C	1.281785	0.143841	0.258187
C56	C	1.281784	0.143835	0.186064
H57	H	0.664536	0.141337	-0.144042
F58	F	1.387971	0.002382	0.495227
H59	H	0.764466	0.143440	-0.034600
F60	F	0.943854	-0.344375	-0.204640
H61	H	1.014142	-0.504222	-0.219868
H62	H	0.964327	0.147706	-0.077949
F63	F	1.387945	0.002376	0.322967
H64	H	1.188479	0.268158	0.108064
F65	F	1.175685	0.285327	0.541271
F66	F	1.552161	-0.586065	-0.336474
H67	H	1.188459	0.268157	-0.043332
F68	F	1.387899	0.002356	-0.097018
H69	H	1.064276	0.149857	-0.375263
F70	F	0.978118	0.148013	-0.505776
H71	H	1.592564	-0.378259	-0.345232
F72	F	0.812897	0.144518	-0.542214
H73	H	0.599251	0.139967	-0.477821
H74	H	1.188513	0.268180	0.376661
H75	H	1.454943	-0.261228	-0.315402
F76	F	1.387906	0.002358	0.075239
H77	H	1.364981	-0.184754	-0.295903
F78	F	0.585464	0.139655	-0.194525
H79	H	1.151783	-0.621254	-0.249711
H80	H	1.030358	-0.142390	-0.223372
