data_functionalizedCrystal
_audit_creation_method	'MofGen! by Chris Wilmer'
_symmetry_space_group_name_H-M	'P1'
_symmetry_Int_Tables_number	1
_symmetry_cell_setting	triclinic
loop_
_symmetry_equiv_pos_as_xyz
  x,y,z
_cell_length_a	17.077404
_cell_length_b	16.120484
_cell_length_c	17.077396
_cell_angle_alpha	87.131254
_cell_angle_beta	90.019501
_cell_angle_gamma	92.925780
loop_
_atom_site_label
_atom_site_type_symbol
_atom_site_fract_x
_atom_site_fract_y
_atom_site_fract_z
Zn1	Zn	1.184194	-0.331902	0.459673
Zn2	Zn	1.177439	-0.471326	0.335057
Zn3	Zn	1.052925	-0.331932	0.328422
Zn4	Zn	1.046234	-0.471277	0.466278
O5	O	1.115198	-0.401609	0.397358
O6	O	1.293145	-0.350406	0.443155
O7	O	1.160895	-0.452868	0.224331
O8	O	1.075965	-0.215262	0.340292
O9	O	1.288181	-0.452840	0.351600
O10	O	1.172408	-0.215241	0.436721
O11	O	1.069415	-0.350456	0.219457
O12	O	0.942191	-0.350408	0.346697
O13	O	1.064562	-0.452756	0.575247
O14	O	0.937275	-0.452784	0.447979
O15	O	1.165921	-0.350358	0.570395
O16	O	1.154407	-0.587986	0.358004
O17	O	1.058011	-0.587949	0.454412
C18	C	0.911251	-0.401594	0.397335
C19	C	0.824000	-0.401608	0.397345
C20	C	0.780467	-0.454996	0.450006
C21	C	0.698487	-0.454997	0.450019
C22	C	0.660041	-0.401615	0.397366
C23	C	0.703580	-0.348221	0.344703
C24	C	0.785559	-0.348216	0.344694
C25	C	0.532709	-0.348238	0.344722
C26	C	0.450724	-0.348244	0.344729
C27	C	0.445637	-0.455019	0.450047
C28	C	0.527616	-0.455014	0.450038
C29	C	0.571149	-0.401621	0.397374
C30	C	1.104771	-0.618218	0.407662
C31	C	1.100383	-0.710884	0.412097
C32	C	1.092374	-0.880545	0.420209
C33	C	1.138162	-0.921833	0.374519
C34	C	1.133706	-1.016239	0.379033
C35	C	1.096829	-0.786131	0.415696
C36	C	1.319941	-0.401625	0.397381
C37	C	1.407191	-0.401632	0.397390
C38	C	1.115248	-0.401548	0.602099
C39	C	1.115270	-0.401522	0.689348
C40	C	1.125687	-0.184155	0.387030
C41	C	1.130156	-0.091489	0.382629
C42	C	1.115196	-0.401610	0.193410
C43	C	1.115338	-0.401402	0.106150
C44	C	1.168049	-0.348199	0.727812
C45	C	1.168060	-0.348171	0.809791
C46	C	1.115295	-0.401471	0.853305
C47	C	1.062509	-0.454796	0.814835
C48	C	1.062495	-0.454819	0.732857
C49	C	1.062543	-0.454746	0.985702
C50	C	1.062558	-0.454725	1.067686
C51	C	1.168108	-0.348098	1.062637
C52	C	1.168094	-0.348121	0.980659
C53	C	1.115310	-0.401448	0.942195
H54	H	0.811764	-0.498469	0.492880
F55	F	1.224286	-0.291344	1.103574
H56	H	1.211020	-0.304798	0.692389
H57	H	0.663045	-0.498472	0.492900
H58	H	1.019549	-0.498158	0.954387
H59	H	1.019509	-0.498232	0.701540
H60	H	1.019544	-0.498191	0.850270
H61	H	1.211065	-0.304724	0.945232
H62	H	1.049831	-0.916096	0.462712
H63	H	1.211040	-0.304752	0.841105
H64	H	1.180708	-0.886279	0.332012
H65	H	0.410188	-0.498491	0.492930
H66	H	0.558916	-0.498487	0.492909
H67	H	0.419424	-0.304766	0.301864
F68	F	0.579039	-0.291410	0.288671
H69	H	0.672271	-0.304753	0.301835
H70	H	1.019590	-0.498124	1.103113
H71	H	0.821003	-0.304738	0.301816
