data_functionalizedCrystal
_audit_creation_method	'MofGen! by Chris Wilmer'
_symmetry_space_group_name_H-M	'P1'
_symmetry_Int_Tables_number	1
_symmetry_cell_setting	triclinic
loop_
_symmetry_equiv_pos_as_xyz
  x,y,z
_cell_length_a	19.077105
_cell_length_b	14.908520
_cell_length_c	19.076919
_cell_angle_alpha	95.429006
_cell_angle_beta	90.076224
_cell_angle_gamma	91.150228
loop_
_atom_site_label
_atom_site_type_symbol
_atom_site_fract_x
_atom_site_fract_y
_atom_site_fract_z
Zn1	Zn	1.037881	-0.436364	-0.459234
Zn2	Zn	1.537881	0.063636	0.040766
Zn3	Zn	1.035744	-0.581390	-0.347980
Zn4	Zn	1.535744	-0.081390	0.152020
Zn5	Zn	0.925663	-0.424281	-0.336506
Zn6	Zn	1.425663	0.075719	0.163494
Zn7	Zn	0.913591	-0.580846	-0.460710
Zn8	Zn	1.413591	-0.080846	0.039290
O9	O	0.978220	-0.505720	-0.401107
O10	O	1.478220	-0.005720	0.098893
O11	O	1.135682	-0.460886	-0.448660
O12	O	1.635682	0.039114	0.051340
O13	O	1.025299	-0.555720	-0.247919
O14	O	1.525299	-0.055720	0.252081
O15	O	0.946495	-0.299666	-0.347366
O16	O	1.446495	0.200334	0.152634
O17	O	1.134112	-0.567437	-0.366923
O18	O	1.634112	-0.067437	0.133077
O19	O	1.028941	-0.308543	-0.437534
O20	O	1.528941	0.191457	0.062466
O21	O	0.944423	-0.440292	-0.239489
O22	O	1.444423	0.059708	0.260511
O23	O	0.825977	-0.439765	-0.348797
O24	O	1.325977	0.060235	0.151203
O25	O	0.925920	-0.566510	-0.559053
O26	O	1.425920	-0.066510	-0.059053
O27	O	0.817107	-0.554793	-0.440049
O28	O	1.317107	-0.054793	0.059951
O29	O	1.017235	-0.460359	-0.557969
O30	O	1.517235	0.039641	-0.057969
O31	O	1.013594	-0.707536	-0.368354
O32	O	1.513594	-0.207536	0.131646
O33	O	0.923848	-0.707136	-0.451175
O34	O	1.423848	-0.207136	0.048825
C35	C	0.796110	-0.495910	-0.393339
C36	C	1.296110	0.004090	0.106661
C37	C	0.718201	-0.491735	-0.390033
C38	C	1.218201	0.008265	0.109967
C39	C	0.967198	-0.740065	-0.411186
C40	C	1.467198	-0.240065	0.088814
C41	C	0.962545	-0.840323	-0.415524
C42	C	1.462545	-0.340323	0.084476
C43	C	0.676998	-0.549746	-0.435923
C44	C	1.176998	-0.049746	0.064077
C45	C	0.603795	-0.545812	-0.432820
C46	C	1.103795	-0.045812	0.067180
C47	C	0.571795	-0.483870	-0.383823
C48	C	1.071795	0.016130	0.116177
C49	C	0.613003	-0.425853	-0.337931
C50	C	1.113003	0.074147	0.162069
C51	C	0.686205	-0.429783	-0.341038
C52	C	1.186205	0.070217	0.158962
C53	C	0.353358	-0.465680	-0.369446
C54	C	0.853358	0.034320	0.130554
C55	C	0.280150	-0.461756	-0.366341
C56	C	0.780150	0.038244	0.133659
C57	C	0.270947	-0.581715	-0.461231
C58	C	0.770947	-0.081715	0.038769
C59	C	0.344151	-0.585643	-0.464331
C60	C	0.844151	-0.085643	0.035669
C61	C	0.385353	-0.527623	-0.418441
C62	C	0.885353	-0.027623	0.081559
N63	N	0.496969	-0.479850	-0.380648
N64	N	0.996969	0.020150	0.119352
N65	N	0.460177	-0.531640	-0.421620
N66	N	0.960177	-0.031640	0.078380
C67	C	1.047344	-1.029082	-0.337510
C68	C	1.547344	-0.529082	0.162490
C69	C	1.042976	-1.123283	-0.341584
C70	C	1.542976	-0.623283	0.158416
C71	C	0.949443	-1.122929	-0.427749
C72	C	1.449443	-0.622929	0.072251
C73	C	0.953812	-1.028727	-0.423675
C74	C	1.453812	-0.528727	0.076325
C75	C	1.002763	-0.981807	-0.378553
C76	C	1.502763	-0.481807	0.121447
C77	C	1.007128	-0.887604	-0.374476
C78	C	1.507128	-0.387604	0.125524
C79	C	0.913600	-0.887251	-0.460644
C80	C	1.413600	-0.387251	0.039356
C81	C	0.909231	-0.981453	-0.464718
C82	C	1.409231	-0.481453	0.035282
C83	C	1.161040	-0.515570	-0.408907
C84	C	1.661040	-0.015570	0.091093
C85	C	1.238948	-0.519767	-0.412230
C86	C	1.738948	-0.019767	0.087770
C87	C	0.970470	-0.514721	-0.584776
C88	C	1.470470	-0.014721	-0.084776
C89	C	0.967167	-0.518557	-0.663044
C90	C	1.467167	-0.018557	-0.163044
C91	C	0.989303	-0.270463	-0.391006
C92	C	1.489303	0.229537	0.108994
C93	C	0.994026	-0.170210	-0.386701
C94	C	1.494026	0.329790	0.113299
C95	C	1.013156	-0.465095	-0.699251
C96	C	1.513156	0.034905	-0.199251
C97	C	1.010044	-0.468695	-0.772793
C98	C	1.510044	0.031305	-0.272793
C99	C	0.960947	-0.525763	-0.810125
C100	C	1.460947	-0.025763	-0.310125
C101	C	0.914953	-0.579227	-0.773913
C102	C	1.414953	-0.079227	-0.273913
C103	C	0.918062	-0.575622	-0.700373
C104	C	1.418062	-0.075622	-0.200373
C105	C	0.946548	-0.542468	-1.030127
C106	C	1.446548	-0.042468	-0.530127
C107	C	0.943444	-0.546071	-1.103672
C108	C	1.443444	-0.046071	-0.603672
C109	C	1.038535	-0.435537	-1.102547
C110	C	1.538535	0.064463	-0.602547
C111	C	1.041642	-0.431941	-1.029006
C112	C	1.541642	0.068059	-0.529006
C113	C	0.995646	-0.485402	-0.992799
C114	C	1.495646	0.014598	-0.492799
N115	N	0.957767	-0.529446	-0.885296
N116	N	1.457767	-0.029446	-0.385296
N117	N	0.998824	-0.481713	-0.917629
N118	N	1.498824	0.018287	-0.417629
C119	C	0.985983	-0.496691	-0.218153
C120	C	1.485983	0.003309	0.281847
C121	C	0.989433	-0.492609	-0.139879
C122	C	1.489433	0.007391	0.360121
H123	H	0.703047	-0.600189	-0.475819
H124	H	1.203047	-0.100189	0.024181
O125	O	1.088138	-0.377876	-1.141601
O126	O	1.588138	0.122124	-0.641601
H127	H	1.122803	-0.337593	-1.103286
H128	H	1.622803	0.162407	-0.603286
O129	O	0.245621	-0.394971	-0.313479
O130	O	0.745621	0.105029	0.186521
H131	H	0.213079	-0.348911	-0.341658
H132	H	0.713079	0.151089	0.158342
O133	O	0.890482	-0.607619	-1.143942
O134	O	1.390482	-0.107619	-0.643942
H135	H	0.859015	-0.644182	-1.106411
H136	H	1.359015	-0.144182	-0.606411
O137	O	1.094598	-0.370384	-0.988744
O138	O	1.594598	0.129616	-0.488744
H139	H	1.089038	-0.376866	-0.931525
H140	H	1.589038	0.123134	-0.431525
O141	O	0.868456	-0.633285	-0.661321
O142	O	1.368456	-0.133285	-0.161321
H143	H	0.878860	-0.621183	-0.603911
H144	H	1.378860	-0.121183	-0.103911
O145	O	1.100140	-0.978460	-0.288853
O146	O	1.600140	-0.478460	0.211147
H147	H	1.089667	-0.993221	-0.233847
H148	H	1.589667	-0.493221	0.266153
O149	O	0.559358	-0.608384	-0.482317
O150	O	1.059358	-0.108384	0.017683
H151	H	0.503080	-0.595239	-0.471933
H152	H	1.003080	-0.095239	0.028067
H153	H	0.370200	-0.636085	-0.504228
H154	H	0.870200	-0.136085	-0.004228
O155	O	0.861996	-0.640779	-0.814177
O156	O	1.361996	-0.140779	-0.314177
H157	H	0.808312	-0.621643	-0.797051
H158	H	1.308312	-0.121643	-0.297051
H159	H	0.386895	-0.418442	-0.332074
H160	H	0.886895	0.081558	0.167926
H161	H	0.586943	-0.375415	-0.298039
H162	H	1.086943	0.124585	0.201961
H163	H	0.909104	-0.586013	-1.000657
H164	H	1.409104	-0.086013	-0.500657
H165	H	0.237393	-0.628951	-0.498592
H166	H	0.737393	-0.128951	0.001408
H167	H	1.046985	-0.849402	-0.337734
H168	H	1.546985	-0.349402	0.162266
O169	O	0.730650	-0.367225	-0.291536
O170	O	1.230650	0.132775	0.208464
H171	H	0.696102	-0.323501	-0.256936
H172	H	1.196102	0.176499	0.243064
H173	H	1.079279	-1.161771	-0.308163
H174	H	1.579279	-0.661771	0.191837
O175	O	1.059653	-0.411037	-0.811843
O176	O	1.559653	0.088963	-0.311843
H177	H	1.029033	-0.365089	-0.842032
H178	H	1.529033	0.134911	-0.342032
H179	H	0.869378	-1.019668	-0.501457
H180	H	1.369378	-0.519668	-0.001457
O181	O	0.896641	-1.173541	-0.476404
O182	O	1.396641	-0.673541	0.023596
H183	H	0.901091	-1.246986	-0.472334
H184	H	1.401091	-0.746986	0.027666
H185	H	1.053138	-0.418626	-0.668861
H186	H	1.553138	0.081374	-0.168861
O187	O	0.865513	-0.836265	-0.504920
O188	O	1.365513	-0.336265	-0.004920
H189	H	0.876775	-0.762878	-0.494511
H190	H	1.376775	-0.262878	0.005489
