data_functionalizedCrystal
_audit_creation_method	'MofGen! by Chris Wilmer'
_symmetry_space_group_name_H-M	'P1'
_symmetry_Int_Tables_number	1
_symmetry_cell_setting	triclinic
loop_
_symmetry_equiv_pos_as_xyz
  x,y,z
_cell_length_a	15.297327
_cell_length_b	15.297475
_cell_length_c	15.298259
_cell_angle_alpha	91.629109
_cell_angle_beta	88.343348
_cell_angle_gamma	88.374454
loop_
_atom_site_label
_atom_site_type_symbol
_atom_site_fract_x
_atom_site_fract_y
_atom_site_fract_z
Zn1	Zn	-0.425823	-1.169549	-0.785809
Zn2	Zn	-0.596500	-1.161139	-0.663014
Zn3	Zn	-0.434114	-1.046767	-0.615184
Zn4	Zn	-0.548496	-0.998847	-0.777488
O5	O	-0.501233	-1.094075	-0.710374
O6	O	-0.465083	-1.287737	-0.793019
O7	O	-0.598519	-1.162502	-0.537354
O8	O	-0.313716	-1.086628	-0.621283
O9	O	-0.590479	-1.281559	-0.702802
O10	O	-0.307624	-1.176836	-0.746641
O11	O	-0.479215	-1.078474	-0.502214
O12	O	-0.432668	-0.921106	-0.613215
O13	O	-0.508664	-1.004956	-0.897906
O14	O	-0.516704	-0.885899	-0.732458
O15	O	-0.418536	-1.130370	-0.904020
O16	O	-0.709431	-1.116036	-0.694733
O17	O	-0.674163	-0.996801	-0.778837
C18	C	-0.470377	-0.872568	-0.666744
C19	C	-0.457194	-0.777800	-0.648102
C20	C	-0.722729	-1.050327	-0.741095
C21	C	-0.817491	-1.031685	-0.754282
C22	C	-0.457320	-1.063256	-0.932765
C23	C	-0.438607	-1.050122	-1.027535
C24	C	-1.157929	-1.227622	-0.616486
C25	C	-1.068897	-1.245137	-0.604092
C26	C	-1.006041	-1.191776	-0.641638
C27	C	-1.032226	-1.120896	-0.691581
C28	C	-1.121268	-1.103375	-0.703971
C29	C	-0.969380	-1.067529	-0.729123
C30	C	-0.995565	-0.996649	-0.779066
C31	C	-1.084599	-0.979132	-0.791454
C32	C	-1.147454	-1.032493	-0.753907
C33	C	-0.880338	-1.085050	-0.716734
C34	C	-0.843677	-0.960803	-0.804219
C35	C	-0.932710	-0.943287	-0.816613
C36	C	-0.278873	-1.138015	-0.679555
C37	C	-0.184116	-1.156740	-0.666422
C38	C	-0.532210	-1.316447	-0.754174
C39	C	-0.545411	-1.411209	-0.772839
C40	C	-0.595466	-0.437417	-0.843613
C41	C	-0.607859	-0.526455	-0.861126
C42	C	-0.570194	-0.589296	-0.807872
C43	C	-0.520133	-0.563089	-0.737101
C44	C	-0.507744	-0.474041	-0.719581
C45	C	-0.482472	-0.625920	-0.683841
C46	C	-0.432411	-0.599713	-0.613069
C47	C	-0.420023	-0.510673	-0.595554
C48	C	-0.457689	-0.447833	-0.648808
C49	C	-0.494861	-0.714968	-0.701360
C50	C	-0.407139	-0.751592	-0.577329
C51	C	-0.394745	-0.662553	-0.559815
C52	C	-0.634327	-1.188100	-1.367852
C53	C	-0.651914	-1.200434	-1.278811
C54	C	-0.598588	-1.162857	-1.215988
C55	C	-0.527673	-1.112944	-1.242214
C56	C	-0.510089	-1.100603	-1.331264
C57	C	-0.474350	-1.075360	-1.179399
C58	C	-0.403436	-1.025447	-1.205625
C59	C	-0.385854	-1.013109	-1.294667
C60	C	-0.439179	-1.050685	-1.357490
C61	C	-0.491935	-1.087701	-1.090350
C62	C	-0.367697	-1.000205	-1.053761
C63	C	-0.350110	-0.987871	-1.142802
C64	C	-0.544921	-1.124836	-0.488849
C65	C	-0.563417	-1.138182	-0.394078
H66	H	-0.859026	-1.142761	-0.676070
H67	H	-0.677742	-1.218682	-1.419009
H68	H	-0.549670	-1.128347	-1.069006
H69	H	-1.209113	-1.271057	-0.585914
H70	H	-0.933548	-1.206041	-0.631543
H71	H	-0.580287	-0.661794	-0.822136
H72	H	-1.047580	-1.302847	-0.563428
H73	H	-0.328117	-0.972457	-1.316016
H74	H	-0.353985	-0.641202	-0.502192
H75	H	-0.792499	-0.917350	-0.834790
H76	H	-0.612913	-1.172902	-1.143487
H77	H	-0.535620	-0.736296	-0.758983
H78	H	-0.709660	-1.241064	-1.257464
H79	H	-1.219954	-1.018238	-0.763998
H80	H	-0.424862	-1.040648	-1.429996
H81	H	-0.292371	-0.947230	-1.164169
H82	H	-0.379271	-0.489339	-0.537919
H83	H	-0.324276	-0.969606	-1.002609
H84	H	-0.376470	-0.802757	-0.533963
H85	H	-0.954043	-0.885576	-0.857276
H86	H	-1.105916	-0.921408	-0.832108
H87	H	-0.626134	-0.386246	-0.886960
H88	H	-0.648621	-0.547786	-0.918747
H89	H	-0.447599	-0.375329	-0.634554
