data_functionalizedCrystal
_audit_creation_method	'MofGen! by Chris Wilmer'
_symmetry_space_group_name_H-M	'P1'
_symmetry_Int_Tables_number	1
_symmetry_cell_setting	triclinic
loop_
_symmetry_equiv_pos_as_xyz
  x,y,z
_cell_length_a	15.944551
_cell_length_b	10.654550
_cell_length_c	9.130313
_cell_angle_alpha	89.996249
_cell_angle_beta	90.001710
_cell_angle_gamma	83.991834
loop_
_atom_site_label
_atom_site_type_symbol
_atom_site_fract_x
_atom_site_fract_y
_atom_site_fract_z
O1	O	-1.115460	-0.161965	0.121646
O2	O	-0.871026	-0.181934	0.121682
O3	O	-0.998863	0.010863	0.121654
O4	O	-0.987623	-0.354761	0.121674
O5	O	-0.998855	0.010866	-0.121945
O6	O	-0.871018	-0.181930	-0.121916
O7	O	-1.115452	-0.161961	-0.121953
Cu8	Cu	-0.993235	-0.171946	-0.144177
Cu9	Cu	-0.993243	-0.171950	0.143907
O10	O	-0.987615	-0.354758	-0.121925
C11	C	-0.839723	-0.181103	-0.000112
C12	C	-0.746463	-0.178618	-0.000099
C13	C	-1.146755	-0.162792	-0.000155
C14	C	-1.240015	-0.165278	-0.000159
C15	C	-0.998034	0.057652	-0.000144
C16	C	-0.995565	0.197063	-0.000142
C17	C	-0.530880	-0.053173	-0.000134
C18	C	-0.470201	-0.111427	0.119976
C19	C	-0.575711	-0.174122	-0.000116
C20	C	-0.470216	-0.111452	-0.120193
C21	C	-0.410773	-0.169770	-0.000140
C22	C	-0.516260	-0.232409	0.120093
C23	C	-0.516281	-0.232417	-0.120184
C24	C	-0.455620	-0.290759	-0.000044
C25	C	-0.670728	-0.176625	-0.000102
C26	C	-0.315757	-0.167276	-0.000144
C27	C	-0.988444	-0.401547	-0.000123
C28	C	-0.990913	-0.540958	-0.000116
N29	N	-0.993235	-0.171942	-0.346800
C30	C	-1.070833	0.277522	-0.000152
C31	C	-1.068508	0.408513	-0.000134
C32	C	-0.915639	0.378572	-0.000101
C33	C	-0.917965	0.247584	-0.000108
C34	C	-1.049864	-0.086603	-0.576811
C35	C	-1.049859	-0.086605	-0.423474
C36	C	-0.936618	-0.257291	-0.423470
C37	C	-0.936627	-0.257295	-0.576804
N38	N	-0.993250	-0.171943	0.346529
H39	H	-0.563632	0.047204	0.000009
Br40	Br	-0.436238	-0.026154	-0.289435
H41	H	-1.095961	-0.017115	-0.361062
H42	H	-0.890516	-0.326781	-0.361033
H43	H	-0.449797	-0.060272	0.221516
Br44	Br	-1.126710	0.029228	-0.680853
H45	H	-0.536706	-0.283530	-0.221728
H46	H	-0.856669	0.182070	-0.000095
H47	H	-1.134019	0.236393	-0.000176
Br48	Br	-0.859795	-0.373131	-0.680855
Br49	Br	-1.170663	0.517705	-0.000140
H50	H	-0.536546	-0.283528	0.221748
Br51	Br	-0.401319	-0.458231	0.000067
Br52	Br	-0.810331	0.447145	-0.000051
