data_functionalizedCrystal
_audit_creation_method	'MofGen! by Chris Wilmer'
_symmetry_space_group_name_H-M	'P1'
_symmetry_Int_Tables_number	1
_symmetry_cell_setting	triclinic
loop_
_symmetry_equiv_pos_as_xyz
  x,y,z
_cell_length_a	19.805407
_cell_length_b	18.101395
_cell_length_c	19.805380
_cell_angle_alpha	89.896172
_cell_angle_beta	89.929483
_cell_angle_gamma	90.031104
loop_
_atom_site_label
_atom_site_type_symbol
_atom_site_fract_x
_atom_site_fract_y
_atom_site_fract_z
Zn1	Zn	1.035054	-0.294271	-0.382732
Zn2	Zn	1.034859	-0.418285	-0.269549
Zn3	Zn	0.921768	-0.294462	-0.269557
Zn4	Zn	0.921823	-0.418076	-0.382696
O5	O	0.978376	-0.356273	-0.326133
O6	O	1.129745	-0.310730	-0.367730
O7	O	1.019753	-0.402027	-0.174833
O8	O	0.936854	-0.190804	-0.284588
O9	O	1.129601	-0.401842	-0.284575
O10	O	1.020085	-0.190664	-0.367738
O11	O	0.936665	-0.311055	-0.174839
O12	O	0.827059	-0.310852	-0.284553
O13	O	0.936948	-0.401485	-0.477418
O14	O	0.827099	-0.401670	-0.367676
O15	O	1.020138	-0.310527	-0.477444
O16	O	1.019806	-0.521890	-0.284539
O17	O	0.936759	-0.521736	-0.367668
C18	C	0.802520	-0.356259	-0.326112
C19	C	0.727288	-0.356271	-0.326118
C20	C	0.978286	-0.548684	-0.326113
C21	C	0.978309	-0.630998	-0.326128
C22	C	0.691983	-0.403632	-0.369330
C23	C	0.621294	-0.403633	-0.369340
C24	C	0.585913	-0.356277	-0.326133
C25	C	0.621223	-0.308911	-0.282919
C26	C	0.691910	-0.308907	-0.282914
C27	C	0.336150	-0.308927	-0.282942
C28	C	0.265458	-0.308937	-0.282949
C29	C	0.265534	-0.403654	-0.369368
C30	C	0.336221	-0.403649	-0.369362
C31	C	0.371525	-0.356281	-0.326151
C32	C	0.448174	-0.356279	-0.326142
C33	C	0.509265	-0.356282	-0.326138
C34	C	0.978457	-0.930089	-0.326164
C35	C	0.926328	-0.898698	-0.378596
C36	C	0.926080	-0.813080	-0.378432
C37	C	0.978384	-0.781707	-0.326147
C38	C	0.959009	-0.812962	-0.254812
C39	C	0.958673	-0.898607	-0.255125
C40	C	1.050075	-0.898406	-0.344439
C41	C	1.049655	-0.812753	-0.346003
C42	C	0.978343	-0.697847	-0.326132
C43	C	0.978496	-1.013948	-0.326174
C44	C	1.154919	-0.356288	-0.326156
C45	C	1.230151	-0.356294	-0.326165
C46	C	0.978571	-0.355961	-0.502677
C47	C	0.978654	-0.355828	-0.577909
C48	C	0.978485	-0.163111	-0.326168
C49	C	0.978532	-0.080797	-0.326183
C50	C	0.978221	-0.356531	-0.150277
C51	C	0.978269	-0.356455	-0.075045
C52	C	0.935056	-0.308852	0.386710
C53	C	0.934999	-0.308944	0.316022
C54	C	0.978543	-0.356008	0.280716
C55	C	1.022143	-0.402989	0.316102
C56	C	1.022197	-0.402901	0.386789
C57	C	1.021926	-0.403345	0.031029
C58	C	1.021871	-0.403428	-0.039663
C59	C	0.934728	-0.309388	-0.039738
C60	C	0.934782	-0.309300	0.030949
C61	C	0.978379	-0.356284	0.066329
C62	C	0.978440	-0.356185	0.142977
C63	C	0.978486	-0.356103	0.204069
H64	H	0.592552	-0.442199	-0.404527
O65	O	0.729990	-0.257832	-0.236297
H66	H	0.716459	-0.199709	-0.247993
O67	O	1.068838	-0.454197	-0.077741
H68	H	1.061480	-0.446356	-0.132838
O69	O	0.888093	-0.258087	0.424789
H70	H	0.857764	-0.225441	0.388308
O71	O	0.942131	-0.785048	-0.448491
H72	H	0.899401	-0.751102	-0.467225
O73	O	0.887981	-0.258271	0.277858
H74	H	0.857719	-0.225521	0.314284
H75	H	0.236780	-0.442220	-0.404555
H76	H	0.899326	-0.270973	0.059692
H77	H	1.067726	-0.919879	-0.395570
H78	H	0.906319	-0.918672	-0.239645
O79	O	1.069022	-0.785669	-0.415537
H80	H	1.028064	-0.750240	-0.435874
H81	H	0.592410	-0.270350	-0.247743
H82	H	1.057704	-0.441148	0.415595
H83	H	0.720785	-0.442197	-0.404512
H84	H	0.938337	-0.919168	-0.431662
O85	O	1.069105	-0.453758	0.278026
H86	H	1.122159	-0.440631	0.291458
H87	H	0.995781	-0.792651	-0.214680
O88	O	0.890393	-0.784677	-0.233933
H89	H	0.869979	-0.748368	-0.274243
H90	H	0.873567	-0.920302	-0.366643
O91	O	0.887699	-0.258713	-0.077896
H92	H	0.898979	-0.200487	-0.064507
H93	H	1.090554	-0.791392	-0.310598
O94	O	1.068963	-0.453999	0.069186
H95	H	1.099242	-0.486727	0.032757
O96	O	0.227291	-0.257852	-0.236353
H97	H	0.263716	-0.224906	-0.206309
O98	O	0.374213	-0.257856	-0.236315
H99	H	0.360681	-0.199731	-0.248002
H100	H	0.872996	-0.792674	-0.366327
H101	H	0.365025	-0.442214	-0.404543
H102	H	0.994992	-0.919383	-0.214727
O103	O	1.101561	-0.925467	-0.293969
H104	H	1.076305	-0.961287	-0.256037
