data_functionalizedCrystal
_audit_creation_method	'MofGen! by Chris Wilmer'
_symmetry_space_group_name_H-M	'P1'
_symmetry_Int_Tables_number	1
_symmetry_cell_setting	triclinic
loop_
_symmetry_equiv_pos_as_xyz
  x,y,z
_cell_length_a	6.817900
_cell_length_b	12.000032
_cell_length_c	12.200875
_cell_angle_alpha	89.605781
_cell_angle_beta	107.143593
_cell_angle_gamma	119.142083
loop_
_atom_site_label
_atom_site_type_symbol
_atom_site_fract_x
_atom_site_fract_y
_atom_site_fract_z
V1	V	-4.155829	-0.177158	-0.359598
O2	O	-4.050982	0.008214	-0.350763
O3	O	-4.192930	-0.350986	-0.359053
O4	O	-4.124271	-0.174564	-0.515558
O5	O	-4.120116	-0.169430	-0.193174
V6	V	-4.626196	-0.154969	-0.339460
O7	O	-4.445947	-0.225829	-0.403773
O8	O	-4.786276	-0.106298	-0.295285
O9	O	-4.365889	0.018859	-0.340005
O10	O	-4.848441	-0.340341	-0.348296
O11	O	-4.779306	-0.162697	-0.505884
O12	O	-4.434548	-0.157563	-0.183500
C13	C	-4.058186	-0.393358	-0.353874
C14	C	-4.169919	-0.535466	-0.354468
C15	C	-4.042975	-0.592632	-0.349225
C16	C	-4.158453	-0.739508	-0.349839
C17	C	-3.970603	-0.168312	-0.553511
C18	C	-4.026650	-0.167341	-0.681021
C19	C	-4.129224	-0.165565	-0.914476
C20	C	-4.072136	-0.166553	-0.784565
C21	C	-4.163978	0.061224	-0.345181
C22	C	-4.031484	0.203331	-0.344595
C23	C	-4.251560	-0.163820	-0.145542
C24	C	-4.174748	-0.164784	-0.018030
H25	H	-4.364086	-0.595259	-0.359400
Cl26	Cl	-3.743170	-0.500320	-0.341574
H27	H	-3.837299	-0.736880	-0.339647
Cl28	Cl	-4.458250	-0.831810	-0.357462
