data_functionalizedCrystal
_audit_creation_method	'MofGen! by Chris Wilmer'
_symmetry_space_group_name_H-M	'P1'
_symmetry_Int_Tables_number	1
_symmetry_cell_setting	triclinic
loop_
_symmetry_equiv_pos_as_xyz
  x,y,z
_cell_length_a	19.805404
_cell_length_b	19.805407
_cell_length_c	19.805399
_cell_angle_alpha	90.026078
_cell_angle_beta	89.972890
_cell_angle_gamma	89.971791
loop_
_atom_site_label
_atom_site_type_symbol
_atom_site_fract_x
_atom_site_fract_y
_atom_site_fract_z
Zn1	Zn	-0.269504	-1.034721	-0.382839
Zn2	Zn	0.230496	-0.534721	0.117161
Zn3	Zn	-0.382692	-1.034629	-0.269652
Zn4	Zn	0.117308	-0.534629	0.230348
Zn5	Zn	-0.269520	-0.921535	-0.269651
Zn6	Zn	0.230480	-0.421535	0.230349
Zn7	Zn	-0.382653	-0.921493	-0.382786
Zn8	Zn	0.117347	-0.421493	0.117214
O9	O	-0.326092	-0.978095	-0.326232
O10	O	0.173908	-0.478095	0.173768
O11	O	-0.284528	-1.129425	-0.367848
O12	O	0.215472	-0.629425	0.132152
O13	O	-0.367702	-1.019607	-0.174935
O14	O	0.132298	-0.519607	0.325065
O15	O	-0.174801	-0.936606	-0.284688
O16	O	0.325199	-0.436606	0.215312
O17	O	-0.367687	-1.129358	-0.284689
O18	O	0.132313	-0.629358	0.215311
O19	O	-0.174789	-1.019763	-0.367847
O20	O	0.325211	-0.519763	0.132153
O21	O	-0.284555	-0.936517	-0.174935
O22	O	0.215445	-0.436517	0.325065
O23	O	-0.284518	-0.826813	-0.284636
O24	O	0.215482	-0.326813	0.215364
O25	O	-0.367621	-0.936533	-0.477510
O26	O	0.132379	-0.436533	0.022490
O27	O	-0.367637	-0.826782	-0.367756
O28	O	0.132363	-0.326782	0.132244
O29	O	-0.284490	-1.019721	-0.477549
O30	O	0.215510	-0.519721	0.022451
O31	O	-0.477404	-1.019565	-0.284637
O32	O	0.022596	-0.519565	0.215363
O33	O	-0.477375	-0.936444	-0.367756
O34	O	0.022625	-0.436444	0.132244
C35	C	-0.326075	-0.802238	-0.326190
C36	C	0.173925	-0.302238	0.173810
C37	C	-0.326084	-0.727006	-0.326188
C38	C	0.173916	-0.227006	0.173812
C39	C	-0.369446	-0.265217	-0.369465
C40	C	0.130554	0.234783	0.130535
C41	C	-0.369445	-0.335905	-0.369452
C42	C	0.130555	0.164095	0.130548
C43	C	-0.326102	-0.371245	-0.326239
C44	C	0.173898	0.128755	0.173761
C45	C	-0.282761	-0.335892	-0.283029
C46	C	0.217239	0.164108	0.216971
C47	C	-0.282765	-0.265205	-0.283038
C48	C	0.217235	0.234795	0.216962
C49	C	-0.282743	-0.620965	-0.282991
C50	C	0.217257	-0.120965	0.217009
C51	C	-0.282741	-0.691658	-0.282987
C52	C	0.217259	-0.191658	0.217013
C53	C	-0.369424	-0.691666	-0.369405
C54	C	0.130576	-0.191666	0.130595
C55	C	-0.369428	-0.620979	-0.369414
C56	C	0.130572	-0.120979	0.130586
C57	C	-0.326090	-0.585632	-0.326203
C58	C	0.173910	-0.085632	0.173797
C59	C	-0.326091	-0.508984	-0.326215
C60	C	0.173909	-0.008984	0.173785
C61	C	-0.326096	-0.447892	-0.326229
C62	C	0.173904	0.052108	0.173771
C63	C	-0.501948	-0.978009	-0.326206
C64	C	-0.001948	-0.478009	0.173794
C65	C	-0.577180	-0.978034	-0.326218
C66	C	-0.077180	-0.478034	0.173782
C67	C	-1.038964	-1.021542	-0.283047
C68	C	-0.538964	-0.521542	0.216953
C69	C	-0.968275	-1.021510	-0.283034
C70	C	-0.468275	-0.521510	0.216966
C71	C	-0.932942	-0.978183	-0.326268
C72	C	-0.432942	-0.478183	0.173732
C73	C	-0.968301	-0.934880	-0.369513
C74	C	-0.468301	-0.434880	0.130487
C75	C	-1.038988	-0.934909	-0.369523
C76	C	-0.538988	-0.434909	0.130477
C77	C	-0.683228	-0.934763	-0.369476
C78	C	-0.183228	-0.434763	0.130524
C79	C	-0.612536	-0.934739	-0.369465
C80	C	-0.112536	-0.434739	0.130535
C81	C	-0.612515	-1.021364	-0.282987
C82	C	-0.112515	-0.521364	0.217013
C83	C	-0.683202	-1.021392	-0.282996
C84	C	-0.183202	-0.521392	0.217004
C85	C	-0.718555	-0.978087	-0.326239
C86	C	-0.218555	-0.478087	0.173761
C87	C	-0.795203	-0.978121	-0.326252
C88	C	-0.295203	-0.478121	0.173748
C89	C	-0.856295	-0.978152	-0.326259
C90	C	-0.356295	-0.478152	0.173741
C91	C	-0.149550	-0.978199	-0.326273
C92	C	0.350450	-0.478199	0.173727
C93	C	-0.074318	-0.978244	-0.326290
C94	C	0.425682	-0.478244	0.173710
C95	C	-0.326050	-0.978132	-0.502775
C96	C	0.173950	-0.478132	-0.002775
C97	C	-0.326032	-0.978149	-0.578007
C98	C	0.173968	-0.478149	-0.078007
C99	C	-0.326107	-0.154637	-0.326266
C100	C	0.173893	0.345363	0.173734
C101	C	-0.326107	-0.229869	-0.326260
C102	C	0.173893	0.270131	0.173740
C103	C	-0.282743	-1.021466	-0.613373
C104	C	0.217257	-0.521466	-0.113373
C105	C	-0.282724	-1.021473	-0.684061
C106	C	0.217276	-0.521473	-0.184061
C107	C	-0.325996	-0.978165	-0.719383
C108	C	0.174004	-0.478165	-0.219383
C109	C	-0.369286	-0.934844	-0.684012
C110	C	0.130714	-0.434844	-0.184012
C111	C	-0.369302	-0.934834	-0.613325
C112	C	0.130698	-0.434834	-0.113325
C113	C	-0.369223	-0.934882	-0.969085
C114	C	0.130777	-0.434882	-0.469085
C115	C	-0.369206	-0.934896	-1.039777
C116	C	0.130794	-0.434896	-0.539777
C117	C	-0.282645	-1.021521	-1.039822
C118	C	0.217355	-0.521521	-0.539822
C119	C	-0.282661	-1.021511	-0.969135
C120	C	0.217339	-0.521511	-0.469135
C121	C	-0.325948	-0.978187	-0.933770
C122	C	0.174052	-0.478187	-0.433770
C123	C	-0.325968	-0.978179	-0.857122
C124	C	0.174032	-0.478179	-0.357122
C125	C	-0.325980	-0.978176	-0.796030
C126	C	0.174020	-0.478176	-0.296030
C127	C	-0.326086	-0.978096	-0.150376
C128	C	0.173914	-0.478096	0.349624
C129	C	-0.325913	-0.978211	-0.075144
C130	C	0.174087	-0.478211	0.424856
H131	H	-0.404738	-0.236448	-0.404658
H132	H	0.095262	0.263552	0.095342
H133	H	-0.939529	-0.899599	-0.404713
H134	H	-0.439529	-0.399599	0.095287
H135	H	-0.404445	-0.899628	-1.068534
H136	H	0.095555	-0.399628	-0.568534
H137	H	-0.583769	-0.899454	-0.404673
H138	H	-0.083769	-0.399454	0.095327
O139	O	-0.416184	-0.374033	-0.416057
O140	O	0.083816	0.125967	0.083943
H141	H	-0.446315	-0.337584	-0.446116
H142	H	0.053685	0.162416	0.053884
H143	H	-0.711967	-1.056676	-0.247793
H144	H	-0.211967	-0.556676	0.252207
O145	O	-0.415898	-0.888158	-0.930930
O146	O	0.084102	-0.388158	-0.430930
H147	H	-0.385587	-0.853743	-0.898733
H148	H	0.114413	-0.353743	-0.398733
O149	O	-0.415954	-0.888127	-0.722106
O150	O	0.084046	-0.388127	-0.222106
H151	H	-0.450393	-0.918401	-0.754308
H152	H	0.049607	-0.418401	-0.254308
H153	H	-1.067772	-0.899655	-0.404740
H154	H	-0.567772	-0.399655	0.095260
H155	H	-0.583723	-1.056623	-0.247774
H156	H	-0.083723	-0.556623	0.252226
H157	H	-0.712003	-0.899496	-0.404682
H158	H	-0.212003	-0.399496	0.095318
O159	O	-0.236071	-1.068176	-0.575276
O160	O	0.263929	-0.568176	-0.075276
H161	H	-0.205962	-1.098293	-0.611747
H162	H	0.294038	-0.598293	-0.111747
O163	O	-0.236039	-1.068197	-0.722208
O164	O	0.263961	-0.568197	-0.222208
H165	H	-0.205959	-1.098316	-0.685771
H166	H	0.294041	-0.598316	-0.185771
H167	H	-0.247426	-1.056778	-0.940379
H168	H	0.252574	-0.556778	-0.440379
O169	O	-0.235934	-1.068233	-1.077963
O170	O	0.264066	-0.568233	-0.577963
H171	H	-0.243179	-1.060956	-1.133051
H172	H	0.256821	-0.560956	-0.633051
H173	H	-0.939490	-1.056766	-0.247821
H174	H	-0.439490	-0.556766	0.252179
O175	O	-0.416254	-0.582860	-0.415945
O176	O	0.083746	-0.082860	0.084055
H177	H	-0.446424	-0.619316	-0.445954
H178	H	0.053576	-0.119316	0.054046
H179	H	-0.404714	-0.720453	-0.404588
H180	H	0.095286	-0.220453	0.095412
H181	H	-0.247443	-0.720429	-0.247795
H182	H	0.252557	-0.220429	0.252205
H183	H	-0.404545	-0.899554	-0.584531
H184	H	0.095455	-0.399554	-0.084531
H185	H	-0.247457	-0.592195	-0.247803
H186	H	0.252543	-0.092195	0.252197
O187	O	-0.236008	-0.374003	-0.236419
O188	O	0.263992	0.125997	0.263581
H189	H	-0.243280	-0.429095	-0.243676
H190	H	0.256720	0.070905	0.256324
O191	O	-1.077067	-1.068289	-0.236426
O192	O	-0.577067	-0.568289	0.263574
H193	H	-1.132160	-1.061046	-0.243705
H194	H	-0.632160	-0.561046	0.256295
H195	H	-0.247472	-0.236426	-0.247858
H196	H	0.252528	0.263574	0.252142
