data_functionalizedCrystal
_audit_creation_method	'MofGen! by Chris Wilmer'
_symmetry_space_group_name_H-M	'P1'
_symmetry_Int_Tables_number	1
_symmetry_cell_setting	triclinic
loop_
_symmetry_equiv_pos_as_xyz
  x,y,z
_cell_length_a	18.101398
_cell_length_b	18.101395
_cell_length_c	18.101389
_cell_angle_alpha	89.983159
_cell_angle_beta	89.975673
_cell_angle_gamma	90.026371
loop_
_atom_site_label
_atom_site_type_symbol
_atom_site_fract_x
_atom_site_fract_y
_atom_site_fract_z
Zn1	Zn	1.132121	-0.295001	-0.418847
Zn2	Zn	1.632121	0.204999	0.081153
Zn3	Zn	1.132017	-0.418826	-0.295009
Zn4	Zn	1.632017	0.081174	0.204991
Zn5	Zn	1.008280	-0.294993	-0.295008
Zn6	Zn	1.508280	0.205007	0.204992
Zn7	Zn	1.008231	-0.418795	-0.418797
Zn8	Zn	1.508231	0.081205	0.081203
O9	O	1.070162	-0.356904	-0.356915
O10	O	1.570162	0.143096	0.143085
O11	O	1.235740	-0.311443	-0.402440
O12	O	1.735740	0.188557	0.097560
O13	O	1.115580	-0.402410	-0.191376
O14	O	1.615580	0.097590	0.308624
O15	O	1.024772	-0.191361	-0.311456
O16	O	1.524772	0.308639	0.188544
O17	O	1.235664	-0.402417	-0.311457
O18	O	1.735664	0.097583	0.188543
O19	O	1.115757	-0.191367	-0.402440
O20	O	1.615757	0.308633	0.097560
O21	O	1.024671	-0.311430	-0.191375
O22	O	1.524671	0.188570	0.308625
O23	O	0.904641	-0.311399	-0.311408
O24	O	1.404641	0.188601	0.188592
O25	O	1.024688	-0.402363	-0.522437
O26	O	1.524688	0.097637	-0.022437
O27	O	0.904604	-0.402356	-0.402355
O28	O	1.404604	0.097644	0.097645
O29	O	1.115710	-0.311412	-0.522473
O30	O	1.615710	0.188588	-0.022473
O31	O	1.115532	-0.522455	-0.311409
O32	O	1.615532	-0.022455	0.188591
O33	O	1.024587	-0.522432	-0.402356
O34	O	1.524587	-0.022432	0.097644
C35	C	0.877752	-0.356874	-0.356877
C36	C	1.377752	0.143126	0.143123
C37	C	0.795437	-0.356879	-0.356878
C38	C	1.295437	0.143121	0.143122
C39	C	0.496347	-0.356925	-0.356940
C40	C	0.996347	0.143075	0.143060
C41	C	0.527670	-0.299412	-0.299997
C42	C	1.027670	0.200588	0.200003
C43	C	0.613288	-0.299566	-0.299754
C44	C	1.113288	0.200434	0.200246
C45	C	0.644729	-0.356901	-0.356909
C46	C	1.144729	0.143099	0.143091
C47	C	0.613611	-0.434909	-0.335587
C48	C	1.113611	0.065091	0.164413
C49	C	0.527966	-0.434590	-0.335191
C50	C	1.027966	0.065410	0.164809
C51	C	0.527961	-0.337109	-0.435339
C52	C	1.027961	0.162891	0.064661
C53	C	0.613612	-0.335371	-0.434911
C54	C	1.113612	0.164629	0.065089
C55	C	0.728589	-0.356893	-0.356893
C56	C	1.228589	0.143107	0.143107
C57	C	0.412487	-0.356939	-0.356954
C58	C	0.912487	0.143061	0.143046
C59	C	1.070063	-0.549314	-0.356893
C60	C	1.570063	-0.049314	0.143107
C61	C	1.070088	-0.631628	-0.356909
C62	C	1.570088	-0.131628	0.143091
C63	C	1.070251	-0.930719	-0.356949
C64	C	1.570251	-0.430719	0.143051
C65	C	1.013163	-0.899410	-0.414312
C66	C	1.513163	-0.399410	0.085688
C67	C	1.012892	-0.813792	-0.414133
C68	C	1.512892	-0.313792	0.085867
C69	C	1.070170	-0.782337	-0.356930
C70	C	1.570170	-0.282337	0.143070
C71	C	1.049041	-0.813472	-0.278878
C72	C	1.549041	-0.313472	0.221122
C73	C	1.048673	-0.899117	-0.279221
C74	C	1.548673	-0.399117	0.220779
C75	C	1.148593	-0.899073	-0.376950
C76	C	1.648593	-0.399073	0.123050
C77	C	1.148132	-0.813422	-0.378661
C78	C	1.648132	-0.313422	0.121339
C79	C	1.070126	-0.698477	-0.356914
C80	C	1.570126	-0.198477	0.143086
C81	C	1.070293	-1.014579	-0.356959
C82	C	1.570293	-0.514579	0.143041
C83	C	1.263324	-0.356934	-0.356954
C84	C	1.763324	0.143066	0.143046
C85	C	1.345638	-0.356948	-0.356971
C86	C	1.845638	0.143052	0.143029
C87	C	1.070205	-0.356885	-0.550077
C88	C	1.570205	0.143115	-0.050077
C89	C	1.070223	-0.356877	-0.632391
C90	C	1.570223	0.143123	-0.132391
C91	C	1.070282	-0.163742	-0.356953
C92	C	1.570282	0.336258	0.143047
C93	C	1.070333	-0.081428	-0.356970
C94	C	1.570333	0.418572	0.143030
C95	C	1.070266	-0.356738	-0.931482
C96	C	1.570266	0.143262	-0.431482
C97	C	1.012801	-0.413780	-0.900134
C98	C	1.512801	0.086220	-0.400134
C99	C	1.012956	-0.414045	-0.814516
C100	C	1.512956	0.085955	-0.314516
C101	C	1.070244	-0.356807	-0.783100
C102	C	1.570244	0.143193	-0.283100
C103	C	1.148270	-0.377998	-0.814206
C104	C	1.648270	0.122002	-0.314206
C105	C	1.147949	-0.378372	-0.899851
C106	C	1.647949	0.121628	-0.399851
C107	C	1.050385	-0.278379	-0.899905
C108	C	1.550385	0.221621	-0.399905
C109	C	1.048649	-0.278832	-0.814254
C110	C	1.548649	0.221168	-0.314254
C111	C	1.070237	-0.356845	-0.699240
C112	C	1.570237	0.143155	-0.199240
C113	C	1.070279	-0.356702	-1.015342
C114	C	1.570279	0.143298	-0.515342
C115	C	1.070162	-0.356869	-0.164505
C116	C	1.570162	0.143131	0.335495
C117	C	1.070287	-0.356668	-0.082191
C118	C	1.570287	0.143332	0.417809
H119	H	0.507954	-0.451397	-0.277877
H120	H	1.007954	0.048603	0.222123
H121	H	0.994478	-0.259074	-0.921490
H122	H	1.494478	0.240926	-0.421490
H123	H	1.191125	-0.919319	-0.335170
H124	H	1.691125	-0.419319	0.164830
H125	H	0.991229	-0.262852	-0.793921
H126	H	1.491229	0.237148	-0.293921
H127	H	0.955097	-0.400784	-0.793483
H128	H	1.455097	0.099216	-0.293483
H129	H	1.165415	-0.434671	-0.792765
H130	H	1.665415	0.065329	-0.292765
H131	H	0.507244	-0.478892	-0.374857
H132	H	1.007244	0.021108	0.125143
H133	H	0.506389	-0.281216	-0.454725
H134	H	1.006389	0.218784	0.045275
H135	H	1.164804	-0.435654	-0.919836
H136	H	1.664804	0.064346	-0.419836
H137	H	0.633975	-0.478909	-0.375763
H138	H	1.133975	0.021091	0.124237
H139	H	1.087450	-0.234076	-0.792868
H140	H	1.587450	0.265924	-0.292868
H141	H	0.991406	-0.919153	-0.262279
H142	H	1.491406	-0.419153	0.237721
H143	H	1.092240	-0.235880	-0.920179
H144	H	1.592240	0.264120	-0.420179
H145	H	0.635026	-0.452008	-0.278892
H146	H	1.135026	0.047992	0.221108
H147	H	1.025796	-0.471508	-0.921661
H148	H	1.525796	0.028492	-0.421661
H149	H	0.634329	-0.241719	-0.313119
H150	H	1.134329	0.258281	0.186881
H151	H	0.507099	-0.241388	-0.313215
H152	H	1.007099	0.258612	0.186785
H153	H	0.955448	-0.920990	-0.401230
H154	H	1.455448	-0.420990	0.098770
H155	H	0.633956	-0.277966	-0.450989
H156	H	1.133956	0.222034	0.049011
H157	H	0.635017	-0.374209	-0.479611
H158	H	1.135017	0.125791	0.020389
H159	H	1.026082	-0.472127	-0.794035
H160	H	1.526082	0.027873	-0.294035
H161	H	0.507705	-0.378999	-0.477766
H162	H	1.007705	0.121001	0.022234
H163	H	1.026111	-0.792740	-0.472007
H164	H	1.526111	-0.292740	0.027993
H165	H	1.192217	-0.338629	-0.920590
H166	H	1.692217	0.161371	-0.420590
H167	H	0.506120	-0.312363	-0.242242
H168	H	1.006120	0.187637	0.257758
H169	H	1.026252	-0.919970	-0.472374
H170	H	1.526252	-0.419970	0.027626
H171	H	1.167856	-0.920633	-0.432895
H172	H	1.667856	-0.420633	0.067105
H173	H	0.954768	-0.400655	-0.920720
H174	H	1.454768	0.099345	-0.420720
H175	H	0.954823	-0.793362	-0.400884
H176	H	1.454823	-0.293362	0.099116
H177	H	1.088449	-0.919830	-0.235023
H178	H	1.588449	-0.419830	0.264977
H179	H	1.192236	-0.337757	-0.793859
H180	H	1.692236	0.162243	-0.293859
H181	H	1.089313	-0.793097	-0.234972
H182	H	1.589313	-0.293097	0.265028
H183	H	0.992380	-0.792080	-0.261633
H184	H	1.492380	-0.292080	0.238367
H185	H	1.192915	-0.792007	-0.339927
H186	H	1.692915	-0.292007	0.160073
H187	H	0.633741	-0.312665	-0.241661
H188	H	1.133741	0.187335	0.258339
H189	H	1.164065	-0.793071	-0.436103
H190	H	1.664065	-0.293071	0.063897
