data_functionalizedCrystal
_audit_creation_method	'MofGen! by Chris Wilmer'
_symmetry_space_group_name_H-M	'P1'
_symmetry_Int_Tables_number	1
_symmetry_cell_setting	triclinic
loop_
_symmetry_equiv_pos_as_xyz
  x,y,z
_cell_length_a	13.897448
_cell_length_b	10.686154
_cell_length_c	10.685314
_cell_angle_alpha	81.644047
_cell_angle_beta	94.334330
_cell_angle_gamma	85.603301
loop_
_atom_site_label
_atom_site_type_symbol
_atom_site_fract_x
_atom_site_fract_y
_atom_site_fract_z
Zn1	Zn	-0.306655	-1.885470	-0.569063
Zn2	Zn	-0.454606	-1.901604	-0.356827
Zn3	Zn	-0.306726	-1.689480	-0.373092
Zn4	Zn	-0.481314	-1.673188	-0.585257
O5	O	-0.387325	-1.787436	-0.471060
O6	O	-0.315073	-2.065225	-0.527326
O7	O	-0.423843	-1.887036	-0.181372
O8	O	-0.171733	-1.715544	-0.399117
O9	O	-0.423773	-2.077079	-0.371397
O10	O	-0.171680	-1.859537	-0.543097
O11	O	-0.315196	-1.731190	-0.193321
O12	O	-0.341093	-1.509704	-0.414820
O13	O	-0.469292	-1.687777	-0.760722
O14	O	-0.469362	-1.497734	-0.570697
O15	O	-0.340971	-1.843739	-0.748825
O16	O	-0.593133	-1.871239	-0.387100
O17	O	-0.612755	-1.703422	-0.554926
C18	C	-0.408134	-1.457666	-0.496281
C19	C	-0.417061	-1.316586	-0.507101
C20	C	-0.637943	-1.787346	-0.471030
C21	C	-0.745154	-1.787420	-0.471051
C22	C	-0.941446	-1.787547	-0.471121
C23	C	-0.832216	-1.787473	-0.471086
C24	C	-0.135728	-1.787558	-0.471115
C25	C	-0.028513	-1.787610	-0.471138
C26	C	-0.408102	-1.762141	-0.802114
C27	C	-0.416956	-1.751362	-0.943190
C28	C	-0.366426	-1.118494	-0.445732
C29	C	-0.357495	-1.259573	-0.434918
C30	C	-0.366555	-1.812705	-0.141288
C31	C	-0.357414	-1.823729	-0.000194
H32	H	-0.474897	-1.257461	-0.577175
H33	H	-0.299669	-1.318691	-0.364841
H34	H	-0.299654	-1.893920	-0.941072
H35	H	-0.474710	-1.681153	-1.002320
