data_functionalizedCrystal
_audit_creation_method	'MofGen! by Chris Wilmer'
_symmetry_space_group_name_H-M	'P1'
_symmetry_Int_Tables_number	1
_symmetry_cell_setting	triclinic
loop_
_symmetry_equiv_pos_as_xyz
  x,y,z
_cell_length_a	17.699083
_cell_length_b	10.723024
_cell_length_c	16.776229
_cell_angle_alpha	89.994545
_cell_angle_beta	89.998886
_cell_angle_gamma	83.875442
loop_
_atom_site_label
_atom_site_type_symbol
_atom_site_fract_x
_atom_site_fract_y
_atom_site_fract_z
O1	O	1.005074	0.157797	-0.066174
O2	O	1.505074	0.657797	0.433826
O3	O	0.784825	0.178327	-0.066200
O4	O	1.284825	0.678327	0.433800
O5	O	0.900030	-0.013601	-0.066184
O6	O	1.400030	0.486399	0.433816
O7	O	0.889869	0.349725	-0.066191
O8	O	1.389869	0.849725	0.433809
O9	O	0.900014	-0.013613	0.066393
O10	O	1.400014	0.486387	0.566393
O11	O	0.784809	0.178315	0.066376
O12	O	1.284809	0.678315	0.566376
O13	O	1.005058	0.157785	0.066402
O14	O	1.505058	0.657785	0.566402
Zn15	Zn	0.894931	0.168048	0.087439
Zn16	Zn	1.394931	0.668048	0.587439
Zn17	Zn	0.894952	0.168064	-0.087237
Zn18	Zn	1.394952	0.668064	0.412763
O19	O	0.889854	0.349713	0.066386
O20	O	1.389854	0.849713	0.566386
C21	C	0.756616	0.177585	0.000085
C22	C	1.256616	0.677585	0.500085
C23	C	0.672584	0.175378	0.000075
C24	C	1.172584	0.675378	0.500075
C25	C	0.624673	0.288036	0.000073
C26	C	1.124673	0.788036	0.500073
C27	C	0.545717	0.285955	0.000083
C28	C	1.045717	0.785955	0.500083
C29	C	0.514672	0.171215	0.000090
C30	C	1.014672	0.671215	0.500090
C31	C	0.562589	0.058549	0.000094
C32	C	1.062589	0.558549	0.500094
C33	C	0.641544	0.060631	0.000090
C34	C	1.141544	0.560631	0.500090
C35	C	0.244173	0.050148	0.000114
C36	C	0.744173	0.550148	0.500114
C37	C	0.165212	0.048075	0.000116
C38	C	0.665212	0.548075	0.500116
C39	C	0.148346	0.275473	0.000108
C40	C	0.648346	0.775473	0.500108
C41	C	0.227301	0.277555	0.000103
C42	C	0.727301	0.777555	0.500103
C43	C	0.275210	0.164889	0.000112
C44	C	0.775210	0.664889	0.500112
C45	C	0.360824	0.167147	0.000102
C46	C	0.860824	0.667147	0.500102
C47	C	0.429060	0.168956	0.000094
C48	C	0.929060	0.668956	0.500094
C49	C	0.899283	-0.060094	0.000103
C50	C	1.399283	0.439906	0.500103
C51	C	0.897070	-0.198610	0.000100
C52	C	1.397070	0.301390	0.500100
C53	C	0.961533	-0.274698	0.000107
C54	C	1.461533	0.225302	0.500107
C55	C	0.959248	-0.417863	0.000104
C56	C	1.459248	0.082137	0.500104
C57	C	1.033268	0.158527	0.000115
C58	C	1.533268	0.658527	0.500115
C59	C	1.117300	0.160734	0.000120
C60	C	1.617300	0.660734	0.500120
C61	C	0.890601	0.396206	0.000097
C62	C	1.390601	0.896206	0.500097
C63	C	0.892813	0.534723	0.000095
C64	C	1.392813	1.034723	0.500095
N65	N	0.894923	0.168037	0.206650
N66	N	1.394923	0.668037	0.706650
N67	N	0.894966	0.168065	-0.206448
N68	N	1.394966	0.668065	0.293552
C69	C	0.945952	0.083086	0.248374
C70	C	1.445952	0.583086	0.748374
C71	C	0.945956	0.083085	0.331826
C72	C	1.445956	0.583085	0.831826
C73	C	0.894934	0.168042	0.373553
C74	C	1.394934	0.668042	0.873553
C75	C	0.843900	0.252997	0.331822
C76	C	1.343900	0.752997	0.831822
C77	C	0.843893	0.252991	0.248372
C78	C	1.343893	0.752991	0.748372
C79	C	0.843928	0.253021	0.668370
C80	C	1.343928	0.753021	1.168370
C81	C	0.843941	0.253023	0.751826
C82	C	1.343941	0.753023	1.251826
C83	C	0.945991	0.083115	0.751824
C84	C	1.445991	0.583115	1.251824
C85	C	0.945983	0.083109	0.668374
C86	C	1.445983	0.583109	1.168374
C87	C	0.894947	0.168059	0.626651
C88	C	1.394947	0.668059	1.126651
C89	C	0.894942	0.168058	0.536162
C90	C	1.394942	0.668058	1.036162
C91	C	0.894942	0.168050	0.464040
C92	C	1.394942	0.668050	0.964040
H93	H	0.109328	0.367210	0.000105
H94	H	0.609328	0.867210	0.500105
C95	C	1.002126	-0.010343	0.797727
C96	C	1.502126	0.489657	1.297727
N97	N	1.044406	-0.080734	0.832300
N98	N	1.544406	0.419266	1.332300
C99	C	1.038379	-0.219523	0.000122
C100	C	1.538379	0.280477	0.500122
N101	N	1.096261	-0.177966	0.000136
N102	N	1.596261	0.322034	0.500136
C103	C	0.694245	-0.063302	0.000089
C104	C	1.194245	0.436698	0.500089
N105	N	0.733939	-0.156652	0.000091
N106	N	1.233939	0.343348	0.500091
C107	C	0.820224	-0.253786	0.000093
C108	C	1.320224	0.246214	0.500093
N109	N	0.762342	-0.295342	0.000089
N110	N	1.262342	0.204658	0.500089
C111	C	0.296863	-0.073788	0.000118
C112	C	0.796863	0.426212	0.500118
N113	N	0.336553	-0.167143	0.000120
N114	N	0.836553	0.332857	0.500120
H115	H	0.837625	-0.399906	0.000094
H116	H	1.337625	0.100094	0.500094
H117	H	1.014433	-0.483241	0.000113
H118	H	1.514433	0.016759	0.500113
C119	C	0.787806	0.346479	0.797723
C120	C	1.287806	0.846479	1.297723
N121	N	0.745526	0.416865	0.832293
N122	N	1.245526	0.916865	1.332293
C123	C	1.002080	-0.010376	0.202483
C124	C	1.502080	0.489624	0.702483
N125	N	1.044355	-0.080778	0.167920
N126	N	1.544355	0.419222	0.667920
H127	H	0.987507	0.013911	0.365798
H128	H	1.487507	0.513911	0.865798
C129	C	1.002109	-0.010352	0.622479
C130	C	1.502109	0.489648	1.122479
N131	N	1.044381	-0.080754	0.587913
N132	N	1.544381	0.419246	1.087913
C133	C	0.787885	0.346631	0.622485
C134	C	1.287885	0.846631	1.122485
N135	N	0.745707	0.417199	0.587922
N136	N	1.245707	0.917199	1.087922
H137	H	0.802354	0.322166	0.365801
H138	H	1.302354	0.822166	0.865801
H139	H	0.649943	0.381471	0.000067
H140	H	1.149943	0.881471	0.500067
C141	C	0.261445	0.403777	0.000101
C142	C	0.761445	0.903777	0.500101
N143	N	0.287161	0.498851	0.000104
N144	N	0.787161	0.998851	0.500104
C145	C	0.493018	0.409888	0.000095
C146	C	0.993018	0.909888	0.500095
N147	N	0.453326	0.503240	0.000110
N148	N	0.953326	1.003240	0.500110
C149	C	0.528437	-0.067667	0.000103
C150	C	1.028437	0.432333	0.500103
N151	N	0.502715	-0.162735	0.000106
N152	N	1.002715	0.337265	0.500106
H153	H	0.139939	-0.045366	0.000123
H154	H	0.639939	0.454634	0.500123
C155	C	0.787764	0.346454	0.202475
C156	C	1.287764	0.846454	0.702475
N157	N	0.745486	0.416853	0.167907
N158	N	1.245486	0.916853	0.667907
