data_functionalizedCrystal
_audit_creation_method	'MofGen! by Chris Wilmer'
_symmetry_space_group_name_H-M	'P1'
_symmetry_Int_Tables_number	1
_symmetry_cell_setting	triclinic
loop_
_symmetry_equiv_pos_as_xyz
  x,y,z
_cell_length_a	25.639239
_cell_length_b	17.077404
_cell_length_c	17.077396
_cell_angle_alpha	90.018362
_cell_angle_beta	90.031074
_cell_angle_gamma	90.036656
loop_
_atom_site_label
_atom_site_type_symbol
_atom_site_fract_x
_atom_site_fract_y
_atom_site_fract_z
Zn1	Zn	-0.208179	1.199968	0.443805
Zn2	Zn	0.125154	1.533302	0.777138
Zn3	Zn	0.458488	1.866635	1.110471
Zn4	Zn	-0.295617	1.199839	0.312533
Zn5	Zn	0.037717	1.533173	0.645866
Zn6	Zn	0.371050	1.866506	0.979199
Zn7	Zn	-0.208194	1.068700	0.312555
Zn8	Zn	0.125139	1.402034	0.645889
Zn9	Zn	0.458473	1.735367	0.979222
Zn10	Zn	-0.295582	1.068632	0.443759
Zn11	Zn	0.037751	1.401965	0.777092
Zn12	Zn	0.371084	1.735299	1.110426
O13	O	-0.251893	1.134285	0.378163
O14	O	0.081440	1.467618	0.711496
O15	O	0.414774	1.800952	1.044830
O16	O	-0.219786	1.309798	0.426401
O17	O	0.113547	1.643132	0.759734
O18	O	0.446881	1.976465	1.093068
O19	O	-0.284041	1.182418	0.202689
O20	O	0.049293	1.515751	0.536022
O21	O	0.382626	1.849085	0.869355
O22	O	-0.135027	1.086196	0.329994
O23	O	0.198307	1.419529	0.663328
O24	O	0.531640	1.752862	0.996661
O25	O	-0.284026	1.309703	0.329956
O26	O	0.049307	1.643037	0.663289
O27	O	0.382641	1.976370	0.996623
O28	O	-0.135016	1.182638	0.426423
O29	O	0.198317	1.515971	0.759756
O30	O	0.531651	1.849305	1.093089
O31	O	-0.219811	1.086071	0.202705
O32	O	0.113522	1.419404	0.536039
O33	O	0.446855	1.752737	0.869372
O34	O	-0.219778	0.958844	0.329950
O35	O	0.113555	1.292178	0.663283
O36	O	0.446889	1.625511	0.996617
O37	O	-0.283967	1.086080	0.553612
O38	O	0.049366	1.419413	0.886945
O39	O	0.382699	1.752746	1.220279
O40	O	-0.283982	0.958794	0.426345
O41	O	0.049352	1.292127	0.759678
O42	O	0.382685	1.625461	1.093011
O43	O	-0.219753	1.182572	0.553646
O44	O	0.113581	1.515905	0.886979
O45	O	0.446914	1.849239	1.220312
O46	O	-0.368777	1.182352	0.329912
O47	O	-0.035444	1.515685	0.663245
O48	O	0.297889	1.849018	0.996578
O49	O	-0.368752	1.085954	0.426323
O50	O	-0.035419	1.419288	0.759656
O51	O	0.297915	1.752621	1.092990
C52	C	-0.251878	0.930337	0.378145
C53	C	0.081455	1.263670	0.711479
C54	C	0.414788	1.597004	1.044812
C55	C	-0.251884	0.843087	0.378156
C56	C	0.081449	1.176421	0.711490
C57	C	0.414782	1.509754	1.044823
C58	C	-0.387736	1.134153	0.378127
C59	C	-0.054402	1.467486	0.711460
C60	C	0.278931	1.800820	1.044794
C61	C	-0.445850	1.134168	0.378138
C62	C	-0.112516	1.467502	0.711471
C63	C	0.220817	1.800835	1.044804
C64	C	-0.218494	0.802147	0.428452
C65	C	0.114839	1.135481	0.761785
C66	C	0.448173	1.468814	1.095119
C67	C	-0.218498	0.720167	0.428456
C68	C	0.114836	1.053500	0.761789
C69	C	0.448169	1.386834	1.095122
C70	C	-0.251894	0.679128	0.378167
C71	C	0.081439	1.012461	0.711500
C72	C	0.414772	1.345795	1.044834
C73	C	-0.285286	0.720074	0.327866
C74	C	0.048047	1.053407	0.661199
C75	C	0.381381	1.386740	0.994533
C76	C	-0.285280	0.802053	0.327859
C77	C	0.048054	1.135386	0.661192
C78	C	0.381387	1.468719	0.994526
C79	C	-0.285298	0.549204	0.327885
C80	C	0.048035	0.882537	0.661219
C81	C	0.381369	1.215870	0.994552
C82	C	-0.285305	0.467219	0.327893
C83	C	0.048028	0.800552	0.661227
C84	C	0.381362	1.133886	0.994560
C85	C	-0.218516	0.467318	0.428482
C86	C	0.114818	0.800651	0.761815
C87	C	0.448151	1.133985	1.095149
C88	C	-0.218509	0.549297	0.428475
C89	C	0.114824	0.882630	0.761808
C90	C	0.448157	1.215963	1.095142
C91	C	-0.251902	0.590237	0.378175
C92	C	0.081431	0.923570	0.711508
C93	C	0.414765	1.256904	1.044841
C94	C	-0.806213	1.184610	0.328047
C95	C	-0.472880	1.517943	0.661380
C96	C	-0.139547	1.851277	0.994714
C97	C	-0.860818	1.184641	0.328058
C98	C	-0.527484	1.517974	0.661391
C99	C	-0.194151	1.851307	0.994724
O100	O	-0.889055	1.227391	0.285429
O101	O	-0.555721	1.560724	0.618762
O102	O	-0.222388	1.894058	0.952096
N103	N	-0.888132	1.134423	0.378215
N104	N	-0.554799	1.467756	0.711548
N105	N	-0.221465	1.801090	1.044882
C106	C	-0.860839	1.084177	0.428371
C107	C	-0.527506	1.417511	0.761704
C108	C	-0.194173	1.750844	1.095037
O109	O	-0.889086	1.041467	0.471035
O110	O	-0.555753	1.374800	0.804368
O111	O	-0.222420	1.708133	1.137702
C112	C	-0.806236	1.084151	0.428364
C113	C	-0.472903	1.417485	0.761697
C114	C	-0.139569	1.750818	1.095030
C115	C	-0.778924	1.134367	0.378197
C116	C	-0.445591	1.467700	0.711531
C117	C	-0.112258	1.801033	1.044864
C118	C	-0.778902	1.234822	0.277885
C119	C	-0.445568	1.568155	0.611219
C120	C	-0.112235	1.901489	0.944552
C121	C	-0.724301	1.234790	0.277874
C122	C	-0.390968	1.568124	0.611207
C123	C	-0.057634	1.901457	0.944541
C124	C	-0.697012	1.184547	0.328024
C125	C	-0.363679	1.517880	0.661358
C126	C	-0.030346	1.851213	0.994691
C127	C	-0.724324	1.134335	0.378186
C128	C	-0.390991	1.467668	0.711519
C129	C	-0.057657	1.801002	1.044853
C130	C	-0.778944	1.033910	0.478523
C131	C	-0.445611	1.367244	0.811856
C132	C	-0.112278	1.700577	1.145189
C133	C	-0.724337	1.033889	0.478512
C134	C	-0.391004	1.367223	0.811845
C135	C	-0.057671	1.700556	1.145178
C136	C	-0.697026	1.084104	0.428345
C137	C	-0.363692	1.417438	0.761679
C138	C	-0.030359	1.750771	1.095012
C139	C	-0.642435	1.084060	0.428325
C140	C	-0.309101	1.417393	0.761658
C141	C	0.024232	1.750727	1.094991
N142	N	-0.615120	1.134277	0.378167
N143	N	-0.281787	1.467611	0.711501
N144	N	0.051547	1.800944	1.044834
C145	C	-0.642409	1.184521	0.328017
C146	C	-0.309076	1.517854	0.661351
C147	C	0.024258	1.851188	0.994684
C148	C	-0.975510	1.084236	0.428383
C149	C	-0.642177	1.417570	0.761716
C150	C	-0.308843	1.750903	1.095049
C151	C	-1.030112	1.084258	0.428386
C152	C	-0.696779	1.417591	0.761720
C153	C	-0.363446	1.750924	1.095053
C154	C	-1.030087	1.184722	0.328074
C155	C	-0.696753	1.518056	0.661408
C156	C	-0.363420	1.851389	0.994741
C157	C	-0.975483	1.184696	0.328067
C158	C	-0.642150	1.518030	0.661400
C159	C	-0.308817	1.851363	0.994734
C160	C	-0.948196	1.134454	0.378225
C161	C	-0.614862	1.467787	0.711559
C162	C	-0.281529	1.801121	1.044892
C163	C	-0.527744	1.184450	0.327997
C164	C	-0.194411	1.517783	0.661330
C165	C	0.138923	1.851117	0.994663
C166	C	-0.473138	1.184412	0.327988
C167	C	-0.139805	1.517745	0.661321
C168	C	0.193528	1.851078	0.994654
C169	C	-0.473169	1.083951	0.428302
C170	C	-0.139836	1.417284	0.761636
C171	C	0.193498	1.750617	1.094969
C172	C	-0.527769	1.083986	0.428309
C173	C	-0.194436	1.417319	0.761642
C174	C	0.138897	1.750652	1.094976
C175	C	-0.555056	1.134242	0.378154
C176	C	-0.221722	1.467575	0.711487
C177	C	0.111611	1.800909	1.044820
O178	O	-0.614163	1.041333	0.470934
O179	O	-0.280829	1.374667	0.804267
O180	O	0.052504	1.708000	1.137600
O181	O	-0.614155	1.227232	0.285367
O182	O	-0.280822	1.560565	0.618701
O183	O	0.052511	1.893898	0.952034
C184	C	-0.115520	1.134439	0.378216
C185	C	0.217813	1.467772	0.711549
C186	C	0.551147	1.801106	1.044883
C187	C	-0.057406	1.134504	0.378239
C188	C	0.275927	1.467838	0.711572
C189	C	0.609261	1.801171	1.044905
C190	C	-0.251855	1.134332	0.582907
C191	C	0.081479	1.467666	0.916241
C192	C	0.414812	1.800999	1.249574
C193	C	-0.251838	1.134353	0.670157
C194	C	0.081495	1.467686	1.003490
C195	C	0.414829	1.801019	1.336824
C196	C	-0.251908	1.339029	0.378181
C197	C	0.081425	1.672363	0.711514
C198	C	0.414758	2.005696	1.044848
C199	C	-0.251915	1.426279	0.378189
C200	C	0.081419	1.759612	0.711522
C201	C	0.414752	2.092946	1.044855
C202	C	-0.251894	1.134283	0.174215
C203	C	0.081440	1.467616	0.507548
C204	C	0.414773	1.800950	0.840882
C205	C	-0.251763	1.134415	0.086966
C206	C	0.081571	1.467748	0.420299
C207	C	0.414904	1.801081	0.753632
C208	C	-0.218399	1.184598	0.711166
C209	C	0.114935	1.517931	1.044499
C210	C	0.448268	1.851265	1.377833
C211	C	-0.218381	1.184608	0.793147
C212	C	0.114952	1.517941	1.126480
C213	C	0.448285	1.851274	1.459813
C214	C	-0.251806	1.134375	0.834117
C215	C	0.081527	1.467708	1.167450
C216	C	0.414860	1.801042	1.500783
C217	C	-0.285247	1.084124	0.793102
C218	C	0.048086	1.417457	1.126435
C219	C	0.381419	1.750791	1.459769
C220	C	-0.285262	1.084111	0.711123
C221	C	0.048072	1.417445	1.044456
C222	C	0.381405	1.750778	1.377790
C223	C	-0.285216	1.084156	0.963972
C224	C	0.048118	1.417489	1.297305
C225	C	0.381451	1.750822	1.630639
C226	C	-0.285202	1.084169	1.045957
C227	C	0.048131	1.417503	1.379290
C228	C	0.381464	1.750836	1.712623
C229	C	-0.218335	1.184652	1.045996
C230	C	0.114998	1.517985	1.379329
C231	C	0.448331	1.851319	1.712662
C232	C	-0.218350	1.184639	0.964017
C233	C	0.114983	1.517973	1.297350
C234	C	0.448317	1.851306	1.630683
C235	C	-0.251792	1.134389	0.923008
C236	C	0.081542	1.467722	1.256341
C237	C	0.414875	1.801056	1.589674
H238	H	-0.191300	0.835555	0.469405
H239	H	0.142033	1.168889	0.802738
H240	H	0.475367	1.502222	1.136071
H241	H	-1.052315	1.225636	0.287242
H242	H	-0.718982	1.558969	0.620575
H243	H	-0.385649	1.892303	0.953908
H244	H	-0.191318	0.582708	0.469429
H245	H	0.142015	0.916042	0.802762
H246	H	0.475349	1.249375	1.136096
H247	H	-0.312488	0.582535	0.286924
H248	H	0.020845	0.915868	0.620257
H249	H	0.354178	1.249201	0.953590
H250	H	-0.191153	1.225524	0.826532
H251	H	0.142180	1.558858	1.159866
H252	H	0.475514	1.892191	1.493199
C253	C	-0.181785	0.422282	0.483816
C254	C	0.151548	0.755616	0.817149
C255	C	0.484881	1.088949	1.150482
N256	N	-0.154123	0.388358	0.525495
N257	N	0.179210	0.721691	0.858828
N258	N	0.512543	1.055024	1.192161
C259	C	-0.322010	1.028860	0.838172
C260	C	0.011323	1.362193	1.171505
C261	C	0.344657	1.695527	1.504839
N262	N	-0.349700	0.987234	0.872118
N263	N	-0.016367	1.320567	1.205451
N264	N	0.316966	1.653900	1.538785
H265	H	-0.191309	0.686837	0.469413
H266	H	0.142025	1.020170	0.802746
H267	H	0.475358	1.353504	1.136079
H268	H	-0.702067	1.275682	0.237027
H269	H	-0.368734	1.609015	0.570360
H270	H	-0.035400	1.942349	0.903694
C271	C	-0.322042	0.422078	0.272572
C272	C	0.011291	0.755411	0.605905
C273	C	0.344624	1.088744	0.939239
N274	N	-0.349713	0.388077	0.230903
N275	N	-0.016380	0.721411	0.564236
N276	N	0.316954	1.054744	0.897570
C277	C	-0.694324	0.978617	0.533692
C278	C	-0.360991	1.311951	0.867025
C279	C	-0.027657	1.645284	1.200358
N280	N	-0.671719	0.936985	0.575252
N281	N	-0.338386	1.270319	0.908585
N282	N	-0.005053	1.603652	1.241918
C283	C	-0.808975	0.978671	0.533713
C284	C	-0.475642	1.312004	0.867046
C285	C	-0.142308	1.645337	1.200380
N286	N	-0.831593	0.937062	0.575287
N287	N	-0.498260	1.270396	0.908620
N288	N	-0.164927	1.603729	1.241954
C289	C	-0.945446	1.239939	0.272883
C290	C	-0.612112	1.573272	0.606217
C291	C	-0.278779	1.906606	0.939550
N292	N	-0.922824	1.281551	0.231318
N293	N	-0.589491	1.614885	0.564651
N294	N	-0.256157	1.948218	0.897984
H295	H	-0.191135	1.225547	0.930661
H296	H	0.142198	1.558881	1.263994
H297	H	0.475531	1.892214	1.597328
C298	C	-0.443099	1.239651	0.272795
C299	C	-0.109766	1.572984	0.606128
C300	C	0.223568	1.906318	0.939461
N301	N	-0.420475	1.281256	0.231224
N302	N	-0.087142	1.614589	0.564557
N303	N	0.246192	1.947922	0.897891
C304	C	-0.181549	1.239927	1.091107
C305	C	0.151784	1.573260	1.424440
C306	C	0.485118	1.906594	1.757774
N307	N	-0.153844	1.281561	1.125089
N308	N	0.179490	1.614895	1.458422
N309	N	0.512823	1.948228	1.791755
H310	H	-0.312419	1.043264	1.079312
H311	H	0.020915	1.376597	1.412646
H312	H	0.354248	1.709931	1.745979
H313	H	-0.549954	1.225375	0.287157
H314	H	-0.216620	1.558709	0.620491
H315	H	0.116713	1.892042	0.953824
H316	H	-0.801114	1.275740	0.237047
H317	H	-0.467781	1.609074	0.570380
H318	H	-0.134448	1.942407	0.903714
C319	C	-0.443141	1.028688	0.483468
C320	C	-0.109807	1.362022	0.816801
C321	C	0.223526	1.695355	1.150135
N322	N	-0.420522	0.987070	0.525024
N323	N	-0.087189	1.320403	0.858358
N324	N	0.246145	1.653736	1.191691
C325	C	-0.322048	1.028839	0.666014
C326	C	0.011285	1.362172	0.999347
C327	C	0.344618	1.695506	1.332680
N328	N	-0.349757	0.987204	0.632038
N329	N	-0.016423	1.320538	0.965371
N330	N	0.316910	1.653871	1.298705
C331	C	-0.322022	0.674928	0.272547
C332	C	0.011311	1.008261	0.605880
C333	C	0.344645	1.341595	0.939213
N334	N	-0.349694	0.640925	0.230881
N335	N	-0.016361	0.974258	0.564215
N336	N	0.316973	1.307592	0.897548
H337	H	-1.052345	1.043360	0.469230
H338	H	-0.719012	1.376693	0.802563
H339	H	-0.385678	1.710027	1.135896
H340	H	-0.312469	0.835385	0.286903
H341	H	0.020864	1.168718	0.620236
H342	H	0.354198	1.502052	0.953569
H343	H	-0.953295	1.043317	0.469225
H344	H	-0.619962	1.376650	0.802559
H345	H	-0.286628	1.709983	1.135892
H346	H	-0.550008	1.043099	0.469161
H347	H	-0.216674	1.376432	0.802494
H348	H	0.116659	1.709765	1.135828
C349	C	-0.181627	1.239858	0.666107
C350	C	0.151706	1.573191	0.999440
C351	C	0.485039	1.906525	1.332773
N352	N	-0.153928	1.281479	0.632170
N353	N	0.179405	1.614812	0.965503
N354	N	0.512738	1.948146	1.298837
H355	H	-0.312439	1.043225	0.930585
H356	H	0.020894	1.376558	1.263918
H357	H	0.354227	1.709891	1.597252
