data_functionalizedCrystal
_audit_creation_method	'MofGen! by Chris Wilmer'
_symmetry_space_group_name_H-M	'P1'
_symmetry_Int_Tables_number	1
_symmetry_cell_setting	triclinic
loop_
_symmetry_equiv_pos_as_xyz
  x,y,z
_cell_length_a	6.817900
_cell_length_b	10.992469
_cell_length_c	16.255661
_cell_angle_alpha	93.805911
_cell_angle_beta	103.488922
_cell_angle_gamma	108.765624
loop_
_atom_site_label
_atom_site_type_symbol
_atom_site_fract_x
_atom_site_fract_y
_atom_site_fract_z
V1	V	-4.053780	-0.178799	-0.263859
O2	O	-4.013051	0.007524	-0.258849
O3	O	-4.031779	-0.353500	-0.262042
O4	O	-4.004996	-0.176517	-0.378942
O5	O	-4.040020	-0.170685	-0.141139
V6	V	-4.534037	-0.156457	-0.249182
O7	O	-4.322203	-0.227807	-0.296054
O8	O	-4.715811	-0.107449	-0.216987
O9	O	-4.332831	0.018245	-0.250999
O10	O	-4.692162	-0.342779	-0.254193
O11	O	-4.665194	-0.164571	-0.371902
O12	O	-4.359613	-0.158739	-0.134099
C13	C	-3.883214	-0.396074	-0.257877
C14	C	-3.946511	-0.538898	-0.257159
C15	C	-3.749363	-0.585376	-0.251786
C16	C	-3.815313	-0.734011	-0.251371
C17	C	-4.192297	-0.765871	-0.339732
C18	C	-4.124994	-0.617228	-0.340502
C19	C	-4.038367	-0.578291	-0.178889
C20	C	-4.099540	-0.726504	-0.176993
C21	C	-3.849049	-0.170313	-0.406993
C22	C	-3.890621	-0.169603	-0.501075
C23	C	-3.799895	-0.161127	-0.723894
C24	C	-3.972871	-0.270520	-0.793362
C25	C	-3.966805	-0.168273	-0.673323
C26	C	-3.867929	-0.057628	-0.771492
C27	C	-4.040377	-0.166982	-0.839707
C28	C	-4.139278	-0.277763	-0.741562
C29	C	-4.034258	-0.064775	-0.719676
C30	C	-4.207376	-0.174198	-0.789125
C31	C	-3.924416	-0.169017	-0.577474
C32	C	-4.082784	-0.166247	-0.935556
C33	C	-4.144738	0.060812	-0.255162
C34	C	-4.060681	0.203635	-0.255886
C35	C	-4.178903	-0.164947	-0.106043
C36	C	-4.116568	-0.165650	-0.011961
H37	H	-3.679074	-0.558925	-0.308011
H38	H	-4.274607	-0.768148	-0.175397
H39	H	-4.185331	-0.548755	-0.182040
H40	H	-3.627326	-0.155743	-0.695414
N41	N	-3.876705	-0.505698	-0.095576
H42	H	-3.742271	-0.446531	-0.107728
H43	H	-3.839489	-0.569968	-0.058879
H44	H	-4.001289	-0.744463	-0.115013
H45	H	-3.947367	-0.357505	-0.825442
H46	H	-3.753614	0.035381	-0.785108
H47	H	-4.253593	-0.370897	-0.728089
N48	N	-4.436137	-0.181540	-0.826686
H49	H	-4.460209	-0.104623	-0.798823
H50	H	-4.538539	-0.264722	-0.816046
H51	H	-3.613925	-0.532546	-0.191851
N52	N	-3.679206	-0.759723	-0.171561
H53	H	-3.575726	-0.674382	-0.136333
H54	H	-3.595707	-0.813872	-0.188200
N55	N	-3.764890	-0.795657	-0.325887
H56	H	-3.699700	-0.726273	-0.359137
H57	H	-3.901712	-0.861404	-0.364557
N58	N	-4.067955	0.050445	-0.677150
H59	H	-3.964963	0.133528	-0.687635
H60	H	-4.040810	0.048481	-0.613545
H61	H	-4.065785	-0.594426	-0.399687
N62	N	-4.158265	-0.830858	-0.417359
H63	H	-4.207940	-0.928027	-0.417943
H64	H	-4.000414	-0.797334	-0.415105
N65	N	-4.321451	-0.578341	-0.350260
H66	H	-4.451351	-0.657746	-0.354048
H67	H	-4.345191	-0.538100	-0.404128
H68	H	-4.372291	-0.807672	-0.346095
