data_functionalizedCrystal
_audit_creation_method	'MofGen! by Chris Wilmer'
_symmetry_space_group_name_H-M	'P1'
_symmetry_Int_Tables_number	1
_symmetry_cell_setting	triclinic
loop_
_symmetry_equiv_pos_as_xyz
  x,y,z
_cell_length_a	6.817900
_cell_length_b	23.752963
_cell_length_c	23.753277
_cell_angle_alpha	97.120674
_cell_angle_beta	100.072504
_cell_angle_gamma	100.066732
loop_
_atom_site_label
_atom_site_type_symbol
_atom_site_fract_x
_atom_site_fract_y
_atom_site_fract_z
V1	V	-3.971869	-0.079914	-0.178732
V2	V	-3.471869	0.420086	0.321268
O3	O	-3.977750	0.003068	-0.174984
O4	O	-3.477750	0.503068	0.325016
O5	O	-3.907100	-0.157713	-0.177842
O6	O	-3.407100	0.342287	0.322158
O7	O	-3.907128	-0.079023	-0.256532
O8	O	-3.407128	0.420977	0.243468
O9	O	-3.977722	-0.076166	-0.095750
O10	O	-3.477722	0.423834	0.404250
V11	V	-4.459735	-0.069948	-0.168766
V12	V	-3.959735	0.430052	0.331234
O13	O	-4.223600	-0.101774	-0.200593
O14	O	-3.723600	0.398226	0.299407
O15	O	-4.658201	-0.048088	-0.146906
O16	O	-4.158201	0.451912	0.353094
O17	O	-4.301296	0.007851	-0.169657
O18	O	-3.801296	0.507851	0.330343
O19	O	-4.571250	-0.152930	-0.172514
O20	O	-4.071250	0.347070	0.327486
O21	O	-4.571278	-0.073695	-0.251749
O22	O	-4.071278	0.426305	0.248251
O23	O	-4.301269	-0.070839	-0.090967
O24	O	-3.801269	0.429161	0.409033
C25	C	-3.748648	-0.176668	-0.175108
C26	C	-3.248648	0.323332	0.324892
C27	C	-3.776870	-0.240272	-0.174899
C28	C	-3.276870	0.259728	0.325101
C29	C	-3.924721	-0.626288	-0.121108
C30	C	-3.424721	-0.126288	0.378892
C31	C	-3.951264	-0.686050	-0.120904
C32	C	-3.451264	-0.186050	0.379096
O33	O	-3.941817	-0.709824	-0.076209
O34	O	-3.441817	-0.209824	0.423791
N35	N	-3.991859	-0.724330	-0.173234
N36	N	-3.491859	-0.224330	0.326766
C37	C	-4.005932	-0.702846	-0.225773
C38	C	-3.505932	-0.202846	0.274227
O39	O	-4.042900	-0.740894	-0.270266
O40	O	-3.542900	-0.240894	0.229734
C41	C	-3.979403	-0.643085	-0.225977
C42	C	-3.479403	-0.143085	0.274023
C43	C	-3.938787	-0.604807	-0.173643
C44	C	-3.438787	-0.104807	0.326357
C45	C	-3.884110	-0.588011	-0.068778
C46	C	-3.384110	-0.088011	0.431222
C47	C	-3.857565	-0.528253	-0.068983
C48	C	-3.357565	-0.028253	0.431017
C49	C	-3.871631	-0.506772	-0.121517
C50	C	-3.371631	-0.006772	0.378483
C51	C	-3.912243	-0.545049	-0.173847
C52	C	-3.412243	-0.045049	0.326153
C53	C	-3.993490	-0.621602	-0.278516
C54	C	-3.493490	-0.121602	0.221484
C55	C	-3.966959	-0.561836	-0.278715
C56	C	-3.466959	-0.061836	0.221285
C57	C	-3.926343	-0.523559	-0.226381
C58	C	-3.426343	-0.023559	0.273619
C59	C	-3.899764	-0.463811	-0.226587
C60	C	-3.399764	0.036189	0.273413
N61	N	-3.859169	-0.425530	-0.174256
N62	N	-3.359169	0.074470	0.325744
C63	C	-3.845103	-0.447011	-0.121721
C64	C	-3.345103	0.052989	0.378279
C65	C	-4.061645	-0.828347	-0.225340
C66	C	-3.561645	-0.328347	0.274660
C67	C	-4.088159	-0.888107	-0.225137
C68	C	-3.588159	-0.388107	0.274863
C69	C	-4.033493	-0.871307	-0.120267
C70	C	-3.533493	-0.371307	0.379733
C71	C	-4.006965	-0.811546	-0.120471
C72	C	-3.506965	-0.311546	0.379529
C73	C	-4.021050	-0.790067	-0.173010
C74	C	-3.521050	-0.290067	0.326990
C75	C	-3.789357	-0.321516	-0.122155
C76	C	-3.289357	0.178484	0.377845
C77	C	-3.762804	-0.261753	-0.122364
C78	C	-3.262804	0.238247	0.377636
C79	C	-3.817483	-0.278559	-0.227234
C80	C	-3.317483	0.221441	0.272766
C81	C	-3.844023	-0.338316	-0.227025
C82	C	-3.344023	0.161684	0.272975
C83	C	-3.829964	-0.359792	-0.174481
C84	C	-3.329964	0.140208	0.325519
O85	O	-3.909191	-0.439995	-0.271259
O86	O	-3.409191	0.060005	0.228741
O87	O	-3.808161	-0.408958	-0.077237
O88	O	-3.308161	0.091042	0.422763
C89	C	-3.748683	-0.076291	-0.275484
C90	C	-3.248683	0.423709	0.224516
C91	C	-3.776926	-0.076077	-0.339088
C92	C	-3.276926	0.423923	0.160912
C93	C	-3.926248	-0.127572	-0.622392
C94	C	-3.426248	0.372428	-0.122392
C95	C	-3.899715	-0.127776	-0.562630
C96	C	-3.399715	0.372224	-0.062630
O97	O	-3.909151	-0.172470	-0.538855
O98	O	-3.409151	0.327530	-0.038855
N99	N	-3.859142	-0.075446	-0.524350
N100	N	-3.359142	0.424554	-0.024350
C101	C	-3.845082	-0.022907	-0.545835
C102	C	-3.345082	0.477093	-0.045835
O103	O	-3.808134	0.021585	-0.507788
O104	O	-3.308134	0.521585	-0.007788
C105	C	-3.871601	-0.022703	-0.605596
C106	C	-3.371601	0.477297	-0.105596
C107	C	-3.912194	-0.075038	-0.643873
C108	C	-3.412194	0.424962	-0.143873
C109	C	-3.966837	-0.179902	-0.660668
C110	C	-3.466837	0.320098	-0.160668
C111	C	-3.993372	-0.179698	-0.720426
C112	C	-3.493372	0.320302	-0.220426
C113	C	-3.979318	-0.127163	-0.741907
C114	C	-3.479318	0.372837	-0.241907
C115	C	-3.938730	-0.074833	-0.703631
C116	C	-3.438730	0.425167	-0.203631
C117	C	-3.857527	0.029835	-0.627079
C118	C	-3.357527	0.529835	-0.127079
C119	C	-3.884049	0.030034	-0.686845
C120	C	-3.384049	0.530034	-0.186845
C121	C	-3.924642	-0.022300	-0.725122
C122	C	-3.424642	0.477700	-0.225122
C123	C	-3.951211	-0.022095	-0.784870
C124	C	-3.451211	0.477905	-0.284870
N125	N	-3.991784	-0.074425	-0.823149
N126	N	-3.491784	0.425575	-0.323149
C127	C	-4.005837	-0.126960	-0.801668
C128	C	-3.505837	0.373040	-0.301668
C129	C	-3.789389	-0.023339	-0.420334
C130	C	-3.289389	0.476661	0.079666
C131	C	-3.762885	-0.023543	-0.360575
C132	C	-3.262885	0.476457	0.139425
C133	C	-3.817515	-0.128412	-0.377373
C134	C	-3.317515	0.371588	0.122627
C135	C	-3.844034	-0.128208	-0.437134
C136	C	-3.344034	0.371792	0.062866
C137	C	-3.829962	-0.075670	-0.458614
C138	C	-3.329962	0.424330	0.041386
C139	C	-4.061563	-0.126527	-0.927163
C140	C	-3.561563	0.373473	-0.427163
C141	C	-4.088106	-0.126318	-0.986926
C142	C	-3.588106	0.373682	-0.486926
C143	C	-4.033463	-0.021449	-0.970122
C144	C	-3.533463	0.478551	-0.470122
C145	C	-4.006932	-0.021657	-0.910365
C146	C	-3.506932	0.478343	-0.410365
C147	C	-4.020979	-0.074201	-0.888887
C148	C	-3.520979	0.425799	-0.388887
O149	O	-3.941795	0.022577	-0.808686
O150	O	-3.441795	0.522577	-0.308686
O151	O	-4.042759	-0.171444	-0.839721
O152	O	-3.542759	0.328556	-0.339721
C153	C	-4.123090	0.026804	-0.172389
C154	C	-3.623090	0.526804	0.327611
C155	C	-4.074105	0.090407	-0.172602
C156	C	-3.574105	0.590407	0.327398
C157	C	-4.123056	-0.073573	-0.072012
C158	C	-3.623056	0.426427	0.427988
C159	C	-4.074053	-0.073783	-0.008407
C160	C	-3.574053	0.426217	0.491593
H161	H	-4.022042	-0.888807	-0.077490
H162	H	-3.522042	-0.388807	0.422510
H163	H	-3.777905	-0.338994	-0.079369
H164	H	-3.277905	0.161006	0.420631
Cl165	Cl	-3.955913	-0.763431	-0.054677
Cl166	Cl	-3.455913	-0.263431	0.445323
H167	H	-3.877080	-0.170823	-0.468296
H168	H	-3.377080	0.329177	0.031704
H169	H	-3.828945	-0.171188	-0.359873
H170	H	-3.328945	0.328812	0.140127
H171	H	-3.877062	-0.369483	-0.269639
H172	H	-3.377062	0.130517	0.230361
H173	H	-3.872656	-0.605493	-0.025996
H174	H	-3.372656	-0.105493	0.474004
Cl175	Cl	-3.711739	-0.213635	-0.056568
Cl176	Cl	-3.211739	0.286365	0.443432
Cl177	Cl	-3.956044	0.044132	-0.862246
Cl178	Cl	-3.456044	0.544132	-0.362246
Cl179	Cl	-3.711867	0.042252	-0.312462
Cl180	Cl	-3.211867	0.542252	0.187538
Cl181	Cl	-3.806528	-0.480141	-0.003187
Cl182	Cl	-3.306528	0.019859	0.496813
Cl183	Cl	-3.771715	0.042715	-0.447330
Cl184	Cl	-3.271715	0.542715	0.052670
H185	H	-4.121164	-0.168936	-1.018090
H186	H	-3.621164	0.331064	-0.518090
Cl187	Cl	-3.984521	-0.245954	-0.633675
Cl188	Cl	-3.484521	0.254046	-0.133675
H189	H	-4.022035	0.021323	-0.987623
H190	H	-3.522035	0.521323	-0.487623
H191	H	-3.824478	0.072451	-0.595924
H192	H	-3.324478	0.572451	-0.095924
Cl193	Cl	-3.866350	0.096086	-0.713843
Cl194	Cl	-3.366350	0.596086	-0.213843
Cl195	Cl	-4.044424	-0.669707	-0.344310
Cl196	Cl	-3.544424	-0.169707	0.155690
H197	H	-4.073110	-0.810864	-0.268126
H198	H	-3.573110	-0.310864	0.231874
Cl199	Cl	-4.139145	-0.936219	-0.290930
Cl200	Cl	-3.639145	-0.436219	0.209070
H201	H	-3.828921	-0.261058	-0.270006
H202	H	-3.328921	0.238942	0.229994
Cl203	Cl	-3.984677	-0.534839	-0.344768
Cl204	Cl	-3.484677	-0.034839	0.155232
H205	H	-4.072998	-0.169312	-0.909684
H206	H	-3.572998	0.330688	-0.409684
H207	H	-4.026419	-0.222314	-0.751587
H208	H	-3.526419	0.277686	-0.251587
