data_functionalizedCrystal
_audit_creation_method	'MofGen! by Chris Wilmer'
_symmetry_space_group_name_H-M	'P1'
_symmetry_Int_Tables_number	1
_symmetry_cell_setting	triclinic
loop_
_symmetry_equiv_pos_as_xyz
  x,y,z
_cell_length_a	8.497374
_cell_length_b	8.497374
_cell_length_c	18.101398
_cell_angle_alpha	90.003639
_cell_angle_beta	90.008882
_cell_angle_gamma	90.005237
loop_
_atom_site_label
_atom_site_type_symbol
_atom_site_fract_x
_atom_site_fract_y
_atom_site_fract_z
Zn1	Zn	0.892408	0.628529	1.132163
Zn2	Zn	0.628673	0.892274	1.132157
Zn3	Zn	0.628602	0.628480	1.008355
Zn4	Zn	0.892372	0.892239	1.008337
O5	O	0.760514	0.760381	1.070253
O6	O	0.857467	0.663550	1.235795
O7	O	0.407901	0.857276	1.115739
O8	O	0.663581	0.407724	1.024788
O9	O	0.663703	0.857323	1.235790
O10	O	0.857398	0.407760	1.115749
O11	O	0.407849	0.663468	1.024782
O12	O	0.663547	0.663433	0.904720
O13	O	1.113139	0.857262	1.024758
O14	O	0.857337	0.857216	0.904707
O15	O	1.113165	0.663516	1.115732
O16	O	0.663668	1.113032	1.115722
O17	O	0.857406	1.113006	1.024752
C18	C	0.760431	0.760317	0.877842
C19	C	0.760434	0.760327	0.795528
C20	C	1.171994	0.760383	1.070247
C21	C	1.350638	0.760400	1.070249
C22	C	0.760536	1.170260	1.070244
C23	C	0.760511	1.348904	1.070263
C24	C	0.760566	0.760426	0.496437
C25	C	0.639233	0.637894	0.527746
C26	C	0.638715	0.638222	0.613364
C27	C	0.760500	0.760375	0.644820
C28	C	0.715123	0.926545	0.613748
C29	C	0.714279	0.925864	0.528103
C30	C	0.927563	0.718232	0.528020
C31	C	0.926650	0.714531	0.613670
C32	C	0.760466	0.760357	0.728679
C33	C	0.760597	0.760455	0.412578
C34	C	0.760597	0.760446	1.263415
C35	C	0.760633	0.760474	1.345729
H36	H	0.667357	0.514294	0.507141
O37	O	1.047324	0.836430	0.501194
H38	H	1.101634	0.896354	0.549353
H39	H	0.592198	0.961652	0.508116
O40	O	0.828511	1.050729	0.640734
H41	H	0.825556	1.055198	0.702000
O42	O	0.826219	1.050890	0.500660
H43	H	0.919476	0.995206	0.466607
H44	H	0.516209	0.665468	0.506219
O45	O	0.676331	0.474993	0.641200
H46	H	0.695054	0.395108	0.593488
H47	H	0.594360	0.962955	0.635187
O48	O	0.982235	0.560520	0.499410
H49	H	0.890978	0.510445	0.462357
O50	O	0.474792	0.675091	0.640498
H51	H	0.395585	0.692782	0.592447
O52	O	0.971999	0.552560	0.640571
H53	H	0.876616	0.504895	0.675983
O54	O	1.052817	0.824168	0.642005
H55	H	0.998829	0.913446	0.678895
