data_functionalizedCrystal
_audit_creation_method	'MofGen! by Chris Wilmer'
_symmetry_space_group_name_H-M	'P1'
_symmetry_Int_Tables_number	1
_symmetry_cell_setting	triclinic
loop_
_symmetry_equiv_pos_as_xyz
  x,y,z
_cell_length_a	17.077404
_cell_length_b	12.645330
_cell_length_c	17.077396
_cell_angle_alpha	89.975096
_cell_angle_beta	89.983895
_cell_angle_gamma	90.015662
loop_
_atom_site_label
_atom_site_type_symbol
_atom_site_fract_x
_atom_site_fract_y
_atom_site_fract_z
Zn1	Zn	1.200065	-0.422088	-0.443843
Zn2	Zn	1.199990	-0.599376	-0.312587
Zn3	Zn	1.068802	-0.422121	-0.312593
Zn4	Zn	1.068777	-0.599304	-0.443813
O5	O	1.134409	-0.510722	-0.378209
O6	O	1.309902	-0.445622	-0.426441
O7	O	1.182566	-0.575907	-0.202741
O8	O	1.086257	-0.273769	-0.330019
O9	O	1.309847	-0.575875	-0.330008
O10	O	1.182695	-0.273745	-0.426448
O11	O	1.086184	-0.445678	-0.202746
O12	O	0.958952	-0.445608	-0.329990
O13	O	1.086214	-0.575752	-0.553664
O14	O	0.958934	-0.575783	-0.426397
O15	O	1.182671	-0.445552	-0.553686
O16	O	1.182542	-0.747714	-0.329979
O17	O	1.086140	-0.747661	-0.426391
C18	C	0.930461	-0.510692	-0.378192
C19	C	0.843211	-0.510705	-0.378203
C20	C	0.802251	-0.443003	-0.428492
C21	C	0.720270	-0.443010	-0.428496
C22	C	0.679252	-0.510725	-0.378213
C23	C	0.720218	-0.578430	-0.327918
C24	C	0.802197	-0.578417	-0.327911
C25	C	0.549348	-0.578454	-0.327938
C26	C	0.467363	-0.578468	-0.327946
C27	C	0.467421	-0.443047	-0.428522
C28	C	0.549400	-0.443034	-0.428515
C29	C	0.590361	-0.510740	-0.378221
C30	C	1.134351	-0.786152	-0.378198
C31	C	1.134399	-0.903982	-0.378220
C32	C	1.074003	-1.071557	-0.439059
C33	C	1.073694	-0.948997	-0.438864
C34	C	1.112010	-0.948575	-0.295493
C35	C	1.111642	-1.071173	-0.295863
C36	C	1.217552	-1.071075	-0.399436
C37	C	1.217043	-0.948468	-0.401245
C38	C	1.339153	-0.510753	-0.378227
C39	C	1.426403	-0.510766	-0.378235
C40	C	1.134448	-0.510640	-0.582954
C41	C	1.134465	-0.510605	-0.670203
C42	C	1.134488	-0.234217	-0.378237
C43	C	1.134521	-0.116387	-0.378249
C44	C	1.084294	-0.442787	-0.711195
C45	C	1.084307	-0.442763	-0.793176
C46	C	1.134495	-0.510552	-0.834163
C47	C	1.184668	-0.578378	-0.793165
C48	C	1.184651	-0.578407	-0.711186
C49	C	1.184702	-0.578312	-0.964035
C50	C	1.184721	-0.578282	-1.046020
C51	C	1.084358	-0.442668	-1.046025
C52	C	1.084341	-0.442697	-0.964046
C53	C	1.134515	-0.510521	-0.923054
C54	C	1.134415	-0.510727	-0.174261
C55	C	1.134550	-0.510464	-0.087012
H56	H	0.434067	-0.387915	-0.469472
Cl57	Cl	1.176733	-1.116970	-0.223520
Cl58	Cl	1.177905	-0.903563	-0.223626
Cl59	Cl	0.668651	-0.663552	-0.264701
H60	H	1.225589	-0.633482	-1.079389
H61	H	1.237977	-1.101920	-0.458734
H62	H	0.835546	-0.633546	-0.286960
H63	H	1.043449	-0.387542	-0.826548
Cl64	Cl	1.247723	-0.663672	-0.659653
H65	H	1.043476	-0.387492	-0.930677
H66	H	0.686924	-0.387882	-0.469448
Cl67	Cl	0.600965	-0.357914	-0.491735
H68	H	1.225529	-0.633579	-0.826543
Cl69	Cl	1.017932	-1.115471	-0.268154
Cl70	Cl	1.021283	-0.357401	-1.097557
H71	H	1.225567	-0.633532	-0.930662
Cl72	Cl	1.095423	-1.116971	-0.534079
Cl73	Cl	0.415798	-0.663622	-0.264751
Cl74	Cl	0.853809	-0.357875	-0.491712
H75	H	1.012832	-1.102454	-0.425202
H76	H	0.582695	-0.633585	-0.286981
Cl77	Cl	1.095315	-0.902438	-0.533570
H78	H	1.012138	-0.919759	-0.424827
H79	H	1.051947	-0.917961	-0.277221
H80	H	1.233927	-0.919319	-0.462127
H81	H	1.264506	-0.917820	-0.360179
Cl82	Cl	1.021200	-0.357555	-0.659677
H83	H	1.262640	-1.100065	-0.355146
