data_functionalizedCrystal
_audit_creation_method	'MofGen! by Chris Wilmer'
_symmetry_space_group_name_H-M	'P1'
_symmetry_Int_Tables_number	1
_symmetry_cell_setting	triclinic
loop_
_symmetry_equiv_pos_as_xyz
  x,y,z
_cell_length_a	17.640112
_cell_length_b	18.050589
_cell_length_c	17.637815
_cell_angle_alpha	101.178726
_cell_angle_beta	109.604340
_cell_angle_gamma	101.252307
loop_
_atom_site_label
_atom_site_type_symbol
_atom_site_fract_x
_atom_site_fract_y
_atom_site_fract_z
Zn1	Zn	1.165497	-0.114246	-0.211669
Zn2	Zn	1.193266	-0.206996	-0.073903
Zn3	Zn	1.055571	-0.114287	-0.101702
Zn4	Zn	1.027653	-0.269887	-0.239458
O5	O	1.110497	-0.176354	-0.156683
O6	O	1.284494	-0.100212	-0.170131
O7	O	1.198305	-0.168395	0.037716
O8	O	1.070215	-0.010346	-0.116293
O9	O	1.304896	-0.168355	-0.068915
O10	O	1.150977	-0.010315	-0.197086
O11	O	1.097142	-0.100282	0.017293
O12	O	0.936554	-0.161265	-0.143239
O13	O	1.022634	-0.275544	-0.351079
O14	O	0.916043	-0.275584	-0.244448
O15	O	1.123906	-0.161195	-0.330663
O16	O	1.171235	-0.319275	-0.095861
O17	O	1.049560	-0.365480	-0.217493
C18	C	0.896399	-0.225254	-0.199876
C19	C	0.804803	-0.246196	-0.218374
C20	C	0.556754	-0.017249	-0.016166
C21	C	0.470684	-0.036945	-0.033558
C22	C	0.449417	-0.156074	-0.138766
C23	C	0.535487	-0.136387	-0.121385
C24	C	0.589149	-0.066973	-0.060083
C25	C	0.567881	-0.186111	-0.165303
C26	C	0.653945	-0.166427	-0.147920
C27	C	0.707613	-0.097018	-0.086619
C28	C	0.675212	-0.047289	-0.042701
C29	C	0.514218	-0.255527	-0.226600
C30	C	0.546613	-0.305251	-0.270517
C31	C	0.632677	-0.285564	-0.253139
C32	C	0.686345	-0.216156	-0.191839
C33	C	0.665077	-0.335293	-0.297058
C34	C	0.751140	-0.315609	-0.279675
C35	C	0.772408	-0.196471	-0.174456
C36	C	1.110400	-0.369326	-0.156690
C37	C	1.110428	-0.451869	-0.156705
C38	C	1.044320	-0.676456	-0.222818
C39	C	1.039446	-0.713313	-0.151680
C40	C	1.110507	-0.602983	-0.156699
C41	C	1.115419	-0.713201	-0.227838
C42	C	1.110580	-0.748955	-0.156701
C43	C	1.105602	-0.638753	-0.085529
C44	C	1.181600	-0.638640	-0.161731
C45	C	1.176766	-0.675456	-0.090535
C46	C	1.110463	-0.518894	-0.156700
C47	C	1.110627	-0.833041	-0.156691
C48	C	1.325430	-0.127264	-0.113322
C49	C	1.417022	-0.106345	-0.094844
C50	C	1.067058	-0.225380	-0.371605
C51	C	1.048547	-0.246272	-0.463192
C52	C	1.110613	0.017372	-0.156690
C53	C	1.110662	0.099927	-0.156693
C54	C	1.251301	-0.017326	-0.711260
C55	C	1.233898	-0.036976	-0.797322
C56	C	1.128452	-0.156037	-0.818570
C57	C	1.145849	-0.136399	-0.732507
C58	C	1.207274	-0.067042	-0.678859
C59	C	1.101821	-0.186115	-0.700106
C60	C	1.119214	-0.166476	-0.614052
C61	C	1.180634	-0.097121	-0.560400
C62	C	1.224667	-0.047403	-0.592805
C63	C	1.040392	-0.255470	-0.753757
C64	C	0.996365	-0.305186	-0.721356
C65	C	1.013762	-0.285550	-0.635300
C66	C	1.075182	-0.216195	-0.581647
C67	C	0.969729	-0.335268	-0.602894
C68	C	0.987122	-0.315629	-0.516840
C69	C	1.092575	-0.196556	-0.495593
C70	C	1.153814	-0.127454	0.057412
C71	C	1.172484	-0.106317	0.149030
H72	H	0.816101	-0.139940	-0.124550
O73	O	0.936810	-0.372617	-0.773486
C74	C	0.973636	-0.421219	-0.813808
H75	H	1.043776	-0.405062	-0.774782
H76	H	0.943606	-0.485407	-0.820789
H77	H	0.963303	-0.412489	-0.878458
H78	H	1.301323	0.039149	-0.667576
H79	H	1.274689	0.009072	-0.549121
H80	H	1.142597	-0.140081	-0.451908
O81	O	0.439080	0.011268	0.009039
C82	C	0.351606	-0.020972	-0.019469
H83	H	0.334407	-0.087147	-0.048708
H84	H	0.331348	-0.009238	0.035625
H85	H	0.318331	0.007399	-0.068375
H86	H	0.979358	-0.745713	-0.147430
H87	H	1.101405	-0.606564	-0.025366
H88	H	0.600448	0.039282	0.033740
O89	O	1.197709	-0.077998	-0.476770
C90	C	1.282488	-0.072491	-0.432119
H91	H	1.319906	-0.060297	-0.472168
H92	H	1.308816	-0.022496	-0.371606
H93	H	1.287295	-0.130227	-0.416477
O94	O	0.910010	-0.402649	-0.654900
C95	C	0.874895	-0.442331	-0.607845
H96	H	0.884460	-0.398566	-0.547080
H97	H	0.804939	-0.470756	-0.645804
H98	H	0.906888	-0.489760	-0.592602
H99	H	1.232781	-0.675689	-0.034567
H100	H	1.078438	-0.212507	-0.862261
H101	H	0.951258	-0.356105	-0.490461
H102	H	0.777691	-0.080994	-0.072466
H103	H	0.718906	0.009242	0.007205
O104	O	1.276775	0.011393	-0.828653
C105	C	1.334700	0.076829	-0.762849
H106	H	1.349937	0.061059	-0.700926
H107	H	1.394604	0.093910	-0.774616
H108	H	1.306402	0.128430	-0.759794
O109	O	1.120461	-0.751774	-0.299522
C110	C	1.193802	-0.776870	-0.279351
H111	H	1.214417	-0.781537	-0.212310
H112	H	1.180546	-0.836866	-0.324285
H113	H	1.245748	-0.732504	-0.285147
H114	H	1.026226	-0.271452	-0.823828
H115	H	1.241666	-0.606253	-0.166019
H116	H	0.405714	-0.212592	-0.188675
O117	O	0.430586	-0.274694	-0.243635
C118	C	0.385880	-0.280321	-0.328442
H119	H	0.425898	-0.292541	-0.365863
H120	H	0.325360	-0.330348	-0.354648
H121	H	0.370232	-0.222625	-0.333393
O122	O	0.494546	-0.372640	-0.330165
C123	C	0.498981	-0.370426	-0.408068
H124	H	0.561125	-0.327990	-0.397201
H125	H	0.494463	-0.431806	-0.444335
H126	H	0.444942	-0.349694	-0.445663
H127	H	0.621374	-0.391813	-0.346963
H128	H	0.988292	-0.676069	-0.278681
O129	O	0.782471	-0.363977	-0.322442
C130	C	0.716655	-0.429471	-0.380263
H131	H	0.654726	-0.413753	-0.395563
H132	H	0.728420	-0.446593	-0.440143
H133	H	0.713599	-0.481026	-0.351840
