data_functionalizedCrystal
_audit_creation_method	'MofGen! by Chris Wilmer'
_symmetry_space_group_name_H-M	'P1'
_symmetry_Int_Tables_number	1
_symmetry_cell_setting	triclinic
loop_
_symmetry_equiv_pos_as_xyz
  x,y,z
_cell_length_a	12.996460
_cell_length_b	14.971486
_cell_length_c	14.971486
_cell_angle_alpha	83.614129
_cell_angle_beta	90.006353
_cell_angle_gamma	90.000625
loop_
_atom_site_label
_atom_site_type_symbol
_atom_site_fract_x
_atom_site_fract_y
_atom_site_fract_z
O1	O	-0.085449	-1.186946	-0.116564
O2	O	-0.085477	-0.926546	-0.130523
O3	O	-0.085455	-1.063725	0.006656
O4	O	-0.085471	-1.049766	-0.253744
O5	O	0.085679	-1.063711	0.006664
O6	O	0.085657	-0.926531	-0.130516
O7	O	0.085685	-1.186932	-0.116557
Cu8	Cu	0.101297	-1.056730	-0.123535
Cu9	Cu	-0.101089	-1.056747	-0.123544
O10	O	0.085663	-1.049752	-0.253736
C11	C	0.000086	-0.893214	-0.129895
C12	C	0.000076	-0.793917	-0.128024
N13	N	0.243644	-1.056725	-0.123529
N14	N	-0.243436	-1.056760	-0.123544
C15	C	0.663458	-1.056746	-0.123545
C16	C	0.546653	-1.056737	-0.123544
C17	C	0.453555	-1.056736	-0.123538
C18	C	0.336742	-1.056726	-0.123535
C19	C	0.000112	-1.063094	0.039985
C20	C	0.000110	-1.061223	0.139282
C21	C	0.000119	-1.220263	-0.117185
C22	C	0.000123	-1.319561	-0.119056
C23	C	0.000072	-0.736692	-0.208614
C24	C	0.000088	-0.643392	-0.206850
C25	C	0.000099	-0.607320	-0.124497
C26	C	0.000106	-0.664552	-0.043902
C27	C	0.000098	-0.757850	-0.045666
C28	C	0.000120	-0.470090	-0.040231
C29	C	0.000126	-0.376786	-0.038466
C30	C	0.000110	-0.355632	-0.201415
C31	C	0.000102	-0.448930	-0.203179
C32	C	0.000107	-0.506156	-0.122584
C33	C	0.000094	-1.050384	-0.287065
C34	C	0.000088	-1.052254	-0.386362
C35	C	0.000120	-1.141812	0.196507
C36	C	0.000109	-1.140049	0.289807
C37	C	0.000097	-1.057696	0.325879
C38	C	0.000084	-0.977101	0.268646
C39	C	0.000087	-0.978865	0.175349
C40	C	0.000080	-0.973430	0.463109
C41	C	0.000079	-0.971665	0.556413
C42	C	0.000102	-1.134614	0.577567
C43	C	0.000105	-1.136378	0.484269
C44	C	0.000095	-1.055782	0.427043
H45	H	0.000062	-0.766054	-0.275675
Br46	Br	0.000132	-0.547754	0.069150
Br47	Br	0.000062	-0.864048	0.385445
Br48	Br	0.000071	-0.497885	-0.314946
H49	H	0.000085	-0.904606	0.585780
H50	H	0.000137	-0.347419	0.028593
H51	H	0.000111	-0.309033	-0.267039
H52	H	0.000100	-0.804443	0.019958
Br53	Br	0.000114	-1.243995	0.655229
Br54	Br	0.000122	-1.249425	0.367467
Br55	Br	0.000120	-1.248144	0.435314
H56	H	0.000130	-0.635175	0.023152
H57	H	0.000136	-1.208874	0.167145
H58	H	0.000067	-0.910047	0.298024
H59	H	0.000084	-0.596802	-0.272474
Br60	Br	0.000066	-0.869489	0.097684
