data_functionalizedCrystal
_audit_creation_method	'MofGen! by Chris Wilmer'
_symmetry_space_group_name_H-M	'P1'
_symmetry_Int_Tables_number	1
_symmetry_cell_setting	triclinic
loop_
_symmetry_equiv_pos_as_xyz
  x,y,z
_cell_length_a	19.805407
_cell_length_b	16.120484
_cell_length_c	19.805398
_cell_angle_alpha	92.872517
_cell_angle_beta	89.984135
_cell_angle_gamma	92.925608
loop_
_atom_site_label
_atom_site_type_symbol
_atom_site_fract_x
_atom_site_fract_y
_atom_site_fract_z
Zn1	Zn	1.021049	-0.331942	-0.396378
Zn2	Zn	1.521049	0.168058	0.103622
Zn3	Zn	1.015233	-0.471356	-0.288926
Zn4	Zn	1.515233	0.028644	0.211074
Zn5	Zn	0.907870	-0.331961	-0.283203
Zn6	Zn	1.407870	0.168039	0.216797
Zn7	Zn	0.902091	-0.471316	-0.402071
Zn8	Zn	1.402091	0.028684	0.097929
O9	O	0.961561	-0.401644	-0.342644
O10	O	1.461561	0.098356	0.157356
O11	O	1.114994	-0.350444	-0.382136
O12	O	1.614994	0.149556	0.117864
O13	O	1.000976	-0.452890	-0.193451
O14	O	1.500976	0.047110	0.306549
O15	O	0.927736	-0.215292	-0.293438
O16	O	1.427736	0.284708	0.206562
O17	O	1.110721	-0.452872	-0.303192
O18	O	1.610721	0.047128	0.196808
O19	O	1.010888	-0.215278	-0.376587
O20	O	1.510888	0.284722	0.123413
O21	O	0.922097	-0.350476	-0.189247
O22	O	1.422097	0.149524	0.310753
O23	O	0.812387	-0.350437	-0.298959
O24	O	1.312387	0.149563	0.201041
O25	O	0.917886	-0.452803	-0.496031
O26	O	1.417886	0.047197	0.003969
O27	O	0.808141	-0.452821	-0.386290
O28	O	1.308141	0.047179	0.113710
O29	O	1.005284	-0.350405	-0.491848
O30	O	1.505284	0.149595	0.008152
O31	O	0.995372	-0.588017	-0.308712
O32	O	1.495372	-0.088017	0.191288
O33	O	0.912247	-0.587988	-0.391839
O34	O	1.412247	-0.087988	0.108161
C35	C	0.785705	-0.401628	-0.342622
C36	C	1.285705	0.098372	0.157378
C37	C	0.710473	-0.401641	-0.342629
C38	C	1.210473	0.098359	0.157371
C39	C	0.672932	-0.455032	-0.388036
C40	C	1.172932	0.044968	0.111964
C41	C	0.602244	-0.455034	-0.388045
C42	C	1.102244	0.044966	0.111955
C43	C	0.569097	-0.401647	-0.342644
C44	C	1.069097	0.098353	0.157356
C45	C	0.606643	-0.348250	-0.297235
C46	C	1.106643	0.151750	0.202765
C47	C	0.677330	-0.348245	-0.297230
C48	C	1.177330	0.151755	0.202770
C49	C	0.321569	-0.348268	-0.297259
C50	C	0.821569	0.151732	0.202741
C51	C	0.250876	-0.348279	-0.297267
C52	C	0.750876	0.151721	0.202733
C53	C	0.246482	-0.455057	-0.388074
C54	C	0.746482	0.044943	0.111926
C55	C	0.317170	-0.455052	-0.388069
C56	C	0.817170	0.044948	0.111931
C57	C	0.354710	-0.401652	-0.342662
C58	C	0.854710	0.098348	0.157338
C59	C	0.431358	-0.401650	-0.342653
C60	C	0.931358	0.098350	0.157347
C61	C	0.492450	-0.401653	-0.342650
C62	C	0.992450	0.098347	0.157350
C63	C	0.952570	-0.618253	-0.351529
C64	C	1.452570	-0.118253	0.148471
C65	C	0.948785	-0.710919	-0.355353
C66	C	1.448785	-0.210919	0.144647
C67	C	0.941879	-0.880581	-0.362348
C68	C	1.441879	-0.380581	0.137652
C69	C	0.981364	-0.921866	-0.322952
C70	C	1.481364	-0.421866	0.177048
C71	C	0.977521	-1.016272	-0.326844
C72	C	1.477521	-0.516272	0.173156
C73	C	0.945721	-0.786167	-0.358457
C74	C	1.445721	-0.286167	0.141543
C75	C	1.138103	-0.401660	-0.342667
C76	C	1.638103	0.098340	0.157333
C77	C	1.213335	-0.401667	-0.342677
C78	C	1.713335	0.098333	0.157323
C79	C	0.961589	-0.401597	-0.519185
C80	C	1.461589	0.098403	-0.019185
C81	C	0.961601	-0.401578	-0.594416
C82	C	1.461601	0.098422	-0.094416
C83	C	0.970606	-0.184189	-0.333739
C84	C	1.470606	0.315811	0.166261
C85	C	0.974460	-0.091523	-0.329945
C86	C	1.474460	0.408477	0.170055
C87	C	1.007197	-0.348112	-1.054025
C88	C	1.507197	0.151888	-0.554025
C89	C	1.007186	-0.348137	-0.983337
C90	C	1.507186	0.151863	-0.483337
C91	C	0.961676	-0.401462	-0.950174
C92	C	1.461676	0.098538	-0.450174
C93	C	0.916179	-0.454770	-0.987701
C94	C	1.416179	0.045230	-0.487701
C95	C	0.916194	-0.454748	-1.058388
C96	C	1.416194	0.045252	-0.558388
C97	C	0.916116	-0.454861	-0.702632
C98	C	1.416116	0.045139	-0.202632
C99	C	0.916103	-0.454877	-0.631940
C100	C	1.416103	0.045123	-0.131940
C101	C	1.007108	-0.348250	-0.627581
C102	C	1.507108	0.151750	-0.127581
C103	C	1.007123	-0.348228	-0.698268
C104	C	1.507123	0.151772	-0.198268
C105	C	0.961629	-0.401539	-0.735789
C106	C	1.461629	0.098461	-0.235789
C107	C	0.961643	-0.401512	-0.812437
C108	C	1.461643	0.098488	-0.312437
C109	C	0.961658	-0.401485	-0.873527
C110	C	1.461658	0.098515	-0.373527
C111	C	0.961574	-0.401629	-0.166788
C112	C	1.461574	0.098371	0.333212
C113	C	0.961703	-0.401414	-0.091547
C114	C	1.461703	0.098586	0.408453
H115	H	0.223891	-0.304801	-0.260295
H116	H	0.723891	0.195199	0.239705
H117	H	0.699915	-0.498509	-0.425005
H118	H	1.199915	0.001491	0.074995
H119	H	0.879071	-0.498269	-0.733173
H120	H	1.379071	0.001731	-0.233173
H121	H	1.044153	-0.304843	-0.597023
H122	H	1.544153	0.195157	-0.097023
C123	C	0.205187	-0.513789	-0.438028
C124	C	0.705187	-0.013789	0.061972
H125	H	0.158341	-0.506142	-0.431537
H126	H	0.658341	-0.006142	0.068463
H127	H	0.214444	-0.569787	-0.430343
H128	H	0.714444	-0.069787	0.069657
H129	H	0.217295	-0.501657	-0.483024
H130	H	0.717295	-0.001657	0.016976
C131	C	1.057224	-0.289501	-0.942062
C132	C	1.557224	0.210499	-0.442062
H133	H	1.050704	-0.297156	-0.895214
H134	H	1.550704	0.202844	-0.395214
H135	H	1.049647	-0.233482	-0.951350
H136	H	1.549647	0.266518	-0.451350
H137	H	1.102200	-0.301703	-0.954151
H138	H	1.602200	0.198297	-0.454151
C139	C	0.892315	-0.928604	-0.411856
C140	C	1.392315	-0.428604	0.088144
H141	H	0.868047	-0.890289	-0.436067
H142	H	1.368047	-0.390289	0.063933
H143	H	0.861487	-0.962630	-0.387308
H144	H	1.361487	-0.462630	0.112692
H145	H	0.916838	-0.962521	-0.442745
H146	H	1.416838	-0.462521	0.057255
C147	C	0.866052	-0.513552	-0.595462
C148	C	1.366052	-0.013552	-0.095462
H149	H	0.838966	-0.545309	-0.627932
H150	H	1.338966	-0.045309	-0.127932
H151	H	0.837876	-0.481679	-0.566574
H152	H	1.337876	0.018321	-0.066574
H153	H	0.890444	-0.549882	-0.569382
H154	H	1.390444	-0.049882	-0.069382
C155	C	0.866118	-0.513425	-0.951223
C156	C	1.366118	-0.013425	-0.451223
H157	H	0.872619	-0.505798	-0.903750
H158	H	1.372619	-0.005798	-0.403750
H159	H	0.873694	-0.569439	-0.965102
H160	H	1.373694	-0.069439	-0.465102
H161	H	0.821149	-0.501209	-0.962306
H162	H	1.321149	-0.001209	-0.462306
H163	H	0.879149	-0.498154	-1.088938
H164	H	1.379149	0.001846	-0.588938
H165	H	1.044180	-0.304802	-0.725266
H166	H	1.544180	0.195198	-0.225266
H167	H	0.571681	-0.498511	-0.425020
H168	H	1.071681	0.001489	0.074980
H169	H	0.344154	-0.498528	-0.425037
H170	H	0.844154	0.001472	0.074963
C171	C	1.030908	-0.873838	-0.273419
C172	C	1.530908	-0.373838	0.226581
H173	H	1.027013	-0.815767	-0.277256
H174	H	1.527013	-0.315767	0.222744
H175	H	1.075821	-0.887988	-0.283919
H176	H	1.575821	-0.387988	0.216081
H177	H	1.020439	-0.888119	-0.228514
H178	H	1.520439	-0.388119	0.271486
C179	C	1.057259	-0.289457	-1.090502
C180	C	1.557259	0.210543	-0.590502
H181	H	1.050750	-0.297071	-1.137974
H182	H	1.550750	0.202929	-0.637974
H183	H	1.102225	-0.301667	-1.079420
H184	H	1.602225	0.198333	-0.579420
H185	H	1.049678	-0.233440	-1.076621
H186	H	1.549678	0.266560	-0.576621
C187	C	0.362853	-0.289546	-0.247303
C188	C	0.862853	0.210454	0.252697
H189	H	0.332986	-0.257763	-0.220259
H190	H	0.832986	0.242237	0.279741
H191	H	0.391946	-0.253255	-0.271743
H192	H	0.891946	0.246745	0.228257
H193	H	0.389092	-0.321399	-0.219073
H194	H	0.889092	0.178601	0.280927
H195	H	0.579649	-0.304778	-0.260272
H196	H	1.079649	0.195222	0.239728
H197	H	0.707895	-0.304764	-0.260258
H198	H	1.207895	0.195236	0.239742
