data_functionalizedCrystal
_audit_creation_method	'MofGen! by Chris Wilmer'
_symmetry_space_group_name_H-M	'P1'
_symmetry_Int_Tables_number	1
_symmetry_cell_setting	triclinic
loop_
_symmetry_equiv_pos_as_xyz
  x,y,z
_cell_length_a	12.837943
_cell_length_b	15.500227
_cell_length_c	17.038278
_cell_angle_alpha	93.026324
_cell_angle_beta	87.030279
_cell_angle_gamma	93.143337
loop_
_atom_site_label
_atom_site_type_symbol
_atom_site_fract_x
_atom_site_fract_y
_atom_site_fract_z
O1	O	1.398027	0.071957	-0.201306
O2	O	1.095331	0.071961	-0.191199
O3	O	1.244880	0.071937	-0.082304
O4	O	1.248478	0.071981	-0.310201
O5	O	1.235802	-0.071950	-0.088883
O6	O	1.086253	-0.071926	-0.197778
O7	O	1.388950	-0.071930	-0.207885
Cu8	Cu	1.236773	-0.085066	-0.203432
Cu9	Cu	1.247508	0.085097	-0.195651
O10	O	1.239400	-0.071906	-0.316780
C11	C	1.051870	0.000018	-0.191074
C12	C	0.935895	0.000018	-0.180891
N13	N	1.229229	-0.204750	-0.208905
C14	C	0.705732	0.000029	-0.303308
C15	C	0.596763	0.000029	-0.293744
C16	C	0.608985	0.000011	-0.152200
C17	C	0.717955	0.000011	-0.161764
C18	C	0.766324	0.000022	-0.237320
C19	C	0.875295	0.000028	-0.246883
C20	C	0.887516	0.000004	-0.105341
C21	C	0.778546	0.000004	-0.095777
C22	C	1.292624	-0.250036	-0.162783
C23	C	1.286930	-0.340608	-0.166930
C24	C	1.217845	-0.385892	-0.217203
C25	C	1.154444	-0.340599	-0.263327
C26	C	1.160134	-0.250029	-0.259175
C27	C	1.197347	-0.659356	-0.232145
C28	C	1.191664	-0.749932	-0.236295
C29	C	1.324149	-0.749935	-0.139896
C30	C	1.329837	-0.659363	-0.135753
C31	C	1.266432	-0.614078	-0.181873
C32	C	1.212025	-0.478471	-0.221445
C33	C	1.272247	-0.521501	-0.177627
C34	C	1.432410	0.000016	-0.208009
C35	C	1.548386	0.000021	-0.218192
C36	C	1.237069	-0.000010	-0.056221
C37	C	1.227306	-0.000021	0.031301
N38	N	1.255059	0.204781	-0.190173
C39	C	1.247212	0.000043	-0.342863
C40	C	1.256975	0.000060	-0.430384
C41	C	1.167336	0.000058	0.526196
C42	C	1.176516	0.000050	0.443960
C43	C	1.275336	0.000037	0.405144
C44	C	1.364983	0.000041	0.448569
C45	C	1.355802	0.000056	0.530805
C46	C	1.307771	-0.000002	0.156962
C47	C	1.316945	-0.000020	0.074720
C48	C	1.128477	-0.000009	0.070117
C49	C	1.119305	0.000000	0.152354
C50	C	1.208952	0.000009	0.195772
C51	C	1.284722	0.000025	0.321085
C52	C	1.199565	0.000027	0.279830
H53	H	0.745115	0.000039	-0.364828
O54	O	0.922341	0.000192	-0.320252
C55	C	0.989725	0.074703	-0.326614
H56	H	0.963641	0.126784	-0.281192
H57	H	0.987130	0.099723	-0.388173
H58	H	1.072892	0.057855	-0.315621
H59	H	1.135405	-0.786798	-0.277237
O60	O	1.071353	-0.000081	0.563927
C61	C	1.055698	-0.074581	0.607989
H62	H	1.108645	-0.126677	0.582150
H63	H	0.970669	-0.099585	0.605745
H64	H	1.075119	-0.057724	0.671698
H65	H	1.428797	0.000061	0.566156
O66	O	1.412864	-0.000067	0.036888
C67	C	1.401739	-0.000066	-0.045005
H68	H	1.320287	-0.027307	-0.059447
H69	H	1.462769	-0.041850	-0.076686
H70	H	1.413166	0.068958	-0.065101
O71	O	1.460928	0.000145	0.410781
C72	C	1.476594	0.074666	0.366749
H73	H	1.397723	0.099513	0.353559
H74	H	1.521870	0.057891	0.309134
H75	H	1.522857	0.126852	0.401947
H76	H	0.547432	0.000033	-0.347478
O77	O	1.348477	-0.384500	-0.122017
C78	C	1.326040	-0.362410	-0.041821
H79	H	1.289949	-0.296661	-0.035887
H80	H	1.401264	-0.359301	-0.008809
H81	H	1.268766	-0.413405	-0.015917
H82	H	0.569579	-0.000069	-0.090689
O83	O	1.380765	-0.000105	0.283463
C84	C	1.431132	-0.074638	0.301552
H85	H	1.396107	-0.099475	0.359476
H86	H	1.518082	-0.057884	0.307232
H87	H	1.419935	-0.126824	0.252576
O88	O	1.339477	-0.477595	-0.128839
C89	C	1.442526	-0.499656	-0.150387
H90	H	1.440976	-0.565414	-0.183714
H91	H	1.488504	-0.502733	-0.095216
H92	H	1.481428	-0.448662	-0.189652
O93	O	0.731516	0.000149	-0.022395
C94	C	0.673526	0.074657	-0.009236
H95	H	0.706182	0.126745	-0.049902
H96	H	0.679271	0.099667	0.054606
H97	H	0.588237	0.057808	-0.021771
O98	O	1.041510	0.000028	0.027822
C99	C	1.070796	-0.000009	-0.053085
H100	H	1.154756	0.027221	-0.061101
H101	H	1.016744	0.041766	-0.083911
H102	H	1.064568	-0.069043	-0.079667
H103	H	1.098188	-0.377474	-0.304258
O104	O	0.946338	0.000149	-0.041203
C105	C	0.928102	0.074652	0.007599
H106	H	0.897854	0.126741	-0.028803
H107	H	1.004111	0.099666	0.034556
H108	H	0.867596	0.057796	0.056507
O109	O	1.359569	-0.205976	-0.113867
C110	C	1.302656	-0.153657	-0.058713
H111	H	1.224644	-0.140073	-0.083348
H112	H	1.349109	-0.089973	-0.046556
H113	H	1.288196	-0.188618	-0.001638
H114	H	1.038836	0.000021	0.183952
O115	O	1.396967	-0.615512	-0.086847
C116	C	1.451720	-0.674906	-0.047040
H117	H	1.404805	-0.739476	-0.045903
H118	H	1.463745	-0.648753	0.015818
H119	H	1.530882	-0.684515	-0.078846
H120	H	1.375770	-0.786815	-0.102346
H121	H	1.145722	-0.622492	-0.269700
O122	O	1.098514	-0.206168	-0.304060
C123	C	1.036300	-0.265556	-0.349310
H124	H	1.075105	-0.330109	-0.356366
H125	H	1.027562	-0.239368	-0.409769
H126	H	0.955928	-0.275212	-0.318387
O127	O	1.144866	-0.522560	-0.270177
C128	C	1.073473	-0.574957	-0.225599
H129	H	1.108751	-0.588525	-0.167746
H130	H	1.055870	-0.638645	-0.260123
H131	H	0.998069	-0.540073	-0.212882
H132	H	1.103522	0.000051	0.408611
O133	O	1.394954	-0.000042	0.199010
C134	C	1.484141	-0.000042	0.147113
H135	H	1.461330	-0.027289	0.086581
H136	H	1.544753	-0.041820	0.170583
H137	H	1.518459	0.068983	0.142209
O138	O	1.103638	0.000155	0.317625
C139	C	1.097389	0.074695	0.368426
H140	H	1.179400	0.099542	0.383866
H141	H	1.050004	0.057947	0.424522
H142	H	1.057712	0.126871	0.337969
