data_functionalizedCrystal
_audit_creation_method	'MofGen! by Chris Wilmer'
_symmetry_space_group_name_H-M	'P1'
_symmetry_Int_Tables_number	1
_symmetry_cell_setting	triclinic
loop_
_symmetry_equiv_pos_as_xyz
  x,y,z
_cell_length_a	14.519709
_cell_length_b	16.098538
_cell_length_c	14.519709
_cell_angle_alpha	87.273050
_cell_angle_beta	83.680145
_cell_angle_gamma	92.738106
loop_
_atom_site_label
_atom_site_type_symbol
_atom_site_fract_x
_atom_site_fract_y
_atom_site_fract_z
O1	O	1.227984	0.069149	0.116783
O2	O	1.561317	0.402483	0.450116
O3	O	1.894650	0.735816	0.783450
O4	O	0.959508	0.069175	0.131018
O5	O	1.292842	0.402508	0.464351
O6	O	1.626175	0.735842	0.797685
O7	O	1.100864	0.069154	-0.010338
O8	O	1.434197	0.402487	0.322996
O9	O	1.767530	0.735820	0.656329
O10	O	1.086628	0.069170	0.258138
O11	O	1.419962	0.402504	0.591472
O12	O	1.753295	0.735837	0.924805
O13	O	1.092606	-0.069358	-0.002113
O14	O	1.425940	0.263975	0.331221
O15	O	1.759273	0.597309	0.664554
O16	O	0.951251	-0.069337	0.139243
O17	O	1.284584	0.263996	0.472576
O18	O	1.617918	0.597330	0.805909
O19	O	1.219726	-0.069363	0.125008
O20	O	1.553060	0.263971	0.458341
O21	O	1.886393	0.597304	0.791674
Zn22	Zn	1.084178	-0.091341	0.133431
Zn23	Zn	1.417511	0.241992	0.466765
Zn24	Zn	1.750844	0.575325	0.800098
Zn25	Zn	1.095057	0.091154	0.122595
Zn26	Zn	1.428390	0.424487	0.455928
Zn27	Zn	1.761724	0.757820	0.789261
O28	O	1.078371	-0.069342	0.266363
O29	O	1.411704	0.263992	0.599697
O30	O	1.745038	0.597325	0.933030
C31	C	0.921020	-0.000078	0.134467
C32	C	1.254353	0.333256	0.467800
C33	C	1.587687	0.666589	0.801133
C34	C	0.818639	-0.000068	0.132478
C35	C	1.151973	0.333265	0.465811
C36	C	1.485306	0.666598	0.799145
N37	N	1.076759	-0.215889	0.140826
N38	N	1.410093	0.117444	0.474160
N39	N	1.743426	0.450777	0.807493
C40	C	0.443741	-0.000107	0.125161
C41	C	0.777075	0.333227	0.458494
C42	C	1.110408	0.666560	0.791827
C43	C	0.548050	-0.000096	0.127193
C44	C	0.881383	0.333238	0.460526
C45	C	1.214717	0.666571	0.793859
C46	C	0.631187	-0.000087	0.128819
C47	C	0.964520	0.333247	0.462152
C48	C	1.297854	0.666580	0.795486
C49	C	0.735502	-0.000077	0.130852
C50	C	1.068836	0.333256	0.464185
C51	C	1.402169	0.666589	0.797518
C52	C	1.136778	-0.259483	0.080851
C53	C	1.470112	0.073850	0.414184
C54	C	1.803445	0.407183	0.747517
C55	C	1.131598	-0.346672	0.086033
C56	C	1.464931	-0.013338	0.419366
C57	C	1.798264	0.319995	0.752699
C58	C	1.066402	-0.390264	0.151195
C59	C	1.399735	-0.056931	0.484529
C60	C	1.733068	0.276402	0.817862
C61	C	1.006376	-0.346664	0.211174
C62	C	1.339710	-0.013331	0.544507
C63	C	1.673043	0.320002	0.877840
C64	C	1.011553	-0.259478	0.205987
C65	C	1.344887	0.073856	0.539320
C66	C	1.678220	0.407189	0.872653
C67	C	1.047634	-0.653512	0.169983
C68	C	1.380968	-0.320178	0.503317
C69	C	1.714301	0.013155	0.836650
C70	C	1.042464	-0.740704	0.175168
C71	C	1.375797	-0.407371	0.508501
C72	C	1.709130	-0.074038	0.841834
C73	C	1.167684	-0.740706	0.050025
C74	C	1.501018	-0.407372	0.383358
C75	C	1.834351	-0.074039	0.716692
C76	C	1.172859	-0.653517	0.044847
C77	C	1.506193	-0.320184	0.378181
C78	C	1.839526	0.013149	0.711514
C79	C	1.112831	-0.609925	0.104822
C80	C	1.446164	-0.276592	0.438156
C81	C	1.779497	0.056742	0.771489
C82	C	1.061106	-0.479385	0.156496
C83	C	1.394440	-0.146051	0.489829
C84	C	1.727773	0.187282	0.823162
C85	C	1.118122	-0.520806	0.099517
C86	C	1.451456	-0.187473	0.432850
C87	C	1.784789	0.145861	0.766184
C88	C	1.258215	-0.000108	0.121559
C89	C	1.591548	0.333225	0.454892
C90	C	1.924881	0.666559	0.788226
C91	C	1.360596	-0.000112	0.123547
C92	C	1.693929	0.333221	0.456881
C93	C	2.027262	0.666555	0.790214
N94	N	1.102483	0.215702	0.115192
N95	N	1.435816	0.549035	0.448525
N96	N	1.769149	0.882368	0.781859
C97	C	1.096072	-0.000102	-0.040585
C98	C	1.429405	0.333231	0.292748
C99	C	1.762738	0.666565	0.626082
C100	C	1.094083	-0.000102	-0.142966
C101	C	1.427417	0.333231	0.190367
C102	C	1.760750	0.666564	0.523701
C103	C	1.086765	-0.000080	-0.517863
C104	C	1.420099	0.333253	-0.184530
C105	C	1.753432	0.666587	0.148803
C106	C	1.088797	-0.000087	-0.413555
C107	C	1.422131	0.333247	-0.080222
C108	C	1.755464	0.666580	0.253112
C109	C	1.090424	-0.000092	-0.330418
C110	C	1.423757	0.333241	0.002915
C111	C	1.757091	0.666575	0.336249
C112	C	1.092457	-0.000097	-0.226103
C113	C	1.425790	0.333236	0.107230
C114	C	1.759123	0.666570	0.440564
C115	C	1.083163	-0.000084	0.296610
C116	C	1.416497	0.333250	0.629944
C117	C	1.749830	0.666583	0.963277
C118	C	1.085152	-0.000078	0.398991
C119	C	1.418485	0.333255	0.732325
C120	C	1.751818	0.666589	1.065658
H121	H	1.189872	-0.223996	0.027792
H122	H	1.523205	0.109337	0.361126
H123	H	1.856538	0.442671	0.694459
H124	H	1.225947	-0.618026	-0.008213
H125	H	1.559280	-0.284693	0.325120
H126	H	1.892614	0.048641	0.658454
Cl127	Cl	0.979149	-0.534191	0.238416
Cl128	Cl	1.312482	-0.200857	0.571749
Cl129	Cl	1.645815	0.132476	0.905082
Cl130	Cl	1.243141	-0.795511	-0.025371
Cl131	Cl	1.576474	-0.462178	0.307962
Cl132	Cl	1.909808	-0.128845	0.641296
Cl133	Cl	0.960496	-0.795501	0.257096
Cl134	Cl	1.293830	-0.462167	0.590429
Cl135	Cl	1.627163	-0.128834	0.923763
Cl136	Cl	0.972175	-0.598715	0.245382
Cl137	Cl	1.305509	-0.265382	0.578715
Cl138	Cl	1.638842	0.067951	0.912049
H139	H	0.953288	-0.382162	0.264228
H140	H	1.286621	-0.048829	0.597561
H141	H	1.619954	0.284504	0.930894
Cl142	Cl	1.200077	-0.466003	0.017598
Cl143	Cl	1.533410	-0.132670	0.350931
Cl144	Cl	1.866744	0.200663	0.684264
Cl145	Cl	1.207050	-0.401477	0.010633
Cl146	Cl	1.540384	-0.068144	0.343966
Cl147	Cl	1.873717	0.265190	0.677299
Cl148	Cl	0.936094	-0.204674	0.281385
Cl149	Cl	1.269427	0.128659	0.614718
Cl150	Cl	1.602760	0.461992	0.948052
