data_functionalizedCrystal
_audit_creation_method	'MofGen! by Chris Wilmer'
_symmetry_space_group_name_H-M	'P1'
_symmetry_Int_Tables_number	1
_symmetry_cell_setting	triclinic
loop_
_symmetry_equiv_pos_as_xyz
  x,y,z
_cell_length_a	6.817900
_cell_length_b	12.200863
_cell_length_c	10.992468
_cell_angle_alpha	92.438551
_cell_angle_beta	108.765637
_cell_angle_gamma	107.143441
loop_
_atom_site_label
_atom_site_type_symbol
_atom_site_fract_x
_atom_site_fract_y
_atom_site_fract_z
V1	V	-4.105851	-0.158695	-0.400721
O2	O	-4.072780	0.007644	-0.392958
O3	O	-4.075175	-0.314683	-0.398110
O4	O	-4.083572	-0.156246	-0.575430
O5	O	-4.064325	-0.151890	-0.214410
V6	V	-4.583797	-0.138800	-0.378421
O7	O	-4.379342	-0.202336	-0.449638
O8	O	-4.760503	-0.095158	-0.329504
O9	O	-4.391266	0.017188	-0.381032
O10	O	-4.734264	-0.305139	-0.386183
O11	O	-4.742719	-0.145605	-0.564732
O12	O	-4.382869	-0.141249	-0.203712
C13	C	-3.923643	-0.352709	-0.391821
C14	C	-3.980023	-0.480231	-0.390851
C15	C	-4.083211	-0.713708	-0.389084
C16	C	-4.025782	-0.583785	-0.390067
C17	C	-3.934353	-0.150606	-0.618010
C18	C	-3.997538	-0.149636	-0.760836
C19	C	-3.799540	-0.142342	-0.807327
C20	C	-3.864950	-0.140876	-0.955805
C21	C	-4.140774	-0.041853	-0.949017
C22	C	-4.073509	-0.042741	-0.800345
C23	C	-4.191968	-0.262004	-0.838790
C24	C	-4.254347	-0.262293	-0.987509
C25	C	-4.206141	0.055209	-0.387317
C26	C	-4.129000	0.182730	-0.388296
C27	C	-4.195430	-0.146892	-0.161125
C28	C	-4.111482	-0.147857	-0.018298
H29	H	-3.835505	-0.216633	-1.003004
O30	O	-3.892561	0.069306	-0.731578
H31	H	-3.952264	0.143625	-0.757003
O32	O	-4.264980	-0.043572	-0.759253
H33	H	-4.406582	-0.122216	-0.811324
O34	O	-4.388806	-0.270507	-0.800171
H35	H	-4.345388	-0.274622	-0.694498
H36	H	-4.037994	0.042821	-0.969126
O37	O	-4.375246	-0.043247	-1.002614
H38	H	-4.473622	-0.119689	-1.079386
H39	H	-4.231804	-0.340785	-1.034163
O40	O	-3.717191	-0.243293	-0.774073
H41	H	-3.816505	-0.299752	-0.724061
H42	H	-3.655381	-0.061266	-0.753114
H43	H	-3.752440	-0.058740	-0.974376
O44	O	-4.133210	-0.369704	-0.805173
H45	H	-4.096692	-0.372343	-0.699593
H46	H	-4.436484	-0.274049	-1.031604
