data_functionalizedCrystal
_audit_creation_method	'MofGen! by Chris Wilmer'
_symmetry_space_group_name_H-M	'P1'
_symmetry_Int_Tables_number	1
_symmetry_cell_setting	triclinic
loop_
_symmetry_equiv_pos_as_xyz
  x,y,z
_cell_length_a	21.395364
_cell_length_b	12.645330
_cell_length_c	21.395355
_cell_angle_alpha	90.014466
_cell_angle_beta	90.024552
_cell_angle_gamma	90.027597
loop_
_atom_site_label
_atom_site_type_symbol
_atom_site_fract_x
_atom_site_fract_y
_atom_site_fract_z
Zn1	Zn	0.957938	-0.421739	0.354279
Zn2	Zn	0.957873	-0.598988	0.249509
Zn3	Zn	0.853153	-0.421786	0.249516
Zn4	Zn	0.853155	-0.599007	0.354249
O5	O	0.905530	-0.510380	0.301888
O6	O	1.045607	-0.445224	0.340391
O7	O	0.943954	-0.575494	0.161832
O8	O	0.867079	-0.273432	0.263428
O9	O	1.045560	-0.575449	0.263417
O10	O	0.944064	-0.273398	0.340397
O11	O	0.867016	-0.445303	0.161837
O12	O	0.765475	-0.445322	0.263399
O13	O	0.867083	-0.575481	0.441931
O14	O	0.765477	-0.575526	0.340346
O15	O	0.944066	-0.445243	0.441953
O16	O	0.943956	-0.747338	0.263388
O17	O	0.867020	-0.747352	0.340340
C18	C	0.742742	-0.510432	0.301871
C19	C	0.673101	-0.510479	0.301878
C20	C	0.640435	-0.442783	0.342020
C21	C	0.574999	-0.442754	0.342023
C22	C	0.542233	-0.510442	0.301889
C23	C	0.574907	-0.578143	0.261739
C24	C	0.640341	-0.578162	0.261734
C25	C	0.438526	-0.605910	0.296856
C26	C	0.373093	-0.605893	0.296866
C27	C	0.340412	-0.510383	0.301903
C28	C	0.373172	-0.414888	0.306944
C29	C	0.438606	-0.414907	0.306938
C30	C	0.471280	-0.510429	0.301891
C31	C	0.236793	-0.442650	0.342051
C32	C	0.171357	-0.442620	0.342049
C33	C	0.171265	-0.578019	0.261768
C34	C	0.236700	-0.578039	0.261767
C35	C	0.269461	-0.510357	0.301911
C36	C	0.905498	-0.785810	0.301874
C37	C	0.905542	-0.903640	0.301888
C38	C	0.953865	-1.071151	0.253379
C39	C	0.954022	-0.948591	0.253498
C40	C	0.923453	-0.948039	0.367933
C41	C	0.923836	-1.070636	0.367675
C42	C	0.839290	-1.070990	0.285003
C43	C	0.839607	-0.948385	0.283522
C44	C	1.068953	-0.510329	0.301906
C45	C	1.138594	-0.510307	0.301914
C46	C	0.905582	-0.510359	0.465312
C47	C	0.905604	-0.510349	0.534953
C48	C	0.905578	-0.233875	0.301917
C49	C	0.905599	-0.116045	0.301929
C50	C	0.905514	-0.510325	0.139101
C51	C	0.905613	-0.510035	0.069460
C52	C	0.945687	-0.442532	0.567679
C53	C	0.945687	-0.442486	0.633114
C54	C	0.905609	-0.510277	0.665821
C55	C	0.865517	-0.578100	0.633088
C56	C	0.865515	-0.578136	0.567654
C57	C	0.900651	-0.605732	0.769491
C58	C	0.900657	-0.605697	0.834924
C59	C	0.905613	-0.510165	0.867642
C60	C	0.910574	-0.414664	0.834919
C61	C	0.910572	-0.414701	0.769485
C62	C	0.905607	-0.510245	0.736774
C63	C	0.945697	-0.442292	0.971320
C64	C	0.945692	-0.442245	1.036757
C65	C	0.865526	-0.577868	1.036730
C66	C	0.865528	-0.577906	0.971294
C67	C	0.905617	-0.510120	0.938594
H68	H	0.667104	-0.387669	0.374709
Br69	Br	1.003325	-0.896701	0.392231
H70	H	0.346425	-0.683651	0.292765
Br71	Br	0.935426	-1.120388	0.171515
Br72	Br	1.000091	-0.350532	0.523302
Br73	Br	1.004620	-1.118139	0.391571
Br74	Br	0.917305	-0.285004	0.879314
Br75	Br	0.917302	-0.285100	0.725077
Br76	Br	0.893944	-0.735397	0.725094
Br77	Br	1.035286	-1.122335	0.271827
Br78	Br	0.893933	-0.735304	0.879327
Br79	Br	0.482872	-0.735540	0.290007
Br80	Br	1.000100	-0.350296	0.926937
H81	H	0.832888	-0.633054	1.063359
H82	H	0.826103	-0.919377	0.234919
H83	H	0.978332	-0.387013	1.063401
H84	H	0.144587	-0.633131	0.229091
H85	H	0.978326	-0.387255	0.659764
H86	H	0.263468	-0.387532	0.374735
Br87	Br	0.811121	-0.670096	0.677475
H88	H	0.832892	-0.633137	0.944649
H89	H	1.003135	-0.919165	0.264693
H90	H	0.832871	-0.633360	0.541009
H91	H	0.548224	-0.633254	0.229062
Br92	Br	0.530657	-0.350870	0.396503
H93	H	0.144761	-0.387487	0.374736
Br94	Br	0.867781	-1.120139	0.430014
H95	H	0.666937	-0.633291	0.229044
H96	H	0.465276	-0.337151	0.311040
H97	H	0.942816	-0.918574	0.204527
Br98	Br	0.281036	-0.669911	0.207280
Br99	Br	0.328827	-0.285258	0.313782
H100	H	0.889369	-0.918922	0.405075
H101	H	0.823003	-1.101989	0.237682
H102	H	0.801705	-0.917800	0.316290
Br103	Br	0.779350	-1.119386	0.343938
