data_functionalizedCrystal
_audit_creation_method	'MofGen! by Chris Wilmer'
_symmetry_space_group_name_H-M	'P1'
_symmetry_Int_Tables_number	1
_symmetry_cell_setting	triclinic
loop_
_symmetry_equiv_pos_as_xyz
  x,y,z
_cell_length_a	14.519709
_cell_length_b	16.098538
_cell_length_c	14.519709
_cell_angle_alpha	87.273050
_cell_angle_beta	83.680145
_cell_angle_gamma	92.738106
loop_
_atom_site_label
_atom_site_type_symbol
_atom_site_fract_x
_atom_site_fract_y
_atom_site_fract_z
O1	O	1.227984	0.069149	0.116783
O2	O	0.959508	0.069175	0.131018
O3	O	1.100864	0.069154	-0.010338
O4	O	1.086628	0.069170	0.258138
O5	O	1.092606	-0.069358	-0.002113
O6	O	0.951251	-0.069337	0.139243
O7	O	1.219726	-0.069363	0.125008
Zn8	Zn	1.084178	-0.091341	0.133431
Zn9	Zn	1.095057	0.091154	0.122595
O10	O	1.078371	-0.069342	0.266363
C11	C	0.921020	-0.000078	0.134467
C12	C	0.818639	-0.000068	0.132478
C13	C	0.443741	-0.000107	0.125161
C14	C	0.548050	-0.000096	0.127193
C15	C	0.631187	-0.000087	0.128819
C16	C	0.735502	-0.000077	0.130852
N17	N	1.076759	-0.215889	0.140826
C18	C	1.136778	-0.259483	0.080851
C19	C	1.131598	-0.346672	0.086033
C20	C	1.066402	-0.390264	0.151195
C21	C	1.006376	-0.346664	0.211174
C22	C	1.011553	-0.259478	0.205987
C23	C	1.047634	-0.653512	0.169983
C24	C	1.042464	-0.740704	0.175168
C25	C	1.167684	-0.740706	0.050025
C26	C	1.172859	-0.653517	0.044847
C27	C	1.112831	-0.609925	0.104822
C28	C	1.061106	-0.479385	0.156496
C29	C	1.118122	-0.520806	0.099517
C30	C	1.258215	-0.000108	0.121559
C31	C	1.360596	-0.000112	0.123547
C32	C	1.096072	-0.000102	-0.040585
C33	C	1.094083	-0.000102	-0.142966
N34	N	1.102483	0.215702	0.115192
C35	C	1.086765	-0.000080	-0.517863
C36	C	1.088797	-0.000087	-0.413555
C37	C	1.090424	-0.000092	-0.330418
C38	C	1.092457	-0.000097	-0.226103
C39	C	1.083163	-0.000084	0.296610
C40	C	1.085152	-0.000078	0.398991
H41	H	1.189872	-0.223996	0.027792
F42	F	0.983751	-0.607124	0.233815
F43	F	0.936984	-0.393059	0.280521
F44	F	0.947670	-0.213083	0.269819
F45	F	1.187503	-0.474411	0.030165
H46	H	1.216556	-0.776207	0.001195
F47	F	1.195475	-0.393068	0.022199
F48	F	1.242249	-0.607124	-0.024505
F49	F	0.973070	-0.787093	0.244529
H50	H	1.008024	-0.514885	0.209554
