data_functionalizedCrystal
_audit_creation_method	'MofGen! by Chris Wilmer'
_symmetry_space_group_name_H-M	'P1'
_symmetry_Int_Tables_number	1
_symmetry_cell_setting	triclinic
loop_
_symmetry_equiv_pos_as_xyz
  x,y,z
_cell_length_a	23.532407
_cell_length_b	27.732048
_cell_length_c	22.010155
_cell_angle_alpha	89.999275
_cell_angle_beta	89.996931
_cell_angle_gamma	82.745667
loop_
_atom_site_label
_atom_site_type_symbol
_atom_site_fract_x
_atom_site_fract_y
_atom_site_fract_z
O1	O	0.755138	0.058672	-0.050456
O2	O	1.255138	0.558672	0.449544
O3	O	0.589257	0.067162	-0.050475
O4	O	1.089257	0.567162	0.449525
O5	O	0.677350	-0.007472	-0.050453
O6	O	1.177350	0.492528	0.449547
O7	O	0.667046	0.133306	-0.050477
O8	O	1.167046	0.633306	0.449523
O9	O	0.677334	-0.007461	0.050597
O10	O	1.177334	0.492539	0.550597
O11	O	0.589241	0.067173	0.050576
O12	O	1.089241	0.567173	0.550576
O13	O	0.755122	0.058683	0.050595
O14	O	1.255122	0.558683	0.550595
Cu15	Cu	0.672180	0.062929	0.059812
Cu16	Cu	1.172180	0.562929	0.559812
Cu17	Cu	0.672199	0.062916	-0.059692
Cu18	Cu	1.172199	0.562916	0.440308
O19	O	0.667030	0.133317	0.050573
O20	O	1.167030	0.633317	0.550573
C21	C	0.568033	0.066952	0.000048
C22	C	1.068033	0.566952	0.500048
C23	C	0.504818	0.066302	0.000042
C24	C	1.004818	0.566302	0.500042
C25	C	0.105629	0.106391	0.000062
C26	C	0.605629	0.606391	0.500062
C27	C	0.046230	0.105787	0.000066
C28	C	0.546230	0.605787	0.500066
O29	O	0.009406	0.142951	0.000082
O30	O	0.509406	0.642951	0.500082
N31	N	0.023699	0.061418	0.000073
N32	N	0.523699	0.561418	0.500073
C33	C	0.060570	0.017649	0.000082
C34	C	0.560570	0.517649	0.500082
O35	O	0.035951	-0.020147	0.000088
O36	O	0.535951	0.479853	0.500088
C37	C	0.119967	0.018253	0.000082
C38	C	0.619967	0.518253	0.500082
C39	C	0.142495	0.062626	0.000070
C40	C	0.642495	0.562626	0.500070
C41	C	0.128158	0.150760	0.000050
C42	C	0.628158	0.650760	0.500050
C43	C	0.187552	0.151364	0.000045
C44	C	0.687552	0.651364	0.500045
C45	C	0.224419	0.107599	0.000052
C46	C	0.724419	0.607599	0.500052
C47	C	0.201890	0.063229	0.000065
C48	C	0.701890	0.563229	0.500065
C49	C	0.156837	-0.025515	0.000096
C50	C	0.656837	0.474485	0.500096
C51	C	0.216239	-0.024907	0.000097
C52	C	0.716239	0.475093	0.500097
C53	C	0.238766	0.019466	0.000084
C54	C	0.738766	0.519466	0.500084
C55	C	0.298151	0.020068	0.000067
C56	C	0.798151	0.520068	0.500067
N57	N	0.320683	0.064437	0.000060
N58	N	0.820683	0.564437	0.500060
C59	C	0.283817	0.108203	0.000053
C60	C	0.783817	0.608203	0.500053
C61	C	-0.064170	0.016383	0.000082
C62	C	0.435830	0.516383	0.500082
C63	C	-0.123567	0.015778	0.000077
C64	C	0.376433	0.515778	0.500077
C65	C	-0.137902	0.103917	0.000062
C66	C	0.362098	0.603917	0.500062
C67	C	-0.078505	0.104521	0.000063
C68	C	0.421495	0.604521	0.500063
C69	C	-0.041639	0.060753	0.000075
C70	C	0.458361	0.560753	0.500075
C71	C	0.408551	0.109467	0.000042
C72	C	0.908551	0.609467	0.500042
C73	C	0.467951	0.110067	0.000035
C74	C	0.967951	0.610067	0.500035
C75	C	0.482282	0.021928	0.000052
C76	C	0.982282	0.521928	0.500052
C77	C	0.422886	0.021328	0.000057
C78	C	0.922886	0.521328	0.500057
C79	C	0.386021	0.065102	0.000053
C80	C	0.886021	0.565102	0.500053
O81	O	0.335010	-0.017077	0.000054
O82	O	0.835010	0.482923	0.500054
O83	O	0.308444	0.145992	0.000054
O84	O	0.808444	0.645992	0.500054
C85	C	0.677125	-0.025473	0.000074
C86	C	1.177125	0.474527	0.500074
C87	C	0.676474	-0.079129	0.000079
C88	C	1.176474	0.420871	0.500079
C89	C	0.724431	-0.417871	0.000053
C90	C	1.224431	0.082129	0.500053
C91	C	0.722014	-0.619534	0.000044
C92	C	1.222014	-0.119534	0.500044
O93	O	0.765867	-0.650722	0.000023
O94	O	1.265867	-0.150722	0.500023
N95	N	0.669779	-0.638738	0.000039
N96	N	1.169779	-0.138738	0.500039
C97	C	0.618144	-0.607523	0.000032
C98	C	1.118144	-0.107523	0.500032
O99	O	0.573659	-0.628484	0.000021
O100	O	1.073659	-0.128484	0.500021
C101	C	0.620561	-0.405860	0.000036
C102	C	1.120561	0.094140	0.500036
C103	C	0.672800	-0.386659	0.000048
C104	C	1.172800	0.113341	0.500048
C105	C	0.776665	-0.398669	0.000064
C106	C	1.276665	0.101331	0.500064
C107	C	0.777269	-0.348256	0.000069
C108	C	1.277269	0.151744	0.500069
C109	C	0.725638	-0.317045	0.000064
C110	C	1.225638	0.182955	0.500064
C111	C	0.673403	-0.336247	0.000053
C112	C	1.173403	0.163753	0.500053
C113	C	0.568927	-0.374646	0.000025
C114	C	1.068927	0.125354	0.500025
C115	C	0.569536	-0.324228	0.000024
C116	C	1.069536	0.175772	0.500024
C117	C	0.621775	-0.305027	0.000036
C118	C	1.121775	0.194973	0.500036
C119	C	0.622376	-0.254622	0.000053
C120	C	1.122376	0.245378	0.500053
N121	N	0.674611	-0.235418	0.000059
N122	N	1.174611	0.264582	0.500059
C123	C	0.726242	-0.266630	0.000064
C124	C	1.226242	0.233370	0.500064
C125	C	0.616879	-0.713399	0.000031
C126	C	1.116879	-0.213399	0.500031
C127	C	0.616274	-0.763814	0.000031
C128	C	1.116274	-0.263814	0.500031
C129	C	0.720145	-0.775822	0.000042
C130	C	1.220145	-0.275822	0.500042
C131	C	0.720749	-0.725406	0.000046
C132	C	1.220749	-0.225406	0.500046
C133	C	0.669114	-0.694195	0.000036
C134	C	1.169114	-0.194195	0.500036
C135	C	0.727506	-0.160758	0.000076
C136	C	1.227506	0.339242	0.500076
C137	C	0.728105	-0.110341	0.000084
C138	C	1.228105	0.389659	0.500084
C139	C	0.624235	-0.098337	0.000069
C140	C	1.124235	0.401663	0.500069
C141	C	0.623635	-0.148751	0.000065
C142	C	1.123635	0.351249	0.500065
C143	C	0.675276	-0.179961	0.000066
C144	C	1.175276	0.320039	0.500066
O145	O	0.578547	-0.223406	0.000068
O146	O	1.078547	0.276594	0.500068
O147	O	0.770721	-0.245659	0.000061
O148	O	1.270721	0.254341	0.500061
C149	C	0.723827	-0.468283	0.000047
C150	C	1.223827	0.031717	0.500047
C151	C	0.671593	-0.487485	0.000037
C152	C	1.171593	0.012515	0.500037
C153	C	0.619962	-0.456274	0.000031
C154	C	1.119962	0.043726	0.500031
C155	C	0.670988	-0.537900	0.000037
C156	C	1.170988	-0.037900	0.500037
C157	C	0.722619	-0.569112	0.000042
C158	C	1.222619	-0.069112	0.500042
C159	C	0.774855	-0.549908	0.000047
C160	C	1.274855	-0.049908	0.500047
C161	C	0.775458	-0.499495	0.000053
C162	C	1.275458	0.000505	0.500053
C163	C	0.567727	-0.475478	0.000026
C164	C	1.067727	0.024522	0.500026
C165	C	0.567127	-0.525891	0.000021
C166	C	1.067127	-0.025891	0.500021
C167	C	0.618758	-0.557103	0.000026
C168	C	1.118758	-0.057103	0.500026
C169	C	0.776346	0.058894	0.000070
C170	C	1.276346	0.558894	0.500070
C171	C	0.839562	0.059544	0.000073
C172	C	1.339562	0.559544	0.500073
C173	C	0.667254	0.151319	0.000045
C174	C	1.167254	0.651319	0.500045
C175	C	0.667905	0.204975	0.000036
C176	C	1.167905	0.704975	0.500036
N177	N	0.672171	0.062938	0.143864
N178	N	1.172171	0.562938	0.643864
N179	N	0.672213	0.062903	-0.143744
N180	N	1.172213	0.562903	0.356256
C181	C	0.711209	0.029873	0.563653
C182	C	1.211209	0.529873	1.063653
C183	C	0.711211	0.029869	0.627261
C184	C	1.211211	0.529869	1.127261
O185	O	0.744380	0.001762	0.660160
O186	O	1.244380	0.501762	1.160160
N187	N	0.672199	0.062906	0.659071
N188	N	1.172199	0.562906	1.159071
C189	C	0.633177	0.095945	0.627271
C190	C	1.133177	0.595945	1.127271
O191	O	0.599994	0.124044	0.660169
O192	O	1.099994	0.624044	1.160169
C193	C	0.633172	0.095945	0.563665
C194	C	1.133172	0.595945	1.063665
C195	C	0.672191	0.062910	0.531857
C196	C	1.172191	0.562910	1.031857
C197	C	0.750224	-0.003160	0.531846
C198	C	1.250224	0.496840	1.031846
C199	C	0.750222	-0.003156	0.468243
C200	C	1.250222	0.496844	0.968243
C201	C	0.711205	0.029881	0.436447
C202	C	1.211205	0.529881	0.936447
C203	C	0.672189	0.062914	0.468254
C204	C	1.172189	0.562914	0.968254
C205	C	0.594148	0.128981	0.531866
C206	C	1.094148	0.628981	1.031866
C207	C	0.594147	0.128979	0.468255
C208	C	1.094147	0.628979	0.968255
C209	C	0.633166	0.095943	0.436447
C210	C	1.133166	0.595943	0.936447
C211	C	0.633170	0.095955	0.372855
C212	C	1.133170	0.595955	0.872855
N213	N	0.672182	0.062919	0.341045
N214	N	1.172182	0.562919	0.841045
C215	C	0.711200	0.029881	0.372840
C216	C	1.211200	0.529881	0.872840
C217	C	0.633190	0.095940	0.760849
C218	C	1.133190	0.595940	1.260849
C219	C	0.633197	0.095942	0.824454
C220	C	1.133197	0.595942	1.324454
C221	C	0.711231	0.029866	0.824440
C222	C	1.211231	0.529866	1.324440
C223	C	0.711226	0.029867	0.760833
C224	C	1.211226	0.529867	1.260833
C225	C	0.672202	0.062904	0.729038
C226	C	1.172202	0.562904	1.229038
C227	C	0.711193	0.029893	0.239269
C228	C	1.211193	0.529893	0.739269
C229	C	0.711189	0.029901	0.175660
C230	C	1.211189	0.529901	0.675660
C231	C	0.633153	0.095975	0.175680
C232	C	1.133153	0.595975	0.675680
C233	C	0.633159	0.095969	0.239284
C234	C	1.133159	0.595969	0.739284
C235	C	0.672181	0.062924	0.271076
C236	C	1.172181	0.562924	0.771076
O237	O	0.600017	0.124047	0.339915
O238	O	1.100017	0.624047	0.839915
O239	O	0.744372	0.001783	0.339935
O240	O	1.244372	0.501783	0.839935
H241	H	-0.141903	-0.020355	0.000078
H242	H	0.358097	0.479645	0.500078
H243	H	0.743000	0.002965	0.850339
H244	H	1.243000	0.502965	1.350339
C245	C	0.511464	-0.395756	0.000007
C246	C	1.011464	0.104244	0.500007
H247	H	0.480806	-0.369941	-0.000004
H248	H	0.980806	0.130059	0.499996
H249	H	0.509052	-0.415175	0.035242
H250	H	1.009052	0.084825	0.535242
H251	H	0.509075	-0.415170	-0.035240
H252	H	1.009075	0.084830	0.464760
C253	C	0.212326	0.200174	0.000043
C254	C	0.712326	0.700174	0.500043
H255	H	0.181856	0.226149	0.000047
H256	H	0.681856	0.726149	0.500047
H257	H	0.235202	0.202247	-0.035193
H258	H	0.735202	0.702247	0.464807
H259	H	0.235193	0.202245	0.035288
H260	H	0.735193	0.702245	0.535288
H261	H	0.486290	0.146202	0.000024
H262	H	0.986290	0.646202	0.500024
C263	C	0.590277	0.132281	0.859435
C264	C	1.090277	0.632281	1.359435
H265	H	0.567038	0.151953	0.831384
H266	H	1.067038	0.651953	1.331384
H267	H	0.610578	0.152317	0.884251
H268	H	1.110578	0.652317	1.384251
H269	H	0.566723	0.114988	0.884245
H270	H	1.066723	0.614988	1.384245
H271	H	0.781997	-0.030065	0.557728
H272	H	1.281997	0.469935	1.057728
C273	C	0.590233	0.132310	0.140697
C274	C	1.090233	0.632310	0.640697
H275	H	0.595819	0.127573	0.098261
H276	H	1.095819	0.627573	0.598261
H277	H	0.596124	0.164547	0.151116
H278	H	1.096124	0.664547	0.651116
H279	H	0.552272	0.127214	0.151125
H280	H	1.052272	0.627214	0.651125
C281	C	0.551223	0.165321	0.433281
C282	C	1.051223	0.665321	0.933281
H283	H	0.556804	0.160592	0.390843
H284	H	1.056804	0.660592	0.890843
H285	H	0.557120	0.197555	0.443709
H286	H	1.057120	0.697555	0.943709
H287	H	0.513261	0.160229	0.443710
H288	H	1.013261	0.660229	0.943710
C289	C	0.776938	-0.810160	0.000038
C290	C	1.276938	-0.310160	0.500038
H291	H	0.769091	-0.842934	0.000030
H292	H	1.269091	-0.342934	0.500030
H293	H	0.798380	-0.804372	0.035274
H294	H	1.298380	-0.304372	0.535274
H295	H	0.798373	-0.804365	-0.035207
H296	H	1.298373	-0.304365	0.464793
C297	C	0.785570	-0.089222	0.000093
C298	C	1.285570	0.410778	0.500093
H299	H	0.816231	-0.115034	0.000089
H300	H	1.316231	0.384966	0.500089
H301	H	0.787962	-0.069806	0.035333
H302	H	1.287962	0.430194	0.535333
H303	H	0.787970	-0.069804	-0.035148
H304	H	1.287970	0.430196	0.464852
H305	H	0.573737	-0.779443	0.000032
H306	H	1.073737	-0.279443	0.500032
H307	H	0.781993	-0.030058	0.442349
H308	H	1.281993	0.469942	0.942349
C309	C	0.551225	0.165317	0.566843
C310	C	1.051225	0.665317	1.066843
H311	H	0.556811	0.160592	0.609280
H312	H	1.056811	0.660592	1.109280
H313	H	0.513267	0.160226	0.556416
H314	H	1.013267	0.660226	1.056416
H315	H	0.557123	0.197554	0.556416
H316	H	1.057123	0.697554	1.056416
C317	C	0.512736	-0.289899	0.000015
C318	C	1.012736	0.210101	0.500015
H319	H	0.481542	-0.308558	0.000013
H320	H	0.981542	0.191442	0.500013
H321	H	0.510818	-0.269980	-0.035221
H322	H	1.010818	0.230020	0.464779
H323	H	0.510805	-0.269985	0.035260
H324	H	1.010805	0.230015	0.535260
H325	H	0.098146	0.186402	0.000047
H326	H	0.598146	0.686402	0.500047
C327	C	0.590269	0.132289	0.725880
C328	C	1.090269	0.632289	1.225880
H329	H	0.567042	0.151965	0.753939
H330	H	1.067042	0.651965	1.253939
H331	H	0.566711	0.115009	0.701068
H332	H	1.066711	0.615009	1.201068
H333	H	0.610579	0.152327	0.701068
H334	H	1.110579	0.652327	1.201068
H335	H	0.574829	-0.687991	0.000022
H336	H	1.074829	-0.187991	0.500022
C337	C	0.567445	-0.063999	0.000060
C338	C	1.067445	0.436001	0.500060
H339	H	0.575291	-0.031225	0.000057
H340	H	1.075291	0.468775	0.500057
H341	H	0.545995	-0.069790	0.035292
H342	H	1.045995	0.430210	0.535292
H343	H	0.546018	-0.069792	-0.035189
H344	H	1.046018	0.430208	0.464811
C345	C	0.368008	0.157617	0.000031
C346	C	0.868008	0.657617	0.500031
H347	H	0.389939	0.184124	0.000016
H348	H	0.889939	0.684124	0.500016
H349	H	0.344535	0.159225	0.035268
H350	H	0.844535	0.659225	0.535268
H351	H	0.344543	0.159208	-0.035214
H352	H	0.844543	0.659208	0.464786
C353	C	0.832921	-0.478380	0.000059
C354	C	1.332921	0.021620	0.500059
H355	H	0.863580	-0.504194	0.000056
H356	H	1.363580	-0.004194	0.500056
H357	H	0.835317	-0.458963	0.035298
H358	H	1.335317	0.041037	0.535298
H359	H	0.835323	-0.458964	-0.035184
H360	H	1.335323	0.041036	0.464816
C361	C	-0.053729	0.153331	0.000054
C362	C	0.446271	0.653331	0.500054
H363	H	-0.084197	0.179307	0.000053
H364	H	0.415803	0.679307	0.500053
H365	H	-0.030852	0.155397	-0.035183
H366	H	0.469148	0.655397	0.464817
H367	H	-0.030862	0.155404	0.035299
H368	H	0.469138	0.655404	0.535299
C369	C	0.590218	0.132288	0.274273
C370	C	1.090218	0.632288	0.774273
H371	H	0.566972	0.151957	0.246224
H372	H	1.066972	0.651957	0.746224
H373	H	0.610498	0.152329	0.299104
H374	H	1.110498	0.652329	0.799104
H375	H	0.566674	0.114974	0.299067
H376	H	1.066674	0.614974	0.799067
C377	C	0.566175	-0.169873	0.000051
C378	C	1.066175	0.330127	0.500051
H379	H	0.535512	-0.144062	0.000044
H380	H	1.035512	0.355938	0.500044
H381	H	0.563769	-0.189297	0.035282
H382	H	1.063769	0.310703	0.535282
H383	H	0.563790	-0.189284	-0.035199
H384	H	1.063790	0.310716	0.464801
C385	C	0.132070	-0.074326	0.000118
C386	C	0.632070	0.425674	0.500118
H387	H	0.162540	-0.100300	0.000131
H388	H	0.662540	0.399700	0.500131
H389	H	0.109197	-0.076408	-0.035116
H390	H	0.609197	0.423592	0.464884
H391	H	0.109199	-0.076387	0.035365
H392	H	0.609199	0.423613	0.535365
H393	H	-0.167930	0.139553	0.000059
H394	H	0.332070	0.639553	0.500059
C395	C	-0.023622	-0.031766	0.000082
C396	C	0.476378	0.468234	0.500082
H397	H	-0.045553	-0.058274	0.000080
H398	H	0.454447	0.441726	0.500080
H399	H	-0.000152	-0.033365	0.035318
H400	H	0.499848	0.466635	0.535318
H401	H	-0.000154	-0.033365	-0.035163
H402	H	0.499846	0.466635	0.464837
H403	H	0.246253	-0.060550	0.000107
H404	H	0.746253	0.439450	0.500107
C405	C	0.831647	-0.584246	0.000048
C406	C	1.331647	-0.084246	0.500048
H407	H	0.823800	-0.617020	0.000039
H408	H	1.323800	-0.117020	0.500039
H409	H	0.853086	-0.578458	0.035288
H410	H	1.353086	-0.078458	0.535288
H411	H	0.853087	-0.578451	-0.035194
H412	H	1.353087	-0.078451	0.464806
C413	C	0.754142	-0.006475	0.725851
C414	C	1.254142	0.493525	1.225851
H415	H	0.777376	-0.026151	0.753903
H416	H	1.277376	0.473849	1.253903
H417	H	0.777694	0.010808	0.701032
H418	H	1.277694	0.510808	1.201032
H419	H	0.733829	-0.026513	0.701045
H420	H	1.233829	0.473487	1.201045
H421	H	0.512309	-0.013704	0.000056
H422	H	1.012309	0.486296	0.500056
H423	H	0.404543	-0.014804	0.000058
H424	H	0.904543	0.485196	0.500058
C425	C	0.509661	-0.547007	0.000007
C426	C	1.009661	-0.047007	0.500007
H427	H	0.479001	-0.521194	-0.000002
H428	H	0.979001	-0.021194	0.499998
H429	H	0.507252	-0.566428	0.035240
H430	H	1.007252	-0.066428	0.535240
H431	H	0.507274	-0.566419	-0.035242
H432	H	1.007274	-0.066419	0.464758
H433	H	0.769556	-0.186164	0.000075
H434	H	1.269556	0.313836	0.500075
H435	H	0.819807	-0.332628	0.000076
H436	H	1.319807	0.167372	0.500076
H437	H	0.818712	-0.424077	0.000066
H438	H	1.318712	0.075923	0.500066
H439	H	0.525681	-0.450070	0.000020
H440	H	1.025681	0.049930	0.500020
H441	H	0.763286	-0.709776	0.000055
H442	H	1.263286	-0.209776	0.500055
H443	H	0.742965	0.003000	0.149765
H444	H	1.242965	0.503000	0.649765
H445	H	0.742967	0.002984	0.265148
H446	H	1.242967	0.502984	0.765148
