data_functionalizedCrystal
_audit_creation_method	'MofGen! by Chris Wilmer'
_symmetry_space_group_name_H-M	'P1'
_symmetry_Int_Tables_number	1
_symmetry_cell_setting	triclinic
loop_
_symmetry_equiv_pos_as_xyz
  x,y,z
_cell_length_a	18.101398
_cell_length_b	18.050589
_cell_length_c	18.050582
_cell_angle_alpha	89.981795
_cell_angle_beta	89.979764
_cell_angle_gamma	90.023488
loop_
_atom_site_label
_atom_site_type_symbol
_atom_site_fract_x
_atom_site_fract_y
_atom_site_fract_z
Zn1	Zn	1.132106	-0.295800	-0.420040
Zn2	Zn	1.632106	0.204200	0.079960
Zn3	Zn	1.132017	-0.419984	-0.295860
Zn4	Zn	1.632017	0.080016	0.204140
Zn5	Zn	1.008274	-0.295802	-0.295853
Zn6	Zn	1.508274	0.204198	0.204147
Zn7	Zn	1.008222	-0.419943	-0.419997
Zn8	Zn	1.508222	0.080057	0.080003
O9	O	1.070155	-0.357882	-0.357937
O10	O	1.570155	0.142118	0.142063
O11	O	1.235727	-0.312290	-0.403589
O12	O	1.735727	0.187710	0.096411
O13	O	1.115587	-0.403528	-0.191934
O14	O	1.615587	0.096472	0.308066
O15	O	1.024759	-0.191877	-0.312342
O16	O	1.524759	0.308123	0.187658
O17	O	1.235662	-0.403527	-0.312354
O18	O	1.735662	0.096473	0.187646
O19	O	1.115738	-0.191876	-0.403582
O20	O	1.615738	0.308124	0.096418
O21	O	1.024673	-0.312292	-0.191929
O22	O	1.524673	0.187708	0.308071
O23	O	0.904634	-0.312253	-0.312300
O24	O	1.404634	0.187747	0.187700
O25	O	1.024671	-0.403457	-0.523927
O26	O	1.524671	0.096543	-0.023927
O27	O	0.904596	-0.403459	-0.403508
O28	O	1.404596	0.096541	0.096492
O29	O	1.115688	-0.312250	-0.523959
O30	O	1.615688	0.187750	-0.023959
O31	O	1.115536	-0.523903	-0.312311
O32	O	1.615536	-0.023903	0.187689
O33	O	1.024585	-0.523873	-0.403514
O34	O	1.524585	-0.023873	0.096486
C35	C	0.877744	-0.357852	-0.357899
C36	C	1.377744	0.142148	0.142101
C37	C	0.795430	-0.357857	-0.357900
C38	C	1.295430	0.142143	0.142100
C39	C	0.496339	-0.357903	-0.357962
C40	C	0.996339	0.142097	0.142038
C41	C	0.527663	-0.300232	-0.300857
C42	C	1.027663	0.199768	0.199143
C43	C	0.613282	-0.300387	-0.300613
C44	C	1.113282	0.199613	0.199387
C45	C	0.644722	-0.357880	-0.357931
C46	C	1.144722	0.142120	0.142069
C47	C	0.613609	-0.436109	-0.336553
C48	C	1.113609	0.063891	0.163447
C49	C	0.527964	-0.435788	-0.336156
C50	C	1.027964	0.064212	0.163844
C51	C	0.527947	-0.338025	-0.436581
C52	C	1.027947	0.161975	0.063419
C53	C	0.613598	-0.336283	-0.436152
C54	C	1.113598	0.163717	0.063848
C55	C	0.728581	-0.357871	-0.357915
C56	C	1.228581	0.142129	0.142085
C57	C	0.412480	-0.357917	-0.357977
C58	C	0.912480	0.142083	0.142023
C59	C	1.070065	-0.550834	-0.357925
C60	C	1.570065	-0.050834	0.142075
C61	C	1.070095	-0.633380	-0.357945
C62	C	1.570095	-0.133380	0.142055
C63	C	1.020684	-0.832841	-0.407524
C64	C	1.520684	-0.332841	0.092476
C65	C	1.002637	-0.882274	-0.339755
C66	C	1.502637	-0.382274	0.160245
C67	C	1.070167	-0.784510	-0.357954
C68	C	1.570167	-0.284510	0.142046
C69	C	1.088251	-0.882160	-0.425731
C70	C	1.588251	-0.382160	0.074269
C71	C	1.070236	-0.930495	-0.357970
C72	C	1.570236	-0.430495	0.142030
C73	C	1.052085	-0.832856	-0.290149
C74	C	1.552085	-0.332856	0.209851
C75	C	1.137730	-0.832737	-0.376172
C76	C	1.637730	-0.332737	0.123828
C77	C	1.119709	-0.882147	-0.308356
C78	C	1.619709	-0.382147	0.191644
C79	C	1.070126	-0.700412	-0.357947
C80	C	1.570126	-0.200412	0.142053
C81	C	1.070278	-1.014592	-0.357970
C82	C	1.570278	-0.514592	0.142030
C83	C	1.263316	-0.357913	-0.357977
C84	C	1.763316	0.142087	0.142023
C85	C	1.345631	-0.357926	-0.357994
C86	C	1.845631	0.142074	0.142006
C87	C	1.070184	-0.357849	-0.551643
C88	C	1.570184	0.142151	-0.051643
C89	C	1.070196	-0.357835	-0.634189
C90	C	1.570196	0.142165	-0.134189
C91	C	1.070265	-0.164177	-0.357966
C92	C	1.570265	0.335823	0.142034
C93	C	1.070311	-0.081631	-0.357978
C94	C	1.570311	0.418369	0.142022
C95	C	1.020739	-0.407366	-0.833622
C96	C	1.520739	0.092634	-0.333622
C97	C	1.088304	-0.425525	-0.883021
C98	C	1.588304	0.074475	-0.383021
C99	C	1.070233	-0.357779	-0.785319
C100	C	1.570233	0.142221	-0.285319
C101	C	1.002705	-0.339599	-0.883002
C102	C	1.502705	0.160401	-0.383002
C103	C	1.070262	-0.357725	-0.931305
C104	C	1.570262	0.142275	-0.431305
C105	C	1.137833	-0.375973	-0.833631
C106	C	1.637833	0.124027	-0.333631
C107	C	1.052188	-0.290016	-0.833608
C108	C	1.552188	0.209984	-0.333608
C109	C	1.119800	-0.308149	-0.882984
C110	C	1.619800	0.191851	-0.382984
C111	C	1.070215	-0.357811	-0.701221
C112	C	1.570215	0.142189	-0.201221
C113	C	1.070287	-0.357692	-1.015401
C114	C	1.570287	0.142308	-0.515401
C115	C	1.070168	-0.357861	-0.164985
C116	C	1.570168	0.142139	0.335015
C117	C	1.070299	-0.357666	-0.082440
C118	C	1.570299	0.142334	0.417560
H119	H	0.507241	-0.480212	-0.375935
H120	H	1.007241	0.019788	0.124065
H121	H	0.945585	-0.324245	-0.904690
H122	H	1.445585	0.175755	-0.404690
H123	H	1.103584	-0.482808	-0.904726
H124	H	1.603584	0.017192	-0.404726
C125	C	1.018708	-0.863666	-0.165127
C126	C	1.518708	-0.363666	0.334873
C127	C	1.031383	-0.803748	-0.212757
C128	C	1.531383	-0.303748	0.287243
H129	H	1.005930	-0.845694	-0.117349
H130	H	1.505930	-0.345694	0.382651
H131	H	0.979413	-0.893014	-0.183965
H132	H	1.479413	-0.393014	0.316035
H133	H	1.062190	-0.892920	-0.161754
H134	H	1.562190	-0.392920	0.338246
H135	H	0.987899	-0.774498	-0.216134
H136	H	1.487899	-0.274498	0.283866
H137	H	1.070680	-0.774388	-0.193914
H138	H	1.570680	-0.274388	0.306086
H139	H	0.506371	-0.281974	-0.456019
H140	H	1.006371	0.218026	0.043981
H141	H	1.161716	-0.266192	-0.904521
H142	H	1.661716	0.233808	-0.404521
C143	C	0.964390	-0.463025	-0.726789
C144	C	1.464390	0.036975	-0.226789
C145	C	0.964288	-0.464043	-0.804355
C146	C	1.464288	0.035957	-0.304355
H147	H	0.929539	-0.498013	-0.708722
H148	H	1.429539	0.001987	-0.208722
H149	H	1.012243	-0.475452	-0.709165
H150	H	1.512243	0.024548	-0.209165
H151	H	0.951444	-0.414919	-0.709877
H152	H	1.451444	0.085081	-0.209877
H153	H	0.977240	-0.512148	-0.821267
H154	H	1.477240	-0.012148	-0.321267
H155	H	0.916424	-0.451621	-0.821987
H156	H	1.416424	0.048379	-0.321987
H157	H	0.633938	-0.278715	-0.452272
H158	H	1.133938	0.221285	0.047728
C159	C	1.214090	-0.725772	-0.396091
C160	C	1.714090	-0.225772	0.103909
C161	C	1.214801	-0.803336	-0.396991
C162	C	1.714801	-0.303336	0.103009
H163	H	1.261673	-0.707623	-0.408945
H164	H	1.761673	-0.207623	0.091055
H165	H	1.178799	-0.708161	-0.430807
H166	H	1.678799	-0.208161	0.069193
H167	H	1.201328	-0.708932	-0.347905
H168	H	1.701328	-0.208932	0.152095
H169	H	1.227558	-0.820177	-0.445179
H170	H	1.727558	-0.320177	0.054821
H171	H	1.250103	-0.820955	-0.362273
H172	H	1.750103	-0.320955	0.137727
H173	H	0.978776	-0.811191	-0.449383
H174	H	1.478776	-0.311191	0.050617
C175	C	0.686466	-0.462733	-0.444480
C176	C	1.186466	0.037267	0.055520
C177	C	0.641102	-0.495676	-0.390936
C178	C	1.141102	0.004324	0.109064
H179	H	0.703442	-0.499509	-0.478051
H180	H	1.203442	0.000491	0.021949
H181	H	0.659148	-0.426315	-0.470774
H182	H	1.159148	0.073685	0.029226
H183	H	0.727579	-0.440046	-0.420927
H184	H	1.227579	0.059954	0.079073
H185	H	0.599985	-0.518359	-0.414489
H186	H	1.099985	-0.018359	0.085511
H187	H	0.668420	-0.532108	-0.364640
H188	H	1.168420	-0.032108	0.135360
C189	C	1.214240	-0.396672	-0.726915
C190	C	1.714240	0.103328	-0.226915
C191	C	1.214964	-0.396800	-0.804484
C192	C	1.714964	0.103200	-0.304484
H193	H	1.261855	-0.409536	-0.708922
H194	H	1.761855	0.090464	-0.208922
H195	H	1.201339	-0.348709	-0.709589
H196	H	1.701339	0.151291	-0.209589
H197	H	1.179041	-0.431695	-0.709627
H198	H	1.679041	0.068305	-0.209627
H199	H	1.250159	-0.361772	-0.821772
H200	H	1.750159	0.138228	-0.321772
H201	H	1.227874	-0.444770	-0.821817
H202	H	1.727874	0.055230	-0.321817
C203	C	0.561314	-0.430329	-0.526301
C204	C	1.061314	0.069671	-0.026301
C205	C	0.500599	-0.394725	-0.494025
C206	C	1.000599	0.105275	0.005975
H207	H	0.544425	-0.465336	-0.561756
H208	H	1.044425	0.034664	-0.061756
H209	H	0.591840	-0.394695	-0.550048
H210	H	1.091840	0.105305	-0.050048
H211	H	0.588845	-0.455111	-0.488985
H212	H	1.088845	0.044889	0.011015
H213	H	0.473070	-0.369938	-0.531340
H214	H	0.973070	0.130062	-0.031340
H215	H	0.470060	-0.430364	-0.470277
H216	H	0.970060	0.069636	0.029723
C217	C	0.719818	-0.462249	-0.261331
C218	C	1.219818	0.037751	0.238669
C219	C	0.642537	-0.459250	-0.259804
C220	C	1.142537	0.040750	0.240196
H221	H	0.737681	-0.476524	-0.213948
H222	H	1.237681	0.023476	0.286052
H223	H	0.735255	-0.497416	-0.297270
H224	H	1.235255	0.002584	0.202730
H225	H	0.738930	-0.414835	-0.273800
H226	H	1.238930	0.085165	0.226200
H227	H	0.623424	-0.506665	-0.247341
H228	H	1.123424	-0.006665	0.252659
H229	H	0.627093	-0.424080	-0.223854
H230	H	1.127093	0.075920	0.276146
H231	H	0.634318	-0.242377	-0.314013
H232	H	1.134318	0.257623	0.185987
C233	C	0.960744	-0.193811	-0.829149
C234	C	1.460744	0.306189	-0.329149
C235	C	1.031534	-0.212711	-0.804273
C236	C	1.531534	0.287289	-0.304273
H237	H	0.947987	-0.146088	-0.811032
H238	H	1.447987	0.353912	-0.311032
H239	H	0.960163	-0.193335	-0.881763
H240	H	1.460163	0.306665	-0.381763
H241	H	0.926073	-0.229186	-0.811510
H242	H	1.426073	0.270814	-0.311510
H243	H	1.066207	-0.177339	-0.821916
H244	H	1.566207	0.322661	-0.321916
H245	H	1.032121	-0.213181	-0.751647
H246	H	1.532121	0.286819	-0.251647
H247	H	1.161585	-0.903660	-0.266395
H248	H	1.661585	-0.403660	0.233605
C249	C	0.873777	-0.886770	-0.370925
C250	C	1.373777	-0.386770	0.129075
C251	C	0.925548	-0.911652	-0.318955
C252	C	1.425548	-0.411652	0.181045
H253	H	0.826186	-0.904909	-0.358088
H254	H	1.326186	-0.404909	0.141912
H255	H	0.873083	-0.834156	-0.371208
H256	H	1.373083	-0.334156	0.128792
H257	H	0.886946	-0.904382	-0.418724
H258	H	1.386946	-0.404382	0.081276
H259	H	0.912382	-0.894036	-0.271156
H260	H	1.412382	-0.394036	0.228844
H261	H	0.926239	-0.964278	-0.318664
H262	H	1.426239	-0.464278	0.181336
C263	C	1.056935	-0.886501	-0.554900
C264	C	1.556935	-0.386501	-0.054900
C265	C	1.108868	-0.911394	-0.503098
C266	C	1.608868	-0.411394	-0.003098
H267	H	1.069663	-0.904544	-0.602664
H268	H	1.569663	-0.404544	-0.102664
H269	H	1.009310	-0.904194	-0.541625
H270	H	1.509310	-0.404194	-0.041625
H271	H	1.056620	-0.833879	-0.555550
H272	H	1.556620	-0.333879	-0.055550
H273	H	1.109179	-0.964017	-0.502445
H274	H	1.609179	-0.464017	-0.002445
H275	H	1.156505	-0.893705	-0.516377
H276	H	1.656505	-0.393705	-0.016377
H277	H	0.507089	-0.242045	-0.314109
H278	H	1.007089	0.257955	0.185891
H279	H	0.506119	-0.313224	-0.242940
H280	H	1.006119	0.186776	0.257060
H281	H	0.633740	-0.313527	-0.242357
H282	H	1.133740	0.186473	0.257643
H283	H	0.635002	-0.375228	-0.480979
H284	H	1.135002	0.124772	0.019021
H285	H	0.507957	-0.452647	-0.278682
H286	H	1.007957	0.047353	0.221318
