data_functionalizedCrystal
_audit_creation_method	'MofGen! by Chris Wilmer'
_symmetry_space_group_name_H-M	'P1'
_symmetry_Int_Tables_number	1
_symmetry_cell_setting	triclinic
loop_
_symmetry_equiv_pos_as_xyz
  x,y,z
_cell_length_a	16.974829
_cell_length_b	16.053934
_cell_length_c	10.654550
_cell_angle_alpha	87.401787
_cell_angle_beta	96.059508
_cell_angle_gamma	91.087964
loop_
_atom_site_label
_atom_site_type_symbol
_atom_site_fract_x
_atom_site_fract_y
_atom_site_fract_z
O1	O	1.043375	0.139921	-0.170767
O2	O	1.543375	0.639921	0.329233
O3	O	0.814017	0.124426	-0.189963
O4	O	1.314017	0.624426	0.310037
O5	O	0.933969	0.132527	0.002429
O6	O	1.433969	0.632527	0.502429
O7	O	0.923422	0.131820	-0.363160
O8	O	1.423422	0.631820	0.136840
O9	O	0.940536	-0.005886	0.012983
O10	O	1.440536	0.494114	0.512983
O11	O	0.820583	-0.013987	-0.179410
O12	O	1.320583	0.486013	0.320590
O13	O	1.049941	0.001508	-0.160214
O14	O	1.549941	0.501508	0.339786
Zn15	Zn	0.936305	-0.028215	-0.168136
Zn16	Zn	1.436305	0.471785	0.331864
Zn17	Zn	0.927653	0.154149	-0.182041
Zn18	Zn	1.427653	0.654149	0.317959
O19	O	0.929989	-0.006593	-0.352606
O20	O	1.429989	0.493407	0.147394
C21	C	0.787932	0.053235	-0.183758
C22	C	1.287932	0.553235	0.316242
C23	C	0.700423	0.047324	-0.180978
C24	C	1.200423	0.547324	0.319022
C25	C	0.208224	0.005947	-0.164753
C26	C	0.708224	0.505947	0.335247
C27	C	0.290447	0.011503	-0.167365
C28	C	0.790447	0.511503	0.332635
C29	C	0.327981	0.089732	-0.174415
C30	C	0.827981	0.589732	0.325585
C31	C	0.283285	0.162408	-0.178865
C32	C	0.783285	0.662408	0.321135
C33	C	0.201062	0.156851	-0.176262
C34	C	0.701062	0.656851	0.323738
C35	C	0.573505	0.114443	-0.182825
C36	C	1.073505	0.614443	0.317175
C37	C	0.655734	0.119995	-0.185424
C38	C	1.155734	0.619995	0.314576
C39	C	0.662891	-0.030911	-0.173927
C40	C	1.162891	0.469089	0.326073
C41	C	0.580667	-0.036461	-0.171317
C42	C	1.080667	0.463539	0.328683
C43	C	0.535978	0.036215	-0.175774
C44	C	1.035978	0.536215	0.324226
N45	N	0.412026	0.095413	-0.177081
N46	N	0.912026	0.595413	0.322919
N47	N	0.451933	0.030533	-0.173116
N48	N	0.951933	0.530533	0.326884
N49	N	0.942215	-0.152674	-0.158646
N50	N	1.442215	0.347326	0.341354
C51	C	0.891165	-0.199836	-0.240479
C52	C	1.391165	0.300164	0.259521
C53	C	0.895322	-0.286961	-0.233835
C54	C	1.395322	0.213039	0.266165
C55	C	0.950526	-0.326922	-0.145352
C56	C	1.450526	0.173078	0.354648
C57	C	1.001582	-0.279753	-0.063515
C58	C	1.501582	0.220247	0.436485
C59	C	0.997428	-0.192630	-0.070166
C60	C	1.497428	0.307370	0.429834
C61	C	0.968651	-0.587100	-0.116335
C62	C	1.468651	-0.087100	0.383665
C63	C	0.972799	-0.674229	-0.109688
C64	C	1.472799	-0.174229	0.390312
C65	C	0.866540	-0.681431	-0.280010
C66	C	1.366540	-0.181431	0.219990
C67	C	0.862388	-0.594306	-0.286648
C68	C	1.362388	-0.094306	0.213352
C69	C	0.913446	-0.547145	-0.204816
C70	C	1.413446	-0.047145	0.295184
N71	N	0.954776	-0.415977	-0.138556
N72	N	1.454776	0.084023	0.361444
N73	N	0.909200	-0.458091	-0.211619
N74	N	1.409200	0.041909	0.288381
C75	C	1.076026	0.072700	-0.166419
C76	C	1.576026	0.572700	0.333581
C77	C	1.163535	0.078618	-0.169199
C78	C	1.663535	0.578618	0.330801
C79	C	0.936478	0.063269	0.054496
C80	C	1.436478	0.563269	0.554496
C81	C	0.934161	0.063115	0.193915
C82	C	1.434161	0.563115	0.693915
N83	N	0.921749	0.278609	-0.191521
N84	N	1.421749	0.778609	0.308479
C85	C	0.927480	0.062667	-0.404673
C86	C	1.427480	0.562667	0.095327
C87	C	0.929797	0.062826	-0.544092
C88	C	1.429797	0.562826	-0.044092
C89	C	1.004787	0.067884	0.274136
C90	C	1.504787	0.567884	0.774136
C91	C	1.002605	0.067743	0.405134
C92	C	1.502605	0.567743	0.905134
C93	C	0.859165	0.058059	0.375676
C94	C	1.359165	0.558059	0.875676
C95	C	0.861347	0.058207	0.244680
C96	C	1.361347	0.558207	0.744680
C97	C	1.087602	0.073471	0.291145
C98	C	1.587602	0.573471	0.791145
C99	C	1.085420	0.073329	0.422143
C100	C	1.585420	0.573329	0.922143
H101	H	0.164676	0.216027	-0.179886
H102	H	0.664676	0.716027	0.320114
C103	C	0.539385	-0.122513	-0.163573
C104	C	1.039385	0.377487	0.336427
H105	H	0.577777	-0.164999	-0.161310
H106	H	1.077777	0.335001	0.338690
H107	H	0.513064	-0.127444	-0.089152
H108	H	1.013064	0.372556	0.410848
H109	H	0.501853	-0.128189	-0.235497
H110	H	1.001853	0.371811	0.264503
C111	C	0.830442	-0.155887	-0.337815
C112	C	1.330442	0.344113	0.162185
H113	H	0.800639	-0.196456	-0.385607
H114	H	1.300639	0.303544	0.114393
H115	H	0.795767	-0.124140	-0.295094
H116	H	1.295767	0.375860	0.204906
H117	H	0.857462	-0.119961	-0.392816
H118	H	1.357462	0.380039	0.107184
C119	C	0.712048	-0.110848	-0.169042
C120	C	1.212048	0.389152	0.330958
H121	H	0.766392	-0.096337	-0.171613
H122	H	1.266392	0.403663	0.328387
H123	H	0.705652	-0.142389	-0.093090
H124	H	1.205652	0.357611	0.406910
H125	H	0.694434	-0.143129	-0.239435
H126	H	1.194434	0.356871	0.260565
C127	C	0.697018	0.206050	-0.193193
C128	C	1.197018	0.706050	0.306807
H129	H	0.658626	0.248538	-0.195488
H130	H	1.158626	0.748538	0.304512
H131	H	0.734551	0.211734	-0.121281
H132	H	1.234551	0.711734	0.378719
H133	H	0.723336	0.210969	-0.267625
H134	H	1.223336	0.710969	0.232375
H135	H	0.313850	0.226103	-0.184612
H136	H	0.813850	0.726103	0.315388
C137	C	0.524360	0.194384	-0.187687
C138	C	1.024360	0.694384	0.312313
H139	H	0.558494	0.241768	-0.192235
H140	H	1.058494	0.741768	0.307765
H141	H	0.486523	0.194994	-0.260071
H142	H	0.986523	0.694994	0.239929
H143	H	0.497752	0.195717	-0.113725
H144	H	0.997752	0.695717	0.386275
C145	C	0.779074	0.052660	0.431516
C146	C	1.279074	0.552660	0.931516
H147	H	0.737324	0.049847	0.364973
H148	H	1.237324	0.549847	0.864973
H149	H	0.777525	0.004137	0.485694
H150	H	1.277525	0.504137	0.985694
H151	H	0.772957	0.100679	0.478315
H152	H	1.272957	0.600679	0.978315
H153	H	1.116808	0.015489	0.260350
H154	H	1.616808	0.515489	0.760350
H155	H	0.803836	0.054335	0.179366
H156	H	1.303836	0.554335	0.679366
C157	C	0.839184	-0.338834	-0.323878
C158	C	1.339184	0.161166	0.176122
H159	H	0.805710	-0.302557	-0.377526
H160	H	1.305710	0.197443	0.122474
H161	H	0.869454	-0.370866	-0.373681
H162	H	1.369454	0.129134	0.126319
H163	H	0.807744	-0.375074	-0.275981
H164	H	1.307744	0.124926	0.224019
C165	C	1.033524	-0.718185	-0.012348
C166	C	1.533524	-0.218185	0.487652
H167	H	1.063342	-0.677620	0.035431
H168	H	1.563342	-0.177620	0.535431
H169	H	1.006506	-0.754109	0.042648
H170	H	1.506506	-0.254109	0.542648
H171	H	1.068196	-0.749935	-0.055082
H172	H	1.568196	-0.249935	0.444918
C173	C	1.115800	0.156181	0.478104
C174	C	1.615800	0.656181	0.978104
H175	H	1.130788	0.193196	0.412366
H176	H	1.630788	0.693196	0.912366
H177	H	1.075104	0.180573	0.518340
H178	H	1.575104	0.680573	1.018340
H179	H	1.160383	0.145835	0.538149
H180	H	1.660383	0.645835	1.038149
H181	H	0.817436	-0.561772	-0.358699
H182	H	1.317436	-0.061772	0.141301
C183	C	0.810388	-0.733309	-0.370028
C184	C	1.310388	-0.233309	0.129972
H185	H	0.820771	-0.790919	-0.353406
H186	H	1.320771	-0.290919	0.146594
H187	H	0.757034	-0.722603	-0.357253
H188	H	1.257034	-0.222603	0.142747
H189	H	0.818731	-0.718416	-0.454974
H190	H	1.318731	-0.218416	0.045026
C191	C	1.127645	0.154668	0.245959
C192	C	1.627645	0.654668	0.745959
H193	H	1.129132	0.154759	0.157067
H194	H	1.629132	0.654759	0.657067
H195	H	1.098383	0.201124	0.266456
H196	H	1.598383	0.701124	0.766456
H197	H	1.180135	0.158205	0.286465
H198	H	1.680135	0.658205	0.786465
H199	H	1.010223	-0.548708	-0.049702
H200	H	1.510223	-0.048708	0.450298
H201	H	1.046535	-0.312294	0.008526
H202	H	1.546535	0.187706	0.508526
C203	C	1.131278	-0.002070	0.484977
C204	C	1.631278	0.497930	0.984977
H205	H	1.129803	-0.002157	0.573871
H206	H	1.629803	0.497843	1.073871
H207	H	1.107576	-0.052101	0.453608
H208	H	1.607576	0.447899	0.953608
H209	H	1.184754	0.001544	0.466232
H210	H	1.684754	0.501544	0.966232
C211	C	0.166944	-0.080106	-0.157002
C212	C	0.666944	0.419894	0.342998
H213	H	0.205338	-0.122589	-0.154741
H214	H	0.705338	0.377411	0.345259
H215	H	0.140624	-0.085040	-0.082582
H216	H	0.640624	0.414960	0.417418
H217	H	0.129413	-0.085782	-0.228927
H218	H	0.629413	0.414218	0.271073
C219	C	0.339607	-0.068433	-0.162469
C220	C	0.839607	0.431567	0.337531
H221	H	0.393950	-0.053922	-0.165043
H222	H	0.893950	0.446078	0.334957
H223	H	0.333211	-0.099968	-0.086511
H224	H	0.833211	0.400032	0.413489
H225	H	0.321993	-0.100721	-0.232855
H226	H	0.821993	0.399279	0.267145
C227	C	1.053581	-0.140752	0.019854
C228	C	1.553581	0.359248	0.519854
H229	H	1.087048	-0.177028	0.073513
H230	H	1.587048	0.322972	0.573513
H231	H	1.085012	-0.104524	-0.028062
H232	H	1.585012	0.395476	0.471938
H233	H	1.023321	-0.108708	0.069668
H234	H	1.523321	0.391292	0.569668
