data_functionalizedCrystal
_audit_creation_method	'MofGen! by Chris Wilmer'
_symmetry_space_group_name_H-M	'P1'
_symmetry_Int_Tables_number	1
_symmetry_cell_setting	triclinic
loop_
_symmetry_equiv_pos_as_xyz
  x,y,z
_cell_length_a	19.288864
_cell_length_b	11.026607
_cell_length_c	18.366186
_cell_angle_alpha	89.996969
_cell_angle_beta	89.977106
_cell_angle_gamma	95.861131
loop_
_atom_site_label
_atom_site_type_symbol
_atom_site_fract_x
_atom_site_fract_y
_atom_site_fract_z
O1	O	0.940539	0.151279	-0.060786
O2	O	0.740867	0.171686	-0.060737
O3	O	0.824154	-0.015080	-0.060755
O4	O	0.857252	0.338045	-0.060768
O5	O	0.824135	-0.015089	0.060345
O6	O	0.740847	0.171677	0.060363
O7	O	0.940520	0.151270	0.060313
Zn8	Zn	0.840681	0.161472	0.079565
Zn9	Zn	0.840706	0.161484	-0.079988
O10	O	0.857232	0.338036	0.060331
C11	C	0.714897	0.171025	-0.000181
C12	C	0.637544	0.169054	-0.000161
C13	C	0.606746	0.278640	-0.000177
C14	C	0.534064	0.276788	-0.000185
C15	C	0.492182	0.165344	-0.000192
C16	C	0.522988	0.055744	-0.000172
C17	C	0.595669	0.057599	-0.000157
C18	C	0.372816	0.077740	-0.042640
C19	C	0.300137	0.075890	-0.042659
C20	C	0.268011	0.159618	-0.000236
C21	C	0.308573	0.245218	0.042198
C22	C	0.381254	0.247073	0.042213
C23	C	0.413372	0.163320	-0.000208
C24	C	0.158403	0.267204	-0.000259
C25	C	0.085720	0.265347	-0.000263
C26	C	0.074645	0.044300	-0.000257
C27	C	0.147327	0.046159	-0.000246
C28	C	0.189202	0.157615	-0.000251
C29	C	0.818039	-0.060262	-0.000204
C30	C	0.799837	-0.194876	-0.000202
C31	C	0.850095	-0.268957	-0.000216
C32	C	0.831284	-0.408088	-0.000214
C33	C	0.966489	0.151931	-0.000244
C34	C	1.043843	0.153902	-0.000268
C35	C	0.863348	0.383218	-0.000221
C36	C	0.881550	0.517833	-0.000227
N37	N	0.840668	0.161463	0.188456
N38	N	0.840723	0.161484	-0.188880
C39	C	0.877569	0.078804	0.226549
C40	C	0.877572	0.078798	0.302777
C41	C	0.840685	0.161473	0.340909
C42	C	0.803777	0.244139	0.302807
C43	C	0.803768	0.244134	0.226581
C44	C	0.845400	0.271967	0.461667
C45	C	0.845414	0.271974	0.537891
C46	C	0.840707	0.161488	0.576017
C47	C	0.836000	0.050992	0.537907
C48	C	0.835992	0.050987	0.461681
C49	C	0.840689	0.161487	0.423564
C50	C	0.877613	0.078816	0.696764
C51	C	0.877611	0.078809	0.772993
C52	C	0.803820	0.244161	0.773023
C53	C	0.803817	0.244157	0.696795
C54	C	0.840717	0.161486	0.658670
H55	H	0.282418	0.313397	0.076744
H56	H	0.508984	0.366029	-0.000196
H57	H	0.832158	-0.038983	0.430655
O58	O	0.055914	0.371917	-0.000308
C59	C	0.074572	0.591358	-0.000280
C60	C	0.108418	0.470757	-0.000246
H61	H	0.117005	0.671301	-0.000215
H62	H	0.040870	0.596097	-0.050977
H63	H	0.040773	0.595951	0.050383
H64	H	0.142250	0.466084	-0.050875
H65	H	0.142078	0.466069	0.050484
H66	H	0.907050	-0.229377	-0.000225
O67	O	0.647320	0.387010	-0.000141
C68	C	0.650630	0.606059	-0.000193
C69	C	0.604597	0.483417	-0.000219
H70	H	0.616108	0.684035	-0.000272
H71	H	0.684888	0.612534	0.050507
H72	H	0.684981	0.612393	-0.050853
H73	H	0.570204	0.477000	0.050406
H74	H	0.570386	0.476994	-0.050953
H75	H	0.849250	0.361946	0.568914
O76	O	0.949466	-0.434767	-0.000213
C77	C	1.030139	-0.252878	-0.000279
C78	C	0.953198	-0.306395	-0.000277
H79	H	1.033181	-0.149082	-0.000346
H80	H	1.057109	-0.284898	0.050406
H81	H	1.057092	-0.285048	-0.050954
H82	H	0.926186	-0.274249	0.050364
H83	H	0.926280	-0.274381	-0.050995
H84	H	0.742883	-0.234456	-0.000193
O85	O	0.177214	-0.060327	-0.000369
C86	C	0.189986	-0.248710	-0.063077
C87	C	0.156108	-0.128141	-0.063040
H88	H	0.172922	-0.303584	-0.113733
H89	H	0.249131	-0.228317	-0.063112
H90	H	0.172946	-0.303530	-0.012376
H91	H	0.173092	-0.073262	-0.113733
H92	H	0.096968	-0.148621	-0.062967
O93	O	0.913476	-0.001552	0.339677
C94	C	0.986628	-0.165609	0.331609
C95	C	0.946014	-0.074656	0.289732
H96	H	1.012934	-0.224754	0.291247
H97	H	1.027893	-0.113467	0.367255
H98	H	0.949079	-0.225998	0.367337
H99	H	0.983509	-0.014244	0.253965
H100	H	0.904740	-0.126874	0.254133
H101	H	0.620743	-0.031642	-0.000145
H102	H	0.773741	0.311453	0.333859
O103	O	0.260839	-0.007374	-0.083894
C104	C	0.260145	-0.175098	-0.168080
C105	C	0.304729	-0.080883	-0.121403
H106	H	0.295612	-0.234539	-0.198431
H107	H	0.223167	-0.234809	-0.131402
H108	H	0.228646	-0.125630	-0.209004
H109	H	0.336271	-0.130251	-0.080474
H110	H	0.341664	-0.021178	-0.158127
H111	H	0.907613	0.011485	0.195510
H112	H	0.773783	0.311471	0.804069
H113	H	0.774326	-0.447663	-0.000205
O114	O	0.767893	0.324300	0.659753
C115	C	0.676345	0.350546	0.573698
C116	C	0.716964	0.259647	0.615615
H117	H	0.635170	0.298310	0.537991
H118	H	0.649928	0.409626	0.614008
H119	H	0.713907	0.411008	0.538023
H120	H	0.679449	0.199105	0.651292
H121	H	0.743391	0.200653	0.575266
O122	O	0.482337	-0.052544	-0.000053
C123	C	0.450623	-0.242073	0.062661
C124	C	0.496688	-0.119465	0.062622
H125	H	0.462220	-0.296224	0.113321
H126	H	0.393373	-0.224649	0.062691
H127	H	0.462209	-0.296154	0.011963
H128	H	0.485163	-0.065322	0.113311
H129	H	0.553924	-0.136975	0.062554
H130	H	0.832167	-0.038976	0.568947
H131	H	0.192500	0.357957	-0.000252
H132	H	0.907656	0.011497	0.665722
H133	H	0.907657	0.011491	0.804009
O134	O	0.850018	0.379412	0.424749
C135	C	0.859340	0.598595	0.432778
C136	C	0.854128	0.477010	0.474676
H137	H	0.862650	0.677534	0.473126
H138	H	0.907964	0.606536	0.397089
H139	H	0.811210	0.601715	0.397091
H140	H	0.902221	0.473806	0.510403
H141	H	0.805474	0.469119	0.510319
O142	O	0.767914	0.324556	0.189687
C143	C	0.694689	0.488509	0.197760
C144	C	0.735277	0.397513	0.239635
H145	H	0.668280	0.547501	0.238125
H146	H	0.732205	0.549042	0.162073
H147	H	0.653494	0.436279	0.162074
H148	H	0.776473	0.449643	0.275360
H149	H	0.697718	0.336981	0.275276
O150	O	0.420551	0.330255	0.083502
C151	C	0.421260	0.498047	0.167642
C152	C	0.376673	0.403895	0.120926
H153	H	0.385804	0.557627	0.197900
H154	H	0.452725	0.448650	0.208634
H155	H	0.458271	0.557625	0.130929
H156	H	0.339623	0.344291	0.157581
H157	H	0.345256	0.453370	0.079928
H158	H	0.040545	-0.046440	-0.000308
O159	O	0.404107	-0.003431	-0.083898
C160	C	0.484653	-0.032070	-0.181220
C161	C	0.449278	0.059982	-0.134541
H162	H	0.521171	0.019162	-0.222186
H163	H	0.515763	-0.089951	-0.144544
H164	H	0.443169	-0.093584	-0.211522
H165	H	0.490716	0.121575	-0.104232
H166	H	0.418153	0.117777	-0.171255
