data_functionalizedCrystal
_audit_creation_method	'MofGen! by Chris Wilmer'
_symmetry_space_group_name_H-M	'P1'
_symmetry_Int_Tables_number	1
_symmetry_cell_setting	triclinic
loop_
_symmetry_equiv_pos_as_xyz
  x,y,z
_cell_length_a	19.121102
_cell_length_b	25.639240
_cell_length_c	19.120904
_cell_angle_alpha	87.596818
_cell_angle_beta	89.911827
_cell_angle_gamma	87.586654
loop_
_atom_site_label
_atom_site_type_symbol
_atom_site_fract_x
_atom_site_fract_y
_atom_site_fract_z
Zn1	Zn	1.054802	-0.255751	0.442001
Zn2	Zn	1.554802	0.244249	0.942001
Zn3	Zn	1.059707	-0.339618	0.324744
Zn4	Zn	1.559707	0.160382	0.824744
Zn5	Zn	0.942572	-0.248315	0.319786
Zn6	Zn	1.442572	0.251685	0.819786
Zn7	Zn	0.937519	-0.339266	0.436946
Zn8	Zn	1.437519	0.160734	0.936946
O9	O	0.998650	-0.295737	0.380869
O10	O	1.498650	0.204263	0.880869
O11	O	1.153558	-0.270136	0.430636
O12	O	1.653558	0.229864	0.930636
O13	O	1.048337	-0.324541	0.225982
O14	O	1.548337	0.175459	0.725982
O15	O	0.957522	-0.176139	0.336039
O16	O	1.457522	0.323861	0.836039
O17	O	1.157162	-0.331752	0.344488
O18	O	1.657162	0.168248	0.844488
O19	O	1.039977	-0.181603	0.425829
O20	O	1.539977	0.318397	0.925829
O21	O	0.962278	-0.257461	0.222340
O22	O	1.462278	0.242539	0.722340
O23	O	0.843797	-0.257120	0.331138
O24	O	1.343797	0.242880	0.831138
O25	O	0.948909	-0.331153	0.535721
O26	O	1.448909	0.168847	1.035721
O27	O	0.840084	-0.323942	0.417215
O28	O	1.340084	0.176058	0.917215
O29	O	1.035076	-0.269795	0.539434
O30	O	1.535076	0.230205	1.039434
O31	O	1.043437	-0.412733	0.339587
O32	O	1.543437	0.087267	0.839587
O33	O	0.953665	-0.412475	0.422022
O34	O	1.453665	0.087525	0.922022
C35	C	0.816503	-0.289687	0.373090
C36	C	1.316503	0.210313	0.873090
C37	C	0.738579	-0.287111	0.369779
C38	C	1.238579	0.212889	0.869779
C39	C	0.700059	-0.320740	0.412969
C40	C	1.200059	0.179260	0.912969
C41	C	0.626841	-0.318313	0.409861
C42	C	1.126841	0.181687	0.909861
C43	C	0.592145	-0.282260	0.363559
C44	C	1.092145	0.217740	0.863559
C45	C	0.630670	-0.248627	0.320368
C46	C	1.130670	0.251373	0.820368
C47	C	0.703887	-0.251052	0.323480
C48	C	1.203887	0.248948	0.823480
C49	C	0.371174	-0.273193	0.351928
C50	C	0.871174	0.226807	0.851928
C51	C	0.297952	-0.270772	0.348818
C52	C	0.797952	0.229228	0.848818
C53	C	0.294127	-0.340458	0.438312
C54	C	0.794127	0.159542	0.938312
C55	C	0.367346	-0.342881	0.441417
C56	C	0.867346	0.157119	0.941417
C57	C	0.405865	-0.309247	0.398228
C58	C	0.905865	0.190753	0.898228
C59	C	0.517304	-0.279779	0.360380
C60	C	1.017304	0.220221	0.860380
C61	C	0.480704	-0.311725	0.401411
C62	C	0.980704	0.188275	0.901411
C63	C	0.998553	-0.431575	0.380810
C64	C	1.498553	0.068425	0.880810
C65	C	0.998575	-0.489690	0.380811
C66	C	1.498575	0.010310	0.880811
C67	C	1.041603	-0.852867	0.427705
C68	C	1.541603	-0.352867	0.927705
C69	C	1.041623	-0.907472	0.427720
C70	C	1.541623	-0.407472	0.927720
O71	O	1.078092	-0.938096	0.467529
O72	O	1.578092	-0.438096	0.967529
N73	N	0.998745	-0.931982	0.380941
N74	N	1.498745	-0.431982	0.880941
C75	C	0.955838	-0.901883	0.334149
C76	C	1.455838	-0.401883	0.834149
O77	O	0.919367	-0.927744	0.294362
O78	O	1.419367	-0.427744	0.794362
C79	C	0.955815	-0.847279	0.334138
C80	C	1.455815	-0.347279	0.834138
C81	C	0.998701	-0.822772	0.380915
C82	C	1.498701	-0.322772	0.880915
C83	C	1.084486	-0.828360	0.474479
C84	C	1.584486	-0.328360	0.974479
C85	C	1.084467	-0.773758	0.474463
C86	C	1.584467	-0.273758	0.974463
C87	C	1.041565	-0.743663	0.427673
C88	C	1.541565	-0.243663	0.927673
C89	C	0.998682	-0.768170	0.380899
C90	C	1.498682	-0.268170	0.880899
C91	C	0.912905	-0.817181	0.287349
C92	C	1.412905	-0.317181	0.787349
C93	C	0.912885	-0.762573	0.287343
C94	C	1.412885	-0.262573	0.787343
C95	C	0.955771	-0.738066	0.334120
C96	C	1.455771	-0.238066	0.834120
C97	C	0.955761	-0.683474	0.334092
C98	C	1.455761	-0.183474	0.834092
N99	N	0.998639	-0.658964	0.380871
N100	N	1.498639	-0.158964	0.880871
C101	C	1.041541	-0.689059	0.427661
C102	C	1.541541	-0.189059	0.927661
C103	C	0.955889	-1.016556	0.334177
C104	C	1.455889	-0.516556	0.834177
C105	C	0.955915	-1.071160	0.334184
C106	C	1.455915	-0.571160	0.834184
C107	C	1.041700	-1.076745	0.427756
C108	C	1.541700	-0.576745	0.927756
C109	C	1.041677	-1.022140	0.427745
C110	C	1.541677	-0.522140	0.927745
C111	C	0.998768	-0.992046	0.380956
C112	C	1.498768	-0.492046	0.880956
C113	C	1.041498	-0.574391	0.427623
C114	C	1.541498	-0.074391	0.927623
C115	C	1.041477	-0.519785	0.427601
C116	C	1.541477	-0.019785	0.927601
C117	C	0.955690	-0.514204	0.334032
C118	C	1.455690	-0.014204	0.834032
C119	C	0.955713	-0.568806	0.334051
C120	C	1.455713	-0.068806	0.834051
C121	C	0.998620	-0.598899	0.380853
C122	C	1.498620	-0.098899	0.880853
O123	O	0.919309	-0.652817	0.294305
O124	O	1.419309	-0.152817	0.794305
O125	O	1.077999	-0.663190	0.467448
O126	O	1.577999	-0.163190	0.967448
C127	C	1.181508	-0.301812	0.388679
C128	C	1.681508	0.198188	0.888679
C129	C	1.259432	-0.304401	0.392007
C130	C	1.759432	0.195599	0.892007
C131	C	0.990882	-0.301264	0.563726
C132	C	1.490882	0.198736	1.063726
C133	C	0.987571	-0.303619	0.641649
C134	C	1.487571	0.196381	1.141649
C135	C	0.998766	-0.159371	0.380945
C136	C	1.498766	0.340629	0.880945
C137	C	0.998815	-0.101259	0.380977
C138	C	1.498815	0.398741	0.880977
C139	C	1.006429	-0.290196	0.198725
C140	C	1.506429	0.209804	0.698725
C141	C	1.009875	-0.287698	0.120809
C142	C	1.509875	0.212302	0.620809
C143	C	1.030877	-0.272781	0.680192
C144	C	1.530877	0.227219	1.180192
C145	C	1.027758	-0.274992	0.753408
C146	C	1.527758	0.225008	1.253408
C147	C	0.981337	-0.308044	0.788080
C148	C	1.481337	0.191956	1.288080
C149	C	0.938027	-0.338883	0.749532
C150	C	1.438027	0.161117	1.249532
C151	C	0.941143	-0.336669	0.676317
C152	C	1.441143	0.163331	1.176317
C153	C	0.969681	-0.316323	1.009046
C154	C	1.469681	0.183677	1.509046
C155	C	0.966570	-0.318536	1.082266
C156	C	1.466570	0.181464	1.582266
C157	C	1.056300	-0.254644	1.086137
C158	C	1.556300	0.245356	1.586137
C159	C	1.059415	-0.252436	1.012920
C160	C	1.559415	0.247564	1.512920
C161	C	1.016102	-0.283273	0.974378
C162	C	1.516102	0.216727	1.474378
C163	C	0.978149	-0.310305	0.862919
C164	C	1.478149	0.189695	1.362919
C165	C	1.019287	-0.281008	0.899541
C166	C	1.519287	0.218992	1.399541
H167	H	0.602415	-0.219270	0.282671
H168	H	1.102415	0.280730	0.782671
H169	H	1.076403	-0.499833	0.465693
H170	H	1.576403	0.000167	0.965693
H171	H	0.900227	-0.365792	0.777768
H172	H	1.400227	0.134208	1.277768
H173	H	0.735249	-0.223665	0.288314
H174	H	1.235249	0.276335	0.788314
H175	H	0.402528	-0.245810	0.316755
H176	H	0.902528	0.254190	0.816755
H177	H	1.076431	-0.598887	0.465738
H178	H	1.576431	-0.098887	0.965738
H179	H	1.119386	-0.753808	0.512554
H180	H	1.619386	-0.253808	1.012554
H181	H	1.091562	-0.229538	1.117525
H182	H	1.591562	0.270462	1.617525
H183	H	0.921001	-1.091108	0.296086
H184	H	1.421001	-0.591108	0.796086
H185	H	1.119421	-0.852858	0.512585
H186	H	1.619421	-0.352858	1.012585
H187	H	1.076598	-1.002191	0.465835
H188	H	1.576598	-0.502191	0.965835
H189	H	0.920949	-0.992056	0.296070
H190	H	1.420949	-0.492056	0.796070
H191	H	0.920797	-0.588760	0.295956
H192	H	1.420797	-0.088760	0.795956
H193	H	1.076632	-1.101258	0.465857
H194	H	1.576632	-0.601258	0.965857
H195	H	0.928766	-0.345452	1.110494
H196	H	1.428766	0.154548	1.610494
H197	H	1.063023	-0.249882	0.784786
H198	H	1.563023	0.250118	1.284786
H199	H	0.262757	-0.367840	0.473474
H200	H	0.762757	0.132160	0.973474
H201	H	0.920762	-0.489692	0.295934
H202	H	1.420762	0.010308	0.795934
H203	H	0.508956	-0.341078	0.439113
H204	H	1.008956	0.158922	0.939113
H205	H	0.934423	-0.341441	0.977674
H206	H	1.434423	0.158559	1.477674
H207	H	0.940356	-0.337219	0.891158
H208	H	1.440356	0.162781	1.391158
H209	H	0.489047	-0.250426	0.322679
H210	H	0.989047	0.249574	0.822679
H211	H	0.595480	-0.345698	0.445030
H212	H	1.095480	0.154302	0.945030
H213	H	0.728303	-0.350100	0.450670
H214	H	1.228303	0.149900	0.950670
H215	H	0.905872	-0.361775	0.644936
H216	H	1.405872	0.138225	1.144936
H217	H	1.068680	-0.245869	0.651967
H218	H	1.568680	0.254131	1.151967
H219	H	0.877982	-0.837124	0.249258
H220	H	1.377982	-0.337124	0.749258
H221	H	0.269705	-0.241408	0.311118
H222	H	0.769705	0.258592	0.811118
H223	H	1.097218	-0.225523	0.984695
H224	H	1.597218	0.274477	1.484695
H225	H	1.057080	-0.254095	0.871307
H226	H	1.557080	0.245905	1.371307
H227	H	0.395590	-0.372241	0.479119
H228	H	0.895590	0.127759	0.979119
H229	H	0.877940	-0.738073	0.249242
H230	H	1.377940	-0.238073	0.749242
