data_functionalizedCrystal
_audit_creation_method	'MofGen! by Chris Wilmer'
_symmetry_space_group_name_H-M	'P1'
_symmetry_Int_Tables_number	1
_symmetry_cell_setting	triclinic
loop_
_symmetry_equiv_pos_as_xyz
  x,y,z
_cell_length_a	16.992694
_cell_length_b	17.699083
_cell_length_c	16.176319
_cell_angle_alpha	89.999648
_cell_angle_beta	89.998387
_cell_angle_gamma	86.975618
loop_
_atom_site_label
_atom_site_type_symbol
_atom_site_fract_x
_atom_site_fract_y
_atom_site_fract_z
O1	O	1.040089	0.160469	-0.068623
O2	O	1.540089	0.660469	0.431377
O3	O	0.811807	0.158709	-0.068648
O4	O	1.311807	0.658709	0.431352
O5	O	0.932397	0.049802	-0.068643
O6	O	1.432397	0.549802	0.431357
O7	O	0.919498	0.269377	-0.068628
O8	O	1.419498	0.769377	0.431372
O9	O	0.932381	0.049793	0.068850
O10	O	1.432381	0.549793	0.568850
O11	O	0.811790	0.158701	0.068845
O12	O	1.311790	0.658701	0.568845
O13	O	1.040072	0.160461	0.068870
O14	O	1.540072	0.660461	0.568870
Cu15	Cu	0.925930	0.159580	0.081412
Cu16	Cu	1.425930	0.659580	0.581412
Cu17	Cu	0.925949	0.159590	-0.081190
Cu18	Cu	1.425949	0.659590	0.418810
O19	O	0.919482	0.269368	0.068865
O20	O	1.419482	0.769368	0.568865
C21	C	0.782590	0.156440	0.000095
C22	C	1.282590	0.656440	0.500095
C23	C	0.695559	0.149683	0.000085
C24	C	1.195559	0.649683	0.500085
C25	C	0.931927	0.021572	0.000100
C26	C	1.431927	0.521572	0.500100
C27	C	0.930540	-0.062533	0.000088
C28	C	1.430540	0.437467	0.500088
N29	N	0.925922	0.159573	0.195777
N30	N	1.425922	0.659573	0.695777
C31	C	0.645194	0.214881	0.000090
C32	C	1.145194	0.714881	0.500090
C33	C	0.563420	0.208527	0.000101
C34	C	1.063420	0.708527	0.500101
C35	C	0.532012	0.136975	0.000101
C36	C	1.032012	0.636975	0.500101
C37	C	0.582383	0.071772	0.000099
C38	C	1.082383	0.571772	0.500099
C39	C	0.664156	0.078127	0.000094
C40	C	1.164156	0.578127	0.500094
C41	C	0.288464	0.110639	0.000122
C42	C	0.788464	0.610639	0.500122
C43	C	0.206685	0.104290	0.000124
C44	C	0.706685	0.604290	0.500124
C45	C	0.187727	0.241045	0.000128
C46	C	0.687727	0.741045	0.500128
C47	C	0.269503	0.247393	0.000118
C48	C	0.769503	0.747393	0.500118
C49	C	0.319867	0.182190	0.000120
C50	C	0.819867	0.682190	0.500120
N51	N	0.448425	0.130479	0.000110
N52	N	0.948425	0.630479	0.500110
N53	N	0.403451	0.188687	0.000117
N54	N	0.903451	0.688687	0.500117
C55	C	1.069289	0.162730	0.000125
C56	C	1.569289	0.662730	0.500125
C57	C	1.156320	0.169487	0.000129
C58	C	1.656320	0.669487	0.500129
C59	C	0.919952	0.297598	0.000120
C60	C	1.419952	0.797598	0.500120
C61	C	0.921339	0.381703	0.000127
C62	C	1.421339	0.881703	0.500127
C63	C	0.850555	0.425917	0.000119
C64	C	1.350555	0.925917	0.500119
C65	C	0.851862	0.504942	0.000109
C66	C	1.351862	1.004942	0.500109
C67	C	0.923955	0.539751	0.000113
C68	C	1.423955	1.039751	0.500113
C69	C	0.994744	0.495531	0.000118
C70	C	1.494744	0.995531	0.500118
C71	C	0.993436	0.416508	0.000122
C72	C	1.493436	0.916508	0.500122
C73	C	1.000022	0.814223	0.000103
C74	C	1.500022	1.314223	0.500103
C75	C	1.001325	0.893252	0.000101
C76	C	1.501325	1.393252	0.500101
C77	C	0.858449	0.902656	0.000090
C78	C	1.358449	1.402656	0.500090
C79	C	0.857140	0.823633	0.000094
C80	C	1.357140	1.323633	0.500094
C81	C	0.927929	0.779420	0.000094
C82	C	1.427929	1.279420	0.500094
C83	C	0.926511	0.693733	0.000103
C84	C	1.426511	1.193733	0.500103
C85	C	0.925374	0.625437	0.000110
C86	C	1.425374	1.125437	0.500110
N87	N	0.925963	0.159592	-0.195555
N88	N	1.425963	0.659592	0.304445
C89	C	0.979335	0.111371	0.239043
C90	C	1.479335	0.611371	0.739043
C91	C	0.979339	0.111370	0.325590
C92	C	1.479339	0.611370	0.825590
C93	C	0.925933	0.159576	0.368870
C94	C	1.425933	0.659576	0.868870
C95	C	0.872513	0.207781	0.325597
C96	C	1.372513	0.707781	0.825597
C97	C	0.872506	0.207777	0.239052
C98	C	1.372506	0.707777	0.739052
C99	C	0.872540	0.207796	0.674625
C100	C	1.372540	0.707796	1.174625
C101	C	0.872553	0.207798	0.761177
C102	C	1.372553	0.707798	1.261177
C103	C	0.979373	0.111390	0.761164
C104	C	1.479373	0.611390	1.261164
C105	C	0.979366	0.111386	0.674619
C106	C	1.479366	0.611386	1.174619
C107	C	0.925944	0.159587	0.631354
C108	C	1.425944	0.659587	1.131354
C109	C	0.925940	0.159586	0.537510
C110	C	1.425940	0.659586	1.037510
C111	C	0.925940	0.159582	0.462712
C112	C	1.425940	0.659582	0.962712
H113	H	0.670760	0.273146	0.000090
H114	H	1.170760	0.773146	0.500090
H115	H	0.522415	0.261618	0.000104
H116	H	1.022415	0.761618	0.500104
H117	H	0.791849	0.397581	0.000125
H118	H	1.291849	0.897581	0.500125
H119	H	1.022828	0.072119	0.203811
H120	H	1.522828	0.572119	0.703811
H121	H	0.829060	0.247055	0.796413
H122	H	1.329060	0.747055	1.296413
H123	H	0.556804	0.013513	0.000111
H124	H	1.056804	0.513513	0.500111
F125	F	0.776524	0.551994	0.000095
F126	F	1.276524	1.051994	0.500095
H127	H	0.798435	0.795296	0.000095
H128	H	1.298435	1.295296	0.500095
H129	H	1.022857	0.072135	0.639383
H130	H	1.522857	0.572135	1.139383
H131	H	0.800809	0.938664	0.000086
H132	H	1.300809	1.438664	0.500086
F133	F	0.302923	0.323548	0.000114
F134	F	0.802923	0.823548	0.500114
F135	F	0.134121	0.310433	0.000128
F136	F	0.634121	0.810433	0.500128
F137	F	0.173260	0.028131	0.000139
F138	F	0.673260	0.528131	0.500139
F139	F	0.342055	0.041244	0.000123
F140	F	0.842055	0.541244	0.500123
H141	H	0.705162	0.025036	0.000089
H142	H	1.205162	0.525036	0.500089
F143	F	1.078060	0.930296	0.000104
F144	F	1.578060	1.430296	0.500104
H145	H	1.057663	0.778234	0.000108
H146	H	1.557663	1.278234	0.500108
H147	H	1.022870	0.072139	0.796400
H148	H	1.522870	0.572139	1.296400
F149	F	1.071471	0.532580	0.000116
F150	F	1.571471	1.032580	0.500116
H151	H	1.051076	0.380509	0.000125
H152	H	1.551076	0.880509	0.500125
H153	H	1.022832	0.072120	0.360817
H154	H	1.522832	0.572120	0.860817
F155	F	0.815688	0.259097	0.628586
F156	F	1.315688	0.759097	1.128586
F157	F	0.815670	0.259082	0.371659
F158	F	1.315670	0.759082	0.871659
F159	F	0.815654	0.259078	0.193006
F160	F	1.315654	0.759078	0.693006
