data_functionalizedCrystal
_audit_creation_method	'MofGen! by Chris Wilmer'
_symmetry_space_group_name_H-M	'P1'
_symmetry_Int_Tables_number	1
_symmetry_cell_setting	triclinic
loop_
_symmetry_equiv_pos_as_xyz
  x,y,z
_cell_length_a	12.759401
_cell_length_b	18.050589
_cell_length_c	12.759393
_cell_angle_alpha	90.029266
_cell_angle_beta	90.018202
_cell_angle_gamma	90.028382
loop_
_atom_site_label
_atom_site_type_symbol
_atom_site_fract_x
_atom_site_fract_y
_atom_site_fract_z
Zn1	Zn	1.606154	-0.295622	0.593988
Zn2	Zn	2.106154	0.204378	1.093988
Zn3	Zn	1.606007	-0.419830	0.418311
Zn4	Zn	2.106007	0.080170	0.918311
Zn5	Zn	1.430456	-0.295658	0.418328
Zn6	Zn	1.930456	0.204342	0.918328
Zn7	Zn	1.430403	-0.419775	0.593953
Zn8	Zn	1.930403	0.080225	1.093953
O9	O	1.518255	-0.357721	0.506145
O10	O	2.018255	0.142279	1.006145
O11	O	1.753155	-0.312106	0.570692
O12	O	2.253155	0.187894	1.070692
O13	O	1.582681	-0.403396	0.271292
O14	O	2.082681	0.096604	0.771292
O15	O	1.453847	-0.191729	0.441651
O16	O	1.953847	0.308271	0.941651
O17	O	1.753048	-0.403361	0.441623
O18	O	2.253048	0.096639	0.941623
O19	O	1.582931	-0.191703	0.570708
O20	O	2.082931	0.308297	1.070708
O21	O	1.453705	-0.312168	0.271304
O22	O	1.953705	0.187832	0.771304
O23	O	1.283428	-0.312115	0.441617
O24	O	1.783428	0.187885	0.941617
O25	O	1.453755	-0.403269	0.740979
O26	O	1.953755	0.096731	1.240979
O27	O	1.283389	-0.403303	0.570648
O28	O	1.783389	0.096697	1.070648
O29	O	1.582879	-0.312054	0.741005
O30	O	2.082879	0.187946	1.241005
O31	O	1.582629	-0.523747	0.441589
O32	O	2.082629	-0.023747	0.941589
O33	O	1.453613	-0.523707	0.570632
O34	O	1.953613	-0.023707	1.070632
C35	C	1.245288	-0.357708	0.506131
C36	C	1.745288	0.142292	1.006131
C37	C	1.128511	-0.357720	0.506149
C38	C	1.628511	0.142280	1.006149
C39	C	1.073656	-0.405278	0.573225
C40	C	1.573656	0.094722	1.073225
C41	C	0.963932	-0.405287	0.573236
C42	C	1.463932	0.094713	1.073236
C43	C	0.963928	-0.310179	0.439088
C44	C	1.463928	0.189821	0.939088
C45	C	1.073650	-0.310166	0.439083
C46	C	1.573650	0.189834	0.939083
C47	C	1.128517	-0.452831	0.640292
C48	C	1.628517	0.047169	1.140292
C49	C	1.073662	-0.500393	0.707372
C50	C	1.573662	-0.000393	1.207372
C51	C	0.963938	-0.500403	0.707383
C52	C	1.463938	-0.000403	1.207383
C53	C	0.909069	-0.452850	0.640314
C54	C	1.409069	0.047150	1.140314
C55	C	1.518128	-0.550674	0.506127
C56	C	2.018128	-0.050674	1.006127
C57	C	1.518170	-0.633219	0.506155
C58	C	2.018170	-0.133219	1.006155
C59	C	1.448080	-0.832675	0.576304
C60	C	1.948080	-0.332675	1.076304
C61	C	1.422466	-0.882122	0.480436
C62	C	1.922466	-0.382122	0.980436
C63	C	1.518273	-0.784350	0.506169
C64	C	2.018273	-0.284350	1.006169
C65	C	1.543939	-0.881984	0.602048
C66	C	2.043939	-0.381984	1.102048
C67	C	1.518371	-0.930335	0.506191
C68	C	2.018371	-0.430335	1.006191
C69	C	1.492609	-0.832710	0.410250
C70	C	1.992609	-0.332710	0.910250
C71	C	1.614126	-0.832567	0.531927
C72	C	2.114126	-0.332567	1.031927
C73	C	1.588549	-0.881992	0.435992
C74	C	2.088549	-0.381992	0.935992
C75	C	1.518214	-0.700251	0.506158
C76	C	2.018214	-0.200251	1.006158
C77	C	1.518430	-1.014431	0.506191
C78	C	2.018430	-0.514431	1.006191
C79	C	1.792288	-0.357736	0.506160
C80	C	2.292288	0.142264	1.006160
C81	C	1.909065	-0.357742	0.506166
C82	C	2.409065	0.142258	1.006166
C83	C	1.518327	-0.357651	0.780178
C84	C	2.018327	0.142349	1.280178
C85	C	1.518358	-0.357621	0.896955
C86	C	2.018358	0.142379	1.396955
C87	C	1.518411	-0.164016	0.506185
C88	C	2.018411	0.335984	1.006185
C89	C	1.518477	-0.081470	0.506203
C90	C	2.018477	0.418530	1.006203
C91	C	1.518244	-0.357738	0.233178
C92	C	2.018244	0.142262	0.733178
C93	C	1.518417	-0.357559	0.116401
C94	C	2.018417	0.142441	0.616401
C95	C	1.585554	-0.405070	1.061540
C96	C	2.085554	0.094930	1.561540
C97	C	1.585523	-0.405103	0.951816
C98	C	2.085523	0.094897	1.451816
C99	C	1.451213	-0.310108	0.951824
C100	C	1.951213	0.189892	1.451824
C101	C	1.451240	-0.310079	1.061547
C102	C	1.951240	0.189921	1.561547
C103	C	1.652731	-0.452550	1.116395
C104	C	2.152731	0.047450	1.616395
C105	C	1.719876	-0.500064	1.061533
C106	C	2.219876	-0.000064	1.561533
C107	C	1.719844	-0.500097	0.951809
C108	C	2.219844	-0.000097	1.451809
C109	C	1.652668	-0.452616	0.896946
C110	C	2.152668	0.047384	1.396946
H111	H	1.118314	-0.271435	0.384472
H112	H	1.618314	0.228565	0.884472
C113	C	1.377336	-0.257878	0.891478
C114	C	1.877336	0.242122	1.391478
H115	H	1.386944	-0.264695	0.818274
H116	H	1.886944	0.235305	1.318274
H117	H	1.306740	-0.268734	0.909449
H118	H	1.806740	0.231266	1.409449
H119	H	1.392767	-0.207973	0.909472
H120	H	1.892767	0.292027	1.409472
C121	C	1.313026	-0.911533	0.451003
C122	C	1.813026	-0.411533	0.951003
H123	H	1.317848	-0.940506	0.389013
H124	H	1.817848	-0.440506	0.889013
H125	H	1.286688	-0.941225	0.506522
H126	H	1.786688	-0.441225	1.006522
H127	H	1.267024	-0.871003	0.439303
H128	H	1.767024	-0.371003	0.939303
H129	H	0.919245	-0.271464	0.384483
H130	H	1.419245	0.228536	0.884483
H131	H	1.647951	-0.903510	0.376622
H132	H	2.147951	-0.403510	0.876622
C133	C	1.793761	-0.552289	1.121876
C134	C	2.293761	-0.052289	1.621876
H135	H	1.784173	-0.545461	1.195081
H136	H	2.284173	-0.045461	1.695081
H137	H	1.778345	-0.602193	1.103889
H138	H	2.278345	-0.102193	1.603889
H139	H	1.864358	-0.541422	1.103896
H140	H	2.364358	-0.041422	1.603896
C141	C	1.367779	-0.803414	0.656312
C142	C	1.867779	-0.303414	1.156312
H143	H	1.299740	-0.820384	0.637842
H144	H	1.799740	-0.320384	1.137842
H145	H	1.385307	-0.821009	0.724241
H146	H	1.885307	-0.321009	1.224241
H147	H	1.368736	-0.750788	0.656190
H148	H	1.868736	-0.250788	1.156190
H149	H	1.396573	-0.271389	1.106216
H150	H	1.896573	0.228611	1.606216
H151	H	1.217860	-0.452830	0.640288
H152	H	1.717860	0.047170	1.140288
H153	H	1.118344	-0.539104	0.761983
H154	H	1.618344	-0.039104	1.261983
C155	C	1.723561	-0.803165	0.561372
C156	C	2.223561	-0.303165	1.061372
H157	H	1.741666	-0.820013	0.629539
H158	H	2.241666	-0.320013	1.129539
H159	H	1.773606	-0.820803	0.512239
H160	H	2.273606	-0.320803	1.012239
H161	H	1.722922	-0.750541	0.560524
H162	H	2.222922	-0.250541	1.060524
H163	H	1.774510	-0.538790	0.907143
H164	H	2.274510	-0.038790	1.407143
C165	C	1.652631	-0.452656	0.776252
C166	C	2.152631	0.047344	1.276252
H167	H	1.702240	-0.487751	0.751433
H168	H	2.202240	0.012249	1.251433
H169	H	1.584816	-0.465500	0.751426
H170	H	2.084816	0.034500	1.251426
H171	H	1.670839	-0.404737	0.751439
H172	H	2.170839	0.095263	1.251439
C173	C	1.463199	-0.803597	0.300697
C174	C	1.963199	-0.303597	0.800697
H175	H	1.463305	-0.750967	0.301368
H176	H	1.963305	-0.250967	0.801368
H177	H	1.512778	-0.820875	0.250841
H178	H	2.012778	-0.320875	0.750841
H179	H	1.395349	-0.820978	0.282306
H180	H	1.895349	-0.320978	0.782306
H181	H	0.919278	-0.539125	0.762010
H182	H	1.419278	-0.039125	1.262010
H183	H	1.565608	-0.903629	0.683124
H184	H	2.065608	-0.403629	1.183124
H185	H	0.819724	-0.452855	0.640338
H186	H	1.319724	0.047145	1.140338
C187	C	1.652714	-0.452554	1.237087
C188	C	2.152714	0.047446	1.737087
H189	H	1.702315	-0.487649	1.261901
H190	H	2.202315	0.012351	1.761901
H191	H	1.670904	-0.404633	1.261972
H192	H	2.170904	0.095367	1.761972
H193	H	1.584893	-0.465406	1.261846
H194	H	2.084893	0.034594	1.761846
