data_functionalizedCrystal
_audit_creation_method	'MofGen! by Chris Wilmer'
_symmetry_space_group_name_H-M	'P1'
_symmetry_Int_Tables_number	1
_symmetry_cell_setting	triclinic
loop_
_symmetry_equiv_pos_as_xyz
  x,y,z
_cell_length_a	20.919309
_cell_length_b	20.919151
_cell_length_c	14.395555
_cell_angle_alpha	58.206472
_cell_angle_beta	89.999957
_cell_angle_gamma	55.760852
loop_
_atom_site_label
_atom_site_type_symbol
_atom_site_fract_x
_atom_site_fract_y
_atom_site_fract_z
Zr1	Zr	0.602056	0.692064	-0.143406
O2	O	0.487029	0.842921	-0.310336
O3	O	0.642969	0.547318	-0.084009
O4	O	0.634820	0.689356	-0.289660
O5	O	0.495177	0.700888	0.048182
O6	O	0.744971	0.680269	-0.282705
O7	O	0.495178	0.700883	-0.104685
O8	O	0.759548	0.426189	0.085166
O9	O	0.480600	0.954968	-0.319690
O10	O	0.735794	0.597809	-0.063422
O11	O	0.653589	0.604595	0.045470
O12	O	0.643995	0.771826	-0.196657
O13	O	0.561790	0.778612	-0.087765
Zr14	Zr	0.777732	0.677579	0.111492
Zr15	Zr	0.777734	0.677571	-0.132313
Zr16	Zr	0.602054	0.692072	0.100399
Zr17	Zr	0.591802	0.870766	-0.158324
Zr18	Zr	0.787986	0.498877	0.126410
O19	O	0.736819	0.822324	0.052095
O20	O	0.736821	0.822313	-0.294564
O21	O	0.487027	0.842932	0.036323
O22	O	0.892758	0.526722	0.278422
O23	O	0.892761	0.526711	-0.068237
O24	O	0.642967	0.547330	0.262650
O25	O	0.884611	0.668755	-0.080096
O26	O	0.744967	0.680287	0.257746
O27	O	0.634816	0.689374	0.250791
O28	O	0.884610	0.668760	0.072771
O29	O	0.620241	0.943447	-0.310873
O30	O	0.759547	0.426196	0.278959
O31	O	0.899187	0.414675	0.287776
O32	O	0.899189	0.414669	0.093984
O33	O	0.480599	0.954974	-0.125898
O34	O	0.620240	0.943454	-0.117080
O35	O	0.735793	0.597817	0.164743
O36	O	0.817998	0.591031	0.055851
O37	O	0.726199	0.765048	-0.077384
O38	O	0.643993	0.771834	0.031508
C39	C	0.702719	0.461293	0.002704
C40	C	0.707072	0.385429	0.009038
C41	C	0.644889	0.416541	-0.081207
C42	C	0.648981	0.345272	-0.075297
C43	C	0.715253	0.242892	0.020863
C44	C	0.777442	0.211780	0.111113
C45	C	0.773353	0.283048	0.105197
C46	C	0.730816	0.024369	0.043383
C47	C	0.734898	-0.046898	0.049293
C48	C	0.606438	0.086600	-0.137119
C49	C	0.602352	0.157863	-0.143022
C50	C	0.664543	0.126744	-0.052776
C51	C	0.719436	0.170043	0.026908
C52	C	0.660363	0.199593	-0.058826
C53	C	0.470147	0.702951	-0.029832
C54	C	0.395567	0.709103	-0.034541
C55	C	0.408446	0.621162	0.032788
C56	C	0.338367	0.626949	0.028360
C57	C	0.255410	0.720679	-0.043404
C58	C	0.242533	0.808627	-0.110735
C59	C	0.312611	0.802839	-0.106300
C60	C	0.041422	0.742700	-0.060269
C61	C	-0.028658	0.748481	-0.064702
C62	C	0.067181	0.566802	0.074396
C63	C	0.137256	0.561022	0.078819
C64	C	0.124373	0.648970	0.011493
C65	C	0.183777	0.726597	-0.047935
C66	C	0.196006	0.643052	0.016031
C67	C	0.909641	0.666692	-0.002082
C68	C	0.984221	0.660539	0.002627
C69	C	0.689896	0.684811	-0.320920
C70	C	0.689897	0.684808	-0.424421
C71	C	0.677068	0.908350	-0.034618
C72	C	0.672715	0.984214	-0.040951
C73	C	0.739954	0.589926	-0.412364
C74	C	0.660042	0.641886	-0.514072
C75	C	0.769789	0.632853	-0.507143
C76	C	0.609940	0.736772	-0.524769
C77	C	0.719743	0.727721	-0.517821
C78	C	0.639781	0.779752	-0.619555
C79	C	0.689892	0.684832	0.289006
C80	C	0.689891	0.684835	0.392507
C81	C	0.922466	0.443164	0.016579
C82	C	1.001399	0.361147	0.027622
C83	C	0.702717	0.461303	0.307667
C84	C	0.707069	0.385443	0.417502
C85	C	0.922464	0.443174	0.321542
C86	C	1.001396	0.361161	0.436086
C87	C	0.457324	0.926469	-0.353456
C88	C	0.378392	1.008482	-0.468000
C89	C	0.457322	0.926479	-0.048493
C90	C	0.378389	1.008496	-0.059536
C91	C	0.677071	0.908340	-0.339581
C92	C	0.672718	0.984200	-0.449416
C93	C	0.995557	0.326169	-0.029462
C94	C	1.069716	0.249116	-0.019111
C95	C	1.149715	0.207038	0.048332
C96	C	1.155555	0.242023	0.105417
C97	C	1.081397	0.319079	0.095058
C98	C	0.752023	0.346280	0.531351
C99	C	0.756108	0.275011	0.634561
C100	C	0.715245	0.242902	0.623919
C101	C	0.670286	0.282072	0.510058
C102	C	0.666196	0.353345	0.406850
C103	C	1.081381	0.319104	0.433037
C104	C	1.155552	0.242053	0.540653
C105	C	1.149737	0.207056	0.651318
C106	C	1.069743	0.249121	0.654364
C107	C	0.995574	0.326175	0.546748
C108	C	0.298406	1.050548	-0.464951
C109	C	0.224234	1.127620	-0.572570
C110	C	0.230049	1.162621	-0.683235
C111	C	0.310043	1.120552	-0.686280
C112	C	0.384213	1.043486	-0.578664
C113	C	0.384230	1.043481	-0.002462
C114	C	0.310071	1.120554	-0.012843
C115	C	0.230071	1.162635	-0.080289
C116	C	0.224231	1.127646	-0.137369
C117	C	0.298390	1.050580	-0.126996
C118	C	0.713591	1.016287	-0.438735
C119	C	0.709519	1.087554	-0.541926
C120	C	0.664568	1.126740	-0.655796
C121	C	0.623694	1.094647	-0.666474
C122	C	0.627772	1.023375	-0.563284
H123	H	0.555806	0.111925	-0.210594
H124	H	0.788867	-0.130265	0.127604
O125	O	0.292124	1.012810	-0.345599
H126	H	0.224037	1.055028	-0.361579
O127	O	0.795948	0.483658	-0.295026
H128	H	0.848304	0.467091	-0.239928
O129	O	0.520402	0.794910	-0.533407
H130	H	0.521114	0.794403	-0.455919
H131	H	0.590915	0.499903	-0.159501
O132	O	1.063483	0.211351	0.773732
H133	H	1.092582	0.222554	0.821642
O134	O	0.617733	0.395488	0.284106
H135	H	0.565755	0.478032	0.227300
O136	O	0.626220	0.247427	0.498598
H137	H	0.594265	0.286633	0.402093
H138	H	0.587095	1.126563	-0.759200
O139	O	0.753605	1.122160	-0.530386
H140	H	0.743233	1.178293	-0.621262
O141	O	0.909278	0.371555	-0.102227
H142	H	0.876077	0.360676	-0.043122
H143	H	0.475989	0.544836	0.091231
H144	H	0.750195	0.984392	-0.346026
H145	H	0.116226	0.802912	-0.106365
H146	H	0.823989	0.257708	0.178685
O147	O	0.292077	1.012850	-0.188555
H148	H	0.357079	0.952195	-0.170027
O149	O	0.027539	0.837545	-0.132851
H150	H	0.057187	0.839261	-0.197119
O151	O	-0.118139	0.849580	-0.142097
H152	H	-0.115325	0.909765	-0.188159
H153	H	0.792721	0.243127	0.727262
O154	O	0.790913	0.059619	0.130628
H155	H	0.763761	0.026598	0.180282
H156	H	0.837359	0.588909	-0.500697
H157	H	1.086132	0.347587	0.342939
H158	H	0.348860	0.555337	0.083188
H159	H	0.169648	1.225374	-0.770854
O160	O	0.660160	1.203626	-0.767089
H161	H	0.725631	1.170997	-0.760693
O162	O	1.063409	0.211383	-0.080673
H163	H	0.995321	0.253580	-0.129288
H164	H	0.159085	1.161920	-0.192284
H165	H	0.606408	0.282954	-0.137123
O166	O	0.226731	0.459928	0.156217
H167	H	0.223913	0.399746	0.202297
O168	O	1.229698	0.123929	0.059498
H169	H	1.270434	0.055922	0.155931
H170	H	0.781457	-0.000980	0.116867
H171	H	0.314767	1.149060	-0.776397
O172	O	0.583643	0.886114	-0.736742
H173	H	0.517390	0.929016	-0.744644
H174	H	0.634791	0.605614	-0.513520
O175	O	0.470485	0.998104	-0.581956
H176	H	0.462059	1.035387	-0.676991
H177	H	0.077660	0.495199	0.129209
H178	H	0.718582	0.184867	0.707968
O179	O	0.796100	0.380905	0.542842
H180	H	0.769426	0.415441	0.585769
H181	H	0.449363	1.009224	0.052467
H182	H	0.930449	0.360408	0.549247
H183	H	0.594484	0.997259	-0.571997
O184	O	0.137962	1.172970	-0.569271
H185	H	0.146387	1.135662	-0.474235
O186	O	0.285478	0.541962	0.093422
H187	H	0.295016	0.499508	0.188898
H188	H	1.220680	0.207812	0.538152
O189	O	0.153061	0.909726	-0.188153
H190	H	0.106493	0.898979	-0.179942
H191	H	0.598345	0.370614	-0.148784
H192	H	0.314842	1.149028	0.033646
H193	H	0.169693	1.225386	-0.088726
O194	O	0.753213	0.775724	-0.518476
H195	H	0.819576	0.732422	-0.510082
H196	H	1.210137	0.144313	0.738937
H197	H	1.220701	0.207751	0.160329
H198	H	1.086166	0.347548	0.141551
O199	O	0.530885	0.268287	-0.246753
H200	H	0.488338	0.277948	-0.308525
H201	H	0.302120	0.874451	-0.161112
O202	O	0.848923	0.101357	0.214834
H203	H	0.841316	0.057025	0.203795
