data_functionalizedCrystal
_audit_creation_method	'MofGen! by Chris Wilmer'
_symmetry_space_group_name_H-M	'P1'
_symmetry_Int_Tables_number	1
_symmetry_cell_setting	triclinic
loop_
_symmetry_equiv_pos_as_xyz
  x,y,z
_cell_length_a	6.817900
_cell_length_b	12.850279
_cell_length_c	18.126188
_cell_angle_alpha	104.003904
_cell_angle_beta	89.277778
_cell_angle_gamma	93.900370
loop_
_atom_site_label
_atom_site_type_symbol
_atom_site_fract_x
_atom_site_fract_y
_atom_site_fract_z
V1	V	3.825345	0.025491	-0.232145
O2	O	3.864770	-0.124545	-0.230994
O3	O	3.732001	0.169150	-0.227413
O4	O	3.710195	-0.029012	-0.334825
O5	O	3.886727	0.074988	-0.122839
V6	V	4.323446	0.013939	-0.219453
O7	O	4.054626	0.050833	-0.259986
O8	O	4.544363	-0.011403	-0.191612
O9	O	4.193584	-0.129720	-0.224184
O10	O	4.401419	0.163976	-0.220603
O11	O	4.379462	-0.035558	-0.328759
O12	O	4.215390	0.068442	-0.116772
C13	C	3.568242	0.205861	-0.222943
C14	C	3.572848	0.325156	-0.219701
V15	V	3.843999	0.515698	-0.221311
O16	O	3.893452	0.667449	-0.224274
O17	O	3.739712	0.368232	-0.222000
O18	O	3.760839	0.566372	-0.114565
O19	O	3.872180	0.467937	-0.332453
V20	V	4.337404	0.546342	-0.254324
O21	O	4.078056	0.499273	-0.202969
O22	O	4.551663	0.580066	-0.291082
O23	O	4.219418	0.685231	-0.244504
O24	O	4.404857	0.399102	-0.256163
O25	O	4.426130	0.598614	-0.147984
O26	O	4.198291	0.487091	-0.351940
C27	C	4.034607	0.833845	-0.228935
C28	C	4.051027	0.715363	-0.233037
C29	C	3.540413	-0.046914	-0.359954
C30	C	3.527251	-0.090526	-0.443875
C31	C	4.048516	0.086350	-0.091640
C32	C	4.040918	0.129957	-0.007718
C33	C	3.599796	0.577901	-0.082655
C34	C	3.612376	0.621490	0.001279
C35	C	4.024084	0.462615	-0.370081
C36	C	3.990834	0.418220	-0.453166
C37	C	3.698986	-0.107728	-0.487018
C38	C	3.686646	-0.148719	-0.565870
C39	C	3.502571	-0.172500	-0.601578
C40	C	3.330824	-0.155298	-0.558429
C41	C	3.343164	-0.114315	-0.479578
C42	C	3.860546	0.153737	0.027983
C43	C	3.853421	0.194721	0.106836
C44	C	4.026673	0.211930	0.149985
C45	C	4.207058	0.188143	0.114280
C46	C	4.214179	0.147154	0.035429
C47	C	4.178344	0.353450	0.432275
C48	C	4.171210	0.394446	0.511131
C49	C	3.817586	0.401017	0.503682
C50	C	3.824707	0.360027	0.424832
C51	C	4.005090	0.336239	0.389133
C52	C	4.012813	0.291798	0.303632
C53	C	4.018954	0.256377	0.235484
C54	C	3.796232	0.645534	0.037134
C55	C	3.808081	0.686505	0.115997
C56	C	3.636070	0.703426	0.159004
C57	C	3.452199	0.679382	0.123144
C58	C	3.440353	0.638419	0.044281
H59	H	3.848886	-0.088368	-0.457955
C60	C	4.010349	0.712937	0.155432
C61	C	4.153747	0.623826	0.149894
C62	C	4.356014	0.650255	0.189326
C63	C	4.414882	0.765796	0.234296
C64	C	4.271481	0.854915	0.239836
C65	C	4.069214	0.828485	0.200404
H66	H	4.110172	0.538289	0.116603
H67	H	4.462169	0.584283	0.185225
H68	H	4.564612	0.785360	0.263486
H69	H	4.315056	0.940451	0.273127
H70	H	3.963059	0.894458	0.204505
C71	C	3.263001	0.697994	0.170461
C72	C	3.220511	0.638767	0.233916
C73	C	3.031316	0.657374	0.281238
C74	C	2.884611	0.735209	0.265104
C75	C	2.927096	0.794441	0.201647
C76	C	3.116291	0.775834	0.154325
H77	H	3.329115	0.581144	0.245861
H78	H	2.999867	0.613526	0.328213
H79	H	2.744558	0.748983	0.300135
H80	H	2.818493	0.852064	0.189702
H81	H	3.147741	0.819682	0.107350
H82	H	3.645743	0.736782	0.223219
H83	H	3.706548	0.214094	0.135898
H84	H	3.492550	-0.205870	-0.665785
H85	H	3.936313	0.631765	0.002127
H86	H	3.826511	-0.162715	-0.600991
H87	H	3.180953	-0.174666	-0.587515
H88	H	3.670708	0.420386	0.532758
H89	H	3.203311	-0.100310	-0.444457
H90	H	3.719464	0.139733	-0.007145
H91	H	3.683629	0.346022	0.389702
H92	H	3.290632	0.618840	0.015095
H93	H	4.325221	0.334083	0.403220
H94	H	4.312301	0.408455	0.546262
H95	H	4.361057	0.127794	0.006363
H96	H	4.348120	0.202151	0.149419
