data_functionalizedCrystal
_audit_creation_method	'MofGen! by Chris Wilmer'
_symmetry_space_group_name_H-M	'P1'
_symmetry_Int_Tables_number	1
_symmetry_cell_setting	triclinic
loop_
_symmetry_equiv_pos_as_xyz
  x,y,z
_cell_length_a	19.077068
_cell_length_b	19.077372
_cell_length_c	19.076919
_cell_angle_alpha	94.474666
_cell_angle_beta	85.529249
_cell_angle_gamma	85.467681
loop_
_atom_site_label
_atom_site_type_symbol
_atom_site_fract_x
_atom_site_fract_y
_atom_site_fract_z
Zn1	Zn	-0.252675	-1.051083	0.366041
Zn2	Zn	-0.365832	-1.050995	0.252889
Zn3	Zn	-0.252697	-0.937937	0.252886
Zn4	Zn	-0.375678	-0.928012	0.375858
O5	O	-0.311720	-0.992007	0.311919
O6	O	-0.263556	-1.149892	0.346923
O7	O	-0.346713	-1.040115	0.154070
O8	O	-0.153869	-0.957136	0.263787
O9	O	-0.346692	-1.149828	0.263791
O10	O	-0.153853	-1.040264	0.346921
O11	O	-0.263593	-0.957052	0.154068
O12	O	-0.273140	-0.837799	0.273307
O13	O	-0.363473	-0.940220	0.473375
O14	O	-0.363494	-0.830507	0.363654
O15	O	-0.273103	-1.030640	0.466162
O16	O	-0.465963	-1.030491	0.273311
O17	O	-0.473197	-0.940135	0.363656
C18	C	-0.319388	-0.808530	0.319546
C19	C	-0.322686	-0.730037	0.322826
C20	C	-0.346287	-0.287795	0.346389
C21	C	-0.343193	-0.361548	0.343294
C22	C	-0.294534	-0.402199	0.294779
C23	C	-0.248971	-0.369092	0.249352
C24	C	-0.252069	-0.295340	0.252444
C25	C	-0.280221	-0.623178	0.280491
C26	C	-0.277125	-0.696935	0.277404
C27	C	-0.371348	-0.689386	0.371345
C28	C	-0.374439	-0.615633	0.374436
C29	C	-0.328879	-0.582533	0.329006
N30	N	-0.291369	-0.477586	0.291616
N31	N	-0.332048	-0.507147	0.332167
C32	C	-0.495204	-0.984245	0.319564
C33	C	-0.573697	-0.980988	0.322855
C34	C	-0.606784	-1.026535	0.277400
C35	C	-0.680537	-1.023476	0.280500
C36	C	-0.721202	-0.974866	0.329052
C37	C	-0.688110	-0.929317	0.374512
C38	C	-0.614358	-0.932380	0.371415
C39	C	-0.942182	-0.960660	0.343358
C40	C	-1.015939	-0.957599	0.346450
C41	C	-1.008360	-1.051759	0.252437
C42	C	-0.934608	-1.054814	0.249342
C43	C	-0.901522	-1.009268	0.294805
N44	N	-0.796589	-0.971736	0.332220
N45	N	-0.826136	-1.012402	0.291639
C46	C	-0.127520	-0.999817	0.304258
C47	C	-0.049025	-1.003145	0.300994
C48	C	-0.319384	-0.984332	0.496107
C49	C	-0.322650	-0.981062	0.574597
C50	C	-0.304019	-0.176200	0.304254
C51	C	-0.300726	-0.254693	0.300966
C52	C	-0.304034	-0.999694	0.128443
C53	C	-0.300564	-1.003109	0.049939
C54	C	-0.277135	-1.026600	0.607718
C55	C	-0.280202	-1.023519	0.681468
C56	C	-0.328786	-0.974903	0.722096
C57	C	-0.374302	-0.929360	0.688971
C58	C	-0.371232	-0.932438	0.615222
C59	C	-0.343010	-0.960645	0.943065
C60	C	-0.346078	-0.957571	1.016818
C61	C	-0.251976	-1.051730	1.009311
C62	C	-0.248913	-1.054807	0.935561
C63	C	-0.294427	-1.009261	0.902442
N64	N	-0.331923	-0.971753	0.797481
N65	N	-0.291286	-1.012408	0.827058
H66	H	-0.243125	-0.596237	0.243497
N67	N	-0.906502	-0.911530	0.392382
H68	H	-0.920951	-0.919818	0.442930
H69	H	-0.921052	-0.861030	0.383945
H70	H	-0.707472	-1.060564	0.243484
N71	N	-0.890751	-1.107251	0.196980
H72	H	-0.839009	-1.102279	0.201915
H73	H	-0.902033	-1.097866	0.147535
N74	N	-0.196492	-0.412932	0.197021
H75	H	-0.201440	-0.464677	0.201955
H76	H	-0.147076	-0.401709	0.206536
N77	N	-1.059802	-0.905171	0.398822
H78	H	-1.090611	-0.872391	0.372742
H79	H	-1.027605	-0.876832	0.427141
N80	N	-0.562923	-1.078964	0.225034
H81	H	-0.574147	-1.069608	0.175564
H82	H	-0.574077	-1.128398	0.234546
N83	N	-0.578675	-0.883248	0.420441
H84	H	-0.548288	-0.853012	0.391793
H85	H	-0.548239	-0.911875	0.450704
H86	H	-0.214967	-0.268390	0.215458
H87	H	-0.385907	-0.254703	0.385898
H88	H	-0.209352	-1.094397	0.902486
H89	H	-0.721225	-0.889741	0.414048
H90	H	-0.380296	-0.388496	0.380280
H91	H	-0.414064	-0.582541	0.413940
N92	N	-0.224738	-1.079041	0.563900
H93	H	-0.196370	-1.107420	0.596076
H94	H	-0.191983	-1.052960	0.533135
N95	N	-1.044044	-1.100878	0.203402
H96	H	-1.096936	-1.091563	0.212728
H97	H	-1.029456	-1.151382	0.211791
H98	H	-0.243141	-1.060602	0.708432
N99	N	-0.420491	-0.725087	0.420337
H100	H	-0.411149	-0.777976	0.411017
H101	H	-0.470988	-0.710522	0.411897
N102	N	-0.202887	-1.100850	1.045031
H103	H	-0.212202	-1.091525	1.097916
H104	H	-0.152374	-1.092534	1.030499
H105	H	-0.380080	-0.923568	0.916108
N106	N	-0.224643	-0.740782	0.225073
H107	H	-0.196252	-0.708623	0.196761
H108	H	-0.250696	-0.771524	0.192264
H109	H	-0.413858	-0.889773	0.722056
N110	N	-0.398484	-0.905135	1.060642
H111	H	-0.426851	-0.876749	1.028471
H112	H	-0.372375	-0.872401	1.091405
N113	N	-0.420316	-0.883316	0.579495
H114	H	-0.451559	-0.852050	0.616422
H115	H	-0.450524	-0.911947	0.549058
