data_functionalizedCrystal
_audit_creation_method	'MofGen! by Chris Wilmer'
_symmetry_space_group_name_H-M	'P1'
_symmetry_Int_Tables_number	1
_symmetry_cell_setting	triclinic
loop_
_symmetry_equiv_pos_as_xyz
  x,y,z
_cell_length_a	10.654541
_cell_length_b	17.699083
_cell_length_c	16.176319
_cell_angle_alpha	89.998611
_cell_angle_beta	89.993456
_cell_angle_gamma	83.883472
loop_
_atom_site_label
_atom_site_type_symbol
_atom_site_fract_x
_atom_site_fract_y
_atom_site_fract_z
O1	O	0.158809	1.005088	-0.068630
O2	O	0.658809	1.505088	0.431370
O3	O	0.179471	0.784840	-0.068657
O4	O	0.679471	1.284840	0.431343
O5	O	-0.013688	0.900029	-0.068638
O6	O	0.486312	1.400029	0.431362
O7	O	0.351968	0.889899	-0.068649
O8	O	0.851968	1.389899	0.431351
O9	O	-0.013701	0.900013	0.068855
O10	O	0.486299	1.400013	0.568855
O11	O	0.179458	0.784824	0.068836
O12	O	0.679458	1.284824	0.568836
O13	O	0.158797	1.005072	0.068863
O14	O	0.658797	1.505072	0.568863
Cu15	Cu	0.169126	0.894946	0.081404
Cu16	Cu	0.669126	1.394946	0.581404
Cu17	Cu	0.169141	0.894965	-0.081198
Cu18	Cu	0.669141	1.394965	0.418802
O19	O	0.351956	0.889883	0.068844
O20	O	0.851956	1.389883	0.568844
C21	C	0.178724	0.756631	0.000086
C22	C	0.678724	1.256631	0.500086
C23	C	0.176503	0.672599	0.000076
C24	C	0.676503	1.172599	0.500076
C25	C	0.289883	0.624698	0.000072
C26	C	0.789883	1.124698	0.500072
C27	C	0.287789	0.545741	0.000083
C28	C	0.787789	1.045741	0.500083
C29	C	0.172313	0.514687	0.000091
C30	C	0.672313	1.014687	0.500091
C31	C	0.058924	0.562594	0.000097
C32	C	0.558924	1.062594	0.500097
C33	C	0.061020	0.641549	0.000092
C34	C	0.561020	1.141549	0.500092
C35	C	0.050470	0.244177	0.000118
C36	C	0.550470	0.744177	0.500118
C37	C	0.048383	0.165216	0.000120
C38	C	0.548383	0.665216	0.500120
C39	C	0.277239	0.148369	0.000109
C40	C	0.777239	0.648369	0.500109
C41	C	0.279335	0.227324	0.000104
C42	C	0.779335	0.727324	0.500104
C43	C	0.165946	0.275224	0.000114
C44	C	0.665946	0.775224	0.500114
C45	C	0.168219	0.360838	0.000104
C46	C	0.668219	0.860838	0.500104
C47	C	0.170039	0.429075	0.000096
C48	C	0.670039	0.929075	0.500096
C49	C	-0.060480	0.899277	0.000108
C50	C	0.439520	1.399277	0.500108
C51	C	-0.199884	0.897053	0.000106
C52	C	0.300116	1.397053	0.500106
C53	C	-0.230266	1.034792	0.000134
C54	C	0.269734	1.534792	0.500134
C55	C	-0.310947	1.102614	0.000149
C56	C	0.189053	1.602614	0.500149
C57	C	-0.441929	1.100519	0.000146
C58	C	0.058071	1.600519	0.500146
C59	C	-0.492230	1.030596	0.000126
C60	C	0.007770	1.530596	0.500126
C61	C	-0.411549	0.962775	0.000110
C62	C	0.088451	1.462775	0.500110
C63	C	-0.280566	0.964876	0.000116
C64	C	0.219434	1.464876	0.500116
C65	C	-0.381167	0.825037	0.000077
C66	C	0.118833	1.325037	0.500077
C67	C	-0.250185	0.827130	0.000086
C68	C	0.249815	1.327130	0.500086
C69	C	-0.431468	0.755114	0.000056
C70	C	0.068532	1.255114	0.500056
C71	C	-0.350786	0.687291	0.000047
C72	C	0.149214	1.187291	0.500047
C73	C	-0.219798	0.689388	0.000051
C74	C	0.280202	1.189388	0.500051
C75	C	-0.169504	0.759308	0.000071
C76	C	0.330496	1.259308	0.500071
C77	C	0.398747	0.890634	0.000096
C78	C	0.898747	1.390634	0.500096
C79	C	0.538151	0.892859	0.000092
C80	C	1.038151	1.392859	0.500092
C81	C	0.159543	1.033281	0.000118
C82	C	0.659543	1.533281	0.500118
C83	C	0.161764	1.117313	0.000123
C84	C	0.661764	1.617313	0.500123
N85	N	0.169115	0.894939	0.195769
N86	N	0.669115	1.394939	0.695769
N87	N	0.169142	0.894979	-0.195563
N88	N	0.669142	1.394979	0.304437
C89	C	0.083620	0.945960	0.239042
C90	C	0.583620	1.445960	0.739042
C91	C	0.083618	0.945964	0.325589
C92	C	0.583618	1.445964	0.825589
C93	C	0.169120	0.894949	0.368862
C94	C	0.669120	1.394949	0.868862
C95	C	0.254620	0.843923	0.325583
C96	C	0.754620	1.343923	0.825583
C97	C	0.254614	0.843916	0.239037
C98	C	0.754614	1.343916	0.739037
C99	C	0.254643	0.843949	0.674611
C100	C	0.754643	1.343949	1.174611
C101	C	0.254645	0.843961	0.761163
C102	C	0.754645	1.343961	1.261163
C103	C	0.083647	0.945997	0.761162
C104	C	0.583647	1.445997	1.261162
C105	C	0.083642	0.945990	0.674617
C106	C	0.583642	1.445990	1.174617
C107	C	0.169137	0.894961	0.631346
C108	C	0.669137	1.394961	1.131346
C109	C	0.169136	0.894956	0.537502
C110	C	0.669136	1.394956	1.037502
C111	C	0.169128	0.894957	0.462704
C112	C	0.669128	1.394957	0.962704
H113	H	-0.041858	0.283168	0.000127
H114	H	0.458142	0.783168	0.500127
H115	H	-0.123616	1.036505	0.000147
H116	H	0.376384	1.536505	0.500147
Cl117	Cl	0.419787	0.088147	0.000100
Cl118	Cl	0.919787	0.588147	0.500100
Cl119	Cl	-0.086247	0.523554	0.000112
Cl120	Cl	0.413753	1.023554	0.500112
H121	H	0.014023	0.987533	0.639387
H122	H	0.514023	1.487533	1.139387
H123	H	-0.031306	0.680549	0.000094
H124	H	0.468694	1.180549	0.500094
Cl125	Cl	-0.023869	1.010100	0.184651
Cl126	Cl	0.476131	1.510100	0.684651
Cl127	Cl	-0.023839	1.010146	0.815565
Cl128	Cl	0.476161	1.510146	1.315565
H129	H	-0.391753	0.630364	0.000025
H130	H	0.108247	1.130364	0.500025
H131	H	-0.269977	1.159544	0.000173
H132	H	0.230023	1.659544	0.500173
Cl133	Cl	-0.004843	0.761951	0.000081
Cl134	Cl	0.495157	1.261951	0.500081
H135	H	-0.045657	0.139935	0.000128
H136	H	0.454343	0.639935	0.500128
Cl137	Cl	-0.543361	1.185781	0.000158
Cl138	Cl	-0.043361	1.685781	0.500158
Cl139	Cl	-0.656894	1.027965	0.000066
Cl140	Cl	-0.156894	1.527965	0.500066
H141	H	-0.538121	0.753413	0.000049
H142	H	-0.038121	1.253413	0.500049
H143	H	-0.154113	0.634159	0.000035
H144	H	0.345887	1.134159	0.500035
H145	H	0.324258	0.802401	0.639386
H146	H	0.824258	1.302401	1.139386
H147	H	0.324273	0.802416	0.796394
H148	H	0.824273	1.302416	1.296394
H149	H	0.324233	0.802382	0.360820
H150	H	0.824233	1.302382	0.860820
H151	H	0.014000	0.987508	0.360821
H152	H	0.514000	1.487508	0.860821
H153	H	0.324232	0.802368	0.203805
H154	H	0.824232	1.302368	0.703805
Cl155	Cl	0.430331	0.485526	0.000074
Cl156	Cl	0.930331	0.985526	0.500074
Cl157	Cl	0.424510	0.266359	0.000089
Cl158	Cl	0.924510	0.766359	0.500089
Cl159	Cl	0.435062	0.663729	0.000057
Cl160	Cl	0.935062	1.163729	0.500057
