data_functionalizedCrystal
_audit_creation_method	'MofGen! by Chris Wilmer'
_symmetry_space_group_name_H-M	'P1'
_symmetry_Int_Tables_number	1
_symmetry_cell_setting	triclinic
loop_
_symmetry_equiv_pos_as_xyz
  x,y,z
_cell_length_a	15.944493
_cell_length_b	15.944551
_cell_length_c	9.730223
_cell_angle_alpha	90.000976
_cell_angle_beta	90.002254
_cell_angle_gamma	83.486891
loop_
_atom_site_label
_atom_site_type_symbol
_atom_site_fract_x
_atom_site_fract_y
_atom_site_fract_z
O1	O	1.114553	0.108095	0.114275
O2	O	0.869997	0.121502	0.114282
O3	O	0.998953	-0.007478	0.114266
O4	O	0.985597	0.237074	0.114291
O5	O	0.998945	-0.007471	-0.114314
O6	O	0.869988	0.121509	-0.114298
O7	O	1.114545	0.108102	-0.114305
Zn8	Zn	0.992265	0.114806	-0.150594
Zn9	Zn	0.992276	0.114797	0.150570
O10	O	0.985588	0.237081	-0.114289
C11	C	0.838698	0.120957	-0.000007
C12	C	0.745449	0.119314	-0.000005
C13	C	0.998395	-0.038768	-0.000025
C14	C	0.996732	-0.132014	-0.000025
C15	C	0.509689	0.195235	0.000004
C16	C	0.459127	0.154298	-0.112708
C17	C	0.574728	0.116270	-0.000008
C18	C	0.459140	0.154272	0.112654
C19	C	0.409819	0.113336	-0.000005
C20	C	0.525394	0.075354	-0.112813
C21	C	0.525410	0.075340	0.112650
C22	C	0.474880	0.034345	-0.000089
C23	C	0.669728	0.117963	-0.000011
C24	C	0.314821	0.111637	-0.000012
C25	C	0.912826	-0.346853	-0.000004
C26	C	0.951785	-0.407875	-0.112709
C27	C	0.993725	-0.302739	-0.000015
C28	C	0.951812	-0.407866	0.112653
C29	C	0.990814	-0.467651	0.000002
C30	C	1.032706	-0.362533	-0.112813
C31	C	1.032722	-0.362517	0.112651
C32	C	1.071741	-0.423521	-0.000082
C33	C	0.995399	-0.207737	-0.000025
C34	C	0.989146	-0.562652	0.000002
C35	C	1.145844	0.108646	-0.000013
C36	C	1.239092	0.110289	-0.000006
C37	C	0.986147	0.268372	0.000004
C38	C	0.987809	0.361617	0.000014
N39	N	0.992264	0.114812	-0.356130
C40	C	1.043208	0.165775	-0.428065
C41	C	1.043221	0.165759	-0.571948
C42	C	0.941338	0.063816	-0.571948
C43	C	0.941330	0.063828	-0.428068
C44	C	1.094142	0.216760	-0.356128
C45	C	1.145090	0.267727	-0.428063
C46	C	1.145103	0.267711	-0.571946
C47	C	1.094167	0.216728	-0.643894
N48	N	0.992284	0.114784	0.356107
H49	H	0.430186	0.187648	-0.207989
H50	H	1.066891	-0.342547	-0.208200
O51	O	1.094090	0.216885	-0.200941
H52	H	1.158770	0.196243	-0.162883
O53	O	0.823883	-0.302704	-0.000158
H54	H	0.825910	-0.233353	0.000804
O55	O	0.454380	-0.055818	-0.000192
H56	H	0.384839	-0.056414	0.000694
H57	H	0.554360	0.042014	0.207936
O58	O	0.886410	0.008832	-0.649562
H59	H	0.904699	-0.058294	-0.621945
O60	O	1.078014	-0.335851	0.238859
H61	H	1.044305	-0.353793	0.332282
H62	H	1.094190	0.216711	-0.761053
O63	O	0.420816	0.198450	0.238869
H64	H	0.434467	0.265180	0.238629
H65	H	0.917588	-0.427938	0.207943
H66	H	1.186564	0.309231	-0.369474
H67	H	1.186593	0.309205	-0.630512
O68	O	0.886408	0.008861	-0.350419
H69	H	0.819264	0.027090	-0.377992
O70	O	0.530407	0.285326	-0.000124
H71	H	0.503735	0.317917	-0.093823
H72	H	0.917564	-0.427973	-0.207990
O73	O	0.563561	0.031223	-0.239178
H74	H	0.632970	0.032842	-0.238216
H75	H	1.138950	-0.456694	-0.000147
