data_functionalizedCrystal
_audit_creation_method	'MofGen! by Chris Wilmer'
_symmetry_space_group_name_H-M	'P1'
_symmetry_Int_Tables_number	1
_symmetry_cell_setting	triclinic
loop_
_symmetry_equiv_pos_as_xyz
  x,y,z
_cell_length_a	16.625546
_cell_length_b	13.897449
_cell_length_c	16.625548
_cell_angle_alpha	89.990776
_cell_angle_beta	90.013404
_cell_angle_gamma	89.977699
loop_
_atom_site_label
_atom_site_type_symbol
_atom_site_fract_x
_atom_site_fract_y
_atom_site_fract_z
Zn1	Zn	-0.321139	-1.474541	0.455919
Zn2	Zn	0.012194	-1.141207	0.789252
Zn3	Zn	0.345528	-0.807874	1.122585
Zn4	Zn	-0.455942	-1.474460	0.321081
Zn5	Zn	-0.122609	-1.141126	0.654414
Zn6	Zn	0.210725	-0.807793	0.987748
Zn7	Zn	-0.321127	-1.313268	0.321097
Zn8	Zn	0.012207	-0.979935	0.654430
Zn9	Zn	0.345540	-0.646602	0.987764
Zn10	Zn	-0.455933	-1.313198	0.455868
Zn11	Zn	-0.122600	-0.979865	0.789202
Zn12	Zn	0.210734	-0.646531	1.122535
O13	O	-0.388535	-1.393867	0.388491
O14	O	-0.055202	-1.060533	0.721825
O15	O	0.278131	-0.727200	1.055158
O16	O	-0.339030	-1.609512	0.438046
O17	O	-0.005697	-1.276178	0.771380
O18	O	0.327637	-0.942845	1.104713
O19	O	-0.438057	-1.453073	0.208251
O20	O	-0.104724	-1.119739	0.541584
O21	O	0.228609	-0.786406	0.874917
O22	O	-0.208296	-1.334725	0.339009
O23	O	0.125037	-1.001391	0.672342
O24	O	0.458371	-0.668058	1.005676
O25	O	-0.438069	-1.609452	0.338982
O26	O	-0.104736	-1.276119	0.672315
O27	O	0.228597	-0.942785	1.005648
O28	O	-0.208305	-1.453211	0.438062
O29	O	0.125028	-1.119878	0.771395
O30	O	0.458362	-0.786544	1.104729
O31	O	-0.339009	-1.334646	0.208262
O32	O	-0.005676	-1.001313	0.541596
O33	O	0.327658	-0.667979	0.874929
O34	O	-0.339000	-1.178277	0.338960
O35	O	-0.005667	-0.844944	0.672294
O36	O	0.327666	-0.511611	1.005627
O37	O	-0.438053	-1.334605	0.568707
O38	O	-0.104720	-1.001272	0.902041
O39	O	0.228613	-0.667939	1.235374
O40	O	-0.438042	-1.178226	0.437976
O41	O	-0.104708	-0.844893	0.771310
O42	O	0.228625	-0.511559	1.104643
O43	O	-0.339021	-1.453143	0.568744
O44	O	-0.005688	-1.119810	0.902078
O45	O	0.327646	-0.786476	1.235411
O46	O	-0.568773	-1.453005	0.338933
O47	O	-0.235440	-1.119671	0.672266
O48	O	0.097893	-0.786338	1.005600
O49	O	-0.568767	-1.334527	0.437961
O50	O	-0.235433	-1.001193	0.771294
O51	O	0.097900	-0.667860	1.104628
C52	C	-0.388519	-1.143252	0.388465
C53	C	-0.055186	-0.809919	0.721798
C54	C	0.278147	-0.476586	1.055132
C55	C	-0.388532	-1.036038	0.388473
C56	C	-0.055198	-0.702705	0.721806
C57	C	0.278135	-0.369372	1.055140
C58	C	-0.388530	-0.839743	0.388488
C59	C	-0.055197	-0.506410	0.721821
C60	C	0.278136	-0.173077	1.055155
C61	C	-0.388529	-0.948976	0.388477
C62	C	-0.055195	-0.615643	0.721811
C63	C	0.278138	-0.282309	1.055144
C64	C	-0.598026	-1.393775	0.388457
C65	C	-0.264693	-1.060442	0.721791
C66	C	0.068641	-0.727109	1.055124
C67	C	-0.687647	-1.393825	0.388470
C68	C	-0.354314	-1.060491	0.721803
C69	C	-0.020981	-0.727158	1.055137
C70	C	-1.015823	-1.393993	0.388554
C71	C	-0.682489	-1.060660	0.721887
C72	C	-0.349156	-0.727326	1.055221
C73	C	-0.924514	-1.393943	0.388533
C74	C	-0.591181	-1.060610	0.721866
C75	C	-0.257848	-0.727276	1.055199
C76	C	-0.851738	-1.393908	0.388512
C77	C	-0.518405	-1.060575	0.721845
C78	C	-0.185071	-0.727241	1.055178
C79	C	-0.760424	-1.393860	0.388491
C80	C	-0.427090	-1.060526	0.721825
C81	C	-0.093757	-0.727193	1.055158
C82	C	-0.178226	-1.393985	0.388543
C83	C	0.155107	-1.060651	0.721876
C84	C	0.488440	-0.727318	1.055209
C85	C	-0.088605	-1.394035	0.388565
C86	C	0.244728	-1.060702	0.721898
C87	C	0.578061	-0.727368	1.055231
C88	C	-0.388538	-1.393875	0.598800
C89	C	-0.055204	-1.060542	0.932133
C90	C	0.278129	-0.727209	1.265467
C91	C	-0.388539	-1.393879	0.688421
C92	C	-0.055205	-1.060546	1.021755
C93	C	0.278128	-0.727212	1.355088
C94	C	-0.388547	-0.645460	0.388510
C95	C	-0.055213	-0.312126	0.721843
C96	C	0.278120	0.021207	1.055177
C97	C	-0.388538	-0.752674	0.388498
C98	C	-0.055205	-0.419340	0.721832
C99	C	0.278129	-0.086007	1.055165
C100	C	-0.388546	-1.393839	1.016597
C101	C	-0.055212	-1.060505	1.349930
C102	C	0.278121	-0.727172	1.683263
C103	C	-0.388546	-1.393847	0.925288
C104	C	-0.055213	-1.060514	1.258622
C105	C	0.278120	-0.727181	1.591955
C106	C	-0.388543	-1.393859	0.852512
C107	C	-0.055209	-1.060526	1.185845
C108	C	0.278124	-0.727193	1.519179
C109	C	-0.388542	-1.393867	0.761198
C110	C	-0.055209	-1.060533	1.094531
C111	C	0.278125	-0.727200	1.427864
C112	C	-0.388549	-1.393849	1.179000
C113	C	-0.055216	-1.060516	1.512334
C114	C	0.278117	-0.727182	1.845667
C115	C	-0.388543	-1.393839	1.089379
C116	C	-0.055210	-1.060506	1.422713
C117	C	0.278123	-0.727173	1.756046
