data_functionalizedCrystal
_audit_creation_method	'MofGen! by Chris Wilmer'
_symmetry_space_group_name_H-M	'P1'
_symmetry_Int_Tables_number	1
_symmetry_cell_setting	triclinic
loop_
_symmetry_equiv_pos_as_xyz
  x,y,z
_cell_length_a	10.489741
_cell_length_b	12.837942
_cell_length_c	11.295483
_cell_angle_alpha	85.469583
_cell_angle_beta	94.144562
_cell_angle_gamma	89.684057
loop_
_atom_site_label
_atom_site_type_symbol
_atom_site_fract_x
_atom_site_fract_y
_atom_site_fract_z
O1	O	-1.717937	-0.139467	-0.098950
O2	O	-1.348257	-0.153206	-0.098968
O3	O	-1.524899	0.004627	-0.098952
O4	O	-1.541295	-0.297300	-0.098966
O5	O	-1.509382	-0.009214	0.099097
O6	O	-1.332740	-0.167047	0.099081
O7	O	-1.702419	-0.153308	0.099100
Cu8	Cu	-1.516163	-0.161441	0.117174
Cu9	Cu	-1.534514	-0.145073	-0.117042
O10	O	-1.525777	-0.311141	0.099084
C11	C	-1.511602	0.036369	0.000072
C12	C	-1.495084	0.151569	0.000069
C13	C	-1.292853	-0.159089	0.000054
C14	C	-1.150881	-0.155983	0.000047
C15	C	-1.757824	-0.147425	0.000075
C16	C	-1.899796	-0.150530	0.000074
C17	C	-1.071668	-0.055559	0.000063
C18	C	-0.992422	-0.096175	-0.097585
C19	C	-0.977160	-0.109845	0.097676
C20	C	-1.073512	-0.196634	-0.097682
C21	C	-1.058251	-0.210297	0.097667
C22	C	-0.979042	-0.250984	-0.000005
C23	C	-1.539074	-0.342882	0.000057
C24	C	-1.555593	-0.458082	0.000052
N25	N	-1.503265	-0.172954	0.281909
C26	C	-1.693661	0.391046	0.000054
C27	C	-1.678147	0.499288	0.000051
C28	C	-1.448545	0.476297	0.000052
C29	C	-1.464058	0.368055	0.000055
C30	C	-1.586620	0.325434	0.000058
C31	C	-1.602133	0.217189	0.000069
C32	C	-1.372532	0.194201	0.000061
C33	C	-1.357018	0.302443	0.000059
N34	N	-1.547421	-0.133552	-0.281778
C35	C	-1.640261	-0.050621	0.531211
C36	C	-1.630524	-0.059328	0.655874
C37	C	-1.474047	-0.199071	0.655900
C38	C	-1.483784	-0.190363	0.531237
C39	C	-1.566895	-0.116137	0.468897
C40	C	-1.576638	-0.107435	0.344232
C41	C	-1.420156	-0.247172	0.344260
C42	C	-1.410419	-0.255879	0.468923
H43	H	-1.112265	0.027005	-0.000055
C44	C	-1.048931	-0.377222	0.210125
C45	C	-1.097764	-0.275400	0.209113
H46	H	-1.073321	-0.417404	0.278938
H47	H	-1.082010	-0.408135	0.140815
H48	H	-0.958338	-0.375179	0.211328
H49	H	-1.188358	-0.277442	0.207901
H50	H	-1.064690	-0.244479	0.278441
H51	H	-1.644315	-0.046999	0.293476
H52	H	-1.285371	0.140767	0.000074
H53	H	-1.765312	0.552707	0.000045
H54	H	-1.707942	0.009810	0.480453
C55	C	-1.819385	0.235323	0.000074
C56	C	-1.828374	0.344186	0.000068
H57	H	-1.902553	0.206397	0.000091
H58	H	-1.780182	0.217692	-0.068990
H59	H	-1.769339	0.208050	0.069139
H60	H	-1.878412	0.371460	-0.069002
H61	H	-1.867596	0.361826	0.069139
H62	H	-1.690264	-0.005978	0.706607
H63	H	-1.115496	-0.233317	-0.180329
H64	H	-0.935027	-0.073104	0.180230
H65	H	-1.406371	-0.259497	0.706673
H66	H	-1.360420	-0.300522	0.293510
H67	H	-0.963192	-0.047913	-0.180138
C68	C	-1.322829	0.632024	0.000044
C69	C	-1.313833	0.523160	0.000050
H70	H	-1.239661	0.660952	0.000051
H71	H	-1.372856	0.659295	-0.069019
H72	H	-1.362055	0.649652	0.069110
H73	H	-1.274616	0.505532	-0.069021
H74	H	-1.263787	0.495879	0.069120
C75	C	-1.131625	0.268846	0.000054
C76	C	-1.222302	0.349298	0.000051
H77	H	-1.048458	0.297773	0.000043
H78	H	-1.137043	0.222289	0.069118
H79	H	-1.147870	0.231924	-0.069011
H80	H	-1.206063	0.386216	0.069121
H81	H	-1.216880	0.395873	-0.069020
C82	C	-0.973712	-0.407705	-0.102408
C83	C	-0.924611	-0.362538	-0.000078
H84	H	-0.940099	-0.476570	-0.102458
H85	H	-1.064236	-0.410229	-0.103060
H86	H	-0.950080	-0.366954	-0.171107
H87	H	-0.948251	-0.403285	0.068621
H88	H	-0.834067	-0.360020	0.000585
C89	C	-1.326018	-0.331281	0.660035
C90	C	-1.319073	-0.337470	0.537454
H91	H	-1.269631	-0.381659	0.702338
H92	H	-1.302130	-0.263361	0.680461
H93	H	-1.411003	-0.344642	0.680439
H94	H	-1.234089	-0.324101	0.517048
H95	H	-1.342953	-0.405406	0.517019
H96	H	-1.701928	0.182489	0.000076
