data_functionalizedCrystal
_audit_creation_method	'MofGen! by Chris Wilmer'
_symmetry_space_group_name_H-M	'P1'
_symmetry_Int_Tables_number	1
_symmetry_cell_setting	triclinic
loop_
_symmetry_equiv_pos_as_xyz
  x,y,z
_cell_length_a	23.532407
_cell_length_b	23.532407
_cell_length_c	22.610064
_cell_angle_alpha	90.002839
_cell_angle_beta	89.995564
_cell_angle_gamma	97.151287
loop_
_atom_site_label
_atom_site_type_symbol
_atom_site_fract_x
_atom_site_fract_y
_atom_site_fract_z
O1	O	0.069127	-0.755264	-0.049122
O2	O	0.079130	-0.589400	-0.049140
O3	O	-0.008803	-0.677333	-0.049114
O4	O	0.157060	-0.667330	-0.049148
O5	O	-0.008790	-0.677318	0.049255
O6	O	0.079143	-0.589385	0.049229
O7	O	0.069140	-0.755248	0.049248
Zn8	Zn	0.074144	-0.672314	0.064856
Zn9	Zn	0.074127	-0.672334	-0.064749
O10	O	0.157073	-0.667315	0.049221
C11	C	-0.030013	-0.677071	0.000074
C12	C	-0.093230	-0.676305	0.000083
C13	C	0.078882	-0.568176	0.000042
C14	C	0.078116	-0.504959	0.000036
C15	C	0.069388	-0.776472	0.000064
C16	C	0.070154	-0.839689	0.000066
C17	C	-0.359397	-0.621110	0.000039
C18	C	-0.299997	-0.621821	0.000044
O19	O	-0.263252	-0.578035	0.000020
N20	N	-0.277371	-0.674097	0.000057
C21	C	-0.314148	-0.725666	0.000059
O22	O	-0.289449	-0.770196	0.000070
C23	C	-0.373547	-0.724954	0.000050
C24	C	-0.396170	-0.672674	0.000043
C25	C	-0.382020	-0.568834	0.000032
C26	C	-0.441417	-0.568123	0.000029
C27	C	-0.478189	-0.619687	0.000032
C28	C	-0.455566	-0.671963	0.000040
C29	C	-0.410324	-0.776521	0.000048
C30	C	-0.469726	-0.775805	0.000039
C31	C	-0.492349	-0.723525	0.000032
C32	C	-0.551735	-0.722816	0.000040
N33	N	-0.574361	-0.670539	0.000027
C34	C	-0.537589	-0.618975	0.000024
C35	C	-0.189406	-0.727157	0.000077
C36	C	-0.130008	-0.727870	0.000090
C37	C	-0.115860	-0.624025	0.000074
C38	C	-0.175260	-0.623313	0.000065
C39	C	-0.212032	-0.674881	0.000064
C40	C	-0.662325	-0.617486	0.000017
C41	C	-0.721727	-0.616779	0.000016
C42	C	-0.735869	-0.720623	0.000028
C43	C	-0.676473	-0.721330	0.000033
C44	C	-0.639701	-0.669757	0.000025
O45	O	-0.588514	-0.766579	0.000061
O46	O	-0.562296	-0.574452	0.000005
C47	C	0.178283	-0.667577	0.000032
C48	C	0.241500	-0.668343	0.000019
N49	N	0.074155	-0.672304	0.153309
C50	C	0.125350	-0.105856	0.000053
C51	C	0.124638	-0.046456	0.000056
O52	O	0.168424	-0.009711	0.000069
N53	N	0.072362	-0.023830	0.000066
C54	C	0.020794	-0.060607	0.000078
O55	O	-0.023737	-0.035908	0.000088
C56	C	0.021506	-0.120006	0.000079
C57	C	0.073785	-0.142629	0.000063
C58	C	0.177625	-0.128480	0.000037
C59	C	0.178336	-0.187876	0.000033
C60	C	0.126772	-0.224649	0.000043
C61	C	0.074497	-0.202025	0.000058
C62	C	-0.030062	-0.156783	0.000095
C63	C	-0.029345	-0.216185	0.000096
C64	C	0.022934	-0.238808	0.000080
C65	C	0.023643	-0.298194	0.000063
N66	N	0.075920	-0.320821	0.000054
C67	C	0.127484	-0.284048	0.000043
C68	C	0.019302	0.064135	0.000078
C69	C	0.018589	0.123533	0.000074
C70	C	0.122434	0.137680	0.000053
C71	C	0.123146	0.078281	0.000053
C72	C	0.071578	0.041509	0.000069
C73	C	0.128974	-0.408784	0.000033
C74	C	0.129680	-0.468186	0.000025
C75	C	0.025836	-0.482329	0.000049
C76	C	0.025129	-0.422932	0.000053
C77	C	0.076702	-0.386160	0.000047
O78	O	-0.020119	-0.334974	0.000053
O79	O	0.172007	-0.308756	0.000042
N80	N	0.074111	-0.672349	-0.153202
C81	C	0.035196	-0.711273	0.561962
C82	C	0.035192	-0.711276	0.623882
O83	O	0.002076	-0.744384	0.655911
N84	N	0.074115	-0.672334	0.654846
C85	C	0.113041	-0.633383	0.623887
O86	O	0.146147	-0.600260	0.655910
C87	C	0.113042	-0.633378	0.561968
C88	C	0.074120	-0.672326	0.531007
C89	C	-0.003724	-0.750218	0.531001
C90	C	-0.003719	-0.750215	0.469086
C91	C	0.035206	-0.711268	0.438131
C92	C	0.074125	-0.672323	0.469092
C93	C	0.151965	-0.594424	0.531010
C94	C	0.151962	-0.594422	0.469087
C95	C	0.113040	-0.633370	0.438126
C96	C	0.113054	-0.633374	0.376221
N97	N	0.074131	-0.672316	0.345257
C98	C	0.035207	-0.711263	0.376212
C99	C	0.113035	-0.633396	0.753921
C100	C	0.113037	-0.633403	0.815838
C101	C	0.035187	-0.711296	0.815829
C102	C	0.035188	-0.711291	0.753910
C103	C	0.074112	-0.672338	0.722957
C104	C	0.035220	-0.711255	0.246185
C105	C	0.035230	-0.711251	0.184264
C106	C	0.113078	-0.633357	0.184278
C107	C	0.113071	-0.633363	0.246194
C108	C	0.074137	-0.672314	0.277146
O109	O	0.146151	-0.600281	0.344153
O110	O	0.002101	-0.744376	0.344181
H111	H	-0.740143	-0.574205	0.000013
N112	N	0.155056	-0.591346	0.150887
H113	H	0.195447	-0.597668	0.161655
H114	H	0.149097	-0.597276	0.106975
H115	H	-0.071339	-0.246123	0.000109
H116	H	-0.193674	-0.580742	0.000062
N117	N	-0.509390	-0.831424	0.000045
H118	H	-0.534347	-0.833451	-0.036421
H119	H	-0.486003	-0.864616	0.000075
N120	N	-0.006804	-0.753293	0.720528
H121	H	-0.031913	-0.731671	0.694848
H122	H	0.014862	-0.778379	0.694863
H123	H	-0.632392	-0.575489	0.000010
H124	H	-0.219343	-0.769152	0.000080
H125	H	0.003492	-0.743008	0.841044
H126	H	0.144737	-0.601694	0.841042
H127	H	0.183658	-0.562700	0.443888
N128	N	-0.086449	-0.132390	0.000118
H129	H	-0.109034	-0.145826	-0.036339
H130	H	-0.108965	-0.145832	0.036616
H131	H	-0.035423	-0.781933	0.556199
N132	N	-0.031256	-0.398527	0.000059
H133	H	-0.063814	-0.430838	0.000062
H134	H	-0.033810	-0.374193	0.036530
H135	H	0.144736	-0.601677	0.728721
N136	N	-0.037797	0.147930	0.000080
H137	H	-0.070352	0.115616	0.000085
H138	H	-0.040353	0.172266	0.036549
N139	N	-0.006749	-0.753263	0.150870
H140	H	-0.031409	-0.777934	0.179879
H141	H	-0.031816	-0.731605	0.125181
H142	H	0.220908	-0.206289	0.000019
H143	H	-0.765820	-0.762606	0.000034
H144	H	0.172255	-0.486602	0.000012
N145	N	-0.029777	-0.521998	0.000068
H146	H	-0.063006	-0.498657	0.000079
H147	H	-0.031750	-0.546955	-0.036397
N148	N	0.178042	0.177365	0.000074
H149	H	0.200855	0.170119	0.036544
H150	H	0.200840	0.170127	-0.036411
N151	N	0.179531	0.053880	0.000044
H152	H	0.182139	0.029548	-0.036421
H153	H	0.212054	0.086224	0.000059
H154	H	0.219617	-0.098544	0.000031
N155	N	-0.006768	-0.753269	0.279563
H156	H	-0.031417	-0.777939	0.250546
H157	H	0.014910	-0.778322	0.305248
H158	H	-0.022693	0.034198	0.000085
H159	H	-0.459830	-0.525552	0.000018
H160	H	-0.035414	-0.781929	0.443881
H161	H	0.183658	-0.562709	0.556210
H162	H	-0.352085	-0.526842	0.000027
H163	H	0.144770	-0.601653	0.271403
N164	N	0.184598	-0.369129	0.000040
H165	H	0.217818	-0.392482	0.000033
H166	H	0.186571	-0.344170	-0.036422
N167	N	-0.076187	-0.568410	0.000063
H168	H	-0.083423	-0.545594	-0.036408
H169	H	-0.083449	-0.545622	0.036547
N170	N	-0.105611	-0.784256	0.000110
H171	H	-0.137925	-0.816811	0.000112
H172	H	-0.081270	-0.786824	-0.036354
N173	N	-0.385933	-0.832909	0.000056
H174	H	-0.418250	-0.865461	0.000054
H175	H	-0.361592	-0.835474	-0.036408
H176	H	-0.658053	-0.763901	0.000047
