data_functionalizedCrystal
_audit_creation_method	'MofGen! by Chris Wilmer'
_symmetry_space_group_name_H-M	'P1'
_symmetry_Int_Tables_number	1
_symmetry_cell_setting	triclinic
loop_
_symmetry_equiv_pos_as_xyz
  x,y,z
_cell_length_a	27.732048
_cell_length_b	27.732048
_cell_length_c	26.809956
_cell_angle_alpha	90.000636
_cell_angle_beta	89.996742
_cell_angle_gamma	97.357345
loop_
_atom_site_label
_atom_site_type_symbol
_atom_site_fract_x
_atom_site_fract_y
_atom_site_fract_z
O1	O	0.640931	-0.057510	-0.041421
O2	O	1.140931	0.442490	0.458579
O3	O	0.500138	-0.066256	-0.041436
O4	O	1.000138	0.433744	0.458564
O5	O	0.574907	0.008514	-0.041419
O6	O	1.074907	0.508514	0.458581
O7	O	0.566162	-0.132280	-0.041439
O8	O	1.066162	0.367720	0.458561
O9	O	0.574893	0.008502	0.041541
O10	O	1.074893	0.508502	0.541541
O11	O	0.500123	-0.066267	0.041523
O12	O	1.000123	0.433733	0.541523
O13	O	0.640917	-0.057522	0.041539
O14	O	1.140917	0.442478	0.541539
Zn15	Zn	0.570518	-0.061896	0.054702
Zn16	Zn	1.070518	0.438104	0.554702
Zn17	Zn	0.570536	-0.061881	-0.054600
Zn18	Zn	1.070536	0.438119	0.445400
O19	O	0.566147	-0.132291	0.041521
O20	O	1.066147	0.367709	0.541521
C21	C	0.482124	-0.066078	0.000041
C22	C	0.982124	0.433922	0.500041
C23	C	0.428469	-0.065525	0.000036
C24	C	0.928469	0.434475	0.500036
C25	C	0.089654	-0.106229	0.000051
C26	C	0.589654	0.393771	0.500051
C27	C	-0.112006	-0.104178	0.000056
C28	C	0.387994	0.395822	0.500056
O29	O	-0.143262	-0.141398	0.000073
O30	O	0.356738	0.358602	0.500073
N31	N	-0.131130	-0.059843	0.000062
N32	N	0.368870	0.440157	0.500062
C33	C	-0.099835	-0.016017	0.000069
C34	C	0.400165	0.483983	0.500069
O35	O	-0.120728	0.021740	0.000079
O36	O	0.379272	0.521740	0.500079
C37	C	0.101824	-0.018068	0.000068
C38	C	0.601824	0.481932	0.500068
C39	C	0.120944	-0.062407	0.000057
C40	C	0.620944	0.437593	0.500057
C41	C	0.108775	-0.150563	0.000042
C42	C	0.608775	0.349437	0.500042
C43	C	0.159187	-0.151076	0.000038
C44	C	0.659187	0.348924	0.500038
C45	C	0.190477	-0.107253	0.000044
C46	C	0.690477	0.392747	0.500044
C47	C	0.171356	-0.062919	0.000054
C48	C	0.671356	0.437081	0.500054
C49	C	0.133117	0.025757	0.000079
C50	C	0.633117	0.525757	0.500079
C51	C	0.183535	0.025240	0.000080
C52	C	0.683535	0.525240	0.500080
C53	C	0.202655	-0.019098	0.000069
C54	C	0.702655	0.480902	0.500069
C55	C	0.253059	-0.019609	0.000056
C56	C	0.753059	0.480391	0.500056
N57	N	0.272183	-0.063944	0.000050
N58	N	0.772183	0.436056	0.500050
C59	C	0.240892	-0.107766	0.000044
C60	C	0.740892	0.392234	0.500044
C61	C	-0.205709	-0.014943	0.000069
C62	C	0.294291	0.485057	0.500069
C63	C	-0.256124	-0.014430	0.000068
C64	C	0.243876	0.485570	0.500068
C65	C	-0.268291	-0.102591	0.000056
C66	C	0.231709	0.397409	0.500056
C67	C	-0.217876	-0.103104	0.000053
C68	C	0.282124	0.396896	0.500053
C69	C	-0.186585	-0.059278	0.000063
C70	C	0.313415	0.440722	0.500063
C71	C	0.346761	-0.108839	0.000036
C72	C	0.846761	0.391161	0.500036
C73	C	0.397178	-0.109347	0.000030
C74	C	0.897178	0.390653	0.500030
C75	C	0.409341	-0.021186	0.000044
C76	C	0.909341	0.478814	0.500044
C77	C	0.358929	-0.020678	0.000048
C78	C	0.858929	0.479322	0.500048
C79	C	0.327639	-0.064508	0.000045
C80	C	0.827639	0.435492	0.500045
O81	O	0.284343	0.017592	0.000045
O82	O	0.784343	0.517592	0.500045
O83	O	0.261794	-0.145518	0.000045
O84	O	0.761794	0.354482	0.500045
C85	C	0.039242	-0.105716	0.000055
C86	C	0.539242	0.394284	0.500055
C87	C	0.020120	-0.061382	0.000065
C88	C	0.520120	0.438618	0.500065
C89	C	0.051411	-0.017560	0.000071
C90	C	0.551411	0.482440	0.500071
C91	C	-0.030294	-0.060869	0.000065
C92	C	0.469706	0.439131	0.500065
C93	C	-0.061585	-0.104691	0.000059
C94	C	0.438415	0.395309	0.500059
C95	C	-0.042461	-0.149026	0.000053
C96	C	0.457539	0.350974	0.500053
C97	C	0.007951	-0.149539	0.000049
C98	C	0.507951	0.350461	0.500049
C99	C	0.032287	0.026775	0.000077
C100	C	0.532287	0.526775	0.500077
C101	C	-0.018125	0.027284	0.000080
C102	C	0.481875	0.527284	0.500080
C103	C	-0.049416	-0.016538	0.000074
C104	C	0.450584	0.483462	0.500074
C105	C	0.574716	0.026515	0.000062
C106	C	1.074716	0.526515	0.500062
C107	C	0.574164	0.080170	0.000066
C108	C	1.074164	0.580170	0.500066
C109	C	0.658931	-0.057699	0.000060
C110	C	1.158931	0.442301	0.500060
C111	C	0.712586	-0.058252	0.000062
C112	C	1.212586	0.441748	0.500062
C113	C	0.566338	-0.150292	0.000039
C114	C	1.066338	0.349708	0.500039
C115	C	0.566891	-0.203947	0.000031
C116	C	1.066891	0.296053	0.500031
N117	N	0.570509	-0.061906	0.129298
N118	N	1.070509	0.438094	0.629298
C119	C	0.614867	0.418985	0.000045
C120	C	1.114867	0.918985	0.500045
C121	C	0.612816	0.620645	0.000038
C122	C	1.112816	1.120645	0.500038
O123	O	0.650037	0.651900	0.000021
O124	O	1.150037	1.151900	0.500021
N125	N	0.568481	0.639768	0.000034
N126	N	1.068481	1.139768	0.500034
C127	C	0.524656	0.608474	0.000028
C128	C	1.024656	1.108474	0.500028
O129	O	0.486899	0.629367	0.000019
O130	O	0.986899	1.129367	0.500019
C131	C	0.526707	0.406815	0.000031
C132	C	1.026707	0.906815	0.500031
C133	C	0.571045	0.387694	0.000041
C134	C	1.071045	0.887694	0.500041
C135	C	0.659202	0.399864	0.000054
C136	C	1.159202	0.899864	0.500054
C137	C	0.659714	0.349452	0.000059
C138	C	1.159714	0.849452	0.500059
C139	C	0.615892	0.318161	0.000054
C140	C	1.115892	0.818161	0.500054
C141	C	0.571557	0.337282	0.000045
C142	C	1.071557	0.837282	0.500045
C143	C	0.482882	0.375521	0.000022
C144	C	0.982882	0.875521	0.500022
C145	C	0.483399	0.325104	0.000021
C146	C	0.983399	0.825104	0.500021
C147	C	0.527737	0.305983	0.000031
C148	C	1.027737	0.805983	0.500031
C149	C	0.528247	0.255580	0.000045
C150	C	1.028247	0.755580	0.500045
N151	N	0.572583	0.236456	0.000050
N152	N	1.072583	0.736456	0.500050
C153	C	0.616405	0.267747	0.000054
C154	C	1.116405	0.767747	0.500054
C155	C	0.523582	0.714348	0.000027
C156	C	1.023582	1.214348	0.500027
C157	C	0.523069	0.764762	0.000027
C158	C	1.023069	1.264762	0.500027
C159	C	0.611230	0.776930	0.000036
C160	C	1.111230	1.276930	0.500036
C161	C	0.611742	0.726514	0.000040
C162	C	1.111742	1.226514	0.500040
C163	C	0.567917	0.695224	0.000031
C164	C	1.067917	1.195224	0.500031
C165	C	0.617477	0.161878	0.000064
C166	C	1.117477	0.661878	0.500064
C167	C	0.617986	0.111461	0.000071
C168	C	1.117986	0.611461	0.500071
C169	C	0.529825	0.099298	0.000059
C170	C	1.029825	0.599298	0.500059
C171	C	0.529316	0.149710	0.000055
C172	C	1.029316	0.649710	0.500055
C173	C	0.573147	0.180999	0.000056
C174	C	1.073147	0.680999	0.500056
O175	O	0.491047	0.224296	0.000057
O176	O	0.991047	0.724296	0.500057
O177	O	0.654156	0.246844	0.000053
O178	O	1.154156	0.746844	0.500053
C179	C	0.614355	0.469397	0.000041
C180	C	1.114355	0.969397	0.500041
C181	C	0.570021	0.488518	0.000032
C182	C	1.070021	0.988518	0.500032
C183	C	0.526198	0.457228	0.000027
C184	C	1.026198	0.957228	0.500027
C185	C	0.569508	0.538933	0.000032
C186	C	1.069508	1.038933	0.500032
C187	C	0.613330	0.570223	0.000036
C188	C	1.113330	1.070223	0.500036
C189	C	0.657665	0.551100	0.000041
C190	C	1.157665	1.051100	0.500041
C191	C	0.658177	0.500688	0.000045
C192	C	1.158177	1.000688	0.500045
C193	C	0.481863	0.476351	0.000023
C194	C	0.981863	0.976351	0.500023
C195	C	0.481355	0.526764	0.000019
C196	C	0.981355	1.026764	0.500019
C197	C	0.525177	0.558054	0.000023
C198	C	1.025177	1.058054	0.500023
N199	N	0.570549	-0.061867	-0.129196
N200	N	1.070549	0.438133	0.370804
C201	C	0.603640	-0.028781	0.473932
C202	C	1.103640	0.471219	0.973932
C203	C	0.603652	-0.028774	0.682810
C204	C	1.103652	0.471226	1.182810
O205	O	0.631801	-0.000613	0.709820
O206	O	1.131801	0.499387	1.209820
N207	N	0.570539	-0.061870	0.708925
N208	N	1.070539	0.438130	1.208925
C209	C	0.537419	-0.094969	0.682818
C210	C	1.037419	0.405031	1.182818
O211	O	0.509252	-0.123116	0.709824
O212	O	1.009252	0.376884	1.209824
C213	C	0.537406	-0.094974	0.473941
C214	C	1.037406	0.405026	0.973941
C215	C	0.570524	-0.061878	0.447829
C216	C	1.070524	0.438122	0.947829
C217	C	0.636755	0.004312	0.447819
C218	C	1.136755	0.504312	0.947819
C219	C	0.636754	0.004308	0.395603
C220	C	1.136754	0.504308	0.895603
C221	C	0.603637	-0.028789	0.369500
C222	C	1.103637	0.471211	0.869500
C223	C	0.570522	-0.061882	0.395612
C224	C	1.070522	0.438118	0.895612
C225	C	0.504284	-0.128070	0.447835
C226	C	1.004284	0.371930	0.947835
C227	C	0.504283	-0.128067	0.395613
C228	C	1.004283	0.371933	0.895613
C229	C	0.537401	-0.094972	0.369500
C230	C	1.037401	0.405028	0.869500
C231	C	0.537405	-0.094983	0.317293
C232	C	1.037405	0.405017	0.817293
N233	N	0.570517	-0.061887	0.291177
N234	N	1.070517	0.438113	0.791177
C235	C	0.603633	-0.028790	0.317281
C236	C	1.103633	0.471210	0.817281
C237	C	0.537429	-0.094965	0.792481
C238	C	1.037429	0.405035	1.292481
C239	C	0.537433	-0.094964	0.844700
C240	C	1.037433	0.405036	1.344700
C241	C	0.603665	-0.028768	0.844689
C242	C	1.103665	0.471232	1.344689
C243	C	0.603663	-0.028772	0.792469
C244	C	1.103663	0.471228	1.292469
C245	C	0.570542	-0.061868	0.766366
C246	C	1.070542	0.438132	1.266366
C247	C	0.603628	-0.028801	0.207623
C248	C	1.103628	0.471199	0.707623
C249	C	0.603625	-0.028809	0.155402
C250	C	1.103625	0.471191	0.655402
C251	C	0.537392	-0.095003	0.155418
C252	C	1.037392	0.404997	0.655418
C253	C	0.537396	-0.094997	0.207635
C254	C	1.037396	0.405003	0.707635
C255	C	0.570516	-0.061892	0.233735
C256	C	1.070516	0.438108	0.733735
O257	O	0.509266	-0.123126	0.290250
O258	O	1.009266	0.376874	0.790250
O259	O	0.631789	-0.000640	0.290266
O260	O	1.131789	0.499360	0.790266
C261	C	0.603642	-0.028777	0.526149
C262	C	1.103642	0.471223	1.026149
C263	C	0.570527	-0.061870	0.552261
C264	C	1.070527	0.438130	1.052261
C265	C	0.537410	-0.094968	0.526158
C266	C	1.037410	0.405032	1.026158
C267	C	0.570531	-0.061870	0.604480
C268	C	1.070531	0.438130	1.104480
C269	C	0.603647	-0.028773	0.630584
C270	C	1.103647	0.471227	1.130584
C271	C	0.636759	0.004324	0.604468
C272	C	1.136759	0.504324	1.104468
C273	C	0.636758	0.004320	0.552252
C274	C	1.136758	0.504320	1.052252
C275	C	0.504298	-0.128064	0.552273
C276	C	1.004298	0.371936	1.052273
C277	C	0.504303	-0.128058	0.604489
C278	C	1.004303	0.371942	1.104489
C279	C	0.537419	-0.094961	0.630593
C280	C	1.037419	0.405039	1.130593
H281	H	-0.202311	-0.139207	0.000047
H282	H	0.297689	0.360793	0.500047
O283	O	0.472045	-0.160171	0.473169
O284	O	0.972045	0.339829	0.973169
C285	C	0.424259	-0.152642	0.460396
C286	C	0.924259	0.347358	0.960396
H287	H	0.424321	-0.113939	0.446046
H288	H	0.924321	0.386061	0.946046
H289	H	0.399953	-0.158371	0.494734
H290	H	0.899953	0.341629	0.994734
H291	H	0.409862	-0.179528	0.430080
H292	H	0.909862	0.320472	0.930080
O293	O	0.668945	0.036518	0.526967
O294	O	1.168945	0.536518	1.026967
C295	C	0.698179	0.065719	0.561213
C296	C	1.198179	0.565719	1.061213
H297	H	0.678363	0.066124	0.598437
H298	H	1.178363	0.566124	1.098437
H299	H	0.705843	0.104376	0.546130
H300	H	1.205843	0.604376	1.046130
H301	H	0.733968	0.050270	0.566765
H302	H	1.233968	0.550270	1.066765
O303	O	0.701235	0.482094	0.000139
O304	O	1.201235	0.982094	0.500139
C305	C	0.704164	0.453288	0.043098
C306	C	1.204164	0.953288	0.543098
H307	H	0.678990	0.465023	0.073127
H308	H	1.178990	0.965023	0.573127
H309	H	0.743155	0.458104	0.057523
H310	H	1.243155	0.958104	0.557523
H311	H	0.692718	0.413444	0.033384
H312	H	1.192718	0.913444	0.533384
H313	H	0.445246	0.542327	0.000015
H314	H	0.945246	1.042327	0.500015
H315	H	0.510433	-0.121951	0.228896
H316	H	1.010433	0.378049	0.728896
O317	O	0.439248	0.446028	0.000044
O318	O	0.939248	0.946028	0.500044
C319	C	0.400012	0.473724	0.000026
C320	C	0.900012	0.973724	0.500026
H321	H	0.412573	0.511446	0.015727
H322	H	0.912573	1.011446	0.515727
H323	H	0.369326	0.454909	0.024112
H324	H	0.869326	0.954909	0.524112
H325	H	0.386407	0.477212	-0.039775
H326	H	0.886407	0.977212	0.460225
H327	H	-0.033688	0.063392	0.000085
H328	H	0.466312	0.563392	0.500085
H329	H	0.510430	-0.121952	0.134157
H330	H	1.010430	0.378048	0.634157
O331	O	0.480041	0.783414	0.000044
O332	O	0.980041	1.283414	0.500044
C333	C	0.488979	0.834621	0.000031
C334	C	0.988979	1.334621	0.500031
H335	H	0.526787	0.846741	0.015743
H336	H	1.026787	1.346741	0.515743
H337	H	0.460624	0.849892	0.024110
H338	H	0.960624	1.349892	0.524110
H339	H	0.486751	0.848638	-0.039770
H340	H	0.986751	1.348638	0.460230
H341	H	0.487892	0.688875	0.000020
H342	H	0.987892	1.188875	0.500020
O343	O	0.635781	0.003422	0.232919
O344	O	1.135781	0.503422	0.732919
C345	C	0.628275	0.051219	0.220162
C346	C	1.128275	0.551219	0.720162
H347	H	0.609638	0.051025	0.182251
H348	H	1.109638	0.551025	0.682251
H349	H	0.664787	0.075274	0.218366
H350	H	1.164787	0.575274	0.718366
H351	H	0.604331	0.066007	0.249554
H352	H	1.104331	0.566007	0.749554
H353	H	0.647846	0.710950	0.000047
H354	H	1.147846	1.210950	0.500047
O355	O	0.505332	-0.127164	0.870086
O356	O	1.005332	0.372836	1.370086
C357	C	0.530991	-0.156803	0.900298
C358	C	1.030991	0.343197	1.400298
H359	H	0.569104	-0.157358	0.884560
H360	H	1.069104	0.342642	1.384560
H361	H	0.510979	-0.195360	0.900889
H362	H	1.010979	0.304640	1.400889
H363	H	0.533637	-0.141659	0.939875
H364	H	1.033637	0.358341	1.439875
H365	H	0.321291	-0.144530	0.000035
H366	H	0.821291	0.355470	0.500035
O367	O	0.653831	0.807281	-0.000029
O368	O	1.153831	1.307281	0.499971
C369	C	0.680769	0.798673	-0.043001
C370	C	1.180769	1.298673	0.456999
H371	H	0.668613	0.760337	-0.057323
H372	H	1.168613	1.260337	0.442677
H373	H	0.721112	0.802521	-0.033340
H374	H	1.221112	1.302521	0.466660
H375	H	0.674366	0.826200	-0.073088
H376	H	1.174366	1.326200	0.426912
O377	O	0.439673	0.021425	0.000027
O378	O	0.939673	0.521425	0.500027
C379	C	0.411990	0.060671	0.000049
C380	C	0.911990	0.560671	0.500049
H381	H	0.374269	0.048122	-0.015658
H382	H	0.874269	0.548122	0.484342
H383	H	0.430818	0.091355	-0.024030
H384	H	0.930818	0.591355	0.475970
H385	H	0.408500	0.074272	0.039852
H386	H	0.908500	0.574272	0.539852
H387	H	0.477330	-0.155015	0.531024
H388	H	0.977330	0.344985	1.031024
H389	H	0.630630	-0.001820	0.865951
H390	H	1.130630	0.498180	1.365951
H391	H	0.446777	0.391080	0.000011
H392	H	0.946777	0.891080	0.500011
H393	H	0.663726	0.031271	0.625730
H394	H	1.163726	0.531271	1.125730
O395	O	0.026441	-0.192652	0.000065
O396	O	0.526441	0.307348	0.500065
C397	C	-0.011996	-0.231215	0.000048
C398	C	0.488004	0.268785	0.500048
H399	H	-0.046147	-0.217922	0.015756
H400	H	0.453853	0.282078	0.515756
H401	H	-0.001693	-0.262197	0.024129
H402	H	0.498307	0.237803	0.524129
H403	H	-0.019229	-0.244708	-0.039754
H404	H	0.480771	0.255292	0.460246
H405	H	0.447710	0.299629	0.000014
H406	H	0.947710	0.799629	0.500014
O407	O	0.700222	0.581520	-0.000044
O408	O	1.200222	1.081520	0.499956
C409	C	0.702557	0.611050	-0.043006
C410	C	1.202557	1.111050	0.456994
H411	H	0.677703	0.592398	-0.073036
H412	H	1.177703	1.092398	0.426964
H413	H	0.741539	0.617009	-0.057426
H414	H	1.241539	1.117009	0.442574
H415	H	0.690319	0.647622	-0.033296
H416	H	1.190319	1.147622	0.466704
H417	H	-0.067947	-0.184708	0.000046
H418	H	0.432053	0.315292	0.500046
H419	H	0.477335	-0.155012	0.625747
H420	H	0.977335	0.344988	1.125747
H421	H	0.493213	0.165279	0.000061
H422	H	0.993213	0.665279	0.500061
H423	H	0.477310	-0.155018	0.374362
H424	H	0.977310	0.344982	0.874362
H425	H	0.494146	0.073812	0.000057
H426	H	0.994146	0.573812	0.500057
H427	H	0.412743	-0.145454	0.000021
H428	H	0.912743	0.354546	0.500021
O429	O	0.062611	0.069391	0.000058
O430	O	0.562611	0.569391	0.500058
C431	C	0.034915	0.108627	0.000077
C432	C	0.534915	0.608627	0.500077
H433	H	-0.002806	0.096065	-0.015626
H434	H	0.497194	0.596065	0.484374
H435	H	0.053731	0.139312	-0.024007
H436	H	0.553731	0.639312	0.475993
H437	H	0.031423	0.122231	0.039879
H438	H	0.531423	0.622231	0.539879
H439	H	0.663720	0.031258	0.374345
H440	H	1.163720	0.531258	0.874345
O441	O	0.635724	0.003350	0.129959
O442	O	1.135724	0.503350	0.629959
C443	C	0.628587	-0.003710	0.078271
C444	C	1.128587	0.496290	0.578271
H445	H	0.610310	-0.042291	0.071119
H446	H	1.110310	0.457709	0.571119
H447	H	0.665214	0.002019	0.058392
H448	H	1.165214	0.502019	0.558392
H449	H	0.604468	0.023433	0.063505
H450	H	1.104468	0.523433	0.563505
O451	O	0.177676	-0.194189	0.000056
O452	O	0.677676	0.305811	0.500056
C453	C	0.139240	-0.232752	0.000040
C454	C	0.639240	0.267248	0.500040
H455	H	0.105088	-0.219458	0.015746
H456	H	0.605088	0.280542	0.515746
H457	H	0.149542	-0.263732	0.024125
H458	H	0.649542	0.236268	0.524125
H459	H	0.132009	-0.246248	-0.039760
H460	H	0.632009	0.253752	0.460240
O461	O	0.668975	0.036482	0.473094
O462	O	1.168975	0.536482	0.973094
C463	C	0.698188	0.065695	0.438839
C464	C	1.198188	0.565695	0.938839
H465	H	0.698573	0.045874	0.401617
H466	H	1.198573	0.545874	0.901617
H467	H	0.736850	0.073333	0.453913
H468	H	1.236850	0.573333	0.953913
H469	H	0.682766	0.101498	0.433286
H470	H	1.182766	0.601498	0.933286
H471	H	0.083302	-0.186251	0.000038
H472	H	0.583302	0.313749	0.500038
H473	H	0.630630	-0.001822	0.771211
H474	H	1.130630	0.498178	1.271211
O475	O	-0.298760	-0.145116	0.000073
O476	O	0.201240	0.354884	0.500073
C477	C	-0.347355	-0.135150	0.000062
C478	C	0.152645	0.364850	0.500062
H479	H	-0.349006	-0.097197	0.015769
H480	H	0.150994	0.402803	0.515769
H481	H	-0.370407	-0.163104	0.024146
H482	H	0.129593	0.336896	0.524146
H483	H	-0.361948	-0.137091	-0.039738
H484	H	0.138052	0.362909	0.460262
O485	O	0.661101	0.092968	0.000056
O486	O	1.161101	0.592968	0.500056
C487	C	0.699668	0.131401	0.000070
C488	C	1.199668	0.631401	0.500070
H489	H	0.686380	0.165552	-0.015640
H490	H	1.186380	0.665552	0.484360
H491	H	0.730649	0.121091	-0.024011
H492	H	1.230649	0.621091	0.475989
H493	H	0.713160	0.138637	0.039870
H494	H	1.213160	0.638637	0.539870
H495	H	0.653168	0.187348	0.000063
H496	H	1.153168	0.687348	0.500063
O497	O	0.340296	0.022361	0.000120
O498	O	0.840296	0.522361	0.500120
C499	C	0.311512	0.025296	0.043097
C500	C	0.811512	0.525296	0.543097
H501	H	0.298674	-0.012900	0.057416
H502	H	0.798674	0.487100	0.557416
H503	H	0.278637	0.044317	0.033444
H504	H	0.778637	0.544317	0.533444
H505	H	0.333948	0.046845	0.073184
H506	H	0.833948	0.546845	0.573184
H507	H	0.510457	-0.121917	0.771232
H508	H	1.010457	0.378083	1.271232
O509	O	-0.274614	0.028683	0.000094
O510	O	0.225386	0.528683	0.500094
C511	C	-0.236179	0.067248	0.000088
C512	C	0.263821	0.567248	0.500088
H513	H	-0.202029	0.053953	0.015792
H514	H	0.297971	0.553953	0.515792
H515	H	-0.246487	0.098223	0.024179
H516	H	0.253513	0.598223	0.524179
H517	H	-0.228943	0.080752	-0.039709
H518	H	0.271057	0.580752	0.460291
O519	O	-0.175269	0.027601	0.000007
O520	O	0.324731	0.527601	0.500007
C521	C	-0.145749	0.029956	-0.042965
C522	C	0.354251	0.529956	0.457035
H523	H	-0.143471	-0.008390	-0.057292
H524	H	0.356529	0.491610	0.442708
H525	H	-0.107726	0.048258	-0.033302
H526	H	0.392274	0.548258	0.466698
H527	H	-0.162180	0.051903	-0.073050
H528	H	0.337820	0.551903	0.426950
H529	H	0.117558	0.061861	0.000088
H530	H	0.617558	0.561861	0.500088
O531	O	0.213910	0.067826	-0.000001
O532	O	0.713910	0.567826	0.499999
C533	C	0.205282	0.094779	-0.042955
C534	C	0.705282	0.594779	0.457045
H535	H	0.187864	0.069132	-0.072988
H536	H	0.687864	0.569132	0.427012
H537	H	0.241196	0.114440	-0.057376
H538	H	0.741196	0.614440	0.442624
H539	H	0.179811	0.122558	-0.033234
H540	H	0.679811	0.622558	0.466766
O541	O	0.702827	0.330962	0.000042
O542	O	1.202827	0.830962	0.500042
C543	C	0.741390	0.369399	0.000057
C544	C	1.241390	0.869399	0.500057
H545	H	0.728098	0.403549	-0.015651
H546	H	1.228098	0.903549	0.484349
H547	H	0.772373	0.359094	-0.024026
H548	H	1.272373	0.859094	0.475974
H549	H	0.754883	0.376634	0.039858
H550	H	1.254883	0.876634	0.539858
O551	O	0.701762	0.430274	-0.000029
O552	O	1.201762	0.930274	0.499971
C553	C	0.704116	0.459812	-0.042986
C554	C	1.204116	0.959812	0.457014
H555	H	0.679260	0.441173	-0.073022
H556	H	1.179260	0.941173	0.426978
H557	H	0.743100	0.465757	-0.057400
H558	H	1.243100	0.965757	0.442600
H559	H	0.691892	0.496389	-0.033273
H560	H	1.191892	0.996389	0.466727
