data_functionalizedCrystal
_audit_creation_method	'MofGen! by Chris Wilmer'
_symmetry_space_group_name_H-M	'P1'
_symmetry_Int_Tables_number	1
_symmetry_cell_setting	triclinic
loop_
_symmetry_equiv_pos_as_xyz
  x,y,z
_cell_length_a	15.537862
_cell_length_b	19.188924
_cell_length_c	14.185328
_cell_angle_alpha	104.820741
_cell_angle_beta	108.250482
_cell_angle_gamma	65.203199
loop_
_atom_site_label
_atom_site_type_symbol
_atom_site_fract_x
_atom_site_fract_y
_atom_site_fract_z
O1	O	1.269931	-0.217781	0.083354
O2	O	1.603265	0.115553	0.416687
O3	O	1.936598	0.448886	0.750020
O4	O	0.995327	-0.137059	0.083372
O5	O	1.328660	0.196274	0.416706
O6	O	1.661994	0.529607	0.750039
O7	O	1.140554	-0.281069	0.083351
O8	O	1.473888	0.052264	0.416684
O9	O	1.807221	0.385598	0.750017
O10	O	1.124704	-0.073771	0.083375
O11	O	1.458037	0.259562	0.416709
O12	O	1.791371	0.592896	0.750042
O13	O	1.102488	-0.299682	-0.083493
O14	O	1.435822	0.033652	0.249841
O15	O	1.769155	0.366985	0.583174
O16	O	0.957261	-0.155672	-0.083471
O17	O	1.290594	0.177661	0.249862
O18	O	1.623928	0.510995	0.583195
O19	O	1.231865	-0.236393	-0.083490
O20	O	1.565199	0.096940	0.249844
O21	O	1.898532	0.430273	0.583177
Cu22	Cu	1.091087	-0.197732	-0.098715
Cu23	Cu	1.424421	0.135601	0.234619
Cu24	Cu	1.757754	0.468934	0.567952
Cu25	Cu	1.136105	-0.175720	0.098597
Cu26	Cu	1.469438	0.157613	0.431931
Cu27	Cu	1.802772	0.490946	0.765264
O28	O	1.086638	-0.092384	-0.083468
O29	O	1.419971	0.240950	0.249865
O30	O	1.753305	0.574283	0.583199
C31	C	0.941162	-0.137920	-0.000047
C32	C	1.274495	0.195414	0.333286
C33	C	1.607829	0.528747	0.666619
C34	C	0.836480	-0.112762	-0.000041
C35	C	1.169813	0.220572	0.333293
C36	C	1.503147	0.553905	0.666626
C37	C	0.677431	-0.010787	-0.000024
C38	C	1.010765	0.322546	0.333309
C39	C	1.344098	0.655880	0.666642
C40	C	0.775798	-0.034434	-0.000030
C41	C	1.109131	0.298899	0.333303
C42	C	1.442464	0.632232	0.666637
C43	C	0.798811	-0.167473	-0.000051
C44	C	1.132145	0.165860	0.333283
C45	C	1.465478	0.499193	0.666616
C46	C	0.700444	-0.143838	-0.000050
C47	C	1.033777	0.189496	0.333284
C48	C	1.367111	0.522829	0.666617
C49	C	0.639762	-0.065493	-0.000035
C50	C	0.973095	0.267840	0.333298
C51	C	1.306428	0.601173	0.666631
C52	C	0.662774	-0.198544	-0.000061
C53	C	0.996108	0.134790	0.333272
C54	C	1.329441	0.468123	0.666606
C55	C	0.564417	-0.174909	-0.000055
C56	C	0.897750	0.158424	0.333279
C57	C	1.231083	0.491758	0.666612
C58	C	0.503729	-0.096568	-0.000038
C59	C	0.837062	0.236765	0.333296
C60	C	1.170396	0.570099	0.666629
C61	C	0.541404	-0.041859	-0.000029
C62	C	0.874737	0.291475	0.333304
C63	C	1.208071	0.624808	0.666637
C64	C	0.723460	-0.276887	-0.000068
C65	C	1.056793	0.056447	0.333265
C66	C	1.390127	0.389780	0.666599
C67	C	0.685790	-0.331593	-0.000079
C68	C	1.019124	0.001740	0.333254
C69	C	1.352457	0.335074	0.666587
C70	C	0.587429	-0.307959	-0.000080
C71	C	0.920763	0.025374	0.333253
C72	C	1.254096	0.358707	0.666586
C73	C	0.526742	-0.229618	-0.000063
C74	C	0.860075	0.103715	0.333270
C75	C	1.193408	0.437048	0.666604
C76	C	0.549754	-0.362669	-0.000088
C77	C	0.883088	-0.029336	0.333245
C78	C	1.216421	0.303998	0.666578
C79	C	0.451397	-0.339034	-0.000082
C80	C	0.784730	-0.005701	0.333251
C81	C	1.118063	0.327632	0.666584
C82	C	0.428384	-0.205984	-0.000057
C83	C	0.761717	0.127350	0.333276
C84	C	1.095051	0.460683	0.666610
C85	C	1.121009	-0.316258	-0.000072
C86	C	1.454342	0.017076	0.333261
C87	C	1.787675	0.350409	0.666595
C88	C	1.119470	-0.393376	-0.000075
C89	C	1.452803	-0.060043	0.333259
C90	C	1.786137	0.273290	0.666592
C91	C	1.139502	-0.419449	0.090872
C92	C	1.472835	-0.086116	0.424205
C93	C	1.806169	0.247217	0.757539
C94	C	1.138045	-0.491905	0.090880
C95	C	1.471378	-0.158571	0.424213
C96	C	1.804712	0.174762	0.757547
C97	C	1.116574	-0.538292	-0.000064
C98	C	1.449908	-0.204958	0.333269
C99	C	1.783241	0.128375	0.666602
C100	C	1.096534	-0.512210	-0.091023
C101	C	1.429868	-0.178876	0.242310
C102	C	1.763201	0.154457	0.575644
C103	C	1.097982	-0.439752	-0.091028
C104	C	1.431316	-0.106419	0.242305
C105	C	1.764649	0.226915	0.575639
N106	N	1.152521	-0.678416	-0.067755
N107	N	1.485854	-0.345083	0.265578
N108	N	1.819187	-0.011750	0.598911
N109	N	1.151148	-0.747248	-0.067744
N110	N	1.484482	-0.413915	0.265589
N111	N	1.817815	-0.080581	0.598922
C112	C	1.112208	-0.756602	-0.000054
C113	C	1.445542	-0.423269	0.333279
C114	C	1.778875	-0.089936	0.666612
N115	N	1.074707	-0.694527	0.067640
N116	N	1.408041	-0.361194	0.400973
N117	N	1.741374	-0.027861	0.734306
N118	N	1.076084	-0.625690	0.067631
N119	N	1.409418	-0.292357	0.400965
N120	N	1.742751	0.040976	0.734298
C121	C	1.115001	-0.616861	-0.000069
C122	C	1.448335	-0.283527	0.333265
C123	C	1.781668	0.049806	0.666598
C124	C	1.130661	-0.861238	0.090907
C125	C	1.463994	-0.527905	0.424240
C126	C	1.797327	-0.194572	0.757574
C127	C	1.129197	-0.933694	0.090911
C128	C	1.462530	-0.600360	0.424244
C129	C	1.795864	-0.267027	0.757578
C130	C	1.087695	-0.954001	-0.090994
C131	C	1.421028	-0.620668	0.242339
C132	C	1.754362	-0.287334	0.575672
C133	C	1.089150	-0.881544	-0.090996
C134	C	1.422483	-0.548210	0.242338
C135	C	1.755816	-0.214877	0.575671
C136	C	1.110638	-0.835168	-0.000042
C137	C	1.443971	-0.501835	0.333291
C138	C	1.777304	-0.168501	0.666624
C139	C	1.286031	-0.235533	-0.000068
C140	C	1.619364	0.097800	0.333265
C141	C	1.952697	0.431134	0.666599
C142	C	1.390714	-0.260690	-0.000068
C143	C	1.724048	0.072643	0.333265
C144	C	2.057381	0.405977	0.666599
C145	C	1.106184	-0.057195	-0.000043
C146	C	1.439517	0.276139	0.333290
C147	C	1.772851	0.609472	0.666623
C148	C	1.107724	0.019925	-0.000034
C149	C	1.441058	0.353258	0.333299
C150	C	1.774391	0.686591	0.666633
N151	N	1.059432	-0.213216	-0.237493
N152	N	1.392765	0.120117	0.095840
N153	N	1.726098	0.453450	0.429174
C154	C	1.260697	-0.114713	-0.605096
C155	C	1.594030	0.218621	-0.271762
C156	C	1.927364	0.551954	0.061571
C157	C	1.236740	-0.126458	-0.710123
C158	C	1.570074	0.206875	-0.376790
C159	C	1.903407	0.540209	-0.043456
C160	C	1.122722	-0.182294	-0.710111
C161	C	1.456056	0.151039	-0.376777
C162	C	1.789389	0.484373	-0.043444
C163	C	1.146666	-0.170550	-0.605081
C164	C	1.480000	0.162783	-0.271748
C165	C	1.813333	0.496117	0.061585
C166	C	1.215655	-0.136760	-0.552582
C167	C	1.548988	0.196573	-0.219249
C168	C	1.882322	0.529907	0.114085
C169	C	1.101624	-0.192597	-0.552568
C170	C	1.434958	0.140736	-0.219234
C171	C	1.768291	0.474069	0.114099
C172	C	1.125570	-0.180858	-0.447548
C173	C	1.458904	0.152475	-0.114214
C174	C	1.792237	0.485809	0.219119
C175	C	1.194558	-0.147071	-0.395041
C176	C	1.527892	0.186262	-0.061708
C177	C	1.861225	0.519596	0.271626
C178	C	1.239601	-0.125020	-0.447562
C179	C	1.572934	0.208313	-0.114229
C180	C	1.906268	0.541646	0.219105
C181	C	1.032641	-0.226392	-0.605069
C182	C	1.365974	0.106941	-0.271736
C183	C	1.699308	0.440274	0.061598
C184	C	0.987599	-0.248440	-0.552555
C185	C	1.320932	0.084894	-0.219222
C186	C	1.654265	0.418227	0.114111
C187	C	1.011539	-0.236695	-0.447533
C188	C	1.344873	0.096638	-0.114200
C189	C	1.678206	0.429971	0.219133
C190	C	1.080528	-0.202909	-0.395027
C191	C	1.413861	0.130425	-0.061693
C192	C	1.747194	0.463758	0.271640
C193	C	0.966497	-0.258746	-0.395012
C194	C	1.299830	0.074587	-0.061679
C195	C	1.633163	0.407921	0.271654
C196	C	0.990443	-0.247006	-0.289992
C197	C	1.323776	0.086327	0.043341
C198	C	1.657110	0.419660	0.376674
C199	C	1.104474	-0.191169	-0.290007
C200	C	1.437807	0.142164	0.043327
C201	C	1.771140	0.475498	0.376660
N202	N	1.167768	-0.160244	0.237376
N203	N	1.501102	0.173089	0.570709
N204	N	1.834435	0.506423	0.904042
H205	H	0.378969	-0.142190	-0.000059
H206	H	0.712303	0.191144	0.333274
H207	H	1.045636	0.524477	0.666608
F208	F	0.942520	-0.270487	-0.234100
F209	F	1.275853	0.062847	0.099233
F210	F	1.609186	0.396180	0.432566
H211	H	1.072845	-0.860319	-0.165055
H212	H	1.406179	-0.526985	0.168279
H213	H	1.739512	-0.193652	0.501612
F214	F	0.614350	-0.446044	-0.000093
F215	F	0.947684	-0.112711	0.333240
F216	F	1.281017	0.220622	0.666573
H217	H	1.066554	-0.209809	-0.752870
H218	H	1.399887	0.123524	-0.419537
H219	H	1.733221	0.456857	-0.086203
H220	H	1.013152	-0.235956	-0.690583
H221	H	1.346485	0.097378	-0.357250
H222	H	1.679819	0.430711	-0.023916
H223	H	1.156996	-0.381693	0.164934
H224	H	1.490330	-0.048360	0.498267
H225	H	1.823663	0.284974	0.831600
F226	F	0.914178	-0.284401	-0.608440
F227	F	1.247511	0.048932	-0.275106
F228	F	1.580845	0.382266	0.058227
F229	F	0.612839	0.072594	-0.000027
F230	F	0.946172	0.405928	0.333306
F231	F	1.279505	0.739261	0.666640
H232	H	1.154352	-0.513135	0.164942
H233	H	1.487686	-0.179802	0.498275
H234	H	1.821019	0.153531	0.831609
H235	H	0.806460	0.010119	-0.000033
H236	H	1.139793	0.343452	0.333301
H237	H	1.473127	0.676785	0.666634
F238	F	0.863403	-0.250850	-0.000066
F239	F	1.196737	0.082483	0.333268
F240	F	1.530070	0.415817	0.666601
F241	F	1.073677	-0.561577	-0.187812
F242	F	1.407011	-0.228244	0.145521
F243	F	1.740344	0.105090	0.478855
H244	H	0.803553	-0.296125	-0.000054
H245	H	1.136886	0.037208	0.333279
H246	H	1.470219	0.370541	0.666612
F247	F	0.399048	-0.071413	-0.000027
F248	F	0.732381	0.261920	0.333306
F249	F	1.065714	0.595254	0.666639
H250	H	0.735212	-0.395381	-0.000087
H251	H	1.068545	-0.062047	0.333246
H252	H	1.401878	0.271286	0.666579
H253	H	1.081665	-0.418524	-0.165090
H254	H	1.414999	-0.085191	0.168243
H255	H	1.748332	0.248142	0.501577
H256	H	0.420726	-0.383581	-0.000090
H257	H	0.754060	-0.050248	0.333243
H258	H	1.087393	0.283085	0.666577
H259	H	1.273424	-0.108501	-0.752876
H260	H	1.606757	0.224832	-0.419542
H261	H	1.940091	0.558166	-0.086209
H262	H	1.214056	-0.137515	-0.309527
H263	H	1.547389	0.195818	0.023806
H264	H	1.880723	0.529152	0.357140
H265	H	1.160641	-0.163643	-0.247259
H266	H	1.493974	0.169690	0.086075
H267	H	1.827307	0.503023	0.419408
H268	H	0.910333	-0.286265	-0.437773
H269	H	1.243666	0.047068	-0.104440
H270	H	1.576999	0.380402	0.228894
H271	H	1.148152	-0.823475	0.164967
H272	H	1.481485	-0.490142	0.498300
H273	H	1.814818	-0.156809	0.831633
F274	F	0.476811	0.041523	-0.000032
F275	F	0.810145	0.374856	0.333301
F276	F	1.143478	0.708189	0.666635
F277	F	1.150513	-0.961438	0.187714
F278	F	1.483846	-0.628105	0.521048
F279	F	1.817179	-0.294772	0.854381
F280	F	1.064839	-1.003363	-0.187785
F281	F	1.398172	-0.670030	0.145548
F282	F	1.731506	-0.336696	0.478882
H283	H	1.295768	-0.097495	-0.404814
H284	H	1.629101	0.235838	-0.071481
H285	H	1.962435	0.569172	0.261853
H286	H	1.316864	-0.087187	-0.562348
H287	H	1.650198	0.246146	-0.229014
H288	H	1.983531	0.579480	0.104319
