data_functionalizedCrystal
_audit_creation_method	'MofGen! by Chris Wilmer'
_symmetry_space_group_name_H-M	'P1'
_symmetry_Int_Tables_number	1
_symmetry_cell_setting	triclinic
loop_
_symmetry_equiv_pos_as_xyz
  x,y,z
_cell_length_a	12.837943
_cell_length_b	12.996460
_cell_length_c	12.837942
_cell_angle_alpha	89.994579
_cell_angle_beta	85.171060
_cell_angle_gamma	90.004257
loop_
_atom_site_label
_atom_site_type_symbol
_atom_site_fract_x
_atom_site_fract_y
_atom_site_fract_z
O1	O	1.402337	0.085548	-0.272142
O2	O	1.735671	0.418881	0.061191
O3	O	2.069004	0.752214	0.394524
O4	O	1.099204	0.085554	-0.258699
O5	O	1.432537	0.418887	0.074634
O6	O	1.765871	0.752220	0.407967
O7	O	1.244049	0.085544	-0.113854
O8	O	1.577382	0.418878	0.219479
O9	O	1.910716	0.752211	0.552813
O10	O	1.257492	0.085557	-0.416988
O11	O	1.590826	0.418890	-0.083654
O12	O	1.924159	0.752223	0.249679
O13	O	1.244031	-0.085589	-0.113844
O14	O	1.577365	0.247744	0.219490
O15	O	1.910698	0.581077	0.552823
O16	O	1.099186	-0.085580	-0.258689
O17	O	1.432520	0.247753	0.074645
O18	O	1.765853	0.581087	0.407978
O19	O	1.402320	-0.085586	-0.272132
O20	O	1.735653	0.247747	0.061201
O21	O	2.068986	0.581080	0.394535
Cu22	Cu	1.250751	-0.101209	-0.265409
Cu23	Cu	1.584085	0.232124	0.067924
Cu24	Cu	1.917418	0.565458	0.401257
Cu25	Cu	1.250772	0.101176	-0.265422
Cu26	Cu	1.584106	0.434510	0.067912
Cu27	Cu	1.917439	0.767843	0.401245
O28	O	1.257475	-0.085577	-0.416977
O29	O	1.590808	0.247756	-0.083644
O30	O	1.924141	0.581090	0.249690
C31	C	1.060126	-0.000013	-0.254153
C32	C	1.393459	0.333321	0.079181
C33	C	1.726793	0.666654	0.412514
C34	C	0.943711	-0.000010	-0.240608
C35	C	1.277044	0.333323	0.092725
C36	C	1.610378	0.666656	0.426059
N37	N	1.250744	-0.243556	-0.265401
N38	N	1.584078	0.089777	0.067933
N39	N	1.917411	0.423110	0.401266
C40	C	0.718837	-0.000018	-0.403437
C41	C	1.052170	0.333315	-0.070104
C42	C	1.385503	0.666648	0.263229
C43	C	0.609454	-0.000017	-0.390716
C44	C	0.942788	0.333316	-0.057383
C45	C	1.276121	0.666650	0.275951
C46	C	0.615562	-0.000014	-0.202445
C47	C	0.948895	0.333320	0.130888
C48	C	1.282228	0.666653	0.464222
C49	C	0.724944	-0.000015	-0.215166
C50	C	1.058277	0.333318	0.118167
C51	C	1.391611	0.666652	0.451500
C52	C	0.776578	-0.000016	-0.315666
C53	C	1.109911	0.333317	0.017668
C54	C	1.443244	0.666651	0.351001
C55	C	0.885962	-0.000010	-0.328386
C56	C	1.219295	0.333324	0.004947
C57	C	1.552629	0.666657	0.338280
C58	C	0.892067	-0.000014	-0.140116
C59	C	1.225401	0.333319	0.193217
C60	C	1.558734	0.666653	0.526551
C61	C	0.782685	-0.000013	-0.127395
C62	C	1.116018	0.333321	0.205939
C63	C	1.449352	0.666654	0.539272
C64	C	1.250771	-0.663370	-0.265423
C65	C	1.584104	-0.330037	0.067911
C66	C	1.917438	0.003296	0.401244
C67	C	1.250761	-0.546565	-0.265420
C68	C	1.584094	-0.213232	0.067914
C69	C	1.917427	0.120101	0.401247
C70	C	1.250758	-0.453467	-0.265413
C71	C	1.584092	-0.120134	0.067921
C72	C	1.917425	0.213200	0.401254
C73	C	1.250747	-0.336654	-0.265408
C74	C	1.584080	-0.003321	0.067925
C75	C	1.917414	0.330012	0.401259
C76	C	1.441398	-0.000018	-0.276679
C77	C	1.774731	0.333316	0.056655
C78	C	2.108064	0.666649	0.389988
C79	C	1.557813	-0.000013	-0.290223
C80	C	1.891146	0.333320	0.043110
C81	C	2.224479	0.666653	0.376444
C82	C	1.239499	-0.000022	-0.074780
C83	C	1.572832	0.333311	0.258554
C84	C	1.906165	0.666645	0.591887
C85	C	1.225954	-0.000020	0.041635
C86	C	1.559288	0.333313	0.374969
C87	C	1.892621	0.666647	0.708302
N88	N	1.250787	0.243524	-0.265423
N89	N	1.584120	0.576857	0.067910
N90	N	1.917453	0.910190	0.401244
C91	C	1.262025	-0.000008	-0.456051
C92	C	1.595358	0.333325	-0.122718
C93	C	1.928692	0.666658	0.210615
C94	C	1.275569	-0.000004	-0.572467
C95	C	1.608903	0.333330	-0.239133
C96	C	1.942236	0.666663	0.094200
C97	C	1.388784	-0.000002	0.266510
C98	C	1.722117	0.333332	0.599843
C99	C	2.055450	0.666665	0.933176
C100	C	1.376062	0.000000	0.375892
C101	C	1.709396	0.333334	0.709225
C102	C	2.042729	0.666667	1.042559
C103	C	1.187791	-0.000007	0.369785
C104	C	1.521125	0.333327	0.703118
C105	C	1.854458	0.666660	1.036451
C106	C	1.200513	-0.000009	0.260402
C107	C	1.533846	0.333325	0.593736
C108	C	1.867179	0.666658	0.927069
C109	C	1.301012	-0.000008	0.208769
C110	C	1.634345	0.333326	0.542102
C111	C	1.967679	0.666659	0.875435
C112	C	1.313732	-0.000017	0.099384
C113	C	1.647066	0.333316	0.432717
C114	C	1.980399	0.666650	0.766051
C115	C	1.125462	-0.000017	0.093279
C116	C	1.458796	0.333317	0.426612
C117	C	1.792129	0.666650	0.759946
C118	C	1.112741	-0.000015	0.202661
C119	C	1.446074	0.333319	0.535995
C120	C	1.779408	0.666652	0.869328
H121	H	0.760878	-0.000017	-0.485268
H122	H	1.094211	0.333316	-0.151935
H123	H	1.427544	0.666649	0.181399
N124	N	1.079403	0.000004	0.425484
N125	N	1.412737	0.333337	0.758817
N126	N	1.746070	0.666670	1.092151
H127	H	1.084668	0.000010	0.503538
H128	H	1.418001	0.333343	0.836872
H129	H	1.751335	0.666677	1.170205
H130	H	1.040513	-0.063440	0.405047
H131	H	1.373847	0.269893	0.738380
H132	H	1.707180	0.603226	1.071714
H133	H	0.928000	-0.000012	-0.410218
H134	H	1.261334	0.333321	-0.076884
H135	H	1.594667	0.666655	0.256449
N136	N	1.422124	-0.000023	0.043692
N137	N	1.755457	0.333311	0.377026
N138	N	2.088790	0.666644	0.710359
H139	H	1.461067	0.063420	0.064052
H140	H	1.794400	0.396753	0.397385
H141	H	2.127734	0.730087	0.730718
H142	H	1.416778	-0.000068	-0.034347
H143	H	1.750111	0.333265	0.298986
H144	H	2.083445	0.666599	0.632320
N145	N	0.559862	-0.000042	-0.094057
N146	N	0.893196	0.333291	0.239276
N147	N	1.226529	0.666624	0.572610
H148	H	0.481808	-0.000052	-0.099322
H149	H	0.815141	0.333281	0.234011
H150	H	1.148474	0.666615	0.567345
H151	H	0.580306	0.063394	-0.055164
H152	H	0.913639	0.396728	0.278169
H153	H	1.246973	0.730061	0.611502
N154	N	0.954344	-0.000001	-0.045439
N155	N	1.287677	0.333333	0.287894
N156	N	1.621011	0.666666	0.621228
H157	H	1.031473	0.000003	-0.068744
H158	H	1.364806	0.333336	0.264589
H159	H	1.698140	0.666669	0.597922
H160	H	0.936557	-0.063439	-0.002097
H161	H	1.269890	0.269894	0.331237
H162	H	1.603224	0.603227	0.664570
N163	N	1.497171	-0.000017	0.210810
N164	N	1.830505	0.333317	0.544143
N165	N	2.163838	0.666650	0.877477
H166	H	1.550846	-0.000018	0.263988
H167	H	1.884180	0.333315	0.597321
H168	H	2.217513	0.666648	0.930654
H169	H	1.506560	0.063423	0.165550
H170	H	1.839893	0.396756	0.498884
H171	H	2.173227	0.730089	0.832217
H172	H	1.030917	-0.000011	0.244717
H173	H	1.364250	0.333322	0.578050
H174	H	1.697583	0.666655	0.911383
H175	H	1.447536	0.000008	0.422901
H176	H	1.780869	0.333342	0.756234
H177	H	2.114202	0.666675	1.089567
N178	N	0.547157	-0.000018	-0.485371
N179	N	0.880490	0.333316	-0.152037
N180	N	1.213824	0.666649	0.181296
H181	H	0.501635	-0.063459	-0.484268
H182	H	0.834968	0.269874	-0.150934
H183	H	1.168302	0.603208	0.182399
H184	H	0.596521	0.000019	-0.550922
H185	H	0.929854	0.333352	-0.217588
H186	H	1.263188	0.666685	0.115745
N187	N	1.030790	-0.000027	0.030996
N188	N	1.364123	0.333306	0.364330
N189	N	1.697456	0.666640	0.697663
H190	H	1.031872	0.063409	-0.014533
H191	H	1.365205	0.396743	0.318800
H192	H	1.698538	0.730076	0.652134
H193	H	0.965248	-0.000068	0.080374
H194	H	1.298582	0.333266	0.413707
H195	H	1.631915	0.666599	0.747041
H196	H	0.740630	-0.000024	-0.045571
H197	H	1.073963	0.333310	0.287763
H198	H	1.407296	0.666643	0.621096
