data_functionalizedCrystal
_audit_creation_method	'MofGen! by Chris Wilmer'
_symmetry_space_group_name_H-M	'P1'
_symmetry_Int_Tables_number	1
_symmetry_cell_setting	triclinic
loop_
_symmetry_equiv_pos_as_xyz
  x,y,z
_cell_length_a	19.121241
_cell_length_b	19.121063
_cell_length_c	19.120904
_cell_angle_alpha	85.258387
_cell_angle_beta	90.124528
_cell_angle_gamma	95.003121
loop_
_atom_site_label
_atom_site_type_symbol
_atom_site_fract_x
_atom_site_fract_y
_atom_site_fract_z
Zn1	Zn	1.043557	-0.254510	0.452551
Zn2	Zn	1.543557	0.245490	0.952551
Zn3	Zn	1.043470	-0.367161	0.339898
Zn4	Zn	1.543470	0.132839	0.839898
Zn5	Zn	0.931342	-0.254092	0.330304
Zn6	Zn	1.431342	0.245908	0.830304
Zn7	Zn	0.920835	-0.377147	0.452491
Zn8	Zn	1.420835	0.122853	0.952491
O9	O	0.984801	-0.313228	0.393811
O10	O	1.484801	0.186772	0.893811
O11	O	1.141831	-0.265449	0.441648
O12	O	1.641831	0.234551	0.941648
O13	O	1.032957	-0.347808	0.240344
O14	O	1.532957	0.152192	0.740344
O15	O	0.950661	-0.155504	0.342530
O16	O	1.450661	0.344496	0.842530
O17	O	1.141767	-0.348213	0.358882
O18	O	1.641767	0.151787	0.858882
O19	O	1.033105	-0.155811	0.432344
O20	O	1.533105	0.344189	0.932344
O21	O	0.950577	-0.264736	0.233295
O22	O	1.450577	0.235264	0.733295
O23	O	0.831663	-0.274420	0.342472
O24	O	1.331663	0.225580	0.842472
O25	O	0.932754	-0.365234	0.550781
O26	O	1.432754	0.134766	1.050781
O27	O	0.823943	-0.364828	0.432242
O28	O	1.323943	0.135172	0.932242
O29	O	1.022917	-0.275133	0.550825
O30	O	1.522917	0.224867	1.050825
O31	O	1.022769	-0.467129	0.358824
O32	O	1.522769	0.032871	0.858824
O33	O	0.932669	-0.474466	0.441546
O34	O	1.432669	0.025534	0.941546
C35	C	0.802319	-0.320663	0.386310
C36	C	1.302319	0.179337	0.886310
C37	C	0.724250	-0.323861	0.383118
C38	C	1.224250	0.176139	0.883118
C39	C	0.687602	-0.282348	0.424782
C40	C	1.187602	0.217652	0.924782
C41	C	0.614249	-0.285349	0.421777
C42	C	1.114249	0.214651	0.921777
C43	C	0.577546	-0.329869	0.377111
C44	C	1.077546	0.170131	0.877111
C45	C	0.614200	-0.371384	0.335443
C46	C	1.114200	0.128616	0.835443
C47	C	0.687552	-0.368378	0.338445
C48	C	1.187552	0.131622	0.838445
C49	C	0.356069	-0.341093	0.365885
C50	C	0.856069	0.158907	0.865885
C51	C	0.282712	-0.344097	0.362887
C52	C	0.782712	0.155903	0.862887
C53	C	0.282766	-0.258061	0.449221
C54	C	0.782766	0.241939	0.949221
C55	C	0.356119	-0.255063	0.452222
C56	C	0.856119	0.244937	0.952222
C57	C	0.392767	-0.296575	0.410551
C58	C	0.892767	0.203425	0.910551
C59	C	0.502567	-0.332939	0.374040
C60	C	1.002567	0.167061	0.874040
C61	C	0.467744	-0.293500	0.413619
C62	C	0.967744	0.206500	0.913619
C63	C	0.976588	-0.496375	0.401236
C64	C	1.476588	0.003625	0.901236
C65	C	0.973137	-0.574724	0.404438
C66	C	1.473137	-0.074724	0.904438
C67	C	1.018459	-0.607690	0.362913
C68	C	1.518459	-0.107690	0.862913
C69	C	1.015218	-0.681308	0.365929
C70	C	1.515218	-0.181308	0.865929
C71	C	0.966651	-0.721959	0.410467
C72	C	1.466651	-0.221959	0.910467
C73	C	0.921327	-0.688989	0.451998
C74	C	1.421327	-0.188989	0.951998
C75	C	0.924572	-0.615372	0.448985
C76	C	1.424572	-0.115372	0.948985
C77	C	0.954507	-0.944426	0.421721
C78	C	1.454507	-0.444426	0.921721
C79	C	0.951264	-1.018048	0.424729
C80	C	1.451264	-0.518048	0.924729
C81	C	1.045157	-1.010363	0.338661
C82	C	1.545157	-0.510363	0.838661
C83	C	1.048395	-0.936745	0.335649
C84	C	1.548395	-0.436745	0.835649
C85	C	1.003073	-0.903781	0.377182
C86	C	1.503073	-0.403781	0.877182
C87	C	0.963335	-0.797209	0.413550
C88	C	1.463335	-0.297209	0.913550
C89	C	1.006393	-0.828532	0.374103
C90	C	1.506393	-0.328532	0.874103
C91	C	1.167996	-0.305764	0.401342
C92	C	1.667996	0.194236	0.901342
C93	C	1.246063	-0.302584	0.404551
C94	C	1.746063	0.197416	0.904551
C95	C	0.976673	-0.321344	0.576998
C96	C	1.476673	0.178656	1.076998
C97	C	0.973209	-0.324803	0.655062
C98	C	1.473209	0.175197	1.155062
C99	C	0.993065	-0.129365	0.386373
C100	C	1.493065	0.370635	0.886373
C101	C	0.996587	-0.051014	0.383204
C102	C	1.496587	0.448986	0.883204
C103	C	0.992940	-0.305090	0.211336
C104	C	1.492940	0.194910	0.711336
C105	C	0.996549	-0.301428	0.133270
C106	C	1.496549	0.198572	0.633270
C107	C	1.018523	-0.279519	0.691760
C108	C	1.518523	0.220481	1.191760
C109	C	1.015260	-0.282766	0.765109
C110	C	1.515260	0.217234	1.265109
C111	C	0.966686	-0.331301	0.801758
C112	C	1.466686	0.168699	1.301758
C113	C	0.921368	-0.376587	0.765054
C114	C	1.421368	0.123413	1.265054
C115	C	0.924628	-0.373336	0.691707
C116	C	1.424628	0.126664	1.191707
C117	C	0.954491	-0.343462	1.023219
C118	C	1.454491	0.156538	1.523219
C119	C	0.951236	-0.346711	1.096572
C120	C	1.451236	0.153289	1.596572
C121	C	1.045127	-0.252889	1.096621
C122	C	1.545127	0.247111	1.596621
C123	C	1.048386	-0.249645	1.023272
C124	C	1.548386	0.250355	1.523272
C125	C	1.003065	-0.294928	0.986575
C126	C	1.503065	0.205072	1.486575
C127	C	0.963351	-0.334623	0.876732
C128	C	1.463351	0.165377	1.376732
C129	C	1.006397	-0.291602	0.911602
C130	C	1.506397	0.208398	1.411602
H131	H	0.252830	-0.380353	0.326515
H132	H	0.752830	0.119647	0.826515
H133	H	1.045939	-0.795432	0.337842
H134	H	1.545939	-0.295432	0.837842
H135	H	0.923790	-0.830315	0.449812
H136	H	1.423790	-0.330315	0.949812
N137	N	0.910970	-0.386968	0.916276
N138	N	1.410970	0.113032	1.416276
H139	H	0.920178	-0.436328	0.906008
H140	H	1.420178	0.063672	1.406008
H141	H	0.861866	-0.377441	0.900992
H142	H	1.361866	0.122559	1.400992
N143	N	1.064101	-0.716865	0.321141
N144	N	1.564101	-0.216865	0.821141
H145	H	1.095357	-0.679942	0.292465
H146	H	1.595357	-0.179942	0.792465
H147	H	1.035630	-0.747173	0.288696
H148	H	1.535630	-0.247173	0.788696
N149	N	0.727183	-0.234334	0.472963
N150	N	1.227183	0.265666	0.972963
H151	H	0.754891	-0.263229	0.507874
H152	H	1.254891	0.236771	1.007874
H153	H	0.692787	-0.208504	0.498851
H154	H	1.192787	0.291496	0.998851
N155	N	0.898878	-1.061896	0.472769
N156	N	1.398878	-0.561896	0.972769
H157	H	0.870660	-1.029843	0.498624
H158	H	1.370660	-0.529843	0.998624
H159	H	0.924657	-1.092680	0.507712
H160	H	1.424657	-0.592680	1.007712
H161	H	0.881815	-0.416103	0.794900
H162	H	1.381815	0.083897	1.294900
H163	H	0.497631	-0.257250	0.449982
H164	H	0.997631	0.242750	0.949982
N165	N	0.875747	-0.422176	0.652128
N166	N	1.375747	0.077824	1.152128
H167	H	0.883820	-0.472664	0.667376
H168	H	1.383820	0.027336	1.167376
H169	H	0.885200	-0.412692	0.600112
H170	H	1.385200	0.087308	1.100112
H171	H	0.881785	-0.722093	0.488265
H172	H	1.381785	-0.222093	0.988265
H173	H	0.385997	-0.218813	0.488596
H174	H	0.885997	0.281187	0.988596
N175	N	1.100764	-0.197272	0.983761
N176	N	1.600764	0.302728	1.483761
H177	H	1.075031	-0.164421	0.950841
H178	H	1.575031	0.335579	1.450841
H179	H	1.133377	-0.223273	0.955862
H180	H	1.633377	0.276727	1.455862
N181	N	1.070918	-0.227174	0.652235
N182	N	1.570918	0.272826	1.152235
H183	H	1.099127	-0.198980	0.686616
H184	H	1.599127	0.301020	1.186616
H185	H	1.045148	-0.194368	0.619305
H186	H	1.545148	0.305632	1.119305
N187	N	1.064120	-0.233912	0.804691
N188	N	1.564120	0.266088	1.304691
H189	H	1.095384	-0.202671	0.770344
H190	H	1.595384	0.297329	1.270344
H191	H	1.093983	-0.262618	0.837631
H192	H	1.593983	0.237382	1.337631
H193	H	1.087942	-0.903648	0.299382
H194	H	1.587942	-0.403648	0.799382
H195	H	1.082024	-0.216022	1.126508
H196	H	1.582024	0.283978	1.626508
N197	N	1.070846	-0.563846	0.314879
N198	N	1.570846	-0.063846	0.814879
H199	H	1.045122	-0.533060	0.279887
H200	H	1.545122	-0.033060	0.779887
H201	H	1.099055	-0.595948	0.289081
H202	H	1.599055	-0.095948	0.789081
N203	N	1.058790	-0.239261	0.872075
N204	N	1.558790	0.260739	1.372075
H205	H	1.087007	-0.211066	0.906451
H206	H	1.587007	0.288934	1.406451
H207	H	1.033021	-0.206454	0.839146
H208	H	1.533021	0.293546	1.339146
N209	N	0.905622	-0.908877	0.466509
N210	N	1.405622	-0.408877	0.966509
H211	H	0.874360	-0.945802	0.495175
H212	H	1.374360	-0.445802	0.995175
H213	H	0.875757	-0.878431	0.435307
H214	H	1.375757	-0.378431	0.935307
H215	H	0.584412	-0.251546	0.455705
H216	H	1.084412	0.248454	0.955705
N217	N	0.898845	-0.399064	1.136103
N218	N	1.398845	0.100936	1.636103
H219	H	0.870629	-0.427258	1.101726
H220	H	1.370629	0.072742	1.601726
H221	H	0.866284	-0.373042	1.164041
H222	H	1.366284	0.126958	1.664041
N223	N	0.905590	-0.392278	0.983641
N224	N	1.405590	0.107722	1.483641
H225	H	0.874320	-0.423511	1.017990
H226	H	1.374320	0.076489	1.517990
H227	H	0.934039	-0.422397	0.955689
H228	H	1.434039	0.077603	1.455689
H229	H	0.385899	-0.374896	0.331954
H230	H	0.885899	0.125104	0.831954
N231	N	1.094034	-1.045916	0.293864
N232	N	1.594034	-0.545916	0.793864
H233	H	1.084610	-1.098720	0.302528
H234	H	1.584610	-0.598720	0.802528
H235	H	1.144270	-1.031442	0.306366
H236	H	1.644270	-0.531442	0.806366
H237	H	0.887667	-0.588532	0.482800
H238	H	1.387667	-0.088532	0.982800
N239	N	0.243232	-0.213284	0.494152
N240	N	0.743232	0.286716	0.994152
H241	H	0.258732	-0.161900	0.481802
H242	H	0.758732	0.338100	0.981802
H243	H	0.253299	-0.226064	0.545270
H244	H	0.753299	0.273936	1.045270
H245	H	0.717390	-0.402182	0.304517
H246	H	1.217390	0.097818	0.804517
N247	N	0.574618	-0.419394	0.287259
N248	N	1.074618	0.080606	0.787259
H249	H	0.522588	-0.415000	0.291679
H250	H	1.022588	0.085000	0.791679
H251	H	0.584707	-0.469711	0.300671
H252	H	1.084707	0.030289	0.800671
H253	H	0.472675	-0.369187	0.337673
H254	H	0.972675	0.130813	0.837673
