data_functionalizedCrystal
_audit_creation_method	'MofGen! by Chris Wilmer'
_symmetry_space_group_name_H-M	'P1'
_symmetry_Int_Tables_number	1
_symmetry_cell_setting	triclinic
loop_
_symmetry_equiv_pos_as_xyz
  x,y,z
_cell_length_a	15.995292
_cell_length_b	10.489716
_cell_length_c	14.472310
_cell_angle_alpha	90.003057
_cell_angle_beta	89.985801
_cell_angle_gamma	83.998876
loop_
_atom_site_label
_atom_site_type_symbol
_atom_site_fract_x
_atom_site_fract_y
_atom_site_fract_z
O1	O	1.112007	0.164048	-0.076858
O2	O	0.868346	0.184428	-0.076853
O3	O	0.995732	-0.011442	-0.076859
O4	O	0.984621	0.359917	-0.076852
O5	O	0.995699	-0.011430	0.076823
O6	O	0.868313	0.184439	0.076829
O7	O	1.111974	0.164059	0.076824
Cu8	Cu	0.990140	0.174250	0.090859
Cu9	Cu	0.990179	0.174237	-0.090888
O10	O	0.984588	0.359928	0.076830
C11	C	0.837129	0.183604	-0.000012
C12	C	0.744161	0.181117	-0.000010
C13	C	0.406368	0.171975	-0.000021
C14	C	0.430525	0.313349	-0.000361
C15	C	0.527217	0.316036	-0.000011
C16	C	0.573951	0.176512	-0.000016
C17	C	0.544409	0.105838	0.087740
C18	C	0.447608	0.104136	0.087809
C19	C	0.447773	0.101236	-0.086956
C20	C	0.544297	0.106475	-0.088112
C21	C	0.668663	0.179068	-0.000010
C22	C	0.311657	0.169415	-0.000020
C23	C	0.994880	-0.058956	-0.000021
C24	C	0.992383	-0.200551	-0.000029
C25	C	1.070499	-0.299343	-0.000022
C26	C	1.029237	-0.376119	-0.075792
C27	C	1.029186	-0.376071	0.075726
C28	C	0.951153	-0.275462	-0.075862
C29	C	0.951114	-0.275409	0.075725
C30	C	0.909794	-0.352135	-0.000064
C31	C	1.143191	0.164883	-0.000019
C32	C	1.236158	0.167370	-0.000027
C33	C	0.985440	0.407443	-0.000010
C34	C	0.987937	0.549038	-0.000008
N35	N	0.990119	0.174259	0.218690
N36	N	0.990207	0.174218	-0.218719
C37	C	0.990178	0.174232	0.592781
C38	C	0.921784	0.278686	0.553618
C39	C	0.921946	0.279067	0.446530
C40	C	0.990148	0.174245	0.407190
C41	C	1.077689	0.203286	0.446026
C42	C	1.077305	0.204028	0.553148
C43	C	0.971810	0.040427	0.553308
C44	C	0.969811	0.041320	0.446181
C45	C	0.990137	0.174250	0.302302
C46	C	0.990196	0.174229	0.697669
H47	H	0.401817	0.367542	0.062221
O48	O	1.098588	0.333281	0.586243
H49	H	1.051071	0.409164	0.559747
H50	H	1.129831	0.130947	0.579052
O51	O	0.819716	-0.383178	-0.000106
H52	H	0.808262	-0.440491	-0.062444
O53	O	0.907455	-0.217111	0.160579
H54	H	0.940015	-0.257601	0.223390
H55	H	0.856531	0.261673	0.579407
O56	O	0.884502	0.012119	0.412579
H57	H	0.856697	0.091932	0.368285
O58	O	0.552884	0.389383	-0.083317
H59	H	0.596669	0.325725	-0.126669
O60	O	1.146767	0.105199	0.412274
H61	H	1.119373	0.034547	0.367349
H62	H	0.545939	0.371728	0.063005
O63	O	0.937592	0.410594	0.412571
H64	H	0.937753	0.411329	0.335879
O65	O	1.072857	-0.434261	0.160587
H66	H	1.139503	-0.413557	0.160418
O67	O	0.907522	-0.217488	-0.160813
H68	H	0.841039	-0.239001	-0.161000
O69	O	0.835785	0.256181	0.411740
H70	H	0.793626	0.244745	0.471428
O71	O	1.037852	-0.062550	0.586858
H72	H	1.083543	-0.018728	0.631429
H73	H	0.933439	0.377422	0.580529
H74	H	0.402868	0.367835	-0.063295
H75	H	0.432438	0.000481	0.091792
O76	O	1.099455	0.331077	0.410498
H77	H	1.048067	0.374102	0.365192
O78	O	0.889014	0.003444	0.589122
H79	H	0.860030	0.080030	0.635460
H80	H	1.016329	-0.040050	0.419405
O81	O	1.160497	-0.267912	-0.000123
H82	H	1.192749	-0.308436	-0.063122
O83	O	0.569307	0.174643	-0.174110
H84	H	0.638701	0.174324	-0.175951
H85	H	0.421069	0.153091	0.153412
O86	O	1.072939	-0.434389	-0.160638
H87	H	1.097125	-0.357601	-0.202578
O88	O	0.585822	-0.030152	0.092072
H89	H	0.568859	-0.083084	0.029558
O90	O	0.571335	0.170856	0.174259
H91	H	0.605749	0.253493	0.154980
H92	H	0.419724	0.145420	-0.153470
O93	O	0.428432	-0.036610	-0.087752
H94	H	0.393506	-0.055280	-0.151771
O95	O	0.587150	-0.028432	-0.095141
H96	H	0.630443	-0.047760	-0.035686
