data_functionalizedCrystal
_audit_creation_method	'MofGen! by Chris Wilmer'
_symmetry_space_group_name_H-M	'P1'
_symmetry_Int_Tables_number	1
_symmetry_cell_setting	triclinic
loop_
_symmetry_equiv_pos_as_xyz
  x,y,z
_cell_length_a	8.597340
_cell_length_b	27.732048
_cell_length_c	7.681481
_cell_angle_alpha	84.300807
_cell_angle_beta	103.474906
_cell_angle_gamma	83.998371
loop_
_atom_site_label
_atom_site_type_symbol
_atom_site_fract_x
_atom_site_fract_y
_atom_site_fract_z
O1	O	2.098198	0.066846	0.171884
O2	O	1.633947	0.074548	0.101443
O3	O	1.880494	0.000332	0.138885
O4	O	1.851650	0.141063	0.134442
O5	O	1.910841	-0.008824	0.436352
O6	O	1.664293	0.065393	0.398909
O7	O	2.128544	0.057691	0.469351
Zn8	Zn	1.901237	0.060088	0.481359
Zn9	Zn	1.861254	0.072151	0.089434
O10	O	1.881997	0.131907	0.431908
C11	C	1.589744	0.069653	0.241168
C12	C	1.412823	0.068703	0.214325
C13	C	1.895063	-0.022254	0.287532
C14	C	1.893241	-0.075914	0.287270
C15	C	2.027448	-0.414424	0.307543
C16	C	2.020683	-0.616098	0.306492
O17	O	2.143406	-0.647076	0.325036
N18	N	1.874492	-0.635551	0.284312
C19	C	1.729982	-0.604581	0.262381
O20	O	1.605481	-0.625753	0.243473
C21	C	1.736748	-0.402907	0.263420
C22	C	1.882950	-0.383458	0.285619
C23	C	2.173638	-0.394975	0.329738
C24	C	2.175329	-0.344559	0.330011
C25	C	2.030830	-0.313594	0.308087
C26	C	1.884640	-0.333043	0.285892
C27	C	1.592238	-0.371938	0.241477
C28	C	1.593942	-0.321517	0.241734
C29	C	1.740144	-0.302068	0.263933
C30	C	1.741832	-0.251662	0.264240
N31	N	1.888023	-0.232210	0.286420
C32	C	2.032521	-0.263175	0.308344
C33	C	1.726441	-0.710463	0.261841
C34	C	1.724749	-0.760881	0.261585
C35	C	2.015450	-0.772395	0.305692
C36	C	2.017141	-0.721976	0.305961
C37	C	1.872631	-0.691010	0.284021
C38	C	2.036061	-0.157299	0.308916
C39	C	2.037740	-0.106879	0.309193
C40	C	1.747039	-0.095370	0.265077
C41	C	1.745360	-0.145786	0.264808
C42	C	1.889884	-0.176749	0.286724
O43	O	1.619173	-0.220656	0.245686
O44	O	2.157000	-0.241992	0.327209
C45	C	2.025757	-0.464839	0.307270
C46	C	1.879568	-0.484289	0.285075
C47	C	1.735069	-0.453323	0.263151
C48	C	1.877876	-0.534707	0.284818
C49	C	2.022375	-0.565673	0.306742
C50	C	2.168565	-0.546220	0.328922
C51	C	2.170256	-0.495805	0.329194
C52	C	1.588879	-0.472776	0.240971
C53	C	1.587200	-0.523191	0.240703
C54	C	1.731699	-0.554157	0.262626
C55	C	2.172746	0.062586	0.329622
C56	C	2.349666	0.063537	0.356453
C57	C	1.867428	0.154493	0.283258
C58	C	1.869248	0.208153	0.283508
N59	N	1.928536	0.051855	0.748839
N60	N	1.833968	0.080380	-0.178044
H61	H	1.430946	0.059838	0.498679
H62	H	1.331536	0.072399	0.072090
H63	H	1.737434	0.109495	0.732099
H64	H	2.025088	0.022742	0.838708
F65	F	2.193354	-0.086184	0.332821
H66	H	2.294380	-0.328729	0.348081
F67	F	2.189880	-0.190247	0.332240
H68	H	2.289308	-0.479975	0.347270
F69	F	2.327447	-0.427924	0.353073
H70	H	2.136191	-0.706145	0.324036
F71	F	1.436627	-0.392626	0.217841
F72	F	2.169237	-0.805359	0.329021
H73	H	1.605700	-0.776712	0.243539
H74	H	1.608756	-0.685254	0.243974
H75	H	1.476261	-0.296306	0.223865
F76	F	1.593262	-0.062405	0.241746
F77	F	1.589761	-0.166486	0.241214
F78	F	1.431582	-0.543885	0.217085
F79	F	2.322352	-0.579186	0.352264
H80	H	1.471207	-0.447568	0.223114
