data_functionalizedCrystal
_audit_creation_method	'MofGen! by Chris Wilmer'
_symmetry_space_group_name_H-M	'P1'
_symmetry_Int_Tables_number	1
_symmetry_cell_setting	triclinic
loop_
_symmetry_equiv_pos_as_xyz
  x,y,z
_cell_length_a	19.188933
_cell_length_b	17.038272
_cell_length_c	15.500227
_cell_angle_alpha	86.966746
_cell_angle_beta	87.166530
_cell_angle_gamma	92.871437
loop_
_atom_site_label
_atom_site_type_symbol
_atom_site_fract_x
_atom_site_fract_y
_atom_site_fract_z
O1	O	0.935238	-0.093960	-0.071916
O2	O	0.732743	-0.107095	-0.071924
O3	O	0.832787	0.013284	-0.071913
O4	O	0.835194	-0.214339	-0.071927
O5	O	0.826714	0.006007	0.071975
O6	O	0.726670	-0.114372	0.071964
O7	O	0.929165	-0.101236	0.071972
Cu8	Cu	0.827363	-0.108468	0.085106
Cu9	Cu	0.834545	-0.099863	-0.085058
O10	O	0.829121	-0.221615	0.071961
C11	C	0.703669	-0.110308	0.000019
C12	C	0.626086	-0.109030	0.000016
C13	C	0.075573	-0.095945	-0.078408
C14	C	0.148472	-0.097140	-0.078411
C15	C	0.181616	-0.101708	0.000022
C16	C	0.141857	-0.105061	0.078464
C17	C	0.068960	-0.103857	0.078466
N18	N	0.291053	-0.151032	0.058401
N19	N	0.360302	-0.152177	0.058394
C20	C	0.401250	-0.105333	0.000023
N21	N	0.370333	-0.057311	-0.058354
N22	N	0.301077	-0.056170	-0.058350
C23	C	0.260660	-0.103013	0.000030
C24	C	0.520046	-0.103272	-0.078418
C25	C	0.592946	-0.104463	-0.078418
C26	C	0.586329	-0.112391	0.078460
C27	C	0.513431	-0.111192	0.078458
C28	C	0.480294	-0.106637	0.000017
C29	C	0.827561	0.038767	0.000031
C30	C	0.821030	0.125540	0.000030
C31	C	0.958239	-0.098023	0.000027
C32	C	1.035823	-0.099301	0.000024
C33	C	0.834347	-0.247098	0.000015
C34	C	0.840879	-0.333871	0.000010
N35	N	0.822317	-0.114520	0.204791
C36	C	0.880996	0.175841	0.000033
C37	C	0.874855	0.257372	0.000025
C38	C	0.808747	0.288601	0.000019
C39	C	0.748776	0.238294	0.000013
C40	C	0.754918	0.156764	0.000016
C41	C	0.787050	0.534292	0.000007
C42	C	0.780912	0.615828	0.000007
C43	C	0.906992	0.634901	0.000017
C44	C	0.913128	0.553369	0.000024
C45	C	0.853157	0.503069	0.000014
C46	C	0.802469	0.371940	0.000013
C47	C	0.859436	0.419733	0.000014
N48	N	0.839596	-0.093805	-0.204743
C49	C	0.864726	-0.063530	0.250072
C50	C	0.860917	-0.068114	0.340644
C51	C	0.814701	-0.123693	0.385934
C52	C	0.772288	-0.174685	0.340646
C53	C	0.776094	-0.170097	0.250075
C54	C	0.800989	-0.140209	0.659399
C55	C	0.797187	-0.144795	0.749976
C56	C	0.885815	-0.038223	0.749968
C57	C	0.889621	-0.033642	0.659396
C58	C	0.847204	-0.084632	0.614116
C59	C	0.810808	-0.128381	0.478513
C60	C	0.851095	-0.079939	0.521538
H61	H	0.048598	-0.092232	-0.142281
F62	F	0.177132	-0.109919	0.161938
H63	H	0.741560	-0.211617	0.213208
H64	H	0.481065	-0.113928	0.142326
H65	H	0.927253	0.011614	0.622523
F66	F	0.900276	-0.020787	0.473337
H67	H	0.493065	-0.099560	-0.142289
F68	F	0.970812	0.688439	0.000027
F69	F	0.761624	-0.187533	0.526719
F70	F	0.635253	-0.100883	-0.161901
F71	F	0.190786	-0.093569	-0.161892
F72	F	0.026653	-0.107432	0.161947
F73	F	0.929791	0.386495	0.000015
H74	H	0.727076	0.641251	0.000016
F75	F	0.621599	-0.117243	0.161935
H76	H	0.748643	0.397375	0.000011
F77	F	0.951357	0.142612	0.000048
H78	H	0.706087	0.115809	0.000013
F79	F	0.723223	0.480770	-0.000007
H80	H	0.923686	0.298325	0.000030
H81	H	0.966960	0.527949	0.000029
H82	H	0.920348	0.003291	0.786843
F83	F	0.678419	0.271533	-0.000002
F84	F	0.913919	-0.004379	0.201880
H85	H	0.895449	-0.026593	0.377512
H86	H	0.759551	-0.190057	0.786847
F87	F	0.723098	-0.233833	0.388847
H88	H	0.766453	-0.181728	0.622540
