data_functionalizedCrystal
_audit_creation_method	'MofGen! by Chris Wilmer'
_symmetry_space_group_name_H-M	'P1'
_symmetry_Int_Tables_number	1
_symmetry_cell_setting	triclinic
loop_
_symmetry_equiv_pos_as_xyz
  x,y,z
_cell_length_a	12.837943
_cell_length_b	13.101039
_cell_length_c	12.837942
_cell_angle_alpha	93.718247
_cell_angle_beta	85.171060
_cell_angle_gamma	93.713065
loop_
_atom_site_label
_atom_site_type_symbol
_atom_site_fract_x
_atom_site_fract_y
_atom_site_fract_z
O1	O	1.407523	0.085195	-0.266933
O2	O	1.907523	0.585195	0.233067
O3	O	1.104390	0.085201	-0.253489
O4	O	1.604390	0.585201	0.246511
O5	O	1.249234	0.085192	-0.108644
O6	O	1.749234	0.585192	0.391356
O7	O	1.262678	0.085205	-0.411777
O8	O	1.762678	0.585205	0.088223
O9	O	1.238844	-0.085237	-0.119056
O10	O	1.738844	0.414763	0.380944
O11	O	1.093999	-0.085228	-0.263900
O12	O	1.593999	0.414772	0.236100
O13	O	1.397132	-0.085234	-0.277344
O14	O	1.897132	0.414766	0.222656
Zn15	Zn	1.243916	-0.112290	-0.272275
Zn16	Zn	1.743916	0.387710	0.227725
Zn17	Zn	1.257606	0.112258	-0.258558
Zn18	Zn	1.757606	0.612258	0.241442
O19	O	1.252288	-0.085225	-0.422189
O20	O	1.752288	0.414775	0.077811
C21	C	1.060125	-0.000012	-0.254153
C22	C	1.560125	0.499988	0.245847
C23	C	0.943710	-0.000010	-0.240609
C24	C	1.443710	0.499990	0.259391
N25	N	1.234580	-0.265538	-0.281637
N26	N	1.734580	0.234462	0.218363
C27	C	0.718836	-0.000018	-0.403439
C28	C	1.218836	0.499982	0.096561
C29	C	0.609453	-0.000017	-0.390717
C30	C	1.109453	0.499983	0.109283
C31	C	0.615561	-0.000014	-0.202446
C32	C	1.115561	0.499986	0.297554
C33	C	0.724943	-0.000015	-0.215167
C34	C	1.224943	0.499985	0.284833
C35	C	0.776577	-0.000016	-0.315667
C36	C	1.276577	0.499984	0.184333
C37	C	0.885962	-0.000010	-0.328387
C38	C	1.385962	0.499990	0.171613
C39	C	0.892066	-0.000014	-0.140117
C40	C	1.392066	0.499986	0.359883
C41	C	0.782684	-0.000013	-0.127395
C42	C	1.282684	0.499987	0.372605
C43	C	1.221880	-0.474580	-0.294384
C44	C	1.721880	0.025420	0.205616
C45	C	1.279646	-0.525459	-0.236444
C46	C	1.779646	-0.025459	0.263556
C47	C	1.272579	-0.641777	-0.243537
C48	C	1.772579	-0.141777	0.256463
C49	C	1.228945	-0.358251	-0.287293
C50	C	1.728945	0.141749	0.212707
C51	C	1.441397	-0.000018	-0.276680
C52	C	1.941397	0.499982	0.223320
C53	C	1.557812	-0.000013	-0.290224
C54	C	2.057812	0.499987	0.209776
C55	C	1.239498	-0.000022	-0.074781
C56	C	1.739498	0.499978	0.425219
C57	C	1.225953	-0.000020	0.041634
C58	C	1.725953	0.499980	0.541634
N59	N	1.266949	0.265506	-0.249188
N60	N	1.766949	0.765506	0.250812
C61	C	1.262024	-0.000008	-0.456052
C62	C	1.762024	0.499992	0.043948
C63	C	1.275569	-0.000004	-0.572467
C64	C	1.775569	0.499996	-0.072467
C65	C	1.388784	-0.000002	0.266509
C66	C	1.888784	0.499998	0.766509
C67	C	1.376062	0.000000	0.375892
C68	C	1.876062	0.500000	0.875892
C69	C	1.187791	-0.000007	0.369784
C70	C	1.687791	0.499993	0.869784
C71	C	1.200512	-0.000009	0.260402
C72	C	1.700512	0.499991	0.760402
C73	C	1.301012	-0.000008	0.208768
C74	C	1.801012	0.499992	0.708768
C75	C	1.313731	-0.000017	0.099383
C76	C	1.813731	0.499983	0.599383
C77	C	1.125461	-0.000016	0.093278
C78	C	1.625461	0.499984	0.593278
C79	C	1.112740	-0.000014	0.202661
C80	C	1.612740	0.499986	0.702661
H81	H	0.928000	-0.000012	-0.410219
H82	H	1.428000	0.499988	0.089781
Cl83	Cl	1.061461	0.000023	0.434715
Cl84	Cl	1.561461	0.500023	0.934715
Cl85	Cl	0.783751	-0.000005	-0.529776
Cl86	Cl	1.283751	0.499995	-0.029776
Cl87	Cl	0.964663	0.000005	-0.029768
Cl88	Cl	1.464663	0.500005	0.470232
H89	H	1.334409	-0.481660	-0.181515
H90	H	1.834409	0.018340	0.318485
Cl91	Cl	1.137339	-0.542196	-0.379193
Cl92	Cl	1.637339	-0.042196	0.120807
Cl93	Cl	0.536867	-0.000023	-0.501064
Cl94	Cl	1.036867	0.499977	-0.001064
Cl95	Cl	1.440071	-0.000022	0.034473
Cl96	Cl	1.940071	0.499978	0.534473
Cl97	Cl	1.515120	-0.000026	0.201593
Cl98	Cl	2.015120	0.499974	0.701593
H99	H	0.573496	-0.000098	-0.120629
H100	H	1.073496	0.499902	0.379371
Cl101	Cl	0.717763	-0.000014	-0.001060
Cl102	Cl	1.217763	0.499986	0.498940
Cl103	Cl	0.986405	-0.000007	0.267582
Cl104	Cl	1.486405	0.499993	0.767582
H105	H	1.447536	0.000008	0.422901
H106	H	1.947536	0.500008	0.922901
H107	H	1.053990	-0.000029	0.046253
H108	H	1.553990	0.499971	0.546253
