data_functionalizedCrystal
_audit_creation_method	'MofGen! by Chris Wilmer'
_symmetry_space_group_name_H-M	'P1'
_symmetry_Int_Tables_number	1
_symmetry_cell_setting	triclinic
loop_
_symmetry_equiv_pos_as_xyz
  x,y,z
_cell_length_a	18.101398
_cell_length_b	14.908520
_cell_length_c	14.908308
_cell_angle_alpha	83.639235
_cell_angle_beta	93.272964
_cell_angle_gamma	86.683700
loop_
_atom_site_label
_atom_site_type_symbol
_atom_site_fract_x
_atom_site_fract_y
_atom_site_fract_z
Zn1	Zn	1.088449	0.389993	-0.532704
Zn2	Zn	1.088365	0.532638	-0.390074
Zn3	Zn	0.972193	0.381283	-0.381347
Zn4	Zn	0.957000	0.541297	-0.541367
O5	O	1.026502	0.461303	-0.461373
O6	O	1.192069	0.408937	-0.513810
O7	O	1.079278	0.505292	-0.262257
O8	O	0.994008	0.255774	-0.394147
O9	O	1.192007	0.513738	-0.409021
O10	O	1.079421	0.262174	-0.505348
O11	O	0.993927	0.394092	-0.255845
O12	O	0.866547	0.402487	-0.402547
O13	O	0.968114	0.528495	-0.666877
O14	O	0.855385	0.520049	-0.520113
O15	O	1.064689	0.417333	-0.660513
O16	O	1.064546	0.660451	-0.417421
O17	O	0.968032	0.666812	-0.528575
C18	C	0.834095	0.461263	-0.461323
C19	C	0.751781	0.461269	-0.461325
C20	C	1.014650	0.696475	-0.474905
C21	C	1.009647	0.797085	-0.480724
C22	C	1.014716	0.474851	-0.697455
C23	C	1.009694	0.480625	-0.798059
C24	C	0.452683	0.461330	-0.461404
C25	C	0.491007	0.387034	-0.387756
C26	C	0.576631	0.387205	-0.387470
C27	C	0.601069	0.461299	-0.461365
C28	C	0.566492	0.555147	-0.440802
C29	C	0.480890	0.554728	-0.440295
C30	C	0.480707	0.442618	-0.555827
C31	C	0.566490	0.440465	-0.555182
C32	C	0.684930	0.461288	-0.461345
C33	C	0.368822	0.461348	-0.461423
C34	C	1.219659	0.461343	-0.461423
C35	C	1.301972	0.461360	-0.461444
C36	C	1.038419	0.225213	-0.447808
C37	C	1.043497	0.124606	-0.442027
C38	C	1.100836	0.979461	-0.376008
C39	C	1.096137	1.073993	-0.381473
C40	C	0.995554	1.080681	-0.497123
C41	C	1.000253	0.986150	-0.491658
C42	C	1.052895	0.935543	-0.431097
C43	C	1.057590	0.841009	-0.425629
C44	C	0.957010	0.847700	-0.541282
C45	C	0.952312	0.942232	-0.546747
C46	C	1.100819	0.375700	-0.980477
C47	C	1.096103	0.381122	-1.075004
C48	C	0.995541	0.496885	-1.081639
C49	C	1.000258	0.491463	-0.987113
C50	C	1.052899	0.430870	-0.936535
C51	C	1.057619	0.425453	-0.842007
C52	C	0.957054	0.541211	-0.848644
C53	C	0.952338	0.546633	-0.943170
C54	C	1.038288	0.447742	-0.226206
C55	C	1.043466	0.441713	-0.125588
H56	H	0.600387	0.317441	-0.399729
H57	H	1.135177	1.109747	-0.336615
F58	F	1.147105	0.322401	-1.121767
F59	F	0.939517	0.561361	-1.135481
H60	H	0.473172	0.317043	-0.399822
F61	F	0.466418	0.402405	-0.296686
F62	F	0.457977	0.576313	-0.350285
F63	F	1.156852	0.925599	-0.311545
F64	F	0.596386	0.350239	-0.575589
H65	H	0.952700	1.121902	-0.546434
H66	H	0.909454	0.983449	-0.596056
F67	F	0.905977	0.800952	-0.599907
H68	H	0.909478	0.595965	-0.984363
F69	F	0.906057	0.599939	-0.801872
F70	F	1.113645	0.360967	-0.788180
F71	F	0.447091	0.629148	-0.507737
F72	F	0.606973	0.402793	-0.295872
F73	F	1.156849	0.311222	-0.926648
F74	F	0.586372	0.629130	-0.509041
F75	F	0.597652	0.577258	-0.351806
H76	H	0.582786	0.491075	-0.612551
F77	F	0.447490	0.513436	-0.627465
F78	F	1.113613	0.787151	-0.361172
F79	F	0.455425	0.355105	-0.581649
