data_functionalizedCrystal
_audit_creation_method	'MofGen! by Chris Wilmer'
_symmetry_space_group_name_H-M	'P1'
_symmetry_Int_Tables_number	1
_symmetry_cell_setting	triclinic
loop_
_symmetry_equiv_pos_as_xyz
  x,y,z
_cell_length_a	19.902436
_cell_length_b	19.377369
_cell_length_c	19.377372
_cell_angle_alpha	62.058157
_cell_angle_beta	89.998346
_cell_angle_gamma	48.633065
loop_
_atom_site_label
_atom_site_type_symbol
_atom_site_fract_x
_atom_site_fract_y
_atom_site_fract_z
Zr1	Zr	0.526418	0.759396	0.055842
O2	O	0.370554	0.943837	-0.042094
O3	O	0.586895	0.607584	0.064507
O4	O	0.529050	0.806428	-0.072882
O5	O	0.459585	0.696515	0.227965
O6	O	0.639633	0.806412	-0.072874
O7	O	0.428398	0.744993	0.095295
O8	O	0.743106	0.450715	0.172890
O9	O	0.356112	1.052211	-0.017799
O10	O	0.679875	0.657929	0.094012
O11	O	0.620623	0.621763	0.193015
O12	O	0.552519	0.855877	0.031257
O13	O	0.493266	0.819711	0.130261
Zr14	Zr	0.752524	0.682053	0.267447
Zr15	Zr	0.702785	0.759369	0.055854
Zr16	Zr	0.576157	0.682079	0.267434
Zr17	Zr	0.503385	0.932240	0.094588
Zr18	Zr	0.775557	0.509209	0.228700
O19	O	0.692048	0.833865	0.258781
O20	O	0.621325	0.943799	-0.042076
O21	O	0.441276	0.833903	0.258764
O22	O	0.908388	0.497612	0.365382
O23	O	0.837666	0.607546	0.064525
O24	O	0.657617	0.497649	0.365364
O25	O	0.819358	0.744934	0.095323
O26	O	0.749892	0.635021	0.396171
O27	O	0.639309	0.635037	0.396163
O28	O	0.850544	0.696456	0.227993
O29	O	0.496301	1.052190	-0.017789
O30	O	0.782642	0.389259	0.341078
O31	O	0.922830	0.389238	0.341088
O32	O	0.883294	0.450694	0.172900
O33	O	0.395648	0.990755	0.150389
O34	O	0.535836	0.990734	0.150399
O35	O	0.726424	0.585572	0.292031
O36	O	0.785676	0.621738	0.193027
O37	O	0.658320	0.819686	0.130273
O38	O	0.599067	0.783520	0.229277
C39	C	0.668282	0.504523	0.113178
C40	C	0.678060	0.431146	0.096729
C41	C	0.555988	0.095016	0.301305
C42	C	0.565306	0.025951	0.285919
C43	C	0.627161	0.063715	0.182566
C44	C	0.617853	0.132780	0.197947
C45	C	0.582266	0.148426	0.257316
C46	C	0.644131	0.186190	0.153958
C47	C	0.634819	0.255254	0.169334
C48	C	0.599230	0.270908	0.228699
C49	C	0.572954	0.217490	0.272692
C50	C	0.679712	0.170550	0.094585
C51	C	0.705989	0.223959	0.050596
C52	C	0.696684	0.293018	0.065977
C53	C	0.661095	0.308673	0.125341
C54	C	0.722960	0.346437	0.021983
C55	C	0.713648	0.415501	0.037359
C56	C	0.651783	0.377737	0.140717
C57	C	0.418863	0.720758	0.161628
C58	C	0.343990	0.720769	0.161623
C59	C	0.072003	0.720709	0.161651
C60	C	0.020225	0.845469	0.122364
C61	C	0.097973	0.845659	0.122033
C62	C	0.206939	0.720740	0.161637
C63	C	0.200574	0.686705	0.104731
C64	C	0.122152	0.687525	0.104417
C65	C	0.159563	0.629244	0.257710
C66	C	0.236190	0.631222	0.257974
C67	C	0.283202	0.720751	0.161629
C68	C	-0.004259	0.720696	0.161655
C69	C	0.860080	0.720691	0.161660
C70	C	0.934952	0.720680	0.161665
C71	C	0.577255	0.817436	-0.103026
C72	C	0.556140	0.850259	-0.192852
C73	C	0.610660	0.936926	0.210111
C74	C	0.600882	1.010303	0.226560
C75	C	0.819058	0.441589	-0.324499
C76	C	0.799196	0.472458	-0.408913
C77	C	0.666245	0.679100	-0.474415
C78	C	0.686100	0.648248	-0.390004
C79	C	0.762507	0.529490	-0.315052
C80	C	0.629548	0.736150	-0.380557
C81	C	0.649398	0.705300	-0.296154
C82	C	0.725800	0.586548	-0.221198
C83	C	0.782357	0.498640	-0.230648
C84	C	0.553137	0.854907	-0.455511
C85	C	0.496586	0.942809	-0.446063
C86	C	0.516440	0.911959	-0.361659
C87	C	0.592841	0.793207	-0.286703
C88	C	0.459883	0.999867	-0.352208
C89	C	0.479733	0.969017	-0.267805
C90	C	0.612691	0.762357	-0.202300
C91	C	0.701687	0.624013	0.426314
C92	C	0.722803	0.591190	0.516141
C93	C	0.888890	0.504490	0.113194
C94	C	0.973541	0.431102	0.096750
C95	C	0.730498	0.407812	0.377848
C96	C	0.761392	0.301612	0.451225
C97	C	0.951106	0.407778	0.377864
C98	C	1.056873	0.301567	0.451246
C99	C	0.327836	1.033671	-0.054575
C100	C	0.222070	1.139882	-0.127958
C101	C	0.390052	0.936959	0.210095
C102	C	0.305401	1.010347	0.226539
C103	C	0.548444	1.033637	-0.054559
C104	C	0.517551	1.139837	-0.127937
C105	C	0.958065	0.415532	0.037334
C106	C	1.037590	0.346593	0.021865
C107	C	1.132593	0.293217	0.065819
C108	C	1.148068	0.308793	0.125238
C109	C	1.068541	0.377738	0.140701
C110	C	0.831129	0.232845	0.537378
C111	C	0.860154	0.133065	0.606334
C112	C	0.819447	0.102051	0.589135
C113	C	0.749701	0.170828	0.502973
C114	C	0.720671	0.270610	0.434020
C115	C	1.137478	0.270568	0.434029
C116	C	1.236860	0.170784	0.502974
C117	C	1.255635	0.101996	0.589135
C118	C	1.175020	0.133003	0.606352
C119	C	1.075639	0.232790	0.537409
C120	C	0.141463	1.170890	-0.110739
C121	C	0.042078	1.270695	-0.179679
C122	C	0.023303	1.339486	-0.265839
C123	C	0.103919	1.308475	-0.283057
C124	C	0.203301	1.208676	-0.214116
C125	C	0.320875	1.025927	0.285947
C126	C	0.241341	1.094894	0.301397
C127	C	0.146337	1.148273	0.257441
C128	C	0.130864	1.132693	0.198025
C129	C	0.210395	1.063734	0.182572
C130	C	0.558277	1.170818	-0.110711
C131	C	0.529268	1.270592	-0.179650
C132	C	0.459528	1.339388	-0.265815
C133	C	0.418802	1.308399	-0.283041
C134	C	0.447816	1.208622	-0.214103
H135	H	0.687285	0.114319	0.082063
Cl136	Cl	1.088017	0.397290	0.215407
H137	H	0.615063	1.114817	-0.040556
Cl138	Cl	0.570189	0.828389	-0.568645
Cl139	Cl	0.580472	1.309533	-0.157974
Cl140	Cl	0.423060	1.464823	-0.352471
Cl141	Cl	-0.059249	1.309655	-0.158014
H142	H	0.916947	0.077076	0.676484
Cl143	Cl	0.046366	1.234959	0.276880
Cl144	Cl	1.018117	0.327023	-0.052831
H145	H	0.844579	0.401936	-0.169616
Cl146	Cl	0.882321	0.271808	0.559023
H147	H	0.843093	0.020799	0.645289
Cl148	Cl	1.232561	0.206543	0.046372
H149	H	1.225429	0.265325	0.161021
H150	H	0.238887	0.655740	0.300283
Cl151	Cl	0.165041	1.084427	-0.002430
Cl152	Cl	0.750750	0.547761	-0.115088
H153	H	0.414644	1.183410	-0.228141
H154	H	0.197784	1.051052	0.134198
Cl155	Cl	0.974315	0.271741	0.559068
H156	H	-0.017134	0.874416	0.161736
H157	H	0.622804	0.390475	0.189062
H158	H	1.122209	0.326563	0.363877
Cl159	Cl	0.698537	0.131820	0.481365
H160	H	0.543902	-0.017533	0.321742
H161	H	1.302489	0.145551	0.488939
Cl162	Cl	-0.101642	1.464945	-0.352499
Cl163	Cl	0.633004	0.357045	0.325714
Cl164	Cl	0.363820	1.149155	-0.446441
H165	H	0.536977	0.880021	-0.524235
Cl166	Cl	0.080299	1.394965	-0.391379
Cl167	Cl	0.511257	0.114682	0.375948
H168	H	1.336562	0.020746	0.645265
Cl169	Cl	0.358437	0.487893	0.309717
Cl170	Cl	1.198640	0.046513	0.714674
Cl171	Cl	0.304628	1.169702	-0.235781
H172	H	0.751926	0.333698	-0.026362
Cl173	Cl	0.260816	1.114458	0.376097
Cl174	Cl	0.011425	1.199800	0.142777
H175	H	0.398227	0.982466	0.321750
Cl176	Cl	0.671894	0.044042	0.107931
H177	H	0.362016	1.364427	-0.353205
Cl178	Cl	0.528222	0.237155	0.347335
Cl179	Cl	0.587517	0.357739	0.248025
Cl180	Cl	0.029541	0.787862	-0.005519
Cl181	Cl	0.750722	0.204286	-0.024039
H182	H	0.735044	0.458990	0.001538
Cl183	Cl	0.915144	0.292291	-0.230266
H184	H	0.098495	0.874546	0.161305
H185	H	-0.043567	0.914189	0.052303
Cl186	Cl	0.708777	0.613059	-0.108067
Cl187	Cl	0.058156	0.952267	0.013180
H188	H	0.277522	0.595896	0.131003
Cl189	Cl	0.167225	0.785344	-0.004327
Cl190	Cl	0.182787	0.548051	0.143874
H191	H	0.845250	0.400869	-0.416596
Cl192	Cl	0.110590	0.658185	0.327757
H193	H	0.200437	0.537068	0.287394
H194	H	0.434373	1.039501	-0.507100
H195	H	0.880711	0.458997	0.001528
Cl196	Cl	0.408652	1.079523	-0.255925
