data_functionalizedCrystal
_audit_creation_method	'MofGen! by Chris Wilmer'
_symmetry_space_group_name_H-M	'P1'
_symmetry_Int_Tables_number	1
_symmetry_cell_setting	triclinic
loop_
_symmetry_equiv_pos_as_xyz
  x,y,z
_cell_length_a	12.759401
_cell_length_b	18.050589
_cell_length_c	12.759393
_cell_angle_alpha	89.970454
_cell_angle_beta	89.979062
_cell_angle_gamma	90.029746
loop_
_atom_site_label
_atom_site_type_symbol
_atom_site_fract_x
_atom_site_fract_y
_atom_site_fract_z
Zn1	Zn	1.606168	-0.295593	-0.594027
Zn2	Zn	1.606017	-0.419801	-0.418350
Zn3	Zn	1.430466	-0.295633	-0.418362
Zn4	Zn	1.430417	-0.419749	-0.593987
O5	O	1.518267	-0.357694	-0.506182
O6	O	1.753169	-0.312075	-0.570735
O7	O	1.582688	-0.403368	-0.271331
O8	O	1.453857	-0.191703	-0.441686
O9	O	1.753058	-0.403330	-0.441666
O10	O	1.582944	-0.191674	-0.570746
O11	O	1.453711	-0.312142	-0.271339
O12	O	1.283439	-0.312092	-0.441648
O13	O	1.453773	-0.403241	-0.741014
O14	O	1.283402	-0.403280	-0.570679
O15	O	1.582896	-0.312025	-0.741043
O16	O	1.582640	-0.523719	-0.441627
O17	O	1.453627	-0.523681	-0.570667
C18	C	1.245300	-0.357685	-0.506161
C19	C	1.128523	-0.357699	-0.506177
C20	C	1.073670	-0.405253	-0.573257
C21	C	0.963946	-0.405256	-0.573278
C22	C	0.963938	-0.310149	-0.439129
C23	C	1.073660	-0.310143	-0.439114
C24	C	0.814041	-0.431904	-0.697139
C25	C	0.759184	-0.479469	-0.764211
C26	C	0.794757	-0.551945	-0.780160
C27	C	0.885186	-0.576870	-0.729023
C28	C	0.940038	-0.529309	-0.661944
C29	C	0.904466	-0.456822	-0.646014
C30	C	1.223567	-0.283503	-0.315251
C31	C	1.278420	-0.235944	-0.248166
C32	C	1.242849	-0.163467	-0.232206
C33	C	1.152417	-0.138545	-0.283325
C34	C	1.097563	-0.186103	-0.350410
C35	C	1.133142	-0.258579	-0.366372
C36	C	1.518140	-0.550646	-0.506164
C37	C	1.518182	-0.633192	-0.506192
C38	C	1.448094	-0.832649	-0.576339
C39	C	1.422478	-0.882097	-0.480470
C40	C	1.518285	-0.784322	-0.506206
C41	C	1.543953	-0.881956	-0.602085
C42	C	1.518383	-0.930307	-0.506227
C43	C	1.492619	-0.832683	-0.410286
C44	C	1.614139	-0.832538	-0.531966
C45	C	1.588559	-0.881964	-0.436031
C46	C	1.518226	-0.700224	-0.506194
C47	C	1.518442	-1.014404	-0.506228
C48	C	1.792300	-0.357704	-0.506203
C49	C	1.909077	-0.357708	-0.506212
C50	C	1.518346	-0.357623	-0.780215
C51	C	1.518379	-0.357592	-0.896992
C52	C	1.518423	-0.163989	-0.506222
C53	C	1.518489	-0.081443	-0.506239
C54	C	1.585619	-0.310088	-0.951871
C55	C	1.585637	-0.310056	-1.061595
C56	C	1.451172	-0.405039	-1.061552
C57	C	1.451150	-0.405067	-0.951829
C58	C	1.623278	-0.222435	-1.211571
C59	C	1.690534	-0.174938	-1.266453
C60	C	1.793050	-0.163549	-1.230862
C61	C	1.828332	-0.199670	-1.140389
C62	C	1.761082	-0.247173	-1.085512
C63	C	1.658550	-0.258547	-1.121102
C64	C	1.413520	-0.492689	-0.801851
C65	C	1.346274	-0.540196	-0.746972
C66	C	1.243755	-0.551592	-0.782562
C67	C	1.208478	-0.515485	-0.873038
C68	C	1.275723	-0.467977	-0.927917
C69	C	1.378241	-0.456580	-0.892320
C70	C	1.518249	-0.357712	-0.233214
C71	C	1.518419	-0.357533	-0.116438
H72	H	0.685557	-0.459168	-0.805848
Br73	Br	1.808953	-0.296194	-0.962738
H74	H	1.252545	-0.342518	-0.328250
H75	H	1.911815	-0.190399	-1.111423
H76	H	1.539798	-0.231697	-1.240553
Br77	Br	0.765770	-0.333533	-0.675519
Br78	Br	1.884326	-0.099091	-1.305351
Br79	Br	1.580070	-0.918037	-0.737213
H80	H	1.123441	-0.079532	-0.270313
H81	H	1.375010	-0.569604	-0.673309
Br82	Br	1.552643	-0.477198	-0.753517
Br83	Br	1.349021	-0.796555	-0.675057
Br84	Br	1.287442	-0.918376	-0.444154
H85	H	1.661798	-0.145528	-1.340117
Br86	Br	1.676856	-0.245658	-0.877451
Br87	Br	0.974825	-0.152282	-0.419779
H88	H	1.396439	-0.443693	-1.106214
H89	H	1.470854	-0.811128	-0.329188
Br90	Br	1.749140	-0.796229	-0.568323
H91	H	1.246992	-0.438577	-1.001588
H92	H	1.287516	-0.124748	-0.177570
H93	H	1.125000	-0.524766	-0.902019
Br94	Br	1.148124	-0.469791	-0.664273
H95	H	1.647959	-0.903481	-0.376662
Br96	Br	1.062752	-0.563129	-0.592542
H97	H	1.189008	-0.590283	-0.737875
H98	H	0.750085	-0.590673	-0.834773
Br99	Br	0.933447	-0.675242	-0.750654
H100	H	0.919255	-0.271432	-0.384527
H101	H	1.352055	-0.256243	-0.206542
