data_functionalizedCrystal
_audit_creation_method	'MofGen! by Chris Wilmer'
_symmetry_space_group_name_H-M	'P1'
_symmetry_Int_Tables_number	1
_symmetry_cell_setting	triclinic
loop_
_symmetry_equiv_pos_as_xyz
  x,y,z
_cell_length_a	16.109301
_cell_length_b	10.540539
_cell_length_c	15.186229
_cell_angle_alpha	89.998389
_cell_angle_beta	89.999006
_cell_angle_gamma	83.993537
loop_
_atom_site_label
_atom_site_type_symbol
_atom_site_fract_x
_atom_site_fract_y
_atom_site_fract_z
O1	O	1.104128	0.163160	-0.073176
O2	O	1.604128	0.663160	0.426824
O3	O	0.862190	0.183465	-0.073188
O4	O	1.362190	0.683465	0.426812
O5	O	0.988679	-0.011473	-0.073181
O6	O	1.488679	0.488527	0.426819
O7	O	0.977640	0.358098	-0.073183
O8	O	1.477640	0.858098	0.426817
O9	O	0.988670	-0.011475	0.073277
O10	O	1.488670	0.488525	0.573277
O11	O	0.862182	0.183462	0.073269
O12	O	1.362182	0.683462	0.573269
O13	O	1.104120	0.163158	0.073281
O14	O	1.604120	0.663158	0.573281
Zn15	Zn	0.983149	0.173309	0.096529
Zn16	Zn	1.483149	0.673309	0.596529
Zn17	Zn	0.983161	0.173313	-0.096435
Zn18	Zn	1.483161	0.673313	0.403565
O19	O	0.977631	0.358095	0.073274
O20	O	1.477631	0.858095	0.573274
C21	C	0.831206	0.182641	0.000039
C22	C	1.331206	0.682641	0.500039
C23	C	0.738896	0.180175	0.000035
C24	C	1.238896	0.680175	0.500035
C25	C	0.430556	0.287786	0.000049
C26	C	0.930556	0.787786	0.500049
C27	C	0.517290	0.290115	0.000044
C28	C	1.017290	0.790115	0.500044
C29	C	0.535749	0.058828	0.000034
C30	C	1.035749	0.558828	0.500034
C31	C	0.449016	0.056500	0.000033
C32	C	0.949016	0.556500	0.500033
C33	C	0.396421	0.170983	0.000045
C34	C	0.896421	0.670983	0.500045
C35	C	0.569889	0.175639	0.000041
C36	C	1.069889	0.675639	0.500041
C37	C	0.663930	0.178164	0.000035
C38	C	1.163930	0.678164	0.500035
C39	C	0.302374	0.168459	0.000049
C40	C	0.802374	0.668459	0.500049
C41	C	0.987847	-0.058765	0.000046
C42	C	1.487847	0.441235	0.500046
C43	C	0.985370	-0.199678	0.000042
C44	C	1.485370	0.300322	0.500042
C45	C	0.890460	-0.381752	-0.000292
C46	C	1.390460	0.118248	0.499708
C47	C	0.892971	-0.235170	0.000038
C48	C	1.392971	0.264830	0.500038
C49	C	1.029832	-0.261971	0.083678
C50	C	1.529832	0.238029	0.583678
C51	C	1.026678	-0.408471	0.083748
C52	C	1.526678	0.091529	0.583748
C53	C	1.028567	-0.409012	-0.082801
C54	C	1.528567	0.090988	0.417199
C55	C	1.029418	-0.262043	-0.083907
C56	C	1.529418	0.237957	0.416093
C57	C	1.135104	0.163981	0.000052
C58	C	1.635104	0.663981	0.500052
C59	C	1.227414	0.166447	0.000051
C60	C	1.727414	0.666447	0.500051
C61	C	0.978463	0.405388	0.000045
C62	C	1.478463	0.905388	0.500045
C63	C	0.980940	0.546300	0.000044
C64	C	1.480940	1.046300	0.500044
N65	N	0.983148	0.173306	0.228221
N66	N	1.483148	0.673306	0.728221
N67	N	0.983169	0.173306	-0.228128
N68	N	1.483169	0.673306	0.271872
C69	C	1.039176	0.087017	0.453947
C70	C	1.539176	0.587017	0.953947
C71	C	1.039179	0.087014	0.546137
C72	C	1.539179	0.587014	1.046137
C73	C	0.927134	0.259600	0.546140
C74	C	1.427134	0.759600	1.046140
C75	C	0.927128	0.259595	0.453952
C76	C	1.427128	0.759595	0.953952
C77	C	0.983154	0.173306	0.407858
C78	C	1.483154	0.673306	0.907858
C79	C	0.983163	0.173307	0.592236
C80	C	1.483163	0.673307	1.092236
C81	C	0.983165	0.173304	0.692192
C82	C	1.483165	0.673304	1.192192
C83	C	0.983151	0.173306	0.307895
C84	C	1.483151	0.673306	0.807895
H85	H	0.545078	0.385227	0.000047
H86	H	1.045078	0.885227	0.500047
H87	H	1.084795	0.016753	0.416420
H88	H	1.584795	0.516753	0.916420
H89	H	1.097687	-0.240584	0.086791
H90	H	1.597687	0.259416	0.586791
H91	H	0.421225	-0.038620	0.000026
H92	H	0.921225	0.461380	0.500026
H93	H	0.881504	0.329863	0.416423
H94	H	1.381504	0.829863	0.916423
H95	H	0.881520	0.329857	0.583678
H96	H	1.381520	0.829857	1.083678
N97	N	1.118656	-0.231249	-0.090595
N98	N	1.618656	0.268751	0.409405
H99	H	1.126459	-0.183948	-0.147341
H100	H	1.626459	0.316052	0.352659
H101	H	1.131796	-0.176233	-0.039031
H102	H	1.631796	0.323767	0.460969
N103	N	0.592476	-0.064645	0.000027
N104	N	1.092476	0.435355	0.500027
H105	H	0.652601	-0.045449	0.000032
H106	H	1.152601	0.454551	0.500032
H107	H	0.581341	-0.115553	0.054319
H108	H	1.081341	0.384447	0.554319
N109	N	0.988928	-0.204954	0.166122
N110	N	1.488928	0.295046	0.666122
H111	H	0.941605	-0.138790	0.149486
H112	H	1.441605	0.361210	0.649486
H113	H	0.966443	-0.274472	0.201971
H114	H	1.466443	0.225528	0.701971
N115	N	1.099614	-0.006037	0.595849
N116	N	1.599614	0.493963	1.095849
H117	H	1.135107	-0.060691	0.552657
H118	H	1.635107	0.439309	1.052657
H119	H	1.136651	0.042600	0.634087
H120	H	1.636651	0.542600	1.134087
N121	N	1.114696	-0.473278	0.088785
N122	N	1.614696	0.026722	0.588785
H123	H	1.155370	-0.406640	0.090954
H124	H	1.655370	0.093360	0.590954
H125	H	1.121021	-0.527683	0.143603
H126	H	1.621021	-0.027683	0.643603
N127	N	1.116973	-0.472812	-0.083549
N128	N	1.616973	0.027188	0.416451
H129	H	1.116113	-0.568429	-0.085835
H130	H	1.616113	-0.068429	0.414165
H131	H	1.147210	-0.443632	-0.136917
H132	H	1.647210	0.056368	0.363083
N133	N	0.988961	-0.450234	-0.166771
N134	N	1.488961	0.049766	0.333229
H135	H	1.020487	-0.420577	-0.219089
H136	H	1.520487	0.079423	0.280911
H137	H	0.990887	-0.546301	-0.167861
H138	H	1.490887	-0.046301	0.332139
N139	N	0.846629	-0.178061	-0.079374
N140	N	1.346629	0.321939	0.420626
H141	H	0.824382	-0.248101	-0.114909
H142	H	1.324382	0.251899	0.385091
H143	H	0.798654	-0.115345	-0.059332
H144	H	1.298654	0.384655	0.440668
H145	H	0.387735	0.381005	0.000058
H146	H	0.887735	0.881005	0.500058
H147	H	0.853964	-0.409831	-0.060269
H148	H	1.353964	0.090169	0.439731
H149	H	0.854105	-0.411442	0.059346
H150	H	1.354105	0.088558	0.559346
H151	H	0.857734	-0.192912	0.060089
H152	H	1.357734	0.307088	0.560089
N153	N	0.983142	-0.445207	0.166557
N154	N	1.483142	0.054793	0.666557
H155	H	0.924587	-0.400394	0.167966
H156	H	1.424587	0.099606	0.667966
H157	H	0.980720	-0.540558	0.167384
H158	H	1.480720	-0.040558	0.667384
H159	H	0.996886	-0.220719	-0.145779
H160	H	1.496886	0.279281	0.354221
