data_functionalizedCrystal
_audit_creation_method	'MofGen! by Chris Wilmer'
_symmetry_space_group_name_H-M	'P1'
_symmetry_Int_Tables_number	1
_symmetry_cell_setting	triclinic
loop_
_symmetry_equiv_pos_as_xyz
  x,y,z
_cell_length_a	25.639239
_cell_length_b	13.897449
_cell_length_c	13.897441
_cell_angle_alpha	89.973931
_cell_angle_beta	90.034305
_cell_angle_gamma	89.961386
loop_
_atom_site_label
_atom_site_type_symbol
_atom_site_fract_x
_atom_site_fract_y
_atom_site_fract_z
Zn1	Zn	-0.208135	-1.474562	0.545494
Zn2	Zn	0.291865	-0.974562	1.045494
Zn3	Zn	-0.295578	-1.474397	0.384185
Zn4	Zn	0.204422	-0.974397	0.884185
Zn5	Zn	-0.208158	-1.313251	0.384197
Zn6	Zn	0.291842	-0.813251	0.884197
Zn7	Zn	-0.295541	-1.313174	0.545422
Zn8	Zn	0.204459	-0.813174	1.045422
O9	O	-0.251853	-1.393846	0.464824
O10	O	0.248147	-0.893846	0.964824
O11	O	-0.219740	-1.609522	0.524120
O12	O	0.280260	-1.109522	1.024120
O13	O	-0.284006	-1.452984	0.249204
O14	O	0.215994	-0.952984	0.749204
O15	O	-0.134990	-1.334751	0.405628
O16	O	0.365010	-0.834751	0.905628
O17	O	-0.283984	-1.609400	0.405607
O18	O	0.216016	-1.109400	0.905607
O19	O	-0.134973	-1.453265	0.524132
O20	O	0.365027	-0.953265	1.024132
O21	O	-0.219779	-1.334591	0.249214
O22	O	0.280221	-0.834591	0.749214
O23	O	-0.219744	-1.178259	0.405559
O24	O	0.280256	-0.678259	0.905559
O25	O	-0.283922	-1.334619	0.680413
O26	O	0.216078	-0.834619	1.180413
O27	O	-0.283944	-1.178202	0.524011
O28	O	0.216056	-0.678202	1.024011
O29	O	-0.219705	-1.453190	0.680466
O30	O	0.280295	-0.953190	1.180466
O31	O	-0.368738	-1.452909	0.405538
O32	O	0.131262	-0.952909	0.905538
O33	O	-0.368711	-1.334459	0.523998
O34	O	0.131289	-0.834459	1.023998
C35	C	-0.251843	-1.143232	0.464779
C36	C	0.248157	-0.643232	0.964779
C37	C	-0.251851	-1.036018	0.464782
C38	C	0.248149	-0.536018	0.964782
C39	C	-0.251852	-0.948948	0.464794
C40	C	0.248148	-0.448948	0.964794
C41	C	-0.251855	-0.839715	0.464819
C42	C	0.248145	-0.339715	0.964819
C43	C	-0.387696	-1.393684	0.464780
C44	C	0.112304	-0.893684	0.964780
C45	C	-0.445810	-1.393703	0.464793
C46	C	0.054190	-0.893703	0.964793
C47	C	-0.806174	-1.455684	0.403247
C48	C	-0.306174	-0.955684	0.903247
C49	C	-0.860778	-1.455721	0.403260
C50	C	-0.360778	-0.955721	0.903260
O51	O	-0.889016	-1.508251	0.350882
O52	O	-0.389016	-1.008251	0.850882
N53	N	-0.888092	-1.394015	0.464888
N54	N	-0.388092	-0.894015	0.964888
C55	C	-0.860799	-1.332275	0.526515
C56	C	-0.360799	-0.832275	1.026515
O57	O	-0.889045	-1.279794	0.578936
O58	O	-0.389045	-0.779794	1.078936
C59	C	-0.806195	-1.332243	0.526506
C60	C	-0.306195	-0.832243	1.026506
C61	C	-0.778884	-1.393946	0.464867
C62	C	-0.278884	-0.893946	0.964867
C63	C	-0.778863	-1.517382	0.341614
C64	C	-0.278863	-1.017382	0.841614
C65	C	-0.724262	-1.517343	0.341600
C66	C	-0.224262	-1.017343	0.841600
C67	C	-0.696973	-1.455606	0.403219
C68	C	-0.196973	-0.955606	0.903219
C69	C	-0.724284	-1.393907	0.464853
C70	C	-0.224284	-0.893907	0.964853
C71	C	-0.778903	-1.270509	0.588136
C72	C	-0.278903	-0.770509	1.088136
C73	C	-0.724296	-1.270483	0.588123
C74	C	-0.224296	-0.770483	1.088123
C75	C	-0.696985	-1.332186	0.526484
C76	C	-0.196985	-0.832186	1.026484
C77	C	-0.642394	-1.332131	0.526458
C78	C	-0.142394	-0.832131	1.026458
N79	N	-0.615080	-1.393837	0.464830
N80	N	-0.115080	-0.893837	0.964830
C81	C	-0.642370	-1.455574	0.403210
C82	C	-0.142370	-0.955574	0.903210
C83	C	-0.975469	-1.332348	0.526529
C84	C	-0.475469	-0.832348	1.026529
C85	C	-1.030072	-1.332374	0.526534
C86	C	-0.530072	-0.832374	1.026534
C87	C	-1.030047	-1.455822	0.403280
C88	C	-0.530047	-0.955822	0.903280
C89	C	-0.975444	-1.455790	0.403272
C90	C	-0.475444	-0.955790	0.903272
C91	C	-0.948155	-1.394054	0.464901
C92	C	-0.448155	-0.894054	0.964901
C93	C	-0.527705	-1.455487	0.403185
C94	C	-0.027705	-0.955487	0.903185
C95	C	-0.473099	-1.455440	0.403174
C96	C	0.026901	-0.955440	0.903174
C97	C	-0.473128	-1.331997	0.526431
C98	C	0.026872	-0.831997	1.026431
C99	C	-0.527729	-1.332040	0.526439
C100	C	-0.027729	-0.832040	1.026439
C101	C	-0.555016	-1.393793	0.464813
C102	C	-0.055016	-0.893793	0.964813
O103	O	-0.614121	-1.279630	0.578812
O104	O	-0.114121	-0.779630	1.078812
O105	O	-0.614116	-1.508056	0.350807
O106	O	-0.114116	-1.008056	0.850807
C107	C	-0.115480	-1.394035	0.464890
C108	C	0.384520	-0.894035	0.964890
C109	C	-0.057366	-1.394116	0.464918
C110	C	0.442634	-0.894116	0.964918
C111	C	-0.251807	-1.393914	0.716417
C112	C	0.248193	-0.893914	1.216417
C113	C	-0.251787	-1.393944	0.823631
C114	C	0.248213	-0.893944	1.323631
C115	C	-0.251861	-0.645439	0.464859
C116	C	0.248139	-0.145439	0.964859
C117	C	-0.251860	-0.752653	0.464843
C118	C	0.248140	-0.252653	0.964843
C119	C	-0.251861	-1.393833	0.214210
C120	C	0.248139	-0.893833	0.714210
C121	C	-0.251734	-1.393991	0.106997
C122	C	0.248266	-0.893991	0.606997
C123	C	-0.251752	-1.393970	1.019927
C124	C	0.248248	-0.893970	1.519927
C125	C	-0.251773	-1.393952	0.910694
C126	C	0.248227	-0.893952	1.410694
H127	H	-0.450864	-1.505686	0.352976
H128	H	0.049136	-1.005686	0.852976
H129	H	-0.702029	-1.567590	0.291411
H130	H	-0.202029	-1.067590	0.791411
F131	F	-1.059132	-1.266691	0.592128
F132	F	-0.559132	-0.766691	1.092128
F133	F	-0.444075	-1.266297	0.592010
F134	F	0.055925	-0.766297	1.092010
H135	H	-0.953253	-1.282067	0.576713
H136	H	-0.453253	-0.782067	1.076713
F137	F	-0.807898	-1.583099	0.276025
F138	F	-0.307898	-1.083099	0.776025
H139	H	-0.953211	-1.506034	0.353080
H140	H	-0.453211	-1.006034	0.853080
F141	F	-0.556738	-1.521211	0.337596
F142	F	-0.056738	-1.021211	0.837596
H143	H	-1.052276	-1.506095	0.353110
H144	H	-0.552276	-1.006095	0.853110
H145	H	-0.801130	-1.220259	0.638325
H146	H	-0.301130	-0.720259	1.138325
H147	H	-0.702080	-1.220211	0.638312
H148	H	-0.202080	-0.720211	1.138312
H149	H	-0.549966	-1.281799	0.576634
H150	H	-0.049966	-0.781799	1.076634
