data_functionalizedCrystal
_audit_creation_method	'MofGen! by Chris Wilmer'
_symmetry_space_group_name_H-M	'P1'
_symmetry_Int_Tables_number	1
_symmetry_cell_setting	triclinic
loop_
_symmetry_equiv_pos_as_xyz
  x,y,z
_cell_length_a	11.792241
_cell_length_b	12.996460
_cell_length_c	11.792254
_cell_angle_alpha	90.006311
_cell_angle_beta	84.196007
_cell_angle_gamma	90.001369
loop_
_atom_site_label
_atom_site_type_symbol
_atom_site_fract_x
_atom_site_fract_y
_atom_site_fract_z
O1	O	1.506917	0.085467	0.155569
O2	O	1.756917	0.335467	0.405569
O3	O	2.006917	0.585467	0.655569
O4	O	2.256917	0.835467	0.905569
O5	O	1.176577	0.085491	0.171602
O6	O	1.426577	0.335491	0.421602
O7	O	1.676577	0.585491	0.671602
O8	O	1.926577	0.835491	0.921602
O9	O	1.349756	0.085472	-0.001584
O10	O	1.599756	0.335472	0.248416
O11	O	1.849756	0.585472	0.498416
O12	O	2.099756	0.835472	0.748416
O13	O	1.333738	0.085487	0.328755
O14	O	1.583738	0.335487	0.578755
O15	O	1.833738	0.585487	0.828755
O16	O	2.083738	0.835487	1.078755
O17	O	1.349738	-0.085662	-0.001594
O18	O	1.599738	0.164338	0.248406
O19	O	1.849738	0.414338	0.498406
O20	O	2.099738	0.664338	0.748406
O21	O	1.176559	-0.085642	0.171592
O22	O	1.426559	0.164358	0.421592
O23	O	1.676559	0.414358	0.671592
O24	O	1.926559	0.664358	0.921592
O25	O	1.506899	-0.085666	0.155559
O26	O	1.756899	0.164334	0.405559
O27	O	2.006899	0.414334	0.655559
O28	O	2.256899	0.664334	0.905559
Cu29	Cu	1.341727	-0.101280	0.163575
Cu30	Cu	1.591727	0.148720	0.413575
Cu31	Cu	1.841727	0.398720	0.663575
Cu32	Cu	2.091727	0.648720	0.913575
Cu33	Cu	1.341749	0.101105	0.163586
Cu34	Cu	1.591749	0.351105	0.413586
Cu35	Cu	1.841749	0.601105	0.663586
Cu36	Cu	2.091749	0.851105	0.913586
O37	O	1.333720	-0.085647	0.328745
O38	O	1.583720	0.164353	0.578745
O39	O	1.833720	0.414353	0.828745
O40	O	2.083720	0.664353	1.078745
C41	C	1.134277	-0.000072	0.170590
C42	C	1.384277	0.249928	0.420590
C43	C	1.634277	0.499928	0.670590
C44	C	1.884277	0.749928	0.920590
C45	C	1.008263	-0.000063	0.167576
C46	C	1.258263	0.249937	0.417576
C47	C	1.508263	0.499937	0.667576
C48	C	1.758263	0.749937	0.917576
N49	N	1.341720	-0.243627	0.163566
N50	N	1.591720	0.006373	0.413566
N51	N	1.841720	0.256373	0.663566
N52	N	2.091720	0.506373	0.913566
C53	C	0.777551	-0.000093	0.162033
C54	C	1.027551	0.249907	0.412033
C55	C	1.277551	0.499907	0.662033
C56	C	1.527551	0.749907	0.912033
C57	C	0.905936	-0.000077	0.165112
C58	C	1.155936	0.249923	0.415112
C59	C	1.405936	0.499923	0.665112
C60	C	1.655936	0.749923	0.915112
C61	C	1.341747	-0.663442	0.163588
C62	C	1.591747	-0.413442	0.413588
C63	C	1.841747	-0.163442	0.663588
C64	C	2.091747	0.086558	0.913588
C65	C	1.341736	-0.546637	0.163585
C66	C	1.591736	-0.296637	0.413585
C67	C	1.841736	-0.046637	0.663585
C68	C	2.091736	0.203363	0.913585
C69	C	1.341734	-0.453538	0.163578
C70	C	1.591734	-0.203538	0.413578
C71	C	1.841734	0.046462	0.663578
C72	C	2.091734	0.296462	0.913578
C73	C	1.341723	-0.336726	0.163574
C74	C	1.591723	-0.086726	0.413574
C75	C	1.841723	0.163274	0.663574
C76	C	2.091723	0.413274	0.913574
C77	C	1.549199	-0.000100	0.156571
C78	C	1.799199	0.249900	0.406571
C79	C	2.049199	0.499900	0.656571
C80	C	2.299199	0.749900	0.906571
C81	C	1.675213	-0.000102	0.159586
C82	C	1.925213	0.249898	0.409586
C83	C	2.175213	0.499898	0.659586
C84	C	2.425213	0.749898	0.909586
C85	C	1.348738	-0.000095	-0.043880
C86	C	1.598738	0.249905	0.206120
C87	C	1.848738	0.499905	0.456120
C88	C	2.098738	0.749905	0.706120
C89	C	1.345718	-0.000094	-0.169893
C90	C	1.595718	0.249906	0.080107
C91	C	1.845718	0.499906	0.330107
C92	C	2.095718	0.749906	0.580107
N93	N	1.341765	0.243452	0.163586
N94	N	1.591765	0.493452	0.413586
N95	N	1.841765	0.743452	0.663586
N96	N	2.091765	0.993452	0.913586
C97	C	1.343264	-0.000090	-0.272229
C98	C	1.593264	0.249910	-0.022229
C99	C	1.843264	0.499910	0.227771
C100	C	2.093264	0.749910	0.477771
C101	C	1.340196	-0.000080	-0.400616
C102	C	1.590196	0.249920	-0.150616
C103	C	1.840196	0.499920	0.099384
C104	C	2.090196	0.749920	0.349384
C105	C	1.334738	-0.000078	0.371041
C106	C	1.584738	0.249922	0.621041
C107	C	1.834738	0.499922	0.871041
C108	C	2.084738	0.749922	1.121041
C109	C	1.337758	-0.000072	0.497054
C110	C	1.587758	0.249928	0.747054
C111	C	1.837758	0.499928	0.997054
C112	C	2.087758	0.749928	1.247054
