data_functionalizedCrystal
_audit_creation_method	'MofGen! by Chris Wilmer'
_symmetry_space_group_name_H-M	'P1'
_symmetry_Int_Tables_number	1
_symmetry_cell_setting	triclinic
loop_
_symmetry_equiv_pos_as_xyz
  x,y,z
_cell_length_a	8.965430
_cell_length_b	10.489741
_cell_length_c	10.489741
_cell_angle_alpha	84.539174
_cell_angle_beta	90.000707
_cell_angle_gamma	89.998843
loop_
_atom_site_label
_atom_site_type_symbol
_atom_site_fract_x
_atom_site_fract_y
_atom_site_fract_z
O1	O	0.123946	-1.694053	-0.179958
O2	O	0.123969	-1.322858	-0.196851
O3	O	0.123948	-1.516902	-0.002807
O4	O	0.123967	-1.500009	-0.374003
O5	O	-0.124130	-1.516886	-0.002820
O6	O	-0.124110	-1.322841	-0.196864
O7	O	-0.124133	-1.694037	-0.179971
Cu8	Cu	-0.146773	-1.508438	-0.188419
Cu9	Cu	0.146609	-1.508457	-0.188404
O10	O	-0.124112	-1.499993	-0.374016
C11	C	-0.000067	-1.275318	-0.195582
C12	C	-0.000059	-1.133688	-0.191765
N13	N	-0.353122	-1.508433	-0.188429
C14	C	-0.000090	-1.515618	0.044718
C15	C	-0.000087	-1.511801	0.186348
C16	C	-0.450418	-1.418666	-0.278138
C17	C	-0.549838	-1.534163	-0.303949
C18	C	-0.549830	-1.392986	-0.162629
C19	C	-0.450352	-1.623988	-0.214298
C20	C	-0.450336	-1.482735	-0.072927
C21	C	-0.549711	-1.598314	-0.098690
N22	N	0.352958	-1.508471	-0.188384
C23	C	-0.000093	-1.741577	-0.181241
C24	C	-0.000092	-1.883206	-0.185058
C25	C	-0.000079	-1.065548	-0.068300
C26	C	0.122237	-0.973430	-0.126617
C27	C	-0.122349	-0.973447	-0.126659
C28	C	0.122358	-1.043435	-0.250133
C29	C	-0.122338	-1.043462	-0.250158
C30	C	0.000007	-0.951371	-0.308564
C31	C	-0.000070	-1.501277	-0.421541
C32	C	-0.000063	-1.505094	-0.563170
C33	C	-0.000069	-1.388336	0.254488
C34	C	-0.122388	-1.446652	0.346604
C35	C	0.122198	-1.446697	0.346591
C36	C	-0.122508	-1.570167	0.276599
C37	C	0.122189	-1.570195	0.276576
C38	C	-0.000161	-1.628600	0.368665
H39	H	-0.406821	-1.342824	-0.354072
H40	H	0.000079	-0.901947	-0.410168
H41	H	-0.000185	-1.286824	0.204837
H42	H	-0.406596	-1.460937	0.024699
H43	H	0.000069	-1.115238	0.033196
C44	C	-0.608844	-1.261074	-0.133159
H45	H	-0.574825	-1.197387	-0.196993
H46	H	-0.714788	-1.262248	-0.132575
H47	H	-0.573290	-1.242196	-0.051736
H48	H	0.225620	-1.394447	0.377561
C49	C	-0.608903	-1.563555	-0.435866
H50	H	-0.574919	-1.499683	-0.499530
H51	H	-0.573386	-1.644964	-0.454803
H52	H	-0.714855	-1.564120	-0.434655
C53	C	-0.262027	-1.085407	-0.320683
H54	H	-0.232645	-1.126361	-0.393662
H55	H	-0.318623	-1.143339	-0.264821
H56	H	-0.320991	-1.012386	-0.347093
H57	H	0.225643	-0.942422	-0.074371
H58	H	-0.225794	-1.394404	0.377610
C59	C	0.262195	-1.085076	-0.320668
H60	H	0.261372	-1.175433	-0.322636
H61	H	0.262514	-1.044949	-0.405759
H62	H	0.348968	-1.060554	-0.277113
H63	H	-0.226035	-1.622355	0.245761
C64	C	-0.262049	-0.931592	-0.056073
H65	H	-0.261890	-0.971078	0.029278
H66	H	-0.261538	-0.841163	-0.054827
H67	H	-0.348907	-0.956744	-0.099112
C68	C	-0.000339	-1.765799	0.435567
H69	H	0.086561	-1.778585	0.487027
H70	H	-0.086469	-1.777939	0.488060
H71	H	-0.001223	-1.825502	0.372917
C72	C	-0.391583	-1.755929	-0.243922
H73	H	-0.285622	-1.755095	-0.243805
H74	H	-0.426371	-1.819741	-0.180566
H75	H	-0.426482	-1.774333	-0.325698
C76	C	-0.608255	-1.700993	0.003822
H77	H	-0.574008	-1.782932	-0.014703
H78	H	-0.572679	-1.683422	0.085638
H79	H	-0.714211	-1.699988	0.003749
C80	C	0.261883	-1.640713	0.234630
H81	H	0.348716	-1.596732	0.258334
H82	H	0.262759	-1.725583	0.275303
H83	H	0.260375	-1.643300	0.144357
